NHQ.pdb
     RDKit          3D

 28 28  0  0  1  0  0  0  0  0999 V2000
    8.2128  -16.0023   12.6060 N   0  0  0  0  0  0  0  0  0  0  0  0
    9.5415  -16.2365   13.0473 C   0  0  0  0  0  0  0  0  0  0  0  0
   10.3027  -17.0763   12.4937 O   0  0  0  0  0  0  0  0  0  0  0  0
   10.0362  -15.4523   14.2077 C   0  0  0  0  0  0  0  0  0  0  0  0
   10.8031  -16.3192   15.1831 C   0  0  2  0  0  0  0  0  0  0  0  0
    9.9691  -17.4198   15.6096 N   0  0  0  0  0  0  0  0  0  0  0  0
   11.1960  -15.4488   16.3199 C   0  0  0  0  0  0  0  0  0  0  0  0
   11.9423  -14.4595   16.1151 O   0  0  0  0  0  0  0  0  0  0  0  0
   10.7641  -15.6799   17.6542 N   0  0  0  0  0  0  0  0  0  0  0  0
   11.1102  -14.8814   18.7906 C   0  0  1  0  0  0  0  0  0  0  0  0
    9.9641  -14.6590   19.7360 C   0  0  0  0  0  0  0  0  0  0  0  0
    8.8368  -13.9359   19.1417 C   0  0  0  0  0  0  0  0  0  0  0  0
    8.5553  -12.6013   19.3026 C   0  0  0  0  0  0  0  0  0  0  0  0
    7.4419  -12.3348   18.5937 N   0  0  0  0  0  0  0  0  0  0  0  0
    7.0161  -13.4649   17.9922 C   0  0  0  0  0  0  0  0  0  0  0  0
    7.8931  -14.4513   18.3421 N   0  0  0  0  0  0  0  0  0  0  0  0
   12.2195  -15.5289   19.5718 C   0  0  0  0  0  0  0  0  0  0  0  0
   12.2992  -16.7806   19.6550 O   0  0  0  0  0  0  0  0  0  0  0  0
   17.9318  -12.7295   20.1603 N   0  0  0  0  0  0  0  0  0  0  0  0
   17.1190  -13.2494   19.0901 C   0  0  0  0  0  0  0  0  0  0  0  0
   17.4559  -12.8736   17.9494 O   0  0  0  0  0  0  0  0  0  0  0  0
   16.0014  -14.1326   19.3121 C   0  0  0  0  0  0  0  0  0  0  0  0
   15.6080  -14.5446   20.6646 C   0  0  0  0  0  0  0  0  0  0  0  0
   14.3978  -15.3776   20.8482 C   0  0  2  0  0  0  0  0  0  0  0  0
   13.2145  -14.7681   20.2426 N   0  0  0  0  0  0  0  0  0  0  0  0
   14.0807  -15.8119   22.1971 C   0  0  0  0  0  0  0  0  0  0  0  0
   12.8421  -15.5349   22.7446 O   0  0  0  0  0  0  0  0  0  0  0  0
   14.8986  -16.4500   22.9242 O   0  0  0  0  0  0  0  0  0  0  0  0
  2  4  1  0
  2  1  1  0
  3  2  2  0
  5  4  1  0
  5  6  1  1
  7  8  2  0
  7  5  1  0
  9  7  1  0
 10  9  1  0
 11 12  1  0
 10 11  1  1
 12 13  2  0
 12 16  1  0
 13 14  1  0
 14 15  1  0
 16 15  2  0
 17 18  2  0
 17 10  1  0
 20 19  1  0
 21 20  2  0
 22 20  1  0
 23 22  1  0
 24 23  1  1
 24 25  1  0
 25 17  1  0
 26 24  1  0
 27 26  1  0
 28 26  2  0
M  END
$$$$
