NHQ.pdb
     RDKit          3D

 28 28  0  0  1  0  0  0  0  0999 V2000
    8.0092  -17.4020   17.5632 N   0  0  0  0  0  0  0  0  0  0  0  0
    8.3907  -18.3303   18.5671 C   0  0  0  0  0  0  0  0  0  0  0  0
    8.4502  -19.5725   18.3559 O   0  0  0  0  0  0  0  0  0  0  0  0
    8.7293  -17.7987   19.9121 C   0  0  0  0  0  0  0  0  0  0  0  0
    9.2839  -16.3925   19.8348 C   0  0  2  0  0  0  0  0  0  0  0  0
   10.5660  -16.4152   19.1681 N   0  0  0  0  0  0  0  0  0  0  0  0
    9.3931  -15.8927   21.2287 C   0  0  0  0  0  0  0  0  0  0  0  0
   10.4875  -15.9867   21.8378 O   0  0  0  0  0  0  0  0  0  0  0  0
    8.3035  -15.3021   21.9244 N   0  0  0  0  0  0  0  0  0  0  0  0
    8.3410  -14.8167   23.2705 C   0  0  1  0  0  0  0  0  0  0  0  0
    7.1904  -13.9132   23.6122 C   0  0  0  0  0  0  0  0  0  0  0  0
    7.2772  -13.3225   24.9503 C   0  0  0  0  0  0  0  0  0  0  0  0
    6.3850  -13.5092   25.9776 C   0  0  0  0  0  0  0  0  0  0  0  0
    6.8268  -12.7966   27.0312 N   0  0  0  0  0  0  0  0  0  0  0  0
    7.9718  -12.1675   26.6943 C   0  0  0  0  0  0  0  0  0  0  0  0
    8.2390  -12.5040   25.3981 N   0  0  0  0  0  0  0  0  0  0  0  0
    8.3196  -15.9616   24.2446 C   0  0  0  0  0  0  0  0  0  0  0  0
    7.4724  -16.8833   24.1320 O   0  0  0  0  0  0  0  0  0  0  0  0
   13.2131  -17.6692   28.3339 N   0  0  0  0  0  0  0  0  0  0  0  0
   12.0677  -18.4995   28.6078 C   0  0  0  0  0  0  0  0  0  0  0  0
   12.2493  -19.3652   29.4874 O   0  0  0  0  0  0  0  0  0  0  0  0
   10.8086  -18.3498   27.9218 C   0  0  0  0  0  0  0  0  0  0  0  0
   10.6095  -17.3105   26.9049 C   0  0  0  0  0  0  0  0  0  0  0  0
    9.3083  -17.2177   26.2047 C   0  0  2  0  0  0  0  0  0  0  0  0
    9.2416  -16.0539   25.3217 N   0  0  0  0  0  0  0  0  0  0  0  0
    8.1046  -17.2789   27.0147 C   0  0  0  0  0  0  0  0  0  0  0  0
    7.5795  -18.5012   27.3901 O   0  0  0  0  0  0  0  0  0  0  0  0
    7.4884  -16.2450   27.4099 O   0  0  0  0  0  0  0  0  0  0  0  0
  2  4  1  0
  2  1  1  0
  3  2  2  0
  5  4  1  0
  5  6  1  1
  7  8  2  0
  7  5  1  0
  9  7  1  0
 10  9  1  0
 11 12  1  0
 10 11  1  1
 12 13  2  0
 12 16  1  0
 13 14  1  0
 14 15  1  0
 16 15  2  0
 17 18  2  0
 17 10  1  0
 20 19  1  0
 21 20  2  0
 22 20  1  0
 23 22  1  0
 24 23  1  1
 24 25  1  0
 25 17  1  0
 26 24  1  0
 27 26  1  0
 28 26  2  0
M  END
$$$$
