NHQ.pdb
     RDKit          3D

 28 28  0  0  1  0  0  0  0  0999 V2000
   13.6172  -18.7416   19.3332 N   0  0  0  0  0  0  0  0  0  0  0  0
   13.5672  -17.3757   18.9498 C   0  0  0  0  0  0  0  0  0  0  0  0
   14.2028  -16.9253   17.9577 O   0  0  0  0  0  0  0  0  0  0  0  0
   12.7282  -16.4569   19.7612 C   0  0  0  0  0  0  0  0  0  0  0  0
   12.1845  -17.1403   20.9975 C   0  0  2  0  0  0  0  0  0  0  0  0
   11.3156  -18.2267   20.6059 N   0  0  0  0  0  0  0  0  0  0  0  0
   11.4611  -16.1070   21.7807 C   0  0  0  0  0  0  0  0  0  0  0  0
   12.0984  -15.1449   22.2767 O   0  0  0  0  0  0  0  0  0  0  0  0
   10.0580  -16.1493   22.0038 N   0  0  0  0  0  0  0  0  0  0  0  0
    9.2951  -15.1543   22.6944 C   0  0  1  0  0  0  0  0  0  0  0  0
    7.9526  -14.8928   22.0730 C   0  0  0  0  0  0  0  0  0  0  0  0
    8.0235  -14.2784   20.7446 C   0  0  0  0  0  0  0  0  0  0  0  0
    9.1661  -13.8719   20.1001 C   0  0  0  0  0  0  0  0  0  0  0  0
    8.7989  -13.3643   18.9081 N   0  0  0  0  0  0  0  0  0  0  0  0
    7.4574  -13.4406   18.7861 C   0  0  0  0  0  0  0  0  0  0  0  0
    6.9896  -14.0109   19.9353 N   0  0  0  0  0  0  0  0  0  0  0  0
    9.0589  -15.5668   24.1206 C   0  0  0  0  0  0  0  0  0  0  0  0
    8.2539  -14.9310   24.8469 O   0  0  0  0  0  0  0  0  0  0  0  0
    5.7503  -19.4033   26.8679 N   0  0  0  0  0  0  0  0  0  0  0  0
    6.6763  -19.7536   25.8209 C   0  0  0  0  0  0  0  0  0  0  0  0
    6.3774  -20.7829   25.1830 O   0  0  0  0  0  0  0  0  0  0  0  0
    7.8586  -18.9819   25.5292 C   0  0  0  0  0  0  0  0  0  0  0  0
    8.1569  -17.7371   26.2471 C   0  0  0  0  0  0  0  0  0  0  0  0
    9.4851  -17.1035   26.0838 C   0  0  2  0  0  0  0  0  0  0  0  0
    9.7246  -16.6775   24.7055 N   0  0  0  0  0  0  0  0  0  0  0  0
   10.6414  -17.8342   26.5713 C   0  0  0  0  0  0  0  0  0  0  0  0
   10.7084  -18.2291   27.8943 O   0  0  0  0  0  0  0  0  0  0  0  0
   11.6232  -18.1405   25.8316 O   0  0  0  0  0  0  0  0  0  0  0  0
  2  4  1  0
  2  1  1  0
  3  2  2  0
  5  4  1  0
  5  6  1  6
  7  8  2  0
  7  5  1  0
  9  7  1  0
 10  9  1  0
 11 12  1  0
 10 11  1  6
 12 13  2  0
 12 16  1  0
 13 14  1  0
 14 15  1  0
 16 15  2  0
 17 18  2  0
 17 10  1  0
 20 19  1  0
 21 20  2  0
 22 20  1  0
 23 22  1  0
 24 23  1  6
 24 25  1  0
 25 17  1  0
 26 24  1  0
 27 26  1  0
 28 26  2  0
M  END
$$$$
