NHQ.pdb
     RDKit          3D

 28 28  0  0  1  0  0  0  0  0999 V2000
   13.1590  -16.7276   14.0106 N   0  0  0  0  0  0  0  0  0  0  0  0
   12.4446  -15.5013   14.0371 C   0  0  0  0  0  0  0  0  0  0  0  0
   12.3032  -14.7757   13.0150 O   0  0  0  0  0  0  0  0  0  0  0  0
   11.8477  -15.0730   15.3281 C   0  0  0  0  0  0  0  0  0  0  0  0
   12.1551  -16.0535   16.4395 C   0  0  2  0  0  0  0  0  0  0  0  0
   11.2507  -17.1776   16.3552 N   0  0  0  0  0  0  0  0  0  0  0  0
   12.0060  -15.3172   17.7201 C   0  0  0  0  0  0  0  0  0  0  0  0
   12.7919  -14.3752   17.9895 O   0  0  0  0  0  0  0  0  0  0  0  0
   11.0016  -15.6277   18.6766 N   0  0  0  0  0  0  0  0  0  0  0  0
   10.8660  -15.0227   19.9668 C   0  0  1  0  0  0  0  0  0  0  0  0
    9.4374  -14.8075   20.3786 C   0  0  0  0  0  0  0  0  0  0  0  0
    8.6667  -13.9874   19.4403 C   0  0  0  0  0  0  0  0  0  0  0  0
    8.6232  -12.6150   19.4106 C   0  0  0  0  0  0  0  0  0  0  0  0
    7.8046  -12.2583   18.4027 N   0  0  0  0  0  0  0  0  0  0  0  0
    7.3327  -13.3685   17.7985 C   0  0  0  0  0  0  0  0  0  0  0  0
    7.8773  -14.4352   18.4544 N   0  0  0  0  0  0  0  0  0  0  0  0
   11.5150  -15.8764   21.0203 C   0  0  0  0  0  0  0  0  0  0  0  0
   11.2646  -17.1061   21.0928 O   0  0  0  0  0  0  0  0  0  0  0  0
   17.7891  -16.2295   21.7926 N   0  0  0  0  0  0  0  0  0  0  0  0
   16.7472  -15.2719   22.0643 C   0  0  0  0  0  0  0  0  0  0  0  0
   17.1526  -14.1429   22.4060 O   0  0  0  0  0  0  0  0  0  0  0  0
   15.3446  -15.5869   21.9550 C   0  0  0  0  0  0  0  0  0  0  0  0
   14.5147  -15.8087   23.1448 C   0  0  0  0  0  0  0  0  0  0  0  0
   13.0875  -16.1669   22.9799 C   0  0  2  0  0  0  0  0  0  0  0  0
   12.4275  -15.3416   21.9690 N   0  0  0  0  0  0  0  0  0  0  0  0
   12.2655  -16.2153   24.1758 C   0  0  0  0  0  0  0  0  0  0  0  0
   11.1261  -15.4382   24.2694 O   0  0  0  0  0  0  0  0  0  0  0  0
   12.5401  -16.9512   25.1698 O   0  0  0  0  0  0  0  0  0  0  0  0
  2  4  1  0
  2  1  1  0
  3  2  2  0
  5  4  1  0
  5  6  1  1
  7  8  2  0
  7  5  1  0
  9  7  1  0
 10  9  1  0
 11 12  1  0
 10 11  1  1
 12 13  2  0
 12 16  1  0
 13 14  1  0
 14 15  1  0
 16 15  2  0
 17 18  2  0
 17 10  1  0
 20 19  1  0
 21 20  2  0
 22 20  1  0
 23 22  1  0
 24 23  1  1
 24 25  1  0
 25 17  1  0
 26 24  1  0
 27 26  1  0
 28 26  2  0
M  END
$$$$
