NHQ.pdb
     RDKit          3D

 28 28  0  0  1  0  0  0  0  0999 V2000
   12.8715  -18.1462   14.9794 N   0  0  0  0  0  0  0  0  0  0  0  0
   13.6395  -18.5001   16.1196 C   0  0  0  0  0  0  0  0  0  0  0  0
   14.4070  -19.5010   16.1372 O   0  0  0  0  0  0  0  0  0  0  0  0
   13.5210  -17.6461   17.3291 C   0  0  0  0  0  0  0  0  0  0  0  0
   12.5179  -16.5302   17.1303 C   0  0  2  0  0  0  0  0  0  0  0  0
   13.1638  -15.4099   16.4849 N   0  0  0  0  0  0  0  0  0  0  0  0
   11.9976  -16.1710   18.4737 C   0  0  0  0  0  0  0  0  0  0  0  0
   12.7046  -15.4805   19.2489 O   0  0  0  0  0  0  0  0  0  0  0  0
   10.7167  -16.5752   18.9387 N   0  0  0  0  0  0  0  0  0  0  0  0
   10.1451  -16.2316   20.2053 C   0  0  1  0  0  0  0  0  0  0  0  0
    8.6533  -16.0606   20.1609 C   0  0  0  0  0  0  0  0  0  0  0  0
    8.2114  -14.9117   19.3660 C   0  0  0  0  0  0  0  0  0  0  0  0
    7.9812  -14.9039   18.0121 C   0  0  0  0  0  0  0  0  0  0  0  0
    7.5897  -13.6601   17.6758 N   0  0  0  0  0  0  0  0  0  0  0  0
    7.5678  -12.8865   18.7809 C   0  0  0  0  0  0  0  0  0  0  0  0
    7.9566  -13.6782   19.8233 N   0  0  0  0  0  0  0  0  0  0  0  0
   10.4467  -17.2940   21.2253 C   0  0  0  0  0  0  0  0  0  0  0  0
   10.8403  -18.4329   20.8677 O   0  0  0  0  0  0  0  0  0  0  0  0
   15.3797  -15.5410   23.7417 N   0  0  0  0  0  0  0  0  0  0  0  0
   15.1619  -16.8491   23.1781 C   0  0  0  0  0  0  0  0  0  0  0  0
   16.2009  -17.5077   22.9714 O   0  0  0  0  0  0  0  0  0  0  0  0
   13.8500  -17.3625   22.8718 C   0  0  0  0  0  0  0  0  0  0  0  0
   12.6408  -16.5669   23.1137 C   0  0  0  0  0  0  0  0  0  0  0  0
   11.4036  -17.2428   23.5661 C   0  0  2  0  0  0  0  0  0  0  0  0
   10.3028  -17.0641   22.6201 N   0  0  0  0  0  0  0  0  0  0  0  0
   10.9361  -16.9567   24.9107 C   0  0  0  0  0  0  0  0  0  0  0  0
    9.9211  -16.0408   25.1148 O   0  0  0  0  0  0  0  0  0  0  0  0
   11.4193  -17.5150   25.9401 O   0  0  0  0  0  0  0  0  0  0  0  0
  2  4  1  0
  2  1  1  0
  3  2  2  0
  5  4  1  0
  5  6  1  1
  7  8  2  0
  7  5  1  0
  9  7  1  0
 10  9  1  0
 11 12  1  0
 10 11  1  6
 12 13  2  0
 12 16  1  0
 13 14  1  0
 14 15  1  0
 16 15  2  0
 17 18  2  0
 17 10  1  0
 20 19  1  0
 21 20  2  0
 22 20  1  0
 23 22  1  0
 24 23  1  6
 24 25  1  0
 25 17  1  0
 26 24  1  0
 27 26  1  0
 28 26  2  0
M  END
$$$$
