NHQ.pdb
     RDKit          3D

 28 28  0  0  1  0  0  0  0  0999 V2000
   10.4475  -16.9159   14.7969 N   0  0  0  0  0  0  0  0  0  0  0  0
   11.1996  -17.3552   15.9177 C   0  0  0  0  0  0  0  0  0  0  0  0
   11.8066  -18.4608   15.9370 O   0  0  0  0  0  0  0  0  0  0  0  0
   11.2620  -16.4643   17.1046 C   0  0  0  0  0  0  0  0  0  0  0  0
   11.2398  -17.2515   18.3972 C   0  0  2  0  0  0  0  0  0  0  0  0
   10.3196  -18.3589   18.2722 N   0  0  0  0  0  0  0  0  0  0  0  0
   10.8315  -16.3103   19.4705 C   0  0  0  0  0  0  0  0  0  0  0  0
   11.5187  -15.2818   19.6886 O   0  0  0  0  0  0  0  0  0  0  0  0
    9.6818  -16.5154   20.2807 N   0  0  0  0  0  0  0  0  0  0  0  0
    9.2545  -15.6639   21.3490 C   0  0  1  0  0  0  0  0  0  0  0  0
    7.9322  -14.9993   21.0909 C   0  0  0  0  0  0  0  0  0  0  0  0
    7.8204  -14.3981   19.7594 C   0  0  0  0  0  0  0  0  0  0  0  0
    8.0325  -13.0778   19.4464 C   0  0  0  0  0  0  0  0  0  0  0  0
    7.8302  -12.9387   18.1224 N   0  0  0  0  0  0  0  0  0  0  0  0
    7.4968  -14.1350   17.5951 C   0  0  0  0  0  0  0  0  0  0  0  0
    7.4948  -15.0320   18.6246 N   0  0  0  0  0  0  0  0  0  0  0  0
    9.1241  -16.4458   22.6264 C   0  0  0  0  0  0  0  0  0  0  0  0
    8.2892  -17.3804   22.7236 O   0  0  0  0  0  0  0  0  0  0  0  0
   11.8564  -20.4691   21.9365 N   0  0  0  0  0  0  0  0  0  0  0  0
   12.6489  -20.1752   23.1036 C   0  0  0  0  0  0  0  0  0  0  0  0
   13.4392  -21.0801   23.4387 O   0  0  0  0  0  0  0  0  0  0  0  0
   12.5408  -18.9367   23.8334 C   0  0  0  0  0  0  0  0  0  0  0  0
   11.6421  -17.8637   23.3918 C   0  0  0  0  0  0  0  0  0  0  0  0
   10.7886  -17.1743   24.3859 C   0  0  2  0  0  0  0  0  0  0  0  0
    9.9260  -16.1691   23.7662 N   0  0  0  0  0  0  0  0  0  0  0  0
   11.4426  -16.5994   25.5479 C   0  0  0  0  0  0  0  0  0  0  0  0
   12.1038  -15.3897   25.4472 O   0  0  0  0  0  0  0  0  0  0  0  0
   11.4426  -17.1593   26.6843 O   0  0  0  0  0  0  0  0  0  0  0  0
  2  4  1  0
  2  1  1  0
  3  2  2  0
  5  4  1  0
  5  6  1  6
  7  8  2  0
  7  5  1  0
  9  7  1  0
 10  9  1  0
 11 12  1  0
 10 11  1  6
 12 13  2  0
 12 16  1  0
 13 14  1  0
 14 15  1  0
 16 15  2  0
 17 18  2  0
 17 10  1  0
 20 19  1  0
 21 20  2  0
 22 20  1  0
 23 22  1  0
 24 23  1  6
 24 25  1  0
 25 17  1  0
 26 24  1  0
 27 26  1  0
 28 26  2  0
M  END
$$$$
