NHQ.pdb
     RDKit          3D

 28 28  0  0  1  0  0  0  0  0999 V2000
    8.7584  -20.0894   15.8708 N   0  0  0  0  0  0  0  0  0  0  0  0
    7.9609  -19.5497   16.9137 C   0  0  0  0  0  0  0  0  0  0  0  0
    6.8588  -20.0577   17.2580 O   0  0  0  0  0  0  0  0  0  0  0  0
    8.4608  -18.3394   17.6149 C   0  0  0  0  0  0  0  0  0  0  0  0
    8.7909  -18.6281   19.0636 C   0  0  2  0  0  0  0  0  0  0  0  0
    7.5757  -18.9330   19.7841 N   0  0  0  0  0  0  0  0  0  0  0  0
    9.4666  -17.4209   19.6026 C   0  0  0  0  0  0  0  0  0  0  0  0
   10.4982  -16.9821   19.0362 O   0  0  0  0  0  0  0  0  0  0  0  0
    8.9991  -16.7215   20.7483 N   0  0  0  0  0  0  0  0  0  0  0  0
    9.6309  -15.5831   21.3431 C   0  0  1  0  0  0  0  0  0  0  0  0
    8.6961  -14.4279   21.5629 C   0  0  0  0  0  0  0  0  0  0  0  0
    8.1095  -13.8967   20.3298 C   0  0  0  0  0  0  0  0  0  0  0  0
    6.7746  -13.8858   20.0070 C   0  0  0  0  0  0  0  0  0  0  0  0
    6.6566  -13.3121   18.7945 N   0  0  0  0  0  0  0  0  0  0  0  0
    7.8803  -12.9625   18.3466 C   0  0  0  0  0  0  0  0  0  0  0  0
    8.7730  -13.3322   19.3116 N   0  0  0  0  0  0  0  0  0  0  0  0
   10.2214  -15.9451   22.6774 C   0  0  0  0  0  0  0  0  0  0  0  0
    9.4802  -16.2634   23.6414 O   0  0  0  0  0  0  0  0  0  0  0  0
   10.4989  -20.0837   25.1933 N   0  0  0  0  0  0  0  0  0  0  0  0
   11.9269  -20.0289   25.3781 C   0  0  0  0  0  0  0  0  0  0  0  0
   12.3725  -20.8171   26.2360 O   0  0  0  0  0  0  0  0  0  0  0  0
   12.7798  -19.1344   24.6360 C   0  0  0  0  0  0  0  0  0  0  0  0
   12.2301  -18.1850   23.6611 C   0  0  0  0  0  0  0  0  0  0  0  0
   12.2488  -16.7363   23.9662 C   0  0  2  0  0  0  0  0  0  0  0  0
   11.6235  -15.9441   22.9079 N   0  0  0  0  0  0  0  0  0  0  0  0
   13.5247  -16.1425   24.3241 C   0  0  0  0  0  0  0  0  0  0  0  0
   13.9878  -16.2186   25.6243 O   0  0  0  0  0  0  0  0  0  0  0  0
   14.2614  -15.5399   23.4880 O   0  0  0  0  0  0  0  0  0  0  0  0
  2  4  1  0
  2  1  1  0
  3  2  2  0
  5  4  1  0
  5  6  1  1
  7  8  2  0
  7  5  1  0
  9  7  1  0
 10  9  1  0
 11 12  1  0
 10 11  1  1
 12 13  2  0
 12 16  1  0
 13 14  1  0
 14 15  1  0
 16 15  2  0
 17 18  2  0
 17 10  1  0
 20 19  1  0
 21 20  2  0
 22 20  1  0
 23 22  1  0
 24 23  1  6
 24 25  1  0
 25 17  1  0
 26 24  1  0
 27 26  1  0
 28 26  2  0
M  END
$$$$
