NHQ.pdb
     RDKit          3D

 28 28  0  0  1  0  0  0  0  0999 V2000
   15.8407  -13.8411   18.0753 N   0  0  0  0  0  0  0  0  0  0  0  0
   14.6037  -14.4003   17.6604 C   0  0  0  0  0  0  0  0  0  0  0  0
   14.4929  -15.1092   16.6230 O   0  0  0  0  0  0  0  0  0  0  0  0
   13.4044  -14.1284   18.4936 C   0  0  0  0  0  0  0  0  0  0  0  0
   13.1130  -15.2696   19.4443 C   0  0  2  0  0  0  0  0  0  0  0  0
   12.6103  -16.4017   18.6997 N   0  0  0  0  0  0  0  0  0  0  0  0
   12.1210  -14.7699   20.4296 C   0  0  0  0  0  0  0  0  0  0  0  0
   12.4029  -13.7766   21.1448 O   0  0  0  0  0  0  0  0  0  0  0  0
   10.8442  -15.3676   20.6104 N   0  0  0  0  0  0  0  0  0  0  0  0
    9.8618  -14.9575   21.5673 C   0  0  1  0  0  0  0  0  0  0  0  0
    8.4519  -15.0664   21.0601 C   0  0  0  0  0  0  0  0  0  0  0  0
    8.1909  -14.2705   19.8578 C   0  0  0  0  0  0  0  0  0  0  0  0
    8.0967  -12.9017   19.7972 C   0  0  0  0  0  0  0  0  0  0  0  0
    7.8515  -12.5698   18.5155 N   0  0  0  0  0  0  0  0  0  0  0  0
    7.7889  -13.6921   17.7693 C   0  0  0  0  0  0  0  0  0  0  0  0
    8.0018  -14.7409   18.6175 N   0  0  0  0  0  0  0  0  0  0  0  0
    9.9583  -15.7931   22.8132 C   0  0  0  0  0  0  0  0  0  0  0  0
   10.2506  -17.0138   22.7454 O   0  0  0  0  0  0  0  0  0  0  0  0
   10.0605  -13.5002   29.0324 N   0  0  0  0  0  0  0  0  0  0  0  0
   10.2674  -14.9261   29.0433 C   0  0  0  0  0  0  0  0  0  0  0  0
   10.5064  -15.4100   30.1678 O   0  0  0  0  0  0  0  0  0  0  0  0
   10.2073  -15.7363   27.8523 C   0  0  0  0  0  0  0  0  0  0  0  0
   10.0068  -15.1369   26.5278 C   0  0  0  0  0  0  0  0  0  0  0  0
    9.9625  -16.0104   25.3331 C   0  0  2  0  0  0  0  0  0  0  0  0
    9.7268  -15.2508   24.1059 N   0  0  0  0  0  0  0  0  0  0  0  0
    9.0698  -17.1550   25.3717 C   0  0  0  0  0  0  0  0  0  0  0  0
    9.4459  -18.3093   26.0326 O   0  0  0  0  0  0  0  0  0  0  0  0
    7.9306  -17.1575   24.8175 O   0  0  0  0  0  0  0  0  0  0  0  0
  2  4  1  0
  2  1  1  0
  3  2  2  0
  5  4  1  0
  5  6  1  6
  7  8  2  0
  7  5  1  0
  9  7  1  0
 10  9  1  0
 11 12  1  0
 10 11  1  6
 12 13  2  0
 12 16  1  0
 13 14  1  0
 14 15  1  0
 16 15  2  0
 17 18  2  0
 17 10  1  0
 20 19  1  0
 21 20  2  0
 22 20  1  0
 23 22  1  0
 24 23  1  1
 24 25  1  0
 25 17  1  0
 26 24  1  0
 27 26  1  0
 28 26  2  0
M  END
$$$$
