NHQ.pdb
     RDKit          3D

 28 28  0  0  1  0  0  0  0  0999 V2000
   15.7374  -15.1521   17.0249 N   0  0  0  0  0  0  0  0  0  0  0  0
   15.3627  -13.8990   17.5767 C   0  0  0  0  0  0  0  0  0  0  0  0
   15.9397  -12.8210   17.2670 O   0  0  0  0  0  0  0  0  0  0  0  0
   14.2454  -13.8773   18.5552 C   0  0  0  0  0  0  0  0  0  0  0  0
   13.7997  -15.2752   18.9269 C   0  0  2  0  0  0  0  0  0  0  0  0
   13.1918  -15.9092   17.7792 N   0  0  0  0  0  0  0  0  0  0  0  0
   12.8445  -15.1395   20.0555 C   0  0  0  0  0  0  0  0  0  0  0  0
   13.2267  -14.6192   21.1330 O   0  0  0  0  0  0  0  0  0  0  0  0
   11.4938  -15.5757   19.9804 N   0  0  0  0  0  0  0  0  0  0  0  0
   10.5600  -15.5817   21.0652 C   0  0  1  0  0  0  0  0  0  0  0  0
    9.1258  -15.5508   20.6192 C   0  0  0  0  0  0  0  0  0  0  0  0
    8.7591  -14.3371   19.8847 C   0  0  0  0  0  0  0  0  0  0  0  0
    9.5704  -13.2530   19.6552 C   0  0  0  0  0  0  0  0  0  0  0  0
    8.8574  -12.3576   18.9459 N   0  0  0  0  0  0  0  0  0  0  0  0
    7.6208  -12.8492   18.7235 C   0  0  0  0  0  0  0  0  0  0  0  0
    7.5748  -14.0800   19.3130 N   0  0  0  0  0  0  0  0  0  0  0  0
   10.7425  -16.8109   21.9111 C   0  0  0  0  0  0  0  0  0  0  0  0
   11.1518  -17.8847   21.4017 O   0  0  0  0  0  0  0  0  0  0  0  0
   15.6726  -17.1897   23.7527 N   0  0  0  0  0  0  0  0  0  0  0  0
   15.0685  -18.0159   24.7669 C   0  0  0  0  0  0  0  0  0  0  0  0
   15.8770  -18.5684   25.5395 O   0  0  0  0  0  0  0  0  0  0  0  0
   13.6431  -18.1972   24.8843 C   0  0  0  0  0  0  0  0  0  0  0  0
   12.7047  -17.4614   24.0288 C   0  0  0  0  0  0  0  0  0  0  0  0
   11.2487  -17.5971   24.2612 C   0  0  2  0  0  0  0  0  0  0  0  0
   10.4649  -16.8167   23.3045 N   0  0  0  0  0  0  0  0  0  0  0  0
   10.7578  -17.3480   25.6049 C   0  0  0  0  0  0  0  0  0  0  0  0
   10.5395  -18.4015   26.4728 O   0  0  0  0  0  0  0  0  0  0  0  0
   10.5100  -16.1850   26.0420 O   0  0  0  0  0  0  0  0  0  0  0  0
  2  4  1  0
  2  1  1  0
  3  2  2  0
  5  4  1  0
  5  6  1  6
  7  8  2  0
  7  5  1  0
  9  7  1  0
 10  9  1  0
 11 12  1  0
 10 11  1  6
 12 13  2  0
 12 16  1  0
 13 14  1  0
 14 15  1  0
 16 15  2  0
 17 18  2  0
 17 10  1  0
 20 19  1  0
 21 20  2  0
 22 20  1  0
 23 22  1  0
 24 23  1  1
 24 25  1  0
 25 17  1  0
 26 24  1  0
 27 26  1  0
 28 26  2  0
M  END
$$$$
