NHQ.pdb
     RDKit          3D

 28 28  0  0  1  0  0  0  0  0999 V2000
   11.6287  -18.9684   15.4982 N   0  0  0  0  0  0  0  0  0  0  0  0
   11.6806  -17.5523   15.4144 C   0  0  0  0  0  0  0  0  0  0  0  0
   11.9874  -16.9459   14.3517 O   0  0  0  0  0  0  0  0  0  0  0  0
   11.3578  -16.7720   16.6364 C   0  0  0  0  0  0  0  0  0  0  0  0
   11.1201  -17.6729   17.8292 C   0  0  2  0  0  0  0  0  0  0  0  0
    9.9437  -18.4799   17.5977 N   0  0  0  0  0  0  0  0  0  0  0  0
   10.9628  -16.7911   19.0134 C   0  0  0  0  0  0  0  0  0  0  0  0
   11.9499  -16.1412   19.4388 O   0  0  0  0  0  0  0  0  0  0  0  0
    9.7303  -16.6402   19.7051 N   0  0  0  0  0  0  0  0  0  0  0  0
    9.5025  -15.7701   20.8186 C   0  0  1  0  0  0  0  0  0  0  0  0
    8.1267  -15.1668   20.8338 C   0  0  0  0  0  0  0  0  0  0  0  0
    7.8127  -14.3761   19.6408 C   0  0  0  0  0  0  0  0  0  0  0  0
    8.0124  -13.0259   19.4882 C   0  0  0  0  0  0  0  0  0  0  0  0
    7.5951  -12.6928   18.2520 N   0  0  0  0  0  0  0  0  0  0  0  0
    7.1388  -13.7962   17.6239 C   0  0  0  0  0  0  0  0  0  0  0  0
    7.2804  -14.8344   18.4996 N   0  0  0  0  0  0  0  0  0  0  0  0
    9.6834  -16.5123   22.1134 C   0  0  0  0  0  0  0  0  0  0  0  0
    9.2234  -17.6733   22.2564 O   0  0  0  0  0  0  0  0  0  0  0  0
   13.7906  -19.0878   25.3956 N   0  0  0  0  0  0  0  0  0  0  0  0
   13.8208  -18.3774   24.1423 C   0  0  0  0  0  0  0  0  0  0  0  0
   14.6458  -18.8141   23.3149 O   0  0  0  0  0  0  0  0  0  0  0  0
   12.9699  -17.2483   23.8602 C   0  0  0  0  0  0  0  0  0  0  0  0
   12.0013  -16.7544   24.8459 C   0  0  0  0  0  0  0  0  0  0  0  0
   10.5702  -16.6635   24.4772 C   0  0  2  0  0  0  0  0  0  0  0  0
   10.3717  -15.9448   23.2192 N   0  0  0  0  0  0  0  0  0  0  0  0
    9.6511  -16.1497   25.4772 C   0  0  0  0  0  0  0  0  0  0  0  0
    9.4965  -16.8064   26.6836 O   0  0  0  0  0  0  0  0  0  0  0  0
    8.9611  -15.1015   25.3030 O   0  0  0  0  0  0  0  0  0  0  0  0
  2  4  1  0
  2  1  1  0
  3  2  2  0
  5  4  1  0
  5  6  1  6
  7  8  2  0
  7  5  1  0
  9  7  1  0
 10  9  1  0
 11 12  1  0
 10 11  1  6
 12 13  2  0
 12 16  1  0
 13 14  1  0
 14 15  1  0
 16 15  2  0
 17 18  2  0
 17 10  1  0
 20 19  1  0
 21 20  2  0
 22 20  1  0
 23 22  1  0
 24 23  1  1
 24 25  1  0
 25 17  1  0
 26 24  1  0
 27 26  1  0
 28 26  2  0
M  END
$$$$
