NHQ.pdb
     RDKit          3D

 28 28  0  0  1  0  0  0  0  0999 V2000
    6.3766  -19.8185   19.4321 N   0  0  0  0  0  0  0  0  0  0  0  0
    6.7146  -20.0136   20.7969 C   0  0  0  0  0  0  0  0  0  0  0  0
    5.9979  -20.6908   21.5837 O   0  0  0  0  0  0  0  0  0  0  0  0
    7.9646  -19.3879   21.2992 C   0  0  0  0  0  0  0  0  0  0  0  0
    8.6385  -18.5503   20.2337 C   0  0  2  0  0  0  0  0  0  0  0  0
    8.9655  -19.3840   19.0993 N   0  0  0  0  0  0  0  0  0  0  0  0
    9.8504  -17.9559   20.8522 C   0  0  0  0  0  0  0  0  0  0  0  0
   10.8734  -18.6653   21.0192 O   0  0  0  0  0  0  0  0  0  0  0  0
    9.9159  -16.6002   21.2739 N   0  0  0  0  0  0  0  0  0  0  0  0
   11.0810  -15.9427   21.7829 C   0  0  1  0  0  0  0  0  0  0  0  0
   11.0630  -14.4541   21.5816 C   0  0  0  0  0  0  0  0  0  0  0  0
   11.0768  -14.0457   20.1744 C   0  0  0  0  0  0  0  0  0  0  0  0
   10.0075  -13.5628   19.4606 C   0  0  0  0  0  0  0  0  0  0  0  0
   10.4385  -13.3058   18.2111 N   0  0  0  0  0  0  0  0  0  0  0  0
   11.7488  -13.6140   18.1202 C   0  0  0  0  0  0  0  0  0  0  0  0
   12.1314  -14.0725   19.3482 N   0  0  0  0  0  0  0  0  0  0  0  0
   11.2277  -16.1963   23.2574 C   0  0  0  0  0  0  0  0  0  0  0  0
   10.2532  -16.0374   24.0353 O   0  0  0  0  0  0  0  0  0  0  0  0
    9.0809  -18.5817   27.0281 N   0  0  0  0  0  0  0  0  0  0  0  0
   10.3376  -19.1836   27.3952 C   0  0  0  0  0  0  0  0  0  0  0  0
   10.3245  -19.7975   28.4809 O   0  0  0  0  0  0  0  0  0  0  0  0
   11.5220  -19.0860   26.5790 C   0  0  0  0  0  0  0  0  0  0  0  0
   11.5325  -18.3075   25.3350 C   0  0  0  0  0  0  0  0  0  0  0  0
   12.5359  -17.2333   25.1575 C   0  0  2  0  0  0  0  0  0  0  0  0
   12.4559  -16.6206   23.8321 N   0  0  0  0  0  0  0  0  0  0  0  0
   13.9200  -17.5515   25.4598 C   0  0  0  0  0  0  0  0  0  0  0  0
   14.7986  -17.8735   24.4423 O   0  0  0  0  0  0  0  0  0  0  0  0
   14.3841  -17.5513   26.6386 O   0  0  0  0  0  0  0  0  0  0  0  0
  2  4  1  0
  2  1  1  0
  3  2  2  0
  5  4  1  0
  5  6  1  6
  7  8  2  0
  7  5  1  0
  9  7  1  0
 10  9  1  0
 11 12  1  0
 10 11  1  1
 12 13  2  0
 12 16  1  0
 13 14  1  0
 14 15  1  0
 16 15  2  0
 17 18  2  0
 17 10  1  0
 20 19  1  0
 21 20  2  0
 22 20  1  0
 23 22  1  0
 24 23  1  6
 24 25  1  0
 25 17  1  0
 26 24  1  0
 27 26  1  0
 28 26  2  0
M  END
$$$$
