NHQ.pdb
     RDKit          3D

 28 28  0  0  1  0  0  0  0  0999 V2000
    2.4785  -19.3734   21.4409 N   0  0  0  0  0  0  0  0  0  0  0  0
    3.1803  -19.1684   20.2242 C   0  0  0  0  0  0  0  0  0  0  0  0
    2.7011  -19.4879   19.1019 O   0  0  0  0  0  0  0  0  0  0  0  0
    4.5300  -18.5526   20.2962 C   0  0  0  0  0  0  0  0  0  0  0  0
    4.9210  -18.2263   21.7215 C   0  0  2  0  0  0  0  0  0  0  0  0
    3.8750  -17.4460   22.3425 N   0  0  0  0  0  0  0  0  0  0  0  0
    6.2044  -17.4823   21.6590 C   0  0  0  0  0  0  0  0  0  0  0  0
    7.2471  -18.0737   21.2838 O   0  0  0  0  0  0  0  0  0  0  0  0
    6.3184  -16.1092   22.0082 N   0  0  0  0  0  0  0  0  0  0  0  0
    7.5419  -15.3710   22.0922 C   0  0  1  0  0  0  0  0  0  0  0  0
    7.4339  -13.9723   21.5550 C   0  0  0  0  0  0  0  0  0  0  0  0
    7.6471  -13.8743   20.1086 C   0  0  0  0  0  0  0  0  0  0  0  0
    6.9208  -13.1049   19.2330 C   0  0  0  0  0  0  0  0  0  0  0  0
    7.4355  -13.2967   18.0036 N   0  0  0  0  0  0  0  0  0  0  0  0
    8.4649  -14.1652   18.0826 C   0  0  0  0  0  0  0  0  0  0  0  0
    8.5843  -14.5154   19.3970 N   0  0  0  0  0  0  0  0  0  0  0  0
    8.0002  -15.2710   23.5205 C   0  0  0  0  0  0  0  0  0  0  0  0
    7.1847  -15.0008   24.4381 O   0  0  0  0  0  0  0  0  0  0  0  0
    7.1963  -19.1605   26.9208 N   0  0  0  0  0  0  0  0  0  0  0  0
    8.2848  -18.5589   27.6485 C   0  0  0  0  0  0  0  0  0  0  0  0
    8.4411  -18.9937   28.8071 O   0  0  0  0  0  0  0  0  0  0  0  0
    9.1294  -17.5328   27.0897 C   0  0  0  0  0  0  0  0  0  0  0  0
    8.9078  -17.0122   25.7355 C   0  0  0  0  0  0  0  0  0  0  0  0
    9.7479  -15.8993   25.2375 C   0  0  2  0  0  0  0  0  0  0  0  0
    9.3559  -15.4739   23.8944 N   0  0  0  0  0  0  0  0  0  0  0  0
   11.1888  -16.0718   25.2882 C   0  0  0  0  0  0  0  0  0  0  0  0
   11.8435  -16.1066   26.5051 O   0  0  0  0  0  0  0  0  0  0  0  0
   11.9035  -16.1963   24.2495 O   0  0  0  0  0  0  0  0  0  0  0  0
  2  4  1  0
  2  1  1  0
  3  2  2  0
  5  4  1  0
  5  6  1  6
  7  8  2  0
  7  5  1  0
  9  7  1  0
 10  9  1  0
 11 12  1  0
 10 11  1  1
 12 13  2  0
 12 16  1  0
 13 14  1  0
 14 15  1  0
 16 15  2  0
 17 18  2  0
 17 10  1  0
 20 19  1  0
 21 20  2  0
 22 20  1  0
 23 22  1  0
 24 23  1  6
 24 25  1  0
 25 17  1  0
 26 24  1  0
 27 26  1  0
 28 26  2  0
M  END
$$$$
