IDS.pdb
     RDKit          3D

 23 22  0  0  1  0  0  0  0  0999 V2000
   27.9235  -10.9448  -15.8724 C   0  0  0  0  0  0  0  0  0  0  0  0
   26.7757  -10.4308  -16.6844 C   0  0  0  0  0  0  0  0  0  0  0  0
   25.4119  -10.7381  -16.1308 C   0  0  2  0  0  0  0  0  0  0  0  0
   25.2258  -12.2356  -15.9576 C   0  0  0  0  0  0  0  0  0  0  0  0
   24.3272  -10.1132  -16.9146 C   0  0  2  0  0  0  0  0  0  0  0  0
   24.9037   -9.2937  -17.9834 N   0  0  0  0  0  0  0  0  0  0  0  0
   23.3917   -9.2483  -16.0997 C   0  0  0  0  0  0  0  0  0  0  0  0
   22.5793   -9.8075  -15.3559 O   0  0  0  0  0  0  0  0  0  0  0  0
   23.4270   -7.8496  -16.1686 N   0  0  0  0  0  0  0  0  0  0  0  0
   22.6215   -6.8462  -15.5403 C   0  0  1  0  0  0  0  0  0  0  0  0
   23.2818   -5.7366  -14.8327 C   0  0  0  0  0  0  0  0  0  0  0  0
   22.4337   -4.7700  -14.1226 C   0  0  0  0  0  0  0  0  0  0  0  0
   22.1769   -3.6522  -14.6717 O   0  0  0  0  0  0  0  0  0  0  0  0
   21.3907   -6.5491  -16.2480 C   0  0  0  0  0  0  0  0  0  0  0  0
   21.4629   -5.9436  -17.3655 O   0  0  0  0  0  0  0  0  0  0  0  0
   21.8913   -4.9969  -12.8859 O   0  0  0  0  0  0  0  0  0  0  0  0
   17.7082   -8.1737  -15.1728 O   0  0  0  0  0  0  0  0  0  0  0  0
   17.9475   -7.8747  -16.5097 C   0  0  0  0  0  0  0  0  0  0  0  0
   18.8959   -6.7065  -16.5804 C   0  0  2  0  0  0  0  0  0  0  0  0
   20.0903   -6.8795  -15.7926 N   0  0  0  0  0  0  0  0  0  0  0  0
   18.1912   -5.4853  -16.1848 C   0  0  0  0  0  0  0  0  0  0  0  0
   18.6536   -4.7379  -15.1166 O   0  0  0  0  0  0  0  0  0  0  0  0
   17.1636   -5.0649  -16.7735 O   0  0  0  0  0  0  0  0  0  0  0  0
  2  1  1  0
  3  2  1  0
  3  4  1  6
  5  7  1  0
  5  6  1  6
  5  3  1  0
  7  8  2  0
  9  7  1  0
  9 10  1  0
 10 14  1  0
 10 11  1  6
 12 13  2  0
 12 11  1  0
 14 15  2  0
 14 20  1  0
 16 12  1  0
 17 18  1  0
 19 18  1  1
 19 21  1  0
 20 19  1  0
 21 23  2  0
 21 22  1  0
M  END
$$$$
