IDS.pdb
     RDKit          3D

 23 22  0  0  1  0  0  0  0  0999 V2000
   27.4034  -20.6826   -4.7651 C   0  0  0  0  0  0  0  0  0  0  0  0
   26.3645  -20.5694   -5.8371 C   0  0  0  0  0  0  0  0  0  0  0  0
   26.8993  -20.4764   -7.2392 C   0  0  2  0  0  0  0  0  0  0  0  0
   28.0276  -19.4627   -7.3191 C   0  0  0  0  0  0  0  0  0  0  0  0
   25.8378  -20.2316   -8.2365 C   0  0  2  0  0  0  0  0  0  0  0  0
   24.8319  -21.2935   -8.1530 N   0  0  0  0  0  0  0  0  0  0  0  0
   26.3330  -20.1523   -9.6632 C   0  0  0  0  0  0  0  0  0  0  0  0
   27.2804  -19.3992   -9.9110 O   0  0  0  0  0  0  0  0  0  0  0  0
   25.7505  -20.9029  -10.6925 N   0  0  0  0  0  0  0  0  0  0  0  0
   26.0385  -20.9800  -12.0931 C   0  0  1  0  0  0  0  0  0  0  0  0
   26.0613  -22.2982  -12.7486 C   0  0  0  0  0  0  0  0  0  0  0  0
   26.3176  -22.3449  -14.1942 C   0  0  0  0  0  0  0  0  0  0  0  0
   25.3489  -22.1728  -14.9998 O   0  0  0  0  0  0  0  0  0  0  0  0
   25.5306  -19.8600  -12.8624 C   0  0  0  0  0  0  0  0  0  0  0  0
   24.3198  -19.5052  -12.6930 O   0  0  0  0  0  0  0  0  0  0  0  0
   27.5530  -22.5655  -14.7421 O   0  0  0  0  0  0  0  0  0  0  0  0
   27.7610  -17.6114  -15.7130 O   0  0  0  0  0  0  0  0  0  0  0  0
   26.8630  -16.9644  -14.8710 C   0  0  0  0  0  0  0  0  0  0  0  0
   25.7843  -17.9389  -14.4762 C   0  0  2  0  0  0  0  0  0  0  0  0
   26.2803  -19.1141  -13.8054 N   0  0  0  0  0  0  0  0  0  0  0  0
   25.0100  -18.3117  -15.6619 C   0  0  0  0  0  0  0  0  0  0  0  0
   24.2258  -17.3665  -16.2984 O   0  0  0  0  0  0  0  0  0  0  0  0
   25.0154  -19.4704  -16.1483 O   0  0  0  0  0  0  0  0  0  0  0  0
  2  1  1  0
  3  2  1  0
  3  4  1  1
  5  7  1  0
  5  6  1  6
  5  3  1  0
  7  8  2  0
  9  7  1  0
  9 10  1  0
 10 14  1  0
 10 11  1  6
 12 13  2  0
 12 11  1  0
 14 15  2  0
 14 20  1  0
 16 12  1  0
 17 18  1  0
 19 18  1  6
 19 21  1  0
 20 19  1  0
 21 23  2  0
 21 22  1  0
M  END
$$$$
