IDS.pdb
     RDKit          3D

 23 22  0  0  1  0  0  0  0  0999 V2000
   20.8789  -12.4527  -18.3533 C   0  0  0  0  0  0  0  0  0  0  0  0
   21.5832  -11.2185  -17.8823 C   0  0  0  0  0  0  0  0  0  0  0  0
   20.7533  -10.2903  -17.0395 C   0  0  2  0  0  0  0  0  0  0  0  0
   19.4671   -9.9172  -17.7561 C   0  0  0  0  0  0  0  0  0  0  0  0
   21.5134   -9.1117  -16.5763 C   0  0  2  0  0  0  0  0  0  0  0  0
   22.7187   -9.5521  -15.8694 N   0  0  0  0  0  0  0  0  0  0  0  0
   20.7342   -8.1894  -15.6657 C   0  0  0  0  0  0  0  0  0  0  0  0
   19.9972   -8.6964  -14.8138 O   0  0  0  0  0  0  0  0  0  0  0  0
   20.8296   -6.7954  -15.7654 N   0  0  0  0  0  0  0  0  0  0  0  0
   20.1657   -5.7438  -15.0556 C   0  0  1  0  0  0  0  0  0  0  0  0
   20.9650   -4.8113  -14.2437 C   0  0  0  0  0  0  0  0  0  0  0  0
   21.9332   -5.3781  -13.2956 C   0  0  0  0  0  0  0  0  0  0  0  0
   21.5053   -5.9826  -12.2619 O   0  0  0  0  0  0  0  0  0  0  0  0
   19.0078   -5.2064  -15.7446 C   0  0  0  0  0  0  0  0  0  0  0  0
   19.1628   -4.7337  -16.9163 O   0  0  0  0  0  0  0  0  0  0  0  0
   23.2910   -5.2975  -13.4538 O   0  0  0  0  0  0  0  0  0  0  0  0
   15.1284   -5.4366  -14.2179 O   0  0  0  0  0  0  0  0  0  0  0  0
   15.2744   -5.4585  -15.6007 C   0  0  0  0  0  0  0  0  0  0  0  0
   16.5414   -4.7288  -15.9634 C   0  0  2  0  0  0  0  0  0  0  0  0
   17.6947   -5.1598  -15.2143 N   0  0  0  0  0  0  0  0  0  0  0  0
   16.3336   -3.2880  -15.8041 C   0  0  0  0  0  0  0  0  0  0  0  0
   15.4554   -2.6215  -16.6395 O   0  0  0  0  0  0  0  0  0  0  0  0
   16.9219   -2.6025  -14.9304 O   0  0  0  0  0  0  0  0  0  0  0  0
  2  1  1  0
  3  2  1  0
  3  4  1  6
  5  7  1  0
  5  6  1  1
  5  3  1  0
  7  8  2  0
  9  7  1  0
  9 10  1  0
 10 14  1  0
 10 11  1  6
 12 13  2  0
 12 11  1  0
 14 15  2  0
 14 20  1  0
 16 12  1  0
 17 18  1  0
 19 18  1  1
 19 21  1  0
 20 19  1  0
 21 23  2  0
 21 22  1  0
M  END
$$$$
