IDS.pdb
     RDKit          3D

 23 22  0  0  1  0  0  0  0  0999 V2000
   11.5277  -14.2151  -10.8701 C   0  0  0  0  0  0  0  0  0  0  0  0
   12.4744  -13.7925  -11.9501 C   0  0  0  0  0  0  0  0  0  0  0  0
   13.4352  -12.7010  -11.5677 C   0  0  2  0  0  0  0  0  0  0  0  0
   12.6910  -11.4970  -11.0166 C   0  0  0  0  0  0  0  0  0  0  0  0
   14.3605  -12.3496  -12.6640 C   0  0  2  0  0  0  0  0  0  0  0  0
   15.0902  -13.5457  -13.0923 N   0  0  0  0  0  0  0  0  0  0  0  0
   15.3658  -11.2774  -12.3079 C   0  0  0  0  0  0  0  0  0  0  0  0
   16.3875  -11.6140  -11.7007 O   0  0  0  0  0  0  0  0  0  0  0  0
   15.1665   -9.9329  -12.6471 N   0  0  0  0  0  0  0  0  0  0  0  0
   15.9916   -8.7758  -12.4713 C   0  0  1  0  0  0  0  0  0  0  0  0
   16.7565   -8.2600  -13.6187 C   0  0  0  0  0  0  0  0  0  0  0  0
   17.6033   -7.0786  -13.4077 C   0  0  0  0  0  0  0  0  0  0  0  0
   18.7251   -7.2178  -12.8253 O   0  0  0  0  0  0  0  0  0  0  0  0
   15.4557   -7.8058  -11.5353 C   0  0  0  0  0  0  0  0  0  0  0  0
   14.2933   -7.3328  -11.7486 O   0  0  0  0  0  0  0  0  0  0  0  0
   17.2587   -5.8138  -13.8038 O   0  0  0  0  0  0  0  0  0  0  0  0
   15.5974   -7.7844   -7.6105 O   0  0  0  0  0  0  0  0  0  0  0  0
   16.0157   -6.5326   -8.0488 C   0  0  0  0  0  0  0  0  0  0  0  0
   15.5782   -6.3514   -9.4788 C   0  0  2  0  0  0  0  0  0  0  0  0
   16.1288   -7.3293  -10.3831 N   0  0  0  0  0  0  0  0  0  0  0  0
   15.9137   -4.9961   -9.9204 C   0  0  0  0  0  0  0  0  0  0  0  0
   15.4294   -3.9041   -9.2231 O   0  0  0  0  0  0  0  0  0  0  0  0
   16.6343   -4.7598  -10.9225 O   0  0  0  0  0  0  0  0  0  0  0  0
  2  1  1  0
  3  2  1  0
  3  4  1  6
  5  7  1  0
  5  6  1  1
  5  3  1  0
  7  8  2  0
  9  7  1  0
  9 10  1  0
 10 14  1  0
 10 11  1  6
 12 13  2  0
 12 11  1  0
 14 15  2  0
 14 20  1  0
 16 12  1  0
 17 18  1  0
 19 18  1  1
 19 21  1  0
 20 19  1  0
 21 23  2  0
 21 22  1  0
M  END
$$$$
