IDS.pdb
     RDKit          3D

 23 22  0  0  1  0  0  0  0  0999 V2000
   17.8875  -14.4693  -16.4030 C   0  0  0  0  0  0  0  0  0  0  0  0
   18.9237  -13.7504  -17.2097 C   0  0  0  0  0  0  0  0  0  0  0  0
   19.4625  -12.4934  -16.5849 C   0  0  2  0  0  0  0  0  0  0  0  0
   18.3331  -11.5429  -16.2269 C   0  0  0  0  0  0  0  0  0  0  0  0
   20.5096  -11.8544  -17.4075 C   0  0  2  0  0  0  0  0  0  0  0  0
   21.4791  -12.8646  -17.8388 N   0  0  0  0  0  0  0  0  0  0  0  0
   21.2569  -10.7421  -16.7065 C   0  0  0  0  0  0  0  0  0  0  0  0
   21.0899  -10.6030  -15.4905 O   0  0  0  0  0  0  0  0  0  0  0  0
   22.1207   -9.8810  -17.3953 N   0  0  0  0  0  0  0  0  0  0  0  0
   22.8873   -8.7533  -16.9577 C   0  0  1  0  0  0  0  0  0  0  0  0
   24.1221   -8.4028  -17.6789 C   0  0  0  0  0  0  0  0  0  0  0  0
   24.9716   -9.4983  -18.1643 C   0  0  0  0  0  0  0  0  0  0  0  0
   25.6001  -10.2136  -17.3214 O   0  0  0  0  0  0  0  0  0  0  0  0
   22.0865   -7.6628  -16.4346 C   0  0  0  0  0  0  0  0  0  0  0  0
   21.1945   -7.1497  -17.1839 O   0  0  0  0  0  0  0  0  0  0  0  0
   25.1347   -9.8064  -19.4886 O   0  0  0  0  0  0  0  0  0  0  0  0
   19.7411   -5.3583  -13.0987 O   0  0  0  0  0  0  0  0  0  0  0  0
   20.6045   -6.4050  -13.4037 C   0  0  0  0  0  0  0  0  0  0  0  0
   21.3903   -6.0385  -14.6356 C   0  0  2  0  0  0  0  0  0  0  0  0
   22.2160   -7.1080  -15.1373 N   0  0  0  0  0  0  0  0  0  0  0  0
   22.1999   -4.8502  -14.3587 C   0  0  0  0  0  0  0  0  0  0  0  0
   21.5983   -3.6064  -14.2919 O   0  0  0  0  0  0  0  0  0  0  0  0
   23.4421   -4.8942  -14.1736 O   0  0  0  0  0  0  0  0  0  0  0  0
  2  1  1  0
  3  2  1  0
  3  4  1  6
  5  7  1  0
  5  6  1  1
  5  3  1  0
  7  8  2  0
  9  7  1  0
  9 10  1  0
 10 14  1  0
 10 11  1  6
 12 13  2  0
 12 11  1  0
 14 15  2  0
 14 20  1  0
 16 12  1  0
 17 18  1  0
 19 18  1  1
 19 21  1  0
 20 19  1  0
 21 23  2  0
 21 22  1  0
M  END
$$$$
