IDS.pdb
     RDKit          3D

 23 22  0  0  1  0  0  0  0  0999 V2000
   21.3410  -12.8238  -19.7937 C   0  0  0  0  0  0  0  0  0  0  0  0
   20.2434  -12.7793  -18.7765 C   0  0  0  0  0  0  0  0  0  0  0  0
   20.0566  -11.4524  -18.0945 C   0  0  2  0  0  0  0  0  0  0  0  0
   21.3501  -10.9948  -17.4429 C   0  0  0  0  0  0  0  0  0  0  0  0
   18.9128  -11.4505  -17.1600 C   0  0  2  0  0  0  0  0  0  0  0  0
   17.6917  -11.8231  -17.8787 N   0  0  0  0  0  0  0  0  0  0  0  0
   18.6771  -10.1255  -16.4703 C   0  0  0  0  0  0  0  0  0  0  0  0
   18.2921   -9.1718  -17.1545 O   0  0  0  0  0  0  0  0  0  0  0  0
   18.8819   -9.9597  -15.0945 N   0  0  0  0  0  0  0  0  0  0  0  0
   18.8119   -8.8011  -14.2557 C   0  0  1  0  0  0  0  0  0  0  0  0
   17.9667   -8.8387  -13.0508 C   0  0  0  0  0  0  0  0  0  0  0  0
   17.9752   -7.6663  -12.1659 C   0  0  0  0  0  0  0  0  0  0  0  0
   17.7170   -6.5210  -12.6543 O   0  0  0  0  0  0  0  0  0  0  0  0
   20.0521   -8.0526  -14.1789 C   0  0  0  0  0  0  0  0  0  0  0  0
   21.0867   -8.6355  -13.7202 O   0  0  0  0  0  0  0  0  0  0  0  0
   18.2477   -7.7258  -10.8252 O   0  0  0  0  0  0  0  0  0  0  0  0
   23.0700   -4.8814  -15.9503 O   0  0  0  0  0  0  0  0  0  0  0  0
   21.8256   -5.4995  -16.0081 C   0  0  0  0  0  0  0  0  0  0  0  0
   21.4868   -6.0306  -14.6398 C   0  0  2  0  0  0  0  0  0  0  0  0
   20.2132   -6.7021  -14.5763 N   0  0  0  0  0  0  0  0  0  0  0  0
   21.5403   -4.9364  -13.6681 C   0  0  0  0  0  0  0  0  0  0  0  0
   22.7375   -4.6198  -13.0517 O   0  0  0  0  0  0  0  0  0  0  0  0
   20.5363   -4.2499  -13.3520 O   0  0  0  0  0  0  0  0  0  0  0  0
  2  1  1  0
  3  2  1  0
  3  4  1  1
  5  7  1  0
  5  6  1  6
  5  3  1  0
  7  8  2  0
  9  7  1  0
  9 10  1  0
 10 14  1  0
 10 11  1  1
 12 13  2  0
 12 11  1  0
 14 15  2  0
 14 20  1  0
 16 12  1  0
 17 18  1  0
 19 18  1  6
 19 21  1  0
 20 19  1  0
 21 23  2  0
 21 22  1  0
M  END
$$$$
