IDS.pdb
     RDKit          3D

 23 22  0  0  1  0  0  0  0  0999 V2000
   27.4940  -15.7547  -16.0930 C   0  0  0  0  0  0  0  0  0  0  0  0
   26.0217  -15.9624  -15.9187 C   0  0  0  0  0  0  0  0  0  0  0  0
   25.1738  -14.7384  -16.1271 C   0  0  2  0  0  0  0  0  0  0  0  0
   25.5640  -13.6405  -15.1527 C   0  0  0  0  0  0  0  0  0  0  0  0
   23.7278  -15.0387  -16.1023 C   0  0  2  0  0  0  0  0  0  0  0  0
   23.4446  -16.1618  -16.9994 N   0  0  0  0  0  0  0  0  0  0  0  0
   22.8456  -13.8758  -16.4978 C   0  0  0  0  0  0  0  0  0  0  0  0
   22.8667  -13.5013  -17.6748 O   0  0  0  0  0  0  0  0  0  0  0  0
   22.0182  -13.2255  -15.5732 N   0  0  0  0  0  0  0  0  0  0  0  0
   21.1448  -12.0986  -15.7070 C   0  0  1  0  0  0  0  0  0  0  0  0
   19.7400  -12.2266  -15.2851 C   0  0  0  0  0  0  0  0  0  0  0  0
   18.9891  -13.4051  -15.7374 C   0  0  0  0  0  0  0  0  0  0  0  0
   19.3295  -14.5551  -15.3147 O   0  0  0  0  0  0  0  0  0  0  0  0
   21.7940  -10.8199  -15.4891 C   0  0  0  0  0  0  0  0  0  0  0  0
   22.2904  -10.5777  -14.3422 O   0  0  0  0  0  0  0  0  0  0  0  0
   17.9270  -13.3468  -16.6000 O   0  0  0  0  0  0  0  0  0  0  0  0
   23.7824   -8.7036  -18.2513 O   0  0  0  0  0  0  0  0  0  0  0  0
   23.0167   -7.8332  -17.4831 C   0  0  0  0  0  0  0  0  0  0  0  0
   22.5957   -8.5446  -16.2238 C   0  0  2  0  0  0  0  0  0  0  0  0
   21.9238   -9.7973  -16.4613 N   0  0  0  0  0  0  0  0  0  0  0  0
   21.7547   -7.6537  -15.4217 C   0  0  0  0  0  0  0  0  0  0  0  0
   20.4854   -8.0562  -15.0470 O   0  0  0  0  0  0  0  0  0  0  0  0
   22.1273   -6.5146  -15.0438 O   0  0  0  0  0  0  0  0  0  0  0  0
  2  1  1  0
  3  2  1  0
  3  4  1  1
  5  7  1  0
  5  6  1  6
  5  3  1  0
  7  8  2  0
  9  7  1  0
  9 10  1  0
 10 14  1  0
 10 11  1  1
 12 13  2  0
 12 11  1  0
 14 15  2  0
 14 20  1  0
 16 12  1  0
 17 18  1  0
 19 18  1  6
 19 21  1  0
 20 19  1  0
 21 23  2  0
 21 22  1  0
M  END
$$$$
