IDS.pdb
     RDKit          3D

 23 22  0  0  1  0  0  0  0  0999 V2000
   14.1360  -10.4632  -18.7211 C   0  0  0  0  0  0  0  0  0  0  0  0
   15.5821  -10.5758  -18.3508 C   0  0  0  0  0  0  0  0  0  0  0  0
   16.1351   -9.4154  -17.5707 C   0  0  2  0  0  0  0  0  0  0  0  0
   15.9052   -8.1097  -18.3119 C   0  0  0  0  0  0  0  0  0  0  0  0
   17.5466   -9.6131  -17.1833 C   0  0  2  0  0  0  0  0  0  0  0  0
   17.6765  -10.8579  -16.4216 N   0  0  0  0  0  0  0  0  0  0  0  0
   18.1280   -8.4853  -16.3604 C   0  0  0  0  0  0  0  0  0  0  0  0
   17.5768   -8.1977  -15.2929 O   0  0  0  0  0  0  0  0  0  0  0  0
   19.2600   -7.7724  -16.7757 N   0  0  0  0  0  0  0  0  0  0  0  0
   19.9326   -6.6423  -16.2090 C   0  0  1  0  0  0  0  0  0  0  0  0
   21.3361   -6.7813  -15.7864 C   0  0  0  0  0  0  0  0  0  0  0  0
   21.6943   -7.9381  -14.9550 C   0  0  0  0  0  0  0  0  0  0  0  0
   21.2115   -8.0299  -13.7821 O   0  0  0  0  0  0  0  0  0  0  0  0
   19.5285   -5.3698  -16.7762 C   0  0  0  0  0  0  0  0  0  0  0  0
   19.7495   -5.1573  -18.0117 O   0  0  0  0  0  0  0  0  0  0  0  0
   22.5289   -8.9427  -15.3665 O   0  0  0  0  0  0  0  0  0  0  0  0
   17.4156   -2.4371  -14.6534 O   0  0  0  0  0  0  0  0  0  0  0  0
   17.2226   -2.5100  -16.0287 C   0  0  0  0  0  0  0  0  0  0  0  0
   18.4627   -3.0873  -16.6597 C   0  0  2  0  0  0  0  0  0  0  0  0
   18.8990   -4.3225  -16.0589 N   0  0  0  0  0  0  0  0  0  0  0  0
   19.5347   -2.0904  -16.6225 C   0  0  0  0  0  0  0  0  0  0  0  0
   19.3472   -0.8539  -17.2135 O   0  0  0  0  0  0  0  0  0  0  0  0
   20.6450   -2.2972  -16.0712 O   0  0  0  0  0  0  0  0  0  0  0  0
  2  1  1  0
  3  2  1  0
  3  4  1  6
  5  7  1  0
  5  6  1  1
  5  3  1  0
  7  8  2  0
  9  7  1  0
  9 10  1  0
 10 14  1  0
 10 11  1  6
 12 13  2  0
 12 11  1  0
 14 15  2  0
 14 20  1  0
 16 12  1  0
 17 18  1  0
 19 18  1  1
 19 21  1  0
 20 19  1  0
 21 23  2  0
 21 22  1  0
M  END
$$$$
