IDS.pdb
     RDKit          3D

 23 22  0  0  1  0  0  0  0  0999 V2000
   27.2782  -15.1042  -15.3058 C   0  0  0  0  0  0  0  0  0  0  0  0
   25.7844  -15.1612  -15.2257 C   0  0  0  0  0  0  0  0  0  0  0  0
   25.0676  -13.9623  -15.7821 C   0  0  2  0  0  0  0  0  0  0  0  0
   25.4975  -12.6958  -15.0623 C   0  0  0  0  0  0  0  0  0  0  0  0
   23.6012  -14.1380  -15.8055 C   0  0  2  0  0  0  0  0  0  0  0  0
   23.2709  -15.4211  -16.4308 N   0  0  0  0  0  0  0  0  0  0  0  0
   22.8566  -13.0433  -16.5365 C   0  0  0  0  0  0  0  0  0  0  0  0
   22.8931  -13.0370  -17.7712 O   0  0  0  0  0  0  0  0  0  0  0  0
   22.1377  -12.0533  -15.8543 N   0  0  0  0  0  0  0  0  0  0  0  0
   21.4056  -10.9159  -16.3244 C   0  0  1  0  0  0  0  0  0  0  0  0
   20.0506  -11.1099  -16.8666 C   0  0  0  0  0  0  0  0  0  0  0  0
   19.3372   -9.9318  -17.3773 C   0  0  0  0  0  0  0  0  0  0  0  0
   19.4670   -9.6128  -18.6014 O   0  0  0  0  0  0  0  0  0  0  0  0
   21.6570   -9.7009  -15.5731 C   0  0  0  0  0  0  0  0  0  0  0  0
   21.6223   -9.7540  -14.3017 O   0  0  0  0  0  0  0  0  0  0  0  0
   18.5268   -9.1395  -16.6086 O   0  0  0  0  0  0  0  0  0  0  0  0
   23.0621   -5.0453  -15.4004 O   0  0  0  0  0  0  0  0  0  0  0  0
   22.5173   -6.0355  -16.2107 C   0  0  0  0  0  0  0  0  0  0  0  0
   22.2732   -7.2637  -15.3733 C   0  0  2  0  0  0  0  0  0  0  0  0
   21.9413   -8.4355  -16.1438 N   0  0  0  0  0  0  0  0  0  0  0  0
   21.2250   -6.9802  -14.3908 C   0  0  0  0  0  0  0  0  0  0  0  0
   21.5689   -6.6113  -13.1028 O   0  0  0  0  0  0  0  0  0  0  0  0
   19.9986   -7.0547  -14.6552 O   0  0  0  0  0  0  0  0  0  0  0  0
  2  1  1  0
  3  2  1  0
  3  4  1  1
  5  7  1  0
  5  6  1  6
  5  3  1  0
  7  8  2  0
  9  7  1  0
  9 10  1  0
 10 14  1  0
 10 11  1  1
 12 13  2  0
 12 11  1  0
 14 15  2  0
 14 20  1  0
 16 12  1  0
 17 18  1  0
 19 18  1  6
 19 21  1  0
 20 19  1  0
 21 23  2  0
 21 22  1  0
M  END
$$$$
