GEF.pdb
     RDKit          3D

 25 25  0  0  1  0  0  0  0  0999 V2000
    6.8228  -12.7344   19.1058 N   0  0  0  0  0  0  0  0  0  0  0  0
    8.1146  -12.9287   19.7215 C   0  0  0  0  0  0  0  0  0  0  0  0
    8.0583  -14.0557   20.7246 C   0  0  0  0  0  0  0  0  0  0  0  0
    6.9698  -14.2913   21.3051 O   0  0  0  0  0  0  0  0  0  0  0  0
    9.2162  -14.8188   20.9918 N   0  0  0  0  0  0  0  0  0  0  0  0
    9.3210  -15.9812   21.8078 C   0  0  1  0  0  0  0  0  0  0  0  0
   10.2979  -17.0364   21.2878 C   0  0  0  0  0  0  0  0  0  0  0  0
   10.3009  -18.3162   22.0387 C   0  0  0  0  0  0  0  0  0  0  0  0
   11.3000  -19.3007   21.5016 C   0  0  0  0  0  0  0  0  0  0  0  0
   12.4967  -19.0622   21.2883 O   0  0  0  0  0  0  0  0  0  0  0  0
    9.5475  -15.7642   23.2320 C   0  0  0  0  0  0  0  0  0  0  0  0
   10.5359  -15.0916   23.6226 O   0  0  0  0  0  0  0  0  0  0  0  0
   10.8006  -20.5798   21.2328 O   0  0  0  0  0  0  0  0  0  0  0  0
    8.7018  -16.2754   24.2645 N   0  0  0  0  0  0  0  0  0  0  0  0
    8.9773  -16.0367   25.6848 C   0  0  1  0  0  0  0  0  0  0  0  0
    7.6620  -15.6531   26.3077 C   0  0  0  0  0  0  0  0  0  0  0  0
    7.3878  -14.2104   26.3461 C   0  0  0  0  0  0  0  0  0  0  0  0
    8.2725  -13.3164   26.9151 C   0  0  0  0  0  0  0  0  0  0  0  0
    7.9437  -11.9723   26.9001 C   0  0  0  0  0  0  0  0  0  0  0  0
    6.7672  -11.5200   26.3356 C   0  0  0  0  0  0  0  0  0  0  0  0
    5.8880  -12.4086   25.7698 C   0  0  0  0  0  0  0  0  0  0  0  0
    6.2124  -13.7623   25.7813 C   0  0  0  0  0  0  0  0  0  0  0  0
    9.4544  -17.2785   26.3281 C   0  0  0  0  0  0  0  0  0  0  0  0
    9.9403  -17.2053   27.6244 O   0  0  0  0  0  0  0  0  0  0  0  0
    9.4483  -18.4036   25.7733 O   0  0  0  0  0  0  0  0  0  0  0  0
  1  2  1  0
  3  2  1  0
  3  4  2  0
  5  3  1  0
  6  5  1  0
  6 11  1  0
  6  7  1  6
  8  7  1  0
  9  8  1  0
 10  9  2  0
 11 14  1  0
 11 12  2  0
 13  9  1  0
 14 15  1  0
 15 16  1  1
 17 16  1  0
 18 17  2  0
 19 20  2  0
 19 18  1  0
 20 21  1  0
 21 22  2  0
 22 17  1  0
 23 15  1  0
 23 24  1  0
 25 23  2  0
M  END
$$$$
