GEF.pdb
     RDKit          3D

 25 25  0  0  1  0  0  0  0  0999 V2000
    2.5795  -19.8123   21.7884 N   0  0  0  0  0  0  0  0  0  0  0  0
    3.9655  -19.5921   21.4473 C   0  0  0  0  0  0  0  0  0  0  0  0
    4.6294  -18.7082   22.4758 C   0  0  0  0  0  0  0  0  0  0  0  0
    4.3224  -17.4910   22.5117 O   0  0  0  0  0  0  0  0  0  0  0  0
    5.5740  -19.2568   23.3709 N   0  0  0  0  0  0  0  0  0  0  0  0
    6.3184  -18.5733   24.3743 C   0  0  1  0  0  0  0  0  0  0  0  0
    6.8139  -19.4633   25.5146 C   0  0  0  0  0  0  0  0  0  0  0  0
    7.5923  -18.7641   26.5666 C   0  0  0  0  0  0  0  0  0  0  0  0
    7.9984  -19.6757   27.6892 C   0  0  0  0  0  0  0  0  0  0  0  0
    7.4681  -19.7138   28.8080 O   0  0  0  0  0  0  0  0  0  0  0  0
    7.4051  -17.7163   23.9148 C   0  0  0  0  0  0  0  0  0  0  0  0
    8.2884  -18.1697   23.1427 O   0  0  0  0  0  0  0  0  0  0  0  0
    9.0658  -20.5362   27.4101 O   0  0  0  0  0  0  0  0  0  0  0  0
    7.5549  -16.3443   24.2860 N   0  0  0  0  0  0  0  0  0  0  0  0
    8.6549  -15.5174   23.7798 C   0  0  1  0  0  0  0  0  0  0  0  0
    8.1247  -14.1104   23.7132 C   0  0  0  0  0  0  0  0  0  0  0  0
    7.6580  -13.5591   24.9924 C   0  0  0  0  0  0  0  0  0  0  0  0
    8.5378  -13.0885   25.9464 C   0  0  0  0  0  0  0  0  0  0  0  0
    8.0156  -12.5746   27.1203 C   0  0  0  0  0  0  0  0  0  0  0  0
    6.6542  -12.5261   27.3480 C   0  0  0  0  0  0  0  0  0  0  0  0
    5.7797  -12.9937   26.3997 C   0  0  0  0  0  0  0  0  0  0  0  0
    6.2981  -13.5120   25.2164 C   0  0  0  0  0  0  0  0  0  0  0  0
    9.7906  -15.5443   24.7248 C   0  0  0  0  0  0  0  0  0  0  0  0
    9.6166  -16.1739   25.9476 O   0  0  0  0  0  0  0  0  0  0  0  0
   10.9108  -15.0305   24.4909 O   0  0  0  0  0  0  0  0  0  0  0  0
  1  2  1  0
  3  2  1  0
  3  4  2  0
  5  3  1  0
  6  5  1  0
  6 11  1  0
  6  7  1  1
  8  7  1  0
  9  8  1  0
 10  9  2  0
 11 14  1  0
 11 12  2  0
 13  9  1  0
 14 15  1  0
 15 16  1  1
 17 16  1  0
 18 17  2  0
 19 20  2  0
 19 18  1  0
 20 21  1  0
 21 22  2  0
 22 17  1  0
 23 15  1  0
 23 24  1  0
 25 23  2  0
M  END
$$$$
