GEF.pdb
     RDKit          3D

 25 25  0  0  1  0  0  0  0  0999 V2000
    6.5397  -13.8931   19.7355 N   0  0  0  0  0  0  0  0  0  0  0  0
    7.8638  -13.8078   20.3056 C   0  0  0  0  0  0  0  0  0  0  0  0
    8.1055  -14.9559   21.2560 C   0  0  0  0  0  0  0  0  0  0  0  0
    7.1299  -15.6672   21.6013 O   0  0  0  0  0  0  0  0  0  0  0  0
    9.4091  -15.2096   21.7364 N   0  0  0  0  0  0  0  0  0  0  0  0
    9.8260  -16.2595   22.6034 C   0  0  1  0  0  0  0  0  0  0  0  0
   11.0938  -16.9877   22.1554 C   0  0  0  0  0  0  0  0  0  0  0  0
   11.0770  -17.4777   20.7550 C   0  0  0  0  0  0  0  0  0  0  0  0
   12.3486  -18.1791   20.3713 C   0  0  0  0  0  0  0  0  0  0  0  0
   13.1305  -17.8096   19.4845 O   0  0  0  0  0  0  0  0  0  0  0  0
    9.9215  -15.9388   24.0228 C   0  0  0  0  0  0  0  0  0  0  0  0
   10.7487  -15.0811   24.4257 O   0  0  0  0  0  0  0  0  0  0  0  0
   12.6387  -19.3398   21.0969 O   0  0  0  0  0  0  0  0  0  0  0  0
    9.1177  -16.5453   25.0369 N   0  0  0  0  0  0  0  0  0  0  0  0
    9.2737  -16.2115   26.4562 C   0  0  1  0  0  0  0  0  0  0  0  0
    7.9086  -15.8065   26.9435 C   0  0  0  0  0  0  0  0  0  0  0  0
    7.4896  -14.4497   26.5669 C   0  0  0  0  0  0  0  0  0  0  0  0
    6.5126  -14.2270   25.6174 C   0  0  0  0  0  0  0  0  0  0  0  0
    6.1682  -12.9182   25.3286 C   0  0  0  0  0  0  0  0  0  0  0  0
    6.7749  -11.8520   25.9631 C   0  0  0  0  0  0  0  0  0  0  0  0
    7.7460  -12.0734   26.9068 C   0  0  0  0  0  0  0  0  0  0  0  0
    8.0973  -13.3875   27.2025 C   0  0  0  0  0  0  0  0  0  0  0  0
    9.7067  -17.4025   27.2162 C   0  0  0  0  0  0  0  0  0  0  0  0
   10.0445  -17.2460   28.5516 O   0  0  0  0  0  0  0  0  0  0  0  0
    9.7891  -18.5550   26.7280 O   0  0  0  0  0  0  0  0  0  0  0  0
  1  2  1  0
  3  2  1  0
  3  4  2  0
  5  3  1  0
  6  5  1  0
  6 11  1  0
  6  7  1  6
  8  7  1  0
  9  8  1  0
 10  9  2  0
 11 14  1  0
 11 12  2  0
 13  9  1  0
 14 15  1  0
 15 16  1  1
 17 16  1  0
 18 17  2  0
 19 20  2  0
 19 18  1  0
 20 21  1  0
 21 22  2  0
 22 17  1  0
 23 15  1  0
 23 24  1  0
 25 23  2  0
M  END
$$$$
