GEF.pdb
     RDKit          3D

 25 25  0  0  1  0  0  0  0  0999 V2000
    6.5773  -13.3585   19.4493 N   0  0  0  0  0  0  0  0  0  0  0  0
    7.8141  -13.3260   20.1941 C   0  0  0  0  0  0  0  0  0  0  0  0
    7.8862  -14.4918   21.1509 C   0  0  0  0  0  0  0  0  0  0  0  0
    6.8297  -14.8793   21.7086 O   0  0  0  0  0  0  0  0  0  0  0  0
    9.1253  -15.1214   21.4014 N   0  0  0  0  0  0  0  0  0  0  0  0
    9.3832  -16.2123   22.2797 C   0  0  1  0  0  0  0  0  0  0  0  0
   10.4645  -17.1778   21.7929 C   0  0  0  0  0  0  0  0  0  0  0  0
   10.6222  -18.4086   22.6064 C   0  0  0  0  0  0  0  0  0  0  0  0
   11.6550  -19.3447   22.0467 C   0  0  0  0  0  0  0  0  0  0  0  0
   11.4997  -20.5614   21.8737 O   0  0  0  0  0  0  0  0  0  0  0  0
    9.6148  -15.8846   23.6816 C   0  0  0  0  0  0  0  0  0  0  0  0
   10.5601  -15.1215   24.0077 O   0  0  0  0  0  0  0  0  0  0  0  0
   12.8781  -18.7573   21.7052 O   0  0  0  0  0  0  0  0  0  0  0  0
    8.8216  -16.3810   24.7619 N   0  0  0  0  0  0  0  0  0  0  0  0
    9.1692  -16.1257   26.1633 C   0  0  1  0  0  0  0  0  0  0  0  0
    7.9081  -15.6397   26.8256 C   0  0  0  0  0  0  0  0  0  0  0  0
    7.6209  -14.2103   26.6461 C   0  0  0  0  0  0  0  0  0  0  0  0
    6.4550  -13.7713   26.0512 C   0  0  0  0  0  0  0  0  0  0  0  0
    6.2564  -12.4072   25.9305 C   0  0  0  0  0  0  0  0  0  0  0  0
    7.1882  -11.4956   26.3870 C   0  0  0  0  0  0  0  0  0  0  0  0
    8.3469  -11.9320   26.9783 C   0  0  0  0  0  0  0  0  0  0  0  0
    8.5533  -13.3029   27.1032 C   0  0  0  0  0  0  0  0  0  0  0  0
    9.5892  -17.3801   26.8219 C   0  0  0  0  0  0  0  0  0  0  0  0
    9.5222  -18.5600   26.0973 O   0  0  0  0  0  0  0  0  0  0  0  0
   10.0055  -17.4473   28.0033 O   0  0  0  0  0  0  0  0  0  0  0  0
  1  2  1  0
  3  2  1  0
  3  4  2  0
  5  3  1  0
  6  5  1  0
  6 11  1  0
  6  7  1  6
  8  7  1  0
  9  8  1  0
 10  9  2  0
 11 14  1  0
 11 12  2  0
 13  9  1  0
 14 15  1  0
 15 16  1  1
 17 16  1  0
 18 17  2  0
 19 20  2  0
 19 18  1  0
 20 21  1  0
 21 22  2  0
 22 17  1  0
 23 15  1  0
 23 24  1  0
 25 23  2  0
M  END
$$$$
