GEF.pdb
     RDKit          3D

 25 25  0  0  1  0  0  0  0  0999 V2000
    5.5896  -18.9007   20.6116 N   0  0  0  0  0  0  0  0  0  0  0  0
    5.5301  -17.7789   21.5191 C   0  0  0  0  0  0  0  0  0  0  0  0
    6.8750  -17.0984   21.6079 C   0  0  0  0  0  0  0  0  0  0  0  0
    7.9056  -17.8109   21.6952 O   0  0  0  0  0  0  0  0  0  0  0  0
    6.9530  -15.6884   21.5917 N   0  0  0  0  0  0  0  0  0  0  0  0
    8.1125  -14.8808   21.7686 C   0  0  1  0  0  0  0  0  0  0  0  0
    7.9415  -13.4221   21.3432 C   0  0  0  0  0  0  0  0  0  0  0  0
    7.1736  -13.2174   20.0903 C   0  0  0  0  0  0  0  0  0  0  0  0
    7.9636  -13.5698   18.8623 C   0  0  0  0  0  0  0  0  0  0  0  0
    7.5073  -13.6387   17.7128 O   0  0  0  0  0  0  0  0  0  0  0  0
    8.7576  -14.9371   23.0752 C   0  0  0  0  0  0  0  0  0  0  0  0
    9.9007  -14.4391   23.2411 O   0  0  0  0  0  0  0  0  0  0  0  0
    9.3208  -13.8351   19.0749 O   0  0  0  0  0  0  0  0  0  0  0  0
    8.1722  -15.5379   24.2324 N   0  0  0  0  0  0  0  0  0  0  0  0
    8.8856  -15.6208   25.5107 C   0  0  1  0  0  0  0  0  0  0  0  0
    7.8706  -15.3093   26.5775 C   0  0  0  0  0  0  0  0  0  0  0  0
    7.4775  -13.8969   26.6703 C   0  0  0  0  0  0  0  0  0  0  0  0
    8.3945  -12.9030   26.9478 C   0  0  0  0  0  0  0  0  0  0  0  0
    7.9439  -11.5960   27.0066 C   0  0  0  0  0  0  0  0  0  0  0  0
    6.6169  -11.2764   26.7960 C   0  0  0  0  0  0  0  0  0  0  0  0
    5.7055  -12.2643   26.5200 C   0  0  0  0  0  0  0  0  0  0  0  0
    6.1518  -13.5814   26.4592 C   0  0  0  0  0  0  0  0  0  0  0  0
    9.3855  -16.9943   25.7283 C   0  0  0  0  0  0  0  0  0  0  0  0
   10.1329  -17.2515   26.8671 O   0  0  0  0  0  0  0  0  0  0  0  0
    9.1760  -17.9501   24.9435 O   0  0  0  0  0  0  0  0  0  0  0  0
  1  2  1  0
  3  2  1  0
  3  4  2  0
  5  3  1  0
  6  5  1  0
  6 11  1  0
  6  7  1  1
  8  7  1  0
  9  8  1  0
 10  9  2  0
 11 14  1  0
 11 12  2  0
 13  9  1  0
 14 15  1  0
 15 16  1  1
 17 16  1  0
 18 17  2  0
 19 20  2  0
 19 18  1  0
 20 21  1  0
 21 22  2  0
 22 17  1  0
 23 15  1  0
 23 24  1  0
 25 23  2  0
M  END
$$$$
