GEF.pdb
     RDKit          3D

 25 25  0  0  1  0  0  0  0  0999 V2000
    4.0287  -19.7046   22.1745 N   0  0  0  0  0  0  0  0  0  0  0  0
    4.1288  -18.2717   22.3239 C   0  0  0  0  0  0  0  0  0  0  0  0
    5.5760  -17.8419   22.3458 C   0  0  0  0  0  0  0  0  0  0  0  0
    6.4385  -18.6525   22.7656 O   0  0  0  0  0  0  0  0  0  0  0  0
    5.9337  -16.5506   21.8995 N   0  0  0  0  0  0  0  0  0  0  0  0
    7.2234  -15.9474   21.9305 C   0  0  1  0  0  0  0  0  0  0  0  0
    7.4170  -14.8102   20.9269 C   0  0  0  0  0  0  0  0  0  0  0  0
    8.7884  -14.2466   20.8707 C   0  0  0  0  0  0  0  0  0  0  0  0
    9.5690  -14.7389   19.6857 C   0  0  0  0  0  0  0  0  0  0  0  0
    9.0969  -15.3672   18.7282 O   0  0  0  0  0  0  0  0  0  0  0  0
    7.7241  -15.5375   23.2373 C   0  0  0  0  0  0  0  0  0  0  0  0
    7.5277  -14.3672   23.6542 O   0  0  0  0  0  0  0  0  0  0  0  0
   10.9368  -14.4446   19.7011 O   0  0  0  0  0  0  0  0  0  0  0  0
    8.4513  -16.3936   24.1211 N   0  0  0  0  0  0  0  0  0  0  0  0
    8.9678  -15.9226   25.4100 C   0  0  1  0  0  0  0  0  0  0  0  0
    7.7626  -15.5859   26.2462 C   0  0  0  0  0  0  0  0  0  0  0  0
    7.4530  -14.1533   26.3449 C   0  0  0  0  0  0  0  0  0  0  0  0
    8.4439  -13.2027   26.4870 C   0  0  0  0  0  0  0  0  0  0  0  0
    8.0681  -11.8730   26.5614 C   0  0  0  0  0  0  0  0  0  0  0  0
    6.7429  -11.4895   26.4970 C   0  0  0  0  0  0  0  0  0  0  0  0
    5.7580  -12.4343   26.3556 C   0  0  0  0  0  0  0  0  0  0  0  0
    6.1288  -13.7739   26.2799 C   0  0  0  0  0  0  0  0  0  0  0  0
    9.7178  -17.0022   26.0849 C   0  0  0  0  0  0  0  0  0  0  0  0
   10.4415  -16.6896   27.2252 O   0  0  0  0  0  0  0  0  0  0  0  0
    9.7426  -18.1926   25.6899 O   0  0  0  0  0  0  0  0  0  0  0  0
  1  2  1  0
  3  2  1  0
  3  4  2  0
  5  3  1  0
  6  5  1  0
  6 11  1  0
  6  7  1  6
  8  7  1  0
  9  8  1  0
 10  9  2  0
 11 14  1  0
 11 12  2  0
 13  9  1  0
 14 15  1  0
 15 16  1  1
 17 16  1  0
 18 17  2  0
 19 20  2  0
 19 18  1  0
 20 21  1  0
 21 22  2  0
 22 17  1  0
 23 15  1  0
 23 24  1  0
 25 23  2  0
M  END
$$$$
