GEF.pdb
     RDKit          3D

 25 25  0  0  1  0  0  0  0  0999 V2000
    4.5511  -19.4768   22.2143 N   0  0  0  0  0  0  0  0  0  0  0  0
    4.9356  -18.0853   22.2517 C   0  0  0  0  0  0  0  0  0  0  0  0
    6.4166  -17.9526   22.5139 C   0  0  0  0  0  0  0  0  0  0  0  0
    6.9871  -18.8330   23.2042 O   0  0  0  0  0  0  0  0  0  0  0  0
    7.1294  -16.8538   21.9856 N   0  0  0  0  0  0  0  0  0  0  0  0
    8.4580  -16.4487   22.2994 C   0  0  1  0  0  0  0  0  0  0  0  0
    9.1097  -15.5431   21.2537 C   0  0  0  0  0  0  0  0  0  0  0  0
   10.5623  -15.3069   21.4427 C   0  0  0  0  0  0  0  0  0  0  0  0
   11.3876  -15.8299   20.3019 C   0  0  0  0  0  0  0  0  0  0  0  0
   10.9727  -16.5674   19.3972 O   0  0  0  0  0  0  0  0  0  0  0  0
    8.6777  -15.8958   23.6307 C   0  0  0  0  0  0  0  0  0  0  0  0
    8.5685  -14.6588   23.8306 O   0  0  0  0  0  0  0  0  0  0  0  0
   12.7283  -15.4298   20.2954 O   0  0  0  0  0  0  0  0  0  0  0  0
    9.0218  -16.6781   24.7762 N   0  0  0  0  0  0  0  0  0  0  0  0
    9.1979  -16.0790   26.1029 C   0  0  1  0  0  0  0  0  0  0  0  0
    7.8132  -15.8138   26.6296 C   0  0  0  0  0  0  0  0  0  0  0  0
    7.3783  -14.4122   26.5614 C   0  0  0  0  0  0  0  0  0  0  0  0
    6.0931  -14.0661   26.1950 C   0  0  0  0  0  0  0  0  0  0  0  0
    5.7610  -12.7230   26.1667 C   0  0  0  0  0  0  0  0  0  0  0  0
    6.6773  -11.7425   26.4928 C   0  0  0  0  0  0  0  0  0  0  0  0
    7.9546  -12.0866   26.8571 C   0  0  0  0  0  0  0  0  0  0  0  0
    8.2957  -13.4359   26.8879 C   0  0  0  0  0  0  0  0  0  0  0  0
    9.8676  -17.0342   27.0098 C   0  0  0  0  0  0  0  0  0  0  0  0
   10.1698  -18.2990   26.5293 O   0  0  0  0  0  0  0  0  0  0  0  0
   10.1829  -16.7733   28.1955 O   0  0  0  0  0  0  0  0  0  0  0  0
  1  2  1  0
  3  2  1  0
  3  4  2  0
  5  3  1  0
  6  5  1  0
  6 11  1  0
  6  7  1  6
  8  7  1  0
  9  8  1  0
 10  9  2  0
 11 14  1  0
 11 12  2  0
 13  9  1  0
 14 15  1  0
 15 16  1  1
 17 16  1  0
 18 17  2  0
 19 20  2  0
 19 18  1  0
 20 21  1  0
 21 22  2  0
 22 17  1  0
 23 15  1  0
 23 24  1  0
 25 23  2  0
M  END
$$$$
