GEF.pdb
     RDKit          3D

 25 25  0  0  1  0  0  0  0  0999 V2000
    7.5425  -13.2207   18.4924 N   0  0  0  0  0  0  0  0  0  0  0  0
    7.9416  -12.8568   19.8318 C   0  0  0  0  0  0  0  0  0  0  0  0
    7.8231  -14.0420   20.7596 C   0  0  0  0  0  0  0  0  0  0  0  0
    6.6779  -14.4206   21.1094 O   0  0  0  0  0  0  0  0  0  0  0  0
    8.9875  -14.6991   21.2145 N   0  0  0  0  0  0  0  0  0  0  0  0
    9.0650  -15.8883   21.9942 C   0  0  1  0  0  0  0  0  0  0  0  0
    9.9806  -16.9680   21.4164 C   0  0  0  0  0  0  0  0  0  0  0  0
    9.7472  -17.2934   19.9878 C   0  0  0  0  0  0  0  0  0  0  0  0
   10.6640  -18.3699   19.4813 C   0  0  0  0  0  0  0  0  0  0  0  0
   11.8843  -18.2475   19.3067 O   0  0  0  0  0  0  0  0  0  0  0  0
    9.3403  -15.7228   23.4166 C   0  0  0  0  0  0  0  0  0  0  0  0
   10.3815  -15.1284   23.7970 O   0  0  0  0  0  0  0  0  0  0  0  0
   10.0532  -19.5957   19.1948 O   0  0  0  0  0  0  0  0  0  0  0  0
    8.4872  -16.2015   24.4586 N   0  0  0  0  0  0  0  0  0  0  0  0
    8.8231  -16.0360   25.8763 C   0  0  1  0  0  0  0  0  0  0  0  0
    7.5607  -15.5764   26.5547 C   0  0  0  0  0  0  0  0  0  0  0  0
    7.3135  -14.1295   26.4969 C   0  0  0  0  0  0  0  0  0  0  0  0
    6.0493  -13.6149   26.2902 C   0  0  0  0  0  0  0  0  0  0  0  0
    5.9004  -12.2394   26.2605 C   0  0  0  0  0  0  0  0  0  0  0  0
    6.9759  -11.3899   26.4311 C   0  0  0  0  0  0  0  0  0  0  0  0
    8.2324  -11.9015   26.6368 C   0  0  0  0  0  0  0  0  0  0  0  0
    8.3895  -13.2842   26.6680 C   0  0  0  0  0  0  0  0  0  0  0  0
    9.2222  -17.3330   26.4612 C   0  0  0  0  0  0  0  0  0  0  0  0
    9.7828  -17.3403   27.7290 O   0  0  0  0  0  0  0  0  0  0  0  0
    9.0856  -18.4366   25.8807 O   0  0  0  0  0  0  0  0  0  0  0  0
  1  2  1  0
  3  2  1  0
  3  4  2  0
  5  3  1  0
  6  5  1  0
  6 11  1  0
  6  7  1  6
  8  7  1  0
  9  8  1  0
 10  9  2  0
 11 14  1  0
 11 12  2  0
 13  9  1  0
 14 15  1  0
 15 16  1  1
 17 16  1  0
 18 17  2  0
 19 20  2  0
 19 18  1  0
 20 21  1  0
 21 22  2  0
 22 17  1  0
 23 15  1  0
 23 24  1  0
 25 23  2  0
M  END
$$$$
