GEF.pdb
     RDKit          3D

 25 25  0  0  1  0  0  0  0  0999 V2000
    7.1216  -12.4294   18.7118 N   0  0  0  0  0  0  0  0  0  0  0  0
    8.3655  -13.0345   19.1266 C   0  0  0  0  0  0  0  0  0  0  0  0
    8.1089  -14.1477   20.1138 C   0  0  0  0  0  0  0  0  0  0  0  0
    6.9440  -14.3031   20.5566 O   0  0  0  0  0  0  0  0  0  0  0  0
    9.1697  -14.9871   20.5196 N   0  0  0  0  0  0  0  0  0  0  0  0
    9.1090  -16.0907   21.4176 C   0  0  1  0  0  0  0  0  0  0  0  0
    9.9615  -17.2917   21.0066 C   0  0  0  0  0  0  0  0  0  0  0  0
    9.8056  -18.4959   21.8594 C   0  0  0  0  0  0  0  0  0  0  0  0
   10.6215  -19.6596   21.3734 C   0  0  0  0  0  0  0  0  0  0  0  0
   11.3869  -19.6404   20.3996 O   0  0  0  0  0  0  0  0  0  0  0  0
    9.3233  -15.7989   22.8302 C   0  0  0  0  0  0  0  0  0  0  0  0
   10.3884  -15.2486   23.2106 O   0  0  0  0  0  0  0  0  0  0  0  0
   10.4782  -20.8432   22.1057 O   0  0  0  0  0  0  0  0  0  0  0  0
    8.3815  -16.1002   23.8622 N   0  0  0  0  0  0  0  0  0  0  0  0
    8.6397  -15.7776   25.2691 C   0  0  1  0  0  0  0  0  0  0  0  0
    7.3131  -15.3789   25.8574 C   0  0  0  0  0  0  0  0  0  0  0  0
    7.1337  -13.9363   26.0693 C   0  0  0  0  0  0  0  0  0  0  0  0
    5.9185  -13.4021   26.4483 C   0  0  0  0  0  0  0  0  0  0  0  0
    5.8368  -12.0337   26.6379 C   0  0  0  0  0  0  0  0  0  0  0  0
    6.9307  -11.2102   26.4575 C   0  0  0  0  0  0  0  0  0  0  0  0
    8.1385  -11.7413   26.0809 C   0  0  0  0  0  0  0  0  0  0  0  0
    8.2280  -13.1170   25.8885 C   0  0  0  0  0  0  0  0  0  0  0  0
    9.1280  -16.9740   25.9859 C   0  0  0  0  0  0  0  0  0  0  0  0
    9.7058  -16.8047   27.2346 O   0  0  0  0  0  0  0  0  0  0  0  0
    9.0533  -18.1420   25.5345 O   0  0  0  0  0  0  0  0  0  0  0  0
  1  2  1  0
  3  2  1  0
  3  4  2  0
  5  3  1  0
  6  5  1  0
  6 11  1  0
  6  7  1  6
  8  7  1  0
  9  8  1  0
 10  9  2  0
 11 14  1  0
 11 12  2  0
 13  9  1  0
 14 15  1  0
 15 16  1  1
 17 16  1  0
 18 17  2  0
 19 20  2  0
 19 18  1  0
 20 21  1  0
 21 22  2  0
 22 17  1  0
 23 15  1  0
 23 24  1  0
 25 23  2  0
M  END
$$$$
