GEF.pdb
     RDKit          3D

 25 25  0  0  1  0  0  0  0  0999 V2000
    8.0497  -12.3057   18.5498 N   0  0  0  0  0  0  0  0  0  0  0  0
    8.7744  -13.5252   18.8203 C   0  0  0  0  0  0  0  0  0  0  0  0
    8.4027  -14.0714   20.1780 C   0  0  0  0  0  0  0  0  0  0  0  0
    8.1169  -13.2622   21.0948 O   0  0  0  0  0  0  0  0  0  0  0  0
    8.3823  -15.4669   20.3939 N   0  0  0  0  0  0  0  0  0  0  0  0
    8.0906  -16.1538   21.6068 C   0  0  1  0  0  0  0  0  0  0  0  0
    7.7504  -17.6343   21.4323 C   0  0  0  0  0  0  0  0  0  0  0  0
    6.9718  -17.9621   20.2126 C   0  0  0  0  0  0  0  0  0  0  0  0
    6.7372  -19.4372   20.0540 C   0  0  0  0  0  0  0  0  0  0  0  0
    7.6202  -20.3060   20.0471 O   0  0  0  0  0  0  0  0  0  0  0  0
    9.0476  -15.9965   22.6957 C   0  0  0  0  0  0  0  0  0  0  0  0
   10.2774  -16.1600   22.4889 O   0  0  0  0  0  0  0  0  0  0  0  0
    5.4002  -19.8218   19.9044 O   0  0  0  0  0  0  0  0  0  0  0  0
    8.6868  -15.6573   24.0364 N   0  0  0  0  0  0  0  0  0  0  0  0
    9.6871  -15.5189   25.0996 C   0  0  1  0  0  0  0  0  0  0  0  0
    9.6731  -14.0685   25.5013 C   0  0  0  0  0  0  0  0  0  0  0  0
    8.3494  -13.5281   25.8388 C   0  0  0  0  0  0  0  0  0  0  0  0
    7.9603  -13.3200   27.1468 C   0  0  0  0  0  0  0  0  0  0  0  0
    6.7002  -12.7969   27.3784 C   0  0  0  0  0  0  0  0  0  0  0  0
    5.8426  -12.4857   26.3415 C   0  0  0  0  0  0  0  0  0  0  0  0
    6.2295  -12.6925   25.0415 C   0  0  0  0  0  0  0  0  0  0  0  0
    7.4958  -13.2183   24.8011 C   0  0  0  0  0  0  0  0  0  0  0  0
    9.3021  -16.3320   26.2719 C   0  0  0  0  0  0  0  0  0  0  0  0
   10.1753  -16.3946   27.3468 O   0  0  0  0  0  0  0  0  0  0  0  0
    8.2282  -16.9745   26.3584 O   0  0  0  0  0  0  0  0  0  0  0  0
  1  2  1  0
  3  2  1  0
  3  4  2  0
  5  3  1  0
  6  5  1  0
  6 11  1  0
  6  7  1  6
  8  7  1  0
  9  8  1  0
 10  9  2  0
 11 14  1  0
 11 12  2  0
 13  9  1  0
 14 15  1  0
 15 16  1  1
 17 16  1  0
 18 17  2  0
 19 20  2  0
 19 18  1  0
 20 21  1  0
 21 22  2  0
 22 17  1  0
 23 15  1  0
 23 24  1  0
 25 23  2  0
M  END
$$$$
