GEF.pdb
     RDKit          3D

 25 25  0  0  1  0  0  0  0  0999 V2000
    6.9725  -12.7605   18.9542 N   0  0  0  0  0  0  0  0  0  0  0  0
    8.2699  -13.3931   19.0017 C   0  0  0  0  0  0  0  0  0  0  0  0
    8.3297  -14.3934   20.1310 C   0  0  0  0  0  0  0  0  0  0  0  0
    7.4477  -14.3469   21.0239 O   0  0  0  0  0  0  0  0  0  0  0  0
    9.3637  -15.3547   20.1660 N   0  0  0  0  0  0  0  0  0  0  0  0
    9.5671  -16.3764   21.1369 C   0  0  1  0  0  0  0  0  0  0  0  0
   10.2715  -17.6256   20.6065 C   0  0  0  0  0  0  0  0  0  0  0  0
    9.6202  -18.2675   19.4380 C   0  0  0  0  0  0  0  0  0  0  0  0
   10.3854  -19.4552   18.9283 C   0  0  0  0  0  0  0  0  0  0  0  0
   10.0257  -20.6362   19.0304 O   0  0  0  0  0  0  0  0  0  0  0  0
   10.1751  -15.9702   22.3986 C   0  0  0  0  0  0  0  0  0  0  0  0
   11.2768  -15.3633   22.4063 O   0  0  0  0  0  0  0  0  0  0  0  0
   11.5973  -19.1634   18.2927 O   0  0  0  0  0  0  0  0  0  0  0  0
    9.5968  -16.2160   23.6823 N   0  0  0  0  0  0  0  0  0  0  0  0
   10.2085  -15.7193   24.9188 C   0  0  1  0  0  0  0  0  0  0  0  0
    9.0943  -15.6171   25.9254 C   0  0  0  0  0  0  0  0  0  0  0  0
    9.4988  -15.1473   27.2572 C   0  0  0  0  0  0  0  0  0  0  0  0
    9.9549  -16.0164   28.2279 C   0  0  0  0  0  0  0  0  0  0  0  0
   10.3267  -15.4911   29.4530 C   0  0  0  0  0  0  0  0  0  0  0  0
   10.2501  -14.1371   29.7145 C   0  0  0  0  0  0  0  0  0  0  0  0
    9.7969  -13.2734   28.7496 C   0  0  0  0  0  0  0  0  0  0  0  0
    9.4213  -13.7949   27.5149 C   0  0  0  0  0  0  0  0  0  0  0  0
   11.2043  -16.6887   25.4211 C   0  0  0  0  0  0  0  0  0  0  0  0
   10.9562  -18.0410   25.2438 O   0  0  0  0  0  0  0  0  0  0  0  0
   12.2679  -16.3651   26.0021 O   0  0  0  0  0  0  0  0  0  0  0  0
  1  2  1  0
  3  2  1  0
  3  4  2  0
  5  3  1  0
  6  5  1  0
  6 11  1  0
  6  7  1  6
  8  7  1  0
  9  8  1  0
 10  9  2  0
 11 14  1  0
 11 12  2  0
 13  9  1  0
 14 15  1  0
 15 16  1  1
 17 16  1  0
 18 17  2  0
 19 20  2  0
 19 18  1  0
 20 21  1  0
 21 22  2  0
 22 17  1  0
 23 15  1  0
 23 24  1  0
 25 23  2  0
M  END
$$$$
