RWI.pdb
     RDKit          3D

 34 35  0  0  1  0  0  0  0  0999 V2000
   25.4978  -17.0681  -18.1135 N   0  0  0  0  0  0  0  0  0  0  0  0
   26.7538  -17.7124  -18.3071 C   0  0  0  0  0  0  0  0  0  0  0  0
   27.0110  -18.3641  -19.3891 N   0  0  0  0  0  0  0  0  0  0  0  0
   27.7504  -17.6378  -17.2785 N   0  0  0  0  0  0  0  0  0  0  0  0
   28.1334  -18.8071  -16.5112 C   0  0  0  0  0  0  0  0  0  0  0  0
   27.2023  -18.9532  -15.3607 C   0  0  0  0  0  0  0  0  0  0  0  0
   27.8042  -19.0383  -14.0116 C   0  0  0  0  0  0  0  0  0  0  0  0
   28.0593  -20.3931  -13.4573 C   0  0  2  0  0  0  0  0  0  0  0  0
   28.2276  -21.3715  -14.4896 N   0  0  0  0  0  0  0  0  0  0  0  0
   27.0398  -20.8450  -12.4882 C   0  0  0  0  0  0  0  0  0  0  0  0
   26.2415  -21.7879  -12.7170 O   0  0  0  0  0  0  0  0  0  0  0  0
   27.8798  -18.8884  -19.5303 N   0  0  0  0  0  0  0  0  0  0  0  0
   26.9326  -20.2032  -11.2325 C   0  0  2  0  0  0  0  0  0  0  0  0
   25.9097  -20.4629  -10.2641 C   0  0  0  0  0  0  0  0  0  0  0  0
   26.1397  -19.8665   -8.9091 C   0  0  0  0  0  0  0  0  0  0  0  0
   27.3742  -20.3825   -8.3123 C   0  0  0  0  0  0  0  0  0  0  0  0
   28.3509  -21.2036   -8.8452 N   0  0  0  0  0  0  0  0  0  0  0  0
   29.3005  -21.4083   -7.9191 C   0  0  0  0  0  0  0  0  0  0  0  0
   29.0137  -20.7628   -6.7784 C   0  0  0  0  0  0  0  0  0  0  0  0
   29.6830  -20.6763   -5.5705 C   0  0  0  0  0  0  0  0  0  0  0  0
   29.1253  -19.9124   -4.5539 C   0  0  0  0  0  0  0  0  0  0  0  0
   27.9422  -19.2631   -4.7486 C   0  0  0  0  0  0  0  0  0  0  0  0
   27.2954  -19.3721   -5.9778 C   0  0  0  0  0  0  0  0  0  0  0  0
   27.8186  -20.1214   -7.0105 C   0  0  0  0  0  0  0  0  0  0  0  0
   24.5511  -20.1079  -10.7686 O   0  0  0  0  0  0  0  0  0  0  0  0
   24.2761  -18.9158  -11.0417 C   0  0  0  0  0  0  0  0  0  0  0  0
   20.5638  -21.6874  -14.8276 C   0  0  0  0  0  0  0  0  0  0  0  0
   20.7592  -21.1181  -13.4511 C   0  0  2  0  0  0  0  0  0  0  0  0
   22.0832  -21.5231  -12.8584 C   0  0  0  0  0  0  0  0  0  0  0  0
   22.2468  -23.0027  -12.7343 C   0  0  2  0  0  0  0  0  0  0  0  0
   22.2393  -20.7822  -11.5461 N   0  0  0  0  0  0  0  0  0  0  0  0
   23.5311  -21.0758  -10.9590 C   0  0  0  0  0  0  0  0  0  0  0  0
   21.1810  -21.2449  -10.6323 O   0  0  0  0  0  0  0  0  0  0  0  0
   19.9483  -20.6186  -10.6587 O   0  0  0  0  0  0  0  0  0  0  0  0
  2  1  1  0
  3  2  2  0
  4  2  1  0
  5  4  1  0
  6  5  1  0
  7  6  1  0
  7  8  1  0
  8  9  1  6
 10  8  1  0
 11 10  2  0
 12 10  1  0
 13 12  1  0
 13 24  1  0
 13 14  1  6
 15 23  1  0
 15 14  1  0
 16 15  2  0
 17 16  1  0
 17 18  1  0
 18 23  2  0
 19 18  1  0
 19 20  2  0
 20 21  1  0
 21 22  2  0
 23 22  1  0
 24 31  1  0
 25 24  2  0
 26 27  1  0
 28 29  1  6
 28 27  1  0
 30 28  1  0
 30 32  1  0
 30 31  1  1
 32 34  2  0
 32 33  1  0
M  END
$$$$
