RWI.pdb
     RDKit          3D

 34 35  0  0  1  0  0  0  0  0999 V2000
   19.8647  -23.8728   -8.4770 N   0  0  0  0  0  0  0  0  0  0  0  0
   18.8839  -24.5455   -9.2616 C   0  0  0  0  0  0  0  0  0  0  0  0
   18.1993  -25.5256   -8.7795 N   0  0  0  0  0  0  0  0  0  0  0  0
   18.6551  -24.1274  -10.6142 N   0  0  0  0  0  0  0  0  0  0  0  0
   19.2857  -22.9387  -11.1546 C   0  0  0  0  0  0  0  0  0  0  0  0
   20.7558  -23.1568  -11.2087 C   0  0  0  0  0  0  0  0  0  0  0  0
   21.5773  -22.0768  -11.7989 C   0  0  0  0  0  0  0  0  0  0  0  0
   22.0264  -20.9844  -10.8974 C   0  0  2  0  0  0  0  0  0  0  0  0
   21.0762  -19.9145  -10.8373 N   0  0  0  0  0  0  0  0  0  0  0  0
   23.3684  -20.4567  -11.2190 C   0  0  0  0  0  0  0  0  0  0  0  0
   23.5668  -19.2913  -11.6448 O   0  0  0  0  0  0  0  0  0  0  0  0
   17.5011  -26.0392   -9.3257 N   0  0  0  0  0  0  0  0  0  0  0  0
   24.5051  -21.2809  -11.0498 C   0  0  2  0  0  0  0  0  0  0  0  0
   25.8421  -20.9175  -11.4133 C   0  0  0  0  0  0  0  0  0  0  0  0
   26.9143  -21.3934  -10.4813 C   0  0  0  0  0  0  0  0  0  0  0  0
   26.9656  -20.5641   -9.2746 C   0  0  0  0  0  0  0  0  0  0  0  0
   26.0104  -19.7334   -8.7181 N   0  0  0  0  0  0  0  0  0  0  0  0
   26.5126  -19.1770   -7.6048 C   0  0  0  0  0  0  0  0  0  0  0  0
   27.7682  -19.5921   -7.3781 C   0  0  0  0  0  0  0  0  0  0  0  0
   28.6725  -19.2991   -6.3729 C   0  0  0  0  0  0  0  0  0  0  0  0
   29.9241  -19.8996   -6.4078 C   0  0  0  0  0  0  0  0  0  0  0  0
   30.2486  -20.7597   -7.4147 C   0  0  0  0  0  0  0  0  0  0  0  0
   29.3134  -21.0321   -8.4108 C   0  0  0  0  0  0  0  0  0  0  0  0
   28.0609  -20.4548   -8.4094 C   0  0  0  0  0  0  0  0  0  0  0  0
   26.1668  -21.2931  -12.8202 O   0  0  0  0  0  0  0  0  0  0  0  0
   25.7493  -22.3770  -13.2915 C   0  0  0  0  0  0  0  0  0  0  0  0
   27.7314  -18.1276  -17.9271 C   0  0  0  0  0  0  0  0  0  0  0  0
   27.2969  -19.3805  -17.2209 C   0  0  2  0  0  0  0  0  0  0  0  0
   27.3634  -19.2334  -15.7236 C   0  0  0  0  0  0  0  0  0  0  0  0
   28.6941  -18.7622  -15.2351 C   0  0  2  0  0  0  0  0  0  0  0  0
   26.9253  -20.5510  -15.1175 N   0  0  0  0  0  0  0  0  0  0  0  0
   26.9431  -20.4644  -13.6713 C   0  0  0  0  0  0  0  0  0  0  0  0
   27.8769  -21.5896  -15.5474 O   0  0  0  0  0  0  0  0  0  0  0  0
   27.7573  -22.1282  -16.8156 O   0  0  0  0  0  0  0  0  0  0  0  0
  2  1  1  0
  3  2  2  0
  4  2  1  0
  5  4  1  0
  6  5  1  0
  7  6  1  0
  7  8  1  0
  8  9  1  6
 10  8  1  0
 11 10  2  0
 12 10  1  0
 13 12  1  0
 13 24  1  0
 13 14  1  1
 15 23  1  0
 15 14  1  0
 16 15  2  0
 17 16  1  0
 17 18  1  0
 18 23  2  0
 19 18  1  0
 19 20  2  0
 20 21  1  0
 21 22  2  0
 23 22  1  0
 24 31  1  0
 25 24  2  0
 26 27  1  0
 28 29  1  1
 28 27  1  0
 30 28  1  0
 30 32  1  0
 30 31  1  6
 32 34  2  0
 32 33  1  0
M  END
$$$$
