RWI.pdb
     RDKit          3D

 34 35  0  0  1  0  0  0  0  0999 V2000
   23.0776  -17.7410  -16.8616 N   0  0  0  0  0  0  0  0  0  0  0  0
   24.2583  -18.4601  -17.2064 C   0  0  0  0  0  0  0  0  0  0  0  0
   24.9897  -18.1041  -18.2064 N   0  0  0  0  0  0  0  0  0  0  0  0
   24.6399  -19.6032  -16.4290 N   0  0  0  0  0  0  0  0  0  0  0  0
   23.8326  -20.0637  -15.3159 C   0  0  0  0  0  0  0  0  0  0  0  0
   24.2056  -19.2924  -14.1002 C   0  0  0  0  0  0  0  0  0  0  0  0
   24.2924  -20.0404  -12.8264 C   0  0  0  0  0  0  0  0  0  0  0  0
   25.6459  -20.2852  -12.2643 C   0  0  2  0  0  0  0  0  0  0  0  0
   26.5401  -20.8331  -13.2396 N   0  0  0  0  0  0  0  0  0  0  0  0
   25.6458  -21.1214  -11.0462 C   0  0  0  0  0  0  0  0  0  0  0  0
   26.3435  -22.1591  -10.9226 O   0  0  0  0  0  0  0  0  0  0  0  0
   25.8444  -18.6006  -18.4760 N   0  0  0  0  0  0  0  0  0  0  0  0
   24.8297  -20.7617   -9.9487 C   0  0  1  0  0  0  0  0  0  0  0  0
   24.6945  -21.5240   -8.7435 C   0  0  0  0  0  0  0  0  0  0  0  0
   25.9672  -21.7724   -7.9929 C   0  0  0  0  0  0  0  0  0  0  0  0
   26.5643  -20.5125   -7.5429 C   0  0  0  0  0  0  0  0  0  0  0  0
   26.4094  -19.2258   -8.0252 N   0  0  0  0  0  0  0  0  0  0  0  0
   27.1601  -18.3916   -7.2892 C   0  0  0  0  0  0  0  0  0  0  0  0
   27.8199  -19.0533   -6.3264 C   0  0  0  0  0  0  0  0  0  0  0  0
   28.6940  -18.6266   -5.3425 C   0  0  0  0  0  0  0  0  0  0  0  0
   29.2258  -19.5678   -4.4710 C   0  0  0  0  0  0  0  0  0  0  0  0
   28.8891  -20.8838   -4.5877 C   0  0  0  0  0  0  0  0  0  0  0  0
   28.0057  -21.2784   -5.5902 C   0  0  0  0  0  0  0  0  0  0  0  0
   27.4575  -20.3726   -6.4739 C   0  0  0  0  0  0  0  0  0  0  0  0
   23.6517  -20.9642   -7.8351 O   0  0  0  0  0  0  0  0  0  0  0  0
   23.5730  -19.7254   -7.6599 C   0  0  0  0  0  0  0  0  0  0  0  0
   19.3353  -24.0354   -8.4056 C   0  0  0  0  0  0  0  0  0  0  0  0
   20.3747  -23.3867   -7.5361 C   0  0  2  0  0  0  0  0  0  0  0  0
   20.3495  -21.8855   -7.6551 C   0  0  0  0  0  0  0  0  0  0  0  0
   20.4820  -21.4025   -9.0624 C   0  0  1  0  0  0  0  0  0  0  0  0
   21.4101  -21.3378   -6.7220 N   0  0  0  0  0  0  0  0  0  0  0  0
   22.7226  -21.7840   -7.1435 C   0  0  0  0  0  0  0  0  0  0  0  0
   21.1391  -21.8550   -5.3699 O   0  0  0  0  0  0  0  0  0  0  0  0
   22.0288  -22.7477   -4.8004 O   0  0  0  0  0  0  0  0  0  0  0  0
  2  1  1  0
  3  2  2  0
  4  2  1  0
  5  4  1  0
  6  5  1  0
  7  6  1  0
  7  8  1  0
  8  9  1  6
 10  8  1  0
 11 10  2  0
 12 10  1  0
 13 12  1  0
 13 24  1  0
 13 14  1  6
 15 23  1  0
 15 14  1  0
 16 15  2  0
 17 16  1  0
 17 18  1  0
 18 23  2  0
 19 18  1  0
 19 20  2  0
 20 21  1  0
 21 22  2  0
 23 22  1  0
 24 31  1  0
 25 24  2  0
 26 27  1  0
 28 29  1  1
 28 27  1  0
 30 28  1  0
 30 32  1  0
 30 31  1  6
 32 34  2  0
 32 33  1  0
M  END
$$$$
