RWI.pdb
     RDKit          3D

 34 35  0  0  1  0  0  0  0  0999 V2000
   29.8499  -24.8102  -19.6062 N   0  0  0  0  0  0  0  0  0  0  0  0
   28.5588  -24.6668  -20.1915 C   0  0  0  0  0  0  0  0  0  0  0  0
   28.2610  -25.2460  -21.3039 N   0  0  0  0  0  0  0  0  0  0  0  0
   27.5719  -23.8608  -19.5333 N   0  0  0  0  0  0  0  0  0  0  0  0
   27.8777  -23.1375  -18.3142 C   0  0  0  0  0  0  0  0  0  0  0  0
   27.7762  -24.0726  -17.1622 C   0  0  0  0  0  0  0  0  0  0  0  0
   26.8542  -23.6975  -16.0673 C   0  0  0  0  0  0  0  0  0  0  0  0
   27.0193  -22.3510  -15.4611 C   0  0  2  0  0  0  0  0  0  0  0  0
   28.3987  -21.9991  -15.3049 N   0  0  0  0  0  0  0  0  0  0  0  0
   26.3013  -22.1787  -14.1813 C   0  0  0  0  0  0  0  0  0  0  0  0
   25.0971  -22.4982  -14.0182 O   0  0  0  0  0  0  0  0  0  0  0  0
   27.3395  -25.1657  -21.7445 N   0  0  0  0  0  0  0  0  0  0  0  0
   26.9765  -21.6289  -13.0669 C   0  0  1  0  0  0  0  0  0  0  0  0
   26.3854  -21.3981  -11.7828 C   0  0  0  0  0  0  0  0  0  0  0  0
   27.3364  -20.9850  -10.7013 C   0  0  0  0  0  0  0  0  0  0  0  0
   26.6157  -20.6427   -9.4725 C   0  0  0  0  0  0  0  0  0  0  0  0
   25.2578  -20.5880   -9.2169 N   0  0  0  0  0  0  0  0  0  0  0  0
   25.0696  -20.2245   -7.9387 C   0  0  0  0  0  0  0  0  0  0  0  0
   26.2397  -20.0291   -7.3120 C   0  0  0  0  0  0  0  0  0  0  0  0
   26.5438  -19.6557   -6.0150 C   0  0  0  0  0  0  0  0  0  0  0  0
   27.8789  -19.5358   -5.6526 C   0  0  0  0  0  0  0  0  0  0  0  0
   28.8651  -19.7826   -6.5612 C   0  0  0  0  0  0  0  0  0  0  0  0
   28.5227  -20.1567   -7.8588 C   0  0  0  0  0  0  0  0  0  0  0  0
   27.2082  -20.2861   -8.2552 C   0  0  0  0  0  0  0  0  0  0  0  0
   25.2314  -20.4551  -11.8535 O   0  0  0  0  0  0  0  0  0  0  0  0
   25.4351  -19.2220  -11.9495 C   0  0  0  0  0  0  0  0  0  0  0  0
   23.1588  -19.5424  -15.7914 C   0  0  0  0  0  0  0  0  0  0  0  0
   23.4456  -19.4870  -14.3177 C   0  0  2  0  0  0  0  0  0  0  0  0
   22.3313  -20.0926  -13.5054 C   0  0  0  0  0  0  0  0  0  0  0  0
   20.9989  -19.4746  -13.7774 C   0  0  2  0  0  0  0  0  0  0  0  0
   22.7446  -20.0297  -12.0491 N   0  0  0  0  0  0  0  0  0  0  0  0
   23.8829  -20.8955  -11.8166 C   0  0  0  0  0  0  0  0  0  0  0  0
   21.6115  -20.4978  -11.2328 O   0  0  0  0  0  0  0  0  0  0  0  0
   20.9056  -19.5822  -10.4739 O   0  0  0  0  0  0  0  0  0  0  0  0
  2  1  1  0
  3  2  2  0
  4  2  1  0
  5  4  1  0
  6  5  1  0
  7  6  1  0
  7  8  1  0
  8  9  1  1
 10  8  1  0
 11 10  2  0
 12 10  1  0
 13 12  1  0
 13 24  1  0
 13 14  1  1
 15 23  1  0
 15 14  1  0
 16 15  2  0
 17 16  1  0
 17 18  1  0
 18 23  2  0
 19 18  1  0
 19 20  2  0
 20 21  1  0
 21 22  2  0
 23 22  1  0
 24 31  1  0
 25 24  2  0
 26 27  1  0
 28 29  1  1
 28 27  1  0
 30 28  1  0
 30 32  1  0
 30 31  1  1
 32 34  2  0
 32 33  1  0
M  END
$$$$
