RWI.pdb
     RDKit          3D

 34 35  0  0  1  0  0  0  0  0999 V2000
   20.4024  -19.1001  -14.7716 N   0  0  0  0  0  0  0  0  0  0  0  0
   20.9757  -19.6621  -15.9487 C   0  0  0  0  0  0  0  0  0  0  0  0
   20.4424  -19.4745  -17.1072 N   0  0  0  0  0  0  0  0  0  0  0  0
   22.1668  -20.4540  -15.8439 N   0  0  0  0  0  0  0  0  0  0  0  0
   22.8085  -20.6879  -14.5647 C   0  0  0  0  0  0  0  0  0  0  0  0
   23.5156  -19.4477  -14.1479 C   0  0  0  0  0  0  0  0  0  0  0  0
   24.1930  -19.4664  -12.8325 C   0  0  0  0  0  0  0  0  0  0  0  0
   25.3906  -20.3341  -12.6887 C   0  0  2  0  0  0  0  0  0  0  0  0
   25.3611  -21.4426  -13.5951 N   0  0  0  0  0  0  0  0  0  0  0  0
   25.6230  -20.8097  -11.3093 C   0  0  0  0  0  0  0  0  0  0  0  0
   25.1511  -21.8850  -10.8624 O   0  0  0  0  0  0  0  0  0  0  0  0
   20.7856  -19.9293  -17.9587 N   0  0  0  0  0  0  0  0  0  0  0  0
   26.4111  -20.0375  -10.4246 C   0  0  2  0  0  0  0  0  0  0  0  0
   26.6517  -20.3578   -9.0495 C   0  0  0  0  0  0  0  0  0  0  0  0
   27.8481  -19.6979   -8.4347 C   0  0  0  0  0  0  0  0  0  0  0  0
   28.1553  -20.2834   -7.1273 C   0  0  0  0  0  0  0  0  0  0  0  0
   28.3394  -21.6034   -6.7586 N   0  0  0  0  0  0  0  0  0  0  0  0
   28.6033  -21.6554   -5.4437 C   0  0  0  0  0  0  0  0  0  0  0  0
   28.6072  -20.4288   -4.9001 C   0  0  0  0  0  0  0  0  0  0  0  0
   28.8277  -19.9905   -3.6065 C   0  0  0  0  0  0  0  0  0  0  0  0
   28.7663  -18.6279   -3.3459 C   0  0  0  0  0  0  0  0  0  0  0  0
   28.4939  -17.7454   -4.3489 C   0  0  0  0  0  0  0  0  0  0  0  0
   28.2771  -18.2218   -5.6401 C   0  0  0  0  0  0  0  0  0  0  0  0
   28.3300  -19.5674   -5.9369 C   0  0  0  0  0  0  0  0  0  0  0  0
   25.4432  -20.1463   -8.2004 O   0  0  0  0  0  0  0  0  0  0  0  0
   24.8689  -19.0321   -8.1947 C   0  0  0  0  0  0  0  0  0  0  0  0
   20.5605  -23.1244   -6.1604 C   0  0  0  0  0  0  0  0  0  0  0  0
   21.5209  -21.9758   -6.0347 C   0  0  2  0  0  0  0  0  0  0  0  0
   22.8291  -22.2592   -6.7250 C   0  0  0  0  0  0  0  0  0  0  0  0
   23.4981  -23.5018   -6.2354 C   0  0  2  0  0  0  0  0  0  0  0  0
   23.6874  -21.0171   -6.5997 N   0  0  0  0  0  0  0  0  0  0  0  0
   24.8990  -21.1681   -7.3799 C   0  0  0  0  0  0  0  0  0  0  0  0
   24.0480  -20.8531   -5.1811 O   0  0  0  0  0  0  0  0  0  0  0  0
   25.3004  -21.2557   -4.7546 O   0  0  0  0  0  0  0  0  0  0  0  0
  2  1  1  0
  3  2  2  0
  4  2  1  0
  5  4  1  0
  6  5  1  0
  7  6  1  0
  7  8  1  0
  8  9  1  6
 10  8  1  0
 11 10  2  0
 12 10  1  0
 13 12  1  0
 13 24  1  0
 13 14  1  6
 15 23  1  0
 15 14  1  0
 16 15  2  0
 17 16  1  0
 17 18  1  0
 18 23  2  0
 19 18  1  0
 19 20  2  0
 20 21  1  0
 21 22  2  0
 23 22  1  0
 24 31  1  0
 25 24  2  0
 26 27  1  0
 28 29  1  6
 28 27  1  0
 30 28  1  0
 30 32  1  0
 30 31  1  1
 32 34  2  0
 32 33  1  0
M  END
$$$$
