RWI.pdb
     RDKit          3D

 34 35  0  0  1  0  0  0  0  0999 V2000
   26.7059  -21.6952  -19.2192 N   0  0  0  0  0  0  0  0  0  0  0  0
   28.0221  -22.1176  -19.5649 C   0  0  0  0  0  0  0  0  0  0  0  0
   28.2538  -22.7520  -20.6629 N   0  0  0  0  0  0  0  0  0  0  0  0
   29.1100  -21.8350  -18.6742 N   0  0  0  0  0  0  0  0  0  0  0  0
   28.9068  -21.0933  -17.4447 C   0  0  0  0  0  0  0  0  0  0  0  0
   27.9730  -21.8546  -16.5729 C   0  0  0  0  0  0  0  0  0  0  0  0
   28.2343  -21.8264  -15.1167 C   0  0  0  0  0  0  0  0  0  0  0  0
   27.7327  -20.6560  -14.3511 C   0  0  2  0  0  0  0  0  0  0  0  0
   28.7617  -19.6877  -14.1171 N   0  0  0  0  0  0  0  0  0  0  0  0
   27.0693  -21.0120  -13.0799 C   0  0  0  0  0  0  0  0  0  0  0  0
   26.0876  -21.7932  -13.0100 O   0  0  0  0  0  0  0  0  0  0  0  0
   29.1740  -23.1337  -20.9021 N   0  0  0  0  0  0  0  0  0  0  0  0
   27.5398  -20.4615  -11.8651 C   0  0  1  0  0  0  0  0  0  0  0  0
   26.9568  -20.6980  -10.5782 C   0  0  0  0  0  0  0  0  0  0  0  0
   27.7996  -20.2965   -9.4063 C   0  0  0  0  0  0  0  0  0  0  0  0
   27.0808  -20.5079   -8.1473 C   0  0  0  0  0  0  0  0  0  0  0  0
   25.8432  -21.0763   -7.9076 N   0  0  0  0  0  0  0  0  0  0  0  0
   25.6015  -21.0528   -6.5877 C   0  0  0  0  0  0  0  0  0  0  0  0
   26.6201  -20.4932   -5.9172 C   0  0  0  0  0  0  0  0  0  0  0  0
   26.8216  -20.2563   -4.5691 C   0  0  0  0  0  0  0  0  0  0  0  0
   28.0046  -19.6487   -4.1697 C   0  0  0  0  0  0  0  0  0  0  0  0
   28.9444  -19.2955   -5.0923 C   0  0  0  0  0  0  0  0  0  0  0  0
   28.7083  -19.5490   -6.4418 C   0  0  0  0  0  0  0  0  0  0  0  0
   27.5458  -20.1505   -6.8760 C   0  0  0  0  0  0  0  0  0  0  0  0
   25.5880  -20.1158  -10.4626 O   0  0  0  0  0  0  0  0  0  0  0  0
   25.4431  -18.9203  -10.1144 C   0  0  0  0  0  0  0  0  0  0  0  0
   23.4639  -19.6277  -14.6950 C   0  0  0  0  0  0  0  0  0  0  0  0
   23.6758  -19.5033  -13.2128 C   0  0  2  0  0  0  0  0  0  0  0  0
   22.7447  -20.3959  -12.4353 C   0  0  0  0  0  0  0  0  0  0  0  0
   21.3015  -20.1293  -12.7138 C   0  0  2  0  0  0  0  0  0  0  0  0
   23.1141  -20.2725  -10.9711 N   0  0  0  0  0  0  0  0  0  0  0  0
   24.4145  -20.8660  -10.7339 C   0  0  0  0  0  0  0  0  0  0  0  0
   22.1043  -20.9995  -10.1832 O   0  0  0  0  0  0  0  0  0  0  0  0
   22.3583  -22.3054   -9.8052 O   0  0  0  0  0  0  0  0  0  0  0  0
  2  1  1  0
  3  2  2  0
  4  2  1  0
  5  4  1  0
  6  5  1  0
  7  6  1  0
  7  8  1  0
  8  9  1  1
 10  8  1  0
 11 10  2  0
 12 10  1  0
 13 12  1  0
 13 24  1  0
 13 14  1  1
 15 23  1  0
 15 14  1  0
 16 15  2  0
 17 16  1  0
 17 18  1  0
 18 23  2  0
 19 18  1  0
 19 20  2  0
 20 21  1  0
 21 22  2  0
 23 22  1  0
 24 31  1  0
 25 24  2  0
 26 27  1  0
 28 29  1  1
 28 27  1  0
 30 28  1  0
 30 32  1  0
 30 31  1  1
 32 34  2  0
 32 33  1  0
M  END
$$$$
