RWI.pdb
     RDKit          3D

 34 35  0  0  1  0  0  0  0  0999 V2000
   25.9648  -20.5046  -18.6387 N   0  0  0  0  0  0  0  0  0  0  0  0
   24.6274  -20.8208  -18.2628 C   0  0  0  0  0  0  0  0  0  0  0  0
   23.8435  -21.4639  -19.0589 N   0  0  0  0  0  0  0  0  0  0  0  0
   24.1417  -20.4141  -16.9761 N   0  0  0  0  0  0  0  0  0  0  0  0
   24.9728  -19.6582  -16.0592 C   0  0  0  0  0  0  0  0  0  0  0  0
   26.1128  -20.5110  -15.6293 C   0  0  0  0  0  0  0  0  0  0  0  0
   25.9934  -21.1873  -14.3186 C   0  0  0  0  0  0  0  0  0  0  0  0
   25.8655  -20.3296  -13.1120 C   0  0  2  0  0  0  0  0  0  0  0  0
   26.9608  -19.4155  -12.9858 N   0  0  0  0  0  0  0  0  0  0  0  0
   25.6863  -21.0866  -11.8559 C   0  0  0  0  0  0  0  0  0  0  0  0
   24.8375  -22.0028  -11.7185 O   0  0  0  0  0  0  0  0  0  0  0  0
   22.8659  -21.6699  -18.8318 N   0  0  0  0  0  0  0  0  0  0  0  0
   26.4952  -20.7872  -10.7351 C   0  0  2  0  0  0  0  0  0  0  0  0
   26.3934  -21.4259   -9.4571 C   0  0  0  0  0  0  0  0  0  0  0  0
   27.6252  -21.3635   -8.6064 C   0  0  0  0  0  0  0  0  0  0  0  0
   27.5713  -20.2220   -7.6896 C   0  0  0  0  0  0  0  0  0  0  0  0
   26.9310  -19.0028   -7.8147 N   0  0  0  0  0  0  0  0  0  0  0  0
   27.1672  -18.2720   -6.7141 C   0  0  0  0  0  0  0  0  0  0  0  0
   27.9404  -18.9396   -5.8444 C   0  0  0  0  0  0  0  0  0  0  0  0
   28.4361  -18.6014   -4.5977 C   0  0  0  0  0  0  0  0  0  0  0  0
   29.2245  -19.5236   -3.9223 C   0  0  0  0  0  0  0  0  0  0  0  0
   29.5004  -20.7360   -4.4818 C   0  0  0  0  0  0  0  0  0  0  0  0
   28.9847  -21.0434   -5.7390 C   0  0  0  0  0  0  0  0  0  0  0  0
   28.1982  -20.1532   -6.4396 C   0  0  0  0  0  0  0  0  0  0  0  0
   25.2018  -20.9632   -8.6876 O   0  0  0  0  0  0  0  0  0  0  0  0
   24.9092  -19.7446   -8.6589 C   0  0  0  0  0  0  0  0  0  0  0  0
   20.0305  -23.6418   -6.4884 C   0  0  0  0  0  0  0  0  0  0  0  0
   20.8542  -22.4418   -6.8608 C   0  0  2  0  0  0  0  0  0  0  0  0
   22.2858  -22.8105   -7.1489 C   0  0  0  0  0  0  0  0  0  0  0  0
   22.9527  -23.5188   -6.0154 C   0  0  2  0  0  0  0  0  0  0  0  0
   23.0019  -21.5476   -7.5821 N   0  0  0  0  0  0  0  0  0  0  0  0
   24.3636  -21.8553   -7.9699 C   0  0  0  0  0  0  0  0  0  0  0  0
   23.0272  -20.6219   -6.4368 O   0  0  0  0  0  0  0  0  0  0  0  0
   24.1791  -20.5220   -5.6780 O   0  0  0  0  0  0  0  0  0  0  0  0
  2  1  1  0
  3  2  2  0
  4  2  1  0
  5  4  1  0
  6  5  1  0
  7  6  1  0
  7  8  1  0
  8  9  1  1
 10  8  1  0
 11 10  2  0
 12 10  1  0
 13 12  1  0
 13 24  1  0
 13 14  1  6
 15 23  1  0
 15 14  1  0
 16 15  2  0
 17 16  1  0
 17 18  1  0
 18 23  2  0
 19 18  1  0
 19 20  2  0
 20 21  1  0
 21 22  2  0
 23 22  1  0
 24 31  1  0
 25 24  2  0
 26 27  1  0
 28 29  1  6
 28 27  1  0
 30 28  1  0
 30 32  1  0
 30 31  1  1
 32 34  2  0
 32 33  1  0
M  END
$$$$
