RWI.pdb
     RDKit          3D

 34 35  0  0  1  0  0  0  0  0999 V2000
   26.3143  -17.5455  -18.9254 N   0  0  0  0  0  0  0  0  0  0  0  0
   25.0462  -17.8807  -18.3688 C   0  0  0  0  0  0  0  0  0  0  0  0
   23.9928  -17.1892  -18.6409 N   0  0  0  0  0  0  0  0  0  0  0  0
   24.9387  -19.0065  -17.4869 N   0  0  0  0  0  0  0  0  0  0  0  0
   26.0847  -19.8423  -17.1854 C   0  0  0  0  0  0  0  0  0  0  0  0
   26.7625  -19.3097  -15.9735 C   0  0  0  0  0  0  0  0  0  0  0  0
   26.2921  -19.8091  -14.6624 C   0  0  0  0  0  0  0  0  0  0  0  0
   27.0955  -20.8710  -14.0032 C   0  0  2  0  0  0  0  0  0  0  0  0
   27.2104  -22.0414  -14.8206 N   0  0  0  0  0  0  0  0  0  0  0  0
   26.6136  -21.2362  -12.6551 C   0  0  0  0  0  0  0  0  0  0  0  0
   25.6661  -22.0370  -12.4555 O   0  0  0  0  0  0  0  0  0  0  0  0
   23.0569  -17.4478  -18.3140 N   0  0  0  0  0  0  0  0  0  0  0  0
   27.2291  -20.6721  -11.5136 C   0  0  2  0  0  0  0  0  0  0  0  0
   26.7360  -20.7905  -10.1741 C   0  0  0  0  0  0  0  0  0  0  0  0
   27.6531  -20.2832   -9.1034 C   0  0  0  0  0  0  0  0  0  0  0  0
   27.0319  -20.4021   -7.7819 C   0  0  0  0  0  0  0  0  0  0  0  0
   25.8483  -21.0068   -7.4002 N   0  0  0  0  0  0  0  0  0  0  0  0
   25.6925  -20.8612   -6.0752 C   0  0  0  0  0  0  0  0  0  0  0  0
   26.7179  -20.1837   -5.5370 C   0  0  0  0  0  0  0  0  0  0  0  0
   26.9928  -19.8002   -4.2364 C   0  0  0  0  0  0  0  0  0  0  0  0
   28.1615  -19.0941   -3.9837 C   0  0  0  0  0  0  0  0  0  0  0  0
   29.0164  -18.7884   -5.0009 C   0  0  0  0  0  0  0  0  0  0  0  0
   28.7080  -19.1904   -6.2988 C   0  0  0  0  0  0  0  0  0  0  0  0
   27.5571  -19.8930   -6.5881 C   0  0  0  0  0  0  0  0  0  0  0  0
   25.3741  -20.2012  -10.0193 O   0  0  0  0  0  0  0  0  0  0  0  0
   25.2346  -18.9578   -9.9428 C   0  0  0  0  0  0  0  0  0  0  0  0
   22.3033  -20.4947  -13.6622 C   0  0  0  0  0  0  0  0  0  0  0  0
   22.8948  -20.1521  -12.3243 C   0  0  2  0  0  0  0  0  0  0  0  0
   22.1228  -20.7770  -11.1921 C   0  0  0  0  0  0  0  0  0  0  0  0
   20.6819  -20.3837  -11.1722 C   0  0  2  0  0  0  0  0  0  0  0  0
   22.8587  -20.4542   -9.9077 N   0  0  0  0  0  0  0  0  0  0  0  0
   24.2013  -20.9973   -9.9531 C   0  0  0  0  0  0  0  0  0  0  0  0
   22.1263  -21.0789   -8.7930 O   0  0  0  0  0  0  0  0  0  0  0  0
   22.6524  -22.2073   -8.1910 O   0  0  0  0  0  0  0  0  0  0  0  0
  2  1  1  0
  3  2  2  0
  4  2  1  0
  5  4  1  0
  6  5  1  0
  7  6  1  0
  7  8  1  0
  8  9  1  6
 10  8  1  0
 11 10  2  0
 12 10  1  0
 13 12  1  0
 13 24  1  0
 13 14  1  6
 15 23  1  0
 15 14  1  0
 16 15  2  0
 17 16  1  0
 17 18  1  0
 18 23  2  0
 19 18  1  0
 19 20  2  0
 20 21  1  0
 21 22  2  0
 23 22  1  0
 24 31  1  0
 25 24  2  0
 26 27  1  0
 28 29  1  1
 28 27  1  0
 30 28  1  0
 30 32  1  0
 30 31  1  1
 32 34  2  0
 32 33  1  0
M  END
$$$$
