RWI.pdb
     RDKit          3D

 34 35  0  0  1  0  0  0  0  0999 V2000
   22.8928  -28.0494  -15.8569 N   0  0  0  0  0  0  0  0  0  0  0  0
   22.6214  -27.1648  -14.7734 C   0  0  0  0  0  0  0  0  0  0  0  0
   22.1242  -27.5975  -13.6656 N   0  0  0  0  0  0  0  0  0  0  0  0
   22.9034  -25.7661  -14.9176 N   0  0  0  0  0  0  0  0  0  0  0  0
   23.7659  -25.2742  -15.9745 C   0  0  0  0  0  0  0  0  0  0  0  0
   25.1552  -25.7376  -15.7159 C   0  0  0  0  0  0  0  0  0  0  0  0
   26.1837  -24.6971  -15.4942 C   0  0  0  0  0  0  0  0  0  0  0  0
   25.7989  -23.2850  -15.7506 C   0  0  2  0  0  0  0  0  0  0  0  0
   26.1281  -22.8733  -17.0822 N   0  0  0  0  0  0  0  0  0  0  0  0
   26.3500  -22.3270  -14.7700 C   0  0  0  0  0  0  0  0  0  0  0  0
   27.5781  -22.0879  -14.6554 O   0  0  0  0  0  0  0  0  0  0  0  0
   21.9642  -26.9938  -12.8534 N   0  0  0  0  0  0  0  0  0  0  0  0
   25.4763  -21.6299  -13.9034 C   0  0  2  0  0  0  0  0  0  0  0  0
   25.8866  -20.6586  -12.9340 C   0  0  0  0  0  0  0  0  0  0  0  0
   25.3049  -19.2891  -13.1090 C   0  0  0  0  0  0  0  0  0  0  0  0
   25.6184  -18.7523  -14.4357 C   0  0  0  0  0  0  0  0  0  0  0  0
   24.7885  -18.2187  -15.4044 N   0  0  0  0  0  0  0  0  0  0  0  0
   25.5308  -17.8563  -16.4622 C   0  0  0  0  0  0  0  0  0  0  0  0
   26.8302  -18.1196  -16.2569 C   0  0  0  0  0  0  0  0  0  0  0  0
   27.9502  -17.9230  -17.0451 C   0  0  0  0  0  0  0  0  0  0  0  0
   29.1894  -18.3037  -16.5475 C   0  0  0  0  0  0  0  0  0  0  0  0
   29.2935  -18.8590  -15.3066 C   0  0  0  0  0  0  0  0  0  0  0  0
   28.1447  -19.0424  -14.5399 C   0  0  0  0  0  0  0  0  0  0  0  0
   26.8973  -18.6768  -15.0004 C   0  0  0  0  0  0  0  0  0  0  0  0
   25.6867  -21.1374  -11.5351 O   0  0  0  0  0  0  0  0  0  0  0  0
   24.9481  -22.1251  -11.3106 C   0  0  0  0  0  0  0  0  0  0  0  0
   27.3968  -19.7004   -5.7002 C   0  0  0  0  0  0  0  0  0  0  0  0
   26.5885  -20.4703   -6.7058 C   0  0  2  0  0  0  0  0  0  0  0  0
   26.8031  -19.9616   -8.1070 C   0  0  0  0  0  0  0  0  0  0  0  0
   26.4806  -18.5117   -8.2647 C   0  0  2  0  0  0  0  0  0  0  0  0
   26.0230  -20.8630   -9.0421 N   0  0  0  0  0  0  0  0  0  0  0  0
   26.3058  -20.5155  -10.4200 C   0  0  0  0  0  0  0  0  0  0  0  0
   24.5880  -20.6586   -8.7809 O   0  0  0  0  0  0  0  0  0  0  0  0
   23.8732  -19.7951   -9.5910 O   0  0  0  0  0  0  0  0  0  0  0  0
  2  1  1  0
  3  2  2  0
  4  2  1  0
  5  4  1  0
  6  5  1  0
  7  6  1  0
  7  8  1  0
  8  9  1  6
 10  8  1  0
 11 10  2  0
 12 10  1  0
 13 12  1  0
 13 24  1  0
 13 14  1  6
 15 23  1  0
 15 14  1  0
 16 15  2  0
 17 16  1  0
 17 18  1  0
 18 23  2  0
 19 18  1  0
 19 20  2  0
 20 21  1  0
 21 22  2  0
 23 22  1  0
 24 31  1  0
 25 24  2  0
 26 27  1  0
 28 29  1  6
 28 27  1  0
 30 28  1  0
 30 32  1  0
 30 31  1  1
 32 34  2  0
 32 33  1  0
M  END
$$$$
