RWI.pdb
     RDKit          3D

 34 35  0  0  1  0  0  0  0  0999 V2000
   29.9107  -20.1866  -18.3249 N   0  0  0  0  0  0  0  0  0  0  0  0
   29.6567  -21.1645  -19.3295 C   0  0  0  0  0  0  0  0  0  0  0  0
   30.4115  -21.2660  -20.3696 N   0  0  0  0  0  0  0  0  0  0  0  0
   28.5391  -22.0513  -19.1837 N   0  0  0  0  0  0  0  0  0  0  0  0
   27.7005  -22.0220  -18.0011 C   0  0  0  0  0  0  0  0  0  0  0  0
   28.3829  -22.7665  -16.9094 C   0  0  0  0  0  0  0  0  0  0  0  0
   27.6578  -22.8980  -15.6262 C   0  0  0  0  0  0  0  0  0  0  0  0
   26.6096  -21.8896  -15.3228 C   0  0  2  0  0  0  0  0  0  0  0  0
   27.0972  -20.5505  -15.4644 N   0  0  0  0  0  0  0  0  0  0  0  0
   25.9764  -22.0642  -13.9993 C   0  0  0  0  0  0  0  0  0  0  0  0
   25.4714  -23.1484  -13.6145 O   0  0  0  0  0  0  0  0  0  0  0  0
   30.1700  -21.8465  -21.1786 N   0  0  0  0  0  0  0  0  0  0  0  0
   25.9203  -20.9745  -13.0995 C   0  0  1  0  0  0  0  0  0  0  0  0
   25.0609  -20.8994  -11.9561 C   0  0  0  0  0  0  0  0  0  0  0  0
   25.5830  -20.0869  -10.8107 C   0  0  0  0  0  0  0  0  0  0  0  0
   26.8881  -20.5839  -10.3679 C   0  0  0  0  0  0  0  0  0  0  0  0
   27.8332  -21.3384  -11.0385 N   0  0  0  0  0  0  0  0  0  0  0  0
   28.8778  -21.5524  -10.2235 C   0  0  0  0  0  0  0  0  0  0  0  0
   28.6861  -20.9769   -9.0268 C   0  0  0  0  0  0  0  0  0  0  0  0
   29.4705  -20.9254   -7.8883 C   0  0  0  0  0  0  0  0  0  0  0  0
   28.9929  -20.2360   -6.7816 C   0  0  0  0  0  0  0  0  0  0  0  0
   27.7751  -19.6243   -6.8227 C   0  0  0  0  0  0  0  0  0  0  0  0
   27.0115  -19.6963   -7.9859 C   0  0  0  0  0  0  0  0  0  0  0  0
   27.4527  -20.3716   -9.1044 C   0  0  0  0  0  0  0  0  0  0  0  0
   23.6784  -20.4688  -12.3161 O   0  0  0  0  0  0  0  0  0  0  0  0
   23.4589  -19.2801  -12.6477 C   0  0  0  0  0  0  0  0  0  0  0  0
   21.5929  -22.4820  -16.2113 C   0  0  0  0  0  0  0  0  0  0  0  0
   21.8468  -21.6115  -15.0133 C   0  0  2  0  0  0  0  0  0  0  0  0
   20.8322  -21.8438  -13.9248 C   0  0  0  0  0  0  0  0  0  0  0  0
   19.4252  -21.6133  -14.3702 C   0  0  2  0  0  0  0  0  0  0  0  0
   21.2397  -20.9979  -12.7358 N   0  0  0  0  0  0  0  0  0  0  0  0
   22.5738  -21.3595  -12.3012 C   0  0  0  0  0  0  0  0  0  0  0  0
   20.2906  -21.2627  -11.6410 O   0  0  0  0  0  0  0  0  0  0  0  0
   19.2061  -20.4212  -11.4728 O   0  0  0  0  0  0  0  0  0  0  0  0
  2  1  1  0
  3  2  2  0
  4  2  1  0
  5  4  1  0
  6  5  1  0
  7  6  1  0
  7  8  1  0
  8  9  1  1
 10  8  1  0
 11 10  2  0
 12 10  1  0
 13 12  1  0
 13 24  1  0
 13 14  1  1
 15 23  1  0
 15 14  1  0
 16 15  2  0
 17 16  1  0
 17 18  1  0
 18 23  2  0
 19 18  1  0
 19 20  2  0
 20 21  1  0
 21 22  2  0
 23 22  1  0
 24 31  1  0
 25 24  2  0
 26 27  1  0
 28 29  1  1
 28 27  1  0
 30 28  1  0
 30 32  1  0
 30 31  1  6
 32 34  2  0
 32 33  1  0
M  END
$$$$
