RWI.pdb
     RDKit          3D

 34 35  0  0  1  0  0  0  0  0999 V2000
   30.2301  -21.4643  -20.0832 N   0  0  0  0  0  0  0  0  0  0  0  0
   29.0581  -21.9960  -20.6945 C   0  0  0  0  0  0  0  0  0  0  0  0
   29.0389  -22.3067  -21.9455 N   0  0  0  0  0  0  0  0  0  0  0  0
   27.8759  -22.1869  -19.9053 N   0  0  0  0  0  0  0  0  0  0  0  0
   27.7655  -21.6421  -18.5660 C   0  0  0  0  0  0  0  0  0  0  0  0
   28.1848  -22.6814  -17.5883 C   0  0  0  0  0  0  0  0  0  0  0  0
   27.4934  -22.6959  -16.2801 C   0  0  0  0  0  0  0  0  0  0  0  0
   27.8724  -21.6538  -15.2911 C   0  0  2  0  0  0  0  0  0  0  0  0
   29.2733  -21.6805  -14.9947 N   0  0  0  0  0  0  0  0  0  0  0  0
   27.0860  -21.7008  -14.0411 C   0  0  0  0  0  0  0  0  0  0  0  0
   25.8599  -21.9735  -14.0081 O   0  0  0  0  0  0  0  0  0  0  0  0
   28.1928  -22.6253  -22.4273 N   0  0  0  0  0  0  0  0  0  0  0  0
   27.7171  -21.4293  -12.8049 C   0  0  2  0  0  0  0  0  0  0  0  0
   27.0421  -21.3251  -11.5459 C   0  0  0  0  0  0  0  0  0  0  0  0
   27.9099  -20.9671  -10.3781 C   0  0  0  0  0  0  0  0  0  0  0  0
   27.1063  -20.7723   -9.1686 C   0  0  0  0  0  0  0  0  0  0  0  0
   25.7405  -20.8701   -8.9760 N   0  0  0  0  0  0  0  0  0  0  0  0
   25.4620  -20.6035   -7.6904 C   0  0  0  0  0  0  0  0  0  0  0  0
   26.5780  -20.3283   -6.9985 C   0  0  0  0  0  0  0  0  0  0  0  0
   26.7868  -20.0033   -5.6700 C   0  0  0  0  0  0  0  0  0  0  0  0
   28.0859  -19.7708   -5.2379 C   0  0  0  0  0  0  0  0  0  0  0  0
   29.1298  -19.8628   -6.1102 C   0  0  0  0  0  0  0  0  0  0  0  0
   28.8831  -20.1923   -7.4412 C   0  0  0  0  0  0  0  0  0  0  0  0
   27.6069  -20.4302   -7.9066 C   0  0  0  0  0  0  0  0  0  0  0  0
   25.8566  -20.4217  -11.6136 O   0  0  0  0  0  0  0  0  0  0  0  0
   26.0181  -19.1810  -11.6900 C   0  0  0  0  0  0  0  0  0  0  0  0
   22.0714  -18.4397  -15.0557 C   0  0  0  0  0  0  0  0  0  0  0  0
   22.1415  -18.8864  -13.6229 C   0  0  2  0  0  0  0  0  0  0  0  0
   23.2726  -19.8534  -13.3906 C   0  0  0  0  0  0  0  0  0  0  0  0
   23.1532  -21.1060  -14.1956 C   0  0  2  0  0  0  0  0  0  0  0  0
   23.3633  -20.0964  -11.8979 N   0  0  0  0  0  0  0  0  0  0  0  0
   24.5241  -20.9091  -11.5953 C   0  0  0  0  0  0  0  0  0  0  0  0
   22.1500  -20.8186  -11.4788 O   0  0  0  0  0  0  0  0  0  0  0  0
   21.0886  -20.1032  -10.9551 O   0  0  0  0  0  0  0  0  0  0  0  0
  2  1  1  0
  3  2  2  0
  4  2  1  0
  5  4  1  0
  6  5  1  0
  7  6  1  0
  7  8  1  0
  8  9  1  1
 10  8  1  0
 11 10  2  0
 12 10  1  0
 13 12  1  0
 13 24  1  0
 13 14  1  1
 15 23  1  0
 15 14  1  0
 16 15  2  0
 17 16  1  0
 17 18  1  0
 18 23  2  0
 19 18  1  0
 19 20  2  0
 20 21  1  0
 21 22  2  0
 23 22  1  0
 24 31  1  0
 25 24  2  0
 26 27  1  0
 28 29  1  1
 28 27  1  0
 30 28  1  0
 30 32  1  0
 30 31  1  1
 32 34  2  0
 32 33  1  0
M  END
$$$$
