RWI.pdb
     RDKit          3D

 34 35  0  0  1  0  0  0  0  0999 V2000
   28.9736  -23.5438  -21.5426 N   0  0  0  0  0  0  0  0  0  0  0  0
   27.9205  -22.6318  -21.8416 C   0  0  0  0  0  0  0  0  0  0  0  0
   27.4334  -22.5399  -23.0315 N   0  0  0  0  0  0  0  0  0  0  0  0
   27.3936  -21.7976  -20.8007 N   0  0  0  0  0  0  0  0  0  0  0  0
   27.8963  -21.8754  -19.4427 C   0  0  0  0  0  0  0  0  0  0  0  0
   27.3112  -23.0722  -18.7815 C   0  0  0  0  0  0  0  0  0  0  0  0
   26.3878  -22.8345  -17.6500 C   0  0  0  0  0  0  0  0  0  0  0  0
   26.9497  -22.9120  -16.2766 C   0  0  2  0  0  0  0  0  0  0  0  0
   27.5503  -24.1855  -16.0145 N   0  0  0  0  0  0  0  0  0  0  0  0
   25.9799  -22.5774  -15.2134 C   0  0  0  0  0  0  0  0  0  0  0  0
   25.2899  -23.4395  -14.6137 O   0  0  0  0  0  0  0  0  0  0  0  0
   26.6763  -21.8941  -23.2751 N   0  0  0  0  0  0  0  0  0  0  0  0
   25.7967  -21.2284  -14.8305 C   0  0  2  0  0  0  0  0  0  0  0  0
   24.8990  -20.7816  -13.8077 C   0  0  0  0  0  0  0  0  0  0  0  0
   25.4313  -19.7084  -12.9079 C   0  0  0  0  0  0  0  0  0  0  0  0
   26.1310  -20.2878  -11.7585 C   0  0  0  0  0  0  0  0  0  0  0  0
   25.6391  -20.7548  -10.5535 N   0  0  0  0  0  0  0  0  0  0  0  0
   26.6632  -21.1967   -9.8070 C   0  0  0  0  0  0  0  0  0  0  0  0
   27.8315  -21.0514  -10.4505 C   0  0  0  0  0  0  0  0  0  0  0  0
   29.1313  -21.3596  -10.0900 C   0  0  0  0  0  0  0  0  0  0  0  0
   30.1536  -21.0882  -10.9897 C   0  0  0  0  0  0  0  0  0  0  0  0
   29.8754  -20.5297  -12.2020 C   0  0  0  0  0  0  0  0  0  0  0  0
   28.5549  -20.2323  -12.5322 C   0  0  0  0  0  0  0  0  0  0  0  0
   27.5136  -20.4874  -11.6648 C   0  0  0  0  0  0  0  0  0  0  0  0
   23.5671  -20.3922  -14.3559 O   0  0  0  0  0  0  0  0  0  0  0  0
   23.4942  -19.5733  -15.3022 C   0  0  0  0  0  0  0  0  0  0  0  0
   17.9332  -22.5450  -15.2666 C   0  0  0  0  0  0  0  0  0  0  0  0
   18.8525  -21.3761  -15.0524 C   0  0  2  0  0  0  0  0  0  0  0  0
   20.1742  -21.8005  -14.4684 C   0  0  0  0  0  0  0  0  0  0  0  0
   20.0387  -22.5495  -13.1831 C   0  0  2  0  0  0  0  0  0  0  0  0
   21.0424  -20.5634  -14.3623 N   0  0  0  0  0  0  0  0  0  0  0  0
   22.3501  -20.9154  -13.8471 C   0  0  0  0  0  0  0  0  0  0  0  0
   20.3935  -19.6298  -13.4259 O   0  0  0  0  0  0  0  0  0  0  0  0
   19.3748  -18.8154  -13.8858 O   0  0  0  0  0  0  0  0  0  0  0  0
  2  1  1  0
  3  2  2  0
  4  2  1  0
  5  4  1  0
  6  5  1  0
  7  6  1  0
  7  8  1  0
  8  9  1  1
 10  8  1  0
 11 10  2  0
 12 10  1  0
 13 12  1  0
 13 24  1  0
 13 14  1  1
 15 23  1  0
 15 14  1  0
 16 15  2  0
 17 16  1  0
 17 18  1  0
 18 23  2  0
 19 18  1  0
 19 20  2  0
 20 21  1  0
 21 22  2  0
 23 22  1  0
 24 31  1  0
 25 24  2  0
 26 27  1  0
 28 29  1  6
 28 27  1  0
 30 28  1  0
 30 32  1  0
 30 31  1  1
 32 34  2  0
 32 33  1  0
M  END
$$$$
