SWI.pdb
     RDKit          3D

 29 30  0  0  1  0  0  0  0  0999 V2000
   13.0835  -17.6847   19.9371 O   0  0  0  0  0  0  0  0  0  0  0  0
   11.9330  -18.1850   20.5236 C   0  0  0  0  0  0  0  0  0  0  0  0
   10.7243  -17.3657   20.1060 C   0  0  2  0  0  0  0  0  0  0  0  0
   11.0290  -16.4894   19.0002 N   0  0  0  0  0  0  0  0  0  0  0  0
   10.2088  -16.5470   21.2225 C   0  0  0  0  0  0  0  0  0  0  0  0
   10.5446  -15.3202   21.3474 O   0  0  0  0  0  0  0  0  0  0  0  0
    9.3287  -17.0536   22.2065 N   0  0  0  0  0  0  0  0  0  0  0  0
    8.8594  -16.2276   23.2819 C   0  0  1  0  0  0  0  0  0  0  0  0
    7.5231  -16.7335   23.7569 C   0  0  0  0  0  0  0  0  0  0  0  0
    6.7437  -15.8039   24.5628 C   0  0  0  0  0  0  0  0  0  0  0  0
    5.5459  -16.0557   25.2527 C   0  0  0  0  0  0  0  0  0  0  0  0
    5.1643  -14.9593   25.9050 N   0  0  0  0  0  0  0  0  0  0  0  0
    6.0629  -13.9900   25.6734 C   0  0  0  0  0  0  0  0  0  0  0  0
    6.0919  -12.6852   26.1238 C   0  0  0  0  0  0  0  0  0  0  0  0
    7.0988  -11.8240   25.7697 C   0  0  0  0  0  0  0  0  0  0  0  0
    8.0889  -12.2870   24.9495 C   0  0  0  0  0  0  0  0  0  0  0  0
    8.0507  -13.6093   24.4991 C   0  0  0  0  0  0  0  0  0  0  0  0
    7.0474  -14.4947   24.8438 C   0  0  0  0  0  0  0  0  0  0  0  0
    9.8054  -16.3527   24.4195 C   0  0  0  0  0  0  0  0  0  0  0  0
   10.7758  -17.1445   24.3351 O   0  0  0  0  0  0  0  0  0  0  0  0
    9.4552  -12.5249   28.4526 C   0  0  0  0  0  0  0  0  0  0  0  0
    9.9328  -13.5037   27.4564 C   0  0  0  0  0  0  0  0  0  0  0  0
   10.2265  -14.8851   27.8503 C   0  0  2  0  0  0  0  0  0  0  0  0
   11.1825  -14.9575   29.0461 C   0  0  0  0  0  0  0  0  0  0  0  0
   10.6007  -15.8221   26.7770 C   0  0  2  0  0  0  0  0  0  0  0  0
    9.6766  -15.6179   25.6172 N   0  0  0  0  0  0  0  0  0  0  0  0
   10.6687  -17.2375   26.9850 C   0  0  0  0  0  0  0  0  0  0  0  0
    9.7084  -18.0291   26.9373 O   0  0  0  0  0  0  0  0  0  0  0  0
   11.9043  -17.8605   27.2743 O   0  0  0  0  0  0  0  0  0  0  0  0
  1  2  1  0
  2  3  1  0
  3  5  1  0
  3  4  1  6
  5  6  2  0
  7  8  1  0
  7  5  1  0
  8  9  1  1
 10 18  1  0
 10  9  1  0
 11 10  2  0
 12 11  1  0
 12 13  1  0
 13 18  2  0
 14 13  1  0
 14 15  2  0
 15 16  1  0
 16 17  2  0
 18 17  1  0
 19  8  1  0
 19 20  2  0
 21 22  1  0
 22 23  1  0
 23 25  1  0
 23 24  1  1
 25 27  1  0
 25 26  1  6
 26 19  1  0
 27 29  1  0
 28 27  2  0
M  END
$$$$
