SWI.pdb
     RDKit          3D

 29 30  0  0  1  0  0  0  0  0999 V2000
   12.6463  -18.3735   21.3638 O   0  0  0  0  0  0  0  0  0  0  0  0
   12.5551  -17.4601   20.3268 C   0  0  0  0  0  0  0  0  0  0  0  0
   11.1103  -17.0450   20.1099 C   0  0  2  0  0  0  0  0  0  0  0  0
   10.9653  -16.2030   18.9466 N   0  0  0  0  0  0  0  0  0  0  0  0
   10.5692  -16.3229   21.2797 C   0  0  0  0  0  0  0  0  0  0  0  0
   10.8938  -15.1084   21.5099 O   0  0  0  0  0  0  0  0  0  0  0  0
    9.6758  -16.9131   22.2033 N   0  0  0  0  0  0  0  0  0  0  0  0
    9.1436  -16.1653   23.3061 C   0  0  1  0  0  0  0  0  0  0  0  0
    7.7418  -16.6311   23.5984 C   0  0  0  0  0  0  0  0  0  0  0  0
    6.9511  -15.7607   24.4576 C   0  0  0  0  0  0  0  0  0  0  0  0
    5.8446  -16.1070   25.2513 C   0  0  0  0  0  0  0  0  0  0  0  0
    5.4201  -15.0374   25.9212 N   0  0  0  0  0  0  0  0  0  0  0  0
    6.2023  -13.9949   25.6015 C   0  0  0  0  0  0  0  0  0  0  0  0
    6.1488  -12.6844   26.0325 C   0  0  0  0  0  0  0  0  0  0  0  0
    7.0381  -11.7422   25.5827 C   0  0  0  0  0  0  0  0  0  0  0  0
    7.9935  -12.1291   24.6856 C   0  0  0  0  0  0  0  0  0  0  0  0
    8.0395  -13.4579   24.2557 C   0  0  0  0  0  0  0  0  0  0  0  0
    7.1552  -14.4240   24.6961 C   0  0  0  0  0  0  0  0  0  0  0  0
    9.9621  -16.4549   24.5106 C   0  0  0  0  0  0  0  0  0  0  0  0
   10.6961  -17.4730   24.5317 O   0  0  0  0  0  0  0  0  0  0  0  0
    9.4730  -13.9889   29.8886 C   0  0  0  0  0  0  0  0  0  0  0  0
    9.6496  -14.9882   28.8168 C   0  0  0  0  0  0  0  0  0  0  0  0
   10.7018  -14.8223   27.8093 C   0  0  2  0  0  0  0  0  0  0  0  0
   10.6620  -13.4392   27.1500 C   0  0  0  0  0  0  0  0  0  0  0  0
   10.8636  -15.9067   26.8255 C   0  0  2  0  0  0  0  0  0  0  0  0
    9.9650  -15.6356   25.6594 N   0  0  0  0  0  0  0  0  0  0  0  0
   10.6675  -17.2843   27.1648 C   0  0  0  0  0  0  0  0  0  0  0  0
   11.5068  -18.0297   27.7042 O   0  0  0  0  0  0  0  0  0  0  0  0
    9.4350  -17.9209   26.8920 O   0  0  0  0  0  0  0  0  0  0  0  0
  1  2  1  0
  2  3  1  0
  3  5  1  0
  3  4  1  6
  5  6  2  0
  7  8  1  0
  7  5  1  0
  8  9  1  1
 10 18  1  0
 10  9  1  0
 11 10  2  0
 12 11  1  0
 12 13  1  0
 13 18  2  0
 14 13  1  0
 14 15  2  0
 15 16  1  0
 16 17  2  0
 18 17  1  0
 19  8  1  0
 19 20  2  0
 21 22  1  0
 22 23  1  0
 23 25  1  0
 23 24  1  6
 25 27  1  0
 25 26  1  6
 26 19  1  0
 27 29  1  0
 28 27  2  0
M  END
$$$$
