SWI.pdb
     RDKit          3D

 29 30  0  0  1  0  0  0  0  0999 V2000
   13.2244  -18.1251   21.3663 O   0  0  0  0  0  0  0  0  0  0  0  0
   12.0683  -18.4161   20.6616 C   0  0  0  0  0  0  0  0  0  0  0  0
   11.3342  -17.1384   20.2939 C   0  0  2  0  0  0  0  0  0  0  0  0
   12.1826  -16.2255   19.5657 N   0  0  0  0  0  0  0  0  0  0  0  0
   10.8182  -16.4427   21.4907 C   0  0  0  0  0  0  0  0  0  0  0  0
   11.4271  -15.4288   21.9751 O   0  0  0  0  0  0  0  0  0  0  0  0
    9.6421  -16.8425   22.1665 N   0  0  0  0  0  0  0  0  0  0  0  0
    9.1420  -16.1043   23.2907 C   0  0  1  0  0  0  0  0  0  0  0  0
    7.6656  -16.3587   23.4415 C   0  0  0  0  0  0  0  0  0  0  0  0
    6.9906  -15.5809   24.4713 C   0  0  0  0  0  0  0  0  0  0  0  0
    6.1959  -16.0557   25.5283 C   0  0  0  0  0  0  0  0  0  0  0  0
    5.7889  -15.0337   26.2785 N   0  0  0  0  0  0  0  0  0  0  0  0
    6.2826  -13.8992   25.7589 C   0  0  0  0  0  0  0  0  0  0  0  0
    6.1286  -12.5934   26.1800 C   0  0  0  0  0  0  0  0  0  0  0  0
    6.7074  -11.5476   25.5077 C   0  0  0  0  0  0  0  0  0  0  0  0
    7.4509  -11.8246   24.3951 C   0  0  0  0  0  0  0  0  0  0  0  0
    7.6010  -13.1495   23.9771 C   0  0  0  0  0  0  0  0  0  0  0  0
    7.0285  -14.2187   24.6393 C   0  0  0  0  0  0  0  0  0  0  0  0
    9.8024  -16.6125   24.5196 C   0  0  0  0  0  0  0  0  0  0  0  0
   10.4435  -17.6911   24.4786 O   0  0  0  0  0  0  0  0  0  0  0  0
   10.0126  -13.8885   29.8447 C   0  0  0  0  0  0  0  0  0  0  0  0
    9.7994  -14.9065   28.7973 C   0  0  0  0  0  0  0  0  0  0  0  0
   10.8205  -15.1472   27.7732 C   0  0  2  0  0  0  0  0  0  0  0  0
   11.1520  -13.8817   26.9745 C   0  0  0  0  0  0  0  0  0  0  0  0
   10.6349  -16.3235   26.9062 C   0  0  2  0  0  0  0  0  0  0  0  0
    9.7522  -15.9406   25.7593 N   0  0  0  0  0  0  0  0  0  0  0  0
   10.1245  -17.5669   27.4009 C   0  0  0  0  0  0  0  0  0  0  0  0
   10.7146  -18.3405   28.1783 O   0  0  0  0  0  0  0  0  0  0  0  0
    8.8423  -18.0197   27.0141 O   0  0  0  0  0  0  0  0  0  0  0  0
  1  2  1  0
  2  3  1  0
  3  5  1  0
  3  4  1  1
  5  6  2  0
  7  8  1  0
  7  5  1  0
  8  9  1  1
 10 18  1  0
 10  9  1  0
 11 10  2  0
 12 11  1  0
 12 13  1  0
 13 18  2  0
 14 13  1  0
 14 15  2  0
 15 16  1  0
 16 17  2  0
 18 17  1  0
 19  8  1  0
 19 20  2  0
 21 22  1  0
 22 23  1  0
 23 25  1  0
 23 24  1  6
 25 27  1  0
 25 26  1  6
 26 19  1  0
 27 29  1  0
 28 27  2  0
M  END
$$$$
