SWI.pdb
     RDKit          3D

 29 30  0  0  1  0  0  0  0  0999 V2000
   13.4200  -17.8959   21.2802 O   0  0  0  0  0  0  0  0  0  0  0  0
   12.1838  -18.1066   20.6925 C   0  0  0  0  0  0  0  0  0  0  0  0
   11.5264  -16.7814   20.3482 C   0  0  2  0  0  0  0  0  0  0  0  0
   12.4569  -15.8686   19.7284 N   0  0  0  0  0  0  0  0  0  0  0  0
   10.9580  -16.1279   21.5451 C   0  0  0  0  0  0  0  0  0  0  0  0
   11.5407  -15.1278   22.0869 O   0  0  0  0  0  0  0  0  0  0  0  0
    9.7577  -16.5550   22.1587 N   0  0  0  0  0  0  0  0  0  0  0  0
    9.1941  -15.8414   23.2686 C   0  0  1  0  0  0  0  0  0  0  0  0
    7.7376  -16.1977   23.4069 C   0  0  0  0  0  0  0  0  0  0  0  0
    7.0165  -15.5144   24.4718 C   0  0  0  0  0  0  0  0  0  0  0  0
    6.2019  -16.0842   25.4647 C   0  0  0  0  0  0  0  0  0  0  0  0
    5.7514  -15.1308   26.2778 N   0  0  0  0  0  0  0  0  0  0  0  0
    6.2356  -13.9505   25.8616 C   0  0  0  0  0  0  0  0  0  0  0  0
    6.0415  -12.6841   26.3761 C   0  0  0  0  0  0  0  0  0  0  0  0
    6.6170  -11.5788   25.8034 C   0  0  0  0  0  0  0  0  0  0  0  0
    7.3983  -11.7552   24.6963 C   0  0  0  0  0  0  0  0  0  0  0  0
    7.5888  -13.0410   24.1833 C   0  0  0  0  0  0  0  0  0  0  0  0
    7.0204  -14.1687   24.7442 C   0  0  0  0  0  0  0  0  0  0  0  0
    9.8747  -16.2876   24.5104 C   0  0  0  0  0  0  0  0  0  0  0  0
   10.6394  -17.2826   24.4755 O   0  0  0  0  0  0  0  0  0  0  0  0
    9.8737  -12.6207   28.6657 C   0  0  0  0  0  0  0  0  0  0  0  0
   10.2265  -13.6521   27.6706 C   0  0  0  0  0  0  0  0  0  0  0  0
   10.2389  -15.0708   28.0402 C   0  0  2  0  0  0  0  0  0  0  0  0
   11.0894  -15.3391   29.2867 C   0  0  0  0  0  0  0  0  0  0  0  0
   10.5026  -16.0408   26.9634 C   0  0  2  0  0  0  0  0  0  0  0  0
    9.7105  -15.6457   25.7562 N   0  0  0  0  0  0  0  0  0  0  0  0
   10.2933  -17.4477   27.1314 C   0  0  0  0  0  0  0  0  0  0  0  0
   11.1627  -18.2825   27.4449 O   0  0  0  0  0  0  0  0  0  0  0  0
    9.0098  -18.0088   26.9406 O   0  0  0  0  0  0  0  0  0  0  0  0
  1  2  1  0
  2  3  1  0
  3  5  1  0
  3  4  1  1
  5  6  2  0
  7  8  1  0
  7  5  1  0
  8  9  1  1
 10 18  1  0
 10  9  1  0
 11 10  2  0
 12 11  1  0
 12 13  1  0
 13 18  2  0
 14 13  1  0
 14 15  2  0
 15 16  1  0
 16 17  2  0
 18 17  1  0
 19  8  1  0
 19 20  2  0
 21 22  1  0
 22 23  1  0
 23 25  1  0
 23 24  1  1
 25 27  1  0
 25 26  1  6
 26 19  1  0
 27 29  1  0
 28 27  2  0
M  END
$$$$
