SWI.pdb
     RDKit          3D

 29 30  0  0  1  0  0  0  0  0999 V2000
   12.1600  -19.8856   21.7771 O   0  0  0  0  0  0  0  0  0  0  0  0
   10.9682  -20.0661   21.0952 C   0  0  0  0  0  0  0  0  0  0  0  0
   10.5459  -18.7767   20.4128 C   0  0  2  0  0  0  0  0  0  0  0  0
   11.4638  -18.4018   19.3639 N   0  0  0  0  0  0  0  0  0  0  0  0
   10.4513  -17.6578   21.3728 C   0  0  0  0  0  0  0  0  0  0  0  0
   11.4195  -16.8372   21.5230 O   0  0  0  0  0  0  0  0  0  0  0  0
    9.3089  -17.4240   22.1728 N   0  0  0  0  0  0  0  0  0  0  0  0
    9.2601  -16.3294   23.0992 C   0  0  1  0  0  0  0  0  0  0  0  0
    7.8402  -15.8457   23.2302 C   0  0  0  0  0  0  0  0  0  0  0  0
    7.6784  -14.4313   23.5374 C   0  0  0  0  0  0  0  0  0  0  0  0
    8.1604  -13.3304   22.8095 C   0  0  0  0  0  0  0  0  0  0  0  0
    7.7711  -12.1996   23.3950 N   0  0  0  0  0  0  0  0  0  0  0  0
    7.0501  -12.5086   24.4837 C   0  0  0  0  0  0  0  0  0  0  0  0
    6.4458  -11.6804   25.4084 C   0  0  0  0  0  0  0  0  0  0  0  0
    5.7494  -12.1829   26.4777 C   0  0  0  0  0  0  0  0  0  0  0  0
    5.6627  -13.5397   26.6146 C   0  0  0  0  0  0  0  0  0  0  0  0
    6.2775  -14.3695   25.6733 C   0  0  0  0  0  0  0  0  0  0  0  0
    6.9828  -13.8858   24.5880 C   0  0  0  0  0  0  0  0  0  0  0  0
    9.6802  -16.8233   24.4349 C   0  0  0  0  0  0  0  0  0  0  0  0
    9.7407  -18.0588   24.6485 O   0  0  0  0  0  0  0  0  0  0  0  0
   10.0414  -13.5371   29.2714 C   0  0  0  0  0  0  0  0  0  0  0  0
    9.7672  -14.6286   28.3163 C   0  0  0  0  0  0  0  0  0  0  0  0
   10.8694  -15.3562   27.6797 C   0  0  2  0  0  0  0  0  0  0  0  0
   11.8774  -14.4148   27.0111 C   0  0  0  0  0  0  0  0  0  0  0  0
   10.5100  -16.4950   26.8173 C   0  0  2  0  0  0  0  0  0  0  0  0
   10.0240  -15.9680   25.5032 N   0  0  0  0  0  0  0  0  0  0  0  0
    9.5629  -17.4914   27.2193 C   0  0  0  0  0  0  0  0  0  0  0  0
    8.3877  -17.5853   26.8177 O   0  0  0  0  0  0  0  0  0  0  0  0
    9.9256  -18.4895   28.1524 O   0  0  0  0  0  0  0  0  0  0  0  0
  1  2  1  0
  2  3  1  0
  3  5  1  0
  3  4  1  6
  5  6  2  0
  7  8  1  0
  7  5  1  0
  8  9  1  1
 10 18  1  0
 10  9  1  0
 11 10  2  0
 12 11  1  0
 12 13  1  0
 13 18  2  0
 14 13  1  0
 14 15  2  0
 15 16  1  0
 16 17  2  0
 18 17  1  0
 19  8  1  0
 19 20  2  0
 21 22  1  0
 22 23  1  0
 23 25  1  0
 23 24  1  6
 25 27  1  0
 25 26  1  6
 26 19  1  0
 27 29  1  0
 28 27  2  0
M  END
$$$$
