SWI.pdb
     RDKit          3D

 29 30  0  0  1  0  0  0  0  0999 V2000
   13.4046  -16.7539   20.1748 O   0  0  0  0  0  0  0  0  0  0  0  0
   12.3569  -17.6593   20.2007 C   0  0  0  0  0  0  0  0  0  0  0  0
   11.0326  -16.9455   19.9921 C   0  0  2  0  0  0  0  0  0  0  0  0
   11.0908  -16.0252   18.8817 N   0  0  0  0  0  0  0  0  0  0  0  0
   10.6210  -16.1975   21.1978 C   0  0  0  0  0  0  0  0  0  0  0  0
   10.7880  -14.9328   21.2753 O   0  0  0  0  0  0  0  0  0  0  0  0
   10.0277  -16.8161   22.3225 N   0  0  0  0  0  0  0  0  0  0  0  0
    9.4166  -16.0398   23.3631 C   0  0  1  0  0  0  0  0  0  0  0  0
    7.9302  -16.2805   23.3617 C   0  0  0  0  0  0  0  0  0  0  0  0
    7.1695  -15.5523   24.3678 C   0  0  0  0  0  0  0  0  0  0  0  0
    6.4337  -16.0808   25.4419 C   0  0  0  0  0  0  0  0  0  0  0  0
    5.9114  -15.0885   26.1599 N   0  0  0  0  0  0  0  0  0  0  0  0
    6.2721  -13.9222   25.6026 C   0  0  0  0  0  0  0  0  0  0  0  0
    5.9689  -12.6298   25.9819 C   0  0  0  0  0  0  0  0  0  0  0  0
    6.4243  -11.5468   25.2745 C   0  0  0  0  0  0  0  0  0  0  0  0
    7.1957  -11.7725   24.1693 C   0  0  0  0  0  0  0  0  0  0  0  0
    7.4972  -13.0843   23.7938 C   0  0  0  0  0  0  0  0  0  0  0  0
    7.0507  -14.1901   24.4917 C   0  0  0  0  0  0  0  0  0  0  0  0
    9.9364  -16.5127   24.6710 C   0  0  0  0  0  0  0  0  0  0  0  0
   10.4283  -17.6640   24.7634 O   0  0  0  0  0  0  0  0  0  0  0  0
   10.5514  -12.5656   28.5885 C   0  0  0  0  0  0  0  0  0  0  0  0
   10.7671  -13.6985   27.6673 C   0  0  0  0  0  0  0  0  0  0  0  0
   10.4817  -15.0715   28.0949 C   0  0  2  0  0  0  0  0  0  0  0  0
   11.1662  -15.4213   29.4209 C   0  0  0  0  0  0  0  0  0  0  0  0
   10.6400  -16.1334   27.0862 C   0  0  2  0  0  0  0  0  0  0  0  0
    9.9105  -15.7280   25.8434 N   0  0  0  0  0  0  0  0  0  0  0  0
   10.2660  -17.4925   27.3396 C   0  0  0  0  0  0  0  0  0  0  0  0
   11.0158  -18.3868   27.7743 O   0  0  0  0  0  0  0  0  0  0  0  0
    8.9432  -17.9286   27.0975 O   0  0  0  0  0  0  0  0  0  0  0  0
  1  2  1  0
  2  3  1  0
  3  5  1  0
  3  4  1  6
  5  6  2  0
  7  8  1  0
  7  5  1  0
  8  9  1  1
 10 18  1  0
 10  9  1  0
 11 10  2  0
 12 11  1  0
 12 13  1  0
 13 18  2  0
 14 13  1  0
 14 15  2  0
 15 16  1  0
 16 17  2  0
 18 17  1  0
 19  8  1  0
 19 20  2  0
 21 22  1  0
 22 23  1  0
 23 25  1  0
 23 24  1  1
 25 27  1  0
 25 26  1  6
 26 19  1  0
 27 29  1  0
 28 27  2  0
M  END
$$$$
