SWI.pdb
     RDKit          3D

 29 30  0  0  1  0  0  0  0  0999 V2000
   12.3501  -19.1795   21.8216 O   0  0  0  0  0  0  0  0  0  0  0  0
   12.6795  -18.1526   20.9528 C   0  0  0  0  0  0  0  0  0  0  0  0
   11.4595  -17.2995   20.6517 C   0  0  2  0  0  0  0  0  0  0  0  0
   11.7155  -16.3576   19.5884 N   0  0  0  0  0  0  0  0  0  0  0  0
   11.0120  -16.5489   21.8429 C   0  0  0  0  0  0  0  0  0  0  0  0
   11.5309  -15.4197   22.1414 O   0  0  0  0  0  0  0  0  0  0  0  0
   10.0020  -17.0183   22.7143 N   0  0  0  0  0  0  0  0  0  0  0  0
    9.5347  -16.2198   23.8110 C   0  0  1  0  0  0  0  0  0  0  0  0
    8.0307  -16.2697   23.8630 C   0  0  0  0  0  0  0  0  0  0  0  0
    7.3483  -14.9940   23.6958 C   0  0  0  0  0  0  0  0  0  0  0  0
    6.8776  -14.4178   22.5039 C   0  0  0  0  0  0  0  0  0  0  0  0
    6.2753  -13.2608   22.7716 N   0  0  0  0  0  0  0  0  0  0  0  0
    6.3293  -13.0473   24.0953 C   0  0  0  0  0  0  0  0  0  0  0  0
    5.8516  -11.9877   24.8403 C   0  0  0  0  0  0  0  0  0  0  0  0
    6.0103  -11.9357   26.2015 C   0  0  0  0  0  0  0  0  0  0  0  0
    6.6606  -12.9675   26.8179 C   0  0  0  0  0  0  0  0  0  0  0  0
    7.1402  -14.0355   26.0551 C   0  0  0  0  0  0  0  0  0  0  0  0
    6.9907  -14.1098   24.6835 C   0  0  0  0  0  0  0  0  0  0  0  0
   10.0373  -16.8150   25.0750 C   0  0  0  0  0  0  0  0  0  0  0  0
   10.6709  -17.8982   25.0417 O   0  0  0  0  0  0  0  0  0  0  0  0
   10.4710  -13.0225   28.9969 C   0  0  0  0  0  0  0  0  0  0  0  0
   10.7330  -14.1545   28.0867 C   0  0  0  0  0  0  0  0  0  0  0  0
   10.5504  -15.5357   28.5433 C   0  0  2  0  0  0  0  0  0  0  0  0
   11.3626  -15.8422   29.8065 C   0  0  0  0  0  0  0  0  0  0  0  0
   10.6707  -16.5975   27.5293 C   0  0  2  0  0  0  0  0  0  0  0  0
    9.8415  -16.2227   26.3406 N   0  0  0  0  0  0  0  0  0  0  0  0
   10.3602  -17.9665   27.8131 C   0  0  0  0  0  0  0  0  0  0  0  0
   11.1516  -18.8161   28.2637 O   0  0  0  0  0  0  0  0  0  0  0  0
    9.0580  -18.4677   27.5858 O   0  0  0  0  0  0  0  0  0  0  0  0
  1  2  1  0
  2  3  1  0
  3  5  1  0
  3  4  1  6
  5  6  2  0
  7  8  1  0
  7  5  1  0
  8  9  1  1
 10 18  1  0
 10  9  1  0
 11 10  2  0
 12 11  1  0
 12 13  1  0
 13 18  2  0
 14 13  1  0
 14 15  2  0
 15 16  1  0
 16 17  2  0
 18 17  1  0
 19  8  1  0
 19 20  2  0
 21 22  1  0
 22 23  1  0
 23 25  1  0
 23 24  1  1
 25 27  1  0
 25 26  1  6
 26 19  1  0
 27 29  1  0
 28 27  2  0
M  END
$$$$
