SWI.pdb
     RDKit          3D

 29 30  0  0  1  0  0  0  0  0999 V2000
   13.4412  -17.6321   21.0764 O   0  0  0  0  0  0  0  0  0  0  0  0
   12.1873  -18.1419   20.7834 C   0  0  0  0  0  0  0  0  0  0  0  0
   11.2439  -17.0264   20.3682 C   0  0  2  0  0  0  0  0  0  0  0  0
   11.8988  -16.0620   19.5172 N   0  0  0  0  0  0  0  0  0  0  0  0
   10.6907  -16.3163   21.5396 C   0  0  0  0  0  0  0  0  0  0  0  0
   11.1446  -15.1742   21.8903 O   0  0  0  0  0  0  0  0  0  0  0  0
    9.6451  -16.8401   22.3345 N   0  0  0  0  0  0  0  0  0  0  0  0
    9.1245  -16.1104   23.4550 C   0  0  1  0  0  0  0  0  0  0  0  0
    7.7828  -16.6743   23.8414 C   0  0  0  0  0  0  0  0  0  0  0  0
    6.9124  -15.7804   24.5926 C   0  0  0  0  0  0  0  0  0  0  0  0
    5.7646  -16.1141   25.3311 C   0  0  0  0  0  0  0  0  0  0  0  0
    5.2667  -15.0209   25.9058 N   0  0  0  0  0  0  0  0  0  0  0  0
    6.0400  -13.9750   25.5760 C   0  0  0  0  0  0  0  0  0  0  0  0
    5.9218  -12.6439   25.9226 C   0  0  0  0  0  0  0  0  0  0  0  0
    6.8135  -11.7022   25.4763 C   0  0  0  0  0  0  0  0  0  0  0  0
    7.8376  -12.1108   24.6691 C   0  0  0  0  0  0  0  0  0  0  0  0
    7.9488  -13.4604   24.3242 C   0  0  0  0  0  0  0  0  0  0  0  0
    7.0634  -14.4263   24.7629 C   0  0  0  0  0  0  0  0  0  0  0  0
   10.0340  -16.3105   24.6113 C   0  0  0  0  0  0  0  0  0  0  0  0
   11.0241  -17.0738   24.4971 O   0  0  0  0  0  0  0  0  0  0  0  0
   10.1781  -12.5760   28.7387 C   0  0  0  0  0  0  0  0  0  0  0  0
   10.5245  -13.6269   27.7618 C   0  0  0  0  0  0  0  0  0  0  0  0
   10.4101  -15.0441   28.1196 C   0  0  2  0  0  0  0  0  0  0  0  0
   11.1500  -15.3764   29.4201 C   0  0  0  0  0  0  0  0  0  0  0  0
   10.6790  -16.0270   27.0559 C   0  0  2  0  0  0  0  0  0  0  0  0
    9.8486  -15.6795   25.8598 N   0  0  0  0  0  0  0  0  0  0  0  0
   10.5160  -17.4358   27.2556 C   0  0  0  0  0  0  0  0  0  0  0  0
    9.4411  -18.0619   27.1952 O   0  0  0  0  0  0  0  0  0  0  0  0
   11.6323  -18.2513   27.5512 O   0  0  0  0  0  0  0  0  0  0  0  0
  1  2  1  0
  2  3  1  0
  3  5  1  0
  3  4  1  6
  5  6  2  0
  7  8  1  0
  7  5  1  0
  8  9  1  1
 10 18  1  0
 10  9  1  0
 11 10  2  0
 12 11  1  0
 12 13  1  0
 13 18  2  0
 14 13  1  0
 14 15  2  0
 15 16  1  0
 16 17  2  0
 18 17  1  0
 19  8  1  0
 19 20  2  0
 21 22  1  0
 22 23  1  0
 23 25  1  0
 23 24  1  1
 25 27  1  0
 25 26  1  6
 26 19  1  0
 27 29  1  0
 28 27  2  0
M  END
$$$$
