SWI.pdb
     RDKit          3D

 29 30  0  0  1  0  0  0  0  0999 V2000
   12.7414  -18.3031   21.6288 O   0  0  0  0  0  0  0  0  0  0  0  0
   12.9685  -17.3184   20.6818 C   0  0  0  0  0  0  0  0  0  0  0  0
   11.6578  -16.6844   20.2496 C   0  0  2  0  0  0  0  0  0  0  0  0
   11.8488  -15.7451   19.1705 N   0  0  0  0  0  0  0  0  0  0  0  0
   10.9971  -15.9820   21.3689 C   0  0  0  0  0  0  0  0  0  0  0  0
   11.3999  -14.8312   21.7518 O   0  0  0  0  0  0  0  0  0  0  0  0
    9.8989  -16.5231   22.0766 N   0  0  0  0  0  0  0  0  0  0  0  0
    9.2850  -15.8078   23.1584 C   0  0  1  0  0  0  0  0  0  0  0  0
    7.8223  -16.1590   23.2261 C   0  0  0  0  0  0  0  0  0  0  0  0
    7.0680  -15.5270   24.2997 C   0  0  0  0  0  0  0  0  0  0  0  0
    6.2356  -16.1451   25.2481 C   0  0  0  0  0  0  0  0  0  0  0  0
    5.7551  -15.2302   26.0879 N   0  0  0  0  0  0  0  0  0  0  0  0
    6.2364  -14.0292   25.7323 C   0  0  0  0  0  0  0  0  0  0  0  0
    6.0161  -12.7869   26.2930 C   0  0  0  0  0  0  0  0  0  0  0  0
    6.5934  -11.6535   25.7803 C   0  0  0  0  0  0  0  0  0  0  0  0
    7.4034  -11.7767   24.6867 C   0  0  0  0  0  0  0  0  0  0  0  0
    7.6203  -13.0384   24.1266 C   0  0  0  0  0  0  0  0  0  0  0  0
    7.0506  -14.1936   24.6268 C   0  0  0  0  0  0  0  0  0  0  0  0
    9.9033  -16.2568   24.4314 C   0  0  0  0  0  0  0  0  0  0  0  0
   10.6035  -17.2986   24.4473 O   0  0  0  0  0  0  0  0  0  0  0  0
   10.3394  -12.3920   28.3130 C   0  0  0  0  0  0  0  0  0  0  0  0
   10.4824  -13.5395   27.3958 C   0  0  0  0  0  0  0  0  0  0  0  0
   10.3571  -14.9125   27.8946 C   0  0  2  0  0  0  0  0  0  0  0  0
   11.2394  -15.1676   29.1216 C   0  0  0  0  0  0  0  0  0  0  0  0
   10.4520  -15.9967   26.9019 C   0  0  2  0  0  0  0  0  0  0  0  0
    9.7482  -15.5671   25.6525 N   0  0  0  0  0  0  0  0  0  0  0  0
    9.9977  -17.3273   27.1749 C   0  0  0  0  0  0  0  0  0  0  0  0
    8.8381  -17.7507   27.0103 O   0  0  0  0  0  0  0  0  0  0  0  0
   10.8914  -18.3003   27.6780 O   0  0  0  0  0  0  0  0  0  0  0  0
  1  2  1  0
  2  3  1  0
  3  5  1  0
  3  4  1  6
  5  6  2  0
  7  8  1  0
  7  5  1  0
  8  9  1  1
 10 18  1  0
 10  9  1  0
 11 10  2  0
 12 11  1  0
 12 13  1  0
 13 18  2  0
 14 13  1  0
 14 15  2  0
 15 16  1  0
 16 17  2  0
 18 17  1  0
 19  8  1  0
 19 20  2  0
 21 22  1  0
 22 23  1  0
 23 25  1  0
 23 24  1  1
 25 27  1  0
 25 26  1  6
 26 19  1  0
 27 29  1  0
 28 27  2  0
M  END
$$$$
