SWI.pdb
     RDKit          3D

 29 30  0  0  1  0  0  0  0  0999 V2000
   13.4763  -17.6756   20.7966 O   0  0  0  0  0  0  0  0  0  0  0  0
   12.1828  -18.0818   20.5142 C   0  0  0  0  0  0  0  0  0  0  0  0
   11.3223  -16.8894   20.1344 C   0  0  2  0  0  0  0  0  0  0  0  0
   12.0550  -15.9337   19.3387 N   0  0  0  0  0  0  0  0  0  0  0  0
   10.7940  -16.1965   21.3275 C   0  0  0  0  0  0  0  0  0  0  0  0
   11.2900  -15.0842   21.7148 O   0  0  0  0  0  0  0  0  0  0  0  0
    9.7278  -16.7056   22.1045 N   0  0  0  0  0  0  0  0  0  0  0  0
    9.1649  -15.9466   23.1843 C   0  0  1  0  0  0  0  0  0  0  0  0
    7.7647  -16.4274   23.4592 C   0  0  0  0  0  0  0  0  0  0  0  0
    6.9866  -15.6162   24.3851 C   0  0  0  0  0  0  0  0  0  0  0  0
    5.9912  -16.0444   25.2796 C   0  0  0  0  0  0  0  0  0  0  0  0
    5.5421  -15.0063   25.9822 N   0  0  0  0  0  0  0  0  0  0  0  0
    6.2011  -13.9060   25.5874 C   0  0  0  0  0  0  0  0  0  0  0  0
    6.0778  -12.5996   26.0167 C   0  0  0  0  0  0  0  0  0  0  0  0
    6.8394  -11.5918   25.4827 C   0  0  0  0  0  0  0  0  0  0  0  0
    7.7369  -11.9080   24.5020 C   0  0  0  0  0  0  0  0  0  0  0  0
    7.8544  -13.2332   24.0745 C   0  0  0  0  0  0  0  0  0  0  0  0
    7.0989  -14.2646   24.5987 C   0  0  0  0  0  0  0  0  0  0  0  0
    9.9651  -16.2035   24.4083 C   0  0  0  0  0  0  0  0  0  0  0  0
   10.8922  -17.0494   24.3772 O   0  0  0  0  0  0  0  0  0  0  0  0
    9.6274  -12.4425   28.4693 C   0  0  0  0  0  0  0  0  0  0  0  0
   10.0617  -13.4682   27.5008 C   0  0  0  0  0  0  0  0  0  0  0  0
   10.1908  -14.8707   27.9081 C   0  0  2  0  0  0  0  0  0  0  0  0
   11.0508  -15.0335   29.1663 C   0  0  0  0  0  0  0  0  0  0  0  0
   10.5440  -15.8427   26.8591 C   0  0  2  0  0  0  0  0  0  0  0  0
    9.7417  -15.5385   25.6325 N   0  0  0  0  0  0  0  0  0  0  0  0
   10.4409  -17.2571   27.0593 C   0  0  0  0  0  0  0  0  0  0  0  0
    9.3882  -17.9222   27.0394 O   0  0  0  0  0  0  0  0  0  0  0  0
   11.5975  -18.0318   27.3063 O   0  0  0  0  0  0  0  0  0  0  0  0
  1  2  1  0
  2  3  1  0
  3  5  1  0
  3  4  1  1
  5  6  2  0
  7  8  1  0
  7  5  1  0
  8  9  1  1
 10 18  1  0
 10  9  1  0
 11 10  2  0
 12 11  1  0
 12 13  1  0
 13 18  2  0
 14 13  1  0
 14 15  2  0
 15 16  1  0
 16 17  2  0
 18 17  1  0
 19  8  1  0
 19 20  2  0
 21 22  1  0
 22 23  1  0
 23 25  1  0
 23 24  1  1
 25 27  1  0
 25 26  1  6
 26 19  1  0
 27 29  1  0
 28 27  2  0
M  END
$$$$
