SWI.pdb
     RDKit          3D

 29 30  0  0  1  0  0  0  0  0999 V2000
   12.5175  -20.3785   20.5711 O   0  0  0  0  0  0  0  0  0  0  0  0
   12.6452  -19.0649   20.9908 C   0  0  0  0  0  0  0  0  0  0  0  0
   11.5607  -18.2012   20.3707 C   0  0  2  0  0  0  0  0  0  0  0  0
   11.9913  -17.6166   19.1232 N   0  0  0  0  0  0  0  0  0  0  0  0
   11.1461  -17.1119   21.2785 C   0  0  0  0  0  0  0  0  0  0  0  0
   11.7844  -16.0052   21.3115 O   0  0  0  0  0  0  0  0  0  0  0  0
   10.0398  -17.2174   22.1530 N   0  0  0  0  0  0  0  0  0  0  0  0
    9.6552  -16.1264   23.0019 C   0  0  1  0  0  0  0  0  0  0  0  0
    8.2236  -15.7531   22.7217 C   0  0  0  0  0  0  0  0  0  0  0  0
    7.8175  -14.4252   23.1607 C   0  0  0  0  0  0  0  0  0  0  0  0
    8.0058  -13.2022   22.4952 C   0  0  0  0  0  0  0  0  0  0  0  0
    7.4586  -12.2164   23.2038 N   0  0  0  0  0  0  0  0  0  0  0  0
    6.9154  -12.7390   24.3140 C   0  0  0  0  0  0  0  0  0  0  0  0
    6.2487  -12.1157   25.3499 C   0  0  0  0  0  0  0  0  0  0  0  0
    5.7655  -12.8210   26.4223 C   0  0  0  0  0  0  0  0  0  0  0  0
    5.9587  -14.1735   26.4484 C   0  0  0  0  0  0  0  0  0  0  0  0
    6.6344  -14.7951   25.3950 C   0  0  0  0  0  0  0  0  0  0  0  0
    7.1285  -14.1052   24.3044 C   0  0  0  0  0  0  0  0  0  0  0  0
    9.7216  -16.5816   24.4136 C   0  0  0  0  0  0  0  0  0  0  0  0
    9.7930  -17.8090   24.6669 O   0  0  0  0  0  0  0  0  0  0  0  0
   10.4184  -14.0724   30.1247 C   0  0  0  0  0  0  0  0  0  0  0  0
   10.7444  -15.0764   29.0931 C   0  0  0  0  0  0  0  0  0  0  0  0
   10.3123  -14.8861   27.7050 C   0  0  2  0  0  0  0  0  0  0  0  0
    9.0345  -14.0458   27.6043 C   0  0  0  0  0  0  0  0  0  0  0  0
   10.2634  -16.0839   26.8489 C   0  0  2  0  0  0  0  0  0  0  0  0
    9.7093  -15.6973   25.5131 N   0  0  0  0  0  0  0  0  0  0  0  0
    9.5684  -17.2747   27.2366 C   0  0  0  0  0  0  0  0  0  0  0  0
    8.4653  -17.6514   26.7980 O   0  0  0  0  0  0  0  0  0  0  0  0
   10.1254  -18.1483   28.1985 O   0  0  0  0  0  0  0  0  0  0  0  0
  1  2  1  0
  2  3  1  0
  3  5  1  0
  3  4  1  6
  5  6  2  0
  7  8  1  0
  7  5  1  0
  8  9  1  6
 10 18  1  0
 10  9  1  0
 11 10  2  0
 12 11  1  0
 12 13  1  0
 13 18  2  0
 14 13  1  0
 14 15  2  0
 15 16  1  0
 16 17  2  0
 18 17  1  0
 19  8  1  0
 19 20  2  0
 21 22  1  0
 22 23  1  0
 23 25  1  0
 23 24  1  1
 25 27  1  0
 25 26  1  6
 26 19  1  0
 27 29  1  0
 28 27  2  0
M  END
$$$$
