SWI.pdb
     RDKit          3D

 29 30  0  0  1  0  0  0  0  0999 V2000
   12.6043  -18.3387   21.2451 O   0  0  0  0  0  0  0  0  0  0  0  0
   12.5419  -17.4109   20.2187 C   0  0  0  0  0  0  0  0  0  0  0  0
   11.1222  -16.8977   20.0520 C   0  0  2  0  0  0  0  0  0  0  0  0
   11.0064  -16.0029   18.9254 N   0  0  0  0  0  0  0  0  0  0  0  0
   10.6532  -16.1898   21.2610 C   0  0  0  0  0  0  0  0  0  0  0  0
   10.9675  -14.9689   21.4709 O   0  0  0  0  0  0  0  0  0  0  0  0
    9.8432  -16.8011   22.2457 N   0  0  0  0  0  0  0  0  0  0  0  0
    9.3081  -16.0468   23.3428 C   0  0  1  0  0  0  0  0  0  0  0  0
    7.8127  -16.2177   23.3873 C   0  0  0  0  0  0  0  0  0  0  0  0
    7.1212  -15.4769   24.4333 C   0  0  0  0  0  0  0  0  0  0  0  0
    6.4172  -15.9936   25.5340 C   0  0  0  0  0  0  0  0  0  0  0  0
    5.9594  -14.9932   26.2842 N   0  0  0  0  0  0  0  0  0  0  0  0
    6.3323  -13.8329   25.7226 C   0  0  0  0  0  0  0  0  0  0  0  0
    6.0880  -12.5358   26.1274 C   0  0  0  0  0  0  0  0  0  0  0  0
    6.5462  -11.4600   25.4108 C   0  0  0  0  0  0  0  0  0  0  0  0
    7.2602  -11.6978   24.2701 C   0  0  0  0  0  0  0  0  0  0  0  0
    7.5024  -13.0143   23.8689 C   0  0  0  0  0  0  0  0  0  0  0  0
    7.0519  -14.1130   24.5755 C   0  0  0  0  0  0  0  0  0  0  0  0
    9.8511  -16.6043   24.6073 C   0  0  0  0  0  0  0  0  0  0  0  0
   10.2463  -17.7954   24.6409 O   0  0  0  0  0  0  0  0  0  0  0  0
    9.7924  -13.8285   29.7882 C   0  0  0  0  0  0  0  0  0  0  0  0
    9.6624  -14.8573   28.7379 C   0  0  0  0  0  0  0  0  0  0  0  0
   10.8354  -15.2970   27.9761 C   0  0  2  0  0  0  0  0  0  0  0  0
   11.6030  -14.1214   27.3613 C   0  0  0  0  0  0  0  0  0  0  0  0
   10.6372  -16.3983   27.0181 C   0  0  2  0  0  0  0  0  0  0  0  0
    9.9526  -15.8589   25.8010 N   0  0  0  0  0  0  0  0  0  0  0  0
    9.9391  -17.5996   27.3655 C   0  0  0  0  0  0  0  0  0  0  0  0
    8.8083  -17.9295   26.9613 O   0  0  0  0  0  0  0  0  0  0  0  0
   10.5262  -18.5415   28.2412 O   0  0  0  0  0  0  0  0  0  0  0  0
  1  2  1  0
  2  3  1  0
  3  5  1  0
  3  4  1  6
  5  6  2  0
  7  8  1  0
  7  5  1  0
  8  9  1  1
 10 18  1  0
 10  9  1  0
 11 10  2  0
 12 11  1  0
 12 13  1  0
 13 18  2  0
 14 13  1  0
 14 15  2  0
 15 16  1  0
 16 17  2  0
 18 17  1  0
 19  8  1  0
 19 20  2  0
 21 22  1  0
 22 23  1  0
 23 25  1  0
 23 24  1  6
 25 27  1  0
 25 26  1  6
 26 19  1  0
 27 29  1  0
 28 27  2  0
M  END
$$$$
