SWI.pdb
     RDKit          3D

 29 30  0  0  1  0  0  0  0  0999 V2000
   12.4117  -16.7667   19.3050 O   0  0  0  0  0  0  0  0  0  0  0  0
   11.5648  -17.7259   19.8348 C   0  0  0  0  0  0  0  0  0  0  0  0
   10.1680  -17.1585   20.0184 C   0  0  2  0  0  0  0  0  0  0  0  0
    9.7036  -16.4867   18.8282 N   0  0  0  0  0  0  0  0  0  0  0  0
   10.1110  -16.2050   21.1454 C   0  0  0  0  0  0  0  0  0  0  0  0
    9.9172  -14.9582   20.9421 O   0  0  0  0  0  0  0  0  0  0  0  0
   10.2635  -16.5981   22.4951 N   0  0  0  0  0  0  0  0  0  0  0  0
    9.5230  -15.9591   23.5449 C   0  0  1  0  0  0  0  0  0  0  0  0
    8.0527  -16.2224   23.3541 C   0  0  0  0  0  0  0  0  0  0  0  0
    7.1658  -15.5979   24.3258 C   0  0  0  0  0  0  0  0  0  0  0  0
    6.3621  -16.2293   25.2900 C   0  0  0  0  0  0  0  0  0  0  0  0
    5.7253  -15.3115   26.0147 N   0  0  0  0  0  0  0  0  0  0  0  0
    6.0754  -14.0957   25.5675 C   0  0  0  0  0  0  0  0  0  0  0  0
    5.6723  -12.8464   25.9950 C   0  0  0  0  0  0  0  0  0  0  0  0
    6.1347  -11.6992   25.4025 C   0  0  0  0  0  0  0  0  0  0  0  0
    7.0156  -11.8159   24.3643 C   0  0  0  0  0  0  0  0  0  0  0  0
    7.4177  -13.0848   23.9391 C   0  0  0  0  0  0  0  0  0  0  0  0
    6.9661  -14.2537   24.5216 C   0  0  0  0  0  0  0  0  0  0  0  0
    9.9142  -16.5732   24.8389 C   0  0  0  0  0  0  0  0  0  0  0  0
   10.2933  -17.7696   24.8683 O   0  0  0  0  0  0  0  0  0  0  0  0
   10.5411  -12.8425   28.8952 C   0  0  0  0  0  0  0  0  0  0  0  0
   10.6930  -13.9336   27.9129 C   0  0  0  0  0  0  0  0  0  0  0  0
   10.5422  -15.3329   28.3239 C   0  0  2  0  0  0  0  0  0  0  0  0
   11.4013  -15.6752   29.5462 C   0  0  0  0  0  0  0  0  0  0  0  0
   10.6391  -16.3551   27.2677 C   0  0  2  0  0  0  0  0  0  0  0  0
    9.8855  -15.8770   26.0659 N   0  0  0  0  0  0  0  0  0  0  0  0
   10.2330  -17.7126   27.4758 C   0  0  0  0  0  0  0  0  0  0  0  0
    9.0833  -18.1634   27.3143 O   0  0  0  0  0  0  0  0  0  0  0  0
   11.1684  -18.6828   27.9029 O   0  0  0  0  0  0  0  0  0  0  0  0
  1  2  1  0
  2  3  1  0
  3  5  1  0
  3  4  1  6
  5  6  2  0
  7  8  1  0
  7  5  1  0
  8  9  1  6
 10 18  1  0
 10  9  1  0
 11 10  2  0
 12 11  1  0
 12 13  1  0
 13 18  2  0
 14 13  1  0
 14 15  2  0
 15 16  1  0
 16 17  2  0
 18 17  1  0
 19  8  1  0
 19 20  2  0
 21 22  1  0
 22 23  1  0
 23 25  1  0
 23 24  1  1
 25 27  1  0
 25 26  1  6
 26 19  1  0
 27 29  1  0
 28 27  2  0
M  END
$$$$
