ESR.pdb
     RDKit          3D

 27 26  0  0  1  0  0  0  0  0999 V2000
   18.7655  -27.3081   -9.7381 N   0  0  0  0  0  0  0  0  0  0  0  0
   18.0783  -26.0664   -9.6276 C   0  0  1  0  0  0  0  0  0  0  0  0
   18.5486  -25.2655   -8.4758 C   0  0  0  0  0  0  0  0  0  0  0  0
   18.3370  -25.8699   -7.1284 C   0  0  0  0  0  0  0  0  0  0  0  0
   18.6887  -25.0523   -5.9639 C   0  0  0  0  0  0  0  0  0  0  0  0
   19.1601  -23.8942   -5.9795 O   0  0  0  0  0  0  0  0  0  0  0  0
   18.2189  -25.3488  -10.9271 C   0  0  0  0  0  0  0  0  0  0  0  0
   19.0696  -25.7062  -11.7908 O   0  0  0  0  0  0  0  0  0  0  0  0
   18.4971  -25.5732   -4.6546 O   0  0  0  0  0  0  0  0  0  0  0  0
   16.6645  -21.6808  -11.3093 O   0  0  0  0  0  0  0  0  0  0  0  0
   16.4911  -22.4150  -12.4904 C   0  0  0  0  0  0  0  0  0  0  0  0
   17.5743  -23.5057  -12.5040 C   0  0  2  0  0  0  0  0  0  0  0  0
   17.4142  -24.2288  -11.2751 N   0  0  0  0  0  0  0  0  0  0  0  0
   18.8627  -22.8103  -12.6425 C   0  0  0  0  0  0  0  0  0  0  0  0
   19.6141  -22.4596  -11.7092 O   0  0  0  0  0  0  0  0  0  0  0  0
   26.3215  -24.8601  -15.7258 N   0  0  0  0  0  0  0  0  0  0  0  0
   25.8269  -23.9044  -16.6363 C   0  0  0  0  0  0  0  0  0  0  0  0
   26.4045  -23.7226  -17.7811 N   0  0  0  0  0  0  0  0  0  0  0  0
   24.6879  -23.1219  -16.3092 N   0  0  0  0  0  0  0  0  0  0  0  0
   24.1141  -23.1694  -14.9963 C   0  0  0  0  0  0  0  0  0  0  0  0
   22.9684  -22.2437  -14.7741 C   0  0  0  0  0  0  0  0  0  0  0  0
   21.6533  -22.8998  -14.4869 C   0  0  0  0  0  0  0  0  0  0  0  0
   20.5701  -21.8776  -14.2076 C   0  0  2  0  0  0  0  0  0  0  0  0
   19.2883  -22.5112  -13.9701 N   0  0  0  0  0  0  0  0  0  0  0  0
   20.4453  -21.0402  -15.4277 C   0  0  0  0  0  0  0  0  0  0  0  0
   19.7072  -21.3746  -16.3909 O   0  0  0  0  0  0  0  0  0  0  0  0
   21.1415  -19.8427  -15.5619 O   0  0  0  0  0  0  0  0  0  0  0  0
  2  3  1  0
  2  1  1  6
  3  4  1  0
  4  5  1  0
  5  6  2  0
  5  9  1  0
  7  2  1  0
  7  8  2  0
 10 11  1  0
 12 11  1  1
 12 13  1  0
 12 14  1  0
 13  7  1  0
 14 24  1  0
 15 14  2  0
 16 17  1  0
 17 18  2  0
 19 20  1  0
 19 17  1  0
 21 22  1  0
 21 20  1  0
 23 22  1  6
 23 25  1  0
 24 23  1  0
 25 26  2  0
 25 27  1  0
M  END
$$$$
