ESR.pdb
     RDKit          3D

 27 26  0  0  1  0  0  0  0  0999 V2000
   18.9814  -11.4607  -17.3972 N   0  0  0  0  0  0  0  0  0  0  0  0
   17.6484  -11.0414  -17.1259 C   0  0  1  0  0  0  0  0  0  0  0  0
   16.8343  -12.1176  -16.5191 C   0  0  0  0  0  0  0  0  0  0  0  0
   17.5352  -12.9927  -15.5350 C   0  0  0  0  0  0  0  0  0  0  0  0
   16.7137  -13.9392  -14.7749 C   0  0  0  0  0  0  0  0  0  0  0  0
   16.6533  -15.1771  -14.9416 O   0  0  0  0  0  0  0  0  0  0  0  0
   17.7180   -9.8189  -16.2750 C   0  0  0  0  0  0  0  0  0  0  0  0
   16.6727   -9.2361  -15.8686 O   0  0  0  0  0  0  0  0  0  0  0  0
   15.8784  -13.4627  -13.7274 O   0  0  0  0  0  0  0  0  0  0  0  0
   20.6362   -6.9418  -13.7268 O   0  0  0  0  0  0  0  0  0  0  0  0
   20.5244   -7.8029  -14.8270 C   0  0  0  0  0  0  0  0  0  0  0  0
   19.0253   -8.0701  -15.0373 C   0  0  2  0  0  0  0  0  0  0  0  0
   18.9507   -9.2361  -15.8701 N   0  0  0  0  0  0  0  0  0  0  0  0
   18.4660   -6.8504  -15.6390 C   0  0  0  0  0  0  0  0  0  0  0  0
   18.4863   -6.5512  -16.8510 O   0  0  0  0  0  0  0  0  0  0  0  0
   12.6133   -0.7517  -12.5626 N   0  0  0  0  0  0  0  0  0  0  0  0
   13.1781   -0.2054  -13.7329 C   0  0  0  0  0  0  0  0  0  0  0  0
   12.7883    0.9466  -14.1782 N   0  0  0  0  0  0  0  0  0  0  0  0
   14.1820   -0.9136  -14.4450 N   0  0  0  0  0  0  0  0  0  0  0  0
   14.6735   -2.1731  -13.9682 C   0  0  0  0  0  0  0  0  0  0  0  0
   15.6942   -2.8225  -14.8373 C   0  0  0  0  0  0  0  0  0  0  0  0
   16.1992   -4.1494  -14.3610 C   0  0  0  0  0  0  0  0  0  0  0  0
   17.3159   -4.6697  -15.2432 C   0  0  2  0  0  0  0  0  0  0  0  0
   17.8433   -5.9262  -14.7494 N   0  0  0  0  0  0  0  0  0  0  0  0
   18.4081   -3.6649  -15.1904 C   0  0  0  0  0  0  0  0  0  0  0  0
   19.2655   -3.6627  -14.2687 O   0  0  0  0  0  0  0  0  0  0  0  0
   18.5341   -2.6762  -16.1616 O   0  0  0  0  0  0  0  0  0  0  0  0
  2  3  1  0
  2  1  1  1
  3  4  1  0
  4  5  1  0
  5  6  2  0
  5  9  1  0
  7  2  1  0
  7  8  2  0
 10 11  1  0
 12 11  1  6
 12 13  1  0
 12 14  1  0
 13  7  1  0
 14 24  1  0
 15 14  2  0
 16 17  1  0
 17 18  2  0
 19 20  1  0
 19 17  1  0
 21 22  1  0
 21 20  1  0
 23 22  1  1
 23 25  1  0
 24 23  1  0
 25 26  2  0
 25 27  1  0
M  END
$$$$
