ESR.pdb
     RDKit          3D

 27 26  0  0  1  0  0  0  0  0999 V2000
   12.9227  -10.2128   -9.1824 N   0  0  0  0  0  0  0  0  0  0  0  0
   14.2028   -9.7377   -9.5849 C   0  0  1  0  0  0  0  0  0  0  0  0
   14.7277  -10.4670  -10.7604 C   0  0  0  0  0  0  0  0  0  0  0  0
   14.9844  -11.9237  -10.5658 C   0  0  0  0  0  0  0  0  0  0  0  0
   15.3816  -12.6981  -11.7451 C   0  0  0  0  0  0  0  0  0  0  0  0
   15.5439  -13.9366  -11.8053 O   0  0  0  0  0  0  0  0  0  0  0  0
   14.0930   -8.2689   -9.8172 C   0  0  0  0  0  0  0  0  0  0  0  0
   12.9706   -7.6901   -9.8699 O   0  0  0  0  0  0  0  0  0  0  0  0
   15.6214  -12.0302  -12.9775 O   0  0  0  0  0  0  0  0  0  0  0  0
   15.2948   -5.8164   -7.9597 O   0  0  0  0  0  0  0  0  0  0  0  0
   14.5433   -5.3679   -9.0544 C   0  0  0  0  0  0  0  0  0  0  0  0
   15.1316   -6.0371  -10.3070 C   0  0  2  0  0  0  0  0  0  0  0  0
   15.2308   -7.4334   -9.9923 N   0  0  0  0  0  0  0  0  0  0  0  0
   16.4184   -5.3745  -10.5669 C   0  0  0  0  0  0  0  0  0  0  0  0
   17.4507   -5.4726   -9.8716 O   0  0  0  0  0  0  0  0  0  0  0  0
   21.1014   -8.3909  -12.2174 N   0  0  0  0  0  0  0  0  0  0  0  0
   20.8047   -8.2127  -13.5839 C   0  0  0  0  0  0  0  0  0  0  0  0
   21.5855   -8.6961  -14.4972 N   0  0  0  0  0  0  0  0  0  0  0  0
   19.6452   -7.4952  -13.9803 N   0  0  0  0  0  0  0  0  0  0  0  0
   19.4783   -6.1147  -13.6314 C   0  0  0  0  0  0  0  0  0  0  0  0
   18.1706   -5.5183  -14.0226 C   0  0  0  0  0  0  0  0  0  0  0  0
   17.9669   -4.0890  -13.6247 C   0  0  0  0  0  0  0  0  0  0  0  0
   17.7464   -3.9525  -12.1318 C   0  0  2  0  0  0  0  0  0  0  0  0
   16.4874   -4.5429  -11.7231 N   0  0  0  0  0  0  0  0  0  0  0  0
   17.6840   -2.4980  -11.8385 C   0  0  0  0  0  0  0  0  0  0  0  0
   16.5985   -1.9197  -11.5708 O   0  0  0  0  0  0  0  0  0  0  0  0
   18.8277   -1.7050  -11.8460 O   0  0  0  0  0  0  0  0  0  0  0  0
  2  3  1  0
  2  1  1  6
  3  4  1  0
  4  5  1  0
  5  6  2  0
  5  9  1  0
  7  2  1  0
  7  8  2  0
 10 11  1  0
 12 11  1  1
 12 13  1  0
 12 14  1  0
 13  7  1  0
 14 24  1  0
 15 14  2  0
 16 17  1  0
 17 18  2  0
 19 20  1  0
 19 17  1  0
 21 22  1  0
 21 20  1  0
 23 22  1  6
 23 25  1  0
 24 23  1  0
 25 26  2  0
 25 27  1  0
M  END
$$$$
