ESR.pdb
     RDKit          3D

 27 26  0  0  1  0  0  0  0  0999 V2000
   21.8991   -9.9410  -14.8264 N   0  0  0  0  0  0  0  0  0  0  0  0
   21.2646   -8.7128  -15.1659 C   0  0  1  0  0  0  0  0  0  0  0  0
   20.1008   -8.9104  -16.0579 C   0  0  0  0  0  0  0  0  0  0  0  0
   19.0076   -9.7749  -15.5257 C   0  0  0  0  0  0  0  0  0  0  0  0
   17.8151   -9.9390  -16.3619 C   0  0  0  0  0  0  0  0  0  0  0  0
   16.7993  -10.6157  -16.0895 O   0  0  0  0  0  0  0  0  0  0  0  0
   20.9089   -8.0159  -13.8966 C   0  0  0  0  0  0  0  0  0  0  0  0
   20.3855   -8.6349  -12.9269 O   0  0  0  0  0  0  0  0  0  0  0  0
   17.7452   -9.2868  -17.6236 O   0  0  0  0  0  0  0  0  0  0  0  0
   20.6530   -3.9518  -13.7250 O   0  0  0  0  0  0  0  0  0  0  0  0
   21.3305   -4.5154  -12.6352 C   0  0  0  0  0  0  0  0  0  0  0  0
   20.8050   -5.9509  -12.4737 C   0  0  2  0  0  0  0  0  0  0  0  0
   21.1330   -6.6255  -13.6968 N   0  0  0  0  0  0  0  0  0  0  0  0
   19.3639   -5.8382  -12.2034 C   0  0  0  0  0  0  0  0  0  0  0  0
   18.4569   -5.7759  -13.0592 O   0  0  0  0  0  0  0  0  0  0  0  0
   13.2432   -9.6559   -7.5763 N   0  0  0  0  0  0  0  0  0  0  0  0
   12.7677   -8.3301   -7.6297 C   0  0  0  0  0  0  0  0  0  0  0  0
   11.5648   -8.0443   -7.2442 N   0  0  0  0  0  0  0  0  0  0  0  0
   13.6009   -7.2864   -8.1124 N   0  0  0  0  0  0  0  0  0  0  0  0
   14.9558   -7.5461   -8.5022 C   0  0  0  0  0  0  0  0  0  0  0  0
   15.6861   -6.3765   -9.0656 C   0  0  0  0  0  0  0  0  0  0  0  0
   17.0926   -6.6429   -9.5052 C   0  0  0  0  0  0  0  0  0  0  0  0
   17.5848   -5.5833  -10.4701 C   0  0  2  0  0  0  0  0  0  0  0  0
   18.9717   -5.7964  -10.8332 N   0  0  0  0  0  0  0  0  0  0  0  0
   17.4944   -4.2817   -9.7607 C   0  0  0  0  0  0  0  0  0  0  0  0
   18.4994   -3.7452   -9.2253 O   0  0  0  0  0  0  0  0  0  0  0  0
   16.2896   -3.5931   -9.6555 O   0  0  0  0  0  0  0  0  0  0  0  0
  2  3  1  0
  2  1  1  1
  3  4  1  0
  4  5  1  0
  5  6  2  0
  5  9  1  0
  7  2  1  0
  7  8  2  0
 10 11  1  0
 12 11  1  6
 12 13  1  0
 12 14  1  0
 13  7  1  0
 14 24  1  0
 15 14  2  0
 16 17  1  0
 17 18  2  0
 19 20  1  0
 19 17  1  0
 21 22  1  0
 21 20  1  0
 23 22  1  1
 23 25  1  0
 24 23  1  0
 25 26  2  0
 25 27  1  0
M  END
$$$$
