ESR.pdb
     RDKit          3D

 27 26  0  0  1  0  0  0  0  0999 V2000
   24.3079  -20.1165  -17.5774 N   0  0  0  0  0  0  0  0  0  0  0  0
   25.0165  -19.4665  -16.5277 C   0  0  1  0  0  0  0  0  0  0  0  0
   25.5889  -18.1710  -16.9557 C   0  0  0  0  0  0  0  0  0  0  0  0
   25.9159  -18.0471  -18.4060 C   0  0  0  0  0  0  0  0  0  0  0  0
   26.5034  -16.7817  -18.8553 C   0  0  0  0  0  0  0  0  0  0  0  0
   26.7732  -15.7893  -18.1438 O   0  0  0  0  0  0  0  0  0  0  0  0
   24.0919  -19.3346  -15.3653 C   0  0  0  0  0  0  0  0  0  0  0  0
   24.4133  -18.6743  -14.3367 O   0  0  0  0  0  0  0  0  0  0  0  0
   26.8221  -16.6025  -20.2296 O   0  0  0  0  0  0  0  0  0  0  0  0
   20.7924  -18.0530  -15.4834 O   0  0  0  0  0  0  0  0  0  0  0  0
   21.4887  -18.2681  -14.2862 C   0  0  0  0  0  0  0  0  0  0  0  0
   21.8802  -19.7544  -14.2557 C   0  0  2  0  0  0  0  0  0  0  0  0
   22.8033  -19.9362  -15.3389 N   0  0  0  0  0  0  0  0  0  0  0  0
   20.6289  -20.5166  -14.3822 C   0  0  0  0  0  0  0  0  0  0  0  0
   20.0900  -20.8751  -15.4498 O   0  0  0  0  0  0  0  0  0  0  0  0
   16.3559  -24.9506   -8.0903 N   0  0  0  0  0  0  0  0  0  0  0  0
   17.5720  -25.1691   -8.7686 C   0  0  0  0  0  0  0  0  0  0  0  0
   18.4866  -25.9291   -8.2556 N   0  0  0  0  0  0  0  0  0  0  0  0
   17.8149  -24.5541  -10.0253 N   0  0  0  0  0  0  0  0  0  0  0  0
   16.7952  -23.7876  -10.6795 C   0  0  0  0  0  0  0  0  0  0  0  0
   17.2101  -23.1461  -11.9583 C   0  0  0  0  0  0  0  0  0  0  0  0
   18.4623  -22.3274  -11.8945 C   0  0  0  0  0  0  0  0  0  0  0  0
   18.7130  -21.5908  -13.1948 C   0  0  2  0  0  0  0  0  0  0  0  0
   19.9742  -20.8769  -13.1679 N   0  0  0  0  0  0  0  0  0  0  0  0
   17.6256  -20.5895  -13.3373 C   0  0  0  0  0  0  0  0  0  0  0  0
   17.8098  -19.3686  -13.0926 O   0  0  0  0  0  0  0  0  0  0  0  0
   16.3483  -20.9570  -13.7498 O   0  0  0  0  0  0  0  0  0  0  0  0
  2  3  1  0
  2  1  1  6
  3  4  1  0
  4  5  1  0
  5  6  2  0
  5  9  1  0
  7  2  1  0
  7  8  2  0
 10 11  1  0
 12 11  1  6
 12 13  1  0
 12 14  1  0
 13  7  1  0
 14 24  1  0
 15 14  2  0
 16 17  1  0
 17 18  2  0
 19 20  1  0
 19 17  1  0
 21 22  1  0
 21 20  1  0
 23 22  1  1
 23 25  1  0
 24 23  1  0
 25 26  2  0
 25 27  1  0
M  END
$$$$
