ESR.pdb
     RDKit          3D

 27 26  0  0  1  0  0  0  0  0999 V2000
   24.5481  -15.9985  -19.5486 N   0  0  0  0  0  0  0  0  0  0  0  0
   24.1862  -17.3505  -19.2886 C   0  0  1  0  0  0  0  0  0  0  0  0
   25.3481  -18.2643  -19.3515 C   0  0  0  0  0  0  0  0  0  0  0  0
   26.4914  -17.9322  -18.4524 C   0  0  0  0  0  0  0  0  0  0  0  0
   27.8311  -17.9219  -19.0469 C   0  0  0  0  0  0  0  0  0  0  0  0
   28.5547  -18.9160  -19.2747 O   0  0  0  0  0  0  0  0  0  0  0  0
   23.4884  -17.3917  -17.9715 C   0  0  0  0  0  0  0  0  0  0  0  0
   23.8970  -16.7147  -16.9855 O   0  0  0  0  0  0  0  0  0  0  0  0
   28.4236  -16.6857  -19.4252 O   0  0  0  0  0  0  0  0  0  0  0  0
   20.0000  -19.4488  -17.6342 O   0  0  0  0  0  0  0  0  0  0  0  0
   20.1726  -18.3536  -16.7768 C   0  0  0  0  0  0  0  0  0  0  0  0
   21.6754  -18.2581  -16.4677 C   0  0  2  0  0  0  0  0  0  0  0  0
   22.3311  -18.1862  -17.7418 N   0  0  0  0  0  0  0  0  0  0  0  0
   22.0124  -19.4475  -15.6712 C   0  0  0  0  0  0  0  0  0  0  0  0
   22.4721  -20.5219  -16.1108 O   0  0  0  0  0  0  0  0  0  0  0  0
   26.2736  -22.3270  -11.8880 N   0  0  0  0  0  0  0  0  0  0  0  0
   26.5609  -21.0174  -11.4527 C   0  0  0  0  0  0  0  0  0  0  0  0
   27.6556  -20.4271  -11.8140 N   0  0  0  0  0  0  0  0  0  0  0  0
   25.6545  -20.3261  -10.6060 N   0  0  0  0  0  0  0  0  0  0  0  0
   24.3705  -20.8812  -10.2921 C   0  0  0  0  0  0  0  0  0  0  0  0
   23.5225  -21.2165  -11.4700 C   0  0  0  0  0  0  0  0  0  0  0  0
   23.1372  -20.0598  -12.3395 C   0  0  0  0  0  0  0  0  0  0  0  0
   22.1299  -20.4681  -13.3954 C   0  0  2  0  0  0  0  0  0  0  0  0
   21.7912  -19.3594  -14.2654 N   0  0  0  0  0  0  0  0  0  0  0  0
   20.8963  -20.8765  -12.6765 C   0  0  0  0  0  0  0  0  0  0  0  0
   19.9738  -20.0589  -12.4216 O   0  0  0  0  0  0  0  0  0  0  0  0
   20.7032  -22.1873  -12.2506 O   0  0  0  0  0  0  0  0  0  0  0  0
  2  3  1  0
  2  1  1  1
  3  4  1  0
  4  5  1  0
  5  6  2  0
  5  9  1  0
  7  2  1  0
  7  8  2  0
 10 11  1  0
 12 11  1  6
 12 13  1  0
 12 14  1  0
 13  7  1  0
 14 24  1  0
 15 14  2  0
 16 17  1  0
 17 18  2  0
 19 20  1  0
 19 17  1  0
 21 22  1  0
 21 20  1  0
 23 22  1  1
 23 25  1  0
 24 23  1  0
 25 26  2  0
 25 27  1  0
M  END
$$$$
