ESR.pdb
     RDKit          3D

 27 26  0  0  1  0  0  0  0  0999 V2000
   14.5853  -12.5696  -10.9520 N   0  0  0  0  0  0  0  0  0  0  0  0
   13.8644  -11.8298  -11.9314 C   0  0  1  0  0  0  0  0  0  0  0  0
   12.4785  -12.3207  -12.0973 C   0  0  0  0  0  0  0  0  0  0  0  0
   11.8849  -13.0162  -10.9185 C   0  0  0  0  0  0  0  0  0  0  0  0
   10.5558  -12.5797  -10.4815 C   0  0  0  0  0  0  0  0  0  0  0  0
   10.2983  -11.8033   -9.5356 O   0  0  0  0  0  0  0  0  0  0  0  0
   13.9262  -10.3889  -11.5529 C   0  0  0  0  0  0  0  0  0  0  0  0
   13.4385   -9.4892  -12.2945 O   0  0  0  0  0  0  0  0  0  0  0  0
    9.4005  -13.0523  -11.1629 O   0  0  0  0  0  0  0  0  0  0  0  0
   14.7378   -9.5806   -7.8600 O   0  0  0  0  0  0  0  0  0  0  0  0
   14.1666   -8.4803   -8.5138 C   0  0  0  0  0  0  0  0  0  0  0  0
   14.6091   -8.5526   -9.9842 C   0  0  2  0  0  0  0  0  0  0  0  0
   14.5308   -9.9386  -10.3466 N   0  0  0  0  0  0  0  0  0  0  0  0
   15.9626   -7.9801  -10.0397 C   0  0  0  0  0  0  0  0  0  0  0  0
   17.0339   -8.6211  -10.0325 O   0  0  0  0  0  0  0  0  0  0  0  0
   22.2830   -6.7480  -11.8317 N   0  0  0  0  0  0  0  0  0  0  0  0
   21.8028   -7.1601  -13.0913 C   0  0  0  0  0  0  0  0  0  0  0  0
   22.6163   -7.6114  -13.9923 N   0  0  0  0  0  0  0  0  0  0  0  0
   20.4174   -7.0822  -13.3933 N   0  0  0  0  0  0  0  0  0  0  0  0
   19.7298   -5.8244  -13.3772 C   0  0  0  0  0  0  0  0  0  0  0  0
   19.0771   -5.4780  -12.0838 C   0  0  0  0  0  0  0  0  0  0  0  0
   17.8825   -6.3047  -11.7206 C   0  0  0  0  0  0  0  0  0  0  0  0
   17.3250   -5.9134  -10.3670 C   0  0  2  0  0  0  0  0  0  0  0  0
   16.0533   -6.5588  -10.1079 N   0  0  0  0  0  0  0  0  0  0  0  0
   17.0922   -4.4472  -10.4063 C   0  0  0  0  0  0  0  0  0  0  0  0
   18.0299   -3.6210  -10.2561 O   0  0  0  0  0  0  0  0  0  0  0  0
   15.8216   -3.9180  -10.6120 O   0  0  0  0  0  0  0  0  0  0  0  0
  2  3  1  0
  2  1  1  1
  3  4  1  0
  4  5  1  0
  5  6  2  0
  5  9  1  0
  7  2  1  0
  7  8  2  0
 10 11  1  0
 12 11  1  1
 12 13  1  0
 12 14  1  0
 13  7  1  0
 14 24  1  0
 15 14  2  0
 16 17  1  0
 17 18  2  0
 19 20  1  0
 19 17  1  0
 21 22  1  0
 21 20  1  0
 23 22  1  6
 23 25  1  0
 24 23  1  0
 25 26  2  0
 25 27  1  0
M  END
$$$$
