ESR.pdb
     RDKit          3D

 27 26  0  0  1  0  0  0  0  0999 V2000
   23.5769  -11.4177  -19.2408 N   0  0  0  0  0  0  0  0  0  0  0  0
   22.1920  -11.1177  -19.3766 C   0  0  1  0  0  0  0  0  0  0  0  0
   21.3771  -12.3281  -19.6211 C   0  0  0  0  0  0  0  0  0  0  0  0
   21.4474  -13.3872  -18.5727 C   0  0  0  0  0  0  0  0  0  0  0  0
   20.7221  -14.6346  -18.8298 C   0  0  0  0  0  0  0  0  0  0  0  0
   20.8270  -15.7047  -18.1913 O   0  0  0  0  0  0  0  0  0  0  0  0
   21.7651  -10.3689  -18.1599 C   0  0  0  0  0  0  0  0  0  0  0  0
   20.5954   -9.9035  -18.0467 O   0  0  0  0  0  0  0  0  0  0  0  0
   19.7891  -14.6981  -19.9012 O   0  0  0  0  0  0  0  0  0  0  0  0
   22.7336   -9.4529  -13.5437 O   0  0  0  0  0  0  0  0  0  0  0  0
   23.2118   -9.9357  -14.7695 C   0  0  0  0  0  0  0  0  0  0  0  0
   22.2053   -9.5002  -15.8467 C   0  0  2  0  0  0  0  0  0  0  0  0
   22.6361  -10.1325  -17.0605 N   0  0  0  0  0  0  0  0  0  0  0  0
   22.2381   -8.0303  -15.8763 C   0  0  0  0  0  0  0  0  0  0  0  0
   23.1874   -7.3229  -16.2728 O   0  0  0  0  0  0  0  0  0  0  0  0
   15.7162   -1.8655  -15.0509 N   0  0  0  0  0  0  0  0  0  0  0  0
   16.9106   -1.1824  -15.3573 C   0  0  0  0  0  0  0  0  0  0  0  0
   16.8988    0.0884  -15.6064 N   0  0  0  0  0  0  0  0  0  0  0  0
   18.1466   -1.8800  -15.4019 N   0  0  0  0  0  0  0  0  0  0  0  0
   18.1978   -3.3006  -15.2154 C   0  0  0  0  0  0  0  0  0  0  0  0
   19.5590   -3.8998  -15.2987 C   0  0  0  0  0  0  0  0  0  0  0  0
   19.6136   -5.3941  -15.2193 C   0  0  0  0  0  0  0  0  0  0  0  0
   21.0333   -5.9074  -15.3506 C   0  0  2  0  0  0  0  0  0  0  0  0
   21.0732   -7.3552  -15.4069 N   0  0  0  0  0  0  0  0  0  0  0  0
   21.7595   -5.4787  -14.1282 C   0  0  0  0  0  0  0  0  0  0  0  0
   22.3472   -4.3677  -14.0593 O   0  0  0  0  0  0  0  0  0  0  0  0
   21.8232   -6.2890  -12.9986 O   0  0  0  0  0  0  0  0  0  0  0  0
  2  3  1  0
  2  1  1  1
  3  4  1  0
  4  5  1  0
  5  6  2  0
  5  9  1  0
  7  2  1  0
  7  8  2  0
 10 11  1  0
 12 11  1  1
 12 13  1  0
 12 14  1  0
 13  7  1  0
 14 24  1  0
 15 14  2  0
 16 17  1  0
 17 18  2  0
 19 20  1  0
 19 17  1  0
 21 22  1  0
 21 20  1  0
 23 22  1  1
 23 25  1  0
 24 23  1  0
 25 26  2  0
 25 27  1  0
M  END
$$$$
