ESR.pdb
     RDKit          3D

 27 26  0  0  1  0  0  0  0  0999 V2000
   16.5464  -10.3874  -16.1886 N   0  0  0  0  0  0  0  0  0  0  0  0
   16.1175  -11.2286  -15.1234 C   0  0  1  0  0  0  0  0  0  0  0  0
   16.5871  -12.6223  -15.2852 C   0  0  0  0  0  0  0  0  0  0  0  0
   17.9876  -12.7887  -15.7718 C   0  0  0  0  0  0  0  0  0  0  0  0
   18.5176  -14.1537  -15.8360 C   0  0  0  0  0  0  0  0  0  0  0  0
   19.2894  -14.6946  -15.0140 O   0  0  0  0  0  0  0  0  0  0  0  0
   16.5685  -10.6111  -13.8433 C   0  0  0  0  0  0  0  0  0  0  0  0
   16.2686  -11.1161  -12.7241 O   0  0  0  0  0  0  0  0  0  0  0  0
   18.1535  -14.9996  -16.9195 O   0  0  0  0  0  0  0  0  0  0  0  0
   18.3360   -6.9822  -13.9628 O   0  0  0  0  0  0  0  0  0  0  0  0
   18.8564   -7.8001  -12.9506 C   0  0  0  0  0  0  0  0  0  0  0  0
   17.7531   -8.8009  -12.5708 C   0  0  2  0  0  0  0  0  0  0  0  0
   17.3563   -9.4277  -13.7990 N   0  0  0  0  0  0  0  0  0  0  0  0
   16.6948   -8.0223  -11.9102 C   0  0  0  0  0  0  0  0  0  0  0  0
   15.7313   -7.4631  -12.4740 O   0  0  0  0  0  0  0  0  0  0  0  0
   10.1292   -8.9677   -6.9373 N   0  0  0  0  0  0  0  0  0  0  0  0
   10.3880   -7.5927   -6.7661 C   0  0  0  0  0  0  0  0  0  0  0  0
    9.4914   -6.8112   -6.2537 N   0  0  0  0  0  0  0  0  0  0  0  0
   11.6368   -7.0419   -7.1580 N   0  0  0  0  0  0  0  0  0  0  0  0
   12.6467   -7.8617   -7.7608 C   0  0  0  0  0  0  0  0  0  0  0  0
   13.8534   -7.1294   -8.2367 C   0  0  0  0  0  0  0  0  0  0  0  0
   14.8677   -7.9576   -8.9630 C   0  0  0  0  0  0  0  0  0  0  0  0
   15.8224   -7.0943   -9.7626 C   0  0  2  0  0  0  0  0  0  0  0  0
   16.7829   -7.8977  -10.4926 N   0  0  0  0  0  0  0  0  0  0  0  0
   16.5717   -6.2644   -8.7853 C   0  0  0  0  0  0  0  0  0  0  0  0
   16.0226   -5.3262   -8.1507 O   0  0  0  0  0  0  0  0  0  0  0  0
   17.9206   -6.4874   -8.5253 O   0  0  0  0  0  0  0  0  0  0  0  0
  2  3  1  0
  2  1  1  6
  3  4  1  0
  4  5  1  0
  5  6  2  0
  5  9  1  0
  7  2  1  0
  7  8  2  0
 10 11  1  0
 12 11  1  6
 12 13  1  0
 12 14  1  0
 13  7  1  0
 14 24  1  0
 15 14  2  0
 16 17  1  0
 17 18  2  0
 19 20  1  0
 19 17  1  0
 21 22  1  0
 21 20  1  0
 23 22  1  1
 23 25  1  0
 24 23  1  0
 25 26  2  0
 25 27  1  0
M  END
$$$$
