ESR.pdb
     RDKit          3D

 27 26  0  0  1  0  0  0  0  0999 V2000
   19.1325  -16.5917  -18.1640 N   0  0  0  0  0  0  0  0  0  0  0  0
   18.1727  -16.1358  -17.2168 C   0  0  1  0  0  0  0  0  0  0  0  0
   17.9486  -17.1143  -16.1298 C   0  0  0  0  0  0  0  0  0  0  0  0
   18.5739  -18.4557  -16.3176 C   0  0  0  0  0  0  0  0  0  0  0  0
   18.4557  -19.4113  -15.2126 C   0  0  0  0  0  0  0  0  0  0  0  0
   18.8496  -20.5982  -15.2062 O   0  0  0  0  0  0  0  0  0  0  0  0
   18.6222  -14.8058  -16.7143 C   0  0  0  0  0  0  0  0  0  0  0  0
   17.9765  -14.1828  -15.8242 O   0  0  0  0  0  0  0  0  0  0  0  0
   17.8396  -19.0078  -13.9961 O   0  0  0  0  0  0  0  0  0  0  0  0
   21.6877  -12.9498  -18.6132 O   0  0  0  0  0  0  0  0  0  0  0  0
   21.6342  -12.6670  -17.2415 C   0  0  0  0  0  0  0  0  0  0  0  0
   20.1691  -12.8315  -16.8062 C   0  0  2  0  0  0  0  0  0  0  0  0
   19.7932  -14.1595  -17.1983 N   0  0  0  0  0  0  0  0  0  0  0  0
   19.4146  -11.7591  -17.4721 C   0  0  0  0  0  0  0  0  0  0  0  0
   18.7377  -11.8733  -18.5149 O   0  0  0  0  0  0  0  0  0  0  0  0
   12.3489   -9.8112  -15.7348 N   0  0  0  0  0  0  0  0  0  0  0  0
   12.9672   -8.5448  -15.7058 C   0  0  0  0  0  0  0  0  0  0  0  0
   12.2583   -7.4666  -15.5958 N   0  0  0  0  0  0  0  0  0  0  0  0
   14.3795   -8.4320  -15.8015 N   0  0  0  0  0  0  0  0  0  0  0  0
   15.2077   -9.5992  -15.8851 C   0  0  0  0  0  0  0  0  0  0  0  0
   16.6647   -9.3300  -16.0383 C   0  0  0  0  0  0  0  0  0  0  0  0
   17.2335   -9.6038  -17.3962 C   0  0  0  0  0  0  0  0  0  0  0  0
   18.7284   -9.3587  -17.4337 C   0  0  2  0  0  0  0  0  0  0  0  0
   19.4648  -10.4700  -16.8649 N   0  0  0  0  0  0  0  0  0  0  0  0
   18.9883   -8.1621  -16.5934 C   0  0  0  0  0  0  0  0  0  0  0  0
   19.4428   -8.2574  -15.4234 O   0  0  0  0  0  0  0  0  0  0  0  0
   18.7403   -6.8759  -17.0632 O   0  0  0  0  0  0  0  0  0  0  0  0
  2  3  1  0
  2  1  1  6
  3  4  1  0
  4  5  1  0
  5  6  2  0
  5  9  1  0
  7  2  1  0
  7  8  2  0
 10 11  1  0
 12 11  1  6
 12 13  1  0
 12 14  1  0
 13  7  1  0
 14 24  1  0
 15 14  2  0
 16 17  1  0
 17 18  2  0
 19 20  1  0
 19 17  1  0
 21 22  1  0
 21 20  1  0
 23 22  1  1
 23 25  1  0
 24 23  1  0
 25 26  2  0
 25 27  1  0
M  END
$$$$
