ESR.pdb
     RDKit          3D

 27 26  0  0  1  0  0  0  0  0999 V2000
   20.3160  -23.9858  -14.1844 N   0  0  0  0  0  0  0  0  0  0  0  0
   19.4294  -24.8120  -13.4376 C   0  0  1  0  0  0  0  0  0  0  0  0
   19.6516  -26.2516  -13.6971 C   0  0  0  0  0  0  0  0  0  0  0  0
   20.8744  -26.8462  -13.0831 C   0  0  0  0  0  0  0  0  0  0  0  0
   21.0949  -28.2814  -13.2828 C   0  0  0  0  0  0  0  0  0  0  0  0
   21.2383  -28.8699  -14.3768 O   0  0  0  0  0  0  0  0  0  0  0  0
   19.5754  -24.4545  -11.9974 C   0  0  0  0  0  0  0  0  0  0  0  0
   20.3800  -23.5569  -11.6174 O   0  0  0  0  0  0  0  0  0  0  0  0
   21.1628  -29.1463  -12.1560 O   0  0  0  0  0  0  0  0  0  0  0  0
   17.1242  -23.2089   -9.8322 O   0  0  0  0  0  0  0  0  0  0  0  0
   18.4905  -23.2465   -9.5217 C   0  0  0  0  0  0  0  0  0  0  0  0
   18.9252  -24.7195   -9.5877 C   0  0  2  0  0  0  0  0  0  0  0  0
   18.8273  -25.0927  -10.9696 N   0  0  0  0  0  0  0  0  0  0  0  0
   18.0272  -25.4588   -8.6880 C   0  0  0  0  0  0  0  0  0  0  0  0
   16.9716  -26.0396   -9.0155 O   0  0  0  0  0  0  0  0  0  0  0  0
   17.7168  -26.4472    0.1906 N   0  0  0  0  0  0  0  0  0  0  0  0
   16.8895  -27.4510   -0.3525 C   0  0  0  0  0  0  0  0  0  0  0  0
   16.1479  -28.1828    0.4168 N   0  0  0  0  0  0  0  0  0  0  0  0
   16.8601  -27.6782   -1.7539 N   0  0  0  0  0  0  0  0  0  0  0  0
   17.6915  -26.9183   -2.6408 C   0  0  0  0  0  0  0  0  0  0  0  0
   17.5761  -27.2814   -4.0809 C   0  0  0  0  0  0  0  0  0  0  0  0
   18.3337  -26.4065   -5.0311 C   0  0  0  0  0  0  0  0  0  0  0  0
   17.6341  -26.3027   -6.3712 C   0  0  2  0  0  0  0  0  0  0  0  0
   18.4025  -25.5140   -7.3136 N   0  0  0  0  0  0  0  0  0  0  0  0
   16.3482  -25.5999   -6.1307 C   0  0  0  0  0  0  0  0  0  0  0  0
   16.2668  -24.3438   -6.1319 O   0  0  0  0  0  0  0  0  0  0  0  0
   15.1698  -26.3009   -5.8923 O   0  0  0  0  0  0  0  0  0  0  0  0
  2  3  1  0
  2  1  1  6
  3  4  1  0
  4  5  1  0
  5  6  2  0
  5  9  1  0
  7  2  1  0
  7  8  2  0
 10 11  1  0
 12 11  1  6
 12 13  1  0
 12 14  1  0
 13  7  1  0
 14 24  1  0
 15 14  2  0
 16 17  1  0
 17 18  2  0
 19 20  1  0
 19 17  1  0
 21 22  1  0
 21 20  1  0
 23 22  1  1
 23 25  1  0
 24 23  1  0
 25 26  2  0
 25 27  1  0
M  END
$$$$
