ESR.pdb
     RDKit          3D

 27 26  0  0  1  0  0  0  0  0999 V2000
   19.8282  -10.6011  -15.4490 N   0  0  0  0  0  0  0  0  0  0  0  0
   19.7147   -9.1823  -15.4266 C   0  0  1  0  0  0  0  0  0  0  0  0
   18.4899   -8.7066  -16.1068 C   0  0  0  0  0  0  0  0  0  0  0  0
   18.0843   -9.4614  -17.3281 C   0  0  0  0  0  0  0  0  0  0  0  0
   16.9426   -8.9442  -18.0878 C   0  0  0  0  0  0  0  0  0  0  0  0
   16.2389   -7.9525  -17.7959 O   0  0  0  0  0  0  0  0  0  0  0  0
   19.7960   -8.7396  -14.0051 C   0  0  0  0  0  0  0  0  0  0  0  0
   19.3374   -9.4486  -13.0647 O   0  0  0  0  0  0  0  0  0  0  0  0
   16.5447   -9.5929  -19.2891 O   0  0  0  0  0  0  0  0  0  0  0  0
   22.5878   -6.2974  -12.3660 O   0  0  0  0  0  0  0  0  0  0  0  0
   21.2855   -5.7934  -12.2470 C   0  0  0  0  0  0  0  0  0  0  0  0
   20.3329   -6.9995  -12.2779 C   0  0  2  0  0  0  0  0  0  0  0  0
   20.3882   -7.5051  -13.6195 N   0  0  0  0  0  0  0  0  0  0  0  0
   19.0134   -6.4979  -11.8658 C   0  0  0  0  0  0  0  0  0  0  0  0
   18.2663   -5.7548  -12.5355 O   0  0  0  0  0  0  0  0  0  0  0  0
   12.0871  -10.4942   -8.8763 N   0  0  0  0  0  0  0  0  0  0  0  0
   11.7646   -9.1275   -8.7535 C   0  0  0  0  0  0  0  0  0  0  0  0
   10.5356   -8.7510   -8.5950 N   0  0  0  0  0  0  0  0  0  0  0  0
   12.7843   -8.1406   -8.8063 N   0  0  0  0  0  0  0  0  0  0  0  0
   14.1429   -8.4998   -9.0900 C   0  0  0  0  0  0  0  0  0  0  0  0
   15.1077   -7.3649   -9.0972 C   0  0  0  0  0  0  0  0  0  0  0  0
   16.5125   -7.7130   -9.4818 C   0  0  0  0  0  0  0  0  0  0  0  0
   17.2196   -6.5397  -10.1294 C   0  0  2  0  0  0  0  0  0  0  0  0
   18.5490   -6.9014  -10.5796 N   0  0  0  0  0  0  0  0  0  0  0  0
   17.3613   -5.4940   -9.0845 C   0  0  0  0  0  0  0  0  0  0  0  0
   18.4086   -5.3801   -8.3956 O   0  0  0  0  0  0  0  0  0  0  0  0
   16.3384   -4.5886   -8.8185 O   0  0  0  0  0  0  0  0  0  0  0  0
  2  3  1  0
  2  1  1  1
  3  4  1  0
  4  5  1  0
  5  6  2  0
  5  9  1  0
  7  2  1  0
  7  8  2  0
 10 11  1  0
 12 11  1  6
 12 13  1  0
 12 14  1  0
 13  7  1  0
 14 24  1  0
 15 14  2  0
 16 17  1  0
 17 18  2  0
 19 20  1  0
 19 17  1  0
 21 22  1  0
 21 20  1  0
 23 22  1  1
 23 25  1  0
 24 23  1  0
 25 26  2  0
 25 27  1  0
M  END
$$$$
