ESR.pdb
     RDKit          3D

 27 26  0  0  1  0  0  0  0  0999 V2000
   31.5557  -35.8407   -1.8518 N   0  0  0  0  0  0  0  0  0  0  0  0
   30.5088  -36.4637   -1.1154 C   0  0  1  0  0  0  0  0  0  0  0  0
   31.0134  -37.5093   -0.1982 C   0  0  0  0  0  0  0  0  0  0  0  0
   31.4862  -38.7704   -0.8400 C   0  0  0  0  0  0  0  0  0  0  0  0
   30.4678  -39.7576   -1.2094 C   0  0  0  0  0  0  0  0  0  0  0  0
   29.2291  -39.6327   -1.0914 O   0  0  0  0  0  0  0  0  0  0  0  0
   29.7468  -35.3938   -0.4097 C   0  0  0  0  0  0  0  0  0  0  0  0
   30.2641  -34.7228    0.5281 O   0  0  0  0  0  0  0  0  0  0  0  0
   30.8655  -41.0050   -1.7643 O   0  0  0  0  0  0  0  0  0  0  0  0
   25.7902  -34.7896   -1.2917 O   0  0  0  0  0  0  0  0  0  0  0  0
   26.5368  -33.6318   -1.0336 C   0  0  0  0  0  0  0  0  0  0  0  0
   27.6663  -34.0316   -0.0706 C   0  0  2  0  0  0  0  0  0  0  0  0
   28.4041  -35.0625   -0.7424 N   0  0  0  0  0  0  0  0  0  0  0  0
   27.0167  -34.4574    1.1782 C   0  0  0  0  0  0  0  0  0  0  0  0
   26.7338  -35.6306    1.4981 O   0  0  0  0  0  0  0  0  0  0  0  0
   25.9714  -30.1809    9.0231 N   0  0  0  0  0  0  0  0  0  0  0  0
   25.3622  -31.4442    9.1635 C   0  0  0  0  0  0  0  0  0  0  0  0
   24.9437  -31.8502   10.3199 N   0  0  0  0  0  0  0  0  0  0  0  0
   25.2020  -32.2944    8.0374 N   0  0  0  0  0  0  0  0  0  0  0  0
   25.7311  -31.9276    6.7565 C   0  0  0  0  0  0  0  0  0  0  0  0
   25.6497  -32.9872    5.7127 C   0  0  0  0  0  0  0  0  0  0  0  0
   26.2248  -32.6258    4.3782 C   0  0  0  0  0  0  0  0  0  0  0  0
   26.0736  -33.7572    3.3816 C   0  0  2  0  0  0  0  0  0  0  0  0
   26.6806  -33.4290    2.1070 N   0  0  0  0  0  0  0  0  0  0  0  0
   24.6169  -33.9410    3.1587 C   0  0  0  0  0  0  0  0  0  0  0  0
   23.9568  -33.1734    2.4108 O   0  0  0  0  0  0  0  0  0  0  0  0
   23.9128  -34.9748    3.7688 O   0  0  0  0  0  0  0  0  0  0  0  0
  2  3  1  0
  2  1  1  1
  3  4  1  0
  4  5  1  0
  5  6  2  0
  5  9  1  0
  7  2  1  0
  7  8  2  0
 10 11  1  0
 12 11  1  6
 12 13  1  0
 12 14  1  0
 13  7  1  0
 14 24  1  0
 15 14  2  0
 16 17  1  0
 17 18  2  0
 19 20  1  0
 19 17  1  0
 21 22  1  0
 21 20  1  0
 23 22  1  1
 23 25  1  0
 24 23  1  0
 25 26  2  0
 25 27  1  0
M  END
$$$$
