ESR.pdb
     RDKit          3D

 27 26  0  0  1  0  0  0  0  0999 V2000
   24.5077  -17.0304  -17.9566 N   0  0  0  0  0  0  0  0  0  0  0  0
   24.1634  -18.4049  -18.0934 C   0  0  1  0  0  0  0  0  0  0  0  0
   24.4979  -18.9362  -19.4332 C   0  0  0  0  0  0  0  0  0  0  0  0
   25.9135  -18.7632  -19.8713 C   0  0  0  0  0  0  0  0  0  0  0  0
   26.1429  -18.0565  -21.1346 C   0  0  0  0  0  0  0  0  0  0  0  0
   26.9320  -17.1054  -21.3257 O   0  0  0  0  0  0  0  0  0  0  0  0
   24.8300  -19.1551  -16.9906 C   0  0  0  0  0  0  0  0  0  0  0  0
   24.4161  -20.2899  -16.6187 O   0  0  0  0  0  0  0  0  0  0  0  0
   25.4252  -18.4456  -22.2990 O   0  0  0  0  0  0  0  0  0  0  0  0
   27.2734  -17.1296  -14.5445 O   0  0  0  0  0  0  0  0  0  0  0  0
   27.7315  -18.4411  -14.7305 C   0  0  0  0  0  0  0  0  0  0  0  0
   26.5144  -19.2885  -15.1347 C   0  0  2  0  0  0  0  0  0  0  0  0
   25.9618  -18.6484  -16.2938 N   0  0  0  0  0  0  0  0  0  0  0  0
   25.6216  -19.3176  -13.9665 C   0  0  0  0  0  0  0  0  0  0  0  0
   24.7406  -18.4766  -13.6920 O   0  0  0  0  0  0  0  0  0  0  0  0
   19.2625  -21.1020  -12.7056 N   0  0  0  0  0  0  0  0  0  0  0  0
   19.4843  -20.8944  -11.3291 C   0  0  0  0  0  0  0  0  0  0  0  0
   18.6046  -21.2680  -10.4552 N   0  0  0  0  0  0  0  0  0  0  0  0
   20.6763  -20.2670  -10.8795 N   0  0  0  0  0  0  0  0  0  0  0  0
   21.8975  -20.3893  -11.6204 C   0  0  0  0  0  0  0  0  0  0  0  0
   22.7210  -21.5851  -11.2876 C   0  0  0  0  0  0  0  0  0  0  0  0
   23.9752  -21.7500  -12.0891 C   0  0  0  0  0  0  0  0  0  0  0  0
   24.9012  -20.5618  -11.9250 C   0  0  2  0  0  0  0  0  0  0  0  0
   25.7822  -20.4115  -13.0661 N   0  0  0  0  0  0  0  0  0  0  0  0
   25.7429  -20.8352  -10.7325 C   0  0  0  0  0  0  0  0  0  0  0  0
   26.8060  -21.5050  -10.8084 O   0  0  0  0  0  0  0  0  0  0  0  0
   25.3933  -20.3612   -9.4716 O   0  0  0  0  0  0  0  0  0  0  0  0
  2  3  1  0
  2  1  1  6
  3  4  1  0
  4  5  1  0
  5  6  2  0
  5  9  1  0
  7  2  1  0
  7  8  2  0
 10 11  1  0
 12 11  1  1
 12 13  1  0
 12 14  1  0
 13  7  1  0
 14 24  1  0
 15 14  2  0
 16 17  1  0
 17 18  2  0
 19 20  1  0
 19 17  1  0
 21 22  1  0
 21 20  1  0
 23 22  1  6
 23 25  1  0
 24 23  1  0
 25 26  2  0
 25 27  1  0
M  END
$$$$
