ESR.pdb
     RDKit          3D

 27 26  0  0  1  0  0  0  0  0999 V2000
   20.3537  -13.4344  -16.3046 N   0  0  0  0  0  0  0  0  0  0  0  0
   20.1829  -12.1441  -16.8812 C   0  0  1  0  0  0  0  0  0  0  0  0
   18.9572  -12.0558  -17.7052 C   0  0  0  0  0  0  0  0  0  0  0  0
   17.7165  -12.6164  -17.0951 C   0  0  0  0  0  0  0  0  0  0  0  0
   16.4752  -12.4907  -17.8641 C   0  0  0  0  0  0  0  0  0  0  0  0
   15.5474  -11.6782  -17.6571 O   0  0  0  0  0  0  0  0  0  0  0  0
   20.2111  -11.1425  -15.7769 C   0  0  0  0  0  0  0  0  0  0  0  0
   19.6332  -11.3584  -14.6738 O   0  0  0  0  0  0  0  0  0  0  0  0
   16.2430  -13.3525  -18.9713 O   0  0  0  0  0  0  0  0  0  0  0  0
   22.0176   -6.9179  -14.2459 O   0  0  0  0  0  0  0  0  0  0  0  0
   21.8860   -7.8286  -15.3031 C   0  0  0  0  0  0  0  0  0  0  0  0
   20.9264   -8.9317  -14.8284 C   0  0  2  0  0  0  0  0  0  0  0  0
   20.8825   -9.8938  -15.8918 N   0  0  0  0  0  0  0  0  0  0  0  0
   19.6428   -8.2725  -14.5448 C   0  0  0  0  0  0  0  0  0  0  0  0
   18.7701   -7.9684  -15.3843 O   0  0  0  0  0  0  0  0  0  0  0  0
   15.0617   -6.9476   -6.8889 N   0  0  0  0  0  0  0  0  0  0  0  0
   14.2423   -6.5451   -7.9628 C   0  0  0  0  0  0  0  0  0  0  0  0
   13.0012   -6.2321   -7.7648 N   0  0  0  0  0  0  0  0  0  0  0  0
   14.7651   -6.4810   -9.2815 N   0  0  0  0  0  0  0  0  0  0  0  0
   16.0185   -7.0959   -9.6075 C   0  0  0  0  0  0  0  0  0  0  0  0
   16.5025   -6.8464  -10.9940 C   0  0  0  0  0  0  0  0  0  0  0  0
   17.7542   -7.5711  -11.3821 C   0  0  0  0  0  0  0  0  0  0  0  0
   18.1542   -7.2656  -12.8114 C   0  0  2  0  0  0  0  0  0  0  0  0
   19.3755   -7.9530  -13.1812 N   0  0  0  0  0  0  0  0  0  0  0  0
   18.4144   -5.8052  -12.8814 C   0  0  0  0  0  0  0  0  0  0  0  0
   17.4805   -4.9679  -12.9886 O   0  0  0  0  0  0  0  0  0  0  0  0
   19.7077   -5.2938  -12.8312 O   0  0  0  0  0  0  0  0  0  0  0  0
  2  3  1  0
  2  1  1  1
  3  4  1  0
  4  5  1  0
  5  6  2  0
  5  9  1  0
  7  2  1  0
  7  8  2  0
 10 11  1  0
 12 11  1  6
 12 13  1  0
 12 14  1  0
 13  7  1  0
 14 24  1  0
 15 14  2  0
 16 17  1  0
 17 18  2  0
 19 20  1  0
 19 17  1  0
 21 22  1  0
 21 20  1  0
 23 22  1  1
 23 25  1  0
 24 23  1  0
 25 26  2  0
 25 27  1  0
M  END
$$$$
