QRL.pdb
     RDKit          3D

 29 28  0  0  1  0  0  0  0  0999 V2000
   21.9425  -28.3670   -9.9110 N   0  0  0  0  0  0  0  0  0  0  0  0
   20.8930  -28.4032  -10.8624 C   0  0  0  0  0  0  0  0  0  0  0  0
   20.6676  -27.3676  -11.5332 O   0  0  0  0  0  0  0  0  0  0  0  0
   20.0911  -29.6364  -11.0496 C   0  0  0  0  0  0  0  0  0  0  0  0
   20.5891  -30.7917  -10.2685 C   0  0  0  0  0  0  0  0  0  0  0  0
   21.7379  -31.5603  -10.8272 C   0  0  2  0  0  0  0  0  0  0  0  0
   21.1454  -32.5282  -11.7838 N   0  0  0  0  0  0  0  0  0  0  0  0
   22.5042  -32.3356   -9.7944 C   0  0  0  0  0  0  0  0  0  0  0  0
   21.9842  -33.4094   -9.4149 O   0  0  0  0  0  0  0  0  0  0  0  0
   28.2094  -32.4655   -4.9002 N   0  0  0  0  0  0  0  0  0  0  0  0
   29.0511  -33.4501   -5.4863 C   0  0  0  0  0  0  0  0  0  0  0  0
   29.7744  -34.1887   -4.7248 N   0  0  0  0  0  0  0  0  0  0  0  0
   29.1010  -33.6206   -6.9003 N   0  0  0  0  0  0  0  0  0  0  0  0
   28.2066  -32.9619   -7.8205 C   0  0  0  0  0  0  0  0  0  0  0  0
   26.8736  -32.6520   -7.2821 C   0  0  0  0  0  0  0  0  0  0  0  0
   25.8612  -31.9896   -8.1078 C   0  0  0  0  0  0  0  0  0  0  0  0
   24.4951  -32.5689   -8.1963 C   0  0  2  0  0  0  0  0  0  0  0  0
   23.7328  -31.9298   -9.2548 N   0  0  0  0  0  0  0  0  0  0  0  0
   23.7578  -32.7483   -6.9406 C   0  0  0  0  0  0  0  0  0  0  0  0
   23.1856  -31.8062   -6.3907 O   0  0  0  0  0  0  0  0  0  0  0  0
   30.4073  -34.9326   -5.0594 C   0  0  0  0  0  0  0  0  0  0  0  0
   21.5531  -37.7112   -5.8392 C   0  0  2  0  0  0  0  0  0  0  0  0
   22.5343  -36.6774   -5.2748 C   0  0  0  0  0  0  0  0  0  0  0  0
   22.6383  -36.9694   -3.7797 C   0  0  0  0  0  0  0  0  0  0  0  0
   21.9158  -35.3312   -5.4380 C   0  0  1  0  0  0  0  0  0  0  0  0
   22.8786  -34.1766   -5.0922 N   0  0  0  0  0  0  0  0  0  0  0  0
   23.6725  -34.0272   -6.3227 C   0  0  0  0  0  0  0  0  0  0  0  0
   23.6944  -34.6413   -3.9836 O   0  0  0  0  0  0  0  0  0  0  0  0
   23.1751  -34.6011   -2.6828 O   0  0  0  0  0  0  0  0  0  0  0  0
  1  2  1  0
  2  3  2  0
  4  5  1  0
  4  2  1  0
  6  8  1  0
  6  5  1  0
  6  7  1  6
  8  9  2  0
 10 11  1  0
 11 12  2  0
 13 14  1  0
 13 11  1  0
 15 14  1  0
 16 15  1  0
 17 16  1  1
 17 19  1  0
 18 17  1  0
 18  8  1  0
 19 20  2  0
 19 26  1  0
 22 21  1  6
 22 24  1  0
 23 22  1  0
 25 24  1  6
 25 27  1  0
 26 25  1  0
 27 29  2  0
 27 28  1  0
M  END
$$$$
