QRL.pdb
     RDKit          3D

 29 28  0  0  1  0  0  0  0  0999 V2000
   28.1353  -22.5147  -16.4358 N   0  0  0  0  0  0  0  0  0  0  0  0
   29.2956  -21.7232  -16.6228 C   0  0  0  0  0  0  0  0  0  0  0  0
   30.2034  -22.1711  -17.3635 O   0  0  0  0  0  0  0  0  0  0  0  0
   29.4210  -20.4047  -15.9559 C   0  0  0  0  0  0  0  0  0  0  0  0
   28.2463  -20.0444  -15.1293 C   0  0  0  0  0  0  0  0  0  0  0  0
   27.0127  -19.5990  -15.8381 C   0  0  2  0  0  0  0  0  0  0  0  0
   27.3555  -18.2951  -16.4588 N   0  0  0  0  0  0  0  0  0  0  0  0
   25.8372  -19.3871  -14.9280 C   0  0  0  0  0  0  0  0  0  0  0  0
   25.8242  -18.3113  -14.2877 O   0  0  0  0  0  0  0  0  0  0  0  0
   19.8072  -19.5179  -16.3471 N   0  0  0  0  0  0  0  0  0  0  0  0
   19.2600  -18.4471  -15.5884 C   0  0  0  0  0  0  0  0  0  0  0  0
   18.3563  -17.7037  -16.1168 N   0  0  0  0  0  0  0  0  0  0  0  0
   19.7048  -18.1919  -14.2588 N   0  0  0  0  0  0  0  0  0  0  0  0
   20.9943  -18.5938  -13.7524 C   0  0  0  0  0  0  0  0  0  0  0  0
   21.2294  -20.0452  -13.7238 C   0  0  0  0  0  0  0  0  0  0  0  0
   22.4337  -20.6268  -14.3213 C   0  0  0  0  0  0  0  0  0  0  0  0
   23.7646  -20.3142  -13.7376 C   0  0  2  0  0  0  0  0  0  0  0  0
   24.7886  -20.3037  -14.7679 N   0  0  0  0  0  0  0  0  0  0  0  0
   24.1448  -21.0238  -12.5111 C   0  0  0  0  0  0  0  0  0  0  0  0
   24.3701  -22.2348  -12.5124 O   0  0  0  0  0  0  0  0  0  0  0  0
   17.9063  -16.9032  -15.6449 C   0  0  0  0  0  0  0  0  0  0  0  0
   27.1758  -21.3803   -9.5278 C   0  0  1  0  0  0  0  0  0  0  0  0
   26.4783  -20.0153   -9.5369 C   0  0  0  0  0  0  0  0  0  0  0  0
   27.2082  -19.1636   -8.5009 C   0  0  0  0  0  0  0  0  0  0  0  0
   25.0804  -20.2189   -9.0615 C   0  0  2  0  0  0  0  0  0  0  0  0
   24.2362  -21.0867  -10.0175 N   0  0  0  0  0  0  0  0  0  0  0  0
   24.2761  -20.3267  -11.2775 C   0  0  0  0  0  0  0  0  0  0  0  0
   22.8955  -21.1256   -9.4597 O   0  0  0  0  0  0  0  0  0  0  0  0
   21.8983  -20.3073  -10.0071 O   0  0  0  0  0  0  0  0  0  0  0  0
  1  2  1  0
  2  3  2  0
  4  5  1  0
  4  2  1  0
  6  8  1  0
  6  5  1  0
  6  7  1  1
  8  9  2  0
 10 11  1  0
 11 12  2  0
 13 14  1  0
 13 11  1  0
 15 14  1  0
 16 15  1  0
 17 16  1  6
 17 19  1  0
 18 17  1  0
 18  8  1  0
 19 20  2  0
 19 26  1  0
 22 21  1  6
 22 24  1  0
 23 22  1  0
 25 24  1  6
 25 27  1  0
 26 25  1  0
 27 29  2  0
 27 28  1  0
M  END
$$$$
