QRL.pdb
     RDKit          3D

 29 28  0  0  1  0  0  0  0  0999 V2000
   12.0308  -11.4624  -14.1044 N   0  0  0  0  0  0  0  0  0  0  0  0
   11.9912  -12.3372  -15.2184 C   0  0  0  0  0  0  0  0  0  0  0  0
   10.9039  -12.9012  -15.4885 O   0  0  0  0  0  0  0  0  0  0  0  0
   13.2077  -12.5710  -16.0334 C   0  0  0  0  0  0  0  0  0  0  0  0
   14.3844  -11.7958  -15.5781 C   0  0  0  0  0  0  0  0  0  0  0  0
   15.6846  -12.0463  -16.2632 C   0  0  2  0  0  0  0  0  0  0  0  0
   16.0472  -13.4477  -15.9352 N   0  0  0  0  0  0  0  0  0  0  0  0
   16.7968  -11.1546  -15.7912 C   0  0  0  0  0  0  0  0  0  0  0  0
   16.6152  -10.5835  -14.6920 O   0  0  0  0  0  0  0  0  0  0  0  0
   25.6794  -12.1587  -16.4517 N   0  0  0  0  0  0  0  0  0  0  0  0
   25.4429  -10.9429  -15.7535 C   0  0  0  0  0  0  0  0  0  0  0  0
   26.4364  -10.3138  -15.2380 N   0  0  0  0  0  0  0  0  0  0  0  0
   24.1230  -10.4225  -15.6193 N   0  0  0  0  0  0  0  0  0  0  0  0
   22.9448  -11.0803  -16.1290 C   0  0  0  0  0  0  0  0  0  0  0  0
   21.6878  -10.3388  -15.9477 C   0  0  0  0  0  0  0  0  0  0  0  0
   20.3999  -10.9366  -16.3076 C   0  0  0  0  0  0  0  0  0  0  0  0
   19.1470  -10.1709  -16.0759 C   0  0  2  0  0  0  0  0  0  0  0  0
   17.9888  -10.9398  -16.4972 N   0  0  0  0  0  0  0  0  0  0  0  0
   19.1294   -8.7660  -16.4983 C   0  0  0  0  0  0  0  0  0  0  0  0
   18.8565   -8.4460  -17.6561 O   0  0  0  0  0  0  0  0  0  0  0  0
   26.3594   -9.4335  -14.7042 C   0  0  0  0  0  0  0  0  0  0  0  0
   16.2185   -4.2496  -15.6636 C   0  0  1  0  0  0  0  0  0  0  0  0
   17.5518   -4.5900  -16.3393 C   0  0  0  0  0  0  0  0  0  0  0  0
   17.3068   -4.4612  -17.8409 C   0  0  0  0  0  0  0  0  0  0  0  0
   17.8561   -6.0189  -16.0444 C   0  0  2  0  0  0  0  0  0  0  0  0
   19.3678   -6.3258  -16.0309 N   0  0  0  0  0  0  0  0  0  0  0  0
   19.4182   -7.7239  -15.5733 C   0  0  0  0  0  0  0  0  0  0  0  0
   19.9604   -5.4240  -15.0583 O   0  0  0  0  0  0  0  0  0  0  0  0
   20.3707   -4.1472  -15.4643 O   0  0  0  0  0  0  0  0  0  0  0  0
  1  2  1  0
  2  3  2  0
  4  5  1  0
  4  2  1  0
  6  8  1  0
  6  5  1  0
  6  7  1  1
  8  9  2  0
 10 11  1  0
 11 12  2  0
 13 14  1  0
 13 11  1  0
 15 14  1  0
 16 15  1  0
 17 16  1  6
 17 19  1  0
 18 17  1  0
 18  8  1  0
 19 20  2  0
 19 26  1  0
 22 21  1  1
 22 24  1  0
 23 22  1  0
 25 24  1  6
 25 27  1  0
 26 25  1  0
 27 29  2  0
 27 28  1  0
M  END
$$$$
