QRL.pdb
     RDKit          3D

 29 28  0  0  1  0  0  0  0  0999 V2000
   17.0182  -10.8672  -21.7313 N   0  0  0  0  0  0  0  0  0  0  0  0
   15.9524  -11.6770  -21.2665 C   0  0  0  0  0  0  0  0  0  0  0  0
   15.2070  -12.2185  -22.1177 O   0  0  0  0  0  0  0  0  0  0  0  0
   15.7349  -11.8705  -19.8125 C   0  0  0  0  0  0  0  0  0  0  0  0
   16.7275  -11.1695  -18.9661 C   0  0  0  0  0  0  0  0  0  0  0  0
   18.0188  -11.8638  -18.6957 C   0  0  2  0  0  0  0  0  0  0  0  0
   17.7141  -12.8918  -17.6694 N   0  0  0  0  0  0  0  0  0  0  0  0
   19.0862  -10.9607  -18.1482 C   0  0  0  0  0  0  0  0  0  0  0  0
   19.0012  -10.6842  -16.9301 O   0  0  0  0  0  0  0  0  0  0  0  0
   25.7899  -11.7721  -15.5929 N   0  0  0  0  0  0  0  0  0  0  0  0
   26.3329  -10.5982  -16.1836 C   0  0  0  0  0  0  0  0  0  0  0  0
   27.5023  -10.2032  -15.8299 N   0  0  0  0  0  0  0  0  0  0  0  0
   25.5951   -9.8606  -17.1543 N   0  0  0  0  0  0  0  0  0  0  0  0
   24.3789  -10.3340  -17.7684 C   0  0  0  0  0  0  0  0  0  0  0  0
   23.6963   -9.3605  -18.6341 C   0  0  0  0  0  0  0  0  0  0  0  0
   22.4095   -9.6771  -19.2581 C   0  0  0  0  0  0  0  0  0  0  0  0
   21.1541   -9.4835  -18.4859 C   0  0  2  0  0  0  0  0  0  0  0  0
   20.1385  -10.4321  -18.9088 N   0  0  0  0  0  0  0  0  0  0  0  0
   20.6699   -8.1083  -18.3227 C   0  0  0  0  0  0  0  0  0  0  0  0
   20.1768   -7.4843  -19.2633 O   0  0  0  0  0  0  0  0  0  0  0  0
   28.0210   -9.4318  -16.2790 C   0  0  0  0  0  0  0  0  0  0  0  0
   17.4708   -5.4717  -17.5611 C   0  0  1  0  0  0  0  0  0  0  0  0
   17.9550   -6.5096  -16.5421 C   0  0  0  0  0  0  0  0  0  0  0  0
   16.9099   -6.5249  -15.4290 C   0  0  0  0  0  0  0  0  0  0  0  0
   19.2352   -6.0118  -15.9635 C   0  0  2  0  0  0  0  0  0  0  0  0
   20.4017   -6.0259  -16.9729 N   0  0  0  0  0  0  0  0  0  0  0  0
   20.7464   -7.4543  -17.0612 C   0  0  0  0  0  0  0  0  0  0  0  0
   21.4746   -5.2541  -16.3701 O   0  0  0  0  0  0  0  0  0  0  0  0
   21.3876   -3.8557  -16.3471 O   0  0  0  0  0  0  0  0  0  0  0  0
  1  2  1  0
  2  3  2  0
  4  5  1  0
  4  2  1  0
  6  8  1  0
  6  5  1  0
  6  7  1  1
  8  9  2  0
 10 11  1  0
 11 12  2  0
 13 14  1  0
 13 11  1  0
 15 14  1  0
 16 15  1  0
 17 16  1  6
 17 19  1  0
 18 17  1  0
 18  8  1  0
 19 20  2  0
 19 26  1  0
 22 21  1  6
 22 24  1  0
 23 22  1  0
 25 24  1  6
 25 27  1  0
 26 25  1  0
 27 29  2  0
 27 28  1  0
M  END
$$$$
