QRL.pdb
     RDKit          3D

 29 28  0  0  1  0  0  0  0  0999 V2000
   17.5575  -18.9160  -14.8097 N   0  0  0  0  0  0  0  0  0  0  0  0
   18.1016  -17.6367  -14.5352 C   0  0  0  0  0  0  0  0  0  0  0  0
   17.4871  -16.6295  -14.9608 O   0  0  0  0  0  0  0  0  0  0  0  0
   19.3625  -17.5061  -13.7657 C   0  0  0  0  0  0  0  0  0  0  0  0
   19.9101  -18.8010  -13.3007 C   0  0  0  0  0  0  0  0  0  0  0  0
   20.5889  -19.6660  -14.3074 C   0  0  2  0  0  0  0  0  0  0  0  0
   19.6735  -20.8123  -14.5335 N   0  0  0  0  0  0  0  0  0  0  0  0
   21.9097  -20.2091  -13.8435 C   0  0  0  0  0  0  0  0  0  0  0  0
   22.0098  -20.4389  -12.6169 O   0  0  0  0  0  0  0  0  0  0  0  0
   29.2397  -22.8927  -18.1204 N   0  0  0  0  0  0  0  0  0  0  0  0
   28.8581  -22.9108  -16.7508 C   0  0  0  0  0  0  0  0  0  0  0  0
   29.6406  -23.4549  -15.8904 N   0  0  0  0  0  0  0  0  0  0  0  0
   27.6234  -22.3380  -16.3289 N   0  0  0  0  0  0  0  0  0  0  0  0
   26.7662  -21.5565  -17.1863 C   0  0  0  0  0  0  0  0  0  0  0  0
   25.5602  -21.0175  -16.5400 C   0  0  0  0  0  0  0  0  0  0  0  0
   24.8146  -21.8057  -15.5559 C   0  0  0  0  0  0  0  0  0  0  0  0
   24.2449  -21.1329  -14.3590 C   0  0  2  0  0  0  0  0  0  0  0  0
   22.9983  -20.4643  -14.6892 N   0  0  0  0  0  0  0  0  0  0  0  0
   25.1610  -20.3367  -13.5349 C   0  0  0  0  0  0  0  0  0  0  0  0
   25.2583  -19.1170  -13.6767 O   0  0  0  0  0  0  0  0  0  0  0  0
   29.4158  -23.5797  -14.8905 C   0  0  0  0  0  0  0  0  0  0  0  0
   26.0928  -19.5602   -9.1190 C   0  0  1  0  0  0  0  0  0  0  0  0
   26.2298  -20.9787   -9.6837 C   0  0  0  0  0  0  0  0  0  0  0  0
   26.6093  -21.8669   -8.5011 C   0  0  0  0  0  0  0  0  0  0  0  0
   27.3721  -20.9757  -10.6411 C   0  0  2  0  0  0  0  0  0  0  0  0
   27.0735  -20.1944  -11.9373 N   0  0  0  0  0  0  0  0  0  0  0  0
   25.9617  -20.9532  -12.5331 C   0  0  0  0  0  0  0  0  0  0  0  0
   28.2735  -20.2777  -12.7517 O   0  0  0  0  0  0  0  0  0  0  0  0
   29.3383  -19.4022  -12.4998 O   0  0  0  0  0  0  0  0  0  0  0  0
  1  2  1  0
  2  3  2  0
  4  5  1  0
  4  2  1  0
  6  8  1  0
  6  5  1  0
  6  7  1  1
  8  9  2  0
 10 11  1  0
 11 12  2  0
 13 14  1  0
 13 11  1  0
 15 14  1  0
 16 15  1  0
 17 16  1  6
 17 19  1  0
 18 17  1  0
 18  8  1  0
 19 20  2  0
 19 26  1  0
 22 21  1  1
 22 24  1  0
 23 22  1  0
 25 24  1  1
 25 27  1  0
 26 25  1  0
 27 29  2  0
 27 28  1  0
M  END
$$$$
