QRL.pdb
     RDKit          3D

 29 28  0  0  1  0  0  0  0  0999 V2000
   17.8274  -20.7117   -9.9881 N   0  0  0  0  0  0  0  0  0  0  0  0
   17.9059  -21.0103  -11.3711 C   0  0  0  0  0  0  0  0  0  0  0  0
   16.8422  -21.2800  -11.9787 O   0  0  0  0  0  0  0  0  0  0  0  0
   19.2145  -21.0010  -12.0685 C   0  0  0  0  0  0  0  0  0  0  0  0
   20.3560  -20.6768  -11.1827 C   0  0  0  0  0  0  0  0  0  0  0  0
   21.5595  -20.0551  -11.8055 C   0  0  2  0  0  0  0  0  0  0  0  0
   21.5522  -20.4984  -13.2219 N   0  0  0  0  0  0  0  0  0  0  0  0
   22.8546  -20.4953  -11.1861 C   0  0  0  0  0  0  0  0  0  0  0  0
   22.7604  -21.1874  -10.1471 O   0  0  0  0  0  0  0  0  0  0  0  0
   27.7195  -20.4162  -15.5706 N   0  0  0  0  0  0  0  0  0  0  0  0
   28.3455  -21.6364  -15.1950 C   0  0  0  0  0  0  0  0  0  0  0  0
   28.3837  -22.6051  -16.0369 N   0  0  0  0  0  0  0  0  0  0  0  0
   28.9231  -21.7932  -13.9018 N   0  0  0  0  0  0  0  0  0  0  0  0
   28.9114  -20.7677  -12.8874 C   0  0  0  0  0  0  0  0  0  0  0  0
   27.8370  -20.8878  -11.8903 C   0  0  0  0  0  0  0  0  0  0  0  0
   26.4537  -20.5421  -12.2256 C   0  0  0  0  0  0  0  0  0  0  0  0
   25.4175  -20.5528  -11.1598 C   0  0  2  0  0  0  0  0  0  0  0  0
   24.1210  -20.1810  -11.6990 N   0  0  0  0  0  0  0  0  0  0  0  0
   25.7543  -19.9046   -9.8874 C   0  0  0  0  0  0  0  0  0  0  0  0
   25.5268  -18.7095   -9.6946 O   0  0  0  0  0  0  0  0  0  0  0  0
   28.8345  -23.5170  -15.8608 C   0  0  0  0  0  0  0  0  0  0  0  0
   27.8769  -20.7389   -4.3001 C   0  0  1  0  0  0  0  0  0  0  0  0
   28.2019  -20.0762   -5.6436 C   0  0  0  0  0  0  0  0  0  0  0  0
   28.0890  -18.5718   -5.4082 C   0  0  0  0  0  0  0  0  0  0  0  0
   27.1388  -20.4708   -6.6109 C   0  0  2  0  0  0  0  0  0  0  0  0
   27.4487  -20.0409   -8.0597 N   0  0  0  0  0  0  0  0  0  0  0  0
   26.3479  -20.6456   -8.8275 C   0  0  0  0  0  0  0  0  0  0  0  0
   28.7282  -20.6387   -8.3998 O   0  0  0  0  0  0  0  0  0  0  0  0
   29.9106  -19.9436   -8.1126 O   0  0  0  0  0  0  0  0  0  0  0  0
  1  2  1  0
  2  3  2  0
  4  5  1  0
  4  2  1  0
  6  8  1  0
  6  5  1  0
  6  7  1  6
  8  9  2  0
 10 11  1  0
 11 12  2  0
 13 14  1  0
 13 11  1  0
 15 14  1  0
 16 15  1  0
 17 16  1  6
 17 19  1  0
 18 17  1  0
 18  8  1  0
 19 20  2  0
 19 26  1  0
 22 21  1  1
 22 24  1  0
 23 22  1  0
 25 24  1  1
 25 27  1  0
 26 25  1  0
 27 29  2  0
 27 28  1  0
M  END
$$$$
