QRL.pdb
     RDKit          3D

 29 28  0  0  1  0  0  0  0  0999 V2000
   15.6779  -24.1169  -12.6479 N   0  0  0  0  0  0  0  0  0  0  0  0
   16.8121  -23.2800  -12.5034 C   0  0  0  0  0  0  0  0  0  0  0  0
   17.3007  -22.7632  -13.5366 O   0  0  0  0  0  0  0  0  0  0  0  0
   17.3955  -23.0305  -11.1631 C   0  0  0  0  0  0  0  0  0  0  0  0
   16.6816  -23.7248  -10.0671 C   0  0  0  0  0  0  0  0  0  0  0  0
   17.2045  -23.5504   -8.6819 C   0  0  2  0  0  0  0  0  0  0  0  0
   18.5752  -24.1197   -8.6962 N   0  0  0  0  0  0  0  0  0  0  0  0
   16.4074  -24.2808   -7.6399 C   0  0  0  0  0  0  0  0  0  0  0  0
   15.1975  -23.9705   -7.5551 O   0  0  0  0  0  0  0  0  0  0  0  0
   17.8932  -30.6102  -10.0343 N   0  0  0  0  0  0  0  0  0  0  0  0
   18.8251  -30.4641   -8.9705 C   0  0  0  0  0  0  0  0  0  0  0  0
   20.0578  -30.7607   -9.1734 N   0  0  0  0  0  0  0  0  0  0  0  0
   18.4057  -29.9985   -7.6907 N   0  0  0  0  0  0  0  0  0  0  0  0
   17.1038  -29.4358   -7.4280 C   0  0  0  0  0  0  0  0  0  0  0  0
   17.0970  -28.0011   -7.1048 C   0  0  0  0  0  0  0  0  0  0  0  0
   16.1621  -27.4537   -6.1191 C   0  0  0  0  0  0  0  0  0  0  0  0
   16.2388  -26.0137   -5.7581 C   0  0  2  0  0  0  0  0  0  0  0  0
   16.9344  -25.2615   -6.7879 N   0  0  0  0  0  0  0  0  0  0  0  0
   16.6447  -25.6845   -4.3872 C   0  0  0  0  0  0  0  0  0  0  0  0
   17.8322  -25.5995   -4.0710 O   0  0  0  0  0  0  0  0  0  0  0  0
   20.8189  -30.5987   -8.4948 C   0  0  0  0  0  0  0  0  0  0  0  0
   13.3523  -23.4290   -0.0420 C   0  0  1  0  0  0  0  0  0  0  0  0
   14.7958  -23.7206   -0.4676 C   0  0  0  0  0  0  0  0  0  0  0  0
   15.1858  -22.5988   -1.4271 C   0  0  0  0  0  0  0  0  0  0  0  0
   14.7915  -24.9993   -1.2334 C   0  0  2  0  0  0  0  0  0  0  0  0
   16.1130  -25.2587   -1.9859 N   0  0  0  0  0  0  0  0  0  0  0  0
   15.6712  -25.4412   -3.3782 C   0  0  0  0  0  0  0  0  0  0  0  0
   16.6641  -26.4849   -1.4356 O   0  0  0  0  0  0  0  0  0  0  0  0
   16.4772  -27.6923   -2.1219 O   0  0  0  0  0  0  0  0  0  0  0  0
  1  2  1  0
  2  3  2  0
  4  5  1  0
  4  2  1  0
  6  8  1  0
  6  5  1  0
  6  7  1  6
  8  9  2  0
 10 11  1  0
 11 12  2  0
 13 14  1  0
 13 11  1  0
 15 14  1  0
 16 15  1  0
 17 16  1  6
 17 19  1  0
 18 17  1  0
 18  8  1  0
 19 20  2  0
 19 26  1  0
 22 21  1  1
 22 24  1  0
 23 22  1  0
 25 24  1  6
 25 27  1  0
 26 25  1  0
 27 29  2  0
 27 28  1  0
M  END
$$$$
