QRL.pdb
     RDKit          3D

 29 28  0  0  1  0  0  0  0  0999 V2000
   17.2170  -18.1784  -14.8997 N   0  0  0  0  0  0  0  0  0  0  0  0
   18.1396  -17.1896  -15.3226 C   0  0  0  0  0  0  0  0  0  0  0  0
   17.7540  -16.3428  -16.1637 O   0  0  0  0  0  0  0  0  0  0  0  0
   19.5189  -17.1676  -14.7787 C   0  0  0  0  0  0  0  0  0  0  0  0
   19.7805  -18.2319  -13.7828 C   0  0  0  0  0  0  0  0  0  0  0  0
   19.8430  -19.6381  -14.2739 C   0  0  2  0  0  0  0  0  0  0  0  0
   18.8031  -20.3751  -13.5135 N   0  0  0  0  0  0  0  0  0  0  0  0
   21.1644  -20.3062  -14.0238 C   0  0  0  0  0  0  0  0  0  0  0  0
   21.5521  -20.3303  -12.8336 O   0  0  0  0  0  0  0  0  0  0  0  0
   27.2298  -24.7492  -17.1492 N   0  0  0  0  0  0  0  0  0  0  0  0
   26.2523  -25.7113  -16.7747 C   0  0  0  0  0  0  0  0  0  0  0  0
   26.2019  -26.8296  -17.4036 N   0  0  0  0  0  0  0  0  0  0  0  0
   25.3334  -25.4460  -15.7184 N   0  0  0  0  0  0  0  0  0  0  0  0
   25.1333  -24.1412  -15.1368 C   0  0  0  0  0  0  0  0  0  0  0  0
   24.8630  -23.0630  -16.0998 C   0  0  0  0  0  0  0  0  0  0  0  0
   23.6004  -22.3212  -16.0677 C   0  0  0  0  0  0  0  0  0  0  0  0
   23.2724  -21.4853  -14.8830 C   0  0  2  0  0  0  0  0  0  0  0  0
   21.9566  -20.8863  -15.0244 N   0  0  0  0  0  0  0  0  0  0  0  0
   24.3090  -20.5663  -14.4002 C   0  0  0  0  0  0  0  0  0  0  0  0
   24.4431  -19.4394  -14.8793 O   0  0  0  0  0  0  0  0  0  0  0  0
   25.5538  -27.6006  -17.1771 C   0  0  0  0  0  0  0  0  0  0  0  0
   25.1061  -19.6690  -10.1992 C   0  0  2  0  0  0  0  0  0  0  0  0
   25.7059  -20.9889  -10.6972 C   0  0  0  0  0  0  0  0  0  0  0  0
   26.3331  -21.6534   -9.4739 C   0  0  0  0  0  0  0  0  0  0  0  0
   26.8015  -20.6558  -11.6513 C   0  0  2  0  0  0  0  0  0  0  0  0
   26.2892  -20.0462  -12.9725 N   0  0  0  0  0  0  0  0  0  0  0  0
   25.1890  -20.9486  -13.3493 C   0  0  0  0  0  0  0  0  0  0  0  0
   27.3916  -20.1256  -13.9152 O   0  0  0  0  0  0  0  0  0  0  0  0
   27.4620  -21.2081  -14.8021 O   0  0  0  0  0  0  0  0  0  0  0  0
  1  2  1  0
  2  3  2  0
  4  5  1  0
  4  2  1  0
  6  8  1  0
  6  5  1  0
  6  7  1  1
  8  9  2  0
 10 11  1  0
 11 12  2  0
 13 14  1  0
 13 11  1  0
 15 14  1  0
 16 15  1  0
 17 16  1  6
 17 19  1  0
 18 17  1  0
 18  8  1  0
 19 20  2  0
 19 26  1  0
 22 21  1  1
 22 24  1  0
 23 22  1  0
 25 24  1  1
 25 27  1  0
 26 25  1  0
 27 29  2  0
 27 28  1  0
M  END
$$$$
