QRL.pdb
     RDKit          3D

 29 28  0  0  1  0  0  0  0  0999 V2000
   24.3202  -21.5407   -9.5824 N   0  0  0  0  0  0  0  0  0  0  0  0
   22.9461  -21.2009   -9.6479 C   0  0  0  0  0  0  0  0  0  0  0  0
   22.2795  -21.2275   -8.5856 O   0  0  0  0  0  0  0  0  0  0  0  0
   22.3258  -20.8264  -10.9416 C   0  0  0  0  0  0  0  0  0  0  0  0
   23.2495  -20.9311  -12.0943 C   0  0  0  0  0  0  0  0  0  0  0  0
   22.7288  -20.5396  -13.4353 C   0  0  2  0  0  0  0  0  0  0  0  0
   22.5316  -21.8108  -14.1756 N   0  0  0  0  0  0  0  0  0  0  0  0
   23.6770  -19.6833  -14.2241 C   0  0  0  0  0  0  0  0  0  0  0  0
   23.9016  -18.5416  -13.7620 O   0  0  0  0  0  0  0  0  0  0  0  0
   29.5758  -23.1957  -16.3053 N   0  0  0  0  0  0  0  0  0  0  0  0
   29.0814  -23.0251  -17.6275 C   0  0  0  0  0  0  0  0  0  0  0  0
   28.8451  -24.0626  -18.3460 N   0  0  0  0  0  0  0  0  0  0  0  0
   28.8511  -21.7230  -18.1589 N   0  0  0  0  0  0  0  0  0  0  0  0
   28.7012  -20.5397  -17.3478 C   0  0  0  0  0  0  0  0  0  0  0  0
   27.5594  -20.5583  -16.4209 C   0  0  0  0  0  0  0  0  0  0  0  0
   26.1946  -20.3272  -16.8997 C   0  0  0  0  0  0  0  0  0  0  0  0
   25.3149  -19.3750  -16.1721 C   0  0  2  0  0  0  0  0  0  0  0  0
   24.3032  -20.0877  -15.4115 N   0  0  0  0  0  0  0  0  0  0  0  0
   24.8092  -18.2194  -16.9213 C   0  0  0  0  0  0  0  0  0  0  0  0
   23.7588  -18.2782  -17.5621 O   0  0  0  0  0  0  0  0  0  0  0  0
   28.5275  -24.0355  -19.3280 C   0  0  0  0  0  0  0  0  0  0  0  0
   23.9778  -13.6363  -15.8635 C   0  0  1  0  0  0  0  0  0  0  0  0
   25.3872  -14.2324  -15.7730 C   0  0  0  0  0  0  0  0  0  0  0  0
   26.3012  -13.0870  -15.3440 C   0  0  0  0  0  0  0  0  0  0  0  0
   25.7894  -14.6516  -17.1457 C   0  0  2  0  0  0  0  0  0  0  0  0
   24.9716  -15.8464  -17.6779 N   0  0  0  0  0  0  0  0  0  0  0  0
   25.5168  -16.9848  -16.9206 C   0  0  0  0  0  0  0  0  0  0  0  0
   25.2757  -15.9527  -19.0944 O   0  0  0  0  0  0  0  0  0  0  0  0
   26.3593  -16.7388  -19.5086 O   0  0  0  0  0  0  0  0  0  0  0  0
  1  2  1  0
  2  3  2  0
  4  5  1  0
  4  2  1  0
  6  8  1  0
  6  5  1  0
  6  7  1  6
  8  9  2  0
 10 11  1  0
 11 12  2  0
 13 14  1  0
 13 11  1  0
 15 14  1  0
 16 15  1  0
 17 16  1  6
 17 19  1  0
 18 17  1  0
 18  8  1  0
 19 20  2  0
 19 26  1  0
 22 21  1  1
 22 24  1  0
 23 22  1  0
 25 24  1  1
 25 27  1  0
 26 25  1  0
 27 29  2  0
 27 28  1  0
M  END
$$$$
