QRL.pdb
     RDKit          3D

 29 28  0  0  1  0  0  0  0  0999 V2000
   20.1605  -35.2012   -4.2318 N   0  0  0  0  0  0  0  0  0  0  0  0
   19.0158  -35.2204   -3.3969 C   0  0  0  0  0  0  0  0  0  0  0  0
   18.2710  -36.2287   -3.4384 O   0  0  0  0  0  0  0  0  0  0  0  0
   18.7179  -34.0744   -2.5043 C   0  0  0  0  0  0  0  0  0  0  0  0
   19.7386  -33.0027   -2.5546 C   0  0  0  0  0  0  0  0  0  0  0  0
   19.8220  -32.1852   -3.7986 C   0  0  2  0  0  0  0  0  0  0  0  0
   21.1841  -32.4174   -4.3404 N   0  0  0  0  0  0  0  0  0  0  0  0
   19.6590  -30.7111   -3.5636 C   0  0  0  0  0  0  0  0  0  0  0  0
   20.3464  -30.2221   -2.6386 O   0  0  0  0  0  0  0  0  0  0  0  0
   17.3611  -24.2669   -9.2782 N   0  0  0  0  0  0  0  0  0  0  0  0
   16.5123  -24.0653   -8.1554 C   0  0  0  0  0  0  0  0  0  0  0  0
   15.6285  -23.1349   -8.1982 N   0  0  0  0  0  0  0  0  0  0  0  0
   16.6354  -24.8782   -6.9915 N   0  0  0  0  0  0  0  0  0  0  0  0
   17.8112  -25.6502   -6.6718 C   0  0  0  0  0  0  0  0  0  0  0  0
   17.7262  -26.4320   -5.4290 C   0  0  0  0  0  0  0  0  0  0  0  0
   18.0885  -27.8510   -5.4034 C   0  0  0  0  0  0  0  0  0  0  0  0
   18.5762  -28.4593   -4.1378 C   0  0  2  0  0  0  0  0  0  0  0  0
   18.8048  -29.8839   -4.3063 N   0  0  0  0  0  0  0  0  0  0  0  0
   17.8705  -28.0997   -2.9029 C   0  0  0  0  0  0  0  0  0  0  0  0
   16.8577  -28.7011   -2.5426 O   0  0  0  0  0  0  0  0  0  0  0  0
   14.9682  -22.9185   -7.4347 C   0  0  0  0  0  0  0  0  0  0  0  0
   19.5797  -27.8920    1.0538 C   0  0  1  0  0  0  0  0  0  0  0  0
   19.8895  -26.6759    0.1734 C   0  0  0  0  0  0  0  0  0  0  0  0
   20.8403  -25.8002    0.9861 C   0  0  0  0  0  0  0  0  0  0  0  0
   18.6188  -25.9205   -0.0171 C   0  0  2  0  0  0  0  0  0  0  0  0
   17.5826  -26.6836   -0.8677 N   0  0  0  0  0  0  0  0  0  0  0  0
   18.3452  -27.0452   -2.0736 C   0  0  0  0  0  0  0  0  0  0  0  0
   16.5232  -25.7367   -1.1699 O   0  0  0  0  0  0  0  0  0  0  0  0
   16.4771  -25.1363   -2.4352 O   0  0  0  0  0  0  0  0  0  0  0  0
  1  2  1  0
  2  3  2  0
  4  5  1  0
  4  2  1  0
  6  8  1  0
  6  5  1  0
  6  7  1  1
  8  9  2  0
 10 11  1  0
 11 12  2  0
 13 14  1  0
 13 11  1  0
 15 14  1  0
 16 15  1  0
 17 16  1  6
 17 19  1  0
 18 17  1  0
 18  8  1  0
 19 20  2  0
 19 26  1  0
 22 21  1  6
 22 24  1  0
 23 22  1  0
 25 24  1  1
 25 27  1  0
 26 25  1  0
 27 29  2  0
 27 28  1  0
M  END
$$$$
