QRL.pdb
     RDKit          3D

 29 28  0  0  1  0  0  0  0  0999 V2000
   23.6824  -11.8478  -20.2432 N   0  0  0  0  0  0  0  0  0  0  0  0
   22.6885  -12.3118  -19.3462 C   0  0  0  0  0  0  0  0  0  0  0  0
   21.4873  -12.0825  -19.6252 O   0  0  0  0  0  0  0  0  0  0  0  0
   23.0707  -13.0461  -18.1159 C   0  0  0  0  0  0  0  0  0  0  0  0
   22.6193  -14.4564  -18.1029 C   0  0  0  0  0  0  0  0  0  0  0  0
   23.6606  -15.5143  -17.9644 C   0  0  2  0  0  0  0  0  0  0  0  0
   24.2238  -15.7031  -19.3246 N   0  0  0  0  0  0  0  0  0  0  0  0
   23.1204  -16.8349  -17.4963 C   0  0  0  0  0  0  0  0  0  0  0  0
   22.1349  -17.2807  -18.1267 O   0  0  0  0  0  0  0  0  0  0  0  0
   24.5968  -23.7627  -15.7655 N   0  0  0  0  0  0  0  0  0  0  0  0
   24.5058  -23.9906  -14.3649 C   0  0  0  0  0  0  0  0  0  0  0  0
   24.2659  -25.1777  -13.9384 N   0  0  0  0  0  0  0  0  0  0  0  0
   24.6740  -22.9211  -13.4384 N   0  0  0  0  0  0  0  0  0  0  0  0
   25.0180  -21.5736  -13.8213 C   0  0  0  0  0  0  0  0  0  0  0  0
   23.9831  -20.8570  -14.5818 C   0  0  0  0  0  0  0  0  0  0  0  0
   24.2263  -19.5101  -15.1035 C   0  0  0  0  0  0  0  0  0  0  0  0
   23.1590  -18.8197  -15.8742 C   0  0  2  0  0  0  0  0  0  0  0  0
   23.6497  -17.5685  -16.4253 N   0  0  0  0  0  0  0  0  0  0  0  0
   21.8320  -18.7312  -15.2548 C   0  0  0  0  0  0  0  0  0  0  0  0
   21.6422  -18.0705  -14.2327 O   0  0  0  0  0  0  0  0  0  0  0  0
   24.2148  -25.4432  -12.9420 C   0  0  0  0  0  0  0  0  0  0  0  0
   16.2517  -20.2841  -16.4308 C   0  0  1  0  0  0  0  0  0  0  0  0
   17.0008  -19.0621  -15.8870 C   0  0  0  0  0  0  0  0  0  0  0  0
   16.3840  -17.8489  -16.5791 C   0  0  0  0  0  0  0  0  0  0  0  0
   18.4206  -19.1696  -16.3275 C   0  0  2  0  0  0  0  0  0  0  0  0
   19.4090  -19.3219  -15.1530 N   0  0  0  0  0  0  0  0  0  0  0  0
   20.7151  -19.4020  -15.8271 C   0  0  0  0  0  0  0  0  0  0  0  0
   19.0715  -20.5710  -14.4926 O   0  0  0  0  0  0  0  0  0  0  0  0
   19.6383  -21.7673  -14.9520 O   0  0  0  0  0  0  0  0  0  0  0  0
  1  2  1  0
  2  3  2  0
  4  5  1  0
  4  2  1  0
  6  8  1  0
  6  5  1  0
  6  7  1  6
  8  9  2  0
 10 11  1  0
 11 12  2  0
 13 14  1  0
 13 11  1  0
 15 14  1  0
 16 15  1  0
 17 16  1  1
 17 19  1  0
 18 17  1  0
 18  8  1  0
 19 20  2  0
 19 26  1  0
 22 21  1  1
 22 24  1  0
 23 22  1  0
 25 24  1  1
 25 27  1  0
 26 25  1  0
 27 29  2  0
 27 28  1  0
M  END
$$$$
