QRL.pdb
     RDKit          3D

 29 28  0  0  1  0  0  0  0  0999 V2000
   12.9619  -20.7301   -5.3835 N   0  0  0  0  0  0  0  0  0  0  0  0
   12.4986  -21.7548   -4.5214 C   0  0  0  0  0  0  0  0  0  0  0  0
   12.1772  -21.4412   -3.3502 O   0  0  0  0  0  0  0  0  0  0  0  0
   12.4016  -23.1542   -5.0022 C   0  0  0  0  0  0  0  0  0  0  0  0
   12.7495  -23.3151   -6.4325 C   0  0  0  0  0  0  0  0  0  0  0  0
   12.6840  -24.6880   -7.0098 C   0  0  2  0  0  0  0  0  0  0  0  0
   11.3878  -25.2519   -6.5570 N   0  0  0  0  0  0  0  0  0  0  0  0
   13.7797  -25.5965   -6.5314 C   0  0  0  0  0  0  0  0  0  0  0  0
   13.5433  -26.2391   -5.4833 O   0  0  0  0  0  0  0  0  0  0  0  0
   20.4243  -26.2345  -11.9166 N   0  0  0  0  0  0  0  0  0  0  0  0
   20.4023  -26.9852  -10.7093 C   0  0  0  0  0  0  0  0  0  0  0  0
   21.2911  -27.8924  -10.5202 N   0  0  0  0  0  0  0  0  0  0  0  0
   19.4085  -26.7438   -9.7169 N   0  0  0  0  0  0  0  0  0  0  0  0
   18.4377  -25.6797   -9.7950 C   0  0  0  0  0  0  0  0  0  0  0  0
   17.5238  -25.5827   -8.6469 C   0  0  0  0  0  0  0  0  0  0  0  0
   17.0641  -26.7829   -7.9443 C   0  0  0  0  0  0  0  0  0  0  0  0
   16.0991  -26.6495   -6.8215 C   0  0  2  0  0  0  0  0  0  0  0  0
   15.0118  -25.7558   -7.1810 N   0  0  0  0  0  0  0  0  0  0  0  0
   16.6527  -26.4237   -5.4818 C   0  0  0  0  0  0  0  0  0  0  0  0
   16.9774  -25.2979   -5.1015 O   0  0  0  0  0  0  0  0  0  0  0  0
   21.3217  -28.5213   -9.7021 C   0  0  0  0  0  0  0  0  0  0  0  0
   17.9892  -30.0760   -0.7224 C   0  0  1  0  0  0  0  0  0  0  0  0
   17.9050  -28.6157   -1.1813 C   0  0  0  0  0  0  0  0  0  0  0  0
   16.9485  -27.9252   -0.2119 C   0  0  0  0  0  0  0  0  0  0  0  0
   17.2777  -28.6024   -2.5333 C   0  0  2  0  0  0  0  0  0  0  0  0
   17.4078  -27.2414   -3.2477 N   0  0  0  0  0  0  0  0  0  0  0  0
   16.8218  -27.5047   -4.5720 C   0  0  0  0  0  0  0  0  0  0  0  0
   18.8302  -26.9610   -3.3394 O   0  0  0  0  0  0  0  0  0  0  0  0
   19.4343  -26.1440   -2.3745 O   0  0  0  0  0  0  0  0  0  0  0  0
  1  2  1  0
  2  3  2  0
  4  5  1  0
  4  2  1  0
  6  8  1  0
  6  5  1  0
  6  7  1  1
  8  9  2  0
 10 11  1  0
 11 12  2  0
 13 14  1  0
 13 11  1  0
 15 14  1  0
 16 15  1  0
 17 16  1  6
 17 19  1  0
 18 17  1  0
 18  8  1  0
 19 20  2  0
 19 26  1  0
 22 21  1  1
 22 24  1  0
 23 22  1  0
 25 24  1  1
 25 27  1  0
 26 25  1  0
 27 29  2  0
 27 28  1  0
M  END
$$$$
