QRL.pdb
     RDKit          3D

 29 28  0  0  1  0  0  0  0  0999 V2000
   22.9081  -27.8777  -15.9757 N   0  0  0  0  0  0  0  0  0  0  0  0
   23.7404  -28.2969  -17.0431 C   0  0  0  0  0  0  0  0  0  0  0  0
   23.4194  -29.3348  -17.6701 O   0  0  0  0  0  0  0  0  0  0  0  0
   24.9536  -27.5220  -17.3986 C   0  0  0  0  0  0  0  0  0  0  0  0
   25.0945  -26.2593  -16.6380 C   0  0  0  0  0  0  0  0  0  0  0  0
   26.2496  -25.3773  -16.9703 C   0  0  2  0  0  0  0  0  0  0  0  0
   27.4624  -26.2023  -16.7434 N   0  0  0  0  0  0  0  0  0  0  0  0
   26.3467  -24.1570  -16.1006 C   0  0  0  0  0  0  0  0  0  0  0  0
   26.8208  -24.3341  -14.9555 O   0  0  0  0  0  0  0  0  0  0  0  0
   27.2839  -15.7876  -18.8031 N   0  0  0  0  0  0  0  0  0  0  0  0
   26.1253  -16.6092  -18.8686 C   0  0  0  0  0  0  0  0  0  0  0  0
   25.2167  -16.3417  -19.7356 N   0  0  0  0  0  0  0  0  0  0  0  0
   25.9635  -17.7157  -17.9853 N   0  0  0  0  0  0  0  0  0  0  0  0
   26.8503  -18.0001  -16.8838 C   0  0  0  0  0  0  0  0  0  0  0  0
   26.4630  -19.1485  -16.0506 C   0  0  0  0  0  0  0  0  0  0  0  0
   26.4219  -20.5036  -16.6050 C   0  0  0  0  0  0  0  0  0  0  0  0
   26.0276  -21.6402  -15.7318 C   0  0  2  0  0  0  0  0  0  0  0  0
   25.9476  -22.8728  -16.4964 N   0  0  0  0  0  0  0  0  0  0  0  0
   24.9065  -21.4235  -14.8107 C   0  0  0  0  0  0  0  0  0  0  0  0
   23.7414  -21.6227  -15.1576 O   0  0  0  0  0  0  0  0  0  0  0  0
   24.3426  -16.8784  -19.8529 C   0  0  0  0  0  0  0  0  0  0  0  0
   23.9760  -21.6165   -9.6654 C   0  0  1  0  0  0  0  0  0  0  0  0
   25.1631  -20.9513  -10.3712 C   0  0  0  0  0  0  0  0  0  0  0  0
   25.8765  -20.1241   -9.3043 C   0  0  0  0  0  0  0  0  0  0  0  0
   24.6145  -20.0120  -11.3901 C   0  0  2  0  0  0  0  0  0  0  0  0
   23.9807  -20.7320  -12.5982 N   0  0  0  0  0  0  0  0  0  0  0  0
   25.1347  -20.9841  -13.4766 C   0  0  0  0  0  0  0  0  0  0  0  0
   23.0509  -19.7892  -13.1957 O   0  0  0  0  0  0  0  0  0  0  0  0
   23.4673  -19.0053  -14.2800 O   0  0  0  0  0  0  0  0  0  0  0  0
  1  2  1  0
  2  3  2  0
  4  5  1  0
  4  2  1  0
  6  8  1  0
  6  5  1  0
  6  7  1  1
  8  9  2  0
 10 11  1  0
 11 12  2  0
 13 14  1  0
 13 11  1  0
 15 14  1  0
 16 15  1  0
 17 16  1  6
 17 19  1  0
 18 17  1  0
 18  8  1  0
 19 20  2  0
 19 26  1  0
 22 21  1  1
 22 24  1  0
 23 22  1  0
 25 24  1  1
 25 27  1  0
 26 25  1  0
 27 29  2  0
 27 28  1  0
M  END
$$$$
