QRL.pdb
     RDKit          3D

 29 28  0  0  1  0  0  0  0  0999 V2000
   24.9003  -20.7130   -9.4043 N   0  0  0  0  0  0  0  0  0  0  0  0
   26.1593  -20.5039   -8.7885 C   0  0  0  0  0  0  0  0  0  0  0  0
   26.1766  -20.0875   -7.6055 O   0  0  0  0  0  0  0  0  0  0  0  0
   27.4133  -20.7733   -9.5326 C   0  0  0  0  0  0  0  0  0  0  0  0
   27.1907  -21.2401  -10.9202 C   0  0  0  0  0  0  0  0  0  0  0  0
   26.7930  -20.2240  -11.9361 C   0  0  2  0  0  0  0  0  0  0  0  0
   25.8686  -19.2976  -11.2359 N   0  0  0  0  0  0  0  0  0  0  0  0
   26.0670  -20.8030  -13.1162 C   0  0  0  0  0  0  0  0  0  0  0  0
   26.7658  -21.4509  -13.9281 O   0  0  0  0  0  0  0  0  0  0  0  0
   22.5581  -25.6088  -14.0511 N   0  0  0  0  0  0  0  0  0  0  0  0
   21.3926  -24.9963  -13.5143 C   0  0  0  0  0  0  0  0  0  0  0  0
   20.7830  -25.5613  -12.5357 N   0  0  0  0  0  0  0  0  0  0  0  0
   20.8974  -23.7726  -14.0510 N   0  0  0  0  0  0  0  0  0  0  0  0
   21.4710  -23.1071  -15.1950 C   0  0  0  0  0  0  0  0  0  0  0  0
   22.7254  -22.3853  -14.9336 C   0  0  0  0  0  0  0  0  0  0  0  0
   22.7346  -20.9336  -14.7387 C   0  0  0  0  0  0  0  0  0  0  0  0
   24.0304  -20.2267  -14.5627 C   0  0  2  0  0  0  0  0  0  0  0  0
   24.6911  -20.6594  -13.3436 N   0  0  0  0  0  0  0  0  0  0  0  0
   24.0392  -18.7752  -14.7756 C   0  0  0  0  0  0  0  0  0  0  0  0
   24.4408  -18.0002  -13.9064 O   0  0  0  0  0  0  0  0  0  0  0  0
   19.9297  -25.1933  -12.0859 C   0  0  0  0  0  0  0  0  0  0  0  0
   26.4533  -15.3092  -15.7501 C   0  0  2  0  0  0  0  0  0  0  0  0
   26.6172  -16.8278  -15.8803 C   0  0  0  0  0  0  0  0  0  0  0  0
   27.9974  -17.0504  -16.4943 C   0  0  0  0  0  0  0  0  0  0  0  0
   25.5977  -17.3104  -16.8546 C   0  0  2  0  0  0  0  0  0  0  0  0
   24.1552  -16.9346  -16.4576 N   0  0  0  0  0  0  0  0  0  0  0  0
   23.5912  -18.2169  -16.0054 C   0  0  0  0  0  0  0  0  0  0  0  0
   23.5063  -16.4634  -17.6688 O   0  0  0  0  0  0  0  0  0  0  0  0
   23.4873  -15.0908  -17.9500 O   0  0  0  0  0  0  0  0  0  0  0  0
  1  2  1  0
  2  3  2  0
  4  5  1  0
  4  2  1  0
  6  8  1  0
  6  5  1  0
  6  7  1  1
  8  9  2  0
 10 11  1  0
 11 12  2  0
 13 14  1  0
 13 11  1  0
 15 14  1  0
 16 15  1  0
 17 16  1  1
 17 19  1  0
 18 17  1  0
 18  8  1  0
 19 20  2  0
 19 26  1  0
 22 21  1  1
 22 24  1  0
 23 22  1  0
 25 24  1  1
 25 27  1  0
 26 25  1  0
 27 29  2  0
 27 28  1  0
M  END
$$$$
