CDK.pdb
     RDKit          3D

 24 23  0  0  1  0  0  0  0  0999 V2000
    7.6472  -14.1190   17.5389 N   0  0  0  0  0  0  0  0  0  0  0  0
    8.9251  -14.3265   18.1925 C   0  0  1  0  0  0  0  0  0  0  0  0
    9.4413  -12.9742   18.6690 C   0  0  0  0  0  0  0  0  0  0  0  0
    8.3250  -12.2226   19.8639 S   0  0  0  0  0  0  0  0  0  0  0  0
    8.7199  -15.2339   19.3512 C   0  0  0  0  0  0  0  0  0  0  0  0
    7.5617  -15.4822   19.7905 O   0  0  0  0  0  0  0  0  0  0  0  0
    9.8235  -15.8609   20.0136 N   0  0  0  0  0  0  0  0  0  0  0  0
    9.6184  -16.7385   21.1377 C   0  0  1  0  0  0  0  0  0  0  0  0
   10.6135  -17.8449   21.2644 C   0  0  0  0  0  0  0  0  0  0  0  0
   10.2696  -18.6994   22.4094 C   0  0  0  0  0  0  0  0  0  0  0  0
   10.9637  -18.6732   23.4462 O   0  0  0  0  0  0  0  0  0  0  0  0
    9.7280  -15.9245   22.4013 C   0  0  0  0  0  0  0  0  0  0  0  0
   10.7832  -15.3305   22.6717 O   0  0  0  0  0  0  0  0  0  0  0  0
    9.1754  -19.5508   22.3714 O   0  0  0  0  0  0  0  0  0  0  0  0
    8.6521  -15.8047   23.3174 N   0  0  0  0  0  0  0  0  0  0  0  0
    8.7089  -14.9500   24.4856 C   0  0  1  0  0  0  0  0  0  0  0  0
    7.3979  -14.2065   24.6807 C   0  0  0  0  0  0  0  0  0  0  0  0
    7.4186  -13.2593   25.8076 C   0  0  0  0  0  0  0  0  0  0  0  0
    6.0982  -12.6011   26.0221 C   0  0  0  0  0  0  0  0  0  0  0  0
    6.0400  -11.5503   27.0662 C   0  0  0  0  0  0  0  0  0  0  0  0
    4.7701  -10.9865   27.3554 N   0  0  0  0  0  0  0  0  0  0  0  0
    9.1472  -15.6675   25.6889 C   0  0  0  0  0  0  0  0  0  0  0  0
    9.8492  -15.1131   26.7277 O   0  0  0  0  0  0  0  0  0  0  0  0
    8.8522  -16.8890   25.7678 O   0  0  0  0  0  0  0  0  0  0  0  0
  2  1  1  1
  3  2  1  0
  4  3  1  0
  5  2  1  0
  5  6  2  0
  7  5  1  0
  8  7  1  0
  9 10  1  0
  8  9  1  1
 10 14  1  0
 10 11  2  0
 12  8  1  0
 13 12  2  0
 15 12  1  0
 16 15  1  0
 16 17  1  1
 17 18  1  0
 19 18  1  0
 20 19  1  0
 20 21  1  0
 22 16  1  0
 23 22  1  0
 24 22  2  0
M  END
$$$$
