CDK.pdb
     RDKit          3D

 24 23  0  0  1  0  0  0  0  0999 V2000
    7.0479  -15.7332   19.7452 N   0  0  0  0  0  0  0  0  0  0  0  0
    8.0203  -14.9713   20.5049 C   0  0  1  0  0  0  0  0  0  0  0  0
    7.2665  -13.9916   21.3961 C   0  0  0  0  0  0  0  0  0  0  0  0
    6.1610  -14.8446   22.5314 S   0  0  0  0  0  0  0  0  0  0  0  0
    8.8129  -15.9144   21.3358 C   0  0  0  0  0  0  0  0  0  0  0  0
    8.3950  -17.0813   21.5797 O   0  0  0  0  0  0  0  0  0  0  0  0
   10.0780  -15.5388   21.8911 N   0  0  0  0  0  0  0  0  0  0  0  0
   10.8376  -16.4544   22.7040 C   0  0  1  0  0  0  0  0  0  0  0  0
   12.2484  -16.0421   22.9687 C   0  0  0  0  0  0  0  0  0  0  0  0
   13.0815  -16.3217   21.7910 C   0  0  0  0  0  0  0  0  0  0  0  0
   13.9749  -15.5214   21.4466 O   0  0  0  0  0  0  0  0  0  0  0  0
   10.1686  -16.5610   24.0502 C   0  0  0  0  0  0  0  0  0  0  0  0
   10.0759  -15.5634   24.7820 O   0  0  0  0  0  0  0  0  0  0  0  0
   12.9011  -17.4712   21.0360 O   0  0  0  0  0  0  0  0  0  0  0  0
    9.6272  -17.7811   24.5292 N   0  0  0  0  0  0  0  0  0  0  0  0
    9.0097  -17.9058   25.8337 C   0  0  1  0  0  0  0  0  0  0  0  0
    8.2004  -19.1883   25.9327 C   0  0  0  0  0  0  0  0  0  0  0  0
    7.7711  -19.5110   27.3036 C   0  0  0  0  0  0  0  0  0  0  0  0
    7.1683  -20.8707   27.4060 C   0  0  0  0  0  0  0  0  0  0  0  0
    6.6208  -21.2584   28.7279 C   0  0  0  0  0  0  0  0  0  0  0  0
    6.1043  -22.5735   28.8608 N   0  0  0  0  0  0  0  0  0  0  0  0
    9.9719  -17.7474   26.9310 C   0  0  0  0  0  0  0  0  0  0  0  0
    9.7173  -17.1144   28.1200 O   0  0  0  0  0  0  0  0  0  0  0  0
   11.1210  -18.2333   26.7609 O   0  0  0  0  0  0  0  0  0  0  0  0
  2  1  1  1
  3  2  1  0
  4  3  1  0
  5  2  1  0
  5  6  2  0
  7  5  1  0
  8  7  1  0
  9 10  1  0
  8  9  1  1
 10 14  1  0
 10 11  2  0
 12  8  1  0
 13 12  2  0
 15 12  1  0
 16 15  1  0
 16 17  1  6
 17 18  1  0
 19 18  1  0
 20 19  1  0
 20 21  1  0
 22 16  1  0
 23 22  1  0
 24 22  2  0
M  END
$$$$
