CDK.pdb
     RDKit          3D

 24 23  0  0  1  0  0  0  0  0999 V2000
    7.6882  -14.2138   17.8122 N   0  0  0  0  0  0  0  0  0  0  0  0
    8.8047  -13.4361   18.3141 C   0  0  1  0  0  0  0  0  0  0  0  0
    8.3654  -12.7479   19.6008 C   0  0  0  0  0  0  0  0  0  0  0  0
    7.8741  -13.9407   20.8556 S   0  0  0  0  0  0  0  0  0  0  0  0
    9.9369  -14.3590   18.5873 C   0  0  0  0  0  0  0  0  0  0  0  0
    9.7672  -15.6104   18.6207 O   0  0  0  0  0  0  0  0  0  0  0  0
   11.2609  -13.8677   18.8227 N   0  0  0  0  0  0  0  0  0  0  0  0
   12.3730  -14.7689   18.9871 C   0  0  1  0  0  0  0  0  0  0  0  0
   13.6259  -14.3599   18.2845 C   0  0  0  0  0  0  0  0  0  0  0  0
   14.6775  -15.3607   18.5121 C   0  0  0  0  0  0  0  0  0  0  0  0
   14.4329  -16.5759   18.3681 O   0  0  0  0  0  0  0  0  0  0  0  0
   12.7142  -14.8391   20.4533 C   0  0  0  0  0  0  0  0  0  0  0  0
   13.2286  -13.8637   21.0220 O   0  0  0  0  0  0  0  0  0  0  0  0
   15.9589  -14.9877   18.8897 O   0  0  0  0  0  0  0  0  0  0  0  0
   12.4673  -15.9992   21.2307 N   0  0  0  0  0  0  0  0  0  0  0  0
   12.8283  -16.0961   22.6303 C   0  0  1  0  0  0  0  0  0  0  0  0
   12.1403  -17.2801   23.2894 C   0  0  0  0  0  0  0  0  0  0  0  0
   12.4646  -17.4310   24.7176 C   0  0  0  0  0  0  0  0  0  0  0  0
   11.9004  -18.6820   25.3002 C   0  0  0  0  0  0  0  0  0  0  0  0
   11.9904  -18.8304   26.7724 C   0  0  0  0  0  0  0  0  0  0  0  0
   11.3474  -19.9527   27.3563 N   0  0  0  0  0  0  0  0  0  0  0  0
   14.2812  -16.0859   22.8402 C   0  0  0  0  0  0  0  0  0  0  0  0
   15.1881  -16.8244   22.1251 O   0  0  0  0  0  0  0  0  0  0  0  0
   14.7239  -15.3375   23.7508 O   0  0  0  0  0  0  0  0  0  0  0  0
  2  1  1  1
  3  2  1  0
  4  3  1  0
  5  2  1  0
  5  6  2  0
  7  5  1  0
  8  7  1  0
  9 10  1  0
  8  9  1  6
 10 14  1  0
 10 11  2  0
 12  8  1  0
 13 12  2  0
 15 12  1  0
 16 15  1  0
 16 17  1  6
 17 18  1  0
 19 18  1  0
 20 19  1  0
 20 21  1  0
 22 16  1  0
 23 22  1  0
 24 22  2  0
M  END
$$$$
