CDK.pdb
     RDKit          3D

 24 23  0  0  1  0  0  0  0  0999 V2000
    7.5813  -15.5717   16.8285 N   0  0  0  0  0  0  0  0  0  0  0  0
    8.6723  -14.9503   17.5541 C   0  0  1  0  0  0  0  0  0  0  0  0
    8.0892  -13.8708   18.4580 C   0  0  0  0  0  0  0  0  0  0  0  0
    7.5174  -12.4515   17.5108 S   0  0  0  0  0  0  0  0  0  0  0  0
    9.3491  -15.9915   18.3701 C   0  0  0  0  0  0  0  0  0  0  0  0
    8.7088  -16.9756   18.8364 O   0  0  0  0  0  0  0  0  0  0  0  0
   10.7496  -15.9208   18.6591 N   0  0  0  0  0  0  0  0  0  0  0  0
   11.4196  -16.9808   19.3684 C   0  0  1  0  0  0  0  0  0  0  0  0
   12.4660  -17.7022   18.5841 C   0  0  0  0  0  0  0  0  0  0  0  0
   12.8947  -18.9062   19.3091 C   0  0  0  0  0  0  0  0  0  0  0  0
   13.5699  -18.8059   20.3538 O   0  0  0  0  0  0  0  0  0  0  0  0
   12.1216  -16.3840   20.5610 C   0  0  0  0  0  0  0  0  0  0  0  0
   13.2822  -15.9586   20.4538 O   0  0  0  0  0  0  0  0  0  0  0  0
   12.5648  -20.1757   18.8583 O   0  0  0  0  0  0  0  0  0  0  0  0
   11.4992  -16.2848   21.8313 N   0  0  0  0  0  0  0  0  0  0  0  0
   12.2206  -16.4680   23.0741 C   0  0  1  0  0  0  0  0  0  0  0  0
   11.5143  -17.4710   23.9711 C   0  0  0  0  0  0  0  0  0  0  0  0
   12.2713  -17.8105   25.1874 C   0  0  0  0  0  0  0  0  0  0  0  0
   11.5155  -18.7235   26.0918 C   0  0  0  0  0  0  0  0  0  0  0  0
   12.1447  -19.0391   27.3965 C   0  0  0  0  0  0  0  0  0  0  0  0
   11.3610  -19.7454   28.3457 N   0  0  0  0  0  0  0  0  0  0  0  0
   13.6382  -16.7851   22.8621 C   0  0  0  0  0  0  0  0  0  0  0  0
   14.6923  -16.0683   23.3664 O   0  0  0  0  0  0  0  0  0  0  0  0
   13.9009  -17.7970   22.1603 O   0  0  0  0  0  0  0  0  0  0  0  0
  2  1  1  1
  3  2  1  0
  4  3  1  0
  5  2  1  0
  5  6  2  0
  7  5  1  0
  8  7  1  0
  9 10  1  0
  8  9  1  6
 10 14  1  0
 10 11  2  0
 12  8  1  0
 13 12  2  0
 15 12  1  0
 16 15  1  0
 16 17  1  6
 17 18  1  0
 19 18  1  0
 20 19  1  0
 20 21  1  0
 22 16  1  0
 23 22  1  0
 24 22  2  0
M  END
$$$$
