CDK.pdb
     RDKit          3D

 24 23  0  0  1  0  0  0  0  0999 V2000
    6.2542  -16.2416   20.4583 N   0  0  0  0  0  0  0  0  0  0  0  0
    7.4792  -15.4795   20.3106 C   0  0  1  0  0  0  0  0  0  0  0  0
    7.3898  -14.2549   21.2132 C   0  0  0  0  0  0  0  0  0  0  0  0
    7.0172  -14.7111   22.9136 S   0  0  0  0  0  0  0  0  0  0  0  0
    8.6204  -16.3374   20.7223 C   0  0  0  0  0  0  0  0  0  0  0  0
    8.4498  -17.3334   21.4805 O   0  0  0  0  0  0  0  0  0  0  0  0
    9.9546  -16.0699   20.2772 N   0  0  0  0  0  0  0  0  0  0  0  0
   11.0641  -16.8767   20.7177 C   0  0  1  0  0  0  0  0  0  0  0  0
   12.1667  -17.0311   19.7222 C   0  0  0  0  0  0  0  0  0  0  0  0
   13.1753  -17.9696   20.2331 C   0  0  0  0  0  0  0  0  0  0  0  0
   12.8865  -19.1709   20.4092 O   0  0  0  0  0  0  0  0  0  0  0  0
   11.6766  -16.2209   21.9285 C   0  0  0  0  0  0  0  0  0  0  0  0
   12.2094  -15.1046   21.8314 O   0  0  0  0  0  0  0  0  0  0  0  0
   14.4639  -17.5522   20.5312 O   0  0  0  0  0  0  0  0  0  0  0  0
   11.6708  -16.8384   23.2051 N   0  0  0  0  0  0  0  0  0  0  0  0
   12.1374  -16.1686   24.4018 C   0  0  1  0  0  0  0  0  0  0  0  0
   11.4514  -16.7236   25.6391 C   0  0  0  0  0  0  0  0  0  0  0  0
   11.8985  -16.0957   26.8935 C   0  0  0  0  0  0  0  0  0  0  0  0
   11.2952  -16.7361   28.0971 C   0  0  0  0  0  0  0  0  0  0  0  0
   11.6698  -16.1656   29.4131 C   0  0  0  0  0  0  0  0  0  0  0  0
   11.0022  -16.6721   30.5584 N   0  0  0  0  0  0  0  0  0  0  0  0
   13.6014  -16.1625   24.5104 C   0  0  0  0  0  0  0  0  0  0  0  0
   14.3544  -15.1185   24.9821 O   0  0  0  0  0  0  0  0  0  0  0  0
   14.2085  -17.2013   24.1394 O   0  0  0  0  0  0  0  0  0  0  0  0
  2  1  1  1
  3  2  1  0
  4  3  1  0
  5  2  1  0
  5  6  2  0
  7  5  1  0
  8  7  1  0
  9 10  1  0
  8  9  1  6
 10 14  1  0
 10 11  2  0
 12  8  1  0
 13 12  2  0
 15 12  1  0
 16 15  1  0
 16 17  1  1
 17 18  1  0
 19 18  1  0
 20 19  1  0
 20 21  1  0
 22 16  1  0
 23 22  1  0
 24 22  2  0
M  END
$$$$
