CDK.pdb
     RDKit          3D

 24 23  0  0  1  0  0  0  0  0999 V2000
    8.6293  -14.8076   17.7300 N   0  0  0  0  0  0  0  0  0  0  0  0
    9.8721  -14.2005   18.1659 C   0  0  1  0  0  0  0  0  0  0  0  0
    9.5423  -13.1295   19.1986 C   0  0  0  0  0  0  0  0  0  0  0  0
    8.2202  -12.0479   18.6321 S   0  0  0  0  0  0  0  0  0  0  0  0
   10.7234  -15.2550   18.7751 C   0  0  0  0  0  0  0  0  0  0  0  0
   10.5952  -16.4687   18.4488 O   0  0  0  0  0  0  0  0  0  0  0  0
   11.7198  -14.9382   19.7532 N   0  0  0  0  0  0  0  0  0  0  0  0
   12.6019  -15.9508   20.2751 C   0  0  1  0  0  0  0  0  0  0  0  0
   13.4605  -16.6258   19.2565 C   0  0  0  0  0  0  0  0  0  0  0  0
   14.5737  -15.7451   18.8766 C   0  0  0  0  0  0  0  0  0  0  0  0
   15.6749  -16.2289   18.5438 O   0  0  0  0  0  0  0  0  0  0  0  0
   13.5424  -15.3007   21.2570 C   0  0  0  0  0  0  0  0  0  0  0  0
   14.7201  -15.0755   20.9379 O   0  0  0  0  0  0  0  0  0  0  0  0
   14.4345  -14.3651   18.8767 O   0  0  0  0  0  0  0  0  0  0  0  0
   13.1308  -14.9259   22.5613 N   0  0  0  0  0  0  0  0  0  0  0  0
   13.5557  -15.6346   23.7511 C   0  0  1  0  0  0  0  0  0  0  0  0
   12.4273  -16.4848   24.3108 C   0  0  0  0  0  0  0  0  0  0  0  0
   12.8343  -17.3356   25.4414 C   0  0  0  0  0  0  0  0  0  0  0  0
   11.7313  -18.2206   25.9135 C   0  0  0  0  0  0  0  0  0  0  0  0
   12.0705  -19.1986   26.9747 C   0  0  0  0  0  0  0  0  0  0  0  0
   11.0593  -20.1141   27.3666 N   0  0  0  0  0  0  0  0  0  0  0  0
   14.7969  -16.3907   23.5444 C   0  0  0  0  0  0  0  0  0  0  0  0
   16.0019  -16.1081   24.1339 O   0  0  0  0  0  0  0  0  0  0  0  0
   14.7448  -17.3761   22.7624 O   0  0  0  0  0  0  0  0  0  0  0  0
  2  1  1  1
  3  2  1  0
  4  3  1  0
  5  2  1  0
  5  6  2  0
  7  5  1  0
  8  7  1  0
  9 10  1  0
  8  9  1  6
 10 14  1  0
 10 11  2  0
 12  8  1  0
 13 12  2  0
 15 12  1  0
 16 15  1  0
 16 17  1  6
 17 18  1  0
 19 18  1  0
 20 19  1  0
 20 21  1  0
 22 16  1  0
 23 22  1  0
 24 22  2  0
M  END
$$$$
