CDK.pdb
     RDKit          3D

 24 23  0  0  1  0  0  0  0  0999 V2000
    5.6221  -13.9351   26.0947 N   0  0  0  0  0  0  0  0  0  0  0  0
    6.6503  -13.3881   25.2306 C   0  0  1  0  0  0  0  0  0  0  0  0
    7.5416  -12.4787   26.0676 C   0  0  0  0  0  0  0  0  0  0  0  0
    6.6747  -10.9851   26.5738 S   0  0  0  0  0  0  0  0  0  0  0  0
    7.4452  -14.5133   24.6735 C   0  0  0  0  0  0  0  0  0  0  0  0
    7.5770  -15.5979   25.3076 O   0  0  0  0  0  0  0  0  0  0  0  0
    8.0912  -14.4127   23.3998 N   0  0  0  0  0  0  0  0  0  0  0  0
    8.8267  -15.5212   22.8465 C   0  0  1  0  0  0  0  0  0  0  0  0
    9.3073  -15.3238   21.4463 C   0  0  0  0  0  0  0  0  0  0  0  0
    8.2168  -15.5948   20.4994 C   0  0  0  0  0  0  0  0  0  0  0  0
    7.3997  -16.5108   20.7244 O   0  0  0  0  0  0  0  0  0  0  0  0
   10.0570  -15.7421   23.6885 C   0  0  0  0  0  0  0  0  0  0  0  0
   10.7744  -14.7821   24.0095 O   0  0  0  0  0  0  0  0  0  0  0  0
    8.0656  -14.8482   19.3403 O   0  0  0  0  0  0  0  0  0  0  0  0
   10.4402  -17.0302   24.1412 N   0  0  0  0  0  0  0  0  0  0  0  0
   11.5319  -17.2420   25.0697 C   0  0  1  0  0  0  0  0  0  0  0  0
   11.0137  -17.6886   26.4267 C   0  0  0  0  0  0  0  0  0  0  0  0
   12.0803  -18.0288   27.3829 C   0  0  0  0  0  0  0  0  0  0  0  0
   11.5431  -18.5321   28.6794 C   0  0  0  0  0  0  0  0  0  0  0  0
   12.5322  -18.8014   29.7502 C   0  0  0  0  0  0  0  0  0  0  0  0
   12.0403  -19.3073   30.9816 N   0  0  0  0  0  0  0  0  0  0  0  0
   12.5679  -18.1306   24.5292 C   0  0  0  0  0  0  0  0  0  0  0  0
   13.8699  -18.1774   24.9556 O   0  0  0  0  0  0  0  0  0  0  0  0
   12.2279  -18.9095   23.6002 O   0  0  0  0  0  0  0  0  0  0  0  0
  2  1  1  1
  3  2  1  0
  4  3  1  0
  5  2  1  0
  5  6  2  0
  7  5  1  0
  8  7  1  0
  9 10  1  0
  8  9  1  6
 10 14  1  0
 10 11  2  0
 12  8  1  0
 13 12  2  0
 15 12  1  0
 16 15  1  0
 16 17  1  1
 17 18  1  0
 19 18  1  0
 20 19  1  0
 20 21  1  0
 22 16  1  0
 23 22  1  0
 24 22  2  0
M  END
$$$$
