CDK.pdb
     RDKit          3D

 24 23  0  0  1  0  0  0  0  0999 V2000
    7.0315  -15.0329   18.9888 N   0  0  0  0  0  0  0  0  0  0  0  0
    8.3084  -14.6167   19.5360 C   0  0  1  0  0  0  0  0  0  0  0  0
    8.1529  -13.2041   20.0862 C   0  0  0  0  0  0  0  0  0  0  0  0
    8.2855  -11.9682   18.7848 S   0  0  0  0  0  0  0  0  0  0  0  0
    8.6812  -15.5536   20.6274 C   0  0  0  0  0  0  0  0  0  0  0  0
    7.8168  -15.9895   21.4391 O   0  0  0  0  0  0  0  0  0  0  0  0
   10.0310  -15.9981   20.8017 N   0  0  0  0  0  0  0  0  0  0  0  0
   10.3754  -16.9564   21.8210 C   0  0  1  0  0  0  0  0  0  0  0  0
   11.6366  -17.7166   21.5723 C   0  0  0  0  0  0  0  0  0  0  0  0
   11.9131  -18.6125   22.7037 C   0  0  0  0  0  0  0  0  0  0  0  0
   11.0571  -19.4410   23.0754 O   0  0  0  0  0  0  0  0  0  0  0  0
   10.5761  -16.2173   23.1189 C   0  0  0  0  0  0  0  0  0  0  0  0
   11.4791  -15.3728   23.2232 O   0  0  0  0  0  0  0  0  0  0  0  0
   13.1206  -18.5639   23.3843 O   0  0  0  0  0  0  0  0  0  0  0  0
    9.7587  -16.4501   24.2541 N   0  0  0  0  0  0  0  0  0  0  0  0
   10.0041  -15.8256   25.5380 C   0  0  1  0  0  0  0  0  0  0  0  0
    9.3883  -14.4375   25.5950 C   0  0  0  0  0  0  0  0  0  0  0  0
    7.9865  -14.4317   26.0451 C   0  0  0  0  0  0  0  0  0  0  0  0
    7.4364  -13.0522   26.1758 C   0  0  0  0  0  0  0  0  0  0  0  0
    6.0198  -12.9375   26.5970 C   0  0  0  0  0  0  0  0  0  0  0  0
    5.4889  -11.6308   26.7548 N   0  0  0  0  0  0  0  0  0  0  0  0
    9.6059  -16.6777   26.6651 C   0  0  0  0  0  0  0  0  0  0  0  0
    8.8714  -17.8306   26.5632 O   0  0  0  0  0  0  0  0  0  0  0  0
    9.9708  -16.3159   27.8146 O   0  0  0  0  0  0  0  0  0  0  0  0
  2  1  1  1
  3  2  1  0
  4  3  1  0
  5  2  1  0
  5  6  2  0
  7  5  1  0
  8  7  1  0
  9 10  1  0
  8  9  1  6
 10 14  1  0
 10 11  2  0
 12  8  1  0
 13 12  2  0
 15 12  1  0
 16 15  1  0
 16 17  1  6
 17 18  1  0
 19 18  1  0
 20 19  1  0
 20 21  1  0
 22 16  1  0
 23 22  1  0
 24 22  2  0
M  END
$$$$
