CDK.pdb
     RDKit          3D

 24 23  0  0  1  0  0  0  0  0999 V2000
    5.6452  -13.5169   26.3033 N   0  0  0  0  0  0  0  0  0  0  0  0
    6.4304  -13.0236   25.1883 C   0  0  1  0  0  0  0  0  0  0  0  0
    7.3518  -11.9248   25.7040 C   0  0  0  0  0  0  0  0  0  0  0  0
    7.6709  -12.1009   27.4663 S   0  0  0  0  0  0  0  0  0  0  0  0
    7.2314  -14.1493   24.6413 C   0  0  0  0  0  0  0  0  0  0  0  0
    7.4445  -15.1918   25.3222 O   0  0  0  0  0  0  0  0  0  0  0  0
    7.7915  -14.0971   23.3247 N   0  0  0  0  0  0  0  0  0  0  0  0
    8.4377  -15.2457   22.7425 C   0  0  1  0  0  0  0  0  0  0  0  0
    8.8855  -15.0689   21.3288 C   0  0  0  0  0  0  0  0  0  0  0  0
    9.4020  -16.3405   20.8040 C   0  0  0  0  0  0  0  0  0  0  0  0
   10.0287  -16.3691   19.7252 O   0  0  0  0  0  0  0  0  0  0  0  0
    9.6774  -15.5497   23.5438 C   0  0  0  0  0  0  0  0  0  0  0  0
   10.5586  -14.6872   23.6817 O   0  0  0  0  0  0  0  0  0  0  0  0
    9.2100  -17.5334   21.4851 O   0  0  0  0  0  0  0  0  0  0  0  0
    9.8864  -16.8086   24.1622 N   0  0  0  0  0  0  0  0  0  0  0  0
   10.9666  -17.0536   25.0958 C   0  0  1  0  0  0  0  0  0  0  0  0
   10.5161  -17.9697   26.2216 C   0  0  0  0  0  0  0  0  0  0  0  0
   11.5849  -18.2962   27.1802 C   0  0  0  0  0  0  0  0  0  0  0  0
   11.1023  -19.1541   28.2999 C   0  0  0  0  0  0  0  0  0  0  0  0
   12.1063  -19.5482   29.3170 C   0  0  0  0  0  0  0  0  0  0  0  0
   12.2866  -18.6820   30.4267 N   0  0  0  0  0  0  0  0  0  0  0  0
   12.1913  -17.5175   24.4325 C   0  0  0  0  0  0  0  0  0  0  0  0
   12.2424  -18.4554   23.4340 O   0  0  0  0  0  0  0  0  0  0  0  0
   13.2782  -17.0102   24.8152 O   0  0  0  0  0  0  0  0  0  0  0  0
  2  1  1  1
  3  2  1  0
  4  3  1  0
  5  2  1  0
  5  6  2  0
  7  5  1  0
  8  7  1  0
  9 10  1  0
  8  9  1  6
 10 14  1  0
 10 11  2  0
 12  8  1  0
 13 12  2  0
 15 12  1  0
 16 15  1  0
 16 17  1  1
 17 18  1  0
 19 18  1  0
 20 19  1  0
 20 21  1  0
 22 16  1  0
 23 22  1  0
 24 22  2  0
M  END
$$$$
