CDK.pdb
     RDKit          3D

 24 23  0  0  1  0  0  0  0  0999 V2000
    7.1784  -15.5579   18.8947 N   0  0  0  0  0  0  0  0  0  0  0  0
    8.2887  -14.8475   19.4995 C   0  0  1  0  0  0  0  0  0  0  0  0
    7.7900  -13.4801   19.9509 C   0  0  0  0  0  0  0  0  0  0  0  0
    7.1202  -12.5322   18.5755 S   0  0  0  0  0  0  0  0  0  0  0  0
    8.7679  -15.6298   20.6684 C   0  0  0  0  0  0  0  0  0  0  0  0
    8.2045  -16.7078   21.0094 O   0  0  0  0  0  0  0  0  0  0  0  0
    9.8840  -15.1939   21.4521 N   0  0  0  0  0  0  0  0  0  0  0  0
   10.7380  -16.1392   22.1251 C   0  0  1  0  0  0  0  0  0  0  0  0
   12.1621  -16.1349   21.6751 C   0  0  0  0  0  0  0  0  0  0  0  0
   12.9370  -17.1097   22.4552 C   0  0  0  0  0  0  0  0  0  0  0  0
   12.5774  -18.3035   22.5078 O   0  0  0  0  0  0  0  0  0  0  0  0
   10.7575  -15.7997   23.5933 C   0  0  0  0  0  0  0  0  0  0  0  0
   11.6715  -16.2205   24.3192 O   0  0  0  0  0  0  0  0  0  0  0  0
   14.0786  -16.7353   23.1483 O   0  0  0  0  0  0  0  0  0  0  0  0
    9.7528  -15.0012   24.1965 N   0  0  0  0  0  0  0  0  0  0  0  0
    9.0631  -15.3928   25.4087 C   0  0  1  0  0  0  0  0  0  0  0  0
    7.5581  -15.2584   25.2466 C   0  0  0  0  0  0  0  0  0  0  0  0
    6.9404  -14.3359   26.2137 C   0  0  0  0  0  0  0  0  0  0  0  0
    6.9748  -12.9192   25.7506 C   0  0  0  0  0  0  0  0  0  0  0  0
    6.4294  -11.9015   26.6804 C   0  0  0  0  0  0  0  0  0  0  0  0
    6.5781  -10.5378   26.3164 N   0  0  0  0  0  0  0  0  0  0  0  0
    9.4734  -16.7182   25.8882 C   0  0  0  0  0  0  0  0  0  0  0  0
   10.4239  -17.5119   25.3000 O   0  0  0  0  0  0  0  0  0  0  0  0
    8.9037  -17.1558   26.9222 O   0  0  0  0  0  0  0  0  0  0  0  0
  2  1  1  1
  3  2  1  0
  4  3  1  0
  5  2  1  0
  5  6  2  0
  7  5  1  0
  8  7  1  0
  9 10  1  0
  8  9  1  6
 10 14  1  0
 10 11  2  0
 12  8  1  0
 13 12  2  0
 15 12  1  0
 16 15  1  0
 16 17  1  6
 17 18  1  0
 19 18  1  0
 20 19  1  0
 20 21  1  0
 22 16  1  0
 23 22  1  0
 24 22  2  0
M  END
$$$$
