CDK.pdb
     RDKit          3D

 24 23  0  0  1  0  0  0  0  0999 V2000
    7.6747  -15.1461   16.8903 N   0  0  0  0  0  0  0  0  0  0  0  0
    8.5774  -14.5630   17.8641 C   0  0  1  0  0  0  0  0  0  0  0  0
    8.0706  -13.1674   18.2074 C   0  0  0  0  0  0  0  0  0  0  0  0
    9.0111  -12.4342   19.5552 S   0  0  0  0  0  0  0  0  0  0  0  0
    8.5792  -15.4205   19.0777 C   0  0  0  0  0  0  0  0  0  0  0  0
    7.5230  -15.9828   19.4828 O   0  0  0  0  0  0  0  0  0  0  0  0
    9.7747  -15.6428   19.8334 N   0  0  0  0  0  0  0  0  0  0  0  0
    9.7926  -16.5511   20.9517 C   0  0  1  0  0  0  0  0  0  0  0  0
   10.9642  -17.4763   20.9947 C   0  0  0  0  0  0  0  0  0  0  0  0
   10.8194  -18.4165   22.1147 C   0  0  0  0  0  0  0  0  0  0  0  0
   11.7076  -18.4988   22.9873 O   0  0  0  0  0  0  0  0  0  0  0  0
    9.8474  -15.7403   22.2209 C   0  0  0  0  0  0  0  0  0  0  0  0
   10.8757  -15.1121   22.5164 O   0  0  0  0  0  0  0  0  0  0  0  0
    9.7032  -19.2312   22.2331 O   0  0  0  0  0  0  0  0  0  0  0  0
    8.7488  -15.6617   23.1141 N   0  0  0  0  0  0  0  0  0  0  0  0
    8.8007  -14.9192   24.3569 C   0  0  1  0  0  0  0  0  0  0  0  0
    7.4752  -14.2298   24.6352 C   0  0  0  0  0  0  0  0  0  0  0  0
    7.4796  -13.4156   25.8619 C   0  0  0  0  0  0  0  0  0  0  0  0
    6.1420  -12.8283   26.1598 C   0  0  0  0  0  0  0  0  0  0  0  0
    6.0655  -11.8962   27.3099 C   0  0  0  0  0  0  0  0  0  0  0  0
    4.8243  -11.2495   27.5451 N   0  0  0  0  0  0  0  0  0  0  0  0
    9.2713  -15.7355   25.4826 C   0  0  0  0  0  0  0  0  0  0  0  0
    9.1609  -17.0991   25.5704 O   0  0  0  0  0  0  0  0  0  0  0  0
    9.8191  -15.1297   26.4409 O   0  0  0  0  0  0  0  0  0  0  0  0
  2  1  1  6
  3  2  1  0
  4  3  1  0
  5  2  1  0
  5  6  2  0
  7  5  1  0
  8  7  1  0
  9 10  1  0
  8  9  1  6
 10 14  1  0
 10 11  2  0
 12  8  1  0
 13 12  2  0
 15 12  1  0
 16 15  1  0
 16 17  1  1
 17 18  1  0
 19 18  1  0
 20 19  1  0
 20 21  1  0
 22 16  1  0
 23 22  1  0
 24 22  2  0
M  END
$$$$
