GLP.pdb
     RDKit          3D

 20 20  0  0  1  0  0  0  0  0999 V2000
    4.9289  -20.2328   24.8235 N   0  0  0  0  0  0  0  0  0  0  0  0
    6.1932  -19.5275   24.8598 C   0  0  0  0  0  0  0  0  0  0  0  0
    6.0062  -18.0875   24.4582 C   0  0  0  0  0  0  0  0  0  0  0  0
    5.5961  -17.7660   23.3144 O   0  0  0  0  0  0  0  0  0  0  0  0
    6.0548  -12.5577   26.1007 C   0  0  0  0  0  0  0  0  0  0  0  0
    7.2648  -13.4590   25.9954 C   0  0  1  0  0  0  0  0  0  0  0  0
    8.1866  -12.9769   27.1545 C   0  0  0  0  0  0  0  0  0  0  0  0
    6.9375  -14.8972   26.2558 C   0  0  0  0  0  0  0  0  0  0  0  0
    6.7954  -15.7698   25.0528 C   0  0  2  0  0  0  0  0  0  0  0  0
    6.3030  -17.0827   25.4008 N   0  0  0  0  0  0  0  0  0  0  0  0
    8.0202  -15.8161   24.2798 C   0  0  0  0  0  0  0  0  0  0  0  0
    8.8419  -16.7799   24.5413 O   0  0  0  0  0  0  0  0  0  0  0  0
    8.4364  -14.9396   23.2720 N   0  0  0  0  0  0  0  0  0  0  0  0
    8.2027  -13.5623   22.9269 C   0  0  0  0  0  0  0  0  0  0  0  0
    7.6218  -13.7794   21.5120 C   0  0  0  0  0  0  0  0  0  0  0  0
    8.7693  -14.6240   20.9360 C   0  0  0  0  0  0  0  0  0  0  0  0
    9.3589  -15.3312   22.1397 C   0  0  1  0  0  0  0  0  0  0  0  0
   10.7123  -14.8638   22.4902 C   0  0  0  0  0  0  0  0  0  0  0  0
   11.8222  -15.1464   21.7365 O   0  0  0  0  0  0  0  0  0  0  0  0
   10.8639  -14.1744   23.5251 O   0  0  0  0  0  0  0  0  0  0  0  0
  2  1  1  0
  3 10  1  0
  3  2  1  0
  4  3  2  0
  6  5  1  1
  6  8  1  0
  7  6  1  0
  9  8  1  1
  9 11  1  0
  9 10  1  0
 11 13  1  0
 12 11  2  0
 13 14  1  0
 13 17  1  0
 14 15  1  0
 15 16  1  0
 17 16  1  0
 17 18  1  1
 18 20  2  0
 18 19  1  0
M  END
$$$$
