GLP.pdb
     RDKit          3D

 20 20  0  0  1  0  0  0  0  0999 V2000
    5.0684  -20.2104   24.5598 N   0  0  0  0  0  0  0  0  0  0  0  0
    6.1848  -19.4229   25.0399 C   0  0  0  0  0  0  0  0  0  0  0  0
    6.0357  -17.9840   24.6190 C   0  0  0  0  0  0  0  0  0  0  0  0
    5.6616  -17.6670   23.4617 O   0  0  0  0  0  0  0  0  0  0  0  0
    6.0805  -12.3675   26.2597 C   0  0  0  0  0  0  0  0  0  0  0  0
    7.2392  -13.3310   26.1315 C   0  0  1  0  0  0  0  0  0  0  0  0
    8.2051  -12.9017   27.2753 C   0  0  0  0  0  0  0  0  0  0  0  0
    6.8411  -14.7507   26.3946 C   0  0  0  0  0  0  0  0  0  0  0  0
    6.7900  -15.6528   25.2061 C   0  0  2  0  0  0  0  0  0  0  0  0
    6.3268  -16.9750   25.5589 N   0  0  0  0  0  0  0  0  0  0  0  0
    8.0529  -15.6712   24.4959 C   0  0  0  0  0  0  0  0  0  0  0  0
    8.9589  -16.4843   24.9325 O   0  0  0  0  0  0  0  0  0  0  0  0
    8.4260  -14.9112   23.3821 N   0  0  0  0  0  0  0  0  0  0  0  0
    8.1298  -13.6000   22.8687 C   0  0  0  0  0  0  0  0  0  0  0  0
    7.5541  -14.0189   21.4977 C   0  0  0  0  0  0  0  0  0  0  0  0
    8.7362  -14.8783   21.0220 C   0  0  0  0  0  0  0  0  0  0  0  0
    9.3611  -15.4015   22.2996 C   0  0  1  0  0  0  0  0  0  0  0  0
   10.6934  -14.8347   22.5762 C   0  0  0  0  0  0  0  0  0  0  0  0
   11.8167  -15.1789   21.8692 O   0  0  0  0  0  0  0  0  0  0  0  0
   10.8135  -13.9974   23.5001 O   0  0  0  0  0  0  0  0  0  0  0  0
  2  1  1  0
  3 10  1  0
  3  2  1  0
  4  3  2  0
  6  5  1  1
  6  8  1  0
  7  6  1  0
  9  8  1  1
  9 11  1  0
  9 10  1  0
 11 13  1  0
 12 11  2  0
 13 14  1  0
 13 17  1  0
 14 15  1  0
 15 16  1  0
 17 16  1  0
 17 18  1  1
 18 20  2  0
 18 19  1  0
M  END
$$$$
