GLP.pdb
     RDKit          3D

 20 20  0  0  1  0  0  0  0  0999 V2000
    5.1479  -20.2094   24.5006 N   0  0  0  0  0  0  0  0  0  0  0  0
    6.0218  -19.3272   25.2457 C   0  0  0  0  0  0  0  0  0  0  0  0
    5.9767  -17.9337   24.6749 C   0  0  0  0  0  0  0  0  0  0  0  0
    5.7386  -17.7226   23.4590 O   0  0  0  0  0  0  0  0  0  0  0  0
    6.0392  -12.2739   25.8095 C   0  0  0  0  0  0  0  0  0  0  0  0
    7.2282  -13.2079   25.8486 C   0  0  1  0  0  0  0  0  0  0  0  0
    8.1114  -12.6339   26.9959 C   0  0  0  0  0  0  0  0  0  0  0  0
    6.8517  -14.6055   26.2334 C   0  0  0  0  0  0  0  0  0  0  0  0
    6.8489  -15.6148   25.1333 C   0  0  2  0  0  0  0  0  0  0  0  0
    6.2099  -16.8453   25.5394 N   0  0  0  0  0  0  0  0  0  0  0  0
    8.1789  -15.8231   24.5972 C   0  0  0  0  0  0  0  0  0  0  0  0
    8.8888  -16.7588   25.1385 O   0  0  0  0  0  0  0  0  0  0  0  0
    8.8052  -15.1321   23.5544 N   0  0  0  0  0  0  0  0  0  0  0  0
    8.7463  -13.8056   23.0000 C   0  0  0  0  0  0  0  0  0  0  0  0
    8.3444  -14.1816   21.5566 C   0  0  0  0  0  0  0  0  0  0  0  0
    9.4777  -15.1797   21.2712 C   0  0  0  0  0  0  0  0  0  0  0  0
    9.8327  -15.7470   22.6309 C   0  0  1  0  0  0  0  0  0  0  0  0
   11.1632  -15.3316   23.1108 C   0  0  0  0  0  0  0  0  0  0  0  0
   12.3341  -15.8300   22.6003 O   0  0  0  0  0  0  0  0  0  0  0  0
   11.2360  -14.4827   24.0290 O   0  0  0  0  0  0  0  0  0  0  0  0
  2  1  1  0
  3 10  1  0
  3  2  1  0
  4  3  2  0
  6  5  1  1
  6  8  1  0
  7  6  1  0
  9  8  1  1
  9 11  1  0
  9 10  1  0
 11 13  1  0
 12 11  2  0
 13 14  1  0
 13 17  1  0
 14 15  1  0
 15 16  1  0
 17 16  1  0
 17 18  1  1
 18 20  2  0
 18 19  1  0
M  END
$$$$
