GLP.pdb
     RDKit          3D

 20 20  0  0  1  0  0  0  0  0999 V2000
    4.6018  -19.8586   23.5397 N   0  0  0  0  0  0  0  0  0  0  0  0
    5.4786  -19.3532   24.5755 C   0  0  0  0  0  0  0  0  0  0  0  0
    6.0175  -17.9984   24.1966 C   0  0  0  0  0  0  0  0  0  0  0  0
    6.2443  -17.6858   23.0004 O   0  0  0  0  0  0  0  0  0  0  0  0
    6.2340  -12.3214   26.4103 C   0  0  0  0  0  0  0  0  0  0  0  0
    7.1076  -13.4081   25.8242 C   0  0  1  0  0  0  0  0  0  0  0  0
    8.4046  -13.3434   26.6840 C   0  0  0  0  0  0  0  0  0  0  0  0
    6.5239  -14.7760   26.0013 C   0  0  0  0  0  0  0  0  0  0  0  0
    6.9617  -15.8123   25.0200 C   0  0  2  0  0  0  0  0  0  0  0  0
    6.2700  -17.0645   25.2215 N   0  0  0  0  0  0  0  0  0  0  0  0
    8.4030  -15.9623   25.0100 C   0  0  0  0  0  0  0  0  0  0  0  0
    8.9286  -16.6363   25.9806 O   0  0  0  0  0  0  0  0  0  0  0  0
    9.3144  -15.4643   24.0727 N   0  0  0  0  0  0  0  0  0  0  0  0
    9.4489  -14.2687   23.2835 C   0  0  0  0  0  0  0  0  0  0  0  0
    9.4564  -14.9218   21.8835 C   0  0  0  0  0  0  0  0  0  0  0  0
   10.5967  -15.9246   22.1204 C   0  0  0  0  0  0  0  0  0  0  0  0
   10.5419  -16.2145   23.6069 C   0  0  1  0  0  0  0  0  0  0  0  0
   11.6960  -15.6798   24.3520 C   0  0  0  0  0  0  0  0  0  0  0  0
   12.9335  -16.2702   24.3431 O   0  0  0  0  0  0  0  0  0  0  0  0
   11.5472  -14.6359   25.0281 O   0  0  0  0  0  0  0  0  0  0  0  0
  2  1  1  0
  3 10  1  0
  3  2  1  0
  4  3  2  0
  6  5  1  1
  6  8  1  0
  7  6  1  0
  9  8  1  1
  9 11  1  0
  9 10  1  0
 11 13  1  0
 12 11  2  0
 13 14  1  0
 13 17  1  0
 14 15  1  0
 15 16  1  0
 17 16  1  0
 17 18  1  1
 18 20  2  0
 18 19  1  0
M  END
$$$$
