GLP.pdb
     RDKit          3D

 20 20  0  0  1  0  0  0  0  0999 V2000
    4.6666  -19.4237   23.9915 N   0  0  0  0  0  0  0  0  0  0  0  0
    5.2468  -18.6424   25.0639 C   0  0  0  0  0  0  0  0  0  0  0  0
    5.9840  -17.4509   24.5102 C   0  0  0  0  0  0  0  0  0  0  0  0
    6.0831  -17.2485   23.2736 O   0  0  0  0  0  0  0  0  0  0  0  0
    6.8226  -12.4269   27.3289 C   0  0  0  0  0  0  0  0  0  0  0  0
    6.5854  -13.3877   26.1853 C   0  0  1  0  0  0  0  0  0  0  0  0
    6.7518  -12.5001   24.9164 C   0  0  0  0  0  0  0  0  0  0  0  0
    7.6222  -14.4662   26.1132 C   0  0  0  0  0  0  0  0  0  0  0  0
    7.4551  -15.4702   25.0210 C   0  0  2  0  0  0  0  0  0  0  0  0
    6.5744  -16.5457   25.4148 N   0  0  0  0  0  0  0  0  0  0  0  0
    8.7341  -15.9428   24.5306 C   0  0  0  0  0  0  0  0  0  0  0  0
    9.2416  -16.9765   25.1192 O   0  0  0  0  0  0  0  0  0  0  0  0
    9.5040  -15.4175   23.4873 N   0  0  0  0  0  0  0  0  0  0  0  0
    9.5625  -14.1792   22.7566 C   0  0  0  0  0  0  0  0  0  0  0  0
    9.3160  -14.7416   21.3391 C   0  0  0  0  0  0  0  0  0  0  0  0
   10.4342  -15.7959   21.3289 C   0  0  0  0  0  0  0  0  0  0  0  0
   10.6065  -16.1780   22.7852 C   0  0  1  0  0  0  0  0  0  0  0  0
   11.8877  -15.7316   23.3615 C   0  0  0  0  0  0  0  0  0  0  0  0
   11.9765  -14.7869   24.3512 O   0  0  0  0  0  0  0  0  0  0  0  0
   12.9512  -16.2350   22.9316 O   0  0  0  0  0  0  0  0  0  0  0  0
  2  1  1  0
  3 10  1  0
  3  2  1  0
  4  3  2  0
  6  5  1  1
  6  8  1  0
  7  6  1  0
  9  8  1  1
  9 11  1  0
  9 10  1  0
 11 13  1  0
 12 11  2  0
 13 14  1  0
 13 17  1  0
 14 15  1  0
 15 16  1  0
 17 16  1  0
 17 18  1  1
 18 20  2  0
 18 19  1  0
M  END
$$$$
