GLP.pdb
     RDKit          3D

 20 20  0  0  1  0  0  0  0  0999 V2000
    6.4897  -16.8777   20.9816 N   0  0  0  0  0  0  0  0  0  0  0  0
    6.0890  -16.8198   22.3720 C   0  0  0  0  0  0  0  0  0  0  0  0
    7.1359  -16.1144   23.1943 C   0  0  0  0  0  0  0  0  0  0  0  0
    8.3005  -15.9229   22.7621 O   0  0  0  0  0  0  0  0  0  0  0  0
    5.8138  -12.1391   26.9732 C   0  0  0  0  0  0  0  0  0  0  0  0
    6.5448  -12.9352   25.9153 C   0  0  1  0  0  0  0  0  0  0  0  0
    7.7762  -12.0466   25.5691 C   0  0  0  0  0  0  0  0  0  0  0  0
    7.0686  -14.2392   26.4336 C   0  0  0  0  0  0  0  0  0  0  0  0
    7.7330  -15.1274   25.4343 C   0  0  2  0  0  0  0  0  0  0  0  0
    6.7865  -15.6617   24.4825 N   0  0  0  0  0  0  0  0  0  0  0  0
    8.5237  -16.1569   26.0782 C   0  0  0  0  0  0  0  0  0  0  0  0
    7.9177  -17.2594   26.3781 O   0  0  0  0  0  0  0  0  0  0  0  0
    9.8786  -16.1125   26.4239 N   0  0  0  0  0  0  0  0  0  0  0  0
   10.8996  -15.1021   26.5094 C   0  0  0  0  0  0  0  0  0  0  0  0
   11.9076  -15.7146   25.5118 C   0  0  0  0  0  0  0  0  0  0  0  0
   12.0245  -17.1069   26.1522 C   0  0  0  0  0  0  0  0  0  0  0  0
   10.6869  -17.3241   26.8306 C   0  0  1  0  0  0  0  0  0  0  0  0
   10.7689  -17.3271   28.3024 C   0  0  0  0  0  0  0  0  0  0  0  0
   11.2651  -18.3821   29.0239 O   0  0  0  0  0  0  0  0  0  0  0  0
   10.3680  -16.3209   28.9316 O   0  0  0  0  0  0  0  0  0  0  0  0
  2  1  1  0
  3 10  1  0
  3  2  1  0
  4  3  2  0
  6  5  1  1
  6  8  1  0
  7  6  1  0
  9  8  1  1
  9 11  1  0
  9 10  1  0
 11 13  1  0
 12 11  2  0
 13 14  1  0
 13 17  1  0
 14 15  1  0
 15 16  1  0
 17 16  1  0
 17 18  1  1
 18 20  2  0
 18 19  1  0
M  END
$$$$
