GLP.pdb
     RDKit          3D

 20 20  0  0  1  0  0  0  0  0999 V2000
    5.2246  -20.3448   24.2899 N   0  0  0  0  0  0  0  0  0  0  0  0
    5.9069  -19.4667   25.2176 C   0  0  0  0  0  0  0  0  0  0  0  0
    5.9268  -18.0552   24.6911 C   0  0  0  0  0  0  0  0  0  0  0  0
    5.5505  -17.7772   23.5245 O   0  0  0  0  0  0  0  0  0  0  0  0
    6.1647  -12.3162   26.3337 C   0  0  0  0  0  0  0  0  0  0  0  0
    7.1703  -13.3201   25.8158 C   0  0  1  0  0  0  0  0  0  0  0  0
    8.4841  -12.9468   26.5644 C   0  0  0  0  0  0  0  0  0  0  0  0
    6.8273  -14.7281   26.1940 C   0  0  0  0  0  0  0  0  0  0  0  0
    6.7912  -15.7206   25.0792 C   0  0  2  0  0  0  0  0  0  0  0  0
    6.3825  -17.0272   25.5407 N   0  0  0  0  0  0  0  0  0  0  0  0
    8.0428  -15.7489   24.3496 C   0  0  0  0  0  0  0  0  0  0  0  0
    8.9293  -16.6058   24.7401 O   0  0  0  0  0  0  0  0  0  0  0  0
    8.4235  -14.9568   23.2611 N   0  0  0  0  0  0  0  0  0  0  0  0
    8.1407  -13.6265   22.7910 C   0  0  0  0  0  0  0  0  0  0  0  0
    7.5605  -13.9945   21.4074 C   0  0  0  0  0  0  0  0  0  0  0  0
    8.7336  -14.8499   20.9032 C   0  0  0  0  0  0  0  0  0  0  0  0
    9.3533  -15.4211   22.1626 C   0  0  1  0  0  0  0  0  0  0  0  0
   10.6914  -14.8773   22.4569 C   0  0  0  0  0  0  0  0  0  0  0  0
   10.9662  -14.1208   23.5669 O   0  0  0  0  0  0  0  0  0  0  0  0
   11.6280  -15.1134   21.6594 O   0  0  0  0  0  0  0  0  0  0  0  0
  2  1  1  0
  3 10  1  0
  3  2  1  0
  4  3  2  0
  6  5  1  1
  6  8  1  0
  7  6  1  0
  9  8  1  1
  9 11  1  0
  9 10  1  0
 11 13  1  0
 12 11  2  0
 13 14  1  0
 13 17  1  0
 14 15  1  0
 15 16  1  0
 17 16  1  0
 17 18  1  1
 18 20  2  0
 18 19  1  0
M  END
$$$$
