GLP.pdb
     RDKit          3D

 20 20  0  0  1  0  0  0  0  0999 V2000
    5.2262  -19.5261   22.7286 N   0  0  0  0  0  0  0  0  0  0  0  0
    5.4561  -18.9135   24.0204 C   0  0  0  0  0  0  0  0  0  0  0  0
    6.1942  -17.6096   23.8627 C   0  0  0  0  0  0  0  0  0  0  0  0
    6.9646  -17.3969   22.8926 O   0  0  0  0  0  0  0  0  0  0  0  0
    7.3286  -12.2532   25.0596 C   0  0  0  0  0  0  0  0  0  0  0  0
    7.2364  -13.2707   26.1748 C   0  0  1  0  0  0  0  0  0  0  0  0
    6.5675  -12.4826   27.3397 C   0  0  0  0  0  0  0  0  0  0  0  0
    6.3336  -14.4170   25.8368 C   0  0  0  0  0  0  0  0  0  0  0  0
    6.9622  -15.5604   25.1114 C   0  0  2  0  0  0  0  0  0  0  0  0
    6.0068  -16.6088   24.8372 N   0  0  0  0  0  0  0  0  0  0  0  0
    8.1436  -16.0429   25.7979 C   0  0  0  0  0  0  0  0  0  0  0  0
    7.9536  -16.7699   26.8505 O   0  0  0  0  0  0  0  0  0  0  0  0
    9.4842  -15.8205   25.4655 N   0  0  0  0  0  0  0  0  0  0  0  0
   10.2287  -14.8138   24.7563 C   0  0  0  0  0  0  0  0  0  0  0  0
   10.8501  -15.7172   23.6681 C   0  0  0  0  0  0  0  0  0  0  0  0
   11.4905  -16.7617   24.5959 C   0  0  0  0  0  0  0  0  0  0  0  0
   10.6121  -16.7591   25.8308 C   0  0  1  0  0  0  0  0  0  0  0  0
   11.2785  -16.2063   27.0238 C   0  0  0  0  0  0  0  0  0  0  0  0
   12.1290  -16.9360   27.8138 O   0  0  0  0  0  0  0  0  0  0  0  0
   11.0626  -15.0130   27.3377 O   0  0  0  0  0  0  0  0  0  0  0  0
  2  1  1  0
  3 10  1  0
  3  2  1  0
  4  3  2  0
  6  5  1  6
  6  8  1  0
  7  6  1  0
  9  8  1  1
  9 11  1  0
  9 10  1  0
 11 13  1  0
 12 11  2  0
 13 14  1  0
 13 17  1  0
 14 15  1  0
 15 16  1  0
 17 16  1  0
 17 18  1  1
 18 20  2  0
 18 19  1  0
M  END
$$$$
