GLP.pdb
     RDKit          3D

 20 20  0  0  1  0  0  0  0  0999 V2000
    4.9143  -19.5251   22.9824 N   0  0  0  0  0  0  0  0  0  0  0  0
    5.1764  -18.8206   24.2202 C   0  0  0  0  0  0  0  0  0  0  0  0
    5.9729  -17.5691   23.9570 C   0  0  0  0  0  0  0  0  0  0  0  0
    6.4604  -17.3190   22.8258 O   0  0  0  0  0  0  0  0  0  0  0  0
    6.5285  -11.9485   26.3562 C   0  0  0  0  0  0  0  0  0  0  0  0
    7.2610  -13.0864   25.6808 C   0  0  1  0  0  0  0  0  0  0  0  0
    8.5845  -13.2075   26.4929 C   0  0  0  0  0  0  0  0  0  0  0  0
    6.5398  -14.3929   25.8077 C   0  0  0  0  0  0  0  0  0  0  0  0
    7.0305  -15.5044   24.9402 C   0  0  2  0  0  0  0  0  0  0  0  0
    6.1695  -16.6620   25.0175 N   0  0  0  0  0  0  0  0  0  0  0  0
    8.4191  -15.8185   25.2101 C   0  0  0  0  0  0  0  0  0  0  0  0
    8.6778  -16.4191   26.3259 O   0  0  0  0  0  0  0  0  0  0  0  0
    9.5342  -15.5515   24.4085 N   0  0  0  0  0  0  0  0  0  0  0  0
    9.9470  -14.5034   23.5131 C   0  0  0  0  0  0  0  0  0  0  0  0
   10.1235  -15.3540   22.2358 C   0  0  0  0  0  0  0  0  0  0  0  0
   11.0768  -16.4126   22.8127 C   0  0  0  0  0  0  0  0  0  0  0  0
   10.7266  -16.4733   24.2859 C   0  0  1  0  0  0  0  0  0  0  0  0
   11.7865  -15.9441   25.1632 C   0  0  0  0  0  0  0  0  0  0  0  0
   11.6322  -14.8189   25.9313 O   0  0  0  0  0  0  0  0  0  0  0  0
   12.8838  -16.5459   25.2153 O   0  0  0  0  0  0  0  0  0  0  0  0
  2  1  1  0
  3 10  1  0
  3  2  1  0
  4  3  2  0
  6  5  1  1
  6  8  1  0
  7  6  1  0
  9  8  1  1
  9 11  1  0
  9 10  1  0
 11 13  1  0
 12 11  2  0
 13 14  1  0
 13 17  1  0
 14 15  1  0
 15 16  1  0
 17 16  1  0
 17 18  1  1
 18 20  2  0
 18 19  1  0
M  END
$$$$
