GLP.pdb
     RDKit          3D

 20 20  0  0  1  0  0  0  0  0999 V2000
    5.3875  -20.3676   24.4516 N   0  0  0  0  0  0  0  0  0  0  0  0
    6.0482  -19.4286   25.3341 C   0  0  0  0  0  0  0  0  0  0  0  0
    5.9684  -18.0321   24.7745 C   0  0  0  0  0  0  0  0  0  0  0  0
    5.6228  -17.8127   23.5861 O   0  0  0  0  0  0  0  0  0  0  0  0
    5.8542  -12.2213   26.3084 C   0  0  0  0  0  0  0  0  0  0  0  0
    6.8892  -13.2029   25.8060 C   0  0  1  0  0  0  0  0  0  0  0  0
    8.1938  -12.7721   26.5397 C   0  0  0  0  0  0  0  0  0  0  0  0
    6.5936  -14.6131   26.2149 C   0  0  0  0  0  0  0  0  0  0  0  0
    6.6874  -15.6451   25.1403 C   0  0  2  0  0  0  0  0  0  0  0  0
    6.2929  -16.9504   25.6177 N   0  0  0  0  0  0  0  0  0  0  0  0
    7.9949  -15.6473   24.5156 C   0  0  0  0  0  0  0  0  0  0  0  0
    8.8840  -16.4393   25.0204 O   0  0  0  0  0  0  0  0  0  0  0  0
    8.4278  -14.8916   23.4207 N   0  0  0  0  0  0  0  0  0  0  0  0
    8.2600  -13.5402   22.9557 C   0  0  0  0  0  0  0  0  0  0  0  0
    7.6248  -13.8512   21.5823 C   0  0  0  0  0  0  0  0  0  0  0  0
    8.7056  -14.8097   21.0578 C   0  0  0  0  0  0  0  0  0  0  0  0
    9.2920  -15.4373   22.3063 C   0  0  1  0  0  0  0  0  0  0  0  0
   10.6792  -15.0189   22.5774 C   0  0  0  0  0  0  0  0  0  0  0  0
   11.0463  -14.3190   23.6978 O   0  0  0  0  0  0  0  0  0  0  0  0
   11.5716  -15.3133   21.7492 O   0  0  0  0  0  0  0  0  0  0  0  0
  2  1  1  0
  3 10  1  0
  3  2  1  0
  4  3  2  0
  6  5  1  1
  6  8  1  0
  7  6  1  0
  9  8  1  1
  9 11  1  0
  9 10  1  0
 11 13  1  0
 12 11  2  0
 13 14  1  0
 13 17  1  0
 14 15  1  0
 15 16  1  0
 17 16  1  0
 17 18  1  1
 18 20  2  0
 18 19  1  0
M  END
$$$$
