SNF.pdb
     RDKit          3D

 26 26  0  0  1  0  0  0  0  0999 V2000
   17.9999  -11.5230  -15.1668 O   0  0  0  0  0  0  0  0  0  0  0  0
   17.9678  -10.1809  -14.8167 C   0  0  0  0  0  0  0  0  0  0  0  0
   16.7842   -9.9217  -13.8960 C   0  0  2  0  0  0  0  0  0  0  0  0
   15.5788   -9.9610  -14.6822 N   0  0  0  0  0  0  0  0  0  0  0  0
   17.0009   -8.5572  -13.3237 C   0  0  0  0  0  0  0  0  0  0  0  0
   16.7831   -7.5160  -14.0136 O   0  0  0  0  0  0  0  0  0  0  0  0
   15.3810   -8.0175   -8.7118 N   0  0  0  0  0  0  0  0  0  0  0  0
   15.9165   -7.0090   -9.5954 C   0  0  0  0  0  0  0  0  0  0  0  0
   15.1220   -6.1237   -9.9320 O   0  0  0  0  0  0  0  0  0  0  0  0
   17.3032   -7.1410   -9.9859 C   0  0  0  0  0  0  0  0  0  0  0  0
   17.6348   -6.9611  -11.4626 C   0  0  2  0  0  0  0  0  0  0  0  0
   17.4527   -8.3496  -12.0024 N   0  0  0  0  0  0  0  0  0  0  0  0
   19.0592   -6.6864  -11.6624 C   0  0  0  0  0  0  0  0  0  0  0  0
   19.9058   -7.4864  -11.1226 O   0  0  0  0  0  0  0  0  0  0  0  0
   19.5449   -5.5988  -12.4165 N   0  0  0  0  0  0  0  0  0  0  0  0
   21.0008   -5.4487  -12.5433 C   0  0  1  0  0  0  0  0  0  0  0  0
   21.4354   -6.5094  -13.5260 C   0  0  0  0  0  0  0  0  0  0  0  0
   20.9336   -6.2886  -14.8976 C   0  0  0  0  0  0  0  0  0  0  0  0
   19.8561   -6.9802  -15.3888 C   0  0  0  0  0  0  0  0  0  0  0  0
   19.4472   -6.7178  -16.6797 C   0  0  0  0  0  0  0  0  0  0  0  0
   20.0887   -5.7905  -17.4716 C   0  0  0  0  0  0  0  0  0  0  0  0
   21.1777   -5.0910  -16.9759 C   0  0  0  0  0  0  0  0  0  0  0  0
   21.5643   -5.3683  -15.6936 C   0  0  0  0  0  0  0  0  0  0  0  0
   21.3346   -4.0897  -12.9946 C   0  0  0  0  0  0  0  0  0  0  0  0
   20.4068   -3.1427  -13.3893 O   0  0  0  0  0  0  0  0  0  0  0  0
   22.5546   -3.7379  -13.0339 O   0  0  0  0  0  0  0  0  0  0  0  0
  2  1  1  0
  3  2  1  0
  3  4  1  6
  5  6  2  0
  5  3  1  0
  7  8  1  0
  8  9  2  0
  8 10  1  0
 11 10  1  1
 11 12  1  0
 12  5  1  0
 13 15  1  0
 13 11  1  0
 14 13  2  0
 16 15  1  0
 16 17  1  6
 18 17  1  0
 18 23  2  0
 19 18  1  0
 20 19  2  0
 20 21  1  0
 21 22  2  0
 22 23  1  0
 24 16  1  0
 25 24  1  0
 26 24  2  0
M  END
$$$$
