SNF.pdb
     RDKit          3D

 26 26  0  0  1  0  0  0  0  0999 V2000
   34.0068  -24.7837  -18.0563 O   0  0  0  0  0  0  0  0  0  0  0  0
   33.6696  -25.6640  -17.0385 C   0  0  0  0  0  0  0  0  0  0  0  0
   33.5764  -27.0770  -17.5958 C   0  0  2  0  0  0  0  0  0  0  0  0
   34.6816  -27.2858  -18.4944 N   0  0  0  0  0  0  0  0  0  0  0  0
   32.2751  -27.1434  -18.3297 C   0  0  0  0  0  0  0  0  0  0  0  0
   32.2401  -27.3091  -19.5862 O   0  0  0  0  0  0  0  0  0  0  0  0
   28.3461  -30.4989  -19.3442 N   0  0  0  0  0  0  0  0  0  0  0  0
   28.6068  -29.0986  -19.5803 C   0  0  0  0  0  0  0  0  0  0  0  0
   27.7554  -28.5074  -20.2539 O   0  0  0  0  0  0  0  0  0  0  0  0
   29.8175  -28.5466  -19.0123 C   0  0  0  0  0  0  0  0  0  0  0  0
   29.7457  -27.1313  -18.4515 C   0  0  2  0  0  0  0  0  0  0  0  0
   31.0279  -27.0286  -17.6783 N   0  0  0  0  0  0  0  0  0  0  0  0
   28.7040  -27.0120  -17.4294 C   0  0  0  0  0  0  0  0  0  0  0  0
   28.8799  -27.6311  -16.3187 O   0  0  0  0  0  0  0  0  0  0  0  0
   27.5283  -26.2530  -17.5996 N   0  0  0  0  0  0  0  0  0  0  0  0
   26.5708  -26.2134  -16.4860 C   0  0  1  0  0  0  0  0  0  0  0  0
   26.1459  -24.7697  -16.3655 C   0  0  0  0  0  0  0  0  0  0  0  0
   25.3753  -24.2792  -17.5263 C   0  0  0  0  0  0  0  0  0  0  0  0
   25.9961  -23.7722  -18.6389 C   0  0  0  0  0  0  0  0  0  0  0  0
   25.2074  -23.3342  -19.6822 C   0  0  0  0  0  0  0  0  0  0  0  0
   23.8319  -23.3951  -19.6295 C   0  0  0  0  0  0  0  0  0  0  0  0
   23.2036  -23.9076  -18.5054 C   0  0  0  0  0  0  0  0  0  0  0  0
   24.0066  -24.3355  -17.4843 C   0  0  0  0  0  0  0  0  0  0  0  0
   25.4404  -27.1145  -16.7550 C   0  0  0  0  0  0  0  0  0  0  0  0
   24.4776  -27.4660  -15.8260 O   0  0  0  0  0  0  0  0  0  0  0  0
   25.3190  -27.6183  -17.9147 O   0  0  0  0  0  0  0  0  0  0  0  0
  2  1  1  0
  3  2  1  0
  3  4  1  6
  5  6  2  0
  5  3  1  0
  7  8  1  0
  8  9  2  0
  8 10  1  0
 11 10  1  1
 11 12  1  0
 12  5  1  0
 13 15  1  0
 13 11  1  0
 14 13  2  0
 16 15  1  0
 16 17  1  6
 18 17  1  0
 18 23  2  0
 19 18  1  0
 20 19  2  0
 20 21  1  0
 21 22  2  0
 22 23  1  0
 24 16  1  0
 25 24  1  0
 26 24  2  0
M  END
$$$$
