SNF.pdb
     RDKit          3D

 26 26  0  0  1  0  0  0  0  0999 V2000
   28.7006  -22.6508  -15.2428 O   0  0  0  0  0  0  0  0  0  0  0  0
   27.9398  -22.6740  -16.4027 C   0  0  0  0  0  0  0  0  0  0  0  0
   27.8418  -21.2682  -16.9771 C   0  0  2  0  0  0  0  0  0  0  0  0
   29.1744  -20.7867  -17.2320 N   0  0  0  0  0  0  0  0  0  0  0  0
   27.1701  -20.4421  -15.9270 C   0  0  0  0  0  0  0  0  0  0  0  0
   27.8039  -19.5422  -15.2976 O   0  0  0  0  0  0  0  0  0  0  0  0
   23.9579  -17.8635  -17.7315 N   0  0  0  0  0  0  0  0  0  0  0  0
   24.2391  -17.8702  -16.3153 C   0  0  0  0  0  0  0  0  0  0  0  0
   24.6609  -16.8037  -15.8539 O   0  0  0  0  0  0  0  0  0  0  0  0
   24.0009  -19.1048  -15.5999 C   0  0  0  0  0  0  0  0  0  0  0  0
   25.1165  -19.6168  -14.6964 C   0  0  2  0  0  0  0  0  0  0  0  0
   25.8122  -20.6108  -15.5797 N   0  0  0  0  0  0  0  0  0  0  0  0
   24.5870  -20.4274  -13.5978 C   0  0  0  0  0  0  0  0  0  0  0  0
   24.1598  -21.6060  -13.8740 O   0  0  0  0  0  0  0  0  0  0  0  0
   24.5276  -19.9845  -12.2608 N   0  0  0  0  0  0  0  0  0  0  0  0
   23.9345  -20.8876  -11.2654 C   0  0  1  0  0  0  0  0  0  0  0  0
   24.4334  -20.4013   -9.9259 C   0  0  0  0  0  0  0  0  0  0  0  0
   25.8899  -20.5636   -9.7408 C   0  0  0  0  0  0  0  0  0  0  0  0
   26.5882  -21.5598  -10.3737 C   0  0  0  0  0  0  0  0  0  0  0  0
   27.9465  -21.6462  -10.1501 C   0  0  0  0  0  0  0  0  0  0  0  0
   28.6041  -20.7664   -9.3182 C   0  0  0  0  0  0  0  0  0  0  0  0
   27.8991  -19.7592   -8.6784 C   0  0  0  0  0  0  0  0  0  0  0  0
   26.5537  -19.6938   -8.9157 C   0  0  0  0  0  0  0  0  0  0  0  0
   22.4677  -20.8618  -11.3652 C   0  0  0  0  0  0  0  0  0  0  0  0
   21.6352  -21.8952  -10.9748 O   0  0  0  0  0  0  0  0  0  0  0  0
   21.9026  -19.8284  -11.8411 O   0  0  0  0  0  0  0  0  0  0  0  0
  2  1  1  0
  3  2  1  0
  3  4  1  1
  5  6  2  0
  5  3  1  0
  7  8  1  0
  8  9  2  0
  8 10  1  0
 11 10  1  6
 11 12  1  0
 12  5  1  0
 13 15  1  0
 13 11  1  0
 14 13  2  0
 16 15  1  0
 16 17  1  1
 18 17  1  0
 18 23  2  0
 19 18  1  0
 20 19  2  0
 20 21  1  0
 21 22  2  0
 22 23  1  0
 24 16  1  0
 25 24  1  0
 26 24  2  0
M  END
$$$$
