SNF.pdb
     RDKit          3D

 26 26  0  0  1  0  0  0  0  0999 V2000
   28.9405  -21.2216  -13.7277 O   0  0  0  0  0  0  0  0  0  0  0  0
   27.9012  -21.8396  -14.4079 C   0  0  0  0  0  0  0  0  0  0  0  0
   26.8922  -20.7932  -14.8580 C   0  0  2  0  0  0  0  0  0  0  0  0
   27.5906  -19.7776  -15.6018 N   0  0  0  0  0  0  0  0  0  0  0  0
   26.3045  -20.2249  -13.6057 C   0  0  0  0  0  0  0  0  0  0  0  0
   26.4664  -19.0046  -13.3020 O   0  0  0  0  0  0  0  0  0  0  0  0
   22.7435  -19.3079  -13.1110 N   0  0  0  0  0  0  0  0  0  0  0  0
   22.4269  -20.4965  -12.3549 C   0  0  0  0  0  0  0  0  0  0  0  0
   21.2644  -20.9018  -12.4673 O   0  0  0  0  0  0  0  0  0  0  0  0
   23.4872  -21.0760  -11.5594 C   0  0  0  0  0  0  0  0  0  0  0  0
   24.8300  -20.3552  -11.5510 C   0  0  2  0  0  0  0  0  0  0  0  0
   25.5458  -20.9999  -12.7018 N   0  0  0  0  0  0  0  0  0  0  0  0
   25.6302  -20.7265  -10.3822 C   0  0  0  0  0  0  0  0  0  0  0  0
   26.0573  -21.9347  -10.3070 O   0  0  0  0  0  0  0  0  0  0  0  0
   25.9577  -19.8295   -9.3450 N   0  0  0  0  0  0  0  0  0  0  0  0
   26.7167  -20.3523   -8.2010 C   0  0  1  0  0  0  0  0  0  0  0  0
   27.5645  -19.2015   -7.7147 C   0  0  0  0  0  0  0  0  0  0  0  0
   28.2545  -19.4716   -6.4369 C   0  0  0  0  0  0  0  0  0  0  0  0
   27.7791  -18.9848   -5.2463 C   0  0  0  0  0  0  0  0  0  0  0  0
   28.4795  -19.2804   -4.0955 C   0  0  0  0  0  0  0  0  0  0  0  0
   29.6275  -20.0421   -4.1181 C   0  0  0  0  0  0  0  0  0  0  0  0
   30.1087  -20.5346   -5.3210 C   0  0  0  0  0  0  0  0  0  0  0  0
   29.3971  -20.2284   -6.4481 C   0  0  0  0  0  0  0  0  0  0  0  0
   25.7984  -20.8537   -7.1677 C   0  0  0  0  0  0  0  0  0  0  0  0
   26.1465  -21.7546   -6.1774 O   0  0  0  0  0  0  0  0  0  0  0  0
   24.5956  -20.4455   -7.1647 O   0  0  0  0  0  0  0  0  0  0  0  0
  2  1  1  0
  3  2  1  0
  3  4  1  1
  5  6  2  0
  5  3  1  0
  7  8  1  0
  8  9  2  0
  8 10  1  0
 11 10  1  1
 11 12  1  0
 12  5  1  0
 13 15  1  0
 13 11  1  0
 14 13  2  0
 16 15  1  0
 16 17  1  1
 18 17  1  0
 18 23  2  0
 19 18  1  0
 20 19  2  0
 20 21  1  0
 21 22  2  0
 22 23  1  0
 24 16  1  0
 25 24  1  0
 26 24  2  0
M  END
$$$$
