SNF.pdb
     RDKit          3D

 26 26  0  0  1  0  0  0  0  0999 V2000
   27.7861  -23.9662  -18.5811 O   0  0  0  0  0  0  0  0  0  0  0  0
   27.4308  -23.3296  -17.4008 C   0  0  0  0  0  0  0  0  0  0  0  0
   28.0690  -21.9489  -17.3535 C   0  0  2  0  0  0  0  0  0  0  0  0
   29.4567  -22.1006  -17.0017 N   0  0  0  0  0  0  0  0  0  0  0  0
   27.3320  -21.1925  -16.2947 C   0  0  0  0  0  0  0  0  0  0  0  0
   27.5620  -21.3965  -15.0646 O   0  0  0  0  0  0  0  0  0  0  0  0
   27.4329  -17.1835  -15.3181 N   0  0  0  0  0  0  0  0  0  0  0  0
   26.2804  -17.0199  -16.1723 C   0  0  0  0  0  0  0  0  0  0  0  0
   26.2109  -15.9382  -16.7668 O   0  0  0  0  0  0  0  0  0  0  0  0
   25.3455  -18.1218  -16.2394 C   0  0  0  0  0  0  0  0  0  0  0  0
   25.7212  -19.4044  -15.5068 C   0  0  2  0  0  0  0  0  0  0  0  0
   26.3528  -20.2211  -16.5960 N   0  0  0  0  0  0  0  0  0  0  0  0
   24.5337  -20.1735  -15.1293 C   0  0  0  0  0  0  0  0  0  0  0  0
   23.9396  -20.8480  -16.0459 O   0  0  0  0  0  0  0  0  0  0  0  0
   24.0161  -20.2150  -13.8186 N   0  0  0  0  0  0  0  0  0  0  0  0
   22.8971  -21.1288  -13.5523 C   0  0  1  0  0  0  0  0  0  0  0  0
   23.4405  -22.1734  -12.6073 C   0  0  0  0  0  0  0  0  0  0  0  0
   24.2319  -21.6116  -11.4938 C   0  0  0  0  0  0  0  0  0  0  0  0
   23.6337  -20.9792  -10.4343 C   0  0  0  0  0  0  0  0  0  0  0  0
   24.4408  -20.4810   -9.4329 C   0  0  0  0  0  0  0  0  0  0  0  0
   25.8125  -20.6045   -9.4752 C   0  0  0  0  0  0  0  0  0  0  0  0
   26.4179  -21.2438  -10.5456 C   0  0  0  0  0  0  0  0  0  0  0  0
   25.5970  -21.7292  -11.5259 C   0  0  0  0  0  0  0  0  0  0  0  0
   21.7605  -20.3892  -12.9837 C   0  0  0  0  0  0  0  0  0  0  0  0
   21.7841  -19.0467  -12.6509 O   0  0  0  0  0  0  0  0  0  0  0  0
   20.6698  -21.0056  -12.7739 O   0  0  0  0  0  0  0  0  0  0  0  0
  2  1  1  0
  3  2  1  0
  3  4  1  1
  5  6  2  0
  5  3  1  0
  7  8  1  0
  8  9  2  0
  8 10  1  0
 11 10  1  6
 11 12  1  0
 12  5  1  0
 13 15  1  0
 13 11  1  0
 14 13  2  0
 16 15  1  0
 16 17  1  1
 18 17  1  0
 18 23  2  0
 19 18  1  0
 20 19  2  0
 20 21  1  0
 21 22  2  0
 22 23  1  0
 24 16  1  0
 25 24  1  0
 26 24  2  0
M  END
$$$$
