SNF.pdb
     RDKit          3D

 26 26  0  0  1  0  0  0  0  0999 V2000
   28.6268  -17.8686  -14.7614 O   0  0  0  0  0  0  0  0  0  0  0  0
   28.5855  -19.2290  -15.0305 C   0  0  0  0  0  0  0  0  0  0  0  0
   27.1513  -19.6492  -15.3174 C   0  0  2  0  0  0  0  0  0  0  0  0
   26.6813  -18.9124  -16.4615 N   0  0  0  0  0  0  0  0  0  0  0  0
   26.3668  -19.2908  -14.0957 C   0  0  0  0  0  0  0  0  0  0  0  0
   25.4621  -18.4034  -14.1360 O   0  0  0  0  0  0  0  0  0  0  0  0
   22.2598  -19.9674  -11.4281 N   0  0  0  0  0  0  0  0  0  0  0  0
   23.2835  -20.9831  -11.4998 C   0  0  0  0  0  0  0  0  0  0  0  0
   23.0758  -21.9936  -10.8185 O   0  0  0  0  0  0  0  0  0  0  0  0
   24.4243  -20.7134  -12.3476 C   0  0  0  0  0  0  0  0  0  0  0  0
   25.5378  -19.8485  -11.7688 C   0  0  2  0  0  0  0  0  0  0  0  0
   26.5819  -19.9095  -12.8451 N   0  0  0  0  0  0  0  0  0  0  0  0
   26.1749  -20.4937  -10.6190 C   0  0  0  0  0  0  0  0  0  0  0  0
   26.8283  -21.5790  -10.8263 O   0  0  0  0  0  0  0  0  0  0  0  0
   26.1121  -19.9845   -9.3059 N   0  0  0  0  0  0  0  0  0  0  0  0
   26.8799  -20.6795   -8.2639 C   0  0  1  0  0  0  0  0  0  0  0  0
   27.9727  -19.7210   -7.8559 C   0  0  0  0  0  0  0  0  0  0  0  0
   28.3162  -19.7892   -6.4208 C   0  0  0  0  0  0  0  0  0  0  0  0
   27.8265  -18.8781   -5.5205 C   0  0  0  0  0  0  0  0  0  0  0  0
   28.1929  -19.0084   -4.1973 C   0  0  0  0  0  0  0  0  0  0  0  0
   29.0267  -20.0186   -3.7695 C   0  0  0  0  0  0  0  0  0  0  0  0
   29.5220  -20.9399   -4.6787 C   0  0  0  0  0  0  0  0  0  0  0  0
   29.1445  -20.7901   -5.9848 C   0  0  0  0  0  0  0  0  0  0  0  0
   26.0012  -21.0448   -7.1429 C   0  0  0  0  0  0  0  0  0  0  0  0
   24.7290  -20.5393   -6.9447 O   0  0  0  0  0  0  0  0  0  0  0  0
   26.4186  -21.8813   -6.2829 O   0  0  0  0  0  0  0  0  0  0  0  0
  2  1  1  0
  3  2  1  0
  3  4  1  6
  5  6  2  0
  5  3  1  0
  7  8  1  0
  8  9  2  0
  8 10  1  0
 11 10  1  6
 11 12  1  0
 12  5  1  0
 13 15  1  0
 13 11  1  0
 14 13  2  0
 16 15  1  0
 16 17  1  1
 18 17  1  0
 18 23  2  0
 19 18  1  0
 20 19  2  0
 20 21  1  0
 21 22  2  0
 22 23  1  0
 24 16  1  0
 25 24  1  0
 26 24  2  0
M  END
$$$$
