SNF.pdb
     RDKit          3D

 26 26  0  0  1  0  0  0  0  0999 V2000
   22.8840  -16.7992  -13.9704 O   0  0  0  0  0  0  0  0  0  0  0  0
   24.1892  -16.7535  -13.5022 C   0  0  0  0  0  0  0  0  0  0  0  0
   25.0354  -17.7744  -14.2489 C   0  0  2  0  0  0  0  0  0  0  0  0
   24.7875  -17.6268  -15.6593 N   0  0  0  0  0  0  0  0  0  0  0  0
   24.5806  -19.1151  -13.7670 C   0  0  0  0  0  0  0  0  0  0  0  0
   23.6659  -19.7520  -14.3714 O   0  0  0  0  0  0  0  0  0  0  0  0
   26.1207  -23.3382  -14.8230 N   0  0  0  0  0  0  0  0  0  0  0  0
   27.0975  -22.4723  -14.2059 C   0  0  0  0  0  0  0  0  0  0  0  0
   28.2461  -22.9259  -14.1479 O   0  0  0  0  0  0  0  0  0  0  0  0
   26.6345  -21.1873  -13.7291 C   0  0  0  0  0  0  0  0  0  0  0  0
   25.5382  -21.1870  -12.6703 C   0  0  2  0  0  0  0  0  0  0  0  0
   25.1337  -19.7423  -12.6297 N   0  0  0  0  0  0  0  0  0  0  0  0
   26.0828  -21.4410  -11.3349 C   0  0  0  0  0  0  0  0  0  0  0  0
   26.2262  -22.6628  -10.9682 O   0  0  0  0  0  0  0  0  0  0  0  0
   26.4600  -20.4194  -10.4397 N   0  0  0  0  0  0  0  0  0  0  0  0
   26.7198  -20.7935   -9.0431 C   0  0  1  0  0  0  0  0  0  0  0  0
   27.6470  -19.7314   -8.5028 C   0  0  0  0  0  0  0  0  0  0  0  0
   27.9370  -19.8744   -7.0615 C   0  0  0  0  0  0  0  0  0  0  0  0
   28.8003  -20.8317   -6.5936 C   0  0  0  0  0  0  0  0  0  0  0  0
   29.0197  -20.9022   -5.2338 C   0  0  0  0  0  0  0  0  0  0  0  0
   28.3996  -20.0446   -4.3515 C   0  0  0  0  0  0  0  0  0  0  0  0
   27.5270  -19.0766   -4.8236 C   0  0  0  0  0  0  0  0  0  0  0  0
   27.3257  -19.0263   -6.1755 C   0  0  0  0  0  0  0  0  0  0  0  0
   25.4567  -20.8746   -8.2947 C   0  0  0  0  0  0  0  0  0  0  0  0
   25.2302  -21.7216   -7.2248 O   0  0  0  0  0  0  0  0  0  0  0  0
   24.4908  -20.1240   -8.6370 O   0  0  0  0  0  0  0  0  0  0  0  0
  2  1  1  0
  3  2  1  0
  3  4  1  6
  5  6  2  0
  5  3  1  0
  7  8  1  0
  8  9  2  0
  8 10  1  0
 11 10  1  6
 11 12  1  0
 12  5  1  0
 13 15  1  0
 13 11  1  0
 14 13  2  0
 16 15  1  0
 16 17  1  1
 18 17  1  0
 18 23  2  0
 19 18  1  0
 20 19  2  0
 20 21  1  0
 21 22  2  0
 22 23  1  0
 24 16  1  0
 25 24  1  0
 26 24  2  0
M  END
$$$$
