SNF.pdb
     RDKit          3D

 26 26  0  0  1  0  0  0  0  0999 V2000
   27.4717  -20.6421  -18.3838 O   0  0  0  0  0  0  0  0  0  0  0  0
   27.3634  -19.6976  -19.3943 C   0  0  0  0  0  0  0  0  0  0  0  0
   27.8443  -18.3469  -18.8841 C   0  0  2  0  0  0  0  0  0  0  0  0
   29.2227  -18.4741  -18.4887 N   0  0  0  0  0  0  0  0  0  0  0  0
   26.9815  -18.0225  -17.7064 C   0  0  0  0  0  0  0  0  0  0  0  0
   27.4049  -17.2804  -16.7697 O   0  0  0  0  0  0  0  0  0  0  0  0
   22.7807  -16.3382  -15.3282 N   0  0  0  0  0  0  0  0  0  0  0  0
   22.5791  -16.6332  -16.7271 C   0  0  0  0  0  0  0  0  0  0  0  0
   21.5775  -16.1194  -17.2380 O   0  0  0  0  0  0  0  0  0  0  0  0
   23.5556  -17.4851  -17.3704 C   0  0  0  0  0  0  0  0  0  0  0  0
   24.7395  -17.9508  -16.5312 C   0  0  2  0  0  0  0  0  0  0  0  0
   25.6652  -18.5141  -17.5696 N   0  0  0  0  0  0  0  0  0  0  0  0
   24.3882  -19.1069  -15.7039 C   0  0  0  0  0  0  0  0  0  0  0  0
   24.1096  -20.2089  -16.3006 O   0  0  0  0  0  0  0  0  0  0  0  0
   24.3456  -19.0731  -14.2952 N   0  0  0  0  0  0  0  0  0  0  0  0
   24.0708  -20.3308  -13.5876 C   0  0  1  0  0  0  0  0  0  0  0  0
   25.0925  -20.4056  -12.4785 C   0  0  0  0  0  0  0  0  0  0  0  0
   26.4810  -20.5545  -12.9602 C   0  0  0  0  0  0  0  0  0  0  0  0
   27.4403  -19.6127  -12.6901 C   0  0  0  0  0  0  0  0  0  0  0  0
   28.7144  -19.8232  -13.1746 C   0  0  0  0  0  0  0  0  0  0  0  0
   29.0367  -20.9420  -13.9115 C   0  0  0  0  0  0  0  0  0  0  0  0
   28.0677  -21.8945  -14.1848 C   0  0  0  0  0  0  0  0  0  0  0  0
   26.8122  -21.6637  -13.6938 C   0  0  0  0  0  0  0  0  0  0  0  0
   22.6891  -20.3399  -13.0844 C   0  0  0  0  0  0  0  0  0  0  0  0
   22.0369  -21.4593  -12.5993 O   0  0  0  0  0  0  0  0  0  0  0  0
   22.0277  -19.2555  -13.0861 O   0  0  0  0  0  0  0  0  0  0  0  0
  2  1  1  0
  3  2  1  0
  3  4  1  1
  5  6  2  0
  5  3  1  0
  7  8  1  0
  8  9  2  0
  8 10  1  0
 11 10  1  6
 11 12  1  0
 12  5  1  0
 13 15  1  0
 13 11  1  0
 14 13  2  0
 16 15  1  0
 16 17  1  1
 18 17  1  0
 18 23  2  0
 19 18  1  0
 20 19  2  0
 20 21  1  0
 21 22  2  0
 22 23  1  0
 24 16  1  0
 25 24  1  0
 26 24  2  0
M  END
$$$$
