SNF.pdb
     RDKit          3D

 26 26  0  0  1  0  0  0  0  0999 V2000
   15.5036  -10.6785  -15.7583 O   0  0  0  0  0  0  0  0  0  0  0  0
   15.7193   -9.3643  -15.3696 C   0  0  0  0  0  0  0  0  0  0  0  0
   17.0975   -9.2389  -14.7367 C   0  0  2  0  0  0  0  0  0  0  0  0
   17.3081  -10.3735  -13.8760 N   0  0  0  0  0  0  0  0  0  0  0  0
   17.0718   -7.9697  -13.9460 C   0  0  0  0  0  0  0  0  0  0  0  0
   16.8156   -6.8585  -14.5002 O   0  0  0  0  0  0  0  0  0  0  0  0
   16.8776   -4.6437   -9.8775 N   0  0  0  0  0  0  0  0  0  0  0  0
   16.5885   -5.9968   -9.4650 C   0  0  0  0  0  0  0  0  0  0  0  0
   16.2056   -6.1242   -8.2966 O   0  0  0  0  0  0  0  0  0  0  0  0
   16.7754   -7.0418  -10.4480 C   0  0  0  0  0  0  0  0  0  0  0  0
   17.3215   -6.6317  -11.8105 C   0  0  2  0  0  0  0  0  0  0  0  0
   17.3259   -7.9332  -12.5578 N   0  0  0  0  0  0  0  0  0  0  0  0
   18.7363   -6.2625  -11.7319 C   0  0  0  0  0  0  0  0  0  0  0  0
   19.3523   -6.4797  -10.6269 O   0  0  0  0  0  0  0  0  0  0  0  0
   19.4528   -5.6893  -12.8022 N   0  0  0  0  0  0  0  0  0  0  0  0
   20.8533   -5.3137  -12.5661 C   0  0  1  0  0  0  0  0  0  0  0  0
   21.6109   -6.6151  -12.4565 C   0  0  0  0  0  0  0  0  0  0  0  0
   21.5619   -7.4352  -13.6840 C   0  0  0  0  0  0  0  0  0  0  0  0
   22.2116   -7.0538  -14.8298 C   0  0  0  0  0  0  0  0  0  0  0  0
   22.1184   -7.8734  -15.9351 C   0  0  0  0  0  0  0  0  0  0  0  0
   21.3980   -9.0478  -15.9111 C   0  0  0  0  0  0  0  0  0  0  0  0
   20.7412   -9.4342  -14.7535 C   0  0  0  0  0  0  0  0  0  0  0  0
   20.8484   -8.6053  -13.6708 C   0  0  0  0  0  0  0  0  0  0  0  0
   21.3440   -4.4649  -13.6620 C   0  0  0  0  0  0  0  0  0  0  0  0
   20.6072   -4.1237  -14.7820 O   0  0  0  0  0  0  0  0  0  0  0  0
   22.5249   -4.0013  -13.5982 O   0  0  0  0  0  0  0  0  0  0  0  0
  2  1  1  0
  3  2  1  0
  3  4  1  1
  5  6  2  0
  5  3  1  0
  7  8  1  0
  8  9  2  0
  8 10  1  0
 11 10  1  1
 11 12  1  0
 12  5  1  0
 13 15  1  0
 13 11  1  0
 14 13  2  0
 16 15  1  0
 16 17  1  6
 18 17  1  0
 18 23  2  0
 19 18  1  0
 20 19  2  0
 20 21  1  0
 21 22  2  0
 22 23  1  0
 24 16  1  0
 25 24  1  0
 26 24  2  0
M  END
$$$$
