SNF.pdb
     RDKit          3D

 26 26  0  0  1  0  0  0  0  0999 V2000
   17.3225  -12.7003  -14.5262 O   0  0  0  0  0  0  0  0  0  0  0  0
   17.8994  -11.5079  -14.9386 C   0  0  0  0  0  0  0  0  0  0  0  0
   18.7845  -11.7613  -16.1504 C   0  0  2  0  0  0  0  0  0  0  0  0
   19.9467  -12.4937  -15.7200 N   0  0  0  0  0  0  0  0  0  0  0  0
   19.1683  -10.4116  -16.6673 C   0  0  0  0  0  0  0  0  0  0  0  0
   20.1420  -10.2697  -17.4670 O   0  0  0  0  0  0  0  0  0  0  0  0
   18.5680   -5.5747  -18.4988 N   0  0  0  0  0  0  0  0  0  0  0  0
   17.3527   -6.3413  -18.3561 C   0  0  0  0  0  0  0  0  0  0  0  0
   16.3667   -5.8860  -18.9466 O   0  0  0  0  0  0  0  0  0  0  0  0
   17.4185   -7.5408  -17.5500 C   0  0  0  0  0  0  0  0  0  0  0  0
   18.7787   -7.9293  -16.9826 C   0  0  2  0  0  0  0  0  0  0  0  0
   18.4805   -9.2337  -16.3029 N   0  0  0  0  0  0  0  0  0  0  0  0
   19.1763   -7.0414  -15.8882 C   0  0  0  0  0  0  0  0  0  0  0  0
   18.4824   -7.0721  -14.8086 O   0  0  0  0  0  0  0  0  0  0  0  0
   20.2778   -6.1642  -15.9572 N   0  0  0  0  0  0  0  0  0  0  0  0
   20.6273   -5.4065  -14.7481 C   0  0  1  0  0  0  0  0  0  0  0  0
   22.0376   -5.8198  -14.4021 C   0  0  0  0  0  0  0  0  0  0  0  0
   22.1618   -7.2402  -14.0162 C   0  0  0  0  0  0  0  0  0  0  0  0
   22.8146   -8.1466  -14.8116 C   0  0  0  0  0  0  0  0  0  0  0  0
   22.8886   -9.4553  -14.3823 C   0  0  0  0  0  0  0  0  0  0  0  0
   22.3295   -9.8626  -13.1906 C   0  0  0  0  0  0  0  0  0  0  0  0
   21.6697   -8.9471  -12.3861 C   0  0  0  0  0  0  0  0  0  0  0  0
   21.6095   -7.6558  -12.8328 C   0  0  0  0  0  0  0  0  0  0  0  0
   20.5073   -3.9629  -15.0000 C   0  0  0  0  0  0  0  0  0  0  0  0
   20.6530   -2.9821  -14.0354 O   0  0  0  0  0  0  0  0  0  0  0  0
   20.2514   -3.5643  -16.1787 O   0  0  0  0  0  0  0  0  0  0  0  0
  2  1  1  0
  3  2  1  0
  3  4  1  1
  5  6  2  0
  5  3  1  0
  7  8  1  0
  8  9  2  0
  8 10  1  0
 11 10  1  1
 11 12  1  0
 12  5  1  0
 13 15  1  0
 13 11  1  0
 14 13  2  0
 16 15  1  0
 16 17  1  6
 18 17  1  0
 18 23  2  0
 19 18  1  0
 20 19  2  0
 20 21  1  0
 21 22  2  0
 22 23  1  0
 24 16  1  0
 25 24  1  0
 26 24  2  0
M  END
$$$$
