SNF.pdb
     RDKit          3D

 26 26  0  0  1  0  0  0  0  0999 V2000
   28.9225  -19.5683  -14.6019 O   0  0  0  0  0  0  0  0  0  0  0  0
   28.0759  -19.5932  -15.7006 C   0  0  0  0  0  0  0  0  0  0  0  0
   26.9590  -20.5988  -15.4617 C   0  0  2  0  0  0  0  0  0  0  0  0
   26.1269  -20.6425  -16.6356 N   0  0  0  0  0  0  0  0  0  0  0  0
   26.1911  -20.0869  -14.2849 C   0  0  0  0  0  0  0  0  0  0  0  0
   25.7883  -18.8856  -14.2386 O   0  0  0  0  0  0  0  0  0  0  0  0
   22.8410  -19.9523  -10.3221 N   0  0  0  0  0  0  0  0  0  0  0  0
   22.6231  -20.9349  -11.3573 C   0  0  0  0  0  0  0  0  0  0  0  0
   21.5071  -21.4667  -11.3564 O   0  0  0  0  0  0  0  0  0  0  0  0
   23.7170  -21.1878  -12.2696 C   0  0  0  0  0  0  0  0  0  0  0  0
   24.9940  -20.3796  -12.0726 C   0  0  2  0  0  0  0  0  0  0  0  0
   25.8728  -20.8973  -13.1735 N   0  0  0  0  0  0  0  0  0  0  0  0
   25.6925  -20.7715  -10.8467 C   0  0  0  0  0  0  0  0  0  0  0  0
   26.1820  -21.9568  -10.7881 O   0  0  0  0  0  0  0  0  0  0  0  0
   25.8583  -19.9177   -9.7372 N   0  0  0  0  0  0  0  0  0  0  0  0
   26.5757  -20.4443   -8.5683 C   0  0  1  0  0  0  0  0  0  0  0  0
   27.4358  -19.3070   -8.0721 C   0  0  0  0  0  0  0  0  0  0  0  0
   28.1515  -19.6089   -6.8158 C   0  0  0  0  0  0  0  0  0  0  0  0
   29.2579  -20.4188   -6.7957 C   0  0  0  0  0  0  0  0  0  0  0  0
   29.8715  -20.6533   -5.5829 C   0  0  0  0  0  0  0  0  0  0  0  0
   29.4030  -20.0993   -4.4115 C   0  0  0  0  0  0  0  0  0  0  0  0
   28.2850  -19.2804   -4.4309 C   0  0  0  0  0  0  0  0  0  0  0  0
   27.6940  -19.0627   -5.6451 C   0  0  0  0  0  0  0  0  0  0  0  0
   25.6202  -20.9141   -7.5542 C   0  0  0  0  0  0  0  0  0  0  0  0
   25.8919  -21.8880   -6.6101 O   0  0  0  0  0  0  0  0  0  0  0  0
   24.4569  -20.4049   -7.5240 O   0  0  0  0  0  0  0  0  0  0  0  0
  2  1  1  0
  3  2  1  0
  3  4  1  6
  5  6  2  0
  5  3  1  0
  7  8  1  0
  8  9  2  0
  8 10  1  0
 11 10  1  1
 11 12  1  0
 12  5  1  0
 13 15  1  0
 13 11  1  0
 14 13  2  0
 16 15  1  0
 16 17  1  1
 18 17  1  0
 18 23  2  0
 19 18  1  0
 20 19  2  0
 20 21  1  0
 21 22  2  0
 22 23  1  0
 24 16  1  0
 25 24  1  0
 26 24  2  0
M  END
$$$$
