SNF.pdb
     RDKit          3D

 26 26  0  0  1  0  0  0  0  0999 V2000
   29.1042  -21.3094  -13.9387 O   0  0  0  0  0  0  0  0  0  0  0  0
   28.3116  -21.7459  -14.9903 C   0  0  0  0  0  0  0  0  0  0  0  0
   27.2403  -20.7068  -15.2877 C   0  0  2  0  0  0  0  0  0  0  0  0
   27.8291  -19.6605  -16.0821 N   0  0  0  0  0  0  0  0  0  0  0  0
   26.7992  -20.1808  -13.9591 C   0  0  0  0  0  0  0  0  0  0  0  0
   27.1522  -19.0299  -13.5609 O   0  0  0  0  0  0  0  0  0  0  0  0
   23.4287  -19.5722   -9.9436 N   0  0  0  0  0  0  0  0  0  0  0  0
   22.8952  -20.2128  -11.1224 C   0  0  0  0  0  0  0  0  0  0  0  0
   21.6702  -20.3787  -11.1268 O   0  0  0  0  0  0  0  0  0  0  0  0
   23.8368  -20.5861  -12.1554 C   0  0  0  0  0  0  0  0  0  0  0  0
   25.3057  -20.2582  -11.9154 C   0  0  2  0  0  0  0  0  0  0  0  0
   25.9759  -20.9212  -13.0832 N   0  0  0  0  0  0  0  0  0  0  0  0
   25.8314  -20.9738  -10.7511 C   0  0  0  0  0  0  0  0  0  0  0  0
   26.0202  -22.2389  -10.8596 O   0  0  0  0  0  0  0  0  0  0  0  0
   26.1434  -20.3479   -9.5270 N   0  0  0  0  0  0  0  0  0  0  0  0
   26.6234  -21.1949   -8.4269 C   0  0  1  0  0  0  0  0  0  0  0  0
   28.0481  -20.7641   -8.1732 C   0  0  0  0  0  0  0  0  0  0  0  0
   28.2417  -20.0919   -6.8722 C   0  0  0  0  0  0  0  0  0  0  0  0
   27.8242  -18.8031   -6.6599 C   0  0  0  0  0  0  0  0  0  0  0  0
   28.0408  -18.2445   -5.4175 C   0  0  0  0  0  0  0  0  0  0  0  0
   28.6574  -18.9440   -4.4030 C   0  0  0  0  0  0  0  0  0  0  0  0
   29.0795  -20.2468   -4.6167 C   0  0  0  0  0  0  0  0  0  0  0  0
   28.8537  -20.7787   -5.8563 C   0  0  0  0  0  0  0  0  0  0  0  0
   25.7642  -21.0294   -7.2452 C   0  0  0  0  0  0  0  0  0  0  0  0
   24.7693  -20.0758   -7.1244 O   0  0  0  0  0  0  0  0  0  0  0  0
   25.9289  -21.8047   -6.2527 O   0  0  0  0  0  0  0  0  0  0  0  0
  2  1  1  0
  3  2  1  0
  3  4  1  6
  5  6  2  0
  5  3  1  0
  7  8  1  0
  8  9  2  0
  8 10  1  0
 11 10  1  6
 11 12  1  0
 12  5  1  0
 13 15  1  0
 13 11  1  0
 14 13  2  0
 16 15  1  0
 16 17  1  1
 18 17  1  0
 18 23  2  0
 19 18  1  0
 20 19  2  0
 20 21  1  0
 21 22  2  0
 22 23  1  0
 24 16  1  0
 25 24  1  0
 26 24  2  0
M  END
$$$$
