SNF.pdb
     RDKit          3D

 26 26  0  0  1  0  0  0  0  0999 V2000
   15.3877  -12.3451  -17.2683 O   0  0  0  0  0  0  0  0  0  0  0  0
   15.5986  -11.0518  -16.8127 C   0  0  0  0  0  0  0  0  0  0  0  0
   16.8140  -11.0251  -15.8972 C   0  0  2  0  0  0  0  0  0  0  0  0
   16.5175  -11.8051  -14.7241 N   0  0  0  0  0  0  0  0  0  0  0  0
   17.0270   -9.5885  -15.5402 C   0  0  0  0  0  0  0  0  0  0  0  0
   17.9524   -8.9104  -16.0799 O   0  0  0  0  0  0  0  0  0  0  0  0
   16.0417   -4.8396  -13.3669 N   0  0  0  0  0  0  0  0  0  0  0  0
   14.9152   -5.4810  -14.0027 C   0  0  0  0  0  0  0  0  0  0  0  0
   13.9128   -4.7717  -14.1454 O   0  0  0  0  0  0  0  0  0  0  0  0
   15.0779   -6.8632  -14.3980 C   0  0  0  0  0  0  0  0  0  0  0  0
   16.4713   -7.4677  -14.2728 C   0  0  2  0  0  0  0  0  0  0  0  0
   16.2232   -8.9119  -14.5972 N   0  0  0  0  0  0  0  0  0  0  0  0
   16.9231   -7.4892  -12.8801 C   0  0  0  0  0  0  0  0  0  0  0  0
   16.2248   -8.1549  -12.0332 O   0  0  0  0  0  0  0  0  0  0  0  0
   18.0807   -6.8250  -12.4259 N   0  0  0  0  0  0  0  0  0  0  0  0
   18.3888   -6.8886  -10.9909 C   0  0  1  0  0  0  0  0  0  0  0  0
   19.8363   -7.3088  -10.9035 C   0  0  0  0  0  0  0  0  0  0  0  0
   20.6676   -6.8081  -12.0172 C   0  0  0  0  0  0  0  0  0  0  0  0
   20.9361   -5.4720  -12.1694 C   0  0  0  0  0  0  0  0  0  0  0  0
   21.7206   -5.0826  -13.2349 C   0  0  0  0  0  0  0  0  0  0  0  0
   22.2311   -5.9938  -14.1336 C   0  0  0  0  0  0  0  0  0  0  0  0
   21.9604   -7.3444  -13.9804 C   0  0  0  0  0  0  0  0  0  0  0  0
   21.1805   -7.7060  -12.9166 C   0  0  0  0  0  0  0  0  0  0  0  0
   18.1399   -5.5845  -10.3588 C   0  0  0  0  0  0  0  0  0  0  0  0
   17.9027   -4.4094  -11.0489 O   0  0  0  0  0  0  0  0  0  0  0  0
   18.1386   -5.5068   -9.0910 O   0  0  0  0  0  0  0  0  0  0  0  0
  2  1  1  0
  3  2  1  0
  3  4  1  1
  5  6  2  0
  5  3  1  0
  7  8  1  0
  8  9  2  0
  8 10  1  0
 11 10  1  1
 11 12  1  0
 12  5  1  0
 13 15  1  0
 13 11  1  0
 14 13  2  0
 16 15  1  0
 16 17  1  6
 18 17  1  0
 18 23  2  0
 19 18  1  0
 20 19  2  0
 20 21  1  0
 21 22  2  0
 22 23  1  0
 24 16  1  0
 25 24  1  0
 26 24  2  0
M  END
$$$$
