SNF.pdb
     RDKit          3D

 26 26  0  0  1  0  0  0  0  0999 V2000
   23.5023  -18.3030  -19.5113 O   0  0  0  0  0  0  0  0  0  0  0  0
   24.8301  -17.9289  -19.3638 C   0  0  0  0  0  0  0  0  0  0  0  0
   25.7328  -19.1049  -19.7072 C   0  0  2  0  0  0  0  0  0  0  0  0
   25.4221  -19.5424  -21.0431 N   0  0  0  0  0  0  0  0  0  0  0  0
   25.4123  -20.1728  -18.7105 C   0  0  0  0  0  0  0  0  0  0  0  0
   24.8333  -21.2444  -19.0628 O   0  0  0  0  0  0  0  0  0  0  0  0
   27.6641  -23.0392  -16.7732 N   0  0  0  0  0  0  0  0  0  0  0  0
   27.8597  -22.0520  -15.7379 C   0  0  0  0  0  0  0  0  0  0  0  0
   28.9388  -22.1196  -15.1385 O   0  0  0  0  0  0  0  0  0  0  0  0
   26.7886  -21.1050  -15.5165 C   0  0  0  0  0  0  0  0  0  0  0  0
   25.5582  -21.2185  -16.4088 C   0  0  2  0  0  0  0  0  0  0  0  0
   25.7306  -20.0544  -17.3402 N   0  0  0  0  0  0  0  0  0  0  0  0
   24.3317  -20.9058  -15.6726 C   0  0  0  0  0  0  0  0  0  0  0  0
   23.6089  -19.9335  -16.0969 O   0  0  0  0  0  0  0  0  0  0  0  0
   23.9043  -21.6164  -14.5325 N   0  0  0  0  0  0  0  0  0  0  0  0
   22.6375  -21.2122  -13.9080 C   0  0  1  0  0  0  0  0  0  0  0  0
   22.5823  -21.9439  -12.5885 C   0  0  0  0  0  0  0  0  0  0  0  0
   23.6321  -21.5291  -11.6358 C   0  0  0  0  0  0  0  0  0  0  0  0
   23.3979  -20.5759  -10.6782 C   0  0  0  0  0  0  0  0  0  0  0  0
   24.4290  -20.2424   -9.8251 C   0  0  0  0  0  0  0  0  0  0  0  0
   25.6683  -20.8380   -9.9144 C   0  0  0  0  0  0  0  0  0  0  0  0
   25.9060  -21.8016  -10.8818 C   0  0  0  0  0  0  0  0  0  0  0  0
   24.8683  -22.1154  -11.7158 C   0  0  0  0  0  0  0  0  0  0  0  0
   22.5935  -19.7514  -13.7462 C   0  0  0  0  0  0  0  0  0  0  0  0
   23.6912  -18.9160  -13.8492 O   0  0  0  0  0  0  0  0  0  0  0  0
   21.4801  -19.1948  -13.4928 O   0  0  0  0  0  0  0  0  0  0  0  0
  2  1  1  0
  3  2  1  0
  3  4  1  6
  5  6  2  0
  5  3  1  0
  7  8  1  0
  8  9  2  0
  8 10  1  0
 11 10  1  1
 11 12  1  0
 12  5  1  0
 13 15  1  0
 13 11  1  0
 14 13  2  0
 16 15  1  0
 16 17  1  1
 18 17  1  0
 18 23  2  0
 19 18  1  0
 20 19  2  0
 20 21  1  0
 21 22  2  0
 22 23  1  0
 24 16  1  0
 25 24  1  0
 26 24  2  0
M  END
$$$$
