RMP.pdb
     RDKit          3D

 27 27  0  0  1  0  0  0  0  0999 V2000
    6.7762  -20.4852   17.5433 N   0  0  0  0  0  0  0  0  0  0  0  0
    6.4031  -19.4863   16.6087 C   0  0  0  0  0  0  0  0  0  0  0  0
    5.5531  -19.7773   15.6823 N   0  0  0  0  0  0  0  0  0  0  0  0
    6.9277  -18.1676   16.6440 N   0  0  0  0  0  0  0  0  0  0  0  0
    7.6343  -17.6611   17.7999 C   0  0  0  0  0  0  0  0  0  0  0  0
    6.7513  -17.5036   19.0122 C   0  0  0  0  0  0  0  0  0  0  0  0
    7.5720  -17.1087   20.2342 C   0  0  0  0  0  0  0  0  0  0  0  0
    7.6550  -15.5869   20.2449 C   0  0  2  0  0  0  0  0  0  0  0  0
    8.3976  -15.2434   19.0422 N   0  0  0  0  0  0  0  0  0  0  0  0
    8.3823  -15.1219   21.4681 C   0  0  0  0  0  0  0  0  0  0  0  0
    9.6325  -15.0130   21.4391 O   0  0  0  0  0  0  0  0  0  0  0  0
    5.2943  -19.0623   14.9405 C   0  0  0  0  0  0  0  0  0  0  0  0
    5.6939  -12.1205   26.9987 S   0  0  0  0  0  0  0  0  0  0  0  0
    7.4526  -11.7354   26.8055 C   0  0  0  0  0  0  0  0  0  0  0  0
    8.3366  -13.1146   26.0005 C   0  0  0  0  0  0  0  0  0  0  0  0
    7.6826  -13.4044   24.6980 C   0  0  1  0  0  0  0  0  0  0  0  0
    8.3848  -14.5067   23.9088 N   0  0  0  0  0  0  0  0  0  0  0  0
    7.6889  -14.7895   22.6907 C   0  0  0  0  0  0  0  0  0  0  0  0
    8.6929  -15.6688   24.7340 O   0  0  0  0  0  0  0  0  0  0  0  0
    7.7195  -16.0173   25.4992 N   0  0  0  0  0  0  0  0  0  0  0  0
    9.8495  -16.4286   24.8059 C   0  0  0  0  0  0  0  0  0  0  0  0
   10.7789  -16.8378   23.7267 C   0  0  0  0  0  0  0  0  0  0  0  0
   12.1217  -16.4738   24.3766 C   0  0  0  0  0  0  0  0  0  0  0  0
   11.8342  -16.3531   25.8818 C   0  0  2  0  0  0  0  0  0  0  0  0
   10.4724  -17.0742   25.9312 C   0  0  0  0  0  0  0  0  0  0  0  0
    9.8660  -17.1400   27.2200 O   0  0  0  0  0  0  0  0  0  0  0  0
    9.9783  -18.4247   27.8662 O   0  0  0  0  0  0  0  0  0  0  0  0
  1  2  1  0
  2  3  2  0
  4  2  1  0
  5  4  1  0
  6  5  1  0
  7  6  1  0
  8  7  1  0
  8  9  1  6
 10  8  1  0
 10 11  2  0
 13 12  1  0
 14 13  1  0
 14 15  1  0
 16 17  1  0
 16 15  1  6
 17 10  1  0
 18 16  1  0
 19 18  2  0
 20 18  1  0
 20 21  1  0
 22 21  1  0
 23 22  1  0
 24 23  1  0
 24 20  1  0
 24 25  1  6
 25 26  1  0
 27 25  2  0
M  END
$$$$
