RMP.pdb
     RDKit          3D

 27 27  0  0  1  0  0  0  0  0999 V2000
    8.4224  -22.1668   21.9168 N   0  0  0  0  0  0  0  0  0  0  0  0
    8.8922  -21.9345   20.5994 C   0  0  0  0  0  0  0  0  0  0  0  0
    8.2939  -22.5046   19.6082 N   0  0  0  0  0  0  0  0  0  0  0  0
   10.0025  -21.0962   20.3169 N   0  0  0  0  0  0  0  0  0  0  0  0
   10.3849  -20.0171   21.2009 C   0  0  0  0  0  0  0  0  0  0  0  0
    9.6176  -18.7437   20.9480 C   0  0  0  0  0  0  0  0  0  0  0  0
   10.0597  -17.6439   21.9059 C   0  0  0  0  0  0  0  0  0  0  0  0
    9.1888  -16.4260   21.6216 C   0  0  2  0  0  0  0  0  0  0  0  0
    9.7922  -15.7970   20.4571 N   0  0  0  0  0  0  0  0  0  0  0  0
    9.2079  -15.4970   22.7956 C   0  0  0  0  0  0  0  0  0  0  0  0
   10.2690  -14.8937   23.0884 O   0  0  0  0  0  0  0  0  0  0  0  0
    8.5863  -22.2988   18.6079 C   0  0  0  0  0  0  0  0  0  0  0  0
    6.4723  -10.8806   25.1407 S   0  0  0  0  0  0  0  0  0  0  0  0
    5.8718  -11.8698   26.5334 C   0  0  0  0  0  0  0  0  0  0  0  0
    6.7889  -13.4431   26.6580 C   0  0  0  0  0  0  0  0  0  0  0  0
    6.7516  -14.1224   25.3368 C   0  0  2  0  0  0  0  0  0  0  0  0
    8.1137  -14.6567   24.9009 N   0  0  0  0  0  0  0  0  0  0  0  0
    8.0366  -15.2673   23.6089 C   0  0  0  0  0  0  0  0  0  0  0  0
    8.7484  -15.4657   25.9349 O   0  0  0  0  0  0  0  0  0  0  0  0
    8.2646  -16.6549   26.0139 N   0  0  0  0  0  0  0  0  0  0  0  0
    9.7693  -15.1448   26.8153 C   0  0  0  0  0  0  0  0  0  0  0  0
   10.6937  -13.9866   26.8072 C   0  0  0  0  0  0  0  0  0  0  0  0
   10.5863  -13.5475   28.2748 C   0  0  0  0  0  0  0  0  0  0  0  0
   10.0075  -14.7562   29.0276 C   0  0  2  0  0  0  0  0  0  0  0  0
   10.2603  -15.8493   27.9701 C   0  0  0  0  0  0  0  0  0  0  0  0
    9.8149  -17.1556   28.3281 O   0  0  0  0  0  0  0  0  0  0  0  0
   10.6875  -17.8532   29.2407 O   0  0  0  0  0  0  0  0  0  0  0  0
  1  2  1  0
  2  3  2  0
  4  2  1  0
  5  4  1  0
  6  5  1  0
  7  6  1  0
  8  7  1  0
  8  9  1  6
 10  8  1  0
 10 11  2  0
 13 12  1  0
 14 13  1  0
 14 15  1  0
 16 17  1  0
 16 15  1  6
 17 10  1  0
 18 16  1  0
 19 18  2  0
 20 18  1  0
 20 21  1  0
 22 21  1  0
 23 22  1  0
 24 23  1  0
 24 20  1  0
 24 25  1  1
 25 26  1  0
 27 25  2  0
M  END
$$$$
