RMP.pdb
     RDKit          3D

 27 27  0  0  1  0  0  0  0  0999 V2000
    9.0567  -12.1259   18.9878 N   0  0  0  0  0  0  0  0  0  0  0  0
    8.6521  -13.4223   18.5803 C   0  0  0  0  0  0  0  0  0  0  0  0
    8.9988  -13.8522   17.4139 N   0  0  0  0  0  0  0  0  0  0  0  0
    7.8740  -14.2779   19.4036 N   0  0  0  0  0  0  0  0  0  0  0  0
    7.7495  -14.0560   20.8274 C   0  0  0  0  0  0  0  0  0  0  0  0
    6.7696  -14.9919   21.4896 C   0  0  0  0  0  0  0  0  0  0  0  0
    6.5881  -16.2605   20.6649 C   0  0  0  0  0  0  0  0  0  0  0  0
    6.6574  -17.4367   21.6317 C   0  0  2  0  0  0  0  0  0  0  0  0
    5.5111  -18.2666   21.2953 N   0  0  0  0  0  0  0  0  0  0  0  0
    6.5611  -16.9463   23.0430 C   0  0  0  0  0  0  0  0  0  0  0  0
    5.5924  -16.2229   23.3806 O   0  0  0  0  0  0  0  0  0  0  0  0
    8.7516  -14.8378   17.1043 C   0  0  0  0  0  0  0  0  0  0  0  0
    9.6599  -19.4649   28.2952 S   0  0  0  0  0  0  0  0  0  0  0  0
    8.0766  -18.8251   28.8975 C   0  0  0  0  0  0  0  0  0  0  0  0
    7.4163  -17.5526   27.7677 C   0  0  0  0  0  0  0  0  0  0  0  0
    7.8715  -17.8589   26.3866 C   0  0  2  0  0  0  0  0  0  0  0  0
    7.4873  -16.7797   25.3775 N   0  0  0  0  0  0  0  0  0  0  0  0
    7.5521  -17.2814   24.0388 C   0  0  0  0  0  0  0  0  0  0  0  0
    8.1978  -15.5273   25.6080 O   0  0  0  0  0  0  0  0  0  0  0  0
    9.4719  -15.6364   25.4690 N   0  0  0  0  0  0  0  0  0  0  0  0
    7.7090  -14.2746   25.9427 C   0  0  0  0  0  0  0  0  0  0  0  0
    6.5234  -13.5538   25.4223 C   0  0  0  0  0  0  0  0  0  0  0  0
    5.8847  -13.0995   26.7428 C   0  0  0  0  0  0  0  0  0  0  0  0
    6.9985  -13.1989   27.7975 C   0  0  2  0  0  0  0  0  0  0  0  0
    8.2187  -13.2894   26.8595 C   0  0  0  0  0  0  0  0  0  0  0  0
    9.4794  -13.4180   27.5131 O   0  0  0  0  0  0  0  0  0  0  0  0
   10.2361  -12.1926   27.5943 O   0  0  0  0  0  0  0  0  0  0  0  0
  1  2  1  0
  2  3  2  0
  4  2  1  0
  5  4  1  0
  6  5  1  0
  7  6  1  0
  8  7  1  0
  8  9  1  6
 10  8  1  0
 10 11  2  0
 13 12  1  0
 14 13  1  0
 14 15  1  0
 16 17  1  0
 16 15  1  1
 17 10  1  0
 18 16  1  0
 19 18  2  0
 20 18  1  0
 20 21  1  0
 22 21  1  0
 23 22  1  0
 24 23  1  0
 24 20  1  0
 24 25  1  1
 25 26  1  0
 27 25  2  0
M  END
$$$$
