RMP.pdb
     RDKit          3D

 27 27  0  0  1  0  0  0  0  0999 V2000
    8.4597  -14.1941   15.1398 N   0  0  0  0  0  0  0  0  0  0  0  0
    8.3810  -13.7820   16.4942 C   0  0  0  0  0  0  0  0  0  0  0  0
    8.0009  -12.5788   16.7649 N   0  0  0  0  0  0  0  0  0  0  0  0
    8.7056  -14.6399   17.5778 N   0  0  0  0  0  0  0  0  0  0  0  0
    7.7607  -15.6071   18.0911 C   0  0  0  0  0  0  0  0  0  0  0  0
    8.3027  -16.4090   19.2477 C   0  0  0  0  0  0  0  0  0  0  0  0
    8.9259  -15.4960   20.2968 C   0  0  0  0  0  0  0  0  0  0  0  0
    9.3305  -16.3767   21.4730 C   0  0  2  0  0  0  0  0  0  0  0  0
    8.3312  -17.4330   21.5117 N   0  0  0  0  0  0  0  0  0  0  0  0
    9.3096  -15.5802   22.7406 C   0  0  0  0  0  0  0  0  0  0  0  0
   10.1863  -14.7026   22.9329 O   0  0  0  0  0  0  0  0  0  0  0  0
    8.1032  -12.1863   17.7466 C   0  0  0  0  0  0  0  0  0  0  0  0
    6.3893  -11.2342   25.4428 S   0  0  0  0  0  0  0  0  0  0  0  0
    5.7401  -12.5034   26.5592 C   0  0  0  0  0  0  0  0  0  0  0  0
    6.9040  -13.9024   26.7018 C   0  0  0  0  0  0  0  0  0  0  0  0
    6.9295  -14.6348   25.4090 C   0  0  2  0  0  0  0  0  0  0  0  0
    8.3305  -15.0885   25.0067 N   0  0  0  0  0  0  0  0  0  0  0  0
    8.3056  -15.7873   23.7580 C   0  0  0  0  0  0  0  0  0  0  0  0
    9.0232  -15.7754   26.0906 O   0  0  0  0  0  0  0  0  0  0  0  0
    8.5574  -16.9518   26.3224 N   0  0  0  0  0  0  0  0  0  0  0  0
   10.0812  -15.3537   26.8799 C   0  0  0  0  0  0  0  0  0  0  0  0
   10.9476  -14.1598   26.7381 C   0  0  0  0  0  0  0  0  0  0  0  0
   10.9123  -13.6301   28.1791 C   0  0  0  0  0  0  0  0  0  0  0  0
   10.4396  -14.8104   29.0429 C   0  0  2  0  0  0  0  0  0  0  0  0
   10.6766  -15.9588   28.0419 C   0  0  0  0  0  0  0  0  0  0  0  0
   10.3168  -17.2568   28.5099 O   0  0  0  0  0  0  0  0  0  0  0  0
   11.3169  -17.8914   29.3333 O   0  0  0  0  0  0  0  0  0  0  0  0
  1  2  1  0
  2  3  2  0
  4  2  1  0
  5  4  1  0
  6  5  1  0
  7  6  1  0
  8  7  1  0
  8  9  1  1
 10  8  1  0
 10 11  2  0
 13 12  1  0
 14 13  1  0
 14 15  1  0
 16 17  1  0
 16 15  1  6
 17 10  1  0
 18 16  1  0
 19 18  2  0
 20 18  1  0
 20 21  1  0
 22 21  1  0
 23 22  1  0
 24 23  1  0
 24 20  1  0
 24 25  1  1
 25 26  1  0
 27 25  2  0
M  END
$$$$
