RMP.pdb
     RDKit          3D

 27 27  0  0  1  0  0  0  0  0999 V2000
   12.5568  -16.0575   18.0069 N   0  0  0  0  0  0  0  0  0  0  0  0
   13.6283  -15.1959   18.3532 C   0  0  0  0  0  0  0  0  0  0  0  0
   14.7548  -15.3126   17.7346 N   0  0  0  0  0  0  0  0  0  0  0  0
   13.5189  -14.2013   19.3603 N   0  0  0  0  0  0  0  0  0  0  0  0
   12.3390  -14.0844   20.1885 C   0  0  0  0  0  0  0  0  0  0  0  0
   11.3008  -15.1376   19.8929 C   0  0  0  0  0  0  0  0  0  0  0  0
   11.2317  -16.1630   21.0182 C   0  0  0  0  0  0  0  0  0  0  0  0
    9.7810  -16.2219   21.4816 C   0  0  2  0  0  0  0  0  0  0  0  0
    9.0129  -15.6593   20.3819 N   0  0  0  0  0  0  0  0  0  0  0  0
    9.6061  -15.4042   22.7234 C   0  0  0  0  0  0  0  0  0  0  0  0
   10.2070  -14.3073   22.8303 O   0  0  0  0  0  0  0  0  0  0  0  0
   15.5496  -14.6337   17.9236 C   0  0  0  0  0  0  0  0  0  0  0  0
    5.9529  -11.5451   25.0636 S   0  0  0  0  0  0  0  0  0  0  0  0
    5.7384  -12.6905   26.4496 C   0  0  0  0  0  0  0  0  0  0  0  0
    7.1515  -13.8396   26.5694 C   0  0  0  0  0  0  0  0  0  0  0  0
    7.2845  -14.5675   25.2807 C   0  0  1  0  0  0  0  0  0  0  0  0
    8.6876  -15.1231   25.0501 N   0  0  0  0  0  0  0  0  0  0  0  0
    8.7607  -15.8367   23.8117 C   0  0  0  0  0  0  0  0  0  0  0  0
    9.1978  -15.8402   26.2128 O   0  0  0  0  0  0  0  0  0  0  0  0
    8.7189  -17.0289   26.3233 N   0  0  0  0  0  0  0  0  0  0  0  0
   10.0996  -15.4352   27.1839 C   0  0  0  0  0  0  0  0  0  0  0  0
   10.8545  -14.1653   27.3004 C   0  0  0  0  0  0  0  0  0  0  0  0
   10.5835  -13.8263   28.7735 C   0  0  0  0  0  0  0  0  0  0  0  0
   10.1238  -15.1413   29.4234 C   0  0  2  0  0  0  0  0  0  0  0  0
   10.5990  -16.1306   28.3406 C   0  0  0  0  0  0  0  0  0  0  0  0
   10.3128  -17.5025   28.6033 O   0  0  0  0  0  0  0  0  0  0  0  0
   11.2791  -18.1616   29.4474 O   0  0  0  0  0  0  0  0  0  0  0  0
  1  2  1  0
  2  3  2  0
  4  2  1  0
  5  4  1  0
  6  5  1  0
  7  6  1  0
  8  7  1  0
  8  9  1  6
 10  8  1  0
 10 11  2  0
 13 12  1  0
 14 13  1  0
 14 15  1  0
 16 17  1  0
 16 15  1  6
 17 10  1  0
 18 16  1  0
 19 18  2  0
 20 18  1  0
 20 21  1  0
 22 21  1  0
 23 22  1  0
 24 23  1  0
 24 20  1  0
 24 25  1  1
 25 26  1  0
 27 25  2  0
M  END
$$$$
