RMP.pdb
     RDKit          3D

 27 27  0  0  1  0  0  0  0  0999 V2000
    7.3810  -20.8912   27.6778 N   0  0  0  0  0  0  0  0  0  0  0  0
    8.7665  -20.5979   27.7441 C   0  0  0  0  0  0  0  0  0  0  0  0
    9.2838  -20.2552   28.8757 N   0  0  0  0  0  0  0  0  0  0  0  0
    9.6202  -20.6631   26.6116 N   0  0  0  0  0  0  0  0  0  0  0  0
    9.2033  -20.1734   25.3162 C   0  0  0  0  0  0  0  0  0  0  0  0
    8.1863  -21.0625   24.6457 C   0  0  0  0  0  0  0  0  0  0  0  0
    7.2442  -20.2454   23.7697 C   0  0  0  0  0  0  0  0  0  0  0  0
    6.8012  -19.0406   24.5912 C   0  0  2  0  0  0  0  0  0  0  0  0
    5.5902  -19.4744   25.2703 N   0  0  0  0  0  0  0  0  0  0  0  0
    6.5162  -17.8812   23.6879 C   0  0  0  0  0  0  0  0  0  0  0  0
    6.8022  -17.9636   22.4684 O   0  0  0  0  0  0  0  0  0  0  0  0
   10.3125  -19.9998   28.9460 C   0  0  0  0  0  0  0  0  0  0  0  0
    6.9176  -10.8912   26.6024 S   0  0  0  0  0  0  0  0  0  0  0  0
    6.2782  -12.5704   26.3779 C   0  0  0  0  0  0  0  0  0  0  0  0
    7.5839  -13.6875   25.7622 C   0  0  0  0  0  0  0  0  0  0  0  0
    7.0218  -15.0579   25.6435 C   0  0  2  0  0  0  0  0  0  0  0  0
    6.6320  -15.4222   24.2130 N   0  0  0  0  0  0  0  0  0  0  0  0
    5.9163  -16.6609   24.1750 C   0  0  0  0  0  0  0  0  0  0  0  0
    7.7568  -15.3246   23.2902 O   0  0  0  0  0  0  0  0  0  0  0  0
    8.8819  -15.6360   23.8303 N   0  0  0  0  0  0  0  0  0  0  0  0
    7.7835  -14.9575   21.9542 C   0  0  0  0  0  0  0  0  0  0  0  0
    6.6745  -14.8793   20.9743 C   0  0  0  0  0  0  0  0  0  0  0  0
    6.9479  -13.4945   20.3697 C   0  0  0  0  0  0  0  0  0  0  0  0
    8.4074  -13.1682   20.7250 C   0  0  2  0  0  0  0  0  0  0  0  0
    8.8884  -14.5807   21.1127 C   0  0  0  0  0  0  0  0  0  0  0  0
   10.2478  -14.6652   21.5348 O   0  0  0  0  0  0  0  0  0  0  0  0
   11.1561  -15.1501   20.5245 O   0  0  0  0  0  0  0  0  0  0  0  0
  1  2  1  0
  2  3  2  0
  4  2  1  0
  5  4  1  0
  6  5  1  0
  7  6  1  0
  8  7  1  0
  8  9  1  6
 10  8  1  0
 10 11  2  0
 13 12  1  0
 14 13  1  0
 14 15  1  0
 16 17  1  0
 16 15  1  1
 17 10  1  0
 18 16  1  0
 19 18  2  0
 20 18  1  0
 20 21  1  0
 22 21  1  0
 23 22  1  0
 24 23  1  0
 24 20  1  0
 24 25  1  1
 25 26  1  0
 27 25  2  0
M  END
$$$$
