RMP.pdb
     RDKit          3D

 27 27  0  0  1  0  0  0  0  0999 V2000
   12.2732  -21.0709   18.5787 N   0  0  0  0  0  0  0  0  0  0  0  0
   11.2655  -20.5816   19.4479 C   0  0  0  0  0  0  0  0  0  0  0  0
   10.0284  -20.6743   19.0925 N   0  0  0  0  0  0  0  0  0  0  0  0
   11.5571  -19.9869   20.7036 N   0  0  0  0  0  0  0  0  0  0  0  0
   10.5150  -19.4512   21.5514 C   0  0  0  0  0  0  0  0  0  0  0  0
    9.8405  -18.2362   20.9656 C   0  0  0  0  0  0  0  0  0  0  0  0
   10.2842  -16.9685   21.6856 C   0  0  0  0  0  0  0  0  0  0  0  0
    9.1132  -15.9941   21.6390 C   0  0  2  0  0  0  0  0  0  0  0  0
    9.4372  -15.0696   20.5637 N   0  0  0  0  0  0  0  0  0  0  0  0
    8.9971  -15.2696   22.9441 C   0  0  0  0  0  0  0  0  0  0  0  0
    9.7641  -14.3058   23.1857 O   0  0  0  0  0  0  0  0  0  0  0  0
    9.2562  -20.2910   19.7131 C   0  0  0  0  0  0  0  0  0  0  0  0
    6.6048  -10.5778   26.3694 S   0  0  0  0  0  0  0  0  0  0  0  0
    6.6296  -12.3241   26.8475 C   0  0  0  0  0  0  0  0  0  0  0  0
    6.1836  -13.3921   25.4360 C   0  0  0  0  0  0  0  0  0  0  0  0
    6.6124  -14.7829   25.7365 C   0  0  2  0  0  0  0  0  0  0  0  0
    8.0310  -15.0868   25.2612 N   0  0  0  0  0  0  0  0  0  0  0  0
    8.0231  -15.6436   23.9429 C   0  0  0  0  0  0  0  0  0  0  0  0
    8.7977  -15.8369   26.2491 O   0  0  0  0  0  0  0  0  0  0  0  0
    8.3673  -17.0372   26.4173 N   0  0  0  0  0  0  0  0  0  0  0  0
    9.8922  -15.4517   27.0068 C   0  0  0  0  0  0  0  0  0  0  0  0
   10.7272  -14.2315   26.9070 C   0  0  0  0  0  0  0  0  0  0  0  0
   10.7663  -13.8117   28.3836 C   0  0  0  0  0  0  0  0  0  0  0  0
   10.3661  -15.0635   29.1809 C   0  0  2  0  0  0  0  0  0  0  0  0
   10.5651  -16.1284   28.0839 C   0  0  0  0  0  0  0  0  0  0  0  0
   10.2566  -17.4654   28.4719 O   0  0  0  0  0  0  0  0  0  0  0  0
    8.9645  -17.9305   28.0306 O   0  0  0  0  0  0  0  0  0  0  0  0
  1  2  1  0
  2  3  2  0
  4  2  1  0
  5  4  1  0
  6  5  1  0
  7  6  1  0
  8  7  1  0
  8  9  1  6
 10  8  1  0
 10 11  2  0
 13 12  1  0
 14 13  1  0
 14 15  1  0
 16 17  1  0
 16 15  1  6
 17 10  1  0
 18 16  1  0
 19 18  2  0
 20 18  1  0
 20 21  1  0
 22 21  1  0
 23 22  1  0
 24 23  1  0
 24 20  1  0
 24 25  1  1
 25 26  1  0
 27 25  2  0
M  END
$$$$
