RMP.pdb
     RDKit          3D

 27 27  0  0  1  0  0  0  0  0999 V2000
    8.4150  -12.9425   17.3173 N   0  0  0  0  0  0  0  0  0  0  0  0
    7.8440  -14.0989   16.7281 C   0  0  0  0  0  0  0  0  0  0  0  0
    7.9959  -14.3008   15.4626 N   0  0  0  0  0  0  0  0  0  0  0  0
    7.1040  -15.0544   17.4730 N   0  0  0  0  0  0  0  0  0  0  0  0
    7.4748  -15.4191   18.8226 C   0  0  0  0  0  0  0  0  0  0  0  0
    8.8075  -14.8533   19.2444 C   0  0  0  0  0  0  0  0  0  0  0  0
    8.7437  -14.3180   20.6699 C   0  0  0  0  0  0  0  0  0  0  0  0
    9.2874  -15.4104   21.5830 C   0  0  2  0  0  0  0  0  0  0  0  0
    8.3795  -16.5331   21.4063 N   0  0  0  0  0  0  0  0  0  0  0  0
    9.2796  -14.9409   23.0046 C   0  0  0  0  0  0  0  0  0  0  0  0
    9.9922  -13.9620   23.3356 O   0  0  0  0  0  0  0  0  0  0  0  0
    7.5380  -15.1335   14.9879 C   0  0  0  0  0  0  0  0  0  0  0  0
    5.9848  -10.7552   26.2175 S   0  0  0  0  0  0  0  0  0  0  0  0
    6.5894  -12.3806   26.7385 C   0  0  0  0  0  0  0  0  0  0  0  0
    6.4444  -13.5945   25.3830 C   0  0  0  0  0  0  0  0  0  0  0  0
    7.0077  -14.8908   25.8419 C   0  0  2  0  0  0  0  0  0  0  0  0
    8.4422  -15.1189   25.3717 N   0  0  0  0  0  0  0  0  0  0  0  0
    8.4717  -15.5799   24.0171 C   0  0  0  0  0  0  0  0  0  0  0  0
    9.2153  -15.9155   26.3173 O   0  0  0  0  0  0  0  0  0  0  0  0
    8.8482  -17.1476   26.3585 N   0  0  0  0  0  0  0  0  0  0  0  0
   10.2588  -15.5444   27.1501 C   0  0  0  0  0  0  0  0  0  0  0  0
   11.0733  -14.3064   27.1488 C   0  0  0  0  0  0  0  0  0  0  0  0
   11.0235  -13.9509   28.6418 C   0  0  0  0  0  0  0  0  0  0  0  0
   10.6058  -15.2432   29.3617 C   0  0  2  0  0  0  0  0  0  0  0  0
   10.8856  -16.2555   28.2329 C   0  0  0  0  0  0  0  0  0  0  0  0
   10.5834  -17.6134   28.5458 O   0  0  0  0  0  0  0  0  0  0  0  0
   11.5148  -18.2368   29.4540 O   0  0  0  0  0  0  0  0  0  0  0  0
  1  2  1  0
  2  3  2  0
  4  2  1  0
  5  4  1  0
  6  5  1  0
  7  6  1  0
  8  7  1  0
  8  9  1  1
 10  8  1  0
 10 11  2  0
 13 12  1  0
 14 13  1  0
 14 15  1  0
 16 17  1  0
 16 15  1  6
 17 10  1  0
 18 16  1  0
 19 18  2  0
 20 18  1  0
 20 21  1  0
 22 21  1  0
 23 22  1  0
 24 23  1  0
 24 20  1  0
 24 25  1  1
 25 26  1  0
 27 25  2  0
M  END
$$$$
