RMP.pdb
     RDKit          3D

 27 27  0  0  1  0  0  0  0  0999 V2000
    8.3031  -12.9579   18.4325 N   0  0  0  0  0  0  0  0  0  0  0  0
    8.5662  -13.5335   17.1637 C   0  0  0  0  0  0  0  0  0  0  0  0
    7.7832  -13.2615   16.1746 N   0  0  0  0  0  0  0  0  0  0  0  0
    9.6616  -14.4054   16.9284 N   0  0  0  0  0  0  0  0  0  0  0  0
   10.4483  -14.9480   18.0141 C   0  0  0  0  0  0  0  0  0  0  0  0
    9.6224  -15.7052   19.0235 C   0  0  0  0  0  0  0  0  0  0  0  0
   10.0107  -15.3156   20.4448 C   0  0  0  0  0  0  0  0  0  0  0  0
    9.2270  -16.2214   21.3872 C   0  0  2  0  0  0  0  0  0  0  0  0
    8.0083  -16.5502   20.6642 N   0  0  0  0  0  0  0  0  0  0  0  0
    8.9106  -15.4909   22.6551 C   0  0  0  0  0  0  0  0  0  0  0  0
    8.8798  -14.2360   22.6536 O   0  0  0  0  0  0  0  0  0  0  0  0
    7.9791  -13.6503   15.2057 C   0  0  0  0  0  0  0  0  0  0  0  0
    6.2455  -11.9589   25.4713 S   0  0  0  0  0  0  0  0  0  0  0  0
    7.1175  -12.9966   26.6720 C   0  0  0  0  0  0  0  0  0  0  0  0
    6.5005  -14.7137   26.6181 C   0  0  0  0  0  0  0  0  0  0  0  0
    6.8509  -15.3049   25.3005 C   0  0  1  0  0  0  0  0  0  0  0  0
    8.3540  -15.4917   25.1099 N   0  0  0  0  0  0  0  0  0  0  0  0
    8.6350  -16.1863   23.8906 C   0  0  0  0  0  0  0  0  0  0  0  0
    9.0001  -16.0350   26.2990 O   0  0  0  0  0  0  0  0  0  0  0  0
    8.5706  -17.2049   26.6173 N   0  0  0  0  0  0  0  0  0  0  0  0
    9.9827  -15.4868   27.1078 C   0  0  0  0  0  0  0  0  0  0  0  0
   10.7501  -14.2300   26.9412 C   0  0  0  0  0  0  0  0  0  0  0  0
   10.6065  -13.6391   28.3513 C   0  0  0  0  0  0  0  0  0  0  0  0
   10.1982  -14.8147   29.2535 C   0  0  2  0  0  0  0  0  0  0  0  0
   10.5757  -15.9834   28.3214 C   0  0  0  0  0  0  0  0  0  0  0  0
   10.3071  -17.2846   28.8389 O   0  0  0  0  0  0  0  0  0  0  0  0
    9.0278  -17.8272   28.4519 O   0  0  0  0  0  0  0  0  0  0  0  0
  1  2  1  0
  2  3  2  0
  4  2  1  0
  5  4  1  0
  6  5  1  0
  7  6  1  0
  8  7  1  0
  8  9  1  6
 10  8  1  0
 10 11  2  0
 13 12  1  0
 14 13  1  0
 14 15  1  0
 16 17  1  0
 16 15  1  6
 17 10  1  0
 18 16  1  0
 19 18  2  0
 20 18  1  0
 20 21  1  0
 22 21  1  0
 23 22  1  0
 24 23  1  0
 24 20  1  0
 24 25  1  1
 25 26  1  0
 27 25  2  0
M  END
$$$$
