RMP.pdb
     RDKit          3D

 27 27  0  0  1  0  0  0  0  0999 V2000
    9.4371  -13.4694   16.4455 N   0  0  0  0  0  0  0  0  0  0  0  0
    8.1853  -14.0095   16.0559 C   0  0  0  0  0  0  0  0  0  0  0  0
    7.5937  -13.5368   15.0109 N   0  0  0  0  0  0  0  0  0  0  0  0
    7.5450  -15.0561   16.7701 N   0  0  0  0  0  0  0  0  0  0  0  0
    7.4802  -15.0618   18.2150 C   0  0  0  0  0  0  0  0  0  0  0  0
    8.7557  -15.5380   18.8635 C   0  0  0  0  0  0  0  0  0  0  0  0
    9.0563  -14.7361   20.1241 C   0  0  0  0  0  0  0  0  0  0  0  0
    9.4622  -15.7333   21.2028 C   0  0  2  0  0  0  0  0  0  0  0  0
    8.4816  -16.8039   21.1120 N   0  0  0  0  0  0  0  0  0  0  0  0
    9.4115  -15.0807   22.5493 C   0  0  0  0  0  0  0  0  0  0  0  0
   10.1648  -14.1063   22.7920 O   0  0  0  0  0  0  0  0  0  0  0  0
    6.6881  -13.9669   14.6599 C   0  0  0  0  0  0  0  0  0  0  0  0
    6.0327  -11.1941   27.7395 S   0  0  0  0  0  0  0  0  0  0  0  0
    6.0309  -12.2255   26.2512 C   0  0  0  0  0  0  0  0  0  0  0  0
    6.9660  -13.7686   26.5271 C   0  0  0  0  0  0  0  0  0  0  0  0
    7.0475  -14.5126   25.2433 C   0  0  2  0  0  0  0  0  0  0  0  0
    8.4724  -14.9223   24.8793 N   0  0  0  0  0  0  0  0  0  0  0  0
    8.5164  -15.5362   23.5873 C   0  0  0  0  0  0  0  0  0  0  0  0
    9.1235  -15.6719   25.9472 O   0  0  0  0  0  0  0  0  0  0  0  0
    8.6435  -16.8557   26.0986 N   0  0  0  0  0  0  0  0  0  0  0  0
   10.1559  -15.3014   26.7940 C   0  0  0  0  0  0  0  0  0  0  0  0
   11.0594  -14.1288   26.7243 C   0  0  0  0  0  0  0  0  0  0  0  0
   10.9737  -13.6374   28.1766 C   0  0  0  0  0  0  0  0  0  0  0  0
   10.4314  -14.8270   28.9852 C   0  0  2  0  0  0  0  0  0  0  0  0
   10.6823  -15.9541   27.9635 C   0  0  0  0  0  0  0  0  0  0  0  0
   10.2674  -17.2537   28.3784 O   0  0  0  0  0  0  0  0  0  0  0  0
   11.2449  -17.9694   29.1614 O   0  0  0  0  0  0  0  0  0  0  0  0
  1  2  1  0
  2  3  2  0
  4  2  1  0
  5  4  1  0
  6  5  1  0
  7  6  1  0
  8  7  1  0
  8  9  1  1
 10  8  1  0
 10 11  2  0
 13 12  1  0
 14 13  1  0
 14 15  1  0
 16 17  1  0
 16 15  1  6
 17 10  1  0
 18 16  1  0
 19 18  2  0
 20 18  1  0
 20 21  1  0
 22 21  1  0
 23 22  1  0
 24 23  1  0
 24 20  1  0
 24 25  1  1
 25 26  1  0
 27 25  2  0
M  END
$$$$
