RMP.pdb
     RDKit          3D

 27 27  0  0  1  0  0  0  0  0999 V2000
   10.2870  -14.2802   16.7954 N   0  0  0  0  0  0  0  0  0  0  0  0
    8.9550  -14.3113   16.3107 C   0  0  0  0  0  0  0  0  0  0  0  0
    8.6958  -14.9558   15.2231 N   0  0  0  0  0  0  0  0  0  0  0  0
    7.8818  -13.6584   16.9722 N   0  0  0  0  0  0  0  0  0  0  0  0
    8.0608  -13.0068   18.2510 C   0  0  0  0  0  0  0  0  0  0  0  0
    8.7902  -13.8631   19.2555 C   0  0  0  0  0  0  0  0  0  0  0  0
    7.8079  -14.5690   20.1826 C   0  0  0  0  0  0  0  0  0  0  0  0
    8.6215  -15.5069   21.0663 C   0  0  2  0  0  0  0  0  0  0  0  0
    7.8151  -16.7126   21.1758 N   0  0  0  0  0  0  0  0  0  0  0  0
    8.8340  -14.8871   22.4124 C   0  0  0  0  0  0  0  0  0  0  0  0
    9.5560  -13.8653   22.5148 O   0  0  0  0  0  0  0  0  0  0  0  0
    7.6979  -15.0427   14.8694 C   0  0  0  0  0  0  0  0  0  0  0  0
    5.6074  -10.8279   27.3572 S   0  0  0  0  0  0  0  0  0  0  0  0
    5.4253  -12.5295   26.7653 C   0  0  0  0  0  0  0  0  0  0  0  0
    7.0563  -13.2968   26.4774 C   0  0  0  0  0  0  0  0  0  0  0  0
    6.9755  -14.1456   25.2603 C   0  0  2  0  0  0  0  0  0  0  0  0
    8.3165  -14.7638   24.8727 N   0  0  0  0  0  0  0  0  0  0  0  0
    8.2299  -15.4277   23.6078 C   0  0  0  0  0  0  0  0  0  0  0  0
    8.8949  -15.5548   25.9525 O   0  0  0  0  0  0  0  0  0  0  0  0
    8.3615  -16.7197   26.0671 N   0  0  0  0  0  0  0  0  0  0  0  0
    9.9084  -15.2394   26.8435 C   0  0  0  0  0  0  0  0  0  0  0  0
   10.8096  -14.0634   26.8703 C   0  0  0  0  0  0  0  0  0  0  0  0
   10.6921  -13.6691   28.3499 C   0  0  0  0  0  0  0  0  0  0  0  0
   10.1366  -14.9104   29.0665 C   0  0  2  0  0  0  0  0  0  0  0  0
   10.4121  -15.9671   27.9782 C   0  0  0  0  0  0  0  0  0  0  0  0
    9.9925  -17.2919   28.2976 O   0  0  0  0  0  0  0  0  0  0  0  0
   10.9230  -18.0306   29.1157 O   0  0  0  0  0  0  0  0  0  0  0  0
  1  2  1  0
  2  3  2  0
  4  2  1  0
  5  4  1  0
  6  5  1  0
  7  6  1  0
  8  7  1  0
  8  9  1  1
 10  8  1  0
 10 11  2  0
 13 12  1  0
 14 13  1  0
 14 15  1  0
 16 17  1  0
 16 15  1  6
 17 10  1  0
 18 16  1  0
 19 18  2  0
 20 18  1  0
 20 21  1  0
 22 21  1  0
 23 22  1  0
 24 23  1  0
 24 20  1  0
 24 25  1  1
 25 26  1  0
 27 25  2  0
M  END
$$$$
