RMP.pdb
     RDKit          3D

 27 27  0  0  1  0  0  0  0  0999 V2000
    8.5172  -12.7963   17.9993 N   0  0  0  0  0  0  0  0  0  0  0  0
    7.8897  -13.8914   17.3533 C   0  0  0  0  0  0  0  0  0  0  0  0
    8.0353  -14.0382   16.0794 N   0  0  0  0  0  0  0  0  0  0  0  0
    7.0993  -14.8433   18.0495 N   0  0  0  0  0  0  0  0  0  0  0  0
    7.4911  -15.3555   19.3441 C   0  0  0  0  0  0  0  0  0  0  0  0
    8.8237  -16.0611   19.3238 C   0  0  0  0  0  0  0  0  0  0  0  0
    9.7989  -15.4081   20.2960 C   0  0  0  0  0  0  0  0  0  0  0  0
    9.8467  -16.2871   21.5401 C   0  0  2  0  0  0  0  0  0  0  0  0
    8.6785  -17.1476   21.4364 N   0  0  0  0  0  0  0  0  0  0  0  0
    9.7721  -15.4378   22.7709 C   0  0  0  0  0  0  0  0  0  0  0  0
   10.5655  -14.4744   22.9053 O   0  0  0  0  0  0  0  0  0  0  0  0
    7.5968  -14.8642   15.5756 C   0  0  0  0  0  0  0  0  0  0  0  0
    5.5516  -11.7447   25.1761 S   0  0  0  0  0  0  0  0  0  0  0  0
    5.9288  -12.6017   26.7260 C   0  0  0  0  0  0  0  0  0  0  0  0
    7.5059  -13.5120   26.5997 C   0  0  0  0  0  0  0  0  0  0  0  0
    7.5148  -14.2754   25.3248 C   0  0  2  0  0  0  0  0  0  0  0  0
    8.8388  -14.9899   25.0652 N   0  0  0  0  0  0  0  0  0  0  0  0
    8.8090  -15.6898   23.8172 C   0  0  0  0  0  0  0  0  0  0  0  0
    9.2769  -15.7785   26.2108 O   0  0  0  0  0  0  0  0  0  0  0  0
    8.6689  -16.9077   26.3090 N   0  0  0  0  0  0  0  0  0  0  0  0
   10.2281  -15.4929   27.1772 C   0  0  0  0  0  0  0  0  0  0  0  0
   11.1620  -14.3463   27.2729 C   0  0  0  0  0  0  0  0  0  0  0  0
   10.9433  -13.9438   28.7387 C   0  0  0  0  0  0  0  0  0  0  0  0
   10.2944  -15.1643   29.4110 C   0  0  2  0  0  0  0  0  0  0  0  0
   10.6189  -16.2328   28.3481 C   0  0  0  0  0  0  0  0  0  0  0  0
   10.1333  -17.5424   28.6350 O   0  0  0  0  0  0  0  0  0  0  0  0
   11.0982  -18.4109   29.2638 O   0  0  0  0  0  0  0  0  0  0  0  0
  1  2  1  0
  2  3  2  0
  4  2  1  0
  5  4  1  0
  6  5  1  0
  7  6  1  0
  8  7  1  0
  8  9  1  6
 10  8  1  0
 10 11  2  0
 13 12  1  0
 14 13  1  0
 14 15  1  0
 16 17  1  0
 16 15  1  6
 17 10  1  0
 18 16  1  0
 19 18  2  0
 20 18  1  0
 20 21  1  0
 22 21  1  0
 23 22  1  0
 24 23  1  0
 24 20  1  0
 24 25  1  1
 25 26  1  0
 27 25  2  0
M  END
$$$$
