RMP.pdb
     RDKit          3D

 27 27  0  0  1  0  0  0  0  0999 V2000
   11.5159  -16.4243   17.5299 N   0  0  0  0  0  0  0  0  0  0  0  0
   10.6007  -16.5433   16.4535 C   0  0  0  0  0  0  0  0  0  0  0  0
   11.0162  -16.3397   15.2487 N   0  0  0  0  0  0  0  0  0  0  0  0
    9.2340  -16.8783   16.6412 N   0  0  0  0  0  0  0  0  0  0  0  0
    8.6022  -16.7949   17.9396 C   0  0  0  0  0  0  0  0  0  0  0  0
    9.1620  -15.6911   18.8013 C   0  0  0  0  0  0  0  0  0  0  0  0
    8.7300  -15.8629   20.2526 C   0  0  0  0  0  0  0  0  0  0  0  0
    8.0670  -14.5588   20.6797 C   0  0  2  0  0  0  0  0  0  0  0  0
    8.6240  -13.5476   19.7948 N   0  0  0  0  0  0  0  0  0  0  0  0
    8.4022  -14.2569   22.1073 C   0  0  0  0  0  0  0  0  0  0  0  0
    9.5162  -13.7501   22.3861 O   0  0  0  0  0  0  0  0  0  0  0  0
   10.3584  -16.4528   14.4224 C   0  0  0  0  0  0  0  0  0  0  0  0
    6.8386  -10.7046   28.2438 S   0  0  0  0  0  0  0  0  0  0  0  0
    6.4997  -11.4174   26.6141 C   0  0  0  0  0  0  0  0  0  0  0  0
    6.7285  -13.2282   26.6349 C   0  0  0  0  0  0  0  0  0  0  0  0
    6.4769  -13.7562   25.2688 C   0  0  2  0  0  0  0  0  0  0  0  0
    7.7560  -14.1567   24.5379 N   0  0  0  0  0  0  0  0  0  0  0  0
    7.4790  -14.5293   23.1842 C   0  0  0  0  0  0  0  0  0  0  0  0
    8.5511  -15.1148   25.2969 O   0  0  0  0  0  0  0  0  0  0  0  0
    8.1184  -16.3220   25.1970 N   0  0  0  0  0  0  0  0  0  0  0  0
    9.6738  -14.9148   26.0843 C   0  0  0  0  0  0  0  0  0  0  0  0
   10.6083  -13.7653   26.1214 C   0  0  0  0  0  0  0  0  0  0  0  0
   10.6820  -13.5284   27.6369 C   0  0  0  0  0  0  0  0  0  0  0  0
   10.1780  -14.8282   28.2844 C   0  0  2  0  0  0  0  0  0  0  0  0
   10.2873  -15.7683   27.0672 C   0  0  0  0  0  0  0  0  0  0  0  0
    9.8676  -17.1114   27.2973 O   0  0  0  0  0  0  0  0  0  0  0  0
   10.7694  -17.8855   28.1148 O   0  0  0  0  0  0  0  0  0  0  0  0
  1  2  1  0
  2  3  2  0
  4  2  1  0
  5  4  1  0
  6  5  1  0
  7  6  1  0
  8  7  1  0
  8  9  1  6
 10  8  1  0
 10 11  2  0
 13 12  1  0
 14 13  1  0
 14 15  1  0
 16 17  1  0
 16 15  1  6
 17 10  1  0
 18 16  1  0
 19 18  2  0
 20 18  1  0
 20 21  1  0
 22 21  1  0
 23 22  1  0
 24 23  1  0
 24 20  1  0
 24 25  1  1
 25 26  1  0
 27 25  2  0
M  END
$$$$
