EIW.pdb
     RDKit          3D

 32 33  0  0  1  0  0  0  0  0999 V2000
   28.4632  -21.6480  -17.3699 N   0  0  0  0  0  0  0  0  0  0  0  0
   28.5316  -21.9897  -15.9581 C   0  0  1  0  0  0  0  0  0  0  0  0
   29.9969  -21.9835  -15.6018 C   0  0  0  0  0  0  0  0  0  0  0  0
   30.5657  -23.3340  -15.3272 C   0  0  0  0  0  0  0  0  0  0  0  0
   31.0022  -23.9539  -16.6042 C   0  0  0  0  0  0  0  0  0  0  0  0
   30.9009  -23.2915  -17.6599 O   0  0  0  0  0  0  0  0  0  0  0  0
   27.6998  -21.1045  -15.1324 C   0  0  0  0  0  0  0  0  0  0  0  0
   27.9598  -19.8780  -15.0772 O   0  0  0  0  0  0  0  0  0  0  0  0
   31.5195  -25.2650  -16.6139 O   0  0  0  0  0  0  0  0  0  0  0  0
   23.2460  -19.4153  -15.9375 C   0  0  0  0  0  0  0  0  0  0  0  0
   24.6267  -19.7822  -15.4440 C   0  0  0  0  0  0  0  0  0  0  0  0
   24.5093  -20.3452  -14.0472 C   0  0  2  0  0  0  0  0  0  0  0  0
   23.7380  -19.4521  -13.1156 C   0  0  0  0  0  0  0  0  0  0  0  0
   25.8489  -20.7413  -13.4835 C   0  0  2  0  0  0  0  0  0  0  0  0
   26.5767  -21.6106  -14.3717 N   0  0  0  0  0  0  0  0  0  0  0  0
   25.7341  -21.3093  -12.1146 C   0  0  0  0  0  0  0  0  0  0  0  0
   26.4416  -22.2982  -11.8147 O   0  0  0  0  0  0  0  0  0  0  0  0
   24.8626  -20.7840  -11.1344 N   0  0  0  0  0  0  0  0  0  0  0  0
   25.0609  -20.8843   -9.6966 C   0  0  1  0  0  0  0  0  0  0  0  0
   26.4552  -20.6189   -9.3051 C   0  0  0  0  0  0  0  0  0  0  0  0
   26.7062  -20.7758   -7.8655 C   0  0  0  0  0  0  0  0  0  0  0  0
   25.9700  -21.5205   -6.9387 C   0  0  0  0  0  0  0  0  0  0  0  0
   26.4913  -21.3899   -5.7079 N   0  0  0  0  0  0  0  0  0  0  0  0
   27.5604  -20.5781   -5.7777 C   0  0  0  0  0  0  0  0  0  0  0  0
   28.4410  -20.1523   -4.7847 C   0  0  0  0  0  0  0  0  0  0  0  0
   29.5096  -19.3145   -5.0965 C   0  0  0  0  0  0  0  0  0  0  0  0
   29.6408  -18.9416   -6.4100 C   0  0  0  0  0  0  0  0  0  0  0  0
   28.7697  -19.3613   -7.3950 C   0  0  0  0  0  0  0  0  0  0  0  0
   27.7119  -20.1900   -7.0869 C   0  0  0  0  0  0  0  0  0  0  0  0
   24.0603  -20.2374   -8.8807 C   0  0  0  0  0  0  0  0  0  0  0  0
   23.6261  -19.0681   -9.1542 O   0  0  0  0  0  0  0  0  0  0  0  0
   23.4786  -20.8099   -7.7502 O   0  0  0  0  0  0  0  0  0  0  0  0
  2  1  1  6
  3  2  1  0
  4  5  1  0
  4  3  1  0
  5  6  2  0
  7  8  2  0
  7  2  1  0
  9  5  1  0
 10 11  1  0
 12 11  1  0
 12 14  1  0
 12 13  1  1
 14 15  1  6
 15  7  1  0
 16 14  1  0
 16 18  1  0
 17 16  2  0
 19 18  1  0
 19 30  1  0
 20 21  1  0
 19 20  1  6
 21 29  1  0
 22 21  2  0
 22 23  1  0
 23 24  1  0
 24 25  1  0
 25 26  2  0
 27 26  1  0
 28 27  2  0
 29 24  2  0
 29 28  1  0
 30 32  1  0
 31 30  2  0
M  END
$$$$
