EIW.pdb
     RDKit          3D

 32 33  0  0  1  0  0  0  0  0999 V2000
   28.4593  -20.2337  -15.6480 N   0  0  0  0  0  0  0  0  0  0  0  0
   27.4024  -19.4549  -15.0226 C   0  0  1  0  0  0  0  0  0  0  0  0
   26.7021  -18.7319  -16.1455 C   0  0  0  0  0  0  0  0  0  0  0  0
   27.5443  -17.7150  -16.8380 C   0  0  0  0  0  0  0  0  0  0  0  0
   28.3858  -18.3863  -17.8612 C   0  0  0  0  0  0  0  0  0  0  0  0
   29.5584  -17.9872  -18.0316 O   0  0  0  0  0  0  0  0  0  0  0  0
   26.5222  -20.2837  -14.1887 C   0  0  0  0  0  0  0  0  0  0  0  0
   26.4243  -21.5138  -14.4173 O   0  0  0  0  0  0  0  0  0  0  0  0
   27.8617  -19.4522  -18.6199 O   0  0  0  0  0  0  0  0  0  0  0  0
   27.2405  -20.9051   -9.3020 C   0  0  0  0  0  0  0  0  0  0  0  0
   26.8026  -21.0575  -10.7406 C   0  0  0  0  0  0  0  0  0  0  0  0
   25.3626  -20.6167  -10.8591 C   0  0  2  0  0  0  0  0  0  0  0  0
   24.4290  -21.4177   -9.9947 C   0  0  0  0  0  0  0  0  0  0  0  0
   24.9066  -20.5569  -12.2935 C   0  0  2  0  0  0  0  0  0  0  0  0
   25.7553  -19.7173  -13.0991 N   0  0  0  0  0  0  0  0  0  0  0  0
   23.4735  -20.1793  -12.4097 C   0  0  0  0  0  0  0  0  0  0  0  0
   23.1399  -19.0028  -12.1398 O   0  0  0  0  0  0  0  0  0  0  0  0
   22.4688  -21.0877  -12.8114 N   0  0  0  0  0  0  0  0  0  0  0  0
   21.0703  -20.7491  -13.0265 C   0  0  1  0  0  0  0  0  0  0  0  0
   20.9086  -19.5491  -13.8642 C   0  0  0  0  0  0  0  0  0  0  0  0
   21.4100  -19.7127  -15.2360 C   0  0  0  0  0  0  0  0  0  0  0  0
   21.2516  -20.8119  -16.0859 C   0  0  0  0  0  0  0  0  0  0  0  0
   21.8841  -20.6016  -17.2518 N   0  0  0  0  0  0  0  0  0  0  0  0
   22.4648  -19.3899  -17.2136 C   0  0  0  0  0  0  0  0  0  0  0  0
   23.2133  -18.7132  -18.1752 C   0  0  0  0  0  0  0  0  0  0  0  0
   23.7053  -17.4349  -17.9203 C   0  0  0  0  0  0  0  0  0  0  0  0
   23.4158  -16.8936  -16.6936 C   0  0  0  0  0  0  0  0  0  0  0  0
   22.6754  -17.5619  -15.7394 C   0  0  0  0  0  0  0  0  0  0  0  0
   22.1887  -18.8270  -15.9911 C   0  0  0  0  0  0  0  0  0  0  0  0
   20.2039  -21.8542  -13.3631 C   0  0  0  0  0  0  0  0  0  0  0  0
   20.6711  -22.9994  -13.6809 O   0  0  0  0  0  0  0  0  0  0  0  0
   18.8112  -21.7872  -13.3675 O   0  0  0  0  0  0  0  0  0  0  0  0
  2  1  1  6
  3  2  1  0
  4  5  1  0
  4  3  1  0
  5  6  2  0
  7  8  2  0
  7  2  1  0
  9  5  1  0
 10 11  1  0
 12 11  1  0
 12 14  1  0
 12 13  1  1
 14 15  1  6
 15  7  1  0
 16 14  1  0
 16 18  1  0
 17 16  2  0
 19 18  1  0
 19 30  1  0
 20 21  1  0
 19 20  1  6
 21 29  1  0
 22 21  2  0
 22 23  1  0
 23 24  1  0
 24 25  1  0
 25 26  2  0
 27 26  1  0
 28 27  2  0
 29 24  2  0
 29 28  1  0
 30 32  1  0
 31 30  2  0
M  END
$$$$
