EIW.pdb
     RDKit          3D

 32 33  0  0  1  0  0  0  0  0999 V2000
   27.9977  -21.8950  -15.9504 N   0  0  0  0  0  0  0  0  0  0  0  0
   27.3667  -20.7607  -15.2947 C   0  0  1  0  0  0  0  0  0  0  0  0
   26.6481  -20.0022  -16.3821 C   0  0  0  0  0  0  0  0  0  0  0  0
   27.5405  -19.4790  -17.4558 C   0  0  0  0  0  0  0  0  0  0  0  0
   26.7456  -18.6486  -18.3961 C   0  0  0  0  0  0  0  0  0  0  0  0
   26.6244  -17.4260  -18.1639 O   0  0  0  0  0  0  0  0  0  0  0  0
   26.5131  -21.1731  -14.1730 C   0  0  0  0  0  0  0  0  0  0  0  0
   25.7578  -22.1676  -14.2975 O   0  0  0  0  0  0  0  0  0  0  0  0
   26.1438  -19.2386  -19.5259 O   0  0  0  0  0  0  0  0  0  0  0  0
   28.4325  -20.6554   -9.2129 C   0  0  0  0  0  0  0  0  0  0  0  0
   27.7772  -21.1310  -10.4892 C   0  0  0  0  0  0  0  0  0  0  0  0
   26.3323  -20.6905  -10.4864 C   0  0  2  0  0  0  0  0  0  0  0  0
   25.5353  -21.2938   -9.3634 C   0  0  0  0  0  0  0  0  0  0  0  0
   25.6774  -20.8935  -11.8277 C   0  0  2  0  0  0  0  0  0  0  0  0
   26.5171  -20.4582  -12.9139 N   0  0  0  0  0  0  0  0  0  0  0  0
   24.3236  -20.2824  -11.8876 C   0  0  0  0  0  0  0  0  0  0  0  0
   24.2172  -19.0447  -11.7293 O   0  0  0  0  0  0  0  0  0  0  0  0
   23.1496  -21.0346  -12.1156 N   0  0  0  0  0  0  0  0  0  0  0  0
   21.8277  -20.4740  -12.3505 C   0  0  1  0  0  0  0  0  0  0  0  0
   21.8540  -19.3704  -13.3247 C   0  0  0  0  0  0  0  0  0  0  0  0
   22.1692  -19.7978  -14.6952 C   0  0  0  0  0  0  0  0  0  0  0  0
   21.9328  -21.0435  -15.2850 C   0  0  0  0  0  0  0  0  0  0  0  0
   22.3936  -21.0630  -16.5464 N   0  0  0  0  0  0  0  0  0  0  0  0
   22.9339  -19.8643  -16.8255 C   0  0  0  0  0  0  0  0  0  0  0  0
   23.5219  -19.3858  -17.9952 C   0  0  0  0  0  0  0  0  0  0  0  0
   24.0018  -18.0797  -18.0643 C   0  0  0  0  0  0  0  0  0  0  0  0
   23.8642  -17.3093  -16.9377 C   0  0  0  0  0  0  0  0  0  0  0  0
   23.2829  -17.7811  -15.7781 C   0  0  0  0  0  0  0  0  0  0  0  0
   22.8083  -19.0736  -15.7090 C   0  0  0  0  0  0  0  0  0  0  0  0
   20.7657  -21.4342  -12.5388 C   0  0  0  0  0  0  0  0  0  0  0  0
   21.0081  -22.6752  -12.7167 O   0  0  0  0  0  0  0  0  0  0  0  0
   19.4085  -21.1144  -12.5378 O   0  0  0  0  0  0  0  0  0  0  0  0
  2  1  1  6
  3  2  1  0
  4  5  1  0
  4  3  1  0
  5  6  2  0
  7  8  2  0
  7  2  1  0
  9  5  1  0
 10 11  1  0
 12 11  1  0
 12 14  1  0
 12 13  1  1
 14 15  1  6
 15  7  1  0
 16 14  1  0
 16 18  1  0
 17 16  2  0
 19 18  1  0
 19 30  1  0
 20 21  1  0
 19 20  1  6
 21 29  1  0
 22 21  2  0
 22 23  1  0
 23 24  1  0
 24 25  1  0
 25 26  2  0
 27 26  1  0
 28 27  2  0
 29 24  2  0
 29 28  1  0
 30 32  1  0
 31 30  2  0
M  END
$$$$
