EIW.pdb
     RDKit          3D

 32 33  0  0  1  0  0  0  0  0999 V2000
   27.9514  -22.4316  -16.4182 N   0  0  0  0  0  0  0  0  0  0  0  0
   27.4431  -21.2854  -15.6817 C   0  0  1  0  0  0  0  0  0  0  0  0
   26.5390  -20.5480  -16.6371 C   0  0  0  0  0  0  0  0  0  0  0  0
   27.2398  -19.9670  -17.8179 C   0  0  0  0  0  0  0  0  0  0  0  0
   28.1095  -18.8482  -17.3734 C   0  0  0  0  0  0  0  0  0  0  0  0
   27.5995  -17.9140  -16.7174 O   0  0  0  0  0  0  0  0  0  0  0  0
   26.8051  -21.6768  -14.4180 C   0  0  0  0  0  0  0  0  0  0  0  0
   26.0263  -22.6605  -14.3918 O   0  0  0  0  0  0  0  0  0  0  0  0
   29.4827  -18.8502  -17.6911 O   0  0  0  0  0  0  0  0  0  0  0  0
   29.2727  -20.9156   -9.6275 C   0  0  0  0  0  0  0  0  0  0  0  0
   28.5076  -21.4567  -10.8134 C   0  0  0  0  0  0  0  0  0  0  0  0
   27.0845  -20.9552  -10.7429 C   0  0  2  0  0  0  0  0  0  0  0  0
   26.3660  -21.3964   -9.4981 C   0  0  0  0  0  0  0  0  0  0  0  0
   26.3105  -21.2745  -11.9952 C   0  0  2  0  0  0  0  0  0  0  0  0
   27.0505  -20.9531  -13.1882 N   0  0  0  0  0  0  0  0  0  0  0  0
   24.9593  -20.6549  -11.9911 C   0  0  0  0  0  0  0  0  0  0  0  0
   24.8439  -19.4712  -11.5987 O   0  0  0  0  0  0  0  0  0  0  0  0
   23.7973  -21.3406  -12.4104 N   0  0  0  0  0  0  0  0  0  0  0  0
   22.5964  -20.7101  -12.9367 C   0  0  1  0  0  0  0  0  0  0  0  0
   22.9030  -19.6557  -13.9176 C   0  0  0  0  0  0  0  0  0  0  0  0
   21.7116  -18.9932  -14.4667 C   0  0  0  0  0  0  0  0  0  0  0  0
   20.6083  -18.4892  -13.7707 C   0  0  0  0  0  0  0  0  0  0  0  0
   19.7019  -17.9858  -14.6244 N   0  0  0  0  0  0  0  0  0  0  0  0
   20.1629  -18.1348  -15.8782 C   0  0  0  0  0  0  0  0  0  0  0  0
   19.6045  -17.7606  -17.0993 C   0  0  0  0  0  0  0  0  0  0  0  0
   20.2833  -17.9998  -18.2922 C   0  0  0  0  0  0  0  0  0  0  0  0
   21.5070  -18.6121  -18.1960 C   0  0  0  0  0  0  0  0  0  0  0  0
   22.0618  -18.9843  -16.9881 C   0  0  0  0  0  0  0  0  0  0  0  0
   21.3903  -18.7481  -15.8074 C   0  0  0  0  0  0  0  0  0  0  0  0
   21.5322  -21.6100  -13.3149 C   0  0  0  0  0  0  0  0  0  0  0  0
   21.7593  -22.6711  -13.9880 O   0  0  0  0  0  0  0  0  0  0  0  0
   20.1903  -21.4213  -12.9866 O   0  0  0  0  0  0  0  0  0  0  0  0
  2  1  1  6
  3  2  1  0
  4  5  1  0
  4  3  1  0
  5  6  2  0
  7  8  2  0
  7  2  1  0
  9  5  1  0
 10 11  1  0
 12 11  1  0
 12 14  1  0
 12 13  1  1
 14 15  1  6
 15  7  1  0
 16 14  1  0
 16 18  1  0
 17 16  2  0
 19 18  1  0
 19 30  1  0
 20 21  1  0
 19 20  1  6
 21 29  1  0
 22 21  2  0
 22 23  1  0
 23 24  1  0
 24 25  1  0
 25 26  2  0
 27 26  1  0
 28 27  2  0
 29 24  2  0
 29 28  1  0
 30 32  1  0
 31 30  2  0
M  END
$$$$
