EIW.pdb
     RDKit          3D

 32 33  0  0  1  0  0  0  0  0999 V2000
   28.3252  -19.4299  -18.6665 N   0  0  0  0  0  0  0  0  0  0  0  0
   28.5605  -19.8307  -17.2886 C   0  0  1  0  0  0  0  0  0  0  0  0
   29.2221  -18.6507  -16.6222 C   0  0  0  0  0  0  0  0  0  0  0  0
   28.6453  -17.3298  -17.0033 C   0  0  0  0  0  0  0  0  0  0  0  0
   29.4585  -16.7330  -18.0933 C   0  0  0  0  0  0  0  0  0  0  0  0
   30.5475  -17.2688  -18.3937 O   0  0  0  0  0  0  0  0  0  0  0  0
   27.3329  -20.2940  -16.6286 C   0  0  0  0  0  0  0  0  0  0  0  0
   26.3561  -19.5148  -16.5119 O   0  0  0  0  0  0  0  0  0  0  0  0
   29.0011  -15.5840  -18.7694 O   0  0  0  0  0  0  0  0  0  0  0  0
   25.0367  -24.7821  -17.9418 C   0  0  0  0  0  0  0  0  0  0  0  0
   25.2650  -23.3670  -17.4622 C   0  0  0  0  0  0  0  0  0  0  0  0
   25.5183  -23.3940  -15.9733 C   0  0  2  0  0  0  0  0  0  0  0  0
   24.3512  -23.9239  -15.1873 C   0  0  0  0  0  0  0  0  0  0  0  0
   25.9994  -22.0628  -15.4581 C   0  0  2  0  0  0  0  0  0  0  0  0
   27.2153  -21.6378  -16.1026 N   0  0  0  0  0  0  0  0  0  0  0  0
   26.1162  -22.0453  -13.9763 C   0  0  0  0  0  0  0  0  0  0  0  0
   27.1689  -22.4769  -13.4529 O   0  0  0  0  0  0  0  0  0  0  0  0
   25.0930  -21.5632  -13.1297 N   0  0  0  0  0  0  0  0  0  0  0  0
   25.2245  -21.3434  -11.6975 C   0  0  1  0  0  0  0  0  0  0  0  0
   26.4680  -20.6341  -11.3532 C   0  0  0  0  0  0  0  0  0  0  0  0
   26.5815  -20.2962   -9.9273 C   0  0  0  0  0  0  0  0  0  0  0  0
   25.6186  -19.7064   -9.1024 C   0  0  0  0  0  0  0  0  0  0  0  0
   26.1065  -19.5229   -7.8646 N   0  0  0  0  0  0  0  0  0  0  0  0
   27.3724  -19.9735   -7.8302 C   0  0  0  0  0  0  0  0  0  0  0  0
   28.2891  -20.0209   -6.7812 C   0  0  0  0  0  0  0  0  0  0  0  0
   29.5591  -20.5604   -6.9734 C   0  0  0  0  0  0  0  0  0  0  0  0
   29.8477  -21.0320   -8.2287 C   0  0  0  0  0  0  0  0  0  0  0  0
   28.9420  -20.9856   -9.2693 C   0  0  0  0  0  0  0  0  0  0  0  0
   27.6853  -20.4514   -9.0797 C   0  0  0  0  0  0  0  0  0  0  0  0
   24.0387  -20.8647  -11.0268 C   0  0  0  0  0  0  0  0  0  0  0  0
   23.2618  -20.0084  -11.5686 O   0  0  0  0  0  0  0  0  0  0  0  0
   23.6297  -21.2824   -9.7609 O   0  0  0  0  0  0  0  0  0  0  0  0
  2  1  1  6
  3  2  1  0
  4  5  1  0
  4  3  1  0
  5  6  2  0
  7  8  2  0
  7  2  1  0
  9  5  1  0
 10 11  1  0
 12 11  1  0
 12 14  1  0
 12 13  1  1
 14 15  1  6
 15  7  1  0
 16 14  1  0
 16 18  1  0
 17 16  2  0
 19 18  1  0
 19 30  1  0
 20 21  1  0
 19 20  1  6
 21 29  1  0
 22 21  2  0
 22 23  1  0
 23 24  1  0
 24 25  1  0
 25 26  2  0
 27 26  1  0
 28 27  2  0
 29 24  2  0
 29 28  1  0
 30 32  1  0
 31 30  2  0
M  END
$$$$
