EIW.pdb
     RDKit          3D

 32 33  0  0  1  0  0  0  0  0999 V2000
   28.2088  -21.4573  -19.2824 N   0  0  0  0  0  0  0  0  0  0  0  0
   28.6053  -22.0181  -18.0006 C   0  0  1  0  0  0  0  0  0  0  0  0
   30.1018  -22.1910  -18.0703 C   0  0  0  0  0  0  0  0  0  0  0  0
   30.6175  -22.5175  -19.4305 C   0  0  0  0  0  0  0  0  0  0  0  0
   31.3981  -23.7796  -19.3717 C   0  0  0  0  0  0  0  0  0  0  0  0
   32.2697  -23.9070  -18.4843 O   0  0  0  0  0  0  0  0  0  0  0  0
   28.1377  -21.2043  -16.8709 C   0  0  0  0  0  0  0  0  0  0  0  0
   28.9485  -20.4735  -16.2517 O   0  0  0  0  0  0  0  0  0  0  0  0
   31.1521  -24.8077  -20.3039 O   0  0  0  0  0  0  0  0  0  0  0  0
   25.2161  -18.4207  -18.2441 C   0  0  0  0  0  0  0  0  0  0  0  0
   26.0206  -18.3818  -16.9650 C   0  0  0  0  0  0  0  0  0  0  0  0
   25.3560  -19.2773  -15.9461 C   0  0  2  0  0  0  0  0  0  0  0  0
   24.6719  -18.5122  -14.8475 C   0  0  0  0  0  0  0  0  0  0  0  0
   26.2992  -20.3245  -15.4141 C   0  0  2  0  0  0  0  0  0  0  0  0
   26.7538  -21.2209  -16.4455 N   0  0  0  0  0  0  0  0  0  0  0  0
   25.7276  -21.0534  -14.2515 C   0  0  0  0  0  0  0  0  0  0  0  0
   24.6900  -21.7337  -14.4217 O   0  0  0  0  0  0  0  0  0  0  0  0
   26.3019  -21.0145  -12.9612 N   0  0  0  0  0  0  0  0  0  0  0  0
   25.7775  -21.6995  -11.7896 C   0  0  1  0  0  0  0  0  0  0  0  0
   26.7976  -21.8763  -10.7427 C   0  0  0  0  0  0  0  0  0  0  0  0
   26.7083  -20.8902   -9.6565 C   0  0  0  0  0  0  0  0  0  0  0  0
   25.6158  -20.0904   -9.3066 C   0  0  0  0  0  0  0  0  0  0  0  0
   25.9301  -19.2868   -8.2774 N   0  0  0  0  0  0  0  0  0  0  0  0
   27.2047  -19.5223   -7.9216 C   0  0  0  0  0  0  0  0  0  0  0  0
   27.9808  -18.9621   -6.9083 C   0  0  0  0  0  0  0  0  0  0  0  0
   29.2935  -19.3825   -6.7061 C   0  0  0  0  0  0  0  0  0  0  0  0
   29.7668  -20.3592   -7.5450 C   0  0  0  0  0  0  0  0  0  0  0  0
   29.0005  -20.9150   -8.5495 C   0  0  0  0  0  0  0  0  0  0  0  0
   27.7016  -20.4990   -8.7502 C   0  0  0  0  0  0  0  0  0  0  0  0
   24.4902  -21.2420  -11.3217 C   0  0  0  0  0  0  0  0  0  0  0  0
   24.1429  -20.0163  -11.4076 O   0  0  0  0  0  0  0  0  0  0  0  0
   23.5221  -22.0688  -10.7531 O   0  0  0  0  0  0  0  0  0  0  0  0
  2  1  1  6
  3  2  1  0
  4  5  1  0
  4  3  1  0
  5  6  2  0
  7  8  2  0
  7  2  1  0
  9  5  1  0
 10 11  1  0
 12 11  1  0
 12 14  1  0
 12 13  1  1
 14 15  1  6
 15  7  1  0
 16 14  1  0
 16 18  1  0
 17 16  2  0
 19 18  1  0
 19 30  1  0
 20 21  1  0
 19 20  1  1
 21 29  1  0
 22 21  2  0
 22 23  1  0
 23 24  1  0
 24 25  1  0
 25 26  2  0
 27 26  1  0
 28 27  2  0
 29 24  2  0
 29 28  1  0
 30 32  1  0
 31 30  2  0
M  END
$$$$
