EIW.pdb
     RDKit          3D

 32 33  0  0  1  0  0  0  0  0999 V2000
   16.3300  -11.5420  -21.8897 N   0  0  0  0  0  0  0  0  0  0  0  0
   17.3088  -11.2858  -20.8451 C   0  0  1  0  0  0  0  0  0  0  0  0
   18.3082  -10.3268  -21.4414 C   0  0  0  0  0  0  0  0  0  0  0  0
   19.2089  -10.9369  -22.4609 C   0  0  0  0  0  0  0  0  0  0  0  0
   20.2149  -11.7921  -21.7811 C   0  0  0  0  0  0  0  0  0  0  0  0
   20.8434  -11.3231  -20.8072 O   0  0  0  0  0  0  0  0  0  0  0  0
   16.6829  -10.8186  -19.6013 C   0  0  0  0  0  0  0  0  0  0  0  0
   16.0123   -9.7578  -19.6015 O   0  0  0  0  0  0  0  0  0  0  0  0
   20.4483  -13.1063  -22.2340 O   0  0  0  0  0  0  0  0  0  0  0  0
   14.4189  -14.0116  -17.6527 C   0  0  0  0  0  0  0  0  0  0  0  0
   14.2253  -12.5516  -17.3128 C   0  0  0  0  0  0  0  0  0  0  0  0
   15.3830  -12.0948  -16.4567 C   0  0  2  0  0  0  0  0  0  0  0  0
   14.9625  -11.6664  -15.0783 C   0  0  0  0  0  0  0  0  0  0  0  0
   16.2214  -11.0529  -17.1500 C   0  0  2  0  0  0  0  0  0  0  0  0
   16.8185  -11.5536  -18.3613 N   0  0  0  0  0  0  0  0  0  0  0  0
   17.2280  -10.4477  -16.2389 C   0  0  0  0  0  0  0  0  0  0  0  0
   18.2576  -11.1047  -15.9621 O   0  0  0  0  0  0  0  0  0  0  0  0
   17.0769   -9.1633  -15.6700 N   0  0  0  0  0  0  0  0  0  0  0  0
   18.0716   -8.4871  -14.8514 C   0  0  1  0  0  0  0  0  0  0  0  0
   19.4225   -8.5708  -15.4311 C   0  0  0  0  0  0  0  0  0  0  0  0
   20.4657   -7.9656  -14.5912 C   0  0  0  0  0  0  0  0  0  0  0  0
   21.1936   -8.5629  -13.5573 C   0  0  0  0  0  0  0  0  0  0  0  0
   22.0352   -7.6769  -13.0001 N   0  0  0  0  0  0  0  0  0  0  0  0
   21.8968   -6.4975  -13.6298 C   0  0  0  0  0  0  0  0  0  0  0  0
   22.5536   -5.2836  -13.4346 C   0  0  0  0  0  0  0  0  0  0  0  0
   22.2582   -4.1813  -14.2337 C   0  0  0  0  0  0  0  0  0  0  0  0
   21.3035   -4.3574  -15.2028 C   0  0  0  0  0  0  0  0  0  0  0  0
   20.6512   -5.5582  -15.3976 C   0  0  0  0  0  0  0  0  0  0  0  0
   20.9429   -6.6492  -14.6068 C   0  0  0  0  0  0  0  0  0  0  0  0
   17.6944   -7.1830  -14.3590 C   0  0  0  0  0  0  0  0  0  0  0  0
   17.1208   -6.3235  -15.1092 O   0  0  0  0  0  0  0  0  0  0  0  0
   17.9048   -6.7462  -13.0516 O   0  0  0  0  0  0  0  0  0  0  0  0
  2  1  1  6
  3  2  1  0
  4  5  1  0
  4  3  1  0
  5  6  2  0
  7  8  2  0
  7  2  1  0
  9  5  1  0
 10 11  1  0
 12 11  1  0
 12 14  1  0
 12 13  1  1
 14 15  1  6
 15  7  1  0
 16 14  1  0
 16 18  1  0
 17 16  2  0
 19 18  1  0
 19 30  1  0
 20 21  1  0
 19 20  1  6
 21 29  1  0
 22 21  2  0
 22 23  1  0
 23 24  1  0
 24 25  1  0
 25 26  2  0
 27 26  1  0
 28 27  2  0
 29 24  2  0
 29 28  1  0
 30 32  1  0
 31 30  2  0
M  END
$$$$
