EIW.pdb
     RDKit          3D

 32 33  0  0  1  0  0  0  0  0999 V2000
   27.6971  -22.5298  -17.1130 N   0  0  0  0  0  0  0  0  0  0  0  0
   27.0808  -21.3708  -16.4873 C   0  0  1  0  0  0  0  0  0  0  0  0
   26.1818  -20.7645  -17.5353 C   0  0  0  0  0  0  0  0  0  0  0  0
   26.9038  -20.2230  -18.7220 C   0  0  0  0  0  0  0  0  0  0  0  0
   26.7339  -18.7485  -18.7716 C   0  0  0  0  0  0  0  0  0  0  0  0
   26.6117  -18.1943  -19.8857 O   0  0  0  0  0  0  0  0  0  0  0  0
   26.4052  -21.7137  -15.2291 C   0  0  0  0  0  0  0  0  0  0  0  0
   25.7101  -22.7563  -15.1591 O   0  0  0  0  0  0  0  0  0  0  0  0
   26.7123  -17.9982  -17.5786 O   0  0  0  0  0  0  0  0  0  0  0  0
   28.6308  -20.8814  -10.4081 C   0  0  0  0  0  0  0  0  0  0  0  0
   27.8931  -21.3965  -11.6226 C   0  0  0  0  0  0  0  0  0  0  0  0
   26.4884  -20.8412  -11.6091 C   0  0  2  0  0  0  0  0  0  0  0  0
   25.7164  -21.2231  -10.3768 C   0  0  0  0  0  0  0  0  0  0  0  0
   25.7413  -21.1642  -12.8766 C   0  0  2  0  0  0  0  0  0  0  0  0
   26.5183  -20.8750  -14.0543 N   0  0  0  0  0  0  0  0  0  0  0  0
   24.4028  -20.5187  -12.9171 C   0  0  0  0  0  0  0  0  0  0  0  0
   24.3415  -19.2721  -13.0200 O   0  0  0  0  0  0  0  0  0  0  0  0
   23.1947  -21.2477  -12.8451 N   0  0  0  0  0  0  0  0  0  0  0  0
   21.8951  -20.7611  -13.2821 C   0  0  1  0  0  0  0  0  0  0  0  0
   21.9615  -20.0884  -14.5901 C   0  0  0  0  0  0  0  0  0  0  0  0
   20.6815  -19.5117  -15.0250 C   0  0  0  0  0  0  0  0  0  0  0  0
   20.0797  -18.3257  -14.5928 C   0  0  0  0  0  0  0  0  0  0  0  0
   18.8931  -18.1514  -15.1973 N   0  0  0  0  0  0  0  0  0  0  0  0
   18.6771  -19.1865  -16.0271 C   0  0  0  0  0  0  0  0  0  0  0  0
   17.6094  -19.4548  -16.8820 C   0  0  0  0  0  0  0  0  0  0  0  0
   17.6092  -20.5975  -17.6790 C   0  0  0  0  0  0  0  0  0  0  0  0
   18.6983  -21.4249  -17.5748 C   0  0  0  0  0  0  0  0  0  0  0  0
   19.7565  -21.1618  -16.7284 C   0  0  0  0  0  0  0  0  0  0  0  0
   19.7569  -20.0314  -15.9393 C   0  0  0  0  0  0  0  0  0  0  0  0
   20.7956  -21.6833  -13.1210 C   0  0  0  0  0  0  0  0  0  0  0  0
   20.9122  -22.9219  -13.4085 O   0  0  0  0  0  0  0  0  0  0  0  0
   19.5355  -21.3270  -12.6422 O   0  0  0  0  0  0  0  0  0  0  0  0
  2  1  1  6
  3  2  1  0
  4  5  1  0
  4  3  1  0
  5  6  2  0
  7  8  2  0
  7  2  1  0
  9  5  1  0
 10 11  1  0
 12 11  1  0
 12 14  1  0
 12 13  1  1
 14 15  1  6
 15  7  1  0
 16 14  1  0
 16 18  1  0
 17 16  2  0
 19 18  1  0
 19 30  1  0
 20 21  1  0
 19 20  1  6
 21 29  1  0
 22 21  2  0
 22 23  1  0
 23 24  1  0
 24 25  1  0
 25 26  2  0
 27 26  1  0
 28 27  2  0
 29 24  2  0
 29 28  1  0
 30 32  1  0
 31 30  2  0
M  END
$$$$
