WES.pdb
     RDKit          3D

 30 31  0  0  1  0  0  0  0  0999 V2000
   16.1583  -19.7620    1.6736 N   0  0  0  0  0  0  0  0  0  0  0  0
   17.2568  -19.2391    2.4660 C   0  0  1  0  0  0  0  0  0  0  0  0
   16.7379  -18.1474    3.3461 C   0  0  0  0  0  0  0  0  0  0  0  0
   17.4037  -16.8463    3.0949 C   0  0  0  0  0  0  0  0  0  0  0  0
   16.9436  -15.6080    3.4897 C   0  0  0  0  0  0  0  0  0  0  0  0
   17.8292  -14.6767    3.0729 N   0  0  0  0  0  0  0  0  0  0  0  0
   18.8472  -15.2415    2.4245 C   0  0  0  0  0  0  0  0  0  0  0  0
   19.9901  -14.7756    1.8102 C   0  0  0  0  0  0  0  0  0  0  0  0
   20.8837  -15.6376    1.2029 C   0  0  0  0  0  0  0  0  0  0  0  0
   20.6286  -16.9957    1.2101 C   0  0  0  0  0  0  0  0  0  0  0  0
   19.4776  -17.4462    1.8307 C   0  0  0  0  0  0  0  0  0  0  0  0
   18.5834  -16.6070    2.4360 C   0  0  0  0  0  0  0  0  0  0  0  0
   17.7591  -20.3338    3.3758 C   0  0  0  0  0  0  0  0  0  0  0  0
   17.4639  -21.5260    3.1389 O   0  0  0  0  0  0  0  0  0  0  0  0
   18.5621  -20.0592    4.5017 N   0  0  0  0  0  0  0  0  0  0  0  0
   19.1411  -20.9308    5.4369 C   0  0  1  0  0  0  0  0  0  0  0  0
   20.0985  -20.3661    6.4508 C   0  0  0  0  0  0  0  0  0  0  0  0
   20.7551  -21.4098    7.3014 C   0  0  0  0  0  0  0  0  0  0  0  0
   21.7179  -20.7920    8.2747 C   0  0  0  0  0  0  0  0  0  0  0  0
   22.3964  -19.7985    7.9567 O   0  0  0  0  0  0  0  0  0  0  0  0
   18.2731  -21.9299    6.0711 C   0  0  0  0  0  0  0  0  0  0  0  0
   17.2866  -21.5264    6.7396 O   0  0  0  0  0  0  0  0  0  0  0  0
   21.8570  -21.3266    9.5372 O   0  0  0  0  0  0  0  0  0  0  0  0
   17.2996  -24.9179    4.2802 O   0  0  0  0  0  0  0  0  0  0  0  0
   17.3195  -25.4451    5.5700 C   0  0  0  0  0  0  0  0  0  0  0  0
   17.6185  -24.3225    6.5358 C   0  0  2  0  0  0  0  0  0  0  0  0
   18.4726  -23.3190    5.9804 N   0  0  0  0  0  0  0  0  0  0  0  0
   18.1767  -24.8688    7.8018 C   0  0  0  0  0  0  0  0  0  0  0  0
   19.2513  -24.3844    8.2328 O   0  0  0  0  0  0  0  0  0  0  0  0
   17.5281  -25.8813    8.4823 O   0  0  0  0  0  0  0  0  0  0  0  0
  2  1  1  6
  2 13  1  0
  3  4  1  0
  3  2  1  0
  4  5  2  0
  5  6  1  0
  7  6  1  0
  8  7  2  0
  9  8  1  0
 10 11  1  0
 10  9  2  0
 11 12  2  0
 12  4  1  0
 12  7  1  0
 13 14  2  0
 13 15  1  0
 15 16  1  0
 16 17  1  1
 16 21  1  0
 18 17  1  0
 19 18  1  0
 20 19  2  0
 21 22  2  0
 23 19  1  0
 26 25  1  6
 25 24  1  0
 26 28  1  0
 27 21  1  0
 27 26  1  0
 28 30  1  0
 29 28  2  0
M  END
$$$$
