WES.pdb
     RDKit          3D

 30 31  0  0  1  0  0  0  0  0999 V2000
   15.3388  -16.4005    4.2944 N   0  0  0  0  0  0  0  0  0  0  0  0
   16.1588  -17.4517    3.7195 C   0  0  1  0  0  0  0  0  0  0  0  0
   17.5803  -17.2300    4.1270 C   0  0  0  0  0  0  0  0  0  0  0  0
   18.1818  -16.0405    3.4773 C   0  0  0  0  0  0  0  0  0  0  0  0
   17.7695  -14.7340    3.6320 C   0  0  0  0  0  0  0  0  0  0  0  0
   18.5684  -13.9476    2.8779 N   0  0  0  0  0  0  0  0  0  0  0  0
   19.4841  -14.6723    2.2360 C   0  0  0  0  0  0  0  0  0  0  0  0
   20.5139  -14.3905    1.3638 C   0  0  0  0  0  0  0  0  0  0  0  0
   21.3172  -15.3914    0.8506 C   0  0  0  0  0  0  0  0  0  0  0  0
   21.0853  -16.7032    1.2179 C   0  0  0  0  0  0  0  0  0  0  0  0
   20.0482  -16.9684    2.0936 C   0  0  0  0  0  0  0  0  0  0  0  0
   19.2444  -15.9902    2.6104 C   0  0  0  0  0  0  0  0  0  0  0  0
   15.7341  -18.7732    4.3123 C   0  0  0  0  0  0  0  0  0  0  0  0
   15.4052  -18.8394    5.5172 O   0  0  0  0  0  0  0  0  0  0  0  0
   15.6932  -19.9565    3.5465 N   0  0  0  0  0  0  0  0  0  0  0  0
   15.8370  -21.2961    3.9390 C   0  0  1  0  0  0  0  0  0  0  0  0
   16.0328  -22.3412    2.8746 C   0  0  0  0  0  0  0  0  0  0  0  0
   15.9285  -23.7450    3.3867 C   0  0  0  0  0  0  0  0  0  0  0  0
   16.1075  -24.7432    2.2787 C   0  0  0  0  0  0  0  0  0  0  0  0
   16.2784  -24.3685    1.1045 O   0  0  0  0  0  0  0  0  0  0  0  0
   16.7038  -21.5840    5.0879 C   0  0  0  0  0  0  0  0  0  0  0  0
   17.8769  -21.1296    5.0801 O   0  0  0  0  0  0  0  0  0  0  0  0
   16.0834  -26.0923    2.5584 O   0  0  0  0  0  0  0  0  0  0  0  0
   16.2300  -21.4253    9.1784 O   0  0  0  0  0  0  0  0  0  0  0  0
   16.3140  -22.7042    8.6313 C   0  0  0  0  0  0  0  0  0  0  0  0
   17.1136  -22.6203    7.3521 C   0  0  2  0  0  0  0  0  0  0  0  0
   16.3068  -22.3401    6.2052 N   0  0  0  0  0  0  0  0  0  0  0  0
   17.9118  -23.8613    7.1628 C   0  0  0  0  0  0  0  0  0  0  0  0
   17.7783  -24.4929    6.0865 O   0  0  0  0  0  0  0  0  0  0  0  0
   18.7752  -24.3042    8.1463 O   0  0  0  0  0  0  0  0  0  0  0  0
  2  1  1  1
  2 13  1  0
  3  4  1  0
  3  2  1  0
  4  5  2  0
  5  6  1  0
  7  6  1  0
  8  7  2  0
  9  8  1  0
 10 11  1  0
 10  9  2  0
 11 12  2  0
 12  4  1  0
 12  7  1  0
 13 14  2  0
 13 15  1  0
 15 16  1  0
 16 17  1  6
 16 21  1  0
 18 17  1  0
 19 18  1  0
 20 19  2  0
 21 22  2  0
 23 19  1  0
 26 25  1  1
 25 24  1  0
 26 28  1  0
 27 21  1  0
 27 26  1  0
 28 30  1  0
 29 28  2  0
M  END
$$$$
