WES.pdb
     RDKit          3D

 30 31  0  0  1  0  0  0  0  0999 V2000
   24.7511  -20.8942  -13.0544 N   0  0  0  0  0  0  0  0  0  0  0  0
   24.1262  -19.9626  -13.9761 C   0  0  1  0  0  0  0  0  0  0  0  0
   24.4168  -20.4026  -15.3754 C   0  0  0  0  0  0  0  0  0  0  0  0
   25.8576  -20.3139  -15.7143 C   0  0  0  0  0  0  0  0  0  0  0  0
   26.7810  -21.3327  -15.6127 C   0  0  0  0  0  0  0  0  0  0  0  0
   27.9800  -20.8567  -16.0141 N   0  0  0  0  0  0  0  0  0  0  0  0
   27.8900  -19.5769  -16.3740 C   0  0  0  0  0  0  0  0  0  0  0  0
   28.7766  -18.6326  -16.8462 C   0  0  0  0  0  0  0  0  0  0  0  0
   28.3688  -17.3449  -17.1393 C   0  0  0  0  0  0  0  0  0  0  0  0
   27.0450  -16.9938  -16.9560 C   0  0  0  0  0  0  0  0  0  0  0  0
   26.1689  -17.9530  -16.4816 C   0  0  0  0  0  0  0  0  0  0  0  0
   26.5559  -19.2311  -16.1869 C   0  0  0  0  0  0  0  0  0  0  0  0
   22.6295  -20.0363  -13.7956 C   0  0  0  0  0  0  0  0  0  0  0  0
   22.1159  -21.0366  -13.2477 O   0  0  0  0  0  0  0  0  0  0  0  0
   21.7733  -19.0029  -14.2283 N   0  0  0  0  0  0  0  0  0  0  0  0
   20.3919  -18.8346  -14.0479 C   0  0  1  0  0  0  0  0  0  0  0  0
   19.8487  -17.4384  -13.9098 C   0  0  0  0  0  0  0  0  0  0  0  0
   18.4029  -17.3936  -13.5205 C   0  0  0  0  0  0  0  0  0  0  0  0
   17.9170  -15.9780  -13.3938 C   0  0  0  0  0  0  0  0  0  0  0  0
   18.2120  -15.2892  -12.4003 O   0  0  0  0  0  0  0  0  0  0  0  0
   19.4893  -19.6426  -14.8764 C   0  0  0  0  0  0  0  0  0  0  0  0
   19.6395  -19.6153  -16.1252 O   0  0  0  0  0  0  0  0  0  0  0  0
   17.1345  -15.4284  -14.3861 O   0  0  0  0  0  0  0  0  0  0  0  0
   17.0580  -22.4640  -13.1160 O   0  0  0  0  0  0  0  0  0  0  0  0
   17.5047  -22.7105  -14.4129 C   0  0  0  0  0  0  0  0  0  0  0  0
   17.6779  -21.3836  -15.1142 C   0  0  2  0  0  0  0  0  0  0  0  0
   18.4598  -20.4514  -14.3629 N   0  0  0  0  0  0  0  0  0  0  0  0
   16.3508  -20.8139  -15.4709 C   0  0  0  0  0  0  0  0  0  0  0  0
   16.0376  -19.6970  -14.9917 O   0  0  0  0  0  0  0  0  0  0  0  0
   15.4889  -21.4974  -16.3069 O   0  0  0  0  0  0  0  0  0  0  0  0
  2  1  1  1
  2 13  1  0
  3  4  1  0
  3  2  1  0
  4  5  2  0
  5  6  1  0
  7  6  1  0
  8  7  2  0
  9  8  1  0
 10 11  1  0
 10  9  2  0
 11 12  2  0
 12  4  1  0
 12  7  1  0
 13 14  2  0
 13 15  1  0
 15 16  1  0
 16 17  1  6
 16 21  1  0
 18 17  1  0
 19 18  1  0
 20 19  2  0
 21 22  2  0
 23 19  1  0
 26 25  1  1
 25 24  1  0
 26 28  1  0
 27 21  1  0
 27 26  1  0
 28 30  1  0
 29 28  2  0
M  END
$$$$
