WES.pdb
     RDKit          3D

 30 31  0  0  1  0  0  0  0  0999 V2000
   16.4932  -16.6204    3.3361 N   0  0  0  0  0  0  0  0  0  0  0  0
   17.2212  -17.8590    3.5456 C   0  0  1  0  0  0  0  0  0  0  0  0
   18.6671  -17.6237    3.2460 C   0  0  0  0  0  0  0  0  0  0  0  0
   19.0424  -18.0466    1.8751 C   0  0  0  0  0  0  0  0  0  0  0  0
   18.2259  -18.6928    0.9714 C   0  0  0  0  0  0  0  0  0  0  0  0
   18.9335  -18.9043   -0.1600 N   0  0  0  0  0  0  0  0  0  0  0  0
   20.1732  -18.4295   -0.0442 C   0  0  0  0  0  0  0  0  0  0  0  0
   21.2784  -18.3794   -0.8667 C   0  0  0  0  0  0  0  0  0  0  0  0
   22.4622  -17.8019   -0.4479 C   0  0  0  0  0  0  0  0  0  0  0  0
   22.5424  -17.2625    0.8218 C   0  0  0  0  0  0  0  0  0  0  0  0
   21.4246  -17.3211    1.6340 C   0  0  0  0  0  0  0  0  0  0  0  0
   20.2461  -17.8887    1.2352 C   0  0  0  0  0  0  0  0  0  0  0  0
   17.1312  -18.2302    5.0059 C   0  0  0  0  0  0  0  0  0  0  0  0
   17.2554  -17.3469    5.8827 O   0  0  0  0  0  0  0  0  0  0  0  0
   16.9085  -19.5574    5.4266 N   0  0  0  0  0  0  0  0  0  0  0  0
   16.8339  -20.0985    6.7193 C   0  0  1  0  0  0  0  0  0  0  0  0
   16.0889  -21.3905    6.9171 C   0  0  0  0  0  0  0  0  0  0  0  0
   15.8698  -21.7417    8.3568 C   0  0  0  0  0  0  0  0  0  0  0  0
   15.1348  -23.0443    8.4934 C   0  0  0  0  0  0  0  0  0  0  0  0
   14.7911  -23.6911    7.4874 O   0  0  0  0  0  0  0  0  0  0  0  0
   18.0540  -20.0949    7.5350 C   0  0  0  0  0  0  0  0  0  0  0  0
   19.1105  -20.5566    7.0318 O   0  0  0  0  0  0  0  0  0  0  0  0
   14.8337  -23.5357    9.7452 O   0  0  0  0  0  0  0  0  0  0  0  0
   18.1671  -18.1628   11.1893 O   0  0  0  0  0  0  0  0  0  0  0  0
   19.3774  -18.3124   10.5149 C   0  0  0  0  0  0  0  0  0  0  0  0
   19.2954  -19.5594    9.6659 C   0  0  2  0  0  0  0  0  0  0  0  0
   18.1207  -19.6059    8.8519 N   0  0  0  0  0  0  0  0  0  0  0  0
   19.4104  -20.7714   10.5207 C   0  0  0  0  0  0  0  0  0  0  0  0
   18.4760  -21.6088   10.4897 O   0  0  0  0  0  0  0  0  0  0  0  0
   20.5161  -20.9673   11.3256 O   0  0  0  0  0  0  0  0  0  0  0  0
  2  1  1  1
  2 13  1  0
  3  4  1  0
  3  2  1  0
  4  5  2  0
  5  6  1  0
  7  6  1  0
  8  7  2  0
  9  8  1  0
 10 11  1  0
 10  9  2  0
 11 12  2  0
 12  4  1  0
 12  7  1  0
 13 14  2  0
 13 15  1  0
 15 16  1  0
 16 17  1  6
 16 21  1  0
 18 17  1  0
 19 18  1  0
 20 19  2  0
 21 22  2  0
 23 19  1  0
 26 25  1  1
 25 24  1  0
 26 28  1  0
 27 21  1  0
 27 26  1  0
 28 30  1  0
 29 28  2  0
M  END
$$$$
