WES.pdb
     RDKit          3D

 30 31  0  0  1  0  0  0  0  0999 V2000
   26.9443  -20.9495  -15.5485 N   0  0  0  0  0  0  0  0  0  0  0  0
   26.1635  -21.1002  -14.3338 C   0  0  1  0  0  0  0  0  0  0  0  0
   26.4809  -19.9649  -13.4140 C   0  0  0  0  0  0  0  0  0  0  0  0
   27.8989  -19.9607  -12.9801 C   0  0  0  0  0  0  0  0  0  0  0  0
   28.9300  -19.2674  -13.5776 C   0  0  0  0  0  0  0  0  0  0  0  0
   30.0641  -19.5221  -12.8890 N   0  0  0  0  0  0  0  0  0  0  0  0
   29.8292  -20.3477  -11.8698 C   0  0  0  0  0  0  0  0  0  0  0  0
   30.6004  -20.9165  -10.8786 C   0  0  0  0  0  0  0  0  0  0  0  0
   30.0497  -21.7607   -9.9329 C   0  0  0  0  0  0  0  0  0  0  0  0
   28.6977  -22.0423   -9.9795 C   0  0  0  0  0  0  0  0  0  0  0  0
   27.9386  -21.4635  -10.9802 C   0  0  0  0  0  0  0  0  0  0  0  0
   28.4676  -20.6264  -11.9233 C   0  0  0  0  0  0  0  0  0  0  0  0
   24.6998  -20.9845  -14.6838 C   0  0  0  0  0  0  0  0  0  0  0  0
   24.3014  -20.0341  -15.3928 O   0  0  0  0  0  0  0  0  0  0  0  0
   23.7480  -21.9227  -14.2344 N   0  0  0  0  0  0  0  0  0  0  0  0
   22.3665  -21.9967  -14.4696 C   0  0  1  0  0  0  0  0  0  0  0  0
   21.7673  -23.3298  -14.8260 C   0  0  0  0  0  0  0  0  0  0  0  0
   20.3279  -23.2502  -15.2334 C   0  0  0  0  0  0  0  0  0  0  0  0
   19.7854  -24.6066  -15.5826 C   0  0  0  0  0  0  0  0  0  0  0  0
   20.5108  -25.6163  -15.5300 O   0  0  0  0  0  0  0  0  0  0  0  0
   21.4758  -21.2776  -13.5511 C   0  0  0  0  0  0  0  0  0  0  0  0
   21.5906  -21.4924  -12.3168 O   0  0  0  0  0  0  0  0  0  0  0  0
   18.4690  -24.7422  -15.9669 O   0  0  0  0  0  0  0  0  0  0  0  0
   18.2945  -17.7409  -12.7128 O   0  0  0  0  0  0  0  0  0  0  0  0
   19.1658  -18.3223  -13.6320 C   0  0  0  0  0  0  0  0  0  0  0  0
   19.5776  -19.6763  -13.1030 C   0  0  2  0  0  0  0  0  0  0  0  0
   20.4951  -20.3575  -13.9625 N   0  0  0  0  0  0  0  0  0  0  0  0
   18.3751  -20.5074  -12.8267 C   0  0  0  0  0  0  0  0  0  0  0  0
   17.9197  -21.2173  -13.7561 O   0  0  0  0  0  0  0  0  0  0  0  0
   17.7782  -20.4961  -11.5808 O   0  0  0  0  0  0  0  0  0  0  0  0
  2  1  1  6
  2 13  1  0
  3  4  1  0
  3  2  1  0
  4  5  2  0
  5  6  1  0
  7  6  1  0
  8  7  2  0
  9  8  1  0
 10 11  1  0
 10  9  2  0
 11 12  2  0
 12  4  1  0
 12  7  1  0
 13 14  2  0
 13 15  1  0
 15 16  1  0
 16 17  1  1
 16 21  1  0
 18 17  1  0
 19 18  1  0
 20 19  2  0
 21 22  2  0
 23 19  1  0
 26 25  1  6
 25 24  1  0
 26 28  1  0
 27 21  1  0
 27 26  1  0
 28 30  1  0
 29 28  2  0
M  END
$$$$
