WES.pdb
     RDKit          3D

 30 31  0  0  1  0  0  0  0  0999 V2000
   25.2870  -12.7075  -16.0931 N   0  0  0  0  0  0  0  0  0  0  0  0
   23.8674  -12.6216  -16.3850 C   0  0  1  0  0  0  0  0  0  0  0  0
   23.1135  -13.3657  -15.3297 C   0  0  0  0  0  0  0  0  0  0  0  0
   23.2517  -14.8365  -15.4588 C   0  0  0  0  0  0  0  0  0  0  0  0
   24.1138  -15.6382  -14.7412 C   0  0  0  0  0  0  0  0  0  0  0  0
   23.9395  -16.9147  -15.1479 N   0  0  0  0  0  0  0  0  0  0  0  0
   23.0066  -16.9911  -16.0963 C   0  0  0  0  0  0  0  0  0  0  0  0
   22.4520  -18.0125  -16.8378 C   0  0  0  0  0  0  0  0  0  0  0  0
   21.4689  -17.7680  -17.7781 C   0  0  0  0  0  0  0  0  0  0  0  0
   21.0308  -16.4733  -17.9813 C   0  0  0  0  0  0  0  0  0  0  0  0
   21.5977  -15.4606  -17.2292 C   0  0  0  0  0  0  0  0  0  0  0  0
   22.5709  -15.6853  -16.2951 C   0  0  0  0  0  0  0  0  0  0  0  0
   23.4421  -11.1764  -16.2905 C   0  0  0  0  0  0  0  0  0  0  0  0
   23.6645  -10.5280  -15.2443 O   0  0  0  0  0  0  0  0  0  0  0  0
   22.7926  -10.5180  -17.3548 N   0  0  0  0  0  0  0  0  0  0  0  0
   22.3349   -9.1955  -17.4587 C   0  0  1  0  0  0  0  0  0  0  0  0
   22.3528   -8.5314  -18.8086 C   0  0  0  0  0  0  0  0  0  0  0  0
   22.0065   -7.0747  -18.7645 C   0  0  0  0  0  0  0  0  0  0  0  0
   22.1088   -6.4495  -20.1263 C   0  0  0  0  0  0  0  0  0  0  0  0
   22.4847   -7.1164  -21.1074 O   0  0  0  0  0  0  0  0  0  0  0  0
   21.1053   -8.8378  -16.7417 C   0  0  0  0  0  0  0  0  0  0  0  0
   20.0486   -9.4613  -17.0198 O   0  0  0  0  0  0  0  0  0  0  0  0
   21.7840   -5.1215  -20.2991 O   0  0  0  0  0  0  0  0  0  0  0  0
   20.7627   -7.6870  -12.7742 O   0  0  0  0  0  0  0  0  0  0  0  0
   19.8666   -8.3005  -13.6475 C   0  0  0  0  0  0  0  0  0  0  0  0
   19.8838   -7.5417  -14.9538 C   0  0  2  0  0  0  0  0  0  0  0  0
   21.0295   -7.8365  -15.7571 N   0  0  0  0  0  0  0  0  0  0  0  0
   19.7610   -6.0809  -14.7011 C   0  0  0  0  0  0  0  0  0  0  0  0
   20.6808   -5.3301  -15.1079 O   0  0  0  0  0  0  0  0  0  0  0  0
   18.6637   -5.5675  -14.0367 O   0  0  0  0  0  0  0  0  0  0  0  0
  2  1  1  1
  2 13  1  0
  3  4  1  0
  3  2  1  0
  4  5  2  0
  5  6  1  0
  7  6  1  0
  8  7  2  0
  9  8  1  0
 10 11  1  0
 10  9  2  0
 11 12  2  0
 12  4  1  0
 12  7  1  0
 13 14  2  0
 13 15  1  0
 15 16  1  0
 16 17  1  6
 16 21  1  0
 18 17  1  0
 19 18  1  0
 20 19  2  0
 21 22  2  0
 23 19  1  0
 26 25  1  1
 25 24  1  0
 26 28  1  0
 27 21  1  0
 27 26  1  0
 28 30  1  0
 29 28  2  0
M  END
$$$$
