WES.pdb
     RDKit          3D

 30 31  0  0  1  0  0  0  0  0999 V2000
   26.6985  -22.5047  -12.8888 N   0  0  0  0  0  0  0  0  0  0  0  0
   25.9792  -21.6940  -11.9227 C   0  0  1  0  0  0  0  0  0  0  0  0
   26.6879  -20.3863  -11.7696 C   0  0  0  0  0  0  0  0  0  0  0  0
   27.7971  -20.4495  -10.7875 C   0  0  0  0  0  0  0  0  0  0  0  0
   29.1193  -20.7194  -11.0704 C   0  0  0  0  0  0  0  0  0  0  0  0
   29.8137  -20.6861   -9.9120 N   0  0  0  0  0  0  0  0  0  0  0  0
   29.0138  -20.4081   -8.8830 C   0  0  0  0  0  0  0  0  0  0  0  0
   29.1907  -20.2574   -7.5242 C   0  0  0  0  0  0  0  0  0  0  0  0
   28.1306  -19.9597   -6.6886 C   0  0  0  0  0  0  0  0  0  0  0  0
   26.8656  -19.8095   -7.2242 C   0  0  0  0  0  0  0  0  0  0  0  0
   26.7058  -19.9640   -8.5892 C   0  0  0  0  0  0  0  0  0  0  0  0
   27.7436  -20.2584   -9.4295 C   0  0  0  0  0  0  0  0  0  0  0  0
   24.6086  -21.3873  -12.4757 C   0  0  0  0  0  0  0  0  0  0  0  0
   24.3506  -21.6332  -13.6746 O   0  0  0  0  0  0  0  0  0  0  0  0
   23.5906  -20.8246  -11.6789 N   0  0  0  0  0  0  0  0  0  0  0  0
   22.2680  -20.4858  -12.0032 C   0  0  1  0  0  0  0  0  0  0  0  0
   21.3689  -19.9695  -10.9130 C   0  0  0  0  0  0  0  0  0  0  0  0
   19.9462  -19.7881  -11.3451 C   0  0  0  0  0  0  0  0  0  0  0  0
   19.2235  -21.1035  -11.4046 C   0  0  0  0  0  0  0  0  0  0  0  0
   19.6735  -22.1052  -10.8193 O   0  0  0  0  0  0  0  0  0  0  0  0
   22.0380  -19.7305  -13.2405 C   0  0  0  0  0  0  0  0  0  0  0  0
   22.5469  -18.5847  -13.3444 O   0  0  0  0  0  0  0  0  0  0  0  0
   18.0470  -21.2099  -12.1143 O   0  0  0  0  0  0  0  0  0  0  0  0
   20.5534  -21.5818  -16.6066 O   0  0  0  0  0  0  0  0  0  0  0  0
   21.3339  -20.4385  -16.7673 C   0  0  0  0  0  0  0  0  0  0  0  0
   21.1038  -19.5371  -15.5768 C   0  0  2  0  0  0  0  0  0  0  0  0
   21.2806  -20.2065  -14.3256 N   0  0  0  0  0  0  0  0  0  0  0  0
   19.7621  -18.9008  -15.6658 C   0  0  0  0  0  0  0  0  0  0  0  0
   18.9572  -19.0814  -14.7199 O   0  0  0  0  0  0  0  0  0  0  0  0
   19.4143  -18.1330  -16.7605 O   0  0  0  0  0  0  0  0  0  0  0  0
  2  1  1  6
  2 13  1  0
  3  4  1  0
  3  2  1  0
  4  5  2  0
  5  6  1  0
  7  6  1  0
  8  7  2  0
  9  8  1  0
 10 11  1  0
 10  9  2  0
 11 12  2  0
 12  4  1  0
 12  7  1  0
 13 14  2  0
 13 15  1  0
 15 16  1  0
 16 17  1  1
 16 21  1  0
 18 17  1  0
 19 18  1  0
 20 19  2  0
 21 22  2  0
 23 19  1  0
 26 25  1  6
 25 24  1  0
 26 28  1  0
 27 21  1  0
 27 26  1  0
 28 30  1  0
 29 28  2  0
M  END
$$$$
