WES.pdb
     RDKit          3D

 30 31  0  0  1  0  0  0  0  0999 V2000
   23.5305  -19.6881  -16.6047 N   0  0  0  0  0  0  0  0  0  0  0  0
   23.4660  -20.8124  -15.6884 C   0  0  1  0  0  0  0  0  0  0  0  0
   24.4092  -20.5640  -14.5551 C   0  0  0  0  0  0  0  0  0  0  0  0
   25.8146  -20.4145  -15.0041 C   0  0  0  0  0  0  0  0  0  0  0  0
   26.5141  -19.2307  -15.1059 C   0  0  0  0  0  0  0  0  0  0  0  0
   27.7588  -19.5132  -15.5490 N   0  0  0  0  0  0  0  0  0  0  0  0
   27.9113  -20.8227  -15.7432 C   0  0  0  0  0  0  0  0  0  0  0  0
   28.9422  -21.6305  -16.1734 C   0  0  0  0  0  0  0  0  0  0  0  0
   28.7899  -23.0007  -16.2733 C   0  0  0  0  0  0  0  0  0  0  0  0
   27.5795  -23.5755  -15.9356 C   0  0  0  0  0  0  0  0  0  0  0  0
   26.5559  -22.7507  -15.5060 C   0  0  0  0  0  0  0  0  0  0  0  0
   26.6900  -21.3938  -15.4014 C   0  0  0  0  0  0  0  0  0  0  0  0
   22.0783  -20.8741  -15.0978 C   0  0  0  0  0  0  0  0  0  0  0  0
   21.4518  -19.8168  -14.8654 O   0  0  0  0  0  0  0  0  0  0  0  0
   21.4504  -22.0992  -14.7928 N   0  0  0  0  0  0  0  0  0  0  0  0
   20.1418  -22.3647  -14.3609 C   0  0  1  0  0  0  0  0  0  0  0  0
   18.9991  -22.0393  -15.2838 C   0  0  0  0  0  0  0  0  0  0  0  0
   17.6509  -22.2576  -14.6684 C   0  0  0  0  0  0  0  0  0  0  0  0
   17.0949  -20.9795  -14.1085 C   0  0  0  0  0  0  0  0  0  0  0  0
   16.4288  -20.2075  -14.8219 O   0  0  0  0  0  0  0  0  0  0  0  0
   19.8898  -23.6424  -13.6841 C   0  0  0  0  0  0  0  0  0  0  0  0
   20.1736  -24.7067  -14.2919 O   0  0  0  0  0  0  0  0  0  0  0  0
   17.3210  -20.6512  -12.7894 O   0  0  0  0  0  0  0  0  0  0  0  0
   17.5425  -23.8556  -10.3344 O   0  0  0  0  0  0  0  0  0  0  0  0
   18.5934  -24.7697  -10.2885 C   0  0  0  0  0  0  0  0  0  0  0  0
   19.0989  -24.9811  -11.6964 C   0  0  2  0  0  0  0  0  0  0  0  0
   19.3478  -23.7565  -12.3914 N   0  0  0  0  0  0  0  0  0  0  0  0
   18.1608  -25.8527  -12.4536 C   0  0  0  0  0  0  0  0  0  0  0  0
   17.4063  -25.3154  -13.3006 O   0  0  0  0  0  0  0  0  0  0  0  0
   18.1231  -27.2153  -12.2288 O   0  0  0  0  0  0  0  0  0  0  0  0
  2  1  1  6
  2 13  1  0
  3  4  1  0
  3  2  1  0
  4  5  2  0
  5  6  1  0
  7  6  1  0
  8  7  2  0
  9  8  1  0
 10 11  1  0
 10  9  2  0
 11 12  2  0
 12  4  1  0
 12  7  1  0
 13 14  2  0
 13 15  1  0
 15 16  1  0
 16 17  1  6
 16 21  1  0
 18 17  1  0
 19 18  1  0
 20 19  2  0
 21 22  2  0
 23 19  1  0
 26 25  1  1
 25 24  1  0
 26 28  1  0
 27 21  1  0
 27 26  1  0
 28 30  1  0
 29 28  2  0
M  END
$$$$
