WES.pdb
     RDKit          3D

 30 31  0  0  1  0  0  0  0  0999 V2000
   25.5089  -15.4539  -17.7775 N   0  0  0  0  0  0  0  0  0  0  0  0
   26.0717  -16.3637  -16.7959 C   0  0  1  0  0  0  0  0  0  0  0  0
   26.2490  -15.6293  -15.5056 C   0  0  0  0  0  0  0  0  0  0  0  0
   27.2428  -14.5331  -15.6042 C   0  0  0  0  0  0  0  0  0  0  0  0
   27.1468  -13.2927  -15.0100 C   0  0  0  0  0  0  0  0  0  0  0  0
   28.2478  -12.5817  -15.3379 N   0  0  0  0  0  0  0  0  0  0  0  0
   29.0615  -13.2930  -16.1175 C   0  0  0  0  0  0  0  0  0  0  0  0
   30.2789  -13.0634  -16.7221 C   0  0  0  0  0  0  0  0  0  0  0  0
   30.8920  -14.0301  -17.4967 C   0  0  0  0  0  0  0  0  0  0  0  0
   30.2737  -15.2535  -17.6705 C   0  0  0  0  0  0  0  0  0  0  0  0
   29.0527  -15.4674  -17.0570 C   0  0  0  0  0  0  0  0  0  0  0  0
   28.4328  -14.5219  -16.2877 C   0  0  0  0  0  0  0  0  0  0  0  0
   25.0774  -17.4695  -16.5375 C   0  0  0  0  0  0  0  0  0  0  0  0
   23.8599  -17.2753  -16.7482 O   0  0  0  0  0  0  0  0  0  0  0  0
   25.4754  -18.7349  -16.0595 N   0  0  0  0  0  0  0  0  0  0  0  0
   24.7123  -19.8774  -15.7737 C   0  0  1  0  0  0  0  0  0  0  0  0
   25.4058  -21.2114  -15.7195 C   0  0  0  0  0  0  0  0  0  0  0  0
   26.7869  -21.1929  -16.2993 C   0  0  0  0  0  0  0  0  0  0  0  0
   27.4441  -22.5384  -16.1829 C   0  0  0  0  0  0  0  0  0  0  0  0
   26.8564  -23.4900  -15.6374 O   0  0  0  0  0  0  0  0  0  0  0  0
   23.7191  -19.7861  -14.6970 C   0  0  0  0  0  0  0  0  0  0  0  0
   24.0908  -19.3515  -13.5765 O   0  0  0  0  0  0  0  0  0  0  0  0
   28.7135  -22.7290  -16.6842 O   0  0  0  0  0  0  0  0  0  0  0  0
   19.9174  -19.2211  -15.5622 O   0  0  0  0  0  0  0  0  0  0  0  0
   20.3135  -18.9497  -14.2539 C   0  0  0  0  0  0  0  0  0  0  0  0
   21.3490  -19.9734  -13.8508 C   0  0  2  0  0  0  0  0  0  0  0  0
   22.3692  -20.1553  -14.8361 N   0  0  0  0  0  0  0  0  0  0  0  0
   20.6907  -21.2627  -13.5083 C   0  0  0  0  0  0  0  0  0  0  0  0
   21.0013  -22.2810  -14.1729 O   0  0  0  0  0  0  0  0  0  0  0  0
   19.7635  -21.3343  -12.4865 O   0  0  0  0  0  0  0  0  0  0  0  0
  2  1  1  6
  2 13  1  0
  3  4  1  0
  3  2  1  0
  4  5  2  0
  5  6  1  0
  7  6  1  0
  8  7  2  0
  9  8  1  0
 10 11  1  0
 10  9  2  0
 11 12  2  0
 12  4  1  0
 12  7  1  0
 13 14  2  0
 13 15  1  0
 15 16  1  0
 16 17  1  1
 16 21  1  0
 18 17  1  0
 19 18  1  0
 20 19  2  0
 21 22  2  0
 23 19  1  0
 26 25  1  6
 25 24  1  0
 26 28  1  0
 27 21  1  0
 27 26  1  0
 28 30  1  0
 29 28  2  0
M  END
$$$$
