WES.pdb
     RDKit          3D

 30 31  0  0  1  0  0  0  0  0999 V2000
   28.1389  -21.3057  -10.9195 N   0  0  0  0  0  0  0  0  0  0  0  0
   26.8365  -21.2650  -10.2794 C   0  0  1  0  0  0  0  0  0  0  0  0
   26.8869  -20.2887   -9.1480 C   0  0  0  0  0  0  0  0  0  0  0  0
   27.9803  -20.5809   -8.1898 C   0  0  0  0  0  0  0  0  0  0  0  0
   29.1445  -21.2649   -8.4685 C   0  0  0  0  0  0  0  0  0  0  0  0
   29.8810  -21.3222   -7.3373 N   0  0  0  0  0  0  0  0  0  0  0  0
   29.2587  -20.7105   -6.3302 C   0  0  0  0  0  0  0  0  0  0  0  0
   29.5479  -20.4797   -5.0022 C   0  0  0  0  0  0  0  0  0  0  0  0
   28.6725  -19.7909   -4.1837 C   0  0  0  0  0  0  0  0  0  0  0  0
   27.4816  -19.3228   -4.7051 C   0  0  0  0  0  0  0  0  0  0  0  0
   27.2070  -19.5630   -6.0391 C   0  0  0  0  0  0  0  0  0  0  0  0
   28.0619  -20.2424   -6.8623 C   0  0  0  0  0  0  0  0  0  0  0  0
   25.8284  -20.7356  -11.2702 C   0  0  0  0  0  0  0  0  0  0  0  0
   26.0581  -19.6708  -11.8850 O   0  0  0  0  0  0  0  0  0  0  0  0
   24.6168  -21.4069  -11.5338 N   0  0  0  0  0  0  0  0  0  0  0  0
   23.5984  -21.1125  -12.4533 C   0  0  1  0  0  0  0  0  0  0  0  0
   23.2876  -22.1168  -13.5295 C   0  0  0  0  0  0  0  0  0  0  0  0
   24.4518  -22.4175  -14.4229 C   0  0  0  0  0  0  0  0  0  0  0  0
   24.7217  -21.2805  -15.3665 C   0  0  0  0  0  0  0  0  0  0  0  0
   25.8417  -21.1385  -15.8899 O   0  0  0  0  0  0  0  0  0  0  0  0
   22.3533  -20.5341  -11.9345 C   0  0  0  0  0  0  0  0  0  0  0  0
   21.7738  -21.1186  -10.9831 O   0  0  0  0  0  0  0  0  0  0  0  0
   23.7215  -20.3794  -15.6609 O   0  0  0  0  0  0  0  0  0  0  0  0
   18.6308  -17.6075  -13.0302 O   0  0  0  0  0  0  0  0  0  0  0  0
   19.9245  -18.0155  -13.3496 C   0  0  0  0  0  0  0  0  0  0  0  0
   20.3841  -18.9983  -12.2982 C   0  0  2  0  0  0  0  0  0  0  0  0
   21.7606  -19.3609  -12.4345 N   0  0  0  0  0  0  0  0  0  0  0  0
   19.5053  -20.1986  -12.2978 C   0  0  0  0  0  0  0  0  0  0  0  0
   19.6259  -21.0211  -13.2382 O   0  0  0  0  0  0  0  0  0  0  0  0
   18.5828  -20.4000  -11.2892 O   0  0  0  0  0  0  0  0  0  0  0  0
  2  1  1  6
  2 13  1  0
  3  4  1  0
  3  2  1  0
  4  5  2  0
  5  6  1  0
  7  6  1  0
  8  7  2  0
  9  8  1  0
 10 11  1  0
 10  9  2  0
 11 12  2  0
 12  4  1  0
 12  7  1  0
 13 14  2  0
 13 15  1  0
 15 16  1  0
 16 17  1  1
 16 21  1  0
 18 17  1  0
 19 18  1  0
 20 19  2  0
 21 22  2  0
 23 19  1  0
 26 25  1  6
 25 24  1  0
 26 28  1  0
 27 21  1  0
 27 26  1  0
 28 30  1  0
 29 28  2  0
M  END
$$$$
