WES.pdb
     RDKit          3D

 30 31  0  0  1  0  0  0  0  0999 V2000
   27.8896  -19.8456   -9.7283 N   0  0  0  0  0  0  0  0  0  0  0  0
   26.9048  -20.8971   -9.5483 C   0  0  1  0  0  0  0  0  0  0  0  0
   26.3642  -20.8166   -8.1565 C   0  0  0  0  0  0  0  0  0  0  0  0
   27.1647  -19.9243   -7.2836 C   0  0  0  0  0  0  0  0  0  0  0  0
   27.4207  -18.5875   -7.5037 C   0  0  0  0  0  0  0  0  0  0  0  0
   28.1828  -18.1309   -6.4858 N   0  0  0  0  0  0  0  0  0  0  0  0
   28.4399  -19.1008   -5.6088 C   0  0  0  0  0  0  0  0  0  0  0  0
   29.1450  -19.1844   -4.4272 C   0  0  0  0  0  0  0  0  0  0  0  0
   29.2321  -20.3706   -3.7229 C   0  0  0  0  0  0  0  0  0  0  0  0
   28.6000  -21.4981   -4.2115 C   0  0  0  0  0  0  0  0  0  0  0  0
   27.8970  -21.3968   -5.3982 C   0  0  0  0  0  0  0  0  0  0  0  0
   27.8010  -20.2313   -6.1070 C   0  0  0  0  0  0  0  0  0  0  0  0
   25.7480  -20.6397  -10.4831 C   0  0  0  0  0  0  0  0  0  0  0  0
   25.1415  -19.5467  -10.4385 O   0  0  0  0  0  0  0  0  0  0  0  0
   25.3176  -21.6006  -11.4208 N   0  0  0  0  0  0  0  0  0  0  0  0
   24.3299  -21.5193  -12.4143 C   0  0  1  0  0  0  0  0  0  0  0  0
   24.5284  -22.2890  -13.6917 C   0  0  0  0  0  0  0  0  0  0  0  0
   25.7991  -21.9458  -14.4069 C   0  0  0  0  0  0  0  0  0  0  0  0
   25.9928  -22.8122  -15.6184 C   0  0  0  0  0  0  0  0  0  0  0  0
   25.1844  -23.7185  -15.8899 O   0  0  0  0  0  0  0  0  0  0  0  0
   22.9263  -21.6025  -11.9934 C   0  0  0  0  0  0  0  0  0  0  0  0
   22.6777  -21.7649  -10.7709 O   0  0  0  0  0  0  0  0  0  0  0  0
   27.0767  -22.6069  -16.4441 O   0  0  0  0  0  0  0  0  0  0  0  0
   20.1138  -18.3308  -12.4854 O   0  0  0  0  0  0  0  0  0  0  0  0
   21.2175  -19.1407  -12.7462 C   0  0  0  0  0  0  0  0  0  0  0  0
   20.7544  -20.5786  -12.7700 C   0  0  2  0  0  0  0  0  0  0  0  0
   21.8327  -21.5122  -12.8729 N   0  0  0  0  0  0  0  0  0  0  0  0
   19.7584  -20.7797  -13.8565 C   0  0  0  0  0  0  0  0  0  0  0  0
   20.1836  -21.0150  -15.0137 O   0  0  0  0  0  0  0  0  0  0  0  0
   18.4033  -20.7087  -13.5962 O   0  0  0  0  0  0  0  0  0  0  0  0
  2  1  1  1
  2 13  1  0
  3  4  1  0
  3  2  1  0
  4  5  2  0
  5  6  1  0
  7  6  1  0
  8  7  2  0
  9  8  1  0
 10 11  1  0
 10  9  2  0
 11 12  2  0
 12  4  1  0
 12  7  1  0
 13 14  2  0
 13 15  1  0
 15 16  1  0
 16 17  1  6
 16 21  1  0
 18 17  1  0
 19 18  1  0
 20 19  2  0
 21 22  2  0
 23 19  1  0
 26 25  1  6
 25 24  1  0
 26 28  1  0
 27 21  1  0
 27 26  1  0
 28 30  1  0
 29 28  2  0
M  END
$$$$
