WES.pdb
     RDKit          3D

 30 31  0  0  1  0  0  0  0  0999 V2000
   22.0029  -12.0454  -15.7468 N   0  0  0  0  0  0  0  0  0  0  0  0
   21.3011  -11.0654  -16.5560 C   0  0  1  0  0  0  0  0  0  0  0  0
   19.8388  -11.1526  -16.2562 C   0  0  0  0  0  0  0  0  0  0  0  0
   19.2563  -12.4640  -16.6300 C   0  0  0  0  0  0  0  0  0  0  0  0
   19.9175  -13.4979  -17.2583 C   0  0  0  0  0  0  0  0  0  0  0  0
   19.0459  -14.5169  -17.4240 N   0  0  0  0  0  0  0  0  0  0  0  0
   17.8461  -14.2037  -16.9360 C   0  0  0  0  0  0  0  0  0  0  0  0
   16.6321  -14.8505  -16.8446 C   0  0  0  0  0  0  0  0  0  0  0  0
   15.5344  -14.2432  -16.2645 C   0  0  0  0  0  0  0  0  0  0  0  0
   15.6536  -12.9604  -15.7647 C   0  0  0  0  0  0  0  0  0  0  0  0
   16.8784  -12.3259  -15.8645 C   0  0  0  0  0  0  0  0  0  0  0  0
   17.9739  -12.9125  -16.4353 C   0  0  0  0  0  0  0  0  0  0  0  0
   21.7518   -9.6858  -16.1415 C   0  0  0  0  0  0  0  0  0  0  0  0
   21.7950   -9.3820  -14.9290 O   0  0  0  0  0  0  0  0  0  0  0  0
   22.1325   -8.7097  -17.0851 N   0  0  0  0  0  0  0  0  0  0  0  0
   22.6113   -7.4042  -16.8964 C   0  0  1  0  0  0  0  0  0  0  0  0
   23.4535   -6.7829  -17.9773 C   0  0  0  0  0  0  0  0  0  0  0  0
   24.6427   -7.6094  -18.3600 C   0  0  0  0  0  0  0  0  0  0  0  0
   24.6092   -7.9688  -19.8180 C   0  0  0  0  0  0  0  0  0  0  0  0
   23.7052   -7.5422  -20.5592 O   0  0  0  0  0  0  0  0  0  0  0  0
   21.6839   -6.4067  -16.3497 C   0  0  0  0  0  0  0  0  0  0  0  0
   20.5652   -6.2622  -16.9068 O   0  0  0  0  0  0  0  0  0  0  0  0
   25.5884   -8.7803  -20.3486 O   0  0  0  0  0  0  0  0  0  0  0  0
   22.5693   -4.1667  -12.8909 O   0  0  0  0  0  0  0  0  0  0  0  0
   21.2542   -4.5623  -13.1275 C   0  0  0  0  0  0  0  0  0  0  0  0
   21.0562   -4.6789  -14.6207 C   0  0  2  0  0  0  0  0  0  0  0  0
   21.9652   -5.5954  -15.2359 N   0  0  0  0  0  0  0  0  0  0  0  0
   21.1294   -3.3353  -15.2551 C   0  0  0  0  0  0  0  0  0  0  0  0
   22.0418   -3.1239  -16.0906 O   0  0  0  0  0  0  0  0  0  0  0  0
   20.2172   -2.3494  -14.9317 O   0  0  0  0  0  0  0  0  0  0  0  0
  2  1  1  1
  2 13  1  0
  3  4  1  0
  3  2  1  0
  4  5  2  0
  5  6  1  0
  7  6  1  0
  8  7  2  0
  9  8  1  0
 10 11  1  0
 10  9  2  0
 11 12  2  0
 12  4  1  0
 12  7  1  0
 13 14  2  0
 13 15  1  0
 15 16  1  0
 16 17  1  6
 16 21  1  0
 18 17  1  0
 19 18  1  0
 20 19  2  0
 21 22  2  0
 23 19  1  0
 26 25  1  1
 25 24  1  0
 26 28  1  0
 27 21  1  0
 27 26  1  0
 28 30  1  0
 29 28  2  0
M  END
$$$$
