WES.pdb
     RDKit          3D

 30 31  0  0  1  0  0  0  0  0999 V2000
   25.3182  -10.3734  -20.1003 N   0  0  0  0  0  0  0  0  0  0  0  0
   25.3701   -9.6917  -18.8195 C   0  0  1  0  0  0  0  0  0  0  0  0
   26.6196   -8.8726  -18.7609 C   0  0  0  0  0  0  0  0  0  0  0  0
   27.8464   -9.7045  -18.7178 C   0  0  0  0  0  0  0  0  0  0  0  0
   27.9004  -11.0789  -18.8124 C   0  0  0  0  0  0  0  0  0  0  0  0
   29.1950  -11.4566  -18.7310 N   0  0  0  0  0  0  0  0  0  0  0  0
   29.9933  -10.3993  -18.5876 C   0  0  0  0  0  0  0  0  0  0  0  0
   31.3536  -10.2154  -18.4598 C   0  0  0  0  0  0  0  0  0  0  0  0
   31.8999   -8.9531  -18.3227 C   0  0  0  0  0  0  0  0  0  0  0  0
   31.0671   -7.8505  -18.3131 C   0  0  0  0  0  0  0  0  0  0  0  0
   29.7051   -8.0527  -18.4422 C   0  0  0  0  0  0  0  0  0  0  0  0
   29.1486   -9.2943  -18.5788 C   0  0  0  0  0  0  0  0  0  0  0  0
   24.2107   -8.7286  -18.7384 C   0  0  0  0  0  0  0  0  0  0  0  0
   23.8918   -8.0508  -19.7400 O   0  0  0  0  0  0  0  0  0  0  0  0
   23.4604   -8.5610  -17.5564 N   0  0  0  0  0  0  0  0  0  0  0  0
   22.4101   -7.6765  -17.2668 C   0  0  1  0  0  0  0  0  0  0  0  0
   21.0258   -8.2372  -17.0862 C   0  0  0  0  0  0  0  0  0  0  0  0
   20.8309   -8.9434  -15.7795 C   0  0  0  0  0  0  0  0  0  0  0  0
   19.4460   -9.5145  -15.6708 C   0  0  0  0  0  0  0  0  0  0  0  0
   18.8660   -9.9752  -16.6707 O   0  0  0  0  0  0  0  0  0  0  0  0
   22.6559   -6.6223  -16.2756 C   0  0  0  0  0  0  0  0  0  0  0  0
   23.1883   -6.9430  -15.1818 O   0  0  0  0  0  0  0  0  0  0  0  0
   18.8035   -9.5319  -14.4518 O   0  0  0  0  0  0  0  0  0  0  0  0
   20.9502   -2.8538  -16.4426 O   0  0  0  0  0  0  0  0  0  0  0  0
   22.3116   -2.8356  -16.1455 C   0  0  0  0  0  0  0  0  0  0  0  0
   22.6952   -4.1912  -15.5998 C   0  0  2  0  0  0  0  0  0  0  0  0
   22.3330   -5.2673  -16.4690 N   0  0  0  0  0  0  0  0  0  0  0  0
   22.1234   -4.3779  -14.2392 C   0  0  0  0  0  0  0  0  0  0  0  0
   21.2982   -5.3076  -14.0661 O   0  0  0  0  0  0  0  0  0  0  0  0
   22.4922   -3.5495  -13.1968 O   0  0  0  0  0  0  0  0  0  0  0  0
  2  1  1  6
  2 13  1  0
  3  4  1  0
  3  2  1  0
  4  5  2  0
  5  6  1  0
  7  6  1  0
  8  7  2  0
  9  8  1  0
 10 11  1  0
 10  9  2  0
 11 12  2  0
 12  4  1  0
 12  7  1  0
 13 14  2  0
 13 15  1  0
 15 16  1  0
 16 17  1  1
 16 21  1  0
 18 17  1  0
 19 18  1  0
 20 19  2  0
 21 22  2  0
 23 19  1  0
 26 25  1  6
 25 24  1  0
 26 28  1  0
 27 21  1  0
 27 26  1  0
 28 30  1  0
 29 28  2  0
M  END
$$$$
