WES.pdb
     RDKit          3D

 30 31  0  0  1  0  0  0  0  0999 V2000
   27.4302  -20.7239  -12.0979 N   0  0  0  0  0  0  0  0  0  0  0  0
   26.1939  -21.1584  -11.4729 C   0  0  1  0  0  0  0  0  0  0  0  0
   26.2145  -20.7536  -10.0336 C   0  0  0  0  0  0  0  0  0  0  0  0
   27.5802  -20.7666   -9.4561 C   0  0  0  0  0  0  0  0  0  0  0  0
   28.7115  -21.2787  -10.0553 C   0  0  0  0  0  0  0  0  0  0  0  0
   29.7523  -21.1011   -9.2124 N   0  0  0  0  0  0  0  0  0  0  0  0
   29.3610  -20.4984   -8.0902 C   0  0  0  0  0  0  0  0  0  0  0  0
   29.9896  -20.0900   -6.9332 C   0  0  0  0  0  0  0  0  0  0  0  0
   29.2905  -19.4717   -5.9136 C   0  0  0  0  0  0  0  0  0  0  0  0
   27.9327  -19.2572   -6.0544 C   0  0  0  0  0  0  0  0  0  0  0  0
   27.3178  -19.6731   -7.2213 C   0  0  0  0  0  0  0  0  0  0  0  0
   27.9946  -20.2860   -8.2393 C   0  0  0  0  0  0  0  0  0  0  0  0
   25.0435  -20.4244  -12.1179 C   0  0  0  0  0  0  0  0  0  0  0  0
   24.7615  -19.2621  -11.7518 O   0  0  0  0  0  0  0  0  0  0  0  0
   24.2611  -21.0088  -13.1350 N   0  0  0  0  0  0  0  0  0  0  0  0
   23.2426  -20.4559  -13.9264 C   0  0  1  0  0  0  0  0  0  0  0  0
   23.3384  -20.5923  -15.4216 C   0  0  0  0  0  0  0  0  0  0  0  0
   22.3710  -19.7238  -16.1658 C   0  0  0  0  0  0  0  0  0  0  0  0
   22.5011  -19.9121  -17.6502 C   0  0  0  0  0  0  0  0  0  0  0  0
   23.3086  -20.7340  -18.1203 O   0  0  0  0  0  0  0  0  0  0  0  0
   21.8544  -20.6557  -13.4940 C   0  0  0  0  0  0  0  0  0  0  0  0
   21.5201  -21.7892  -13.0625 O   0  0  0  0  0  0  0  0  0  0  0  0
   21.7200  -19.1689  -18.5085 O   0  0  0  0  0  0  0  0  0  0  0  0
   19.1975  -17.6600  -12.2251 O   0  0  0  0  0  0  0  0  0  0  0  0
   18.7112  -18.5310  -13.1983 C   0  0  0  0  0  0  0  0  0  0  0  0
   19.5040  -19.8148  -13.1233 C   0  0  2  0  0  0  0  0  0  0  0  0
   20.8656  -19.6564  -13.5305 N   0  0  0  0  0  0  0  0  0  0  0  0
   18.8259  -20.8838  -13.9046 C   0  0  0  0  0  0  0  0  0  0  0  0
   19.3190  -21.2118  -15.0113 O   0  0  0  0  0  0  0  0  0  0  0  0
   17.6852  -21.4968  -13.4232 O   0  0  0  0  0  0  0  0  0  0  0  0
  2  1  1  6
  2 13  1  0
  3  4  1  0
  3  2  1  0
  4  5  2  0
  5  6  1  0
  7  6  1  0
  8  7  2  0
  9  8  1  0
 10 11  1  0
 10  9  2  0
 11 12  2  0
 12  4  1  0
 12  7  1  0
 13 14  2  0
 13 15  1  0
 15 16  1  0
 16 17  1  6
 16 21  1  0
 18 17  1  0
 19 18  1  0
 20 19  2  0
 21 22  2  0
 23 19  1  0
 26 25  1  6
 25 24  1  0
 26 28  1  0
 27 21  1  0
 27 26  1  0
 28 30  1  0
 29 28  2  0
M  END
$$$$
