WES.pdb
     RDKit          3D

 30 31  0  0  1  0  0  0  0  0999 V2000
   24.9368  -19.3787   -9.1231 N   0  0  0  0  0  0  0  0  0  0  0  0
   26.0384  -20.1861   -9.6154 C   0  0  1  0  0  0  0  0  0  0  0  0
   26.3111  -21.2787   -8.6318 C   0  0  0  0  0  0  0  0  0  0  0  0
   26.6136  -20.7630   -7.2747 C   0  0  0  0  0  0  0  0  0  0  0  0
   25.6894  -20.3849   -6.3240 C   0  0  0  0  0  0  0  0  0  0  0  0
   26.3591  -19.9737   -5.2250 N   0  0  0  0  0  0  0  0  0  0  0  0
   27.6762  -20.0628   -5.4067 C   0  0  0  0  0  0  0  0  0  0  0  0
   28.7869  -19.7848   -4.6389 C   0  0  0  0  0  0  0  0  0  0  0  0
   30.0658  -19.9887   -5.1221 C   0  0  0  0  0  0  0  0  0  0  0  0
   30.2375  -20.4816   -6.4015 C   0  0  0  0  0  0  0  0  0  0  0  0
   29.1127  -20.7551   -7.1583 C   0  0  0  0  0  0  0  0  0  0  0  0
   27.8409  -20.5592   -6.6955 C   0  0  0  0  0  0  0  0  0  0  0  0
   25.6119  -20.8510  -10.9016 C   0  0  0  0  0  0  0  0  0  0  0  0
   24.4005  -21.0783  -11.1142 O   0  0  0  0  0  0  0  0  0  0  0  0
   26.5428  -21.2321  -11.8897 N   0  0  0  0  0  0  0  0  0  0  0  0
   26.5755  -20.9462  -13.2632 C   0  0  1  0  0  0  0  0  0  0  0  0
   27.8443  -20.3940  -13.8536 C   0  0  0  0  0  0  0  0  0  0  0  0
   27.7576  -20.1373  -15.3269 C   0  0  0  0  0  0  0  0  0  0  0  0
   28.6876  -21.0354  -16.0914 C   0  0  0  0  0  0  0  0  0  0  0  0
   28.8355  -22.2269  -15.7643 O   0  0  0  0  0  0  0  0  0  0  0  0
   25.9818  -21.9256  -14.1811 C   0  0  0  0  0  0  0  0  0  0  0  0
   26.7057  -22.8635  -14.6041 O   0  0  0  0  0  0  0  0  0  0  0  0
   29.3890  -20.5409  -17.1696 O   0  0  0  0  0  0  0  0  0  0  0  0
   21.9701  -22.5212  -13.9943 O   0  0  0  0  0  0  0  0  0  0  0  0
   22.8646  -23.5413  -14.3127 C   0  0  0  0  0  0  0  0  0  0  0  0
   23.9315  -22.9702  -15.2172 C   0  0  2  0  0  0  0  0  0  0  0  0
   24.6472  -21.8845  -14.6224 N   0  0  0  0  0  0  0  0  0  0  0  0
   23.3404  -22.5777  -16.5247 C   0  0  0  0  0  0  0  0  0  0  0  0
   23.4618  -21.3847  -16.8951 O   0  0  0  0  0  0  0  0  0  0  0  0
   22.6768  -23.5027  -17.3075 O   0  0  0  0  0  0  0  0  0  0  0  0
  2  1  1  1
  2 13  1  0
  3  4  1  0
  3  2  1  0
  4  5  2  0
  5  6  1  0
  7  6  1  0
  8  7  2  0
  9  8  1  0
 10 11  1  0
 10  9  2  0
 11 12  2  0
 12  4  1  0
 12  7  1  0
 13 14  2  0
 13 15  1  0
 15 16  1  0
 16 17  1  6
 16 21  1  0
 18 17  1  0
 19 18  1  0
 20 19  2  0
 21 22  2  0
 23 19  1  0
 26 25  1  1
 25 24  1  0
 26 28  1  0
 27 21  1  0
 27 26  1  0
 28 30  1  0
 29 28  2  0
M  END
$$$$
