KHF.pdb
     RDKit          3D

 31 32  0  0  1  0  0  0  0  0999 V2000
    7.4090  -18.4903   18.5010 N   0  0  0  0  0  0  0  0  0  0  0  0
    8.2113  -17.4136   18.9942 C   0  0  1  0  0  0  0  0  0  0  0  0
    7.4832  -16.0955   18.8612 C   0  0  0  0  0  0  0  0  0  0  0  0
    8.4117  -14.9915   18.4027 C   0  0  0  0  0  0  0  0  0  0  0  0
    7.7006  -13.6809   18.2846 C   0  0  0  0  0  0  0  0  0  0  0  0
    8.5994  -12.5348   17.9422 C   0  0  0  0  0  0  0  0  0  0  0  0
    7.8586  -11.3065   17.8372 N   0  0  0  0  0  0  0  0  0  0  0  0
    8.6255  -17.6853   20.3818 C   0  0  0  0  0  0  0  0  0  0  0  0
    7.7437  -17.9094   21.2460 O   0  0  0  0  0  0  0  0  0  0  0  0
    9.9809  -17.7093   20.8073 N   0  0  0  0  0  0  0  0  0  0  0  0
   10.3424  -17.9011   22.1934 C   0  0  1  0  0  0  0  0  0  0  0  0
   11.7823  -18.3883   22.1987 C   0  0  0  0  0  0  0  0  0  0  0  0
   12.1520  -18.7596   23.5854 C   0  0  0  0  0  0  0  0  0  0  0  0
   11.4010  -18.7026   24.7358 C   0  0  0  0  0  0  0  0  0  0  0  0
   12.1497  -19.1399   25.7531 N   0  0  0  0  0  0  0  0  0  0  0  0
   13.3521  -19.4665   25.2504 C   0  0  0  0  0  0  0  0  0  0  0  0
   13.3546  -19.2364   23.9363 N   0  0  0  0  0  0  0  0  0  0  0  0
   10.1366  -16.7076   23.0300 C   0  0  0  0  0  0  0  0  0  0  0  0
   10.7935  -15.6382   22.8863 O   0  0  0  0  0  0  0  0  0  0  0  0
    9.1460  -16.7709   24.0475 N   0  0  0  0  0  0  0  0  0  0  0  0
    8.9372  -15.7067   24.9968 C   0  0  1  0  0  0  0  0  0  0  0  0
    7.6638  -14.9377   24.7076 C   0  0  0  0  0  0  0  0  0  0  0  0
    7.4172  -13.8590   25.7005 C   0  0  0  0  0  0  0  0  0  0  0  0
    6.6004  -14.1057   26.7946 C   0  0  0  0  0  0  0  0  0  0  0  0
    6.3655  -13.1154   27.7132 C   0  0  0  0  0  0  0  0  0  0  0  0
    6.9086  -11.8492   27.6133 C   0  0  0  0  0  0  0  0  0  0  0  0
    7.7196  -11.6137   26.5215 C   0  0  0  0  0  0  0  0  0  0  0  0
    7.9648  -12.6000   25.5893 C   0  0  0  0  0  0  0  0  0  0  0  0
    8.8616  -16.2186   26.3818 C   0  0  0  0  0  0  0  0  0  0  0  0
    8.1940  -17.2519   26.6361 O   0  0  0  0  0  0  0  0  0  0  0  0
    9.5108  -15.5919   27.4314 O   0  0  0  0  0  0  0  0  0  0  0  0
  2  1  1  1
  3  2  1  0
  3  4  1  0
  5  4  1  0
  6  5  1  0
  7  6  1  0
  8  9  2  0
  8  2  1  0
 10  8  1  0
 11 10  1  0
 11 12  1  6
 13 17  1  0
 13 12  1  0
 14 13  2  0
 15 14  1  0
 15 16  1  0
 16 17  2  0
 18 11  1  0
 19 18  2  0
 20 18  1  0
 21 29  1  0
 21 20  1  0
 21 22  1  6
 22 23  1  0
 23 28  1  0
 24 23  2  0
 24 25  1  0
 25 26  2  0
 26 27  1  0
 28 27  2  0
 29 31  1  0
 30 29  2  0
M  END
$$$$
