KHF.pdb
     RDKit          3D

 31 32  0  0  1  0  0  0  0  0999 V2000
    8.2129  -15.9563   19.8792 N   0  0  0  0  0  0  0  0  0  0  0  0
    7.9989  -14.9066   20.8270 C   0  0  1  0  0  0  0  0  0  0  0  0
    6.9296  -13.9541   20.3425 C   0  0  0  0  0  0  0  0  0  0  0  0
    6.8894  -13.8861   18.8309 C   0  0  0  0  0  0  0  0  0  0  0  0
    8.2127  -13.4895   18.2573 C   0  0  0  0  0  0  0  0  0  0  0  0
    8.1976  -13.3097   16.7720 C   0  0  0  0  0  0  0  0  0  0  0  0
    9.4881  -12.9029   16.2845 N   0  0  0  0  0  0  0  0  0  0  0  0
    7.6832  -15.4749   22.1492 C   0  0  0  0  0  0  0  0  0  0  0  0
    7.1081  -14.7528   22.9990 O   0  0  0  0  0  0  0  0  0  0  0  0
    7.9945  -16.8090   22.5260 N   0  0  0  0  0  0  0  0  0  0  0  0
    7.8171  -17.2806   23.8807 C   0  0  1  0  0  0  0  0  0  0  0  0
    7.8271  -18.7991   23.8121 C   0  0  0  0  0  0  0  0  0  0  0  0
    7.5885  -19.3366   25.1727 C   0  0  0  0  0  0  0  0  0  0  0  0
    8.4279  -20.0597   25.9871 C   0  0  0  0  0  0  0  0  0  0  0  0
    7.7845  -20.3289   27.1274 N   0  0  0  0  0  0  0  0  0  0  0  0
    6.5602  -19.7837   27.0315 C   0  0  0  0  0  0  0  0  0  0  0  0
    6.4403  -19.1819   25.8469 N   0  0  0  0  0  0  0  0  0  0  0  0
    8.8047  -16.7417   24.8298 C   0  0  0  0  0  0  0  0  0  0  0  0
   10.0413  -16.6741   24.5802 O   0  0  0  0  0  0  0  0  0  0  0  0
    8.3337  -16.2755   26.0873 N   0  0  0  0  0  0  0  0  0  0  0  0
    9.1929  -15.6332   27.0499 C   0  0  1  0  0  0  0  0  0  0  0  0
    8.4418  -14.6113   27.8795 C   0  0  0  0  0  0  0  0  0  0  0  0
    7.8907  -13.5063   27.0515 C   0  0  0  0  0  0  0  0  0  0  0  0
    6.5194  -13.4036   26.8671 C   0  0  0  0  0  0  0  0  0  0  0  0
    6.0034  -12.3892   26.1026 C   0  0  0  0  0  0  0  0  0  0  0  0
    6.7887  -11.4345   25.4863 C   0  0  0  0  0  0  0  0  0  0  0  0
    8.1515  -11.5451   25.6757 C   0  0  0  0  0  0  0  0  0  0  0  0
    8.6849  -12.5601   26.4419 C   0  0  0  0  0  0  0  0  0  0  0  0
    9.8073  -16.6126   27.9714 C   0  0  0  0  0  0  0  0  0  0  0  0
    9.4624  -17.8198   27.9293 O   0  0  0  0  0  0  0  0  0  0  0  0
   10.7678  -16.2450   28.8978 O   0  0  0  0  0  0  0  0  0  0  0  0
  2  1  1  6
  3  2  1  0
  3  4  1  0
  5  4  1  0
  6  5  1  0
  7  6  1  0
  8  9  2  0
  8  2  1  0
 10  8  1  0
 11 10  1  0
 11 12  1  6
 13 17  1  0
 13 12  1  0
 14 13  2  0
 15 14  1  0
 15 16  1  0
 16 17  2  0
 18 11  1  0
 19 18  2  0
 20 18  1  0
 21 29  1  0
 21 20  1  0
 21 22  1  1
 22 23  1  0
 23 28  1  0
 24 23  2  0
 24 25  1  0
 25 26  2  0
 26 27  1  0
 28 27  2  0
 29 31  1  0
 30 29  2  0
M  END
$$$$
