KHF.pdb
     RDKit          3D

 31 32  0  0  1  0  0  0  0  0999 V2000
    8.3780  -16.6009   20.0054 N   0  0  0  0  0  0  0  0  0  0  0  0
    8.0257  -16.1705   21.3233 C   0  0  1  0  0  0  0  0  0  0  0  0
    6.6049  -16.5653   21.6562 C   0  0  0  0  0  0  0  0  0  0  0  0
    6.1150  -17.6841   20.7619 C   0  0  0  0  0  0  0  0  0  0  0  0
    4.7073  -18.0753   21.0824 C   0  0  0  0  0  0  0  0  0  0  0  0
    4.1764  -19.1785   20.2223 C   0  0  0  0  0  0  0  0  0  0  0  0
    2.8109  -19.4851   20.5540 N   0  0  0  0  0  0  0  0  0  0  0  0
    8.9946  -16.6930   22.3025 C   0  0  0  0  0  0  0  0  0  0  0  0
    8.6366  -17.6092   23.0816 O   0  0  0  0  0  0  0  0  0  0  0  0
   10.3279  -16.2163   22.4204 N   0  0  0  0  0  0  0  0  0  0  0  0
   11.2234  -16.7002   23.4464 C   0  0  1  0  0  0  0  0  0  0  0  0
   12.5488  -16.9875   22.7597 C   0  0  0  0  0  0  0  0  0  0  0  0
   12.3577  -18.1112   21.8120 C   0  0  0  0  0  0  0  0  0  0  0  0
   12.1628  -18.0840   20.4511 C   0  0  0  0  0  0  0  0  0  0  0  0
   12.0392  -19.3416   20.0151 N   0  0  0  0  0  0  0  0  0  0  0  0
   12.1545  -20.1465   21.0848 C   0  0  0  0  0  0  0  0  0  0  0  0
   12.3477  -19.4016   22.1746 N   0  0  0  0  0  0  0  0  0  0  0  0
   11.3569  -15.7888   24.5945 C   0  0  0  0  0  0  0  0  0  0  0  0
   12.1079  -14.7730   24.5900 O   0  0  0  0  0  0  0  0  0  0  0  0
   10.5978  -16.0735   25.7620 N   0  0  0  0  0  0  0  0  0  0  0  0
   10.7849  -15.3650   27.0031 C   0  0  1  0  0  0  0  0  0  0  0  0
   10.3901  -13.9068   26.8826 C   0  0  0  0  0  0  0  0  0  0  0  0
    8.9623  -13.7373   26.5046 C   0  0  0  0  0  0  0  0  0  0  0  0
    8.0128  -13.5092   27.4903 C   0  0  0  0  0  0  0  0  0  0  0  0
    6.6936  -13.3547   27.1503 C   0  0  0  0  0  0  0  0  0  0  0  0
    6.2383  -13.4140   25.8475 C   0  0  0  0  0  0  0  0  0  0  0  0
    7.1904  -13.6413   24.8743 C   0  0  0  0  0  0  0  0  0  0  0  0
    8.5208  -13.7987   25.2012 C   0  0  0  0  0  0  0  0  0  0  0  0
    9.9953  -15.9668   28.0988 C   0  0  0  0  0  0  0  0  0  0  0  0
   10.1090  -15.5299   29.2710 O   0  0  0  0  0  0  0  0  0  0  0  0
    9.1171  -17.0140   27.8798 O   0  0  0  0  0  0  0  0  0  0  0  0
  2  1  1  6
  3  2  1  0
  3  4  1  0
  5  4  1  0
  6  5  1  0
  7  6  1  0
  8  9  2  0
  8  2  1  0
 10  8  1  0
 11 10  1  0
 11 12  1  6
 13 17  1  0
 13 12  1  0
 14 13  2  0
 15 14  1  0
 15 16  1  0
 16 17  2  0
 18 11  1  0
 19 18  2  0
 20 18  1  0
 21 29  1  0
 21 20  1  0
 21 22  1  6
 22 23  1  0
 23 28  1  0
 24 23  2  0
 24 25  1  0
 25 26  2  0
 26 27  1  0
 28 27  2  0
 29 31  1  0
 30 29  2  0
M  END
$$$$
