KHF.pdb
     RDKit          3D

 31 32  0  0  1  0  0  0  0  0999 V2000
    6.8621  -18.5835   21.3654 N   0  0  0  0  0  0  0  0  0  0  0  0
    8.2454  -18.6671   21.0110 C   0  0  1  0  0  0  0  0  0  0  0  0
    8.4060  -19.0537   19.5584 C   0  0  0  0  0  0  0  0  0  0  0  0
    7.9366  -20.4703   19.3051 C   0  0  0  0  0  0  0  0  0  0  0  0
    6.4833  -20.5195   18.9544 C   0  0  0  0  0  0  0  0  0  0  0  0
    5.9769  -21.8987   18.6709 C   0  0  0  0  0  0  0  0  0  0  0  0
    6.3984  -22.3505   17.3722 N   0  0  0  0  0  0  0  0  0  0  0  0
    8.9273  -17.4008   21.3307 C   0  0  0  0  0  0  0  0  0  0  0  0
   10.1383  -17.2703   21.0290 O   0  0  0  0  0  0  0  0  0  0  0  0
    8.2890  -16.3034   21.9687 N   0  0  0  0  0  0  0  0  0  0  0  0
    8.9966  -15.0804   22.2726 C   0  0  1  0  0  0  0  0  0  0  0  0
    8.1561  -13.9461   21.7090 C   0  0  0  0  0  0  0  0  0  0  0  0
    8.2150  -14.0026   20.2290 C   0  0  0  0  0  0  0  0  0  0  0  0
    8.9432  -14.8370   19.4139 C   0  0  0  0  0  0  0  0  0  0  0  0
    8.6796  -14.5231   18.1416 N   0  0  0  0  0  0  0  0  0  0  0  0
    7.7998  -13.5076   18.1565 C   0  0  0  0  0  0  0  0  0  0  0  0
    7.5175  -13.1914   19.4214 N   0  0  0  0  0  0  0  0  0  0  0  0
    9.3032  -14.9129   23.7024 C   0  0  0  0  0  0  0  0  0  0  0  0
    9.6314  -13.8065   24.2164 O   0  0  0  0  0  0  0  0  0  0  0  0
    9.2220  -16.0590   24.5392 N   0  0  0  0  0  0  0  0  0  0  0  0
    9.0983  -15.9684   25.9723 C   0  0  1  0  0  0  0  0  0  0  0  0
    7.6507  -15.8497   26.4048 C   0  0  0  0  0  0  0  0  0  0  0  0
    7.1945  -14.4363   26.4700 C   0  0  0  0  0  0  0  0  0  0  0  0
    8.0255  -13.4705   27.0192 C   0  0  0  0  0  0  0  0  0  0  0  0
    7.6110  -12.1652   27.0858 C   0  0  0  0  0  0  0  0  0  0  0  0
    6.3799  -11.7402   26.6257 C   0  0  0  0  0  0  0  0  0  0  0  0
    5.5605  -12.7083   26.0811 C   0  0  0  0  0  0  0  0  0  0  0  0
    5.9638  -14.0250   26.0076 C   0  0  0  0  0  0  0  0  0  0  0  0
    9.6850  -17.1466   26.6458 C   0  0  0  0  0  0  0  0  0  0  0  0
    9.8949  -18.2027   25.9988 O   0  0  0  0  0  0  0  0  0  0  0  0
   10.0196  -17.1322   27.9888 O   0  0  0  0  0  0  0  0  0  0  0  0
  2  1  1  6
  3  2  1  0
  3  4  1  0
  5  4  1  0
  6  5  1  0
  7  6  1  0
  8  9  2  0
  8  2  1  0
 10  8  1  0
 11 10  1  0
 11 12  1  1
 13 17  1  0
 13 12  1  0
 14 13  2  0
 15 14  1  0
 15 16  1  0
 16 17  2  0
 18 11  1  0
 19 18  2  0
 20 18  1  0
 21 29  1  0
 21 20  1  0
 21 22  1  6
 22 23  1  0
 23 28  1  0
 24 23  2  0
 24 25  1  0
 25 26  2  0
 26 27  1  0
 28 27  2  0
 29 31  1  0
 30 29  2  0
M  END
$$$$
