KHF.pdb
     RDKit          3D

 31 32  0  0  1  0  0  0  0  0999 V2000
    6.0872  -16.5172   20.5080 N   0  0  0  0  0  0  0  0  0  0  0  0
    7.3411  -16.0704   21.0316 C   0  0  1  0  0  0  0  0  0  0  0  0
    7.3965  -14.5604   21.0797 C   0  0  0  0  0  0  0  0  0  0  0  0
    7.3091  -13.9567   19.6943 C   0  0  0  0  0  0  0  0  0  0  0  0
    7.2896  -12.4618   19.7401 C   0  0  0  0  0  0  0  0  0  0  0  0
    8.6499  -11.8417   19.8026 C   0  0  0  0  0  0  0  0  0  0  0  0
    8.5641  -10.4101   19.9105 N   0  0  0  0  0  0  0  0  0  0  0  0
    7.5854  -16.6805   22.3503 C   0  0  0  0  0  0  0  0  0  0  0  0
    6.6087  -16.9081   23.1044 O   0  0  0  0  0  0  0  0  0  0  0  0
    8.8770  -17.0314   22.8270 N   0  0  0  0  0  0  0  0  0  0  0  0
    9.0835  -17.5513   24.1596 C   0  0  1  0  0  0  0  0  0  0  0  0
    9.8458  -18.8566   23.9985 C   0  0  0  0  0  0  0  0  0  0  0  0
    8.9504  -19.8532   23.3644 C   0  0  0  0  0  0  0  0  0  0  0  0
    7.7271  -20.3213   23.7829 C   0  0  0  0  0  0  0  0  0  0  0  0
    7.2869  -21.2145   22.8911 N   0  0  0  0  0  0  0  0  0  0  0  0
    8.2186  -21.3065   21.9274 C   0  0  0  0  0  0  0  0  0  0  0  0
    9.2274  -20.4817   22.2133 N   0  0  0  0  0  0  0  0  0  0  0  0
    9.7505  -16.6047   25.0682 C   0  0  0  0  0  0  0  0  0  0  0  0
   10.8250  -16.0063   24.7796 O   0  0  0  0  0  0  0  0  0  0  0  0
    9.1472  -16.3571   26.3312 N   0  0  0  0  0  0  0  0  0  0  0  0
    9.7866  -15.5735   27.3582 C   0  0  1  0  0  0  0  0  0  0  0  0
    8.8300  -14.5774   27.9821 C   0  0  0  0  0  0  0  0  0  0  0  0
    8.3305  -13.5811   26.9981 C   0  0  0  0  0  0  0  0  0  0  0  0
    9.0925  -12.4581   26.7098 C   0  0  0  0  0  0  0  0  0  0  0  0
    8.6376  -11.5331   25.8058 C   0  0  0  0  0  0  0  0  0  0  0  0
    7.4310  -11.6545   25.1446 C   0  0  0  0  0  0  0  0  0  0  0  0
    6.6802  -12.7750   25.4381 C   0  0  0  0  0  0  0  0  0  0  0  0
    7.1248  -13.7137   26.3452 C   0  0  0  0  0  0  0  0  0  0  0  0
   10.3304  -16.4270   28.4360 C   0  0  0  0  0  0  0  0  0  0  0  0
   10.9533  -15.9093   29.3961 O   0  0  0  0  0  0  0  0  0  0  0  0
   10.1770  -17.8026   28.4296 O   0  0  0  0  0  0  0  0  0  0  0  0
  2  1  1  1
  3  2  1  0
  3  4  1  0
  5  4  1  0
  6  5  1  0
  7  6  1  0
  8  9  2  0
  8  2  1  0
 10  8  1  0
 11 10  1  0
 11 12  1  6
 13 17  1  0
 13 12  1  0
 14 13  2  0
 15 14  1  0
 15 16  1  0
 16 17  2  0
 18 11  1  0
 19 18  2  0
 20 18  1  0
 21 29  1  0
 21 20  1  0
 21 22  1  1
 22 23  1  0
 23 28  1  0
 24 23  2  0
 24 25  1  0
 25 26  2  0
 26 27  1  0
 28 27  2  0
 29 31  1  0
 30 29  2  0
M  END
$$$$
