KHF.pdb
     RDKit          3D

 31 32  0  0  1  0  0  0  0  0999 V2000
    6.7252  -16.8512   19.9969 N   0  0  0  0  0  0  0  0  0  0  0  0
    7.6661  -16.1525   20.8171 C   0  0  1  0  0  0  0  0  0  0  0  0
    7.4503  -14.6587   20.7302 C   0  0  0  0  0  0  0  0  0  0  0  0
    7.9161  -14.1063   19.4001 C   0  0  0  0  0  0  0  0  0  0  0  0
    7.7210  -12.6259   19.3145 C   0  0  0  0  0  0  0  0  0  0  0  0
    8.0563  -12.0490   17.9752 C   0  0  0  0  0  0  0  0  0  0  0  0
    8.9916  -12.8829   17.2694 N   0  0  0  0  0  0  0  0  0  0  0  0
    7.5951  -16.6473   22.2030 C   0  0  0  0  0  0  0  0  0  0  0  0
    6.4813  -16.9871   22.6703 O   0  0  0  0  0  0  0  0  0  0  0  0
    8.7264  -16.7646   23.0547 N   0  0  0  0  0  0  0  0  0  0  0  0
    8.5967  -17.1067   24.4530 C   0  0  1  0  0  0  0  0  0  0  0  0
    8.7820  -18.6126   24.5461 C   0  0  0  0  0  0  0  0  0  0  0  0
    9.8737  -19.0136   23.6269 C   0  0  0  0  0  0  0  0  0  0  0  0
   10.5790  -18.2545   22.7230 C   0  0  0  0  0  0  0  0  0  0  0  0
   11.4705  -19.0415   22.1125 N   0  0  0  0  0  0  0  0  0  0  0  0
   11.3278  -20.2756   22.6243 C   0  0  0  0  0  0  0  0  0  0  0  0
   10.3601  -20.2598   23.5425 N   0  0  0  0  0  0  0  0  0  0  0  0
    9.5103  -16.3599   25.3328 C   0  0  0  0  0  0  0  0  0  0  0  0
   10.6536  -15.9638   24.9698 O   0  0  0  0  0  0  0  0  0  0  0  0
    9.0749  -16.0740   26.6554 N   0  0  0  0  0  0  0  0  0  0  0  0
    9.8719  -15.3204   27.5905 C   0  0  1  0  0  0  0  0  0  0  0  0
    9.0572  -14.2496   28.2878 C   0  0  0  0  0  0  0  0  0  0  0  0
    8.3864  -13.3346   27.3270 C   0  0  0  0  0  0  0  0  0  0  0  0
    7.0753  -13.5800   26.9451 C   0  0  0  0  0  0  0  0  0  0  0  0
    6.4505  -12.7427   26.0573 C   0  0  0  0  0  0  0  0  0  0  0  0
    7.0648  -11.6366   25.5031 C   0  0  0  0  0  0  0  0  0  0  0  0
    8.3689  -11.4009   25.8891 C   0  0  0  0  0  0  0  0  0  0  0  0
    9.0103  -12.2344   26.7811 C   0  0  0  0  0  0  0  0  0  0  0  0
   10.4681  -16.1923   28.6252 C   0  0  0  0  0  0  0  0  0  0  0  0
   10.1020  -17.3895   28.7278 O   0  0  0  0  0  0  0  0  0  0  0  0
   11.4342  -15.7325   29.5034 O   0  0  0  0  0  0  0  0  0  0  0  0
  2  1  1  6
  3  2  1  0
  3  4  1  0
  5  4  1  0
  6  5  1  0
  7  6  1  0
  8  9  2  0
  8  2  1  0
 10  8  1  0
 11 10  1  0
 11 12  1  6
 13 17  1  0
 13 12  1  0
 14 13  2  0
 15 14  1  0
 15 16  1  0
 16 17  2  0
 18 11  1  0
 19 18  2  0
 20 18  1  0
 21 29  1  0
 21 20  1  0
 21 22  1  1
 22 23  1  0
 23 28  1  0
 24 23  2  0
 24 25  1  0
 25 26  2  0
 26 27  1  0
 28 27  2  0
 29 31  1  0
 30 29  2  0
M  END
$$$$
