KHF.pdb
     RDKit          3D

 31 32  0  0  1  0  0  0  0  0999 V2000
    8.4273  -18.3941   20.6017 N   0  0  0  0  0  0  0  0  0  0  0  0
    9.7732  -17.9314   20.4579 C   0  0  1  0  0  0  0  0  0  0  0  0
   10.2179  -18.0104   19.0153 C   0  0  0  0  0  0  0  0  0  0  0  0
    9.7647  -19.2994   18.3638 C   0  0  0  0  0  0  0  0  0  0  0  0
   10.2087  -19.3873   16.9382 C   0  0  0  0  0  0  0  0  0  0  0  0
    9.8006  -20.6547   16.2556 C   0  0  0  0  0  0  0  0  0  0  0  0
   10.2793  -20.6924   14.8999 N   0  0  0  0  0  0  0  0  0  0  0  0
    9.9023  -16.5709   21.0084 C   0  0  0  0  0  0  0  0  0  0  0  0
   11.0065  -15.9816   20.9183 O   0  0  0  0  0  0  0  0  0  0  0  0
    8.8385  -15.8758   21.6440 N   0  0  0  0  0  0  0  0  0  0  0  0
    9.0053  -14.5388   22.1671 C   0  0  1  0  0  0  0  0  0  0  0  0
    7.8216  -13.7292   21.6632 C   0  0  0  0  0  0  0  0  0  0  0  0
    7.8836  -13.6697   20.1834 C   0  0  0  0  0  0  0  0  0  0  0  0
    8.3984  -12.6893   19.3683 C   0  0  0  0  0  0  0  0  0  0  0  0
    8.2348  -13.0660   18.0963 N   0  0  0  0  0  0  0  0  0  0  0  0
    7.6268  -14.2641   18.1114 C   0  0  0  0  0  0  0  0  0  0  0  0
    7.4134  -14.6310   19.3762 N   0  0  0  0  0  0  0  0  0  0  0  0
    9.1539  -14.4895   23.6307 C   0  0  0  0  0  0  0  0  0  0  0  0
    9.5104  -13.4519   24.2570 O   0  0  0  0  0  0  0  0  0  0  0  0
    8.8793  -15.6735   24.3677 N   0  0  0  0  0  0  0  0  0  0  0  0
    9.0954  -15.7721   25.7894 C   0  0  1  0  0  0  0  0  0  0  0  0
    7.8055  -15.6034   26.5667 C   0  0  0  0  0  0  0  0  0  0  0  0
    7.2958  -14.2076   26.5193 C   0  0  0  0  0  0  0  0  0  0  0  0
    6.0538  -13.9481   25.9578 C   0  0  0  0  0  0  0  0  0  0  0  0
    5.5778  -12.6633   25.9077 C   0  0  0  0  0  0  0  0  0  0  0  0
    6.2799  -11.5789   26.3966 C   0  0  0  0  0  0  0  0  0  0  0  0
    7.5143  -11.8473   26.9532 C   0  0  0  0  0  0  0  0  0  0  0  0
    8.0061  -13.1344   27.0105 C   0  0  0  0  0  0  0  0  0  0  0  0
    9.6903  -17.0736   26.1613 C   0  0  0  0  0  0  0  0  0  0  0  0
    9.9023  -17.9442   25.2809 O   0  0  0  0  0  0  0  0  0  0  0  0
   10.0305  -17.3773   27.4682 O   0  0  0  0  0  0  0  0  0  0  0  0
  2  1  1  6
  3  2  1  0
  3  4  1  0
  5  4  1  0
  6  5  1  0
  7  6  1  0
  8  9  2  0
  8  2  1  0
 10  8  1  0
 11 10  1  0
 11 12  1  1
 13 17  1  0
 13 12  1  0
 14 13  2  0
 15 14  1  0
 15 16  1  0
 16 17  2  0
 18 11  1  0
 19 18  2  0
 20 18  1  0
 21 29  1  0
 21 20  1  0
 21 22  1  1
 22 23  1  0
 23 28  1  0
 24 23  2  0
 24 25  1  0
 25 26  2  0
 26 27  1  0
 28 27  2  0
 29 31  1  0
 30 29  2  0
M  END
$$$$
