KHF.pdb
     RDKit          3D

 31 32  0  0  1  0  0  0  0  0999 V2000
    6.4285  -18.5198   20.2578 N   0  0  0  0  0  0  0  0  0  0  0  0
    6.1826  -17.6136   21.3368 C   0  0  1  0  0  0  0  0  0  0  0  0
    5.7334  -18.3587   22.5731 C   0  0  0  0  0  0  0  0  0  0  0  0
    5.4793  -19.8216   22.2787 C   0  0  0  0  0  0  0  0  0  0  0  0
    4.0193  -20.1142   22.1372 C   0  0  0  0  0  0  0  0  0  0  0  0
    3.7159  -21.5528   21.8596 C   0  0  0  0  0  0  0  0  0  0  0  0
    2.3077  -21.7558   21.6488 N   0  0  0  0  0  0  0  0  0  0  0  0
    7.3766  -16.7871   21.5859 C   0  0  0  0  0  0  0  0  0  0  0  0
    8.4885  -17.3522   21.7234 O   0  0  0  0  0  0  0  0  0  0  0  0
    7.3456  -15.3698   21.6815 N   0  0  0  0  0  0  0  0  0  0  0  0
    8.5231  -14.6016   22.0165 C   0  0  1  0  0  0  0  0  0  0  0  0
    8.3763  -13.2615   21.3140 C   0  0  0  0  0  0  0  0  0  0  0  0
    8.2977  -13.4985   19.8528 C   0  0  0  0  0  0  0  0  0  0  0  0
    7.4369  -12.9614   18.9248 C   0  0  0  0  0  0  0  0  0  0  0  0
    7.7385  -13.4663   17.7244 N   0  0  0  0  0  0  0  0  0  0  0  0
    8.7722  -14.3075   17.8951 C   0  0  0  0  0  0  0  0  0  0  0  0
    9.1120  -14.3277   19.1850 N   0  0  0  0  0  0  0  0  0  0  0  0
    8.7521  -14.4692   23.4644 C   0  0  0  0  0  0  0  0  0  0  0  0
    8.7130  -13.3637   24.0746 O   0  0  0  0  0  0  0  0  0  0  0  0
    9.0295  -15.6503   24.2050 N   0  0  0  0  0  0  0  0  0  0  0  0
    9.1755  -15.6528   25.6389 C   0  0  1  0  0  0  0  0  0  0  0  0
    7.8321  -15.6662   26.3403 C   0  0  0  0  0  0  0  0  0  0  0  0
    7.2595  -14.3025   26.4907 C   0  0  0  0  0  0  0  0  0  0  0  0
    7.9618  -13.3361   27.1963 C   0  0  0  0  0  0  0  0  0  0  0  0
    7.4393  -12.0770   27.3420 C   0  0  0  0  0  0  0  0  0  0  0  0
    6.2199  -11.7003   26.8136 C   0  0  0  0  0  0  0  0  0  0  0  0
    5.5289  -12.6686   26.1134 C   0  0  0  0  0  0  0  0  0  0  0  0
    6.0418  -13.9393   25.9587 C   0  0  0  0  0  0  0  0  0  0  0  0
    9.9506  -16.8220   26.1060 C   0  0  0  0  0  0  0  0  0  0  0  0
   10.2885  -17.7191   25.2943 O   0  0  0  0  0  0  0  0  0  0  0  0
   10.3270  -16.9706   27.4297 O   0  0  0  0  0  0  0  0  0  0  0  0
  2  1  1  6
  3  2  1  0
  3  4  1  0
  5  4  1  0
  6  5  1  0
  7  6  1  0
  8  9  2  0
  8  2  1  0
 10  8  1  0
 11 10  1  0
 11 12  1  1
 13 17  1  0
 13 12  1  0
 14 13  2  0
 15 14  1  0
 15 16  1  0
 16 17  2  0
 18 11  1  0
 19 18  2  0
 20 18  1  0
 21 29  1  0
 21 20  1  0
 21 22  1  1
 22 23  1  0
 23 28  1  0
 24 23  2  0
 24 25  1  0
 25 26  2  0
 26 27  1  0
 28 27  2  0
 29 31  1  0
 30 29  2  0
M  END
$$$$
