KHF.pdb
     RDKit          3D

 31 32  0  0  1  0  0  0  0  0999 V2000
    6.6251  -16.1066   20.6019 N   0  0  0  0  0  0  0  0  0  0  0  0
    7.6806  -15.3176   21.1583 C   0  0  1  0  0  0  0  0  0  0  0  0
    7.2226  -13.8965   21.3947 C   0  0  0  0  0  0  0  0  0  0  0  0
    7.7722  -12.9537   20.3457 C   0  0  0  0  0  0  0  0  0  0  0  0
    7.9598  -13.6369   19.0285 C   0  0  0  0  0  0  0  0  0  0  0  0
    8.5477  -12.7574   17.9703 C   0  0  0  0  0  0  0  0  0  0  0  0
    8.6234  -13.4424   16.7079 N   0  0  0  0  0  0  0  0  0  0  0  0
    8.1928  -15.9509   22.3861 C   0  0  0  0  0  0  0  0  0  0  0  0
    7.3745  -16.3738   23.2381 O   0  0  0  0  0  0  0  0  0  0  0  0
    9.5757  -16.1140   22.6683 N   0  0  0  0  0  0  0  0  0  0  0  0
   10.0371  -16.8417   23.8287 C   0  0  1  0  0  0  0  0  0  0  0  0
   11.2482  -17.6433   23.3798 C   0  0  0  0  0  0  0  0  0  0  0  0
   10.7826  -18.7847   22.5566 C   0  0  0  0  0  0  0  0  0  0  0  0
    9.6174  -19.5094   22.6456 C   0  0  0  0  0  0  0  0  0  0  0  0
    9.6273  -20.4471   21.6931 N   0  0  0  0  0  0  0  0  0  0  0  0
   10.7803  -20.3142   21.0161 C   0  0  0  0  0  0  0  0  0  0  0  0
   11.4814  -19.3067   21.5388 N   0  0  0  0  0  0  0  0  0  0  0  0
   10.3143  -15.9855   24.9934 C   0  0  0  0  0  0  0  0  0  0  0  0
   11.1681  -15.0545   24.9823 O   0  0  0  0  0  0  0  0  0  0  0  0
    9.5786  -16.2253   26.1858 N   0  0  0  0  0  0  0  0  0  0  0  0
    9.8911  -15.5790   27.4356 C   0  0  1  0  0  0  0  0  0  0  0  0
    8.6545  -15.0006   28.0935 C   0  0  0  0  0  0  0  0  0  0  0  0
    8.0779  -13.8708   27.3179 C   0  0  0  0  0  0  0  0  0  0  0  0
    6.9232  -14.0662   26.5740 C   0  0  0  0  0  0  0  0  0  0  0  0
    6.3868  -13.0302   25.8537 C   0  0  0  0  0  0  0  0  0  0  0  0
    6.9422  -11.7659   25.8225 C   0  0  0  0  0  0  0  0  0  0  0  0
    8.0907  -11.5814   26.5657 C   0  0  0  0  0  0  0  0  0  0  0  0
    8.6417  -12.6141   27.2949 C   0  0  0  0  0  0  0  0  0  0  0  0
   10.5254  -16.5141   28.3892 C   0  0  0  0  0  0  0  0  0  0  0  0
   10.5764  -17.7418   28.1285 O   0  0  0  0  0  0  0  0  0  0  0  0
   11.0771  -16.0816   29.5827 O   0  0  0  0  0  0  0  0  0  0  0  0
  2  1  1  1
  3  2  1  0
  3  4  1  0
  5  4  1  0
  6  5  1  0
  7  6  1  0
  8  9  2  0
  8  2  1  0
 10  8  1  0
 11 10  1  0
 11 12  1  6
 13 17  1  0
 13 12  1  0
 14 13  2  0
 15 14  1  0
 15 16  1  0
 16 17  2  0
 18 11  1  0
 19 18  2  0
 20 18  1  0
 21 29  1  0
 21 20  1  0
 21 22  1  1
 22 23  1  0
 23 28  1  0
 24 23  2  0
 24 25  1  0
 25 26  2  0
 26 27  1  0
 28 27  2  0
 29 31  1  0
 30 29  2  0
M  END
$$$$
