KHF.pdb
     RDKit          3D

 31 32  0  0  1  0  0  0  0  0999 V2000
    6.5862  -17.6277   20.6020 N   0  0  0  0  0  0  0  0  0  0  0  0
    7.6002  -16.7119   21.0252 C   0  0  1  0  0  0  0  0  0  0  0  0
    7.1482  -15.2823   20.8323 C   0  0  0  0  0  0  0  0  0  0  0  0
    8.3220  -14.3545   20.6028 C   0  0  0  0  0  0  0  0  0  0  0  0
    7.8860  -12.9302   20.4669 C   0  0  0  0  0  0  0  0  0  0  0  0
    9.0153  -11.9693   20.2665 C   0  0  0  0  0  0  0  0  0  0  0  0
    8.9880  -11.4034   18.9445 N   0  0  0  0  0  0  0  0  0  0  0  0
    7.9859  -16.9924   22.4192 C   0  0  0  0  0  0  0  0  0  0  0  0
    7.0856  -17.1346   23.2816 O   0  0  0  0  0  0  0  0  0  0  0  0
    9.3335  -17.1133   22.8528 N   0  0  0  0  0  0  0  0  0  0  0  0
    9.6688  -17.4451   24.2190 C   0  0  1  0  0  0  0  0  0  0  0  0
   10.6771  -18.5806   24.1506 C   0  0  0  0  0  0  0  0  0  0  0  0
    9.9820  -19.8043   23.6851 C   0  0  0  0  0  0  0  0  0  0  0  0
    9.1345  -20.6429   24.3700 C   0  0  0  0  0  0  0  0  0  0  0  0
    8.7466  -21.6203   23.5448 N   0  0  0  0  0  0  0  0  0  0  0  0
    9.3408  -21.3998   22.3601 C   0  0  0  0  0  0  0  0  0  0  0  0
   10.0899  -20.2991   22.4440 N   0  0  0  0  0  0  0  0  0  0  0  0
   10.1480  -16.2978   25.0069 C   0  0  0  0  0  0  0  0  0  0  0  0
   11.0663  -15.5232   24.6161 O   0  0  0  0  0  0  0  0  0  0  0  0
    9.5403  -16.0569   26.2690 N   0  0  0  0  0  0  0  0  0  0  0  0
   10.0666  -15.1072   27.2169 C   0  0  1  0  0  0  0  0  0  0  0  0
    8.9615  -14.3854   27.9614 C   0  0  0  0  0  0  0  0  0  0  0  0
    8.1229  -13.5526   27.0595 C   0  0  0  0  0  0  0  0  0  0  0  0
    6.7678  -13.8238   26.9362 C   0  0  0  0  0  0  0  0  0  0  0  0
    5.9881  -13.0623   26.1043 C   0  0  0  0  0  0  0  0  0  0  0  0
    6.4838  -12.0102   25.3592 C   0  0  0  0  0  0  0  0  0  0  0  0
    7.8329  -11.7483   25.4887 C   0  0  0  0  0  0  0  0  0  0  0  0
    8.6296  -12.5057   26.3214 C   0  0  0  0  0  0  0  0  0  0  0  0
   10.9431  -15.7597   28.2129 C   0  0  0  0  0  0  0  0  0  0  0  0
   10.9983  -17.0129   28.2787 O   0  0  0  0  0  0  0  0  0  0  0  0
   11.7217  -15.0296   29.0941 O   0  0  0  0  0  0  0  0  0  0  0  0
  2  1  1  1
  3  2  1  0
  3  4  1  0
  5  4  1  0
  6  5  1  0
  7  6  1  0
  8  9  2  0
  8  2  1  0
 10  8  1  0
 11 10  1  0
 11 12  1  6
 13 17  1  0
 13 12  1  0
 14 13  2  0
 15 14  1  0
 15 16  1  0
 16 17  2  0
 18 11  1  0
 19 18  2  0
 20 18  1  0
 21 29  1  0
 21 20  1  0
 21 22  1  1
 22 23  1  0
 23 28  1  0
 24 23  2  0
 24 25  1  0
 25 26  2  0
 26 27  1  0
 28 27  2  0
 29 31  1  0
 30 29  2  0
M  END
$$$$
