KHF.pdb
     RDKit          3D

 31 32  0  0  1  0  0  0  0  0999 V2000
    8.4647  -15.9143   18.8105 N   0  0  0  0  0  0  0  0  0  0  0  0
    8.4672  -14.8001   19.7075 C   0  0  1  0  0  0  0  0  0  0  0  0
    7.5145  -13.7261   19.2337 C   0  0  0  0  0  0  0  0  0  0  0  0
    7.1192  -13.9326   17.7872 C   0  0  0  0  0  0  0  0  0  0  0  0
    8.1543  -13.4012   16.8472 C   0  0  0  0  0  0  0  0  0  0  0  0
    7.8138  -13.5931   15.4029 C   0  0  0  0  0  0  0  0  0  0  0  0
    8.7901  -12.9684   14.5513 N   0  0  0  0  0  0  0  0  0  0  0  0
    8.1635  -15.2516   21.0767 C   0  0  0  0  0  0  0  0  0  0  0  0
    8.0936  -14.4000   21.9956 O   0  0  0  0  0  0  0  0  0  0  0  0
    7.9419  -16.6112   21.4250 N   0  0  0  0  0  0  0  0  0  0  0  0
    7.6600  -17.0146   22.7840 C   0  0  1  0  0  0  0  0  0  0  0  0
    7.1301  -18.4374   22.7089 C   0  0  0  0  0  0  0  0  0  0  0  0
    5.8407  -18.4249   21.9777 C   0  0  0  0  0  0  0  0  0  0  0  0
    4.5691  -18.2015   22.4508 C   0  0  0  0  0  0  0  0  0  0  0  0
    3.7142  -18.2885   21.4269 N   0  0  0  0  0  0  0  0  0  0  0  0
    4.4368  -18.5623   20.3277 C   0  0  0  0  0  0  0  0  0  0  0  0
    5.7260  -18.6452   20.6605 N   0  0  0  0  0  0  0  0  0  0  0  0
    8.8090  -16.8766   23.6935 C   0  0  0  0  0  0  0  0  0  0  0  0
    9.9317  -17.4148   23.4792 O   0  0  0  0  0  0  0  0  0  0  0  0
    8.6375  -16.0959   24.8688 N   0  0  0  0  0  0  0  0  0  0  0  0
    9.7013  -15.8705   25.8148 C   0  0  1  0  0  0  0  0  0  0  0  0
    9.9561  -14.3925   26.0319 C   0  0  0  0  0  0  0  0  0  0  0  0
    8.6967  -13.6049   26.0927 C   0  0  0  0  0  0  0  0  0  0  0  0
    8.2989  -13.0363   27.2942 C   0  0  0  0  0  0  0  0  0  0  0  0
    7.1372  -12.3110   27.3593 C   0  0  0  0  0  0  0  0  0  0  0  0
    6.3140  -12.1054   26.2694 C   0  0  0  0  0  0  0  0  0  0  0  0
    6.7182  -12.6750   25.0788 C   0  0  0  0  0  0  0  0  0  0  0  0
    7.8840  -13.4072   24.9981 C   0  0  0  0  0  0  0  0  0  0  0  0
    9.4035  -16.4840   27.1266 C   0  0  0  0  0  0  0  0  0  0  0  0
   10.2601  -16.4550   28.0449 O   0  0  0  0  0  0  0  0  0  0  0  0
    8.1929  -17.1018   27.3890 O   0  0  0  0  0  0  0  0  0  0  0  0
  2  1  1  6
  3  2  1  0
  3  4  1  0
  5  4  1  0
  6  5  1  0
  7  6  1  0
  8  9  2  0
  8  2  1  0
 10  8  1  0
 11 10  1  0
 11 12  1  6
 13 17  1  0
 13 12  1  0
 14 13  2  0
 15 14  1  0
 15 16  1  0
 16 17  2  0
 18 11  1  0
 19 18  2  0
 20 18  1  0
 21 29  1  0
 21 20  1  0
 21 22  1  1
 22 23  1  0
 23 28  1  0
 24 23  2  0
 24 25  1  0
 25 26  2  0
 26 27  1  0
 28 27  2  0
 29 31  1  0
 30 29  2  0
M  END
$$$$
