KHF.pdb
     RDKit          3D

 31 32  0  0  1  0  0  0  0  0999 V2000
    7.4755  -15.9783   18.8515 N   0  0  0  0  0  0  0  0  0  0  0  0
    8.1983  -15.1162   19.7350 C   0  0  1  0  0  0  0  0  0  0  0  0
    7.7745  -13.6771   19.5482 C   0  0  0  0  0  0  0  0  0  0  0  0
    7.6064  -13.3328   18.0838 C   0  0  0  0  0  0  0  0  0  0  0  0
    8.5130  -14.1451   17.2146 C   0  0  0  0  0  0  0  0  0  0  0  0
    8.3535  -13.8705   15.7525 C   0  0  0  0  0  0  0  0  0  0  0  0
    9.1983  -14.7295   14.9670 N   0  0  0  0  0  0  0  0  0  0  0  0
    8.0383  -15.5693   21.1277 C   0  0  0  0  0  0  0  0  0  0  0  0
    7.9233  -14.7113   22.0361 O   0  0  0  0  0  0  0  0  0  0  0  0
    8.0060  -16.9372   21.5106 N   0  0  0  0  0  0  0  0  0  0  0  0
    7.7956  -17.3410   22.8823 C   0  0  1  0  0  0  0  0  0  0  0  0
    7.5305  -18.8376   22.8540 C   0  0  0  0  0  0  0  0  0  0  0  0
    7.2744  -19.2998   24.2389 C   0  0  0  0  0  0  0  0  0  0  0  0
    7.2040  -18.5736   25.4044 C   0  0  0  0  0  0  0  0  0  0  0  0
    6.9518  -19.4137   26.4130 N   0  0  0  0  0  0  0  0  0  0  0  0
    6.8650  -20.6484   25.8901 C   0  0  0  0  0  0  0  0  0  0  0  0
    7.0604  -20.5804   24.5721 N   0  0  0  0  0  0  0  0  0  0  0  0
    8.8974  -16.9697   23.7849 C   0  0  0  0  0  0  0  0  0  0  0  0
   10.1023  -17.2866   23.5755 O   0  0  0  0  0  0  0  0  0  0  0  0
    8.5801  -16.2158   24.9473 N   0  0  0  0  0  0  0  0  0  0  0  0
    9.5824  -15.7678   25.8812 C   0  0  1  0  0  0  0  0  0  0  0  0
    9.7204  -14.2587   25.8762 C   0  0  0  0  0  0  0  0  0  0  0  0
    8.4381  -13.5729   26.1858 C   0  0  0  0  0  0  0  0  0  0  0  0
    8.2389  -13.0234   27.4441 C   0  0  0  0  0  0  0  0  0  0  0  0
    7.0581  -12.3919   27.7385 C   0  0  0  0  0  0  0  0  0  0  0  0
    6.0236  -12.2655   26.8320 C   0  0  0  0  0  0  0  0  0  0  0  0
    6.2313  -12.8155   25.5831 C   0  0  0  0  0  0  0  0  0  0  0  0
    7.4137  -13.4536   25.2726 C   0  0  0  0  0  0  0  0  0  0  0  0
    9.2721  -16.1973   27.2616 C   0  0  0  0  0  0  0  0  0  0  0  0
    8.1429  -16.6756   27.5339 O   0  0  0  0  0  0  0  0  0  0  0  0
   10.1956  -16.0916   28.2872 O   0  0  0  0  0  0  0  0  0  0  0  0
  2  1  1  6
  3  2  1  0
  3  4  1  0
  5  4  1  0
  6  5  1  0
  7  6  1  0
  8  9  2  0
  8  2  1  0
 10  8  1  0
 11 10  1  0
 11 12  1  6
 13 17  1  0
 13 12  1  0
 14 13  2  0
 15 14  1  0
 15 16  1  0
 16 17  2  0
 18 11  1  0
 19 18  2  0
 20 18  1  0
 21 29  1  0
 21 20  1  0
 21 22  1  1
 22 23  1  0
 23 28  1  0
 24 23  2  0
 24 25  1  0
 25 26  2  0
 26 27  1  0
 28 27  2  0
 29 31  1  0
 30 29  2  0
M  END
$$$$
