KHF.pdb
     RDKit          3D

 31 32  0  0  1  0  0  0  0  0999 V2000
    8.9177  -15.1129   18.7778 N   0  0  0  0  0  0  0  0  0  0  0  0
    8.5696  -14.2639   19.8751 C   0  0  1  0  0  0  0  0  0  0  0  0
    7.3746  -13.4039   19.5318 C   0  0  0  0  0  0  0  0  0  0  0  0
    7.1451  -13.3428   18.0368 C   0  0  0  0  0  0  0  0  0  0  0  0
    8.4332  -13.2754   17.2794 C   0  0  0  0  0  0  0  0  0  0  0  0
    8.2572  -13.1409   15.7996 C   0  0  0  0  0  0  0  0  0  0  0  0
    9.5253  -12.9984   15.1362 N   0  0  0  0  0  0  0  0  0  0  0  0
    8.3473  -15.0701   21.0882 C   0  0  0  0  0  0  0  0  0  0  0  0
    7.5608  -14.6412   21.9668 O   0  0  0  0  0  0  0  0  0  0  0  0
    8.9780  -16.3206   21.3275 N   0  0  0  0  0  0  0  0  0  0  0  0
    8.7098  -17.0952   22.5178 C   0  0  1  0  0  0  0  0  0  0  0  0
    9.0652  -18.5348   22.1831 C   0  0  0  0  0  0  0  0  0  0  0  0
    8.0173  -19.0867   21.2916 C   0  0  0  0  0  0  0  0  0  0  0  0
    6.6990  -19.3691   21.5618 C   0  0  0  0  0  0  0  0  0  0  0  0
    6.1328  -19.8531   20.4519 N   0  0  0  0  0  0  0  0  0  0  0  0
    7.0799  -19.8747   19.4992 C   0  0  0  0  0  0  0  0  0  0  0  0
    8.2228  -19.4102   20.0072 N   0  0  0  0  0  0  0  0  0  0  0  0
    9.4017  -16.5967   23.7176 C   0  0  0  0  0  0  0  0  0  0  0  0
   10.6511  -16.4185   23.7739 O   0  0  0  0  0  0  0  0  0  0  0  0
    8.6159  -16.3028   24.8650 N   0  0  0  0  0  0  0  0  0  0  0  0
    9.1941  -15.8816   26.1163 C   0  0  1  0  0  0  0  0  0  0  0  0
    8.1461  -15.3308   27.0622 C   0  0  0  0  0  0  0  0  0  0  0  0
    7.5996  -14.0268   26.6028 C   0  0  0  0  0  0  0  0  0  0  0  0
    6.2473  -13.7564   26.7546 C   0  0  0  0  0  0  0  0  0  0  0  0
    5.7349  -12.5573   26.3308 C   0  0  0  0  0  0  0  0  0  0  0  0
    6.5057  -11.5725   25.7444 C   0  0  0  0  0  0  0  0  0  0  0  0
    7.8497  -11.8509   25.5977 C   0  0  0  0  0  0  0  0  0  0  0  0
    8.3792  -13.0525   26.0191 C   0  0  0  0  0  0  0  0  0  0  0  0
    9.8899  -16.9943   26.7973 C   0  0  0  0  0  0  0  0  0  0  0  0
   10.5254  -16.7837   27.8603 O   0  0  0  0  0  0  0  0  0  0  0  0
    9.8685  -18.2859   26.3002 O   0  0  0  0  0  0  0  0  0  0  0  0
  2  1  1  6
  3  2  1  0
  3  4  1  0
  5  4  1  0
  6  5  1  0
  7  6  1  0
  8  9  2  0
  8  2  1  0
 10  8  1  0
 11 10  1  0
 11 12  1  6
 13 17  1  0
 13 12  1  0
 14 13  2  0
 15 14  1  0
 15 16  1  0
 16 17  2  0
 18 11  1  0
 19 18  2  0
 20 18  1  0
 21 29  1  0
 21 20  1  0
 21 22  1  1
 22 23  1  0
 23 28  1  0
 24 23  2  0
 24 25  1  0
 25 26  2  0
 26 27  1  0
 28 27  2  0
 29 31  1  0
 30 29  2  0
M  END
$$$$
