KHF.pdb
     RDKit          3D

 31 32  0  0  1  0  0  0  0  0999 V2000
    9.7442  -19.3167   19.4269 N   0  0  0  0  0  0  0  0  0  0  0  0
    8.9372  -18.9671   20.5550 C   0  0  1  0  0  0  0  0  0  0  0  0
    8.9566  -20.0671   21.5918 C   0  0  0  0  0  0  0  0  0  0  0  0
    8.4027  -21.3625   21.0382 C   0  0  0  0  0  0  0  0  0  0  0  0
    8.4195  -22.4552   22.0594 C   0  0  0  0  0  0  0  0  0  0  0  0
    7.7411  -23.7112   21.6112 C   0  0  0  0  0  0  0  0  0  0  0  0
    7.9042  -24.7636   22.5779 N   0  0  0  0  0  0  0  0  0  0  0  0
    9.3720  -17.6720   21.1066 C   0  0  0  0  0  0  0  0  0  0  0  0
   10.5987  -17.4116   21.1505 O   0  0  0  0  0  0  0  0  0  0  0  0
    8.4749  -16.6863   21.5990 N   0  0  0  0  0  0  0  0  0  0  0  0
    8.9363  -15.3963   22.0596 C   0  0  1  0  0  0  0  0  0  0  0  0
    7.8359  -14.4020   21.7260 C   0  0  0  0  0  0  0  0  0  0  0  0
    7.9339  -14.0509   20.2892 C   0  0  0  0  0  0  0  0  0  0  0  0
    8.8424  -14.4708   19.3463 C   0  0  0  0  0  0  0  0  0  0  0  0
    8.5408  -13.8923   18.1796 N   0  0  0  0  0  0  0  0  0  0  0  0
    7.4601  -13.1210   18.3858 C   0  0  0  0  0  0  0  0  0  0  0  0
    7.0913  -13.2165   19.6643 N   0  0  0  0  0  0  0  0  0  0  0  0
    9.3172  -15.3763   23.4812 C   0  0  0  0  0  0  0  0  0  0  0  0
   10.3733  -14.8303   23.9086 O   0  0  0  0  0  0  0  0  0  0  0  0
    8.4464  -16.0046   24.4125 N   0  0  0  0  0  0  0  0  0  0  0  0
    8.7623  -16.1248   25.8136 C   0  0  1  0  0  0  0  0  0  0  0  0
    7.6056  -15.6879   26.6898 C   0  0  0  0  0  0  0  0  0  0  0  0
    7.4165  -14.2133   26.6823 C   0  0  0  0  0  0  0  0  0  0  0  0
    6.2510  -13.6724   26.1589 C   0  0  0  0  0  0  0  0  0  0  0  0
    6.0703  -12.3134   26.1456 C   0  0  0  0  0  0  0  0  0  0  0  0
    7.0055  -11.4231   26.6361 C   0  0  0  0  0  0  0  0  0  0  0  0
    8.1616  -11.9708   27.1546 C   0  0  0  0  0  0  0  0  0  0  0  0
    8.3573  -13.3357   27.1746 C   0  0  0  0  0  0  0  0  0  0  0  0
    9.1150  -17.5143   26.1756 C   0  0  0  0  0  0  0  0  0  0  0  0
    9.0066  -18.4336   25.3264 O   0  0  0  0  0  0  0  0  0  0  0  0
    9.5698  -17.8497   27.4392 O   0  0  0  0  0  0  0  0  0  0  0  0
  2  1  1  6
  3  2  1  0
  3  4  1  0
  5  4  1  0
  6  5  1  0
  7  6  1  0
  8  9  2  0
  8  2  1  0
 10  8  1  0
 11 10  1  0
 11 12  1  1
 13 17  1  0
 13 12  1  0
 14 13  2  0
 15 14  1  0
 15 16  1  0
 16 17  2  0
 18 11  1  0
 19 18  2  0
 20 18  1  0
 21 29  1  0
 21 20  1  0
 21 22  1  1
 22 23  1  0
 23 28  1  0
 24 23  2  0
 24 25  1  0
 25 26  2  0
 26 27  1  0
 28 27  2  0
 29 31  1  0
 30 29  2  0
M  END
$$$$
