KHF.pdb
     RDKit          3D

 31 32  0  0  1  0  0  0  0  0999 V2000
    8.1056  -16.3865   20.4331 N   0  0  0  0  0  0  0  0  0  0  0  0
    8.4035  -15.4631   21.4842 C   0  0  1  0  0  0  0  0  0  0  0  0
    7.2151  -14.5742   21.7721 C   0  0  0  0  0  0  0  0  0  0  0  0
    6.7528  -13.8445   20.5291 C   0  0  0  0  0  0  0  0  0  0  0  0
    7.8994  -13.4794   19.6406 C   0  0  0  0  0  0  0  0  0  0  0  0
    7.5130  -12.6193   18.4788 C   0  0  0  0  0  0  0  0  0  0  0  0
    8.6436  -12.3529   17.6306 N   0  0  0  0  0  0  0  0  0  0  0  0
    8.8607  -16.1895   22.6817 C   0  0  0  0  0  0  0  0  0  0  0  0
    8.0118  -16.5602   23.5281 O   0  0  0  0  0  0  0  0  0  0  0  0
   10.2228  -16.5002   22.9404 N   0  0  0  0  0  0  0  0  0  0  0  0
   10.6335  -17.1888   24.1429 C   0  0  1  0  0  0  0  0  0  0  0  0
   11.9135  -17.9321   23.7968 C   0  0  0  0  0  0  0  0  0  0  0  0
   11.5874  -19.0189   22.8430 C   0  0  0  0  0  0  0  0  0  0  0  0
   10.3635  -19.4271   22.3673 C   0  0  0  0  0  0  0  0  0  0  0  0
   10.5546  -20.4472   21.5249 N   0  0  0  0  0  0  0  0  0  0  0  0
   11.8774  -20.6768   21.4720 C   0  0  0  0  0  0  0  0  0  0  0  0
   12.5044  -19.8115   22.2706 N   0  0  0  0  0  0  0  0  0  0  0  0
   10.7800  -16.3053   25.3110 C   0  0  0  0  0  0  0  0  0  0  0  0
   11.4791  -15.2530   25.3013 O   0  0  0  0  0  0  0  0  0  0  0  0
   10.0960  -16.6616   26.5049 N   0  0  0  0  0  0  0  0  0  0  0  0
   10.2885  -15.9615   27.7500 C   0  0  1  0  0  0  0  0  0  0  0  0
    8.9776  -15.4586   28.3202 C   0  0  0  0  0  0  0  0  0  0  0  0
    8.3576  -14.4082   27.4703 C   0  0  0  0  0  0  0  0  0  0  0  0
    8.8891  -13.1266   27.4643 C   0  0  0  0  0  0  0  0  0  0  0  0
    8.3214  -12.1514   26.6855 C   0  0  0  0  0  0  0  0  0  0  0  0
    7.2197  -12.3734   25.8824 C   0  0  0  0  0  0  0  0  0  0  0  0
    6.6982  -13.6513   25.8953 C   0  0  0  0  0  0  0  0  0  0  0  0
    7.2585  -14.6423   26.6736 C   0  0  0  0  0  0  0  0  0  0  0  0
   10.9326  -16.8218   28.7653 C   0  0  0  0  0  0  0  0  0  0  0  0
   11.2416  -16.3492   29.8874 O   0  0  0  0  0  0  0  0  0  0  0  0
   11.2143  -18.1554   28.5240 O   0  0  0  0  0  0  0  0  0  0  0  0
  2  1  1  6
  3  2  1  0
  3  4  1  0
  5  4  1  0
  6  5  1  0
  7  6  1  0
  8  9  2  0
  8  2  1  0
 10  8  1  0
 11 10  1  0
 11 12  1  6
 13 17  1  0
 13 12  1  0
 14 13  2  0
 15 14  1  0
 15 16  1  0
 16 17  2  0
 18 11  1  0
 19 18  2  0
 20 18  1  0
 21 29  1  0
 21 20  1  0
 21 22  1  1
 22 23  1  0
 23 28  1  0
 24 23  2  0
 24 25  1  0
 25 26  2  0
 26 27  1  0
 28 27  2  0
 29 31  1  0
 30 29  2  0
M  END
$$$$
