FHF.pdb
     RDKit          3D

 33 35  0  0  1  0  0  0  0  0999 V2000
   32.7023  -25.9417  -21.4266 N   0  0  0  0  0  0  0  0  0  0  0  0
   31.7978  -25.5925  -22.4765 C   0  0  1  0  0  0  0  0  0  0  0  0
   30.8656  -26.7421  -22.7459 C   0  0  0  0  0  0  0  0  0  0  0  0
   31.5835  -27.8754  -23.3450 C   0  0  0  0  0  0  0  0  0  0  0  0
   31.7742  -27.9039  -24.7029 C   0  0  0  0  0  0  0  0  0  0  0  0
   32.4414  -28.9467  -25.3050 C   0  0  0  0  0  0  0  0  0  0  0  0
   32.9236  -29.9820  -24.5004 C   0  0  0  0  0  0  0  0  0  0  0  0
   32.7387  -29.9684  -23.1215 C   0  0  0  0  0  0  0  0  0  0  0  0
   32.0631  -28.9027  -22.5550 C   0  0  0  0  0  0  0  0  0  0  0  0
   31.0594  -24.3325  -22.2040 C   0  0  0  0  0  0  0  0  0  0  0  0
   31.2774  -23.7378  -21.1317 O   0  0  0  0  0  0  0  0  0  0  0  0
   30.1244  -23.7751  -23.0966 N   0  0  0  0  0  0  0  0  0  0  0  0
   29.4963  -22.4903  -22.9542 C   0  0  1  0  0  0  0  0  0  0  0  0
   30.4445  -21.3957  -22.5739 C   0  0  0  0  0  0  0  0  0  0  0  0
   29.8490  -20.0714  -22.4512 C   0  0  0  0  0  0  0  0  0  0  0  0
   28.6157  -19.6965  -22.0220 C   0  0  0  0  0  0  0  0  0  0  0  0
   28.5402  -18.3579  -22.0920 N   0  0  0  0  0  0  0  0  0  0  0  0
   29.7168  -17.8865  -22.5622 C   0  0  0  0  0  0  0  0  0  0  0  0
   30.5227  -18.9340  -22.7839 N   0  0  0  0  0  0  0  0  0  0  0  0
   28.6026  -22.1661  -24.0898 C   0  0  0  0  0  0  0  0  0  0  0  0
   29.0130  -22.2675  -25.2834 O   0  0  0  0  0  0  0  0  0  0  0  0
   27.2607  -21.7324  -23.9122 N   0  0  0  0  0  0  0  0  0  0  0  0
   26.4235  -21.4591  -25.0656 C   0  0  1  0  0  0  0  0  0  0  0  0
   25.0378  -21.9630  -24.7330 C   0  0  0  0  0  0  0  0  0  0  0  0
   24.4111  -21.2912  -23.5816 C   0  0  0  0  0  0  0  0  0  0  0  0
   24.5983  -21.7419  -22.2794 C   0  0  0  0  0  0  0  0  0  0  0  0
   23.9946  -21.0619  -21.2534 C   0  0  0  0  0  0  0  0  0  0  0  0
   23.2037  -19.9471  -21.4214 C   0  0  0  0  0  0  0  0  0  0  0  0
   23.0158  -19.4968  -22.7128 C   0  0  0  0  0  0  0  0  0  0  0  0
   23.6106  -20.1610  -23.7609 C   0  0  0  0  0  0  0  0  0  0  0  0
   26.3633  -20.0015  -25.2905 C   0  0  0  0  0  0  0  0  0  0  0  0
   26.9371  -19.0814  -24.4176 O   0  0  0  0  0  0  0  0  0  0  0  0
   25.7744  -19.5522  -26.3036 O   0  0  0  0  0  0  0  0  0  0  0  0
  2  1  1  1
  2  3  1  0
  3  4  1  0
  4  5  2  0
  5  6  1  0
  7  6  2  0
  8  7  1  0
  9  4  1  0
  9  8  2  0
 10  2  1  0
 11 10  2  0
 12 10  1  0
 13 20  1  0
 13 12  1  0
 13 14  1  6
 15 14  1  0
 16 15  2  0
 17 18  1  0
 17 16  1  0
 18 19  2  0
 19 15  1  0
 20 22  1  0
 21 20  2  0
 22 23  1  0
 23 31  1  0
 23 24  1  1
 25 24  1  0
 26 25  2  0
 27 26  1  0
 28 27  2  0
 28 29  1  0
 29 30  2  0
 30 25  1  0
 31 33  2  0
 31 32  1  0
M  END
$$$$
