FHF.pdb
     RDKit          3D

 33 35  0  0  1  0  0  0  0  0999 V2000
   27.9099  -20.4647  -16.5927 N   0  0  0  0  0  0  0  0  0  0  0  0
   27.8872  -20.1258  -15.2045 C   0  0  1  0  0  0  0  0  0  0  0  0
   28.8238  -18.9770  -14.9477 C   0  0  0  0  0  0  0  0  0  0  0  0
   28.4357  -17.7942  -15.7280 C   0  0  0  0  0  0  0  0  0  0  0  0
   28.8622  -17.6802  -17.0266 C   0  0  0  0  0  0  0  0  0  0  0  0
   28.5215  -16.5886  -17.7931 C   0  0  0  0  0  0  0  0  0  0  0  0
   27.7278  -15.5928  -17.2185 C   0  0  0  0  0  0  0  0  0  0  0  0
   27.2868  -15.6931  -15.9027 C   0  0  0  0  0  0  0  0  0  0  0  0
   27.6508  -16.8056  -15.1659 C   0  0  0  0  0  0  0  0  0  0  0  0
   26.5169  -19.8463  -14.7032 C   0  0  0  0  0  0  0  0  0  0  0  0
   25.9605  -18.7898  -15.0569 O   0  0  0  0  0  0  0  0  0  0  0  0
   25.8137  -20.7154  -13.8478 N   0  0  0  0  0  0  0  0  0  0  0  0
   24.4897  -20.4928  -13.3349 C   0  0  1  0  0  0  0  0  0  0  0  0
   23.4052  -20.7606  -14.3318 C   0  0  0  0  0  0  0  0  0  0  0  0
   23.4760  -19.9719  -15.5551 C   0  0  0  0  0  0  0  0  0  0  0  0
   23.9641  -20.2913  -16.7821 C   0  0  0  0  0  0  0  0  0  0  0  0
   23.8035  -19.2263  -17.5836 N   0  0  0  0  0  0  0  0  0  0  0  0
   23.2178  -18.2381  -16.8707 C   0  0  0  0  0  0  0  0  0  0  0  0
   23.0151  -18.6910  -15.6259 N   0  0  0  0  0  0  0  0  0  0  0  0
   24.2804  -21.1224  -12.0108 C   0  0  0  0  0  0  0  0  0  0  0  0
   24.6176  -22.3260  -11.8079 O   0  0  0  0  0  0  0  0  0  0  0  0
   23.7025  -20.4290  -10.9128 N   0  0  0  0  0  0  0  0  0  0  0  0
   23.4683  -21.1173   -9.6568 C   0  0  1  0  0  0  0  0  0  0  0  0
   23.8881  -20.1738   -8.5530 C   0  0  0  0  0  0  0  0  0  0  0  0
   25.3380  -20.1549   -8.2936 C   0  0  0  0  0  0  0  0  0  0  0  0
   26.1107  -21.3087   -8.3675 C   0  0  0  0  0  0  0  0  0  0  0  0
   27.4570  -21.2171   -8.1254 C   0  0  0  0  0  0  0  0  0  0  0  0
   28.1102  -20.0465   -7.8095 C   0  0  0  0  0  0  0  0  0  0  0  0
   27.3463  -18.8991   -7.7355 C   0  0  0  0  0  0  0  0  0  0  0  0
   25.9926  -18.9634   -7.9740 C   0  0  0  0  0  0  0  0  0  0  0  0
   22.0273  -21.4058   -9.5198 C   0  0  0  0  0  0  0  0  0  0  0  0
   21.5298  -22.3401   -8.6156 O   0  0  0  0  0  0  0  0  0  0  0  0
   21.1996  -20.7956  -10.2393 O   0  0  0  0  0  0  0  0  0  0  0  0
  2  1  1  6
  2  3  1  0
  3  4  1  0
  4  5  2  0
  5  6  1  0
  7  6  2  0
  8  7  1  0
  9  4  1  0
  9  8  2  0
 10  2  1  0
 11 10  2  0
 12 10  1  0
 13 20  1  0
 13 12  1  0
 13 14  1  6
 15 14  1  0
 16 15  2  0
 17 18  1  0
 17 16  1  0
 18 19  2  0
 19 15  1  0
 20 22  1  0
 21 20  2  0
 22 23  1  0
 23 31  1  0
 23 24  1  1
 25 24  1  0
 26 25  2  0
 27 26  1  0
 28 27  2  0
 28 29  1  0
 29 30  2  0
 30 25  1  0
 31 33  2  0
 31 32  1  0
M  END
$$$$
