FHF.pdb
     RDKit          3D

 33 35  0  0  1  0  0  0  0  0999 V2000
   26.9896   -3.7125  -20.0536 N   0  0  0  0  0  0  0  0  0  0  0  0
   27.1200   -2.3270  -19.7281 C   0  0  1  0  0  0  0  0  0  0  0  0
   25.8195   -1.8119  -19.1744 C   0  0  0  0  0  0  0  0  0  0  0  0
   24.8068   -1.6887  -20.2316 C   0  0  0  0  0  0  0  0  0  0  0  0
   24.8608   -0.6189  -21.0881 C   0  0  0  0  0  0  0  0  0  0  0  0
   23.9319   -0.4652  -22.0925 C   0  0  0  0  0  0  0  0  0  0  0  0
   22.9267   -1.4267  -22.2229 C   0  0  0  0  0  0  0  0  0  0  0  0
   22.8577   -2.5178  -21.3625 C   0  0  0  0  0  0  0  0  0  0  0  0
   23.8099   -2.6361  -20.3662 C   0  0  0  0  0  0  0  0  0  0  0  0
   28.2581   -2.0561  -18.8126 C   0  0  0  0  0  0  0  0  0  0  0  0
   28.3992   -2.7829  -17.8112 O   0  0  0  0  0  0  0  0  0  0  0  0
   29.1870   -1.0187  -19.0188 N   0  0  0  0  0  0  0  0  0  0  0  0
   30.2872   -0.6975  -18.1517 C   0  0  1  0  0  0  0  0  0  0  0  0
   31.4674   -0.1165  -18.8668 C   0  0  0  0  0  0  0  0  0  0  0  0
   32.6752    0.0224  -18.0634 C   0  0  0  0  0  0  0  0  0  0  0  0
   32.9268   -0.3464  -16.7802 C   0  0  0  0  0  0  0  0  0  0  0  0
   34.1925   -0.0052  -16.4902 N   0  0  0  0  0  0  0  0  0  0  0  0
   34.7403    0.5758  -17.5810 C   0  0  0  0  0  0  0  0  0  0  0  0
   33.8132    0.5949  -18.5485 N   0  0  0  0  0  0  0  0  0  0  0  0
   29.8616    0.0556  -16.9495 C   0  0  0  0  0  0  0  0  0  0  0  0
   29.1721    1.1119  -17.0601 O   0  0  0  0  0  0  0  0  0  0  0  0
   30.1933   -0.3533  -15.6292 N   0  0  0  0  0  0  0  0  0  0  0  0
   29.7366    0.4202  -14.4894 C   0  0  1  0  0  0  0  0  0  0  0  0
   28.8529   -0.4887  -13.6662 C   0  0  0  0  0  0  0  0  0  0  0  0
   27.4839   -0.6360  -14.1896 C   0  0  0  0  0  0  0  0  0  0  0  0
   26.4953    0.3072  -13.9310 C   0  0  0  0  0  0  0  0  0  0  0  0
   25.2451    0.1135  -14.4594 C   0  0  0  0  0  0  0  0  0  0  0  0
   24.8917   -0.9646  -15.2400 C   0  0  0  0  0  0  0  0  0  0  0  0
   25.8707   -1.9028  -15.4988 C   0  0  0  0  0  0  0  0  0  0  0  0
   27.1340   -1.7323  -14.9807 C   0  0  0  0  0  0  0  0  0  0  0  0
   30.9003    0.8242  -13.6760 C   0  0  0  0  0  0  0  0  0  0  0  0
   30.7818    1.6020  -12.5276 O   0  0  0  0  0  0  0  0  0  0  0  0
   32.0529    0.4632  -14.0169 O   0  0  0  0  0  0  0  0  0  0  0  0
  2  1  1  1
  2  3  1  0
  3  4  1  0
  4  5  2  0
  5  6  1  0
  7  6  2  0
  8  7  1  0
  9  4  1  0
  9  8  2  0
 10  2  1  0
 11 10  2  0
 12 10  1  0
 13 20  1  0
 13 12  1  0
 13 14  1  6
 15 14  1  0
 16 15  2  0
 17 18  1  0
 17 16  1  0
 18 19  2  0
 19 15  1  0
 20 22  1  0
 21 20  2  0
 22 23  1  0
 23 31  1  0
 23 24  1  1
 25 24  1  0
 26 25  2  0
 27 26  1  0
 28 27  2  0
 28 29  1  0
 29 30  2  0
 30 25  1  0
 31 33  2  0
 31 32  1  0
M  END
$$$$
