FHF.pdb
     RDKit          3D

 33 35  0  0  1  0  0  0  0  0999 V2000
   28.1423  -21.0875  -14.0025 N   0  0  0  0  0  0  0  0  0  0  0  0
   27.1721  -21.4557  -13.0198 C   0  0  1  0  0  0  0  0  0  0  0  0
   27.2635  -20.5231  -11.8430 C   0  0  0  0  0  0  0  0  0  0  0  0
   28.5446  -20.6813  -11.1414 C   0  0  0  0  0  0  0  0  0  0  0  0
   29.6376  -19.9771  -11.5780 C   0  0  0  0  0  0  0  0  0  0  0  0
   30.8567  -20.0958  -10.9496 C   0  0  0  0  0  0  0  0  0  0  0  0
   30.9593  -20.9531   -9.8514 C   0  0  0  0  0  0  0  0  0  0  0  0
   29.8604  -21.6746   -9.3958 C   0  0  0  0  0  0  0  0  0  0  0  0
   28.6530  -21.5276  -10.0546 C   0  0  0  0  0  0  0  0  0  0  0  0
   25.7934  -21.5212  -13.5693 C   0  0  0  0  0  0  0  0  0  0  0  0
   25.3851  -20.5692  -14.2606 O   0  0  0  0  0  0  0  0  0  0  0  0
   24.9232  -22.6055  -13.3485 N   0  0  0  0  0  0  0  0  0  0  0  0
   23.5845  -22.7198  -13.8586 C   0  0  1  0  0  0  0  0  0  0  0  0
   23.1331  -24.1342  -14.0527 C   0  0  0  0  0  0  0  0  0  0  0  0
   22.1166  -24.3277  -15.0787 C   0  0  0  0  0  0  0  0  0  0  0  0
   21.4915  -23.4263  -15.8804 C   0  0  0  0  0  0  0  0  0  0  0  0
   20.6315  -24.0944  -16.6656 N   0  0  0  0  0  0  0  0  0  0  0  0
   20.7101  -25.4101  -16.3646 C   0  0  0  0  0  0  0  0  0  0  0  0
   21.6198  -25.5579  -15.3918 N   0  0  0  0  0  0  0  0  0  0  0  0
   22.6239  -21.8596  -13.1302 C   0  0  0  0  0  0  0  0  0  0  0  0
   22.7745  -21.6264  -11.8947 O   0  0  0  0  0  0  0  0  0  0  0  0
   21.5011  -21.2570  -13.7599 N   0  0  0  0  0  0  0  0  0  0  0  0
   20.6222  -20.3837  -13.0042 C   0  0  1  0  0  0  0  0  0  0  0  0
   21.3353  -19.0587  -12.8607 C   0  0  0  0  0  0  0  0  0  0  0  0
   21.7374  -18.4477  -14.1393 C   0  0  0  0  0  0  0  0  0  0  0  0
   20.8744  -17.6350  -14.8664 C   0  0  0  0  0  0  0  0  0  0  0  0
   21.3179  -17.0890  -16.0432 C   0  0  0  0  0  0  0  0  0  0  0  0
   22.5761  -17.2902  -16.5658 C   0  0  0  0  0  0  0  0  0  0  0  0
   23.4354  -18.0963  -15.8465 C   0  0  0  0  0  0  0  0  0  0  0  0
   23.0154  -18.6567  -14.6621 C   0  0  0  0  0  0  0  0  0  0  0  0
   19.3718  -20.1767  -13.7608 C   0  0  0  0  0  0  0  0  0  0  0  0
   18.2533  -19.5571  -13.2103 O   0  0  0  0  0  0  0  0  0  0  0  0
   19.2923  -20.5689  -14.9503 O   0  0  0  0  0  0  0  0  0  0  0  0
  2  1  1  6
  2  3  1  0
  3  4  1  0
  4  5  2  0
  5  6  1  0
  7  6  2  0
  8  7  1  0
  9  4  1  0
  9  8  2  0
 10  2  1  0
 11 10  2  0
 12 10  1  0
 13 20  1  0
 13 12  1  0
 13 14  1  1
 15 14  1  0
 16 15  2  0
 17 18  1  0
 17 16  1  0
 18 19  2  0
 19 15  1  0
 20 22  1  0
 21 20  2  0
 22 23  1  0
 23 31  1  0
 23 24  1  6
 25 24  1  0
 26 25  2  0
 27 26  1  0
 28 27  2  0
 28 29  1  0
 29 30  2  0
 30 25  1  0
 31 33  2  0
 31 32  1  0
M  END
$$$$
