FHF.pdb
     RDKit          3D

 33 35  0  0  1  0  0  0  0  0999 V2000
   26.7658  -20.3741  -18.2101 N   0  0  0  0  0  0  0  0  0  0  0  0
   26.7745  -20.6735  -16.8127 C   0  0  1  0  0  0  0  0  0  0  0  0
   26.7961  -19.3949  -16.0204 C   0  0  0  0  0  0  0  0  0  0  0  0
   27.9212  -18.5412  -16.4253 C   0  0  0  0  0  0  0  0  0  0  0  0
   29.1849  -19.0731  -16.4623 C   0  0  0  0  0  0  0  0  0  0  0  0
   30.2669  -18.3086  -16.8360 C   0  0  0  0  0  0  0  0  0  0  0  0
   30.0512  -16.9716  -17.1789 C   0  0  0  0  0  0  0  0  0  0  0  0
   28.7758  -16.4165  -17.1467 C   0  0  0  0  0  0  0  0  0  0  0  0
   27.7148  -17.2180  -16.7657 C   0  0  0  0  0  0  0  0  0  0  0  0
   25.6518  -21.5578  -16.4072 C   0  0  0  0  0  0  0  0  0  0  0  0
   24.5670  -21.4527  -17.0098 O   0  0  0  0  0  0  0  0  0  0  0  0
   25.7508  -22.5101  -15.3751 N   0  0  0  0  0  0  0  0  0  0  0  0
   24.6912  -23.3728  -14.9297 C   0  0  1  0  0  0  0  0  0  0  0  0
   25.1144  -24.7961  -14.7376 C   0  0  0  0  0  0  0  0  0  0  0  0
   25.5222  -25.4930  -15.9507 C   0  0  0  0  0  0  0  0  0  0  0  0
   25.4300  -25.1203  -17.2540 C   0  0  0  0  0  0  0  0  0  0  0  0
   25.9457  -26.1059  -18.0058 N   0  0  0  0  0  0  0  0  0  0  0  0
   26.3622  -27.0968  -17.1859 C   0  0  0  0  0  0  0  0  0  0  0  0
   26.1045  -26.7253  -15.9244 N   0  0  0  0  0  0  0  0  0  0  0  0
   23.9283  -22.7975  -13.7981 C   0  0  0  0  0  0  0  0  0  0  0  0
   24.4541  -22.6957  -12.6506 O   0  0  0  0  0  0  0  0  0  0  0  0
   22.5908  -22.3346  -13.9292 N   0  0  0  0  0  0  0  0  0  0  0  0
   21.9506  -21.6330  -12.8320 C   0  0  1  0  0  0  0  0  0  0  0  0
   22.5951  -20.2684  -12.7463 C   0  0  0  0  0  0  0  0  0  0  0  0
   23.8708  -20.2482  -12.0101 C   0  0  0  0  0  0  0  0  0  0  0  0
   23.9209  -20.3851  -10.6271 C   0  0  0  0  0  0  0  0  0  0  0  0
   25.1435  -20.3691  -10.0070 C   0  0  0  0  0  0  0  0  0  0  0  0
   26.3448  -20.2249  -10.6648 C   0  0  0  0  0  0  0  0  0  0  0  0
   26.2988  -20.0889  -12.0378 C   0  0  0  0  0  0  0  0  0  0  0  0
   25.0846  -20.1018  -12.6850 C   0  0  0  0  0  0  0  0  0  0  0  0
   20.5144  -21.4679  -13.1302 C   0  0  0  0  0  0  0  0  0  0  0  0
   19.5942  -21.0323  -12.1808 O   0  0  0  0  0  0  0  0  0  0  0  0
   20.0842  -21.7268  -14.2804 O   0  0  0  0  0  0  0  0  0  0  0  0
  2  1  1  6
  2  3  1  0
  3  4  1  0
  4  5  2  0
  5  6  1  0
  7  6  2  0
  8  7  1  0
  9  4  1  0
  9  8  2  0
 10  2  1  0
 11 10  2  0
 12 10  1  0
 13 20  1  0
 13 12  1  0
 13 14  1  1
 15 14  1  0
 16 15  2  0
 17 18  1  0
 17 16  1  0
 18 19  2  0
 19 15  1  0
 20 22  1  0
 21 20  2  0
 22 23  1  0
 23 31  1  0
 23 24  1  6
 25 24  1  0
 26 25  2  0
 27 26  1  0
 28 27  2  0
 28 29  1  0
 29 30  2  0
 30 25  1  0
 31 33  2  0
 31 32  1  0
M  END
$$$$
