FHF.pdb
     RDKit          3D

 33 35  0  0  1  0  0  0  0  0999 V2000
   22.4658  -21.6782  -18.6667 N   0  0  0  0  0  0  0  0  0  0  0  0
   22.2486  -21.1280  -17.3656 C   0  0  1  0  0  0  0  0  0  0  0  0
   21.0473  -21.7775  -16.7347 C   0  0  0  0  0  0  0  0  0  0  0  0
   19.8080  -21.3597  -17.4040 C   0  0  0  0  0  0  0  0  0  0  0  0
   19.1948  -22.2230  -18.2757 C   0  0  0  0  0  0  0  0  0  0  0  0
   18.0323  -21.8716  -18.9239 C   0  0  0  0  0  0  0  0  0  0  0  0
   17.4859  -20.6102  -18.6748 C   0  0  0  0  0  0  0  0  0  0  0  0
   18.0953  -19.7226  -17.7936 C   0  0  0  0  0  0  0  0  0  0  0  0
   19.2622  -20.1135  -17.1622 C   0  0  0  0  0  0  0  0  0  0  0  0
   23.4490  -21.2192  -16.4952 C   0  0  0  0  0  0  0  0  0  0  0  0
   23.9824  -22.3332  -16.3359 O   0  0  0  0  0  0  0  0  0  0  0  0
   24.0157  -20.1096  -15.8400 N   0  0  0  0  0  0  0  0  0  0  0  0
   25.1484  -20.1497  -14.9564 C   0  0  1  0  0  0  0  0  0  0  0  0
   26.0836  -18.9924  -15.1237 C   0  0  0  0  0  0  0  0  0  0  0  0
   27.2737  -19.0276  -14.2835 C   0  0  0  0  0  0  0  0  0  0  0  0
   28.5091  -19.5377  -14.5269 C   0  0  0  0  0  0  0  0  0  0  0  0
   29.2682  -19.3253  -13.4402 N   0  0  0  0  0  0  0  0  0  0  0  0
   28.5203  -18.6850  -12.5137 C   0  0  0  0  0  0  0  0  0  0  0  0
   27.2961  -18.5003  -13.0266 N   0  0  0  0  0  0  0  0  0  0  0  0
   24.7653  -20.4362  -13.5547 C   0  0  0  0  0  0  0  0  0  0  0  0
   23.6538  -20.0397  -13.0955 O   0  0  0  0  0  0  0  0  0  0  0  0
   25.6028  -21.1578  -12.6613 N   0  0  0  0  0  0  0  0  0  0  0  0
   25.1235  -21.5135  -11.3384 C   0  0  1  0  0  0  0  0  0  0  0  0
   26.2443  -22.2577  -10.6496 C   0  0  0  0  0  0  0  0  0  0  0  0
   27.1418  -21.3994   -9.8573 C   0  0  0  0  0  0  0  0  0  0  0  0
   26.6927  -20.7033   -8.7404 C   0  0  0  0  0  0  0  0  0  0  0  0
   27.5849  -19.9316   -8.0419 C   0  0  0  0  0  0  0  0  0  0  0  0
   28.9150  -19.7936   -8.3714 C   0  0  0  0  0  0  0  0  0  0  0  0
   29.3643  -20.4833   -9.4795 C   0  0  0  0  0  0  0  0  0  0  0  0
   28.4894  -21.2652  -10.1983 C   0  0  0  0  0  0  0  0  0  0  0  0
   24.8270  -20.2825  -10.5797 C   0  0  0  0  0  0  0  0  0  0  0  0
   23.9740  -20.2640   -9.4797 O   0  0  0  0  0  0  0  0  0  0  0  0
   25.3541  -19.1970  -10.9246 O   0  0  0  0  0  0  0  0  0  0  0  0
  2  1  1  6
  2  3  1  0
  3  4  1  0
  4  5  2  0
  5  6  1  0
  7  6  2  0
  8  7  1  0
  9  4  1  0
  9  8  2  0
 10  2  1  0
 11 10  2  0
 12 10  1  0
 13 20  1  0
 13 12  1  0
 13 14  1  1
 15 14  1  0
 16 15  2  0
 17 18  1  0
 17 16  1  0
 18 19  2  0
 19 15  1  0
 20 22  1  0
 21 20  2  0
 22 23  1  0
 23 31  1  0
 23 24  1  1
 25 24  1  0
 26 25  2  0
 27 26  1  0
 28 27  2  0
 28 29  1  0
 29 30  2  0
 30 25  1  0
 31 33  2  0
 31 32  1  0
M  END
$$$$
