FHF.pdb
     RDKit          3D

 33 35  0  0  1  0  0  0  0  0999 V2000
   24.8888  -18.8148  -18.7250 N   0  0  0  0  0  0  0  0  0  0  0  0
   25.4656  -19.3815  -17.5466 C   0  0  1  0  0  0  0  0  0  0  0  0
   26.7668  -18.6928  -17.2374 C   0  0  0  0  0  0  0  0  0  0  0  0
   27.7531  -18.9241  -18.3015 C   0  0  0  0  0  0  0  0  0  0  0  0
   28.3504  -20.1545  -18.4038 C   0  0  0  0  0  0  0  0  0  0  0  0
   29.2795  -20.4138  -19.3859 C   0  0  0  0  0  0  0  0  0  0  0  0
   29.6042  -19.3924  -20.2821 C   0  0  0  0  0  0  0  0  0  0  0  0
   29.0075  -18.1388  -20.1922 C   0  0  0  0  0  0  0  0  0  0  0  0
   28.0788  -17.9183  -19.1912 C   0  0  0  0  0  0  0  0  0  0  0  0
   24.5385  -19.3614  -16.3859 C   0  0  0  0  0  0  0  0  0  0  0  0
   24.0988  -18.2628  -15.9975 O   0  0  0  0  0  0  0  0  0  0  0  0
   24.1306  -20.5218  -15.7012 N   0  0  0  0  0  0  0  0  0  0  0  0
   23.2504  -20.5561  -14.5656 C   0  0  1  0  0  0  0  0  0  0  0  0
   21.9137  -21.1637  -14.8584 C   0  0  0  0  0  0  0  0  0  0  0  0
   21.0737  -20.4062  -15.7772 C   0  0  0  0  0  0  0  0  0  0  0  0
   20.4750  -19.1956  -15.6288 C   0  0  0  0  0  0  0  0  0  0  0  0
   19.8051  -18.9218  -16.7596 N   0  0  0  0  0  0  0  0  0  0  0  0
   19.9772  -19.9507  -17.6194 C   0  0  0  0  0  0  0  0  0  0  0  0
   20.7547  -20.8636  -17.0210 N   0  0  0  0  0  0  0  0  0  0  0  0
   23.9133  -21.0792  -13.3490 C   0  0  0  0  0  0  0  0  0  0  0  0
   24.4307  -22.2350  -13.3422 O   0  0  0  0  0  0  0  0  0  0  0  0
   24.0073  -20.3321  -12.1434 N   0  0  0  0  0  0  0  0  0  0  0  0
   24.5592  -20.9424  -10.9479 C   0  0  1  0  0  0  0  0  0  0  0  0
   25.7862  -20.1437  -10.5723 C   0  0  0  0  0  0  0  0  0  0  0  0
   26.8712  -20.1999  -11.5670 C   0  0  0  0  0  0  0  0  0  0  0  0
   27.8303  -21.2067  -11.5490 C   0  0  0  0  0  0  0  0  0  0  0  0
   28.8059  -21.2051  -12.5122 C   0  0  0  0  0  0  0  0  0  0  0  0
   28.9065  -20.2637  -13.5124 C   0  0  0  0  0  0  0  0  0  0  0  0
   27.9560  -19.2629  -13.5334 C   0  0  0  0  0  0  0  0  0  0  0  0
   26.9658  -19.2413  -12.5781 C   0  0  0  0  0  0  0  0  0  0  0  0
   23.5729  -20.8508   -9.8536 C   0  0  0  0  0  0  0  0  0  0  0  0
   22.3539  -20.1932   -9.9927 O   0  0  0  0  0  0  0  0  0  0  0  0
   23.8245  -21.3796   -8.7435 O   0  0  0  0  0  0  0  0  0  0  0  0
  2  1  1  6
  2  3  1  0
  3  4  1  0
  4  5  2  0
  5  6  1  0
  7  6  2  0
  8  7  1  0
  9  4  1  0
  9  8  2  0
 10  2  1  0
 11 10  2  0
 12 10  1  0
 13 20  1  0
 13 12  1  0
 13 14  1  6
 15 14  1  0
 16 15  2  0
 17 18  1  0
 17 16  1  0
 18 19  2  0
 19 15  1  0
 20 22  1  0
 21 20  2  0
 22 23  1  0
 23 31  1  0
 23 24  1  1
 25 24  1  0
 26 25  2  0
 27 26  1  0
 28 27  2  0
 28 29  1  0
 29 30  2  0
 30 25  1  0
 31 33  2  0
 31 32  1  0
M  END
$$$$
