FHF.pdb
     RDKit          3D

 33 35  0  0  1  0  0  0  0  0999 V2000
   30.2697  -22.9871  -13.3422 N   0  0  0  0  0  0  0  0  0  0  0  0
   30.5611  -22.2243  -12.1693 C   0  0  1  0  0  0  0  0  0  0  0  0
   31.8992  -21.5536  -12.3202 C   0  0  0  0  0  0  0  0  0  0  0  0
   32.9752  -22.5451  -12.4537 C   0  0  0  0  0  0  0  0  0  0  0  0
   33.2815  -23.3477  -11.3846 C   0  0  0  0  0  0  0  0  0  0  0  0
   34.2822  -24.2895  -11.4668 C   0  0  0  0  0  0  0  0  0  0  0  0
   34.9840  -24.4124  -12.6685 C   0  0  0  0  0  0  0  0  0  0  0  0
   34.6858  -23.6062  -13.7625 C   0  0  0  0  0  0  0  0  0  0  0  0
   33.6733  -22.6719  -13.6394 C   0  0  0  0  0  0  0  0  0  0  0  0
   29.4887  -21.2523  -11.8346 C   0  0  0  0  0  0  0  0  0  0  0  0
   29.7430  -20.3470  -11.0181 O   0  0  0  0  0  0  0  0  0  0  0  0
   28.1976  -21.3016  -12.3936 N   0  0  0  0  0  0  0  0  0  0  0  0
   27.0094  -20.7500  -11.8025 C   0  0  1  0  0  0  0  0  0  0  0  0
   25.8131  -20.7954  -12.7017 C   0  0  0  0  0  0  0  0  0  0  0  0
   24.5573  -20.3838  -12.0877 C   0  0  0  0  0  0  0  0  0  0  0  0
   24.2937  -19.9489  -10.8278 C   0  0  0  0  0  0  0  0  0  0  0  0
   22.9792  -19.6892  -10.7441 N   0  0  0  0  0  0  0  0  0  0  0  0
   22.4124  -19.9573  -11.9419 C   0  0  0  0  0  0  0  0  0  0  0  0
   23.3767  -20.3836  -12.7691 N   0  0  0  0  0  0  0  0  0  0  0  0
   26.7704  -21.2551  -10.4309 C   0  0  0  0  0  0  0  0  0  0  0  0
   26.6371  -22.4955  -10.2140 O   0  0  0  0  0  0  0  0  0  0  0  0
   26.6792  -20.3974   -9.3012 N   0  0  0  0  0  0  0  0  0  0  0  0
   26.5244  -20.9567   -7.9710 C   0  0  1  0  0  0  0  0  0  0  0  0
   27.9136  -21.1234   -7.3991 C   0  0  0  0  0  0  0  0  0  0  0  0
   28.1807  -20.2953   -6.2105 C   0  0  0  0  0  0  0  0  0  0  0  0
   28.5952  -18.9723   -6.3173 C   0  0  0  0  0  0  0  0  0  0  0  0
   28.8147  -18.2555   -5.1695 C   0  0  0  0  0  0  0  0  0  0  0  0
   28.6516  -18.7587   -3.8979 C   0  0  0  0  0  0  0  0  0  0  0  0
   28.2400  -20.0718   -3.7881 C   0  0  0  0  0  0  0  0  0  0  0  0
   28.0126  -20.8135   -4.9246 C   0  0  0  0  0  0  0  0  0  0  0  0
   25.7686  -20.0094   -7.1283 C   0  0  0  0  0  0  0  0  0  0  0  0
   25.5580  -18.6822   -7.4916 O   0  0  0  0  0  0  0  0  0  0  0  0
   25.2886  -20.3958   -6.0349 O   0  0  0  0  0  0  0  0  0  0  0  0
  2  1  1  6
  2  3  1  0
  3  4  1  0
  4  5  2  0
  5  6  1  0
  7  6  2  0
  8  7  1  0
  9  4  1  0
  9  8  2  0
 10  2  1  0
 11 10  2  0
 12 10  1  0
 13 20  1  0
 13 12  1  0
 13 14  1  6
 15 14  1  0
 16 15  2  0
 17 18  1  0
 17 16  1  0
 18 19  2  0
 19 15  1  0
 20 22  1  0
 21 20  2  0
 22 23  1  0
 23 31  1  0
 23 24  1  1
 25 24  1  0
 26 25  2  0
 27 26  1  0
 28 27  2  0
 28 29  1  0
 29 30  2  0
 30 25  1  0
 31 33  2  0
 31 32  1  0
M  END
$$$$
