FHF.pdb
     RDKit          3D

 33 35  0  0  1  0  0  0  0  0999 V2000
   24.8256  -10.8438  -19.6113 N   0  0  0  0  0  0  0  0  0  0  0  0
   24.0598  -10.8038  -18.4053 C   0  0  1  0  0  0  0  0  0  0  0  0
   24.9840  -10.7724  -17.2187 C   0  0  0  0  0  0  0  0  0  0  0  0
   25.9087  -11.9139  -17.2387 C   0  0  0  0  0  0  0  0  0  0  0  0
   27.2415  -11.6908  -17.4737 C   0  0  0  0  0  0  0  0  0  0  0  0
   28.1420  -12.7317  -17.5009 C   0  0  0  0  0  0  0  0  0  0  0  0
   27.6687  -14.0279  -17.2830 C   0  0  0  0  0  0  0  0  0  0  0  0
   26.3200  -14.2713  -17.0433 C   0  0  0  0  0  0  0  0  0  0  0  0
   25.4472  -13.1985  -17.0240 C   0  0  0  0  0  0  0  0  0  0  0  0
   23.0863   -9.6819  -18.3794 C   0  0  0  0  0  0  0  0  0  0  0  0
   23.3700   -8.6367  -18.9942 O   0  0  0  0  0  0  0  0  0  0  0  0
   21.8577   -9.7392  -17.6946 N   0  0  0  0  0  0  0  0  0  0  0  0
   20.9136   -8.6617  -17.5805 C   0  0  1  0  0  0  0  0  0  0  0  0
   19.4941   -9.0783  -17.8113 C   0  0  0  0  0  0  0  0  0  0  0  0
   19.1713   -9.4557  -19.1812 C   0  0  0  0  0  0  0  0  0  0  0  0
   19.7198   -9.0548  -20.3579 C   0  0  0  0  0  0  0  0  0  0  0  0
   19.0781   -9.6879  -21.3528 N   0  0  0  0  0  0  0  0  0  0  0  0
   18.1292  -10.4846  -20.8118 C   0  0  0  0  0  0  0  0  0  0  0  0
   18.1828  -10.3454  -19.4801 N   0  0  0  0  0  0  0  0  0  0  0  0
   21.1275   -7.8459  -16.3631 C   0  0  0  0  0  0  0  0  0  0  0  0
   20.8506   -8.3103  -15.2180 O   0  0  0  0  0  0  0  0  0  0  0  0
   21.6456   -6.5230  -16.4057 N   0  0  0  0  0  0  0  0  0  0  0  0
   21.8012   -5.7604  -15.1807 C   0  0  1  0  0  0  0  0  0  0  0  0
   23.2742   -5.4532  -15.0375 C   0  0  0  0  0  0  0  0  0  0  0  0
   24.1356   -6.6460  -14.9653 C   0  0  0  0  0  0  0  0  0  0  0  0
   23.9847   -7.5992  -13.9641 C   0  0  0  0  0  0  0  0  0  0  0  0
   24.8133   -8.6915  -13.9635 C   0  0  0  0  0  0  0  0  0  0  0  0
   25.8001   -8.9166  -14.8974 C   0  0  0  0  0  0  0  0  0  0  0  0
   25.9527   -7.9724  -15.8928 C   0  0  0  0  0  0  0  0  0  0  0  0
   25.1339   -6.8667  -15.9166 C   0  0  0  0  0  0  0  0  0  0  0  0
   21.0552   -4.4921  -15.2974 C   0  0  0  0  0  0  0  0  0  0  0  0
   20.9554   -3.5791  -14.2514 O   0  0  0  0  0  0  0  0  0  0  0  0
   20.4789   -4.2064  -16.3751 O   0  0  0  0  0  0  0  0  0  0  0  0
  2  1  1  6
  2  3  1  0
  3  4  1  0
  4  5  2  0
  5  6  1  0
  7  6  2  0
  8  7  1  0
  9  4  1  0
  9  8  2  0
 10  2  1  0
 11 10  2  0
 12 10  1  0
 13 20  1  0
 13 12  1  0
 13 14  1  1
 15 14  1  0
 16 15  2  0
 17 18  1  0
 17 16  1  0
 18 19  2  0
 19 15  1  0
 20 22  1  0
 21 20  2  0
 22 23  1  0
 23 31  1  0
 23 24  1  6
 25 24  1  0
 26 25  2  0
 27 26  1  0
 28 27  2  0
 28 29  1  0
 29 30  2  0
 30 25  1  0
 31 33  2  0
 31 32  1  0
M  END
$$$$
