FHF.pdb
     RDKit          3D

 33 35  0  0  1  0  0  0  0  0999 V2000
   24.3452  -12.8485  -23.7217 N   0  0  0  0  0  0  0  0  0  0  0  0
   25.0028  -12.7717  -22.4552 C   0  0  1  0  0  0  0  0  0  0  0  0
   25.2890  -11.3336  -22.1190 C   0  0  0  0  0  0  0  0  0  0  0  0
   26.1820  -10.7257  -23.1148 C   0  0  0  0  0  0  0  0  0  0  0  0
   25.6934   -9.7471  -23.9424 C   0  0  0  0  0  0  0  0  0  0  0  0
   26.4958   -9.1512  -24.8890 C   0  0  0  0  0  0  0  0  0  0  0  0
   27.8261   -9.5654  -24.9908 C   0  0  0  0  0  0  0  0  0  0  0  0
   28.3375  -10.5566  -24.1591 C   0  0  0  0  0  0  0  0  0  0  0  0
   27.4989  -11.1307  -23.2208 C   0  0  0  0  0  0  0  0  0  0  0  0
   24.2477  -13.4540  -21.3730 C   0  0  0  0  0  0  0  0  0  0  0  0
   23.0242  -13.6302  -21.5241 O   0  0  0  0  0  0  0  0  0  0  0  0
   24.8447  -13.9127  -20.1835 N   0  0  0  0  0  0  0  0  0  0  0  0
   24.1712  -14.6202  -19.1294 C   0  0  1  0  0  0  0  0  0  0  0  0
   24.7609  -15.9645  -18.8343 C   0  0  0  0  0  0  0  0  0  0  0  0
   24.7104  -16.9207  -19.9328 C   0  0  0  0  0  0  0  0  0  0  0  0
   23.7040  -17.7339  -20.3471 C   0  0  0  0  0  0  0  0  0  0  0  0
   24.1428  -18.4317  -21.4068 N   0  0  0  0  0  0  0  0  0  0  0  0
   25.4182  -18.0642  -21.6633 C   0  0  0  0  0  0  0  0  0  0  0  0
   25.7706  -17.1375  -20.7616 N   0  0  0  0  0  0  0  0  0  0  0  0
   23.9367  -13.7737  -17.9369 C   0  0  0  0  0  0  0  0  0  0  0  0
   24.8983  -13.4373  -17.1849 O   0  0  0  0  0  0  0  0  0  0  0  0
   22.6474  -13.2981  -17.5737 N   0  0  0  0  0  0  0  0  0  0  0  0
   22.4986  -12.3563  -16.4795 C   0  0  1  0  0  0  0  0  0  0  0  0
   23.1117  -11.0520  -16.9350 C   0  0  0  0  0  0  0  0  0  0  0  0
   24.5488  -10.9239  -16.6378 C   0  0  0  0  0  0  0  0  0  0  0  0
   25.4913  -10.7388  -17.6434 C   0  0  0  0  0  0  0  0  0  0  0  0
   26.8115  -10.6154  -17.2949 C   0  0  0  0  0  0  0  0  0  0  0  0
   27.2794  -10.6622  -16.0005 C   0  0  0  0  0  0  0  0  0  0  0  0
   26.3465  -10.8456  -14.9997 C   0  0  0  0  0  0  0  0  0  0  0  0
   25.0148  -10.9722  -15.3223 C   0  0  0  0  0  0  0  0  0  0  0  0
   21.0630  -12.1440  -16.2103 C   0  0  0  0  0  0  0  0  0  0  0  0
   20.5957  -11.5663  -15.0331 O   0  0  0  0  0  0  0  0  0  0  0  0
   20.2118  -12.4926  -17.0642 O   0  0  0  0  0  0  0  0  0  0  0  0
  2  1  1  6
  2  3  1  0
  3  4  1  0
  4  5  2  0
  5  6  1  0
  7  6  2  0
  8  7  1  0
  9  4  1  0
  9  8  2  0
 10  2  1  0
 11 10  2  0
 12 10  1  0
 13 20  1  0
 13 12  1  0
 13 14  1  1
 15 14  1  0
 16 15  2  0
 17 18  1  0
 17 16  1  0
 18 19  2  0
 19 15  1  0
 20 22  1  0
 21 20  2  0
 22 23  1  0
 23 31  1  0
 23 24  1  6
 25 24  1  0
 26 25  2  0
 27 26  1  0
 28 27  2  0
 28 29  1  0
 29 30  2  0
 30 25  1  0
 31 33  2  0
 31 32  1  0
M  END
$$$$
