FHF.pdb
     RDKit          3D

 33 35  0  0  1  0  0  0  0  0999 V2000
   25.4540  -17.1637  -18.3136 N   0  0  0  0  0  0  0  0  0  0  0  0
   25.4028  -17.2762  -16.8898 C   0  0  1  0  0  0  0  0  0  0  0  0
   24.6954  -16.0809  -16.3120 C   0  0  0  0  0  0  0  0  0  0  0  0
   25.5271  -14.8740  -16.4145 C   0  0  0  0  0  0  0  0  0  0  0  0
   25.3218  -14.0070  -17.4572 C   0  0  0  0  0  0  0  0  0  0  0  0
   26.0785  -12.8647  -17.5908 C   0  0  0  0  0  0  0  0  0  0  0  0
   27.0658  -12.6045  -16.6374 C   0  0  0  0  0  0  0  0  0  0  0  0
   27.2869  -13.4736  -15.5737 C   0  0  0  0  0  0  0  0  0  0  0  0
   26.5054  -14.6106  -15.4749 C   0  0  0  0  0  0  0  0  0  0  0  0
   24.7945  -18.5531  -16.4355 C   0  0  0  0  0  0  0  0  0  0  0  0
   23.9039  -19.0682  -17.1373 O   0  0  0  0  0  0  0  0  0  0  0  0
   25.1733  -19.2122  -15.2506 N   0  0  0  0  0  0  0  0  0  0  0  0
   24.6275  -20.4531  -14.7735 C   0  0  1  0  0  0  0  0  0  0  0  0
   25.6616  -21.4107  -14.2680 C   0  0  0  0  0  0  0  0  0  0  0  0
   26.6300  -21.8611  -15.2594 C   0  0  0  0  0  0  0  0  0  0  0  0
   26.7371  -23.0492  -15.9096 C   0  0  0  0  0  0  0  0  0  0  0  0
   27.7978  -22.9802  -16.7297 N   0  0  0  0  0  0  0  0  0  0  0  0
   28.3599  -21.7573  -16.6011 C   0  0  0  0  0  0  0  0  0  0  0  0
   27.6468  -21.0675  -15.7002 N   0  0  0  0  0  0  0  0  0  0  0  0
   23.4739  -20.2546  -13.8662 C   0  0  0  0  0  0  0  0  0  0  0  0
   23.5993  -19.5827  -12.8002 O   0  0  0  0  0  0  0  0  0  0  0  0
   22.1856  -20.7932  -14.1319 N   0  0  0  0  0  0  0  0  0  0  0  0
   21.0491  -20.4016  -13.3187 C   0  0  1  0  0  0  0  0  0  0  0  0
   20.8534  -18.9166  -13.5217 C   0  0  0  0  0  0  0  0  0  0  0  0
   20.4633  -18.5406  -14.8916 C   0  0  0  0  0  0  0  0  0  0  0  0
   19.1392  -18.5839  -15.3143 C   0  0  0  0  0  0  0  0  0  0  0  0
   18.8451  -18.2089  -16.5998 C   0  0  0  0  0  0  0  0  0  0  0  0
   19.7807  -17.7858  -17.5174 C   0  0  0  0  0  0  0  0  0  0  0  0
   21.0962  -17.7415  -17.1011 C   0  0  0  0  0  0  0  0  0  0  0  0
   21.4186  -18.1124  -15.8159 C   0  0  0  0  0  0  0  0  0  0  0  0
   19.8445  -21.1134  -13.7886 C   0  0  0  0  0  0  0  0  0  0  0  0
   18.6367  -21.0860  -13.0970 O   0  0  0  0  0  0  0  0  0  0  0  0
   19.8899  -21.7776  -14.8526 O   0  0  0  0  0  0  0  0  0  0  0  0
  2  1  1  6
  2  3  1  0
  3  4  1  0
  4  5  2  0
  5  6  1  0
  7  6  2  0
  8  7  1  0
  9  4  1  0
  9  8  2  0
 10  2  1  0
 11 10  2  0
 12 10  1  0
 13 20  1  0
 13 12  1  0
 13 14  1  1
 15 14  1  0
 16 15  2  0
 17 18  1  0
 17 16  1  0
 18 19  2  0
 19 15  1  0
 20 22  1  0
 21 20  2  0
 22 23  1  0
 23 31  1  0
 23 24  1  6
 25 24  1  0
 26 25  2  0
 27 26  1  0
 28 27  2  0
 28 29  1  0
 29 30  2  0
 30 25  1  0
 31 33  2  0
 31 32  1  0
M  END
$$$$
