FHF.pdb
     RDKit          3D

 33 35  0  0  1  0  0  0  0  0999 V2000
   26.0554  -17.9948  -17.6074 N   0  0  0  0  0  0  0  0  0  0  0  0
   26.2426  -18.2125  -16.2074 C   0  0  1  0  0  0  0  0  0  0  0  0
   25.4992  -17.1627  -15.4273 C   0  0  0  0  0  0  0  0  0  0  0  0
   26.3192  -15.9567  -15.2496 C   0  0  0  0  0  0  0  0  0  0  0  0
   27.5778  -15.9177  -15.7932 C   0  0  0  0  0  0  0  0  0  0  0  0
   28.3793  -14.8075  -15.6505 C   0  0  0  0  0  0  0  0  0  0  0  0
   27.8822  -13.7145  -14.9364 C   0  0  0  0  0  0  0  0  0  0  0  0
   26.6078  -13.7379  -14.3787 C   0  0  0  0  0  0  0  0  0  0  0  0
   25.8337  -14.8721  -14.5445 C   0  0  0  0  0  0  0  0  0  0  0  0
   25.8681  -19.5864  -15.7841 C   0  0  0  0  0  0  0  0  0  0  0  0
   24.9234  -20.1498  -16.3682 O   0  0  0  0  0  0  0  0  0  0  0  0
   26.5269  -20.2855  -14.7551 N   0  0  0  0  0  0  0  0  0  0  0  0
   26.2809  -21.6517  -14.3826 C   0  0  1  0  0  0  0  0  0  0  0  0
   27.5287  -22.4503  -14.1655 C   0  0  0  0  0  0  0  0  0  0  0  0
   28.3811  -22.6037  -15.3375 C   0  0  0  0  0  0  0  0  0  0  0  0
   28.2289  -22.1372  -16.6044 C   0  0  0  0  0  0  0  0  0  0  0  0
   29.2852  -22.5434  -17.3267 N   0  0  0  0  0  0  0  0  0  0  0  0
   30.1019  -23.2623  -16.5242 C   0  0  0  0  0  0  0  0  0  0  0  0
   29.5513  -23.3019  -15.3031 N   0  0  0  0  0  0  0  0  0  0  0  0
   25.2742  -21.7735  -13.3032 C   0  0  0  0  0  0  0  0  0  0  0  0
   24.8484  -22.9104  -12.9432 O   0  0  0  0  0  0  0  0  0  0  0  0
   24.7384  -20.6474  -12.6213 N   0  0  0  0  0  0  0  0  0  0  0  0
   23.7226  -20.8278  -11.6006 C   0  0  1  0  0  0  0  0  0  0  0  0
   24.0070  -19.8171  -10.5132 C   0  0  0  0  0  0  0  0  0  0  0  0
   25.1511  -20.1625   -9.6520 C   0  0  0  0  0  0  0  0  0  0  0  0
   25.3421  -21.4528   -9.1700 C   0  0  0  0  0  0  0  0  0  0  0  0
   26.4353  -21.7073   -8.3826 C   0  0  0  0  0  0  0  0  0  0  0  0
   27.3728  -20.7626   -8.0288 C   0  0  0  0  0  0  0  0  0  0  0  0
   27.1864  -19.4807   -8.5057 C   0  0  0  0  0  0  0  0  0  0  0  0
   26.0975  -19.1984   -9.2982 C   0  0  0  0  0  0  0  0  0  0  0  0
   22.3939  -20.5489  -12.1799 C   0  0  0  0  0  0  0  0  0  0  0  0
   22.2209  -20.1168  -13.4918 O   0  0  0  0  0  0  0  0  0  0  0  0
   21.3649  -20.7001  -11.4774 O   0  0  0  0  0  0  0  0  0  0  0  0
  2  1  1  6
  2  3  1  0
  3  4  1  0
  4  5  2  0
  5  6  1  0
  7  6  2  0
  8  7  1  0
  9  4  1  0
  9  8  2  0
 10  2  1  0
 11 10  2  0
 12 10  1  0
 13 20  1  0
 13 12  1  0
 13 14  1  1
 15 14  1  0
 16 15  2  0
 17 18  1  0
 17 16  1  0
 18 19  2  0
 19 15  1  0
 20 22  1  0
 21 20  2  0
 22 23  1  0
 23 31  1  0
 23 24  1  1
 25 24  1  0
 26 25  2  0
 27 26  1  0
 28 27  2  0
 28 29  1  0
 29 30  2  0
 30 25  1  0
 31 33  2  0
 31 32  1  0
M  END
$$$$
