DKP.pdb
     RDKit          3D

 25 25  0  0  1  0  0  0  0  0999 V2000
   16.6806  -11.7662  -14.6724 N   0  0  0  0  0  0  0  0  0  0  0  0
   17.2123  -11.8526  -16.0044 C   0  0  1  0  0  0  0  0  0  0  0  0
   16.4697  -12.9916  -16.7125 C   0  0  0  0  0  0  0  0  0  0  0  0
   16.9066  -14.2976  -16.1164 C   0  0  0  0  0  0  0  0  0  0  0  0
   16.0623  -15.2259  -16.0549 O   0  0  0  0  0  0  0  0  0  0  0  0
   16.9735  -10.5657  -16.7041 C   0  0  0  0  0  0  0  0  0  0  0  0
   17.3116  -10.4185  -17.9058 O   0  0  0  0  0  0  0  0  0  0  0  0
   18.1894  -14.4862  -15.6479 O   0  0  0  0  0  0  0  0  0  0  0  0
   16.3456   -9.4461  -16.0235 N   0  0  0  0  0  0  0  0  0  0  0  0
   16.1685   -8.2021  -16.7185 C   0  0  1  0  0  0  0  0  0  0  0  0
   14.8404   -7.5820  -16.4156 C   0  0  0  0  0  0  0  0  0  0  0  0
   14.5467   -7.3312  -15.0015 C   0  0  0  0  0  0  0  0  0  0  0  0
   13.2550   -6.6616  -14.6740 C   0  0  0  0  0  0  0  0  0  0  0  0
   13.0862   -6.4814  -13.1838 C   0  0  0  0  0  0  0  0  0  0  0  0
   11.8627   -5.7375  -12.9387 N   0  0  0  0  0  0  0  0  0  0  0  0
   17.2681   -7.2810  -16.2350 C   0  0  0  0  0  0  0  0  0  0  0  0
   17.8117   -7.6263  -15.1315 O   0  0  0  0  0  0  0  0  0  0  0  0
   17.6758   -6.1325  -16.9300 N   0  0  0  0  0  0  0  0  0  0  0  0
   17.0670   -5.6186  -18.1368 C   0  0  0  0  0  0  0  0  0  0  0  0
   18.1444   -4.7520  -18.7965 C   0  0  0  0  0  0  0  0  0  0  0  0
   19.3884   -5.0833  -17.9563 C   0  0  0  0  0  0  0  0  0  0  0  0
   18.7210   -5.2178  -16.5930 C   0  0  1  0  0  0  0  0  0  0  0  0
   18.1068   -3.9192  -16.1885 C   0  0  0  0  0  0  0  0  0  0  0  0
   18.8438   -3.0269  -15.7422 O   0  0  0  0  0  0  0  0  0  0  0  0
   16.7535   -3.6701  -16.2904 O   0  0  0  0  0  0  0  0  0  0  0  0
  2  3  1  0
  2  1  1  1
  3  4  1  0
  4  8  1  0
  4  5  2  0
  6  2  1  0
  7  6  2  0
  9  6  1  0
 10  9  1  0
 10 11  1  1
 11 12  1  0
 12 13  1  0
 13 14  1  0
 14 15  1  0
 16 17  2  0
 16 10  1  0
 18 16  1  0
 19 18  1  0
 20 21  1  0
 20 19  1  0
 21 22  1  0
 22 23  1  6
 22 18  1  0
 23 25  1  0
 24 23  2  0
M  END
$$$$
