DKP.pdb
     RDKit          3D

 25 25  0  0  1  0  0  0  0  0999 V2000
   27.5568  -21.5801  -18.3681 N   0  0  0  0  0  0  0  0  0  0  0  0
   28.3072  -22.0051  -17.2189 C   0  0  1  0  0  0  0  0  0  0  0  0
   29.7663  -21.6004  -17.4593 C   0  0  0  0  0  0  0  0  0  0  0  0
   30.2784  -22.3322  -18.6651 C   0  0  0  0  0  0  0  0  0  0  0  0
   29.4852  -23.0984  -19.2670 O   0  0  0  0  0  0  0  0  0  0  0  0
   27.7730  -21.3228  -16.0140 C   0  0  0  0  0  0  0  0  0  0  0  0
   28.3980  -21.3662  -14.9242 O   0  0  0  0  0  0  0  0  0  0  0  0
   31.5745  -22.1780  -19.1089 O   0  0  0  0  0  0  0  0  0  0  0  0
   26.5196  -20.5895  -16.0599 N   0  0  0  0  0  0  0  0  0  0  0  0
   26.0389  -19.9309  -14.8779 C   0  0  1  0  0  0  0  0  0  0  0  0
   25.1248  -18.7933  -15.2099 C   0  0  0  0  0  0  0  0  0  0  0  0
   25.7265  -17.6610  -15.9202 C   0  0  0  0  0  0  0  0  0  0  0  0
   24.8405  -16.5104  -16.2594 C   0  0  0  0  0  0  0  0  0  0  0  0
   25.5758  -15.4614  -17.0597 C   0  0  0  0  0  0  0  0  0  0  0  0
   24.6513  -14.3891  -17.3856 N   0  0  0  0  0  0  0  0  0  0  0  0
   25.2713  -20.9709  -14.0903 C   0  0  0  0  0  0  0  0  0  0  0  0
   24.7879  -21.9252  -14.7890 O   0  0  0  0  0  0  0  0  0  0  0  0
   25.0932  -20.9117  -12.6999 N   0  0  0  0  0  0  0  0  0  0  0  0
   25.5237  -19.8304  -11.8416 C   0  0  0  0  0  0  0  0  0  0  0  0
   25.6271  -20.4420  -10.4408 C   0  0  0  0  0  0  0  0  0  0  0  0
   25.4580  -21.9429  -10.7275 C   0  0  0  0  0  0  0  0  0  0  0  0
   24.4324  -21.8526  -11.8509 C   0  0  1  0  0  0  0  0  0  0  0  0
   23.1692  -21.2369  -11.3484 C   0  0  0  0  0  0  0  0  0  0  0  0
   22.3987  -21.9322  -10.6690 O   0  0  0  0  0  0  0  0  0  0  0  0
   22.8229  -19.9268  -11.6082 O   0  0  0  0  0  0  0  0  0  0  0  0
  2  3  1  0
  2  1  1  6
  3  4  1  0
  4  8  1  0
  4  5  2  0
  6  2  1  0
  7  6  2  0
  9  6  1  0
 10  9  1  0
 10 11  1  6
 11 12  1  0
 12 13  1  0
 13 14  1  0
 14 15  1  0
 16 17  2  0
 16 10  1  0
 18 16  1  0
 19 18  1  0
 20 21  1  0
 20 19  1  0
 21 22  1  0
 22 23  1  1
 22 18  1  0
 23 25  1  0
 24 23  2  0
M  END
$$$$
