DKP.pdb
     RDKit          3D

 25 25  0  0  1  0  0  0  0  0999 V2000
   17.5962  -14.3279  -17.1600 N   0  0  0  0  0  0  0  0  0  0  0  0
   18.1665  -14.4769  -15.8496 C   0  0  1  0  0  0  0  0  0  0  0  0
   18.4278  -15.9729  -15.6400 C   0  0  0  0  0  0  0  0  0  0  0  0
   17.1181  -16.6625  -15.3934 C   0  0  0  0  0  0  0  0  0  0  0  0
   16.0740  -15.9641  -15.4161 O   0  0  0  0  0  0  0  0  0  0  0  0
   19.4390  -13.7158  -15.7873 C   0  0  0  0  0  0  0  0  0  0  0  0
   20.1478  -13.7382  -14.7494 O   0  0  0  0  0  0  0  0  0  0  0  0
   17.0484  -18.0174  -15.1487 O   0  0  0  0  0  0  0  0  0  0  0  0
   19.8989  -12.9277  -16.9179 N   0  0  0  0  0  0  0  0  0  0  0  0
   21.0703  -12.1083  -16.7824 C   0  0  1  0  0  0  0  0  0  0  0  0
   21.5172  -11.5575  -18.1003 C   0  0  0  0  0  0  0  0  0  0  0  0
   22.6919  -10.6811  -18.0746 C   0  0  0  0  0  0  0  0  0  0  0  0
   23.0781  -10.0083  -19.3483 C   0  0  0  0  0  0  0  0  0  0  0  0
   24.3076   -9.1490  -19.1708 C   0  0  0  0  0  0  0  0  0  0  0  0
   24.6350   -8.5329  -20.4451 N   0  0  0  0  0  0  0  0  0  0  0  0
   20.6885  -10.9629  -15.8694 C   0  0  0  0  0  0  0  0  0  0  0  0
   19.4660  -10.5996  -15.9457 O   0  0  0  0  0  0  0  0  0  0  0  0
   21.5912  -10.3351  -14.9980 N   0  0  0  0  0  0  0  0  0  0  0  0
   23.0261  -10.5144  -15.0001 C   0  0  0  0  0  0  0  0  0  0  0  0
   23.4867  -10.1106  -13.5959 C   0  0  0  0  0  0  0  0  0  0  0  0
   22.1530   -9.9633  -12.8455 C   0  0  0  0  0  0  0  0  0  0  0  0
   21.3129   -9.3776  -13.9739 C   0  0  1  0  0  0  0  0  0  0  0  0
   21.8630   -8.0557  -14.3945 C   0  0  0  0  0  0  0  0  0  0  0  0
   22.4848   -7.9844  -15.4654 O   0  0  0  0  0  0  0  0  0  0  0  0
   21.7088   -6.9097  -13.6416 O   0  0  0  0  0  0  0  0  0  0  0  0
  2  3  1  0
  2  1  1  6
  3  4  1  0
  4  8  1  0
  4  5  2  0
  6  2  1  0
  7  6  2  0
  9  6  1  0
 10  9  1  0
 10 11  1  6
 11 12  1  0
 12 13  1  0
 13 14  1  0
 14 15  1  0
 16 17  2  0
 16 10  1  0
 18 16  1  0
 19 18  1  0
 20 21  1  0
 20 19  1  0
 21 22  1  0
 22 23  1  6
 22 18  1  0
 23 25  1  0
 24 23  2  0
M  END
$$$$
