DKP.pdb
     RDKit          3D

 25 25  0  0  1  0  0  0  0  0999 V2000
   24.6483  -11.8061  -18.1990 N   0  0  0  0  0  0  0  0  0  0  0  0
   24.4214  -11.3412  -16.8585 C   0  0  1  0  0  0  0  0  0  0  0  0
   25.7844  -10.9345  -16.2865 C   0  0  0  0  0  0  0  0  0  0  0  0
   26.6086  -12.1708  -16.0759 C   0  0  0  0  0  0  0  0  0  0  0  0
   26.0842  -13.2790  -16.3501 O   0  0  0  0  0  0  0  0  0  0  0  0
   23.5086  -10.1718  -16.9009 C   0  0  0  0  0  0  0  0  0  0  0  0
   23.6842   -9.2532  -17.7408 O   0  0  0  0  0  0  0  0  0  0  0  0
   27.9000  -12.1068  -15.5978 O   0  0  0  0  0  0  0  0  0  0  0  0
   22.3924  -10.0565  -15.9781 N   0  0  0  0  0  0  0  0  0  0  0  0
   21.5043   -8.9323  -16.0752 C   0  0  1  0  0  0  0  0  0  0  0  0
   20.1219   -9.2764  -15.6163 C   0  0  0  0  0  0  0  0  0  0  0  0
   19.1288   -8.2001  -15.6787 C   0  0  0  0  0  0  0  0  0  0  0  0
   17.7375   -8.5199  -15.2474 C   0  0  0  0  0  0  0  0  0  0  0  0
   16.8148   -7.3381  -15.4303 C   0  0  0  0  0  0  0  0  0  0  0  0
   15.4589   -7.7499  -15.1101 N   0  0  0  0  0  0  0  0  0  0  0  0
   22.0735   -7.8577  -15.1738 C   0  0  0  0  0  0  0  0  0  0  0  0
   22.6292   -8.2897  -14.1075 O   0  0  0  0  0  0  0  0  0  0  0  0
   22.0081   -6.4875  -15.4679 N   0  0  0  0  0  0  0  0  0  0  0  0
   21.3020   -5.8991  -16.5843 C   0  0  0  0  0  0  0  0  0  0  0  0
   21.9604   -4.5337  -16.8056 C   0  0  0  0  0  0  0  0  0  0  0  0
   23.1883   -4.6109  -15.8837 C   0  0  0  0  0  0  0  0  0  0  0  0
   22.5688   -5.3965  -14.7343 C   0  0  1  0  0  0  0  0  0  0  0  0
   21.4574   -4.6162  -14.1155 C   0  0  0  0  0  0  0  0  0  0  0  0
   21.7357   -3.7609  -13.2613 O   0  0  0  0  0  0  0  0  0  0  0  0
   20.1334   -4.8066  -14.4540 O   0  0  0  0  0  0  0  0  0  0  0  0
  2  3  1  0
  2  1  1  6
  3  4  1  0
  4  8  1  0
  4  5  2  0
  6  2  1  0
  7  6  2  0
  9  6  1  0
 10  9  1  0
 10 11  1  1
 11 12  1  0
 12 13  1  0
 13 14  1  0
 14 15  1  0
 16 17  2  0
 16 10  1  0
 18 16  1  0
 19 18  1  0
 20 21  1  0
 20 19  1  0
 21 22  1  0
 22 23  1  6
 22 18  1  0
 23 25  1  0
 24 23  2  0
M  END
$$$$
