DKP.pdb
     RDKit          3D

 25 25  0  0  1  0  0  0  0  0999 V2000
   25.8037  -16.6127  -18.4654 N   0  0  0  0  0  0  0  0  0  0  0  0
   26.4551  -17.7040  -17.7950 C   0  0  1  0  0  0  0  0  0  0  0  0
   27.8638  -17.2271  -17.4229 C   0  0  0  0  0  0  0  0  0  0  0  0
   28.6823  -17.1134  -18.6755 C   0  0  0  0  0  0  0  0  0  0  0  0
   28.7111  -18.1028  -19.4491 O   0  0  0  0  0  0  0  0  0  0  0  0
   25.6860  -18.0484  -16.5734 C   0  0  0  0  0  0  0  0  0  0  0  0
   25.4621  -17.1802  -15.6923 O   0  0  0  0  0  0  0  0  0  0  0  0
   29.3845  -15.9667  -18.9795 O   0  0  0  0  0  0  0  0  0  0  0  0
   25.1729  -19.3912  -16.3626 N   0  0  0  0  0  0  0  0  0  0  0  0
   24.4539  -19.6952  -15.1574 C   0  0  1  0  0  0  0  0  0  0  0  0
   23.0383  -20.0900  -15.4408 C   0  0  0  0  0  0  0  0  0  0  0  0
   22.2187  -19.1059  -16.1540 C   0  0  0  0  0  0  0  0  0  0  0  0
   20.8623  -19.5338  -16.6024 C   0  0  0  0  0  0  0  0  0  0  0  0
   20.1840  -18.4596  -17.4195 C   0  0  0  0  0  0  0  0  0  0  0  0
   18.8525  -18.9165  -17.7787 N   0  0  0  0  0  0  0  0  0  0  0  0
   25.1739  -20.8593  -14.5111 C   0  0  0  0  0  0  0  0  0  0  0  0
   25.8876  -21.5586  -15.3075 O   0  0  0  0  0  0  0  0  0  0  0  0
   25.0800  -21.1642  -13.1449 N   0  0  0  0  0  0  0  0  0  0  0  0
   24.2941  -20.4375  -12.1725 C   0  0  0  0  0  0  0  0  0  0  0  0
   24.9274  -20.7621  -10.8159 C   0  0  0  0  0  0  0  0  0  0  0  0
   26.2171  -21.4921  -11.2249 C   0  0  0  0  0  0  0  0  0  0  0  0
   25.6841  -22.2482  -12.4359 C   0  0  1  0  0  0  0  0  0  0  0  0
   24.6140  -23.2014  -12.0195 C   0  0  0  0  0  0  0  0  0  0  0  0
   24.9470  -24.2977  -11.5441 O   0  0  0  0  0  0  0  0  0  0  0  0
   23.2700  -22.9139  -12.1412 O   0  0  0  0  0  0  0  0  0  0  0  0
  2  3  1  0
  2  1  1  1
  3  4  1  0
  4  8  1  0
  4  5  2  0
  6  2  1  0
  7  6  2  0
  9  6  1  0
 10  9  1  0
 10 11  1  6
 11 12  1  0
 12 13  1  0
 13 14  1  0
 14 15  1  0
 16 17  2  0
 16 10  1  0
 18 16  1  0
 19 18  1  0
 20 21  1  0
 20 19  1  0
 21 22  1  0
 22 23  1  1
 22 18  1  0
 23 25  1  0
 24 23  2  0
M  END
$$$$
