DKP.pdb
     RDKit          3D

 25 25  0  0  1  0  0  0  0  0999 V2000
   24.4226  -11.9855  -17.9095 N   0  0  0  0  0  0  0  0  0  0  0  0
   24.3195  -11.4022  -16.6004 C   0  0  1  0  0  0  0  0  0  0  0  0
   25.7148  -10.8904  -16.2246 C   0  0  0  0  0  0  0  0  0  0  0  0
   26.6517  -12.0595  -16.1390 C   0  0  0  0  0  0  0  0  0  0  0  0
   26.2611  -13.0800  -15.5192 O   0  0  0  0  0  0  0  0  0  0  0  0
   23.3515  -10.2783  -16.6474 C   0  0  0  0  0  0  0  0  0  0  0  0
   23.3884   -9.4408  -17.5841 O   0  0  0  0  0  0  0  0  0  0  0  0
   27.9029  -12.0280  -16.7170 O   0  0  0  0  0  0  0  0  0  0  0  0
   22.3396  -10.1150  -15.6177 N   0  0  0  0  0  0  0  0  0  0  0  0
   21.4370   -8.9999  -15.6800 C   0  0  1  0  0  0  0  0  0  0  0  0
   20.1200   -9.3163  -15.0432 C   0  0  0  0  0  0  0  0  0  0  0  0
   19.3338  -10.3830  -15.6699 C   0  0  0  0  0  0  0  0  0  0  0  0
   18.0360  -10.7483  -15.0324 C   0  0  0  0  0  0  0  0  0  0  0  0
   17.3301  -11.8417  -15.7990 C   0  0  0  0  0  0  0  0  0  0  0  0
   16.0450  -12.0976  -15.1716 N   0  0  0  0  0  0  0  0  0  0  0  0
   22.0980   -7.8709  -14.9186 C   0  0  0  0  0  0  0  0  0  0  0  0
   22.8965   -8.2423  -13.9929 O   0  0  0  0  0  0  0  0  0  0  0  0
   21.8669   -6.5145  -15.1926 N   0  0  0  0  0  0  0  0  0  0  0  0
   20.8867   -5.9987  -16.1224 C   0  0  0  0  0  0  0  0  0  0  0  0
   21.3757   -4.5938  -16.4884 C   0  0  0  0  0  0  0  0  0  0  0  0
   22.7813   -4.5659  -15.8663 C   0  0  0  0  0  0  0  0  0  0  0  0
   22.4955   -5.3729  -14.6057 C   0  0  1  0  0  0  0  0  0  0  0  0
   21.4965   -4.6633  -13.7539 C   0  0  0  0  0  0  0  0  0  0  0  0
   20.2992   -4.9691  -13.8624 O   0  0  0  0  0  0  0  0  0  0  0  0
   21.8492   -3.6814  -12.8509 O   0  0  0  0  0  0  0  0  0  0  0  0
  2  3  1  0
  2  1  1  6
  3  4  1  0
  4  8  1  0
  4  5  2  0
  6  2  1  0
  7  6  2  0
  9  6  1  0
 10  9  1  0
 10 11  1  1
 11 12  1  0
 12 13  1  0
 13 14  1  0
 14 15  1  0
 16 17  2  0
 16 10  1  0
 18 16  1  0
 19 18  1  0
 20 21  1  0
 20 19  1  0
 21 22  1  0
 22 23  1  1
 22 18  1  0
 23 25  1  0
 24 23  2  0
M  END
$$$$
