DKP.pdb
     RDKit          3D

 25 25  0  0  1  0  0  0  0  0999 V2000
   16.7328  -10.5672  -17.2638 N   0  0  0  0  0  0  0  0  0  0  0  0
   16.8636  -10.4900  -15.8350 C   0  0  1  0  0  0  0  0  0  0  0  0
   16.7252  -11.9173  -15.2928 C   0  0  0  0  0  0  0  0  0  0  0  0
   15.2671  -12.2583  -15.1956 C   0  0  0  0  0  0  0  0  0  0  0  0
   14.5514  -12.0682  -16.2104 O   0  0  0  0  0  0  0  0  0  0  0  0
   18.1998   -9.9372  -15.5015 C   0  0  0  0  0  0  0  0  0  0  0  0
   18.5616   -9.8168  -14.3037 O   0  0  0  0  0  0  0  0  0  0  0  0
   14.7179  -12.7643  -14.0368 O   0  0  0  0  0  0  0  0  0  0  0  0
   19.1224   -9.5218  -16.5442 N   0  0  0  0  0  0  0  0  0  0  0  0
   20.4046   -8.9846  -16.1847 C   0  0  1  0  0  0  0  0  0  0  0  0
   21.3778   -9.0663  -17.3188 C   0  0  0  0  0  0  0  0  0  0  0  0
   22.5503   -8.1906  -17.2345 C   0  0  0  0  0  0  0  0  0  0  0  0
   23.5125   -8.2153  -18.3736 C   0  0  0  0  0  0  0  0  0  0  0  0
   24.7468   -7.3976  -18.0746 C   0  0  0  0  0  0  0  0  0  0  0  0
   25.5472   -7.3005  -19.2831 N   0  0  0  0  0  0  0  0  0  0  0  0
   20.1758   -7.5307  -15.8307 C   0  0  0  0  0  0  0  0  0  0  0  0
   19.4148   -6.8949  -16.6364 O   0  0  0  0  0  0  0  0  0  0  0  0
   20.7446   -6.9095  -14.7087 N   0  0  0  0  0  0  0  0  0  0  0  0
   21.6957   -7.5151  -13.8033 C   0  0  0  0  0  0  0  0  0  0  0  0
   21.5826   -6.7143  -12.5022 C   0  0  0  0  0  0  0  0  0  0  0  0
   20.3411   -5.8455  -12.7614 C   0  0  0  0  0  0  0  0  0  0  0  0
   20.5531   -5.5712  -14.2452 C   0  0  1  0  0  0  0  0  0  0  0  0
   21.8187   -4.8083  -14.4536 C   0  0  0  0  0  0  0  0  0  0  0  0
   21.8446   -3.6060  -14.1494 O   0  0  0  0  0  0  0  0  0  0  0  0
   22.9609   -5.3847  -14.9704 O   0  0  0  0  0  0  0  0  0  0  0  0
  2  3  1  0
  2  1  1  6
  3  4  1  0
  4  8  1  0
  4  5  2  0
  6  2  1  0
  7  6  2  0
  9  6  1  0
 10  9  1  0
 10 11  1  6
 11 12  1  0
 12 13  1  0
 13 14  1  0
 14 15  1  0
 16 17  2  0
 16 10  1  0
 18 16  1  0
 19 18  1  0
 20 21  1  0
 20 19  1  0
 21 22  1  0
 22 23  1  1
 22 18  1  0
 23 25  1  0
 24 23  2  0
M  END
$$$$
