DKP.pdb
     RDKit          3D

 25 25  0  0  1  0  0  0  0  0999 V2000
   20.5302  -17.5829  -15.7088 N   0  0  0  0  0  0  0  0  0  0  0  0
   19.7689  -16.4183  -15.3506 C   0  0  1  0  0  0  0  0  0  0  0  0
   19.4483  -16.5323  -13.8557 C   0  0  0  0  0  0  0  0  0  0  0  0
   18.4507  -17.6357  -13.6581 C   0  0  0  0  0  0  0  0  0  0  0  0
   17.5759  -17.8012  -14.5444 O   0  0  0  0  0  0  0  0  0  0  0  0
   20.5858  -15.2075  -15.6136 C   0  0  0  0  0  0  0  0  0  0  0  0
   21.7537  -15.1125  -15.1584 O   0  0  0  0  0  0  0  0  0  0  0  0
   18.4817  -18.4485  -12.5450 O   0  0  0  0  0  0  0  0  0  0  0  0
   20.0618  -14.1042  -16.4002 N   0  0  0  0  0  0  0  0  0  0  0  0
   20.8780  -12.9451  -16.6291 C   0  0  1  0  0  0  0  0  0  0  0  0
   20.3907  -12.1456  -17.7967 C   0  0  0  0  0  0  0  0  0  0  0  0
   20.3849  -12.8267  -19.0947 C   0  0  0  0  0  0  0  0  0  0  0  0
   19.8850  -12.0611  -20.2728 C   0  0  0  0  0  0  0  0  0  0  0  0
   19.8639  -12.9134  -21.5196 C   0  0  0  0  0  0  0  0  0  0  0  0
   19.3806  -12.1082  -22.6281 N   0  0  0  0  0  0  0  0  0  0  0  0
   20.7845  -12.1011  -15.3760 C   0  0  0  0  0  0  0  0  0  0  0  0
   19.7169  -12.2681  -14.6942 O   0  0  0  0  0  0  0  0  0  0  0  0
   21.7820  -11.1999  -14.9748 N   0  0  0  0  0  0  0  0  0  0  0  0
   22.9290  -10.8082  -15.7634 C   0  0  0  0  0  0  0  0  0  0  0  0
   23.9620  -10.3015  -14.7519 C   0  0  0  0  0  0  0  0  0  0  0  0
   23.3301  -10.7068  -13.4103 C   0  0  0  0  0  0  0  0  0  0  0  0
   21.8670  -10.4580  -13.7561 C   0  0  1  0  0  0  0  0  0  0  0  0
   21.6468   -9.0137  -14.0604 C   0  0  0  0  0  0  0  0  0  0  0  0
   21.5131   -8.6697  -15.2446 O   0  0  0  0  0  0  0  0  0  0  0  0
   21.5859   -8.0453  -13.0794 O   0  0  0  0  0  0  0  0  0  0  0  0
  2  3  1  0
  2  1  1  1
  3  4  1  0
  4  8  1  0
  4  5  2  0
  6  2  1  0
  7  6  2  0
  9  6  1  0
 10  9  1  0
 10 11  1  6
 11 12  1  0
 12 13  1  0
 13 14  1  0
 14 15  1  0
 16 17  2  0
 16 10  1  0
 18 16  1  0
 19 18  1  0
 20 21  1  0
 20 19  1  0
 21 22  1  0
 22 23  1  6
 22 18  1  0
 23 25  1  0
 24 23  2  0
M  END
$$$$
