DKP.pdb
     RDKit          3D

 25 25  0  0  1  0  0  0  0  0999 V2000
   27.5318  -18.8611  -18.2273 N   0  0  0  0  0  0  0  0  0  0  0  0
   26.8165  -20.0496  -18.6017 C   0  0  1  0  0  0  0  0  0  0  0  0
   27.7614  -20.8890  -19.4694 C   0  0  0  0  0  0  0  0  0  0  0  0
   28.0160  -20.1570  -20.7544 C   0  0  0  0  0  0  0  0  0  0  0  0
   27.0428  -19.5864  -21.3071 O   0  0  0  0  0  0  0  0  0  0  0  0
   26.4422  -20.7949  -17.3741 C   0  0  0  0  0  0  0  0  0  0  0  0
   25.9694  -21.9572  -17.4504 O   0  0  0  0  0  0  0  0  0  0  0  0
   29.2718  -20.1045  -21.3207 O   0  0  0  0  0  0  0  0  0  0  0  0
   26.6109  -20.2056  -16.0569 N   0  0  0  0  0  0  0  0  0  0  0  0
   26.1471  -20.9145  -14.8975 C   0  0  1  0  0  0  0  0  0  0  0  0
   26.9013  -20.5185  -13.6669 C   0  0  0  0  0  0  0  0  0  0  0  0
   26.4175  -21.0747  -12.3999 C   0  0  0  0  0  0  0  0  0  0  0  0
   27.1574  -20.7072  -11.1584 C   0  0  0  0  0  0  0  0  0  0  0  0
   26.5425  -21.3475   -9.9363 C   0  0  0  0  0  0  0  0  0  0  0  0
   27.3622  -21.0298   -8.7797 N   0  0  0  0  0  0  0  0  0  0  0  0
   24.6888  -20.5470  -14.7257 C   0  0  0  0  0  0  0  0  0  0  0  0
   24.4025  -19.3355  -15.0134 O   0  0  0  0  0  0  0  0  0  0  0  0
   23.7102  -21.4515  -14.2869 N   0  0  0  0  0  0  0  0  0  0  0  0
   23.9630  -22.7708  -13.7514 C   0  0  0  0  0  0  0  0  0  0  0  0
   22.6560  -23.5452  -13.9488 C   0  0  0  0  0  0  0  0  0  0  0  0
   21.8422  -22.5898  -14.8367 C   0  0  0  0  0  0  0  0  0  0  0  0
   22.2940  -21.2661  -14.2318 C   0  0  1  0  0  0  0  0  0  0  0  0
   21.8789  -21.1841  -12.8007 C   0  0  0  0  0  0  0  0  0  0  0  0
   22.7258  -21.4087  -11.9226 O   0  0  0  0  0  0  0  0  0  0  0  0
   20.5925  -20.8689  -12.4138 O   0  0  0  0  0  0  0  0  0  0  0  0
  2  3  1  0
  2  1  1  1
  3  4  1  0
  4  8  1  0
  4  5  2  0
  6  2  1  0
  7  6  2  0
  9  6  1  0
 10  9  1  0
 10 11  1  1
 11 12  1  0
 12 13  1  0
 13 14  1  0
 14 15  1  0
 16 17  2  0
 16 10  1  0
 18 16  1  0
 19 18  1  0
 20 21  1  0
 20 19  1  0
 21 22  1  0
 22 23  1  1
 22 18  1  0
 23 25  1  0
 24 23  2  0
M  END
$$$$
