DKP.pdb
     RDKit          3D

 25 25  0  0  1  0  0  0  0  0999 V2000
   20.4977  -18.9898  -14.9121 N   0  0  0  0  0  0  0  0  0  0  0  0
   21.3732  -20.1071  -15.1348 C   0  0  1  0  0  0  0  0  0  0  0  0
   21.4124  -20.3537  -16.6474 C   0  0  0  0  0  0  0  0  0  0  0  0
   20.6431  -21.6053  -16.9532 C   0  0  0  0  0  0  0  0  0  0  0  0
   19.7850  -21.9852  -16.1179 O   0  0  0  0  0  0  0  0  0  0  0  0
   22.7272  -19.7676  -14.6308 C   0  0  0  0  0  0  0  0  0  0  0  0
   23.2655  -18.6720  -14.9310 O   0  0  0  0  0  0  0  0  0  0  0  0
   20.8608  -22.3244  -18.1091 O   0  0  0  0  0  0  0  0  0  0  0  0
   23.4645  -20.6868  -13.7809 N   0  0  0  0  0  0  0  0  0  0  0  0
   24.8426  -20.4218  -13.4766 C   0  0  1  0  0  0  0  0  0  0  0  0
   25.3439  -21.2954  -12.3696 C   0  0  0  0  0  0  0  0  0  0  0  0
   24.9351  -20.9241  -11.0117 C   0  0  0  0  0  0  0  0  0  0  0  0
   23.5024  -21.1179  -10.6458 C   0  0  0  0  0  0  0  0  0  0  0  0
   23.2171  -20.6300   -9.2451 C   0  0  0  0  0  0  0  0  0  0  0  0
   21.7874  -20.7174   -9.0020 N   0  0  0  0  0  0  0  0  0  0  0  0
   25.6249  -20.7205  -14.7376 C   0  0  0  0  0  0  0  0  0  0  0  0
   25.0090  -21.4419  -15.5937 O   0  0  0  0  0  0  0  0  0  0  0  0
   26.9263  -20.2506  -14.9696 N   0  0  0  0  0  0  0  0  0  0  0  0
   27.8301  -19.7432  -13.9612 C   0  0  0  0  0  0  0  0  0  0  0  0
   28.8338  -18.8692  -14.7200 C   0  0  0  0  0  0  0  0  0  0  0  0
   28.2049  -18.7920  -16.1206 C   0  0  0  0  0  0  0  0  0  0  0  0
   27.6451  -20.2068  -16.2042 C   0  0  1  0  0  0  0  0  0  0  0  0
   28.7533  -21.2047  -16.1467 C   0  0  0  0  0  0  0  0  0  0  0  0
   28.9618  -21.8002  -15.0788 O   0  0  0  0  0  0  0  0  0  0  0  0
   29.5553  -21.4924  -17.2320 O   0  0  0  0  0  0  0  0  0  0  0  0
  2  3  1  0
  2  1  1  6
  3  4  1  0
  4  8  1  0
  4  5  2  0
  6  2  1  0
  7  6  2  0
  9  6  1  0
 10  9  1  0
 10 11  1  1
 11 12  1  0
 12 13  1  0
 13 14  1  0
 14 15  1  0
 16 17  2  0
 16 10  1  0
 18 16  1  0
 19 18  1  0
 20 21  1  0
 20 19  1  0
 21 22  1  0
 22 23  1  1
 22 18  1  0
 23 25  1  0
 24 23  2  0
M  END
$$$$
