DKP.pdb
     RDKit          3D

 25 25  0  0  1  0  0  0  0  0999 V2000
   27.4505  -18.8415  -18.7495 N   0  0  0  0  0  0  0  0  0  0  0  0
   26.5969  -18.2638  -17.7484 C   0  0  1  0  0  0  0  0  0  0  0  0
   25.3206  -17.7987  -18.4590 C   0  0  0  0  0  0  0  0  0  0  0  0
   25.6598  -16.6442  -19.3555 C   0  0  0  0  0  0  0  0  0  0  0  0
   26.3414  -15.7063  -18.8716 O   0  0  0  0  0  0  0  0  0  0  0  0
   26.2762  -19.2971  -16.7325 C   0  0  0  0  0  0  0  0  0  0  0  0
   25.7636  -20.3929  -17.0742 O   0  0  0  0  0  0  0  0  0  0  0  0
   25.2436  -16.6013  -20.6691 O   0  0  0  0  0  0  0  0  0  0  0  0
   26.5441  -19.0726  -15.3224 N   0  0  0  0  0  0  0  0  0  0  0  0
   26.1377  -20.0553  -14.3574 C   0  0  1  0  0  0  0  0  0  0  0  0
   26.8939  -19.9173  -13.0733 C   0  0  0  0  0  0  0  0  0  0  0  0
   27.9911  -20.8654  -12.8591 C   0  0  0  0  0  0  0  0  0  0  0  0
   28.7902  -20.7239  -11.6079 C   0  0  0  0  0  0  0  0  0  0  0  0
   29.9561  -21.6838  -11.5832 C   0  0  0  0  0  0  0  0  0  0  0  0
   30.6797  -21.5081  -10.3357 N   0  0  0  0  0  0  0  0  0  0  0  0
   24.6663  -19.8152  -14.0953 C   0  0  0  0  0  0  0  0  0  0  0  0
   24.2876  -18.6023  -14.2290 O   0  0  0  0  0  0  0  0  0  0  0  0
   23.7696  -20.8318  -13.7337 N   0  0  0  0  0  0  0  0  0  0  0  0
   24.1316  -22.1855  -13.3763 C   0  0  0  0  0  0  0  0  0  0  0  0
   22.8689  -23.0191  -13.6163 C   0  0  0  0  0  0  0  0  0  0  0  0
   21.9542  -22.0220  -14.3460 C   0  0  0  0  0  0  0  0  0  0  0  0
   22.3488  -20.7532  -13.6000 C   0  0  1  0  0  0  0  0  0  0  0  0
   21.9981  -20.8740  -12.1545 C   0  0  0  0  0  0  0  0  0  0  0  0
   22.8580  -21.2990  -11.3680 O   0  0  0  0  0  0  0  0  0  0  0  0
   20.7573  -20.5325  -11.6567 O   0  0  0  0  0  0  0  0  0  0  0  0
  2  3  1  0
  2  1  1  6
  3  4  1  0
  4  8  1  0
  4  5  2  0
  6  2  1  0
  7  6  2  0
  9  6  1  0
 10  9  1  0
 10 11  1  1
 11 12  1  0
 12 13  1  0
 13 14  1  0
 14 15  1  0
 16 17  2  0
 16 10  1  0
 18 16  1  0
 19 18  1  0
 20 21  1  0
 20 19  1  0
 21 22  1  0
 22 23  1  1
 22 18  1  0
 23 25  1  0
 24 23  2  0
M  END
$$$$
