DKP.pdb
     RDKit          3D

 25 25  0  0  1  0  0  0  0  0999 V2000
   26.2383  -16.6477  -18.9424 N   0  0  0  0  0  0  0  0  0  0  0  0
   26.9595  -17.6540  -18.2132 C   0  0  1  0  0  0  0  0  0  0  0  0
   28.3291  -17.0610  -17.8626 C   0  0  0  0  0  0  0  0  0  0  0  0
   29.1498  -16.9662  -19.1153 C   0  0  0  0  0  0  0  0  0  0  0  0
   28.8943  -17.7703  -20.0461 O   0  0  0  0  0  0  0  0  0  0  0  0
   26.2081  -17.9865  -16.9773 C   0  0  0  0  0  0  0  0  0  0  0  0
   26.4072  -17.3444  -15.9151 O   0  0  0  0  0  0  0  0  0  0  0  0
   30.1544  -16.0322  -19.2534 O   0  0  0  0  0  0  0  0  0  0  0  0
   25.2266  -19.0576  -16.9604 N   0  0  0  0  0  0  0  0  0  0  0  0
   24.5533  -19.3840  -15.7348 C   0  0  1  0  0  0  0  0  0  0  0  0
   23.0671  -19.4117  -15.9089 C   0  0  0  0  0  0  0  0  0  0  0  0
   22.2947  -20.0074  -14.8147 C   0  0  0  0  0  0  0  0  0  0  0  0
   20.8223  -20.1461  -15.0060 C   0  0  0  0  0  0  0  0  0  0  0  0
   20.0860  -20.1101  -13.6876 C   0  0  0  0  0  0  0  0  0  0  0  0
   18.6595  -20.2041  -13.9462 N   0  0  0  0  0  0  0  0  0  0  0  0
   25.0324  -20.7639  -15.3373 C   0  0  0  0  0  0  0  0  0  0  0  0
   25.3905  -21.5094  -16.3112 O   0  0  0  0  0  0  0  0  0  0  0  0
   25.0881  -21.2097  -14.0083 N   0  0  0  0  0  0  0  0  0  0  0  0
   24.5787  -20.4953  -12.8588 C   0  0  0  0  0  0  0  0  0  0  0  0
   25.3398  -21.0654  -11.6577 C   0  0  0  0  0  0  0  0  0  0  0  0
   26.4217  -21.9224  -12.3348 C   0  0  0  0  0  0  0  0  0  0  0  0
   25.6046  -22.4457  -13.5098 C   0  0  1  0  0  0  0  0  0  0  0  0
   24.4656  -23.2751  -13.0179 C   0  0  0  0  0  0  0  0  0  0  0  0
   23.3637  -22.7310  -12.8496 O   0  0  0  0  0  0  0  0  0  0  0  0
   24.5874  -24.6216  -12.7427 O   0  0  0  0  0  0  0  0  0  0  0  0
  2  3  1  0
  2  1  1  1
  3  4  1  0
  4  8  1  0
  4  5  2  0
  6  2  1  0
  7  6  2  0
  9  6  1  0
 10  9  1  0
 10 11  1  6
 11 12  1  0
 12 13  1  0
 13 14  1  0
 14 15  1  0
 16 17  2  0
 16 10  1  0
 18 16  1  0
 19 18  1  0
 20 21  1  0
 20 19  1  0
 21 22  1  0
 22 23  1  1
 22 18  1  0
 23 25  1  0
 24 23  2  0
M  END
$$$$
