DKP.pdb
     RDKit          3D

 25 25  0  0  1  0  0  0  0  0999 V2000
   22.3451  -12.0749  -20.0506 N   0  0  0  0  0  0  0  0  0  0  0  0
   22.9393  -11.5639  -18.8463 C   0  0  1  0  0  0  0  0  0  0  0  0
   24.2978  -10.9676  -19.2326 C   0  0  0  0  0  0  0  0  0  0  0  0
   25.2134  -12.0810  -19.6498 C   0  0  0  0  0  0  0  0  0  0  0  0
   25.2431  -13.1145  -18.9361 O   0  0  0  0  0  0  0  0  0  0  0  0
   22.0561  -10.5145  -18.2797 C   0  0  0  0  0  0  0  0  0  0  0  0
   21.6621   -9.5566  -18.9920 O   0  0  0  0  0  0  0  0  0  0  0  0
   26.0015  -11.9860  -20.7769 O   0  0  0  0  0  0  0  0  0  0  0  0
   21.6242  -10.5644  -16.8934 N   0  0  0  0  0  0  0  0  0  0  0  0
   20.7878   -9.5199  -16.3725 C   0  0  1  0  0  0  0  0  0  0  0  0
   19.7803  -10.0491  -15.4005 C   0  0  0  0  0  0  0  0  0  0  0  0
   18.4093   -9.5522  -15.5491 C   0  0  0  0  0  0  0  0  0  0  0  0
   17.3970  -10.0145  -14.5562 C   0  0  0  0  0  0  0  0  0  0  0  0
   16.0404   -9.4065  -14.8235 C   0  0  0  0  0  0  0  0  0  0  0  0
   15.1417   -9.7761  -13.7435 N   0  0  0  0  0  0  0  0  0  0  0  0
   21.7063   -8.5520  -15.6577 C   0  0  0  0  0  0  0  0  0  0  0  0
   22.7599   -9.0778  -15.1618 O   0  0  0  0  0  0  0  0  0  0  0  0
   21.4411   -7.1795  -15.5383 N   0  0  0  0  0  0  0  0  0  0  0  0
   20.1936   -6.5308  -15.8761 C   0  0  0  0  0  0  0  0  0  0  0  0
   20.5534   -5.0612  -16.1164 C   0  0  0  0  0  0  0  0  0  0  0  0
   22.0903   -5.0977  -16.1143 C   0  0  0  0  0  0  0  0  0  0  0  0
   22.2980   -6.1525  -15.0344 C   0  0  1  0  0  0  0  0  0  0  0  0
   21.7517   -5.6720  -13.7314 C   0  0  0  0  0  0  0  0  0  0  0  0
   20.5900   -5.9800  -13.4245 O   0  0  0  0  0  0  0  0  0  0  0  0
   22.4849   -4.8994  -12.8543 O   0  0  0  0  0  0  0  0  0  0  0  0
  2  3  1  0
  2  1  1  6
  3  4  1  0
  4  8  1  0
  4  5  2  0
  6  2  1  0
  7  6  2  0
  9  6  1  0
 10  9  1  0
 10 11  1  1
 11 12  1  0
 12 13  1  0
 13 14  1  0
 14 15  1  0
 16 17  2  0
 16 10  1  0
 18 16  1  0
 19 18  1  0
 20 21  1  0
 20 19  1  0
 21 22  1  0
 22 23  1  1
 22 18  1  0
 23 25  1  0
 24 23  2  0
M  END
$$$$
