ASI.pdb
     RDKit          3D

 20 19  0  0  1  0  0  0  0  0999 V2000
    7.2522  -12.9200   18.8927 C   0  0  0  0  0  0  0  0  0  0  0  0
    8.4175  -13.6367   19.5267 C   0  0  2  0  0  0  0  0  0  0  0  0
    8.9309  -14.6807   18.6875 N   0  0  0  0  0  0  0  0  0  0  0  0
    8.0536  -14.1625   20.8860 C   0  0  0  0  0  0  0  0  0  0  0  0
    7.6020  -13.3700   21.7398 O   0  0  0  0  0  0  0  0  0  0  0  0
    9.2765  -18.0321   22.3133 O   0  0  0  0  0  0  0  0  0  0  0  0
    7.9714  -17.6083   22.4652 C   0  0  0  0  0  0  0  0  0  0  0  0
    7.8294  -16.1041   22.4704 C   0  0  2  0  0  0  0  0  0  0  0  0
    8.2184  -15.5426   21.2033 N   0  0  0  0  0  0  0  0  0  0  0  0
    8.5636  -15.4830   23.6029 C   0  0  0  0  0  0  0  0  0  0  0  0
    9.7159  -15.0522   23.3971 O   0  0  0  0  0  0  0  0  0  0  0  0
    6.1195  -11.8452   26.2267 C   0  0  0  0  0  0  0  0  0  0  0  0
    7.2072  -12.7102   25.6481 C   0  0  0  0  0  0  0  0  0  0  0  0
    7.7507  -13.7181   26.5993 C   0  0  2  0  0  0  0  0  0  0  0  0
    8.4305  -12.9620   27.7264 C   0  0  0  0  0  0  0  0  0  0  0  0
    8.6799  -14.7389   26.0114 C   0  0  2  0  0  0  0  0  0  0  0  0
    8.0029  -15.3683   24.8853 N   0  0  0  0  0  0  0  0  0  0  0  0
    9.2391  -15.7123   26.9535 C   0  0  0  0  0  0  0  0  0  0  0  0
   10.4030  -15.4908   27.6694 O   0  0  0  0  0  0  0  0  0  0  0  0
    8.6434  -16.8054   27.1278 O   0  0  0  0  0  0  0  0  0  0  0  0
  2  1  1  6
  2  3  1  0
  2  4  1  0
  4  5  2  0
  7  6  1  0
  8  7  1  6
  9  4  1  0
  9  8  1  0
 10 11  2  0
 10  8  1  0
 12 13  1  0
 14 16  1  0
 14 13  1  0
 14 15  1  1
 16 17  1  6
 17 10  1  0
 18 19  1  0
 18 16  1  0
 20 18  2  0
M  END
$$$$
