ASI.pdb
     RDKit          3D

 20 19  0  0  1  0  0  0  0  0999 V2000
    9.0742  -12.4464   19.3399 C   0  0  0  0  0  0  0  0  0  0  0  0
    8.2824  -13.6819   18.9936 C   0  0  2  0  0  0  0  0  0  0  0  0
    7.2261  -13.4036   18.0637 N   0  0  0  0  0  0  0  0  0  0  0  0
    7.7541  -14.3496   20.2312 C   0  0  0  0  0  0  0  0  0  0  0  0
    6.6907  -13.9315   20.7366 O   0  0  0  0  0  0  0  0  0  0  0  0
    9.6118  -17.9016   21.9380 O   0  0  0  0  0  0  0  0  0  0  0  0
    8.2629  -17.6083   21.9191 C   0  0  0  0  0  0  0  0  0  0  0  0
    7.9733  -16.1276   21.9979 C   0  0  2  0  0  0  0  0  0  0  0  0
    8.4500  -15.4433   20.8246 N   0  0  0  0  0  0  0  0  0  0  0  0
    8.5052  -15.5255   23.2476 C   0  0  0  0  0  0  0  0  0  0  0  0
    9.6495  -15.0296   23.2262 O   0  0  0  0  0  0  0  0  0  0  0  0
    7.0368  -11.9079   27.6933 C   0  0  0  0  0  0  0  0  0  0  0  0
    7.8346  -13.1452   27.3797 C   0  0  0  0  0  0  0  0  0  0  0  0
    7.4569  -13.8016   26.0981 C   0  0  2  0  0  0  0  0  0  0  0  0
    5.9888  -14.1756   26.1921 C   0  0  0  0  0  0  0  0  0  0  0  0
    8.2816  -14.9913   25.7038 C   0  0  2  0  0  0  0  0  0  0  0  0
    7.7640  -15.4990   24.4401 N   0  0  0  0  0  0  0  0  0  0  0  0
    8.4223  -16.0373   26.7207 C   0  0  0  0  0  0  0  0  0  0  0  0
    9.2625  -15.9216   27.8147 O   0  0  0  0  0  0  0  0  0  0  0  0
    7.7543  -17.0957   26.6046 O   0  0  0  0  0  0  0  0  0  0  0  0
  2  1  1  1
  2  3  1  0
  2  4  1  0
  4  5  2  0
  7  6  1  0
  8  7  1  6
  9  4  1  0
  9  8  1  0
 10 11  2  0
 10  8  1  0
 12 13  1  0
 14 16  1  0
 14 13  1  0
 14 15  1  1
 16 17  1  6
 17 10  1  0
 18 19  1  0
 18 16  1  0
 20 18  2  0
M  END
$$$$
