ASI.pdb
     RDKit          3D

 20 19  0  0  1  0  0  0  0  0999 V2000
    7.5619  -12.8443   18.7152 C   0  0  0  0  0  0  0  0  0  0  0  0
    8.4999  -13.7752   19.4410 C   0  0  2  0  0  0  0  0  0  0  0  0
    8.7999  -14.9479   18.6713 N   0  0  0  0  0  0  0  0  0  0  0  0
    7.9603  -14.1382   20.7952 C   0  0  0  0  0  0  0  0  0  0  0  0
    7.7100  -13.2254   21.6108 O   0  0  0  0  0  0  0  0  0  0  0  0
    8.1513  -18.1249   22.4461 O   0  0  0  0  0  0  0  0  0  0  0  0
    6.9841  -17.3889   22.4883 C   0  0  0  0  0  0  0  0  0  0  0  0
    7.2173  -15.8971   22.4336 C   0  0  2  0  0  0  0  0  0  0  0  0
    7.7350  -15.5004   21.1504 N   0  0  0  0  0  0  0  0  0  0  0  0
    8.0799  -15.4307   23.5497 C   0  0  0  0  0  0  0  0  0  0  0  0
    9.3057  -15.3225   23.3460 O   0  0  0  0  0  0  0  0  0  0  0  0
    5.7876  -11.8847   26.5279 C   0  0  0  0  0  0  0  0  0  0  0  0
    7.0202  -12.5049   25.9264 C   0  0  0  0  0  0  0  0  0  0  0  0
    7.5666  -13.6482   26.7076 C   0  0  2  0  0  0  0  0  0  0  0  0
    8.3846  -13.0717   27.8489 C   0  0  0  0  0  0  0  0  0  0  0  0
    8.3731  -14.6464   25.9303 C   0  0  2  0  0  0  0  0  0  0  0  0
    7.5598  -15.1113   24.8145 N   0  0  0  0  0  0  0  0  0  0  0  0
    8.9515  -15.7459   26.7079 C   0  0  0  0  0  0  0  0  0  0  0  0
    8.3989  -17.0143   26.7525 O   0  0  0  0  0  0  0  0  0  0  0  0
    9.9988  -15.5396   27.3716 O   0  0  0  0  0  0  0  0  0  0  0  0
  2  1  1  6
  2  3  1  0
  2  4  1  0
  4  5  2  0
  7  6  1  0
  8  7  1  6
  9  4  1  0
  9  8  1  0
 10 11  2  0
 10  8  1  0
 12 13  1  0
 14 16  1  0
 14 13  1  0
 14 15  1  1
 16 17  1  6
 17 10  1  0
 18 19  1  0
 18 16  1  0
 20 18  2  0
M  END
$$$$
