ASI.pdb
     RDKit          3D

 20 19  0  0  1  0  0  0  0  0999 V2000
   10.5586  -20.8177   16.4087 C   0  0  0  0  0  0  0  0  0  0  0  0
   10.4778  -20.5526   17.8908 C   0  0  2  0  0  0  0  0  0  0  0  0
    9.7317  -19.3638   18.1870 N   0  0  0  0  0  0  0  0  0  0  0  0
   11.8474  -20.5012   18.5058 C   0  0  0  0  0  0  0  0  0  0  0  0
   12.5788  -21.5118   18.4381 O   0  0  0  0  0  0  0  0  0  0  0  0
   14.4967  -18.1826   17.5775 O   0  0  0  0  0  0  0  0  0  0  0  0
   14.6434  -19.2246   18.4711 C   0  0  0  0  0  0  0  0  0  0  0  0
   13.6653  -19.1664   19.6211 C   0  0  2  0  0  0  0  0  0  0  0  0
   12.3113  -19.3213   19.1579 N   0  0  0  0  0  0  0  0  0  0  0  0
   13.8380  -17.9339   20.4325 C   0  0  0  0  0  0  0  0  0  0  0  0
   14.2146  -16.8933   19.8570 O   0  0  0  0  0  0  0  0  0  0  0  0
    9.9281  -16.6641   23.6964 C   0  0  0  0  0  0  0  0  0  0  0  0
   11.1261  -16.5714   22.7897 C   0  0  0  0  0  0  0  0  0  0  0  0
   12.4317  -16.6648   23.4986 C   0  0  2  0  0  0  0  0  0  0  0  0
   12.5047  -15.5054   24.4755 C   0  0  0  0  0  0  0  0  0  0  0  0
   13.6506  -16.6973   22.6244 C   0  0  2  0  0  0  0  0  0  0  0  0
   13.5919  -17.9073   21.8149 N   0  0  0  0  0  0  0  0  0  0  0  0
   14.9350  -16.5360   23.3116 C   0  0  0  0  0  0  0  0  0  0  0  0
   15.4633  -15.3019   23.6494 O   0  0  0  0  0  0  0  0  0  0  0  0
   15.5991  -17.5597   23.6130 O   0  0  0  0  0  0  0  0  0  0  0  0
  2  1  1  6
  2  3  1  0
  2  4  1  0
  4  5  2  0
  7  6  1  0
  8  7  1  6
  9  4  1  0
  9  8  1  0
 10 11  2  0
 10  8  1  0
 12 13  1  0
 14 16  1  0
 14 13  1  0
 14 15  1  1
 16 17  1  1
 17 10  1  0
 18 19  1  0
 18 16  1  0
 20 18  2  0
M  END
$$$$
