ASI.pdb
     RDKit          3D

 20 19  0  0  1  0  0  0  0  0999 V2000
    8.4109  -12.4098   18.9331 C   0  0  0  0  0  0  0  0  0  0  0  0
    8.4459  -13.9154   18.8596 C   0  0  2  0  0  0  0  0  0  0  0  0
    7.8223  -14.4126   17.6672 N   0  0  0  0  0  0  0  0  0  0  0  0
    7.8372  -14.5305   20.0874 C   0  0  0  0  0  0  0  0  0  0  0  0
    6.5931  -14.5497   20.2007 O   0  0  0  0  0  0  0  0  0  0  0  0
    9.6822  -17.5180   22.3286 O   0  0  0  0  0  0  0  0  0  0  0  0
    8.3473  -17.1660   22.3329 C   0  0  0  0  0  0  0  0  0  0  0  0
    8.1244  -15.6719   22.3112 C   0  0  2  0  0  0  0  0  0  0  0  0
    8.6602  -15.0854   21.1108 N   0  0  0  0  0  0  0  0  0  0  0  0
    8.6532  -15.0157   23.5348 C   0  0  0  0  0  0  0  0  0  0  0  0
    9.8216  -14.5795   23.5155 O   0  0  0  0  0  0  0  0  0  0  0  0
    5.5216  -12.1005   27.1191 C   0  0  0  0  0  0  0  0  0  0  0  0
    6.1913  -13.2664   26.4424 C   0  0  0  0  0  0  0  0  0  0  0  0
    7.6697  -13.1341   26.3288 C   0  0  2  0  0  0  0  0  0  0  0  0
    7.9535  -12.0333   25.3230 C   0  0  0  0  0  0  0  0  0  0  0  0
    8.4132  -14.3860   25.9667 C   0  0  2  0  0  0  0  0  0  0  0  0
    7.8830  -14.8742   24.7005 N   0  0  0  0  0  0  0  0  0  0  0  0
    8.4598  -15.4238   27.0005 C   0  0  0  0  0  0  0  0  0  0  0  0
    7.9578  -16.7004   26.8149 O   0  0  0  0  0  0  0  0  0  0  0  0
    8.9767  -15.1539   28.1140 O   0  0  0  0  0  0  0  0  0  0  0  0
  2  1  1  1
  2  3  1  0
  2  4  1  0
  4  5  2  0
  7  6  1  0
  8  7  1  1
  9  4  1  0
  9  8  1  0
 10 11  2  0
 10  8  1  0
 12 13  1  0
 14 16  1  0
 14 13  1  0
 14 15  1  6
 16 17  1  6
 17 10  1  0
 18 19  1  0
 18 16  1  0
 20 18  2  0
M  END
$$$$
