ASI.pdb
     RDKit          3D

 20 19  0  0  1  0  0  0  0  0999 V2000
    7.6939  -12.7294   18.4799 C   0  0  0  0  0  0  0  0  0  0  0  0
    8.5810  -13.6892   19.2317 C   0  0  2  0  0  0  0  0  0  0  0  0
    8.8673  -14.8702   18.4694 N   0  0  0  0  0  0  0  0  0  0  0  0
    7.9909  -14.0361   20.5688 C   0  0  0  0  0  0  0  0  0  0  0  0
    7.7270  -13.1148   21.3705 O   0  0  0  0  0  0  0  0  0  0  0  0
    8.0105  -18.0371   22.2536 O   0  0  0  0  0  0  0  0  0  0  0  0
    6.8729  -17.2552   22.2316 C   0  0  0  0  0  0  0  0  0  0  0  0
    7.1680  -15.7740   22.1914 C   0  0  2  0  0  0  0  0  0  0  0  0
    7.7335  -15.3926   20.9238 N   0  0  0  0  0  0  0  0  0  0  0  0
    8.0204  -15.3485   23.3313 C   0  0  0  0  0  0  0  0  0  0  0  0
    9.2437  -15.2038   23.1350 O   0  0  0  0  0  0  0  0  0  0  0  0
    5.8349  -11.7176   26.4290 C   0  0  0  0  0  0  0  0  0  0  0  0
    6.8971  -12.5047   25.7093 C   0  0  0  0  0  0  0  0  0  0  0  0
    7.4514  -13.6384   26.4990 C   0  0  2  0  0  0  0  0  0  0  0  0
    8.2433  -13.0478   27.6514 C   0  0  0  0  0  0  0  0  0  0  0  0
    8.2854  -14.6234   25.7339 C   0  0  2  0  0  0  0  0  0  0  0  0
    7.4937  -15.1069   24.6105 N   0  0  0  0  0  0  0  0  0  0  0  0
    8.8757  -15.7093   26.5214 C   0  0  0  0  0  0  0  0  0  0  0  0
    8.3712  -16.9984   26.5312 O   0  0  0  0  0  0  0  0  0  0  0  0
    9.8883  -15.4713   27.2270 O   0  0  0  0  0  0  0  0  0  0  0  0
  2  1  1  6
  2  3  1  0
  2  4  1  0
  4  5  2  0
  7  6  1  0
  8  7  1  6
  9  4  1  0
  9  8  1  0
 10 11  2  0
 10  8  1  0
 12 13  1  0
 14 16  1  0
 14 13  1  0
 14 15  1  1
 16 17  1  6
 17 10  1  0
 18 19  1  0
 18 16  1  0
 20 18  2  0
M  END
$$$$
