ASI.pdb
     RDKit          3D

 20 19  0  0  1  0  0  0  0  0999 V2000
    6.6055  -20.5974   23.5044 C   0  0  0  0  0  0  0  0  0  0  0  0
    6.5585  -19.2927   24.2588 C   0  0  2  0  0  0  0  0  0  0  0  0
    5.2463  -18.7131   24.2543 N   0  0  0  0  0  0  0  0  0  0  0  0
    7.5804  -18.3264   23.7311 C   0  0  0  0  0  0  0  0  0  0  0  0
    8.7927  -18.5740   23.9044 O   0  0  0  0  0  0  0  0  0  0  0  0
    6.2693  -14.9615   21.5517 O   0  0  0  0  0  0  0  0  0  0  0  0
    7.4986  -15.5181   21.2605 C   0  0  0  0  0  0  0  0  0  0  0  0
    8.1199  -16.2391   22.4339 C   0  0  2  0  0  0  0  0  0  0  0  0
    7.1802  -17.1439   23.0426 N   0  0  0  0  0  0  0  0  0  0  0  0
    8.6997  -15.2923   23.4211 C   0  0  0  0  0  0  0  0  0  0  0  0
    9.6344  -14.5524   23.0543 O   0  0  0  0  0  0  0  0  0  0  0  0
    5.8011  -12.2875   27.0109 C   0  0  0  0  0  0  0  0  0  0  0  0
    6.5127  -13.4590   26.3889 C   0  0  0  0  0  0  0  0  0  0  0  0
    7.8895  -13.1500   25.9145 C   0  0  2  0  0  0  0  0  0  0  0  0
    7.7617  -12.3856   24.6094 C   0  0  0  0  0  0  0  0  0  0  0  0
    8.8051  -14.3272   25.7505 C   0  0  2  0  0  0  0  0  0  0  0  0
    8.2303  -15.2076   24.7420 N   0  0  0  0  0  0  0  0  0  0  0  0
    9.1647  -15.0343   26.9828 C   0  0  0  0  0  0  0  0  0  0  0  0
    9.9064  -14.4562   27.9986 O   0  0  0  0  0  0  0  0  0  0  0  0
    8.7886  -16.2238   27.1362 O   0  0  0  0  0  0  0  0  0  0  0  0
  2  1  1  6
  2  3  1  0
  2  4  1  0
  4  5  2  0
  7  6  1  0
  8  7  1  6
  9  4  1  0
  9  8  1  0
 10 11  2  0
 10  8  1  0
 12 13  1  0
 14 16  1  0
 14 13  1  0
 14 15  1  6
 16 17  1  6
 17 10  1  0
 18 19  1  0
 18 16  1  0
 20 18  2  0
M  END
$$$$
