ASI.pdb
     RDKit          3D

 20 19  0  0  1  0  0  0  0  0999 V2000
    8.4746  -12.3768   19.1699 C   0  0  0  0  0  0  0  0  0  0  0  0
    8.3831  -13.8664   18.9546 C   0  0  2  0  0  0  0  0  0  0  0  0
    7.6157  -14.1976   17.7887 N   0  0  0  0  0  0  0  0  0  0  0  0
    7.8421  -14.5563   20.1744 C   0  0  0  0  0  0  0  0  0  0  0  0
    6.6045  -14.6279   20.3295 O   0  0  0  0  0  0  0  0  0  0  0  0
    9.9337  -17.5291   22.2032 O   0  0  0  0  0  0  0  0  0  0  0  0
    8.5785  -17.2743   22.2702 C   0  0  0  0  0  0  0  0  0  0  0  0
    8.2507  -15.8004   22.3229 C   0  0  2  0  0  0  0  0  0  0  0  0
    8.7213  -15.1225   21.1435 N   0  0  0  0  0  0  0  0  0  0  0  0
    8.7549  -15.1655   23.5678 C   0  0  0  0  0  0  0  0  0  0  0  0
    9.9273  -14.7398   23.5832 O   0  0  0  0  0  0  0  0  0  0  0  0
    5.7232  -11.7938   26.1428 C   0  0  0  0  0  0  0  0  0  0  0  0
    6.9689  -12.4961   25.6728 C   0  0  0  0  0  0  0  0  0  0  0  0
    7.4089  -13.6084   26.5589 C   0  0  2  0  0  0  0  0  0  0  0  0
    7.8911  -12.9923   27.8596 C   0  0  0  0  0  0  0  0  0  0  0  0
    8.4508  -14.5259   25.9900 C   0  0  2  0  0  0  0  0  0  0  0  0
    7.9575  -15.0324   24.7161 N   0  0  0  0  0  0  0  0  0  0  0  0
    8.9203  -15.5909   26.8807 C   0  0  0  0  0  0  0  0  0  0  0  0
    8.5507  -16.9170   26.7358 O   0  0  0  0  0  0  0  0  0  0  0  0
    9.6952  -15.2988   27.8262 O   0  0  0  0  0  0  0  0  0  0  0  0
  2  1  1  1
  2  3  1  0
  2  4  1  0
  4  5  2  0
  7  6  1  0
  8  7  1  6
  9  4  1  0
  9  8  1  0
 10 11  2  0
 10  8  1  0
 12 13  1  0
 14 16  1  0
 14 13  1  0
 14 15  1  1
 16 17  1  6
 17 10  1  0
 18 19  1  0
 18 16  1  0
 20 18  2  0
M  END
$$$$
