EKF.pdb
     RDKit          3D

 30 30  0  0  1  0  0  0  0  0999 V2000
   13.6241  -16.4040    3.4246 N   0  0  0  0  0  0  0  0  0  0  0  0
   14.5755  -17.2786    4.1311 C   0  0  1  0  0  0  0  0  0  0  0  0
   15.5944  -17.8049    3.1850 C   0  0  0  0  0  0  0  0  0  0  0  0
   15.0366  -18.6907    2.1046 C   0  0  0  0  0  0  0  0  0  0  0  0
   15.5322  -20.0723    2.1696 C   0  0  0  0  0  0  0  0  0  0  0  0
   16.7014  -20.4483    2.3271 O   0  0  0  0  0  0  0  0  0  0  0  0
   15.1281  -16.5807    5.3177 C   0  0  0  0  0  0  0  0  0  0  0  0
   15.1946  -15.3041    5.3613 O   0  0  0  0  0  0  0  0  0  0  0  0
   14.5670  -21.0915    2.0377 O   0  0  0  0  0  0  0  0  0  0  0  0
   15.6207  -17.2406    6.4787 N   0  0  0  0  0  0  0  0  0  0  0  0
   16.0377  -16.4939    7.6613 C   0  0  1  0  0  0  0  0  0  0  0  0
   15.5105  -17.1479    8.9255 C   0  0  0  0  0  0  0  0  0  0  0  0
   14.0238  -16.9328    9.0813 C   0  0  0  0  0  0  0  0  0  0  0  0
   13.6162  -17.5050   10.4228 C   0  0  0  0  0  0  0  0  0  0  0  0
   12.1112  -17.3230   10.6389 C   0  0  0  0  0  0  0  0  0  0  0  0
   11.7403  -17.7241   11.9816 N   0  0  0  0  0  0  0  0  0  0  0  0
   17.5101  -16.3983    7.6736 C   0  0  0  0  0  0  0  0  0  0  0  0
   18.1812  -17.2641    7.0733 O   0  0  0  0  0  0  0  0  0  0  0  0
   18.2000  -15.3576    8.3429 N   0  0  0  0  0  0  0  0  0  0  0  0
   19.6598  -15.2469    8.2810 C   0  0  1  0  0  0  0  0  0  0  0  0
   20.0326  -13.8059    8.4091 C   0  0  0  0  0  0  0  0  0  0  0  0
   19.6068  -12.9881    7.2229 C   0  0  0  0  0  0  0  0  0  0  0  0
   20.4411  -12.8471    6.1450 C   0  0  0  0  0  0  0  0  0  0  0  0
   20.0397  -12.1056    5.0628 C   0  0  0  0  0  0  0  0  0  0  0  0
   18.8147  -11.4794    4.9982 C   0  0  0  0  0  0  0  0  0  0  0  0
   17.9862  -11.6351    6.1005 C   0  0  0  0  0  0  0  0  0  0  0  0
   18.3752  -12.3747    7.1904 C   0  0  0  0  0  0  0  0  0  0  0  0
   20.2133  -16.0421    9.3919 C   0  0  0  0  0  0  0  0  0  0  0  0
   21.5914  -16.3140    9.4869 O   0  0  0  0  0  0  0  0  0  0  0  0
   19.4935  -16.5117   10.2986 O   0  0  0  0  0  0  0  0  0  0  0  0
  2  1  1  6
  2  3  1  0
  2  7  1  0
  3  4  1  0
  4  5  1  0
  5  9  1  0
  5  6  2  0
  7  8  2  0
 10  7  1  0
 10 11  1  0
 11 12  1  1
 12 13  1  0
 13 14  1  0
 15 14  1  0
 16 15  1  0
 17 19  1  0
 17 11  1  0
 18 17  2  0
 20 21  1  1
 20 19  1  0
 21 22  1  0
 22 27  2  0
 22 23  1  0
 23 24  2  0
 24 25  1  0
 26 25  2  0
 27 26  1  0
 28 20  1  0
 28 29  1  0
 30 28  2  0
M  END
$$$$
