EKF.pdb
     RDKit          3D

 30 30  0  0  1  0  0  0  0  0999 V2000
   16.2084  -22.2191    2.2415 N   0  0  0  0  0  0  0  0  0  0  0  0
   15.8974  -21.5651    3.5240 C   0  0  1  0  0  0  0  0  0  0  0  0
   15.8656  -22.5677    4.6212 C   0  0  0  0  0  0  0  0  0  0  0  0
   15.0124  -23.7729    4.3337 C   0  0  0  0  0  0  0  0  0  0  0  0
   15.7703  -24.9071    3.7879 C   0  0  0  0  0  0  0  0  0  0  0  0
   16.9632  -25.1793    3.9778 O   0  0  0  0  0  0  0  0  0  0  0  0
   16.8144  -20.4214    3.7509 C   0  0  0  0  0  0  0  0  0  0  0  0
   18.0077  -20.4305    3.2904 O   0  0  0  0  0  0  0  0  0  0  0  0
   15.0598  -25.7906    2.9497 O   0  0  0  0  0  0  0  0  0  0  0  0
   16.4676  -19.2475    4.4773 N   0  0  0  0  0  0  0  0  0  0  0  0
   17.3809  -18.1134    4.5750 C   0  0  1  0  0  0  0  0  0  0  0  0
   16.6193  -16.8016    4.5185 C   0  0  0  0  0  0  0  0  0  0  0  0
   17.5505  -15.6165    4.6141 C   0  0  0  0  0  0  0  0  0  0  0  0
   16.7012  -14.3630    4.5865 C   0  0  0  0  0  0  0  0  0  0  0  0
   17.5952  -13.1197    4.5865 C   0  0  0  0  0  0  0  0  0  0  0  0
   16.7906  -11.9178    4.4905 N   0  0  0  0  0  0  0  0  0  0  0  0
   18.1629  -18.2333    5.8206 C   0  0  0  0  0  0  0  0  0  0  0  0
   17.6070  -18.6756    6.8481 O   0  0  0  0  0  0  0  0  0  0  0  0
   19.5285  -17.8648    5.9007 N   0  0  0  0  0  0  0  0  0  0  0  0
   20.2452  -17.8653    7.1787 C   0  0  1  0  0  0  0  0  0  0  0  0
   21.7084  -17.9863    6.9025 C   0  0  0  0  0  0  0  0  0  0  0  0
   22.5461  -17.8610    8.1434 C   0  0  0  0  0  0  0  0  0  0  0  0
   22.6211  -18.8992    9.0347 C   0  0  0  0  0  0  0  0  0  0  0  0
   23.3958  -18.7784   10.1605 C   0  0  0  0  0  0  0  0  0  0  0  0
   24.1198  -17.6437   10.4519 C   0  0  0  0  0  0  0  0  0  0  0  0
   24.0291  -16.6050    9.5361 C   0  0  0  0  0  0  0  0  0  0  0  0
   23.2575  -16.7124    8.4050 C   0  0  0  0  0  0  0  0  0  0  0  0
   19.9344  -16.5973    7.8629 C   0  0  0  0  0  0  0  0  0  0  0  0
   19.8100  -16.5283    9.2637 O   0  0  0  0  0  0  0  0  0  0  0  0
   19.7667  -15.5275    7.2399 O   0  0  0  0  0  0  0  0  0  0  0  0
  2  1  1  6
  2  3  1  0
  2  7  1  0
  3  4  1  0
  4  5  1  0
  5  9  1  0
  5  6  2  0
  7  8  2  0
 10  7  1  0
 10 11  1  0
 11 12  1  1
 12 13  1  0
 13 14  1  0
 15 14  1  0
 16 15  1  0
 17 19  1  0
 17 11  1  0
 18 17  2  0
 20 21  1  6
 20 19  1  0
 21 22  1  0
 22 27  2  0
 22 23  1  0
 23 24  2  0
 24 25  1  0
 26 25  2  0
 27 26  1  0
 28 20  1  0
 28 29  1  0
 30 28  2  0
M  END
$$$$
