EKF.pdb
     RDKit          3D

 30 30  0  0  1  0  0  0  0  0999 V2000
   19.3873  -24.1919  -13.4013 N   0  0  0  0  0  0  0  0  0  0  0  0
   20.1150  -22.9380  -13.6603 C   0  0  1  0  0  0  0  0  0  0  0  0
   19.4594  -21.8048  -12.9558 C   0  0  0  0  0  0  0  0  0  0  0  0
   18.8927  -20.7527  -13.8695 C   0  0  0  0  0  0  0  0  0  0  0  0
   19.8116  -19.6314  -14.1084 C   0  0  0  0  0  0  0  0  0  0  0  0
   20.8642  -19.3770  -13.5079 O   0  0  0  0  0  0  0  0  0  0  0  0
   21.5567  -23.1107  -13.3563 C   0  0  0  0  0  0  0  0  0  0  0  0
   21.9402  -23.6874  -12.2810 O   0  0  0  0  0  0  0  0  0  0  0  0
   19.4569  -18.7391  -15.1406 O   0  0  0  0  0  0  0  0  0  0  0  0
   22.6130  -22.6665  -14.2007 N   0  0  0  0  0  0  0  0  0  0  0  0
   24.0057  -23.0001  -13.9197 C   0  0  1  0  0  0  0  0  0  0  0  0
   24.6903  -23.5452  -15.1599 C   0  0  0  0  0  0  0  0  0  0  0  0
   24.4166  -25.0194  -15.3404 C   0  0  0  0  0  0  0  0  0  0  0  0
   25.2329  -25.4954  -16.5238 C   0  0  0  0  0  0  0  0  0  0  0  0
   24.8602  -26.9383  -16.8758 C   0  0  0  0  0  0  0  0  0  0  0  0
   25.6248  -27.3939  -18.0199 N   0  0  0  0  0  0  0  0  0  0  0  0
   24.6919  -21.7996  -13.4047 C   0  0  0  0  0  0  0  0  0  0  0  0
   24.1926  -20.6746  -13.6180 O   0  0  0  0  0  0  0  0  0  0  0  0
   25.9029  -21.8699  -12.6728 N   0  0  0  0  0  0  0  0  0  0  0  0
   26.6174  -20.6584  -12.2618 C   0  0  1  0  0  0  0  0  0  0  0  0
   27.7608  -21.0556  -11.3862 C   0  0  0  0  0  0  0  0  0  0  0  0
   27.5140  -20.7527   -9.9355 C   0  0  0  0  0  0  0  0  0  0  0  0
   28.3036  -21.3161   -8.9675 C   0  0  0  0  0  0  0  0  0  0  0  0
   28.0759  -21.0264   -7.6461 C   0  0  0  0  0  0  0  0  0  0  0  0
   27.0729  -20.1801   -7.2280 C   0  0  0  0  0  0  0  0  0  0  0  0
   26.2855  -19.6211   -8.2246 C   0  0  0  0  0  0  0  0  0  0  0  0
   26.5024  -19.9023   -9.5513 C   0  0  0  0  0  0  0  0  0  0  0  0
   27.0904  -19.9851  -13.4847 C   0  0  0  0  0  0  0  0  0  0  0  0
   27.1543  -20.6603  -14.7186 O   0  0  0  0  0  0  0  0  0  0  0  0
   27.4560  -18.7905  -13.4889 O   0  0  0  0  0  0  0  0  0  0  0  0
  2  1  1  1
  2  3  1  0
  2  7  1  0
  3  4  1  0
  4  5  1  0
  5  9  1  0
  5  6  2  0
  7  8  2  0
 10  7  1  0
 10 11  1  0
 11 12  1  6
 12 13  1  0
 13 14  1  0
 15 14  1  0
 16 15  1  0
 17 19  1  0
 17 11  1  0
 18 17  2  0
 20 21  1  1
 20 19  1  0
 21 22  1  0
 22 27  2  0
 22 23  1  0
 23 24  2  0
 24 25  1  0
 26 25  2  0
 27 26  1  0
 28 20  1  0
 28 29  1  0
 30 28  2  0
M  END
$$$$
