EKF.pdb
     RDKit          3D

 30 30  0  0  1  0  0  0  0  0999 V2000
   28.1275  -17.6529  -16.2642 N   0  0  0  0  0  0  0  0  0  0  0  0
   27.3722  -18.7466  -16.8984 C   0  0  1  0  0  0  0  0  0  0  0  0
   28.2939  -19.6539  -17.6317 C   0  0  0  0  0  0  0  0  0  0  0  0
   29.3695  -20.2664  -16.7767 C   0  0  0  0  0  0  0  0  0  0  0  0
   30.2850  -21.1373  -17.5264 C   0  0  0  0  0  0  0  0  0  0  0  0
   30.9777  -20.8377  -18.5081 O   0  0  0  0  0  0  0  0  0  0  0  0
   26.5034  -19.4153  -15.8992 C   0  0  0  0  0  0  0  0  0  0  0  0
   26.0897  -18.7920  -14.8617 O   0  0  0  0  0  0  0  0  0  0  0  0
   30.3895  -22.4702  -17.0790 O   0  0  0  0  0  0  0  0  0  0  0  0
   26.0637  -20.7657  -15.9949 N   0  0  0  0  0  0  0  0  0  0  0  0
   25.1236  -21.3317  -15.0327 C   0  0  1  0  0  0  0  0  0  0  0  0
   24.5721  -22.6547  -15.5322 C   0  0  0  0  0  0  0  0  0  0  0  0
   23.5505  -23.2244  -14.5769 C   0  0  0  0  0  0  0  0  0  0  0  0
   23.0107  -24.4994  -15.1903 C   0  0  0  0  0  0  0  0  0  0  0  0
   21.8199  -25.0136  -14.3763 C   0  0  0  0  0  0  0  0  0  0  0  0
   21.3773  -26.2977  -14.8827 N   0  0  0  0  0  0  0  0  0  0  0  0
   25.8025  -21.4838  -13.7314 C   0  0  0  0  0  0  0  0  0  0  0  0
   27.0104  -21.8015  -13.7085 O   0  0  0  0  0  0  0  0  0  0  0  0
   25.1366  -21.2829  -12.4972 N   0  0  0  0  0  0  0  0  0  0  0  0
   25.8585  -21.3365  -11.2232 C   0  0  1  0  0  0  0  0  0  0  0  0
   26.7916  -20.1718  -11.1568 C   0  0  0  0  0  0  0  0  0  0  0  0
   27.5328  -20.0948   -9.8522 C   0  0  0  0  0  0  0  0  0  0  0  0
   27.0136  -19.3824   -8.8030 C   0  0  0  0  0  0  0  0  0  0  0  0
   27.6937  -19.3255   -7.6129 C   0  0  0  0  0  0  0  0  0  0  0  0
   28.8991  -19.9600   -7.4093 C   0  0  0  0  0  0  0  0  0  0  0  0
   29.4064  -20.6752   -8.4848 C   0  0  0  0  0  0  0  0  0  0  0  0
   28.7361  -20.7407   -9.6818 C   0  0  0  0  0  0  0  0  0  0  0  0
   24.8577  -21.2808  -10.1426 C   0  0  0  0  0  0  0  0  0  0  0  0
   25.0737  -21.9185   -8.9060 O   0  0  0  0  0  0  0  0  0  0  0  0
   23.7752  -20.6698  -10.2676 O   0  0  0  0  0  0  0  0  0  0  0  0
  2  1  1  1
  2  3  1  0
  2  7  1  0
  3  4  1  0
  4  5  1  0
  5  9  1  0
  5  6  2  0
  7  8  2  0
 10  7  1  0
 10 11  1  0
 11 12  1  6
 12 13  1  0
 13 14  1  0
 15 14  1  0
 16 15  1  0
 17 19  1  0
 17 11  1  0
 18 17  2  0
 20 21  1  1
 20 19  1  0
 21 22  1  0
 22 27  2  0
 22 23  1  0
 23 24  2  0
 24 25  1  0
 26 25  2  0
 27 26  1  0
 28 20  1  0
 28 29  1  0
 30 28  2  0
M  END
$$$$
