EKF.pdb
     RDKit          3D

 30 30  0  0  1  0  0  0  0  0999 V2000
   20.6273  -27.6773  -16.1943 N   0  0  0  0  0  0  0  0  0  0  0  0
   21.1599  -27.6000  -14.8234 C   0  0  1  0  0  0  0  0  0  0  0  0
   21.3869  -28.9648  -14.2793 C   0  0  0  0  0  0  0  0  0  0  0  0
   20.8400  -30.0722  -15.1381 C   0  0  0  0  0  0  0  0  0  0  0  0
   21.6866  -30.3829  -16.2981 C   0  0  0  0  0  0  0  0  0  0  0  0
   22.9208  -30.3152  -16.3716 O   0  0  0  0  0  0  0  0  0  0  0  0
   22.3447  -26.7082  -14.7841 C   0  0  0  0  0  0  0  0  0  0  0  0
   22.9898  -26.5150  -13.6967 O   0  0  0  0  0  0  0  0  0  0  0  0
   21.0195  -30.8078  -17.4652 O   0  0  0  0  0  0  0  0  0  0  0  0
   22.8578  -26.0065  -15.9112 N   0  0  0  0  0  0  0  0  0  0  0  0
   23.9446  -25.0415  -15.7789 C   0  0  1  0  0  0  0  0  0  0  0  0
   24.5700  -24.7453  -17.1298 C   0  0  0  0  0  0  0  0  0  0  0  0
   25.5251  -25.8375  -17.5490 C   0  0  0  0  0  0  0  0  0  0  0  0
   26.7875  -25.6825  -16.7272 C   0  0  0  0  0  0  0  0  0  0  0  0
   27.8449  -26.6892  -17.1891 C   0  0  0  0  0  0  0  0  0  0  0  0
   29.0586  -26.5418  -16.4104 N   0  0  0  0  0  0  0  0  0  0  0  0
   23.4235  -23.8166  -15.1422 C   0  0  0  0  0  0  0  0  0  0  0  0
   22.3621  -23.3138  -15.5676 O   0  0  0  0  0  0  0  0  0  0  0  0
   24.0817  -23.1818  -14.0600 N   0  0  0  0  0  0  0  0  0  0  0  0
   23.5026  -22.0112  -13.3957 C   0  0  1  0  0  0  0  0  0  0  0  0
   23.1345  -22.3917  -11.9987 C   0  0  0  0  0  0  0  0  0  0  0  0
   22.6344  -21.2271  -11.1920 C   0  0  0  0  0  0  0  0  0  0  0  0
   21.2931  -20.9529  -11.1318 C   0  0  0  0  0  0  0  0  0  0  0  0
   20.8456  -19.8925  -10.3853 C   0  0  0  0  0  0  0  0  0  0  0  0
   21.6902  -19.0678   -9.6758 C   0  0  0  0  0  0  0  0  0  0  0  0
   23.0440  -19.3635   -9.7511 C   0  0  0  0  0  0  0  0  0  0  0  0
   23.5058  -20.4220  -10.4945 C   0  0  0  0  0  0  0  0  0  0  0  0
   24.5201  -20.9448  -13.4078 C   0  0  0  0  0  0  0  0  0  0  0  0
   25.8849  -21.2321  -13.6010 O   0  0  0  0  0  0  0  0  0  0  0  0
   24.2260  -19.7411  -13.2485 O   0  0  0  0  0  0  0  0  0  0  0  0
  2  1  1  6
  2  3  1  0
  2  7  1  0
  3  4  1  0
  4  5  1  0
  5  9  1  0
  5  6  2  0
  7  8  2  0
 10  7  1  0
 10 11  1  0
 11 12  1  6
 12 13  1  0
 13 14  1  0
 15 14  1  0
 16 15  1  0
 17 19  1  0
 17 11  1  0
 18 17  2  0
 20 21  1  1
 20 19  1  0
 21 22  1  0
 22 27  2  0
 22 23  1  0
 23 24  2  0
 24 25  1  0
 26 25  2  0
 27 26  1  0
 28 20  1  0
 28 29  1  0
 30 28  2  0
M  END
$$$$
