EKF.pdb
     RDKit          3D

 30 30  0  0  1  0  0  0  0  0999 V2000
   21.0935  -21.7217  -13.0675 N   0  0  0  0  0  0  0  0  0  0  0  0
   21.8138  -20.6177  -12.4107 C   0  0  1  0  0  0  0  0  0  0  0  0
   21.0344  -20.1093  -11.2513 C   0  0  0  0  0  0  0  0  0  0  0  0
   19.7105  -19.4955  -11.6168 C   0  0  0  0  0  0  0  0  0  0  0  0
   19.8280  -18.3743  -12.5591 C   0  0  0  0  0  0  0  0  0  0  0  0
   20.8610  -17.9258  -13.0739 O   0  0  0  0  0  0  0  0  0  0  0  0
   23.2036  -21.0294  -12.0953 C   0  0  0  0  0  0  0  0  0  0  0  0
   23.4452  -22.1325  -11.4948 O   0  0  0  0  0  0  0  0  0  0  0  0
   18.6266  -17.7318  -12.9219 O   0  0  0  0  0  0  0  0  0  0  0  0
   24.3594  -20.2638  -12.4179 N   0  0  0  0  0  0  0  0  0  0  0  0
   25.7040  -20.7584  -12.1397 C   0  0  1  0  0  0  0  0  0  0  0  0
   26.6632  -20.3647  -13.2482 C   0  0  0  0  0  0  0  0  0  0  0  0
   26.5056  -21.2544  -14.4584 C   0  0  0  0  0  0  0  0  0  0  0  0
   27.4349  -20.7331  -15.5345 C   0  0  0  0  0  0  0  0  0  0  0  0
   27.2955  -21.5755  -16.8056 C   0  0  0  0  0  0  0  0  0  0  0  0
   28.1800  -21.0794  -17.8413 N   0  0  0  0  0  0  0  0  0  0  0  0
   26.1449  -20.2387  -10.8309 C   0  0  0  0  0  0  0  0  0  0  0  0
   25.5706  -19.2402  -10.3477 O   0  0  0  0  0  0  0  0  0  0  0  0
   27.2007  -20.8294  -10.0937 N   0  0  0  0  0  0  0  0  0  0  0  0
   27.7465  -20.1874   -8.8949 C   0  0  1  0  0  0  0  0  0  0  0  0
   26.7092  -20.2276   -7.8207 C   0  0  0  0  0  0  0  0  0  0  0  0
   27.2232  -19.7339   -6.4980 C   0  0  0  0  0  0  0  0  0  0  0  0
   27.4069  -18.3928   -6.2846 C   0  0  0  0  0  0  0  0  0  0  0  0
   27.8683  -17.9513   -5.0705 C   0  0  0  0  0  0  0  0  0  0  0  0
   28.1646  -18.8020   -4.0286 C   0  0  0  0  0  0  0  0  0  0  0  0
   27.9716  -20.1554   -4.2667 C   0  0  0  0  0  0  0  0  0  0  0  0
   27.5102  -20.6113   -5.4773 C   0  0  0  0  0  0  0  0  0  0  0  0
   28.9530  -20.9364   -8.5000 C   0  0  0  0  0  0  0  0  0  0  0  0
   30.0218  -20.3100   -7.8309 O   0  0  0  0  0  0  0  0  0  0  0  0
   29.0880  -22.1555   -8.7370 O   0  0  0  0  0  0  0  0  0  0  0  0
  2  1  1  1
  2  3  1  0
  2  7  1  0
  3  4  1  0
  4  5  1  0
  5  9  1  0
  5  6  2  0
  7  8  2  0
 10  7  1  0
 10 11  1  0
 11 12  1  6
 12 13  1  0
 13 14  1  0
 15 14  1  0
 16 15  1  0
 17 19  1  0
 17 11  1  0
 18 17  2  0
 20 21  1  1
 20 19  1  0
 21 22  1  0
 22 27  2  0
 22 23  1  0
 23 24  2  0
 24 25  1  0
 26 25  2  0
 27 26  1  0
 28 20  1  0
 28 29  1  0
 30 28  2  0
M  END
$$$$
