EKF.pdb
     RDKit          3D

 30 30  0  0  1  0  0  0  0  0999 V2000
   24.2306  -17.5562  -18.8294 N   0  0  0  0  0  0  0  0  0  0  0  0
   24.0524  -17.7147  -17.3761 C   0  0  1  0  0  0  0  0  0  0  0  0
   23.0269  -16.7625  -16.8742 C   0  0  0  0  0  0  0  0  0  0  0  0
   22.2694  -16.0419  -17.9558 C   0  0  0  0  0  0  0  0  0  0  0  0
   20.8974  -15.6861  -17.5689 C   0  0  0  0  0  0  0  0  0  0  0  0
   19.8464  -16.2371  -17.9225 O   0  0  0  0  0  0  0  0  0  0  0  0
   23.7976  -19.1377  -17.0439 C   0  0  0  0  0  0  0  0  0  0  0  0
   22.9093  -19.8128  -17.6693 O   0  0  0  0  0  0  0  0  0  0  0  0
   20.7571  -14.5902  -16.6931 O   0  0  0  0  0  0  0  0  0  0  0  0
   24.4908  -19.8618  -16.0334 N   0  0  0  0  0  0  0  0  0  0  0  0
   24.1905  -21.2629  -15.7569 C   0  0  1  0  0  0  0  0  0  0  0  0
   25.4352  -22.1196  -15.9004 C   0  0  0  0  0  0  0  0  0  0  0  0
   25.1875  -23.3100  -16.7963 C   0  0  0  0  0  0  0  0  0  0  0  0
   26.0219  -24.4597  -16.2717 C   0  0  0  0  0  0  0  0  0  0  0  0
   25.9291  -25.6562  -17.2228 C   0  0  0  0  0  0  0  0  0  0  0  0
   26.7970  -26.7274  -16.7751 N   0  0  0  0  0  0  0  0  0  0  0  0
   23.6105  -21.3712  -14.4043 C   0  0  0  0  0  0  0  0  0  0  0  0
   24.3724  -21.5193  -13.4256 O   0  0  0  0  0  0  0  0  0  0  0  0
   22.2149  -21.3139  -14.1675 N   0  0  0  0  0  0  0  0  0  0  0  0
   21.6722  -21.2931  -12.8066 C   0  0  1  0  0  0  0  0  0  0  0  0
   22.1173  -20.0339  -12.1371 C   0  0  0  0  0  0  0  0  0  0  0  0
   23.4271  -20.1900  -11.4179 C   0  0  0  0  0  0  0  0  0  0  0  0
   24.6001  -19.8405  -12.0340 C   0  0  0  0  0  0  0  0  0  0  0  0
   25.7902  -19.9785  -11.3657 C   0  0  0  0  0  0  0  0  0  0  0  0
   25.8735  -20.4609  -10.0783 C   0  0  0  0  0  0  0  0  0  0  0  0
   24.6738  -20.8089   -9.4739 C   0  0  0  0  0  0  0  0  0  0  0  0
   23.4752  -20.6759  -10.1312 C   0  0  0  0  0  0  0  0  0  0  0  0
   20.2032  -21.3505  -12.9130 C   0  0  0  0  0  0  0  0  0  0  0  0
   19.3923  -21.5809  -11.7854 O   0  0  0  0  0  0  0  0  0  0  0  0
   19.6074  -21.1988  -14.0005 O   0  0  0  0  0  0  0  0  0  0  0  0
  2  1  1  6
  2  3  1  0
  2  7  1  0
  3  4  1  0
  4  5  1  0
  5  9  1  0
  5  6  2  0
  7  8  2  0
 10  7  1  0
 10 11  1  0
 11 12  1  1
 12 13  1  0
 13 14  1  0
 15 14  1  0
 16 15  1  0
 17 19  1  0
 17 11  1  0
 18 17  2  0
 20 21  1  6
 20 19  1  0
 21 22  1  0
 22 27  2  0
 22 23  1  0
 23 24  2  0
 24 25  1  0
 26 25  2  0
 27 26  1  0
 28 20  1  0
 28 29  1  0
 30 28  2  0
M  END
$$$$
