EKF.pdb
     RDKit          3D

 30 30  0  0  1  0  0  0  0  0999 V2000
   28.2688  -22.5315  -17.5440 N   0  0  0  0  0  0  0  0  0  0  0  0
   28.4112  -21.3217  -16.7164 C   0  0  1  0  0  0  0  0  0  0  0  0
   28.4385  -20.1083  -17.5749 C   0  0  0  0  0  0  0  0  0  0  0  0
   27.1290  -19.7956  -18.2462 C   0  0  0  0  0  0  0  0  0  0  0  0
   27.1969  -18.6349  -19.1446 C   0  0  0  0  0  0  0  0  0  0  0  0
   27.7357  -18.5723  -20.2576 O   0  0  0  0  0  0  0  0  0  0  0  0
   27.3807  -21.3074  -15.6493 C   0  0  0  0  0  0  0  0  0  0  0  0
   26.2585  -21.9003  -15.8073 O   0  0  0  0  0  0  0  0  0  0  0  0
   26.5775  -17.4529  -18.6896 O   0  0  0  0  0  0  0  0  0  0  0  0
   27.5358  -20.6552  -14.3937 N   0  0  0  0  0  0  0  0  0  0  0  0
   26.4712  -20.6596  -13.3954 C   0  0  1  0  0  0  0  0  0  0  0  0
   26.9126  -19.9408  -12.1335 C   0  0  0  0  0  0  0  0  0  0  0  0
   25.7872  -19.8402  -11.1314 C   0  0  0  0  0  0  0  0  0  0  0  0
   26.2173  -20.5823   -9.8834 C   0  0  0  0  0  0  0  0  0  0  0  0
   25.0869  -20.5771   -8.8504 C   0  0  0  0  0  0  0  0  0  0  0  0
   25.4840  -21.3056   -7.6618 N   0  0  0  0  0  0  0  0  0  0  0  0
   25.2647  -20.0413  -13.9780 C   0  0  0  0  0  0  0  0  0  0  0  0
   25.3926  -19.0715  -14.7548 O   0  0  0  0  0  0  0  0  0  0  0  0
   23.9572  -20.5051  -13.6910 N   0  0  0  0  0  0  0  0  0  0  0  0
   22.7743  -19.8500  -14.2553 C   0  0  1  0  0  0  0  0  0  0  0  0
   22.7358  -20.1224  -15.7237 C   0  0  0  0  0  0  0  0  0  0  0  0
   21.5125  -19.5567  -16.3876 C   0  0  0  0  0  0  0  0  0  0  0  0
   21.5624  -18.3324  -17.0010 C   0  0  0  0  0  0  0  0  0  0  0  0
   20.4424  -17.8284  -17.6122 C   0  0  0  0  0  0  0  0  0  0  0  0
   19.2410  -18.5010  -17.6439 C   0  0  0  0  0  0  0  0  0  0  0  0
   19.2129  -19.7385  -17.0165 C   0  0  0  0  0  0  0  0  0  0  0  0
   20.3267  -20.2551  -16.4010 C   0  0  0  0  0  0  0  0  0  0  0  0
   21.5908  -20.4092  -13.5776 C   0  0  0  0  0  0  0  0  0  0  0  0
   20.4835  -19.6048  -13.2472 O   0  0  0  0  0  0  0  0  0  0  0  0
   21.5104  -21.6159  -13.2642 O   0  0  0  0  0  0  0  0  0  0  0  0
  2  1  1  6
  2  3  1  0
  2  7  1  0
  3  4  1  0
  4  5  1  0
  5  9  1  0
  5  6  2  0
  7  8  2  0
 10  7  1  0
 10 11  1  0
 11 12  1  1
 12 13  1  0
 13 14  1  0
 15 14  1  0
 16 15  1  0
 17 19  1  0
 17 11  1  0
 18 17  2  0
 20 21  1  6
 20 19  1  0
 21 22  1  0
 22 27  2  0
 22 23  1  0
 23 24  2  0
 24 25  1  0
 26 25  2  0
 27 26  1  0
 28 20  1  0
 28 29  1  0
 30 28  2  0
M  END
$$$$
