EKF.pdb
     RDKit          3D

 30 30  0  0  1  0  0  0  0  0999 V2000
   28.0262  -24.3769  -16.3537 N   0  0  0  0  0  0  0  0  0  0  0  0
   26.5865  -24.2539  -16.6383 C   0  0  1  0  0  0  0  0  0  0  0  0
   25.8542  -25.4403  -16.1221 C   0  0  0  0  0  0  0  0  0  0  0  0
   25.5768  -26.4953  -17.1580 C   0  0  0  0  0  0  0  0  0  0  0  0
   24.4315  -26.1774  -18.0217 C   0  0  0  0  0  0  0  0  0  0  0  0
   23.5805  -25.2940  -17.8524 O   0  0  0  0  0  0  0  0  0  0  0  0
   26.0784  -22.9477  -16.1524 C   0  0  0  0  0  0  0  0  0  0  0  0
   26.4876  -22.4498  -15.0475 O   0  0  0  0  0  0  0  0  0  0  0  0
   24.2806  -26.9683  -19.1791 O   0  0  0  0  0  0  0  0  0  0  0  0
   25.1209  -22.1526  -16.8430 N   0  0  0  0  0  0  0  0  0  0  0  0
   24.6953  -20.8542  -16.3302 C   0  0  1  0  0  0  0  0  0  0  0  0
   24.4555  -19.8777  -17.4672 C   0  0  0  0  0  0  0  0  0  0  0  0
   25.7476  -19.4923  -18.1476 C   0  0  0  0  0  0  0  0  0  0  0  0
   25.3970  -18.6302  -19.3421 C   0  0  0  0  0  0  0  0  0  0  0  0
   26.6732  -18.1396  -20.0317 C   0  0  0  0  0  0  0  0  0  0  0  0
   26.3467  -17.4084  -21.2399 N   0  0  0  0  0  0  0  0  0  0  0  0
   23.4839  -21.0371  -15.5077 C   0  0  0  0  0  0  0  0  0  0  0  0
   22.6627  -21.9240  -15.8226 O   0  0  0  0  0  0  0  0  0  0  0  0
   23.2110  -20.2425  -14.3669 N   0  0  0  0  0  0  0  0  0  0  0  0
   21.9935  -20.4371  -13.5751 C   0  0  1  0  0  0  0  0  0  0  0  0
   22.2039  -19.8337  -12.2248 C   0  0  0  0  0  0  0  0  0  0  0  0
   20.9552  -19.8299  -11.3893 C   0  0  0  0  0  0  0  0  0  0  0  0
   20.1944  -18.6946  -11.2884 C   0  0  0  0  0  0  0  0  0  0  0  0
   19.0511  -18.7036  -10.5302 C   0  0  0  0  0  0  0  0  0  0  0  0
   18.6150  -19.8177   -9.8479 C   0  0  0  0  0  0  0  0  0  0  0  0
   19.4005  -20.9557   -9.9638 C   0  0  0  0  0  0  0  0  0  0  0  0
   20.5474  -20.9608  -10.7195 C   0  0  0  0  0  0  0  0  0  0  0  0
   20.8881  -19.7739  -14.2897 C   0  0  0  0  0  0  0  0  0  0  0  0
   21.0982  -18.6078  -15.0503 O   0  0  0  0  0  0  0  0  0  0  0  0
   19.7174  -20.2090  -14.2572 O   0  0  0  0  0  0  0  0  0  0  0  0
  2  1  1  1
  2  3  1  0
  2  7  1  0
  3  4  1  0
  4  5  1  0
  5  9  1  0
  5  6  2  0
  7  8  2  0
 10  7  1  0
 10 11  1  0
 11 12  1  6
 12 13  1  0
 13 14  1  0
 15 14  1  0
 16 15  1  0
 17 19  1  0
 17 11  1  0
 18 17  2  0
 20 21  1  1
 20 19  1  0
 21 22  1  0
 22 27  2  0
 22 23  1  0
 23 24  2  0
 24 25  1  0
 26 25  2  0
 27 26  1  0
 28 20  1  0
 28 29  1  0
 30 28  2  0
M  END
$$$$
