EKF.pdb
     RDKit          3D

 30 30  0  0  1  0  0  0  0  0999 V2000
   26.3239  -17.6432  -15.9435 N   0  0  0  0  0  0  0  0  0  0  0  0
   27.0018  -18.6178  -15.0719 C   0  0  1  0  0  0  0  0  0  0  0  0
   28.3631  -18.1360  -14.7185 C   0  0  0  0  0  0  0  0  0  0  0  0
   29.4809  -18.9458  -15.3166 C   0  0  0  0  0  0  0  0  0  0  0  0
   29.4600  -18.9729  -16.7855 C   0  0  0  0  0  0  0  0  0  0  0  0
   29.3347  -18.0122  -17.5566 O   0  0  0  0  0  0  0  0  0  0  0  0
   26.1393  -18.9546  -13.9130 C   0  0  0  0  0  0  0  0  0  0  0  0
   25.7038  -18.0441  -13.1274 O   0  0  0  0  0  0  0  0  0  0  0  0
   29.5983  -20.2385  -17.3912 O   0  0  0  0  0  0  0  0  0  0  0  0
   25.7297  -20.2753  -13.5754 N   0  0  0  0  0  0  0  0  0  0  0  0
   24.9028  -20.5411  -12.4026 C   0  0  1  0  0  0  0  0  0  0  0  0
   23.9385  -21.6823  -12.6702 C   0  0  0  0  0  0  0  0  0  0  0  0
   22.9309  -21.8286  -11.5549 C   0  0  0  0  0  0  0  0  0  0  0  0
   21.7350  -20.9668  -11.9018 C   0  0  0  0  0  0  0  0  0  0  0  0
   20.6496  -21.1148  -10.8318 C   0  0  0  0  0  0  0  0  0  0  0  0
   20.2032  -22.4915  -10.7506 N   0  0  0  0  0  0  0  0  0  0  0  0
   25.7807  -20.8313  -11.2526 C   0  0  0  0  0  0  0  0  0  0  0  0
   26.7066  -21.6589  -11.3874 O   0  0  0  0  0  0  0  0  0  0  0  0
   25.6162  -20.2057   -9.9922 N   0  0  0  0  0  0  0  0  0  0  0  0
   26.3595  -20.6579   -8.8132 C   0  0  1  0  0  0  0  0  0  0  0  0
   27.1785  -19.5178   -8.3020 C   0  0  0  0  0  0  0  0  0  0  0  0
   27.8085  -19.8068   -6.9691 C   0  0  0  0  0  0  0  0  0  0  0  0
   27.4519  -19.0798   -5.8636 C   0  0  0  0  0  0  0  0  0  0  0  0
   28.0264  -19.3572   -4.6491 C   0  0  0  0  0  0  0  0  0  0  0  0
   28.9650  -20.3500   -4.4750 C   0  0  0  0  0  0  0  0  0  0  0  0
   29.3115  -21.0733   -5.6075 C   0  0  0  0  0  0  0  0  0  0  0  0
   28.7442  -20.8064   -6.8295 C   0  0  0  0  0  0  0  0  0  0  0  0
   25.3746  -21.0998   -7.8095 C   0  0  0  0  0  0  0  0  0  0  0  0
   25.7461  -21.9147   -6.7231 O   0  0  0  0  0  0  0  0  0  0  0  0
   24.1695  -20.7764   -7.8709 O   0  0  0  0  0  0  0  0  0  0  0  0
  2  1  1  1
  2  3  1  0
  2  7  1  0
  3  4  1  0
  4  5  1  0
  5  9  1  0
  5  6  2  0
  7  8  2  0
 10  7  1  0
 10 11  1  0
 11 12  1  6
 12 13  1  0
 13 14  1  0
 15 14  1  0
 16 15  1  0
 17 19  1  0
 17 11  1  0
 18 17  2  0
 20 21  1  1
 20 19  1  0
 21 22  1  0
 22 27  2  0
 22 23  1  0
 23 24  2  0
 24 25  1  0
 26 25  2  0
 27 26  1  0
 28 20  1  0
 28 29  1  0
 30 28  2  0
M  END
$$$$
