EKF.pdb
     RDKit          3D

 30 30  0  0  1  0  0  0  0  0999 V2000
   28.2344  -17.8264  -16.0932 N   0  0  0  0  0  0  0  0  0  0  0  0
   27.3249  -17.4722  -14.9903 C   0  0  1  0  0  0  0  0  0  0  0  0
   26.6488  -16.1786  -15.2731 C   0  0  0  0  0  0  0  0  0  0  0  0
   26.3288  -15.9521  -16.7254 C   0  0  0  0  0  0  0  0  0  0  0  0
   24.9957  -15.3748  -16.9456 C   0  0  0  0  0  0  0  0  0  0  0  0
   24.6204  -14.2228  -16.6904 O   0  0  0  0  0  0  0  0  0  0  0  0
   26.4103  -18.6028  -14.6979 C   0  0  0  0  0  0  0  0  0  0  0  0
   25.1483  -18.4940  -14.8752 O   0  0  0  0  0  0  0  0  0  0  0  0
   24.0286  -16.2292  -17.5133 O   0  0  0  0  0  0  0  0  0  0  0  0
   26.8336  -19.8707  -14.2086 N   0  0  0  0  0  0  0  0  0  0  0  0
   25.8891  -20.9650  -14.0082 C   0  0  1  0  0  0  0  0  0  0  0  0
   26.4952  -22.2868  -14.4434 C   0  0  0  0  0  0  0  0  0  0  0  0
   25.7295  -22.8944  -15.5946 C   0  0  0  0  0  0  0  0  0  0  0  0
   25.5424  -24.3668  -15.2942 C   0  0  0  0  0  0  0  0  0  0  0  0
   24.8929  -25.0708  -16.4889 C   0  0  0  0  0  0  0  0  0  0  0  0
   24.6851  -26.4754  -16.1970 N   0  0  0  0  0  0  0  0  0  0  0  0
   25.4839  -20.9951  -12.5896 C   0  0  0  0  0  0  0  0  0  0  0  0
   26.3650  -21.0545  -11.7061 O   0  0  0  0  0  0  0  0  0  0  0  0
   24.1268  -20.9592  -12.1845 N   0  0  0  0  0  0  0  0  0  0  0  0
   23.7547  -20.8930  -10.7688 C   0  0  1  0  0  0  0  0  0  0  0  0
   24.2522  -19.6012  -10.2070 C   0  0  0  0  0  0  0  0  0  0  0  0
   25.3002  -19.7937   -9.1478 C   0  0  0  0  0  0  0  0  0  0  0  0
   26.6091  -19.4800   -9.4052 C   0  0  0  0  0  0  0  0  0  0  0  0
   27.5573  -19.6510   -8.4286 C   0  0  0  0  0  0  0  0  0  0  0  0
   27.2594  -20.1324   -7.1731 C   0  0  0  0  0  0  0  0  0  0  0  0
   25.9283  -20.4438   -6.9343 C   0  0  0  0  0  0  0  0  0  0  0  0
   24.9688  -20.2775   -7.9028 C   0  0  0  0  0  0  0  0  0  0  0  0
   22.2852  -20.9781  -10.6911 C   0  0  0  0  0  0  0  0  0  0  0  0
   21.4834  -20.9318  -11.8475 O   0  0  0  0  0  0  0  0  0  0  0  0
   21.6809  -21.0946   -9.6039 O   0  0  0  0  0  0  0  0  0  0  0  0
  2  1  1  6
  2  3  1  0
  2  7  1  0
  3  4  1  0
  4  5  1  0
  5  9  1  0
  5  6  2  0
  7  8  2  0
 10  7  1  0
 10 11  1  0
 11 12  1  1
 12 13  1  0
 13 14  1  0
 15 14  1  0
 16 15  1  0
 17 19  1  0
 17 11  1  0
 18 17  2  0
 20 21  1  6
 20 19  1  0
 21 22  1  0
 22 27  2  0
 22 23  1  0
 23 24  2  0
 24 25  1  0
 26 25  2  0
 27 26  1  0
 28 20  1  0
 28 29  1  0
 30 28  2  0
M  END
$$$$
