EKF.pdb
     RDKit          3D

 30 30  0  0  1  0  0  0  0  0999 V2000
   21.9180  -14.8533  -18.5051 N   0  0  0  0  0  0  0  0  0  0  0  0
   22.1646  -14.2157  -17.2006 C   0  0  1  0  0  0  0  0  0  0  0  0
   23.6156  -14.2435  -16.8777 C   0  0  0  0  0  0  0  0  0  0  0  0
   24.2006  -15.6257  -16.7765 C   0  0  0  0  0  0  0  0  0  0  0  0
   25.6569  -15.6296  -16.5813 C   0  0  0  0  0  0  0  0  0  0  0  0
   26.4228  -14.6567  -16.5934 O   0  0  0  0  0  0  0  0  0  0  0  0
   21.5434  -12.8691  -17.1635 C   0  0  0  0  0  0  0  0  0  0  0  0
   21.8721  -11.9669  -18.0085 O   0  0  0  0  0  0  0  0  0  0  0  0
   26.2555  -16.8856  -16.3535 O   0  0  0  0  0  0  0  0  0  0  0  0
   20.5589  -12.4661  -16.2179 N   0  0  0  0  0  0  0  0  0  0  0  0
   19.9509  -11.1403  -16.2680 C   0  0  1  0  0  0  0  0  0  0  0  0
   18.5136  -11.1877  -15.7823 C   0  0  0  0  0  0  0  0  0  0  0  0
   17.6580  -12.0599  -16.6699 C   0  0  0  0  0  0  0  0  0  0  0  0
   16.2662  -12.0943  -16.0741 C   0  0  0  0  0  0  0  0  0  0  0  0
   15.3719  -13.0437  -16.8764 C   0  0  0  0  0  0  0  0  0  0  0  0
   14.0669  -13.1557  -16.2555 N   0  0  0  0  0  0  0  0  0  0  0  0
   20.7648  -10.2087  -15.4635 C   0  0  0  0  0  0  0  0  0  0  0  0
   20.9800  -10.4709  -14.2613 O   0  0  0  0  0  0  0  0  0  0  0  0
   21.3167   -9.0201  -16.0018 N   0  0  0  0  0  0  0  0  0  0  0  0
   22.2053   -8.1650  -15.2104 C   0  0  1  0  0  0  0  0  0  0  0  0
   23.4628   -7.9410  -15.9853 C   0  0  0  0  0  0  0  0  0  0  0  0
   24.3641   -9.1430  -15.9901 C   0  0  0  0  0  0  0  0  0  0  0  0
   23.8923  -10.3593  -16.4095 C   0  0  0  0  0  0  0  0  0  0  0  0
   24.7256  -11.4490  -16.4186 C   0  0  0  0  0  0  0  0  0  0  0  0
   26.0424  -11.3870  -16.0195 C   0  0  0  0  0  0  0  0  0  0  0  0
   26.4989  -10.1460  -15.5985 C   0  0  0  0  0  0  0  0  0  0  0  0
   25.6756   -9.0467  -15.5844 C   0  0  0  0  0  0  0  0  0  0  0  0
   21.4973   -6.8961  -14.9636 C   0  0  0  0  0  0  0  0  0  0  0  0
   21.9393   -5.9850  -13.9854 O   0  0  0  0  0  0  0  0  0  0  0  0
   20.4769   -6.5666  -15.6047 O   0  0  0  0  0  0  0  0  0  0  0  0
  2  1  1  6
  2  3  1  0
  2  7  1  0
  3  4  1  0
  4  5  1  0
  5  9  1  0
  5  6  2  0
  7  8  2  0
 10  7  1  0
 10 11  1  0
 11 12  1  1
 12 13  1  0
 13 14  1  0
 15 14  1  0
 16 15  1  0
 17 19  1  0
 17 11  1  0
 18 17  2  0
 20 21  1  6
 20 19  1  0
 21 22  1  0
 22 27  2  0
 22 23  1  0
 23 24  2  0
 24 25  1  0
 26 25  2  0
 27 26  1  0
 28 20  1  0
 28 29  1  0
 30 28  2  0
M  END
$$$$
