EKF.pdb
     RDKit          3D

 30 30  0  0  1  0  0  0  0  0999 V2000
   21.7657   -9.4593  -21.8210 N   0  0  0  0  0  0  0  0  0  0  0  0
   22.8659   -9.0785  -20.9190 C   0  0  1  0  0  0  0  0  0  0  0  0
   23.1057   -7.6128  -20.9864 C   0  0  0  0  0  0  0  0  0  0  0  0
   23.8305   -7.1606  -22.2247 C   0  0  0  0  0  0  0  0  0  0  0  0
   24.8601   -6.1464  -21.9600 C   0  0  0  0  0  0  0  0  0  0  0  0
   26.0256   -6.3335  -21.5862 O   0  0  0  0  0  0  0  0  0  0  0  0
   22.6164   -9.6073  -19.5557 C   0  0  0  0  0  0  0  0  0  0  0  0
   21.4835   -9.4494  -18.9834 O   0  0  0  0  0  0  0  0  0  0  0  0
   24.4804   -4.8024  -22.1531 O   0  0  0  0  0  0  0  0  0  0  0  0
   23.5790  -10.3143  -18.7814 N   0  0  0  0  0  0  0  0  0  0  0  0
   23.3013  -10.7244  -17.4086 C   0  0  1  0  0  0  0  0  0  0  0  0
   24.3019  -11.7672  -16.9446 C   0  0  0  0  0  0  0  0  0  0  0  0
   23.9886  -12.2525  -15.5492 C   0  0  0  0  0  0  0  0  0  0  0  0
   22.8794  -13.2776  -15.6589 C   0  0  0  0  0  0  0  0  0  0  0  0
   22.4979  -13.7932  -14.2684 C   0  0  0  0  0  0  0  0  0  0  0  0
   21.3275  -14.6447  -14.3477 N   0  0  0  0  0  0  0  0  0  0  0  0
   23.3177   -9.5322  -16.5392 C   0  0  0  0  0  0  0  0  0  0  0  0
   24.1767   -8.6470  -16.7365 O   0  0  0  0  0  0  0  0  0  0  0  0
   22.3930   -9.3481  -15.4819 N   0  0  0  0  0  0  0  0  0  0  0  0
   22.3048   -8.0771  -14.7581 C   0  0  1  0  0  0  0  0  0  0  0  0
   21.9962   -6.9929  -15.7384 C   0  0  0  0  0  0  0  0  0  0  0  0
   21.7676   -5.6620  -15.0797 C   0  0  0  0  0  0  0  0  0  0  0  0
   20.7564   -4.8428  -15.5090 C   0  0  0  0  0  0  0  0  0  0  0  0
   20.5501   -3.6333  -14.8953 C   0  0  0  0  0  0  0  0  0  0  0  0
   21.3220   -3.1857  -13.8461 C   0  0  0  0  0  0  0  0  0  0  0  0
   22.3401   -4.0308  -13.4281 C   0  0  0  0  0  0  0  0  0  0  0  0
   22.5578   -5.2443  -14.0333 C   0  0  0  0  0  0  0  0  0  0  0  0
   21.2331   -8.2104  -13.7549 C   0  0  0  0  0  0  0  0  0  0  0  0
   21.3626   -7.6658  -12.4630 O   0  0  0  0  0  0  0  0  0  0  0  0
   20.1636   -8.8087  -13.9977 O   0  0  0  0  0  0  0  0  0  0  0  0
  2  1  1  6
  2  3  1  0
  2  7  1  0
  3  4  1  0
  4  5  1  0
  5  9  1  0
  5  6  2  0
  7  8  2  0
 10  7  1  0
 10 11  1  0
 11 12  1  1
 12 13  1  0
 13 14  1  0
 15 14  1  0
 16 15  1  0
 17 19  1  0
 17 11  1  0
 18 17  2  0
 20 21  1  6
 20 19  1  0
 21 22  1  0
 22 27  2  0
 22 23  1  0
 23 24  2  0
 24 25  1  0
 26 25  2  0
 27 26  1  0
 28 20  1  0
 28 29  1  0
 30 28  2  0
M  END
$$$$
