EKF.pdb
     RDKit          3D

 30 30  0  0  1  0  0  0  0  0999 V2000
   20.7497  -15.2706  -17.1518 N   0  0  0  0  0  0  0  0  0  0  0  0
   19.5832  -14.4005  -16.9259 C   0  0  1  0  0  0  0  0  0  0  0  0
   18.8002  -14.8789  -15.7562 C   0  0  0  0  0  0  0  0  0  0  0  0
   17.8761  -16.0270  -16.0578 C   0  0  0  0  0  0  0  0  0  0  0  0
   17.1751  -16.5383  -14.8721 C   0  0  0  0  0  0  0  0  0  0  0  0
   15.9994  -16.3320  -14.5428 O   0  0  0  0  0  0  0  0  0  0  0  0
   20.0096  -12.9816  -16.8525 C   0  0  0  0  0  0  0  0  0  0  0  0
   21.0747  -12.6437  -16.2302 O   0  0  0  0  0  0  0  0  0  0  0  0
   17.9253  -17.3597  -14.0059 O   0  0  0  0  0  0  0  0  0  0  0  0
   19.2998  -11.8993  -17.4449 N   0  0  0  0  0  0  0  0  0  0  0  0
   19.8466  -10.5463  -17.4607 C   0  0  1  0  0  0  0  0  0  0  0  0
   19.1809   -9.7084  -18.5371 C   0  0  0  0  0  0  0  0  0  0  0  0
   19.7628   -8.3160  -18.5936 C   0  0  0  0  0  0  0  0  0  0  0  0
   19.0483   -7.5652  -19.6977 C   0  0  0  0  0  0  0  0  0  0  0  0
   19.6178   -6.1497  -19.8276 C   0  0  0  0  0  0  0  0  0  0  0  0
   18.8882   -5.4006  -20.8314 N   0  0  0  0  0  0  0  0  0  0  0  0
   19.6778   -9.9452  -16.1237 C   0  0  0  0  0  0  0  0  0  0  0  0
   18.6417  -10.1927  -15.4715 O   0  0  0  0  0  0  0  0  0  0  0  0
   20.6495   -9.0924  -15.5442 N   0  0  0  0  0  0  0  0  0  0  0  0
   20.4634   -8.5210  -14.2078 C   0  0  1  0  0  0  0  0  0  0  0  0
   21.7219   -8.7188  -13.4274 C   0  0  0  0  0  0  0  0  0  0  0  0
   22.9482   -8.2973  -14.1862 C   0  0  0  0  0  0  0  0  0  0  0  0
   23.8067   -9.2388  -14.6905 C   0  0  0  0  0  0  0  0  0  0  0  0
   24.9192   -8.8441  -15.3896 C   0  0  0  0  0  0  0  0  0  0  0  0
   25.2288   -7.5216  -15.6179 C   0  0  0  0  0  0  0  0  0  0  0  0
   24.3461   -6.5854  -15.0981 C   0  0  0  0  0  0  0  0  0  0  0  0
   23.2286   -6.9665  -14.3965 C   0  0  0  0  0  0  0  0  0  0  0  0
   20.1589   -7.0886  -14.3753 C   0  0  0  0  0  0  0  0  0  0  0  0
   19.7752   -6.2854  -13.2844 O   0  0  0  0  0  0  0  0  0  0  0  0
   20.2250   -6.5186  -15.4850 O   0  0  0  0  0  0  0  0  0  0  0  0
  2  1  1  1
  2  3  1  0
  2  7  1  0
  3  4  1  0
  4  5  1  0
  5  9  1  0
  5  6  2  0
  7  8  2  0
 10  7  1  0
 10 11  1  0
 11 12  1  6
 12 13  1  0
 13 14  1  0
 15 14  1  0
 16 15  1  0
 17 19  1  0
 17 11  1  0
 18 17  2  0
 20 21  1  1
 20 19  1  0
 21 22  1  0
 22 27  2  0
 22 23  1  0
 23 24  2  0
 24 25  1  0
 26 25  2  0
 27 26  1  0
 28 20  1  0
 28 29  1  0
 30 28  2  0
M  END
$$$$
