MPL.pdb
     RDKit          3D

 24 24  0  0  1  0  0  0  0  0999 V2000
    3.5597  -18.6664   24.0425 C   0  0  0  0  0  0  0  0  0  0  0  0
    5.0851  -19.5994   24.2961 S   0  0  0  0  0  0  0  0  0  0  0  0
    6.2785  -19.1379   22.9678 C   0  0  0  0  0  0  0  0  0  0  0  0
    5.6240  -18.2693   21.9538 C   0  0  0  0  0  0  0  0  0  0  0  0
    6.5342  -17.8847   20.8364 C   0  0  2  0  0  0  0  0  0  0  0  0
    6.9455  -19.0486   20.0596 N   0  0  0  0  0  0  0  0  0  0  0  0
    7.7031  -17.0808   21.1763 C   0  0  0  0  0  0  0  0  0  0  0  0
    8.8313  -17.6781   21.1368 O   0  0  0  0  0  0  0  0  0  0  0  0
    7.7198  -15.7151   21.5437 N   0  0  0  0  0  0  0  0  0  0  0  0
    6.7055  -14.7628   21.8653 C   0  0  0  0  0  0  0  0  0  0  0  0
    7.1965  -13.5157   21.1139 C   0  0  0  0  0  0  0  0  0  0  0  0
    8.6743  -13.6550   20.9607 C   0  0  0  0  0  0  0  0  0  0  0  0
    8.9616  -14.9291   21.6845 C   0  0  1  0  0  0  0  0  0  0  0  0
    9.2852  -14.7245   23.1297 C   0  0  0  0  0  0  0  0  0  0  0  0
   10.3191  -14.1647   23.5163 O   0  0  0  0  0  0  0  0  0  0  0  0
    8.3819  -12.1295   26.3627 C   0  0  0  0  0  0  0  0  0  0  0  0
    7.2234  -12.9544   25.8933 C   0  0  2  0  0  0  0  0  0  0  0  0
    5.8794  -12.4055   26.2796 C   0  0  0  0  0  0  0  0  0  0  0  0
    7.3619  -14.4135   26.0497 C   0  0  0  0  0  0  0  0  0  0  0  0
    8.5446  -15.1075   25.5100 C   0  0  2  0  0  0  0  0  0  0  0  0
    8.3377  -15.2087   24.0615 N   0  0  0  0  0  0  0  0  0  0  0  0
    8.8650  -16.4393   26.0042 C   0  0  0  0  0  0  0  0  0  0  0  0
    8.4493  -17.4601   25.3659 O   0  0  0  0  0  0  0  0  0  0  0  0
    9.6053  -16.7461   27.1374 O   0  0  0  0  0  0  0  0  0  0  0  0
  1  2  1  0
  3  2  1  0
  4  3  1  0
  5  6  1  1
  5  4  1  0
  7  5  1  0
  8  7  2  0
  9 10  1  0
  9  7  1  0
 11 10  1  0
 12 13  1  0
 12 11  1  0
 13  9  1  0
 13 14  1  1
 14 15  2  0
 17 16  1  1
 18 17  1  0
 19 17  1  0
 20 19  1  1
 20 21  1  0
 21 14  1  0
 22 24  1  0
 22 20  1  0
 23 22  2  0
M  END
$$$$
