MPL.pdb
     RDKit          3D

 24 24  0  0  1  0  0  0  0  0999 V2000
    5.4717  -12.3771   25.6692 C   0  0  0  0  0  0  0  0  0  0  0  0
    6.1123  -13.3774   27.0296 S   0  0  0  0  0  0  0  0  0  0  0  0
    6.5003  -15.0607   26.3832 C   0  0  0  0  0  0  0  0  0  0  0  0
    5.7049  -15.3487   25.1602 C   0  0  0  0  0  0  0  0  0  0  0  0
    6.0458  -16.6591   24.5345 C   0  0  2  0  0  0  0  0  0  0  0  0
    5.7993  -17.7670   25.4506 N   0  0  0  0  0  0  0  0  0  0  0  0
    7.3749  -16.7912   23.9476 C   0  0  0  0  0  0  0  0  0  0  0  0
    7.8138  -17.9819   23.8037 O   0  0  0  0  0  0  0  0  0  0  0  0
    8.2259  -15.7446   23.5226 N   0  0  0  0  0  0  0  0  0  0  0  0
    8.1576  -14.3201   23.5955 C   0  0  0  0  0  0  0  0  0  0  0  0
    8.6417  -13.9108   22.1958 C   0  0  0  0  0  0  0  0  0  0  0  0
    9.4971  -15.0239   21.6897 C   0  0  0  0  0  0  0  0  0  0  0  0
    9.5150  -15.9749   22.8408 C   0  0  1  0  0  0  0  0  0  0  0  0
   10.6506  -15.7360   23.7834 C   0  0  0  0  0  0  0  0  0  0  0  0
   11.4569  -14.8071   23.6458 O   0  0  0  0  0  0  0  0  0  0  0  0
    8.9160  -13.4219   27.9903 C   0  0  0  0  0  0  0  0  0  0  0  0
    9.9640  -14.4792   27.8257 C   0  0  2  0  0  0  0  0  0  0  0  0
   11.2706  -14.1614   28.4957 C   0  0  0  0  0  0  0  0  0  0  0  0
   10.0880  -15.0639   26.4784 C   0  0  0  0  0  0  0  0  0  0  0  0
   11.0182  -16.1814   26.2385 C   0  0  2  0  0  0  0  0  0  0  0  0
   10.7695  -16.6374   24.8669 N   0  0  0  0  0  0  0  0  0  0  0  0
   10.9567  -17.3471   27.1092 C   0  0  0  0  0  0  0  0  0  0  0  0
    9.9138  -18.0782   27.1028 O   0  0  0  0  0  0  0  0  0  0  0  0
   11.9435  -17.7804   27.9837 O   0  0  0  0  0  0  0  0  0  0  0  0
  1  2  1  0
  3  2  1  0
  4  3  1  0
  5  6  1  1
  5  4  1  0
  7  5  1  0
  8  7  2  0
  9 10  1  0
  9  7  1  0
 11 10  1  0
 12 13  1  0
 12 11  1  0
 13  9  1  0
 13 14  1  1
 14 15  2  0
 17 16  1  6
 18 17  1  0
 19 17  1  0
 20 19  1  1
 20 21  1  0
 21 14  1  0
 22 24  1  0
 22 20  1  0
 23 22  2  0
M  END
$$$$
