MPL.pdb
     RDKit          3D

 24 24  0  0  1  0  0  0  0  0999 V2000
    7.0413  -12.2772   27.3231 C   0  0  0  0  0  0  0  0  0  0  0  0
    5.8323  -13.1078   26.2696 S   0  0  0  0  0  0  0  0  0  0  0  0
    6.4840  -14.7787   25.8396 C   0  0  0  0  0  0  0  0  0  0  0  0
    5.5729  -15.4676   24.8875 C   0  0  0  0  0  0  0  0  0  0  0  0
    6.0802  -16.8008   24.4515 C   0  0  2  0  0  0  0  0  0  0  0  0
    6.0507  -17.7657   25.5449 N   0  0  0  0  0  0  0  0  0  0  0  0
    7.3840  -16.8362   23.7981 C   0  0  0  0  0  0  0  0  0  0  0  0
    7.8896  -17.9933   23.6067 O   0  0  0  0  0  0  0  0  0  0  0  0
    8.1451  -15.7292   23.3556 N   0  0  0  0  0  0  0  0  0  0  0  0
    7.9724  -14.3137   23.4318 C   0  0  0  0  0  0  0  0  0  0  0  0
    8.3936  -13.8701   22.0222 C   0  0  0  0  0  0  0  0  0  0  0  0
    9.3183  -14.9165   21.4960 C   0  0  0  0  0  0  0  0  0  0  0  0
    9.4324  -15.8630   22.6453 C   0  0  1  0  0  0  0  0  0  0  0  0
   10.5675  -15.5396   23.5630 C   0  0  0  0  0  0  0  0  0  0  0  0
   11.2825  -14.5390   23.4242 O   0  0  0  0  0  0  0  0  0  0  0  0
    9.0042  -13.6331   28.1051 C   0  0  0  0  0  0  0  0  0  0  0  0
   10.2652  -14.3066   27.6591 C   0  0  2  0  0  0  0  0  0  0  0  0
   11.5186  -13.5430   27.9802 C   0  0  0  0  0  0  0  0  0  0  0  0
   10.2372  -14.9081   26.3137 C   0  0  0  0  0  0  0  0  0  0  0  0
   11.1688  -15.9968   25.9693 C   0  0  2  0  0  0  0  0  0  0  0  0
   10.7974  -16.4467   24.6237 N   0  0  0  0  0  0  0  0  0  0  0  0
   11.2255  -17.1719   26.8276 C   0  0  0  0  0  0  0  0  0  0  0  0
   12.2600  -17.3752   27.5422 O   0  0  0  0  0  0  0  0  0  0  0  0
   10.2422  -18.1410   26.9706 O   0  0  0  0  0  0  0  0  0  0  0  0
  1  2  1  0
  3  2  1  0
  4  3  1  0
  5  6  1  1
  5  4  1  0
  7  5  1  0
  8  7  2  0
  9 10  1  0
  9  7  1  0
 11 10  1  0
 12 13  1  0
 12 11  1  0
 13  9  1  0
 13 14  1  1
 14 15  2  0
 17 16  1  6
 18 17  1  0
 19 17  1  0
 20 19  1  1
 20 21  1  0
 21 14  1  0
 22 24  1  0
 22 20  1  0
 23 22  2  0
M  END
$$$$
