MPL.pdb
     RDKit          3D

 24 24  0  0  1  0  0  0  0  0999 V2000
    9.8354  -12.2625   19.7002 C   0  0  0  0  0  0  0  0  0  0  0  0
    8.2239  -12.3754   18.8927 S   0  0  0  0  0  0  0  0  0  0  0  0
    7.5100  -14.0388   19.2461 C   0  0  0  0  0  0  0  0  0  0  0  0
    8.4014  -15.1119   18.7314 C   0  0  0  0  0  0  0  0  0  0  0  0
    7.9923  -16.4762   19.1742 C   0  0  2  0  0  0  0  0  0  0  0  0
    6.7622  -16.9032   18.5171 N   0  0  0  0  0  0  0  0  0  0  0  0
    7.8892  -16.7070   20.6111 C   0  0  0  0  0  0  0  0  0  0  0  0
    6.7143  -16.6563   21.1092 O   0  0  0  0  0  0  0  0  0  0  0  0
    8.9483  -16.9799   21.5079 N   0  0  0  0  0  0  0  0  0  0  0  0
   10.3702  -17.0157   21.3809 C   0  0  0  0  0  0  0  0  0  0  0  0
   10.7245  -18.2806   22.1780 C   0  0  0  0  0  0  0  0  0  0  0  0
    9.6250  -18.4946   23.1640 C   0  0  0  0  0  0  0  0  0  0  0  0
    8.7392  -17.3153   22.9304 C   0  0  1  0  0  0  0  0  0  0  0  0
    9.0791  -16.1441   23.7951 C   0  0  0  0  0  0  0  0  0  0  0  0
    9.9278  -15.2992   23.4825 O   0  0  0  0  0  0  0  0  0  0  0  0
    8.0234  -12.1040   26.8002 C   0  0  0  0  0  0  0  0  0  0  0  0
    6.9099  -12.8225   26.1024 C   0  0  2  0  0  0  0  0  0  0  0  0
    5.5360  -12.4237   26.5614 C   0  0  0  0  0  0  0  0  0  0  0  0
    7.0977  -14.2709   25.9042 C   0  0  0  0  0  0  0  0  0  0  0  0
    8.4551  -14.8433   25.8638 C   0  0  2  0  0  0  0  0  0  0  0  0
    8.3736  -16.0376   25.0164 N   0  0  0  0  0  0  0  0  0  0  0  0
    9.0921  -15.2320   27.1143 C   0  0  0  0  0  0  0  0  0  0  0  0
    8.8100  -16.3591   27.6360 O   0  0  0  0  0  0  0  0  0  0  0  0
   10.0146  -14.4904   27.8392 O   0  0  0  0  0  0  0  0  0  0  0  0
  1  2  1  0
  3  2  1  0
  4  3  1  0
  5  6  1  6
  5  4  1  0
  7  5  1  0
  8  7  2  0
  9 10  1  0
  9  7  1  0
 11 10  1  0
 12 13  1  0
 12 11  1  0
 13  9  1  0
 13 14  1  1
 14 15  2  0
 17 16  1  1
 18 17  1  0
 19 17  1  0
 20 19  1  1
 20 21  1  0
 21 14  1  0
 22 24  1  0
 22 20  1  0
 23 22  2  0
M  END
$$$$
