MPL.pdb
     RDKit          3D

 24 24  0  0  1  0  0  0  0  0999 V2000
    5.2542  -12.7177   25.9894 C   0  0  0  0  0  0  0  0  0  0  0  0
    6.6970  -13.5992   26.6239 S   0  0  0  0  0  0  0  0  0  0  0  0
    6.5295  -15.3830   26.1861 C   0  0  0  0  0  0  0  0  0  0  0  0
    5.7010  -15.5467   24.9621 C   0  0  0  0  0  0  0  0  0  0  0  0
    6.0466  -16.7687   24.1797 C   0  0  2  0  0  0  0  0  0  0  0  0
    5.7035  -17.9837   24.9099 N   0  0  0  0  0  0  0  0  0  0  0  0
    7.4094  -16.8690   23.6686 C   0  0  0  0  0  0  0  0  0  0  0  0
    7.8940  -18.0471   23.5777 O   0  0  0  0  0  0  0  0  0  0  0  0
    8.2480  -15.8041   23.2648 N   0  0  0  0  0  0  0  0  0  0  0  0
    8.1261  -14.3815   23.2919 C   0  0  0  0  0  0  0  0  0  0  0  0
    8.6799  -13.9930   21.9122 C   0  0  0  0  0  0  0  0  0  0  0  0
    9.6025  -15.0876   21.4909 C   0  0  0  0  0  0  0  0  0  0  0  0
    9.5833  -16.0058   22.6683 C   0  0  1  0  0  0  0  0  0  0  0  0
   10.6505  -15.7003   23.6697 C   0  0  0  0  0  0  0  0  0  0  0  0
   11.4840  -14.7990   23.5129 O   0  0  0  0  0  0  0  0  0  0  0  0
   10.6073  -15.1017   28.9336 C   0  0  0  0  0  0  0  0  0  0  0  0
   10.6190  -14.1678   27.7629 C   0  0  2  0  0  0  0  0  0  0  0  0
    9.8108  -12.9173   27.9639 C   0  0  0  0  0  0  0  0  0  0  0  0
   10.4705  -14.7914   26.4356 C   0  0  0  0  0  0  0  0  0  0  0  0
   11.2143  -16.0204   26.1071 C   0  0  2  0  0  0  0  0  0  0  0  0
   10.6699  -16.5036   24.8338 N   0  0  0  0  0  0  0  0  0  0  0  0
   11.1879  -17.1313   27.0483 C   0  0  0  0  0  0  0  0  0  0  0  0
   12.0745  -17.1998   27.9601 O   0  0  0  0  0  0  0  0  0  0  0  0
   10.2695  -18.1716   27.0758 O   0  0  0  0  0  0  0  0  0  0  0  0
  1  2  1  0
  3  2  1  0
  4  3  1  0
  5  6  1  1
  5  4  1  0
  7  5  1  0
  8  7  2  0
  9 10  1  0
  9  7  1  0
 11 10  1  0
 12 13  1  0
 12 11  1  0
 13  9  1  0
 13 14  1  1
 14 15  2  0
 17 16  1  1
 18 17  1  0
 19 17  1  0
 20 19  1  1
 20 21  1  0
 21 14  1  0
 22 24  1  0
 22 20  1  0
 23 22  2  0
M  END
$$$$
