MPL.pdb
     RDKit          3D

 24 24  0  0  1  0  0  0  0  0999 V2000
    6.9947  -12.5419   26.3602 C   0  0  0  0  0  0  0  0  0  0  0  0
    5.7456  -13.8309   26.5599 S   0  0  0  0  0  0  0  0  0  0  0  0
    6.3961  -15.3920   25.8242 C   0  0  0  0  0  0  0  0  0  0  0  0
    5.4902  -15.8836   24.7524 C   0  0  0  0  0  0  0  0  0  0  0  0
    6.0218  -17.0810   24.0392 C   0  0  2  0  0  0  0  0  0  0  0  0
    5.8056  -18.3000   24.8103 N   0  0  0  0  0  0  0  0  0  0  0  0
    7.4068  -17.0248   23.5842 C   0  0  0  0  0  0  0  0  0  0  0  0
    8.0159  -18.1431   23.4867 O   0  0  0  0  0  0  0  0  0  0  0  0
    8.1440  -15.8676   23.2409 N   0  0  0  0  0  0  0  0  0  0  0  0
    7.8839  -14.4659   23.3238 C   0  0  0  0  0  0  0  0  0  0  0  0
    8.4188  -13.9672   21.9724 C   0  0  0  0  0  0  0  0  0  0  0  0
    9.4499  -14.9487   21.5248 C   0  0  0  0  0  0  0  0  0  0  0  0
    9.5018  -15.9139   22.6630 C   0  0  1  0  0  0  0  0  0  0  0  0
   10.5185  -15.5499   23.6969 C   0  0  0  0  0  0  0  0  0  0  0  0
   11.1531  -14.4876   23.6735 O   0  0  0  0  0  0  0  0  0  0  0  0
    8.8237  -13.3293   27.8744 C   0  0  0  0  0  0  0  0  0  0  0  0
    9.9159  -14.3361   27.6831 C   0  0  2  0  0  0  0  0  0  0  0  0
   11.2805  -13.8478   28.0790 C   0  0  0  0  0  0  0  0  0  0  0  0
    9.8764  -15.1032   26.4251 C   0  0  0  0  0  0  0  0  0  0  0  0
   10.9289  -16.0903   26.1259 C   0  0  2  0  0  0  0  0  0  0  0  0
   10.7316  -16.4927   24.7294 N   0  0  0  0  0  0  0  0  0  0  0  0
   11.0043  -17.3032   26.9284 C   0  0  0  0  0  0  0  0  0  0  0  0
   10.1743  -18.2458   26.7167 O   0  0  0  0  0  0  0  0  0  0  0  0
   11.9150  -17.5709   27.9410 O   0  0  0  0  0  0  0  0  0  0  0  0
  1  2  1  0
  3  2  1  0
  4  3  1  0
  5  6  1  1
  5  4  1  0
  7  5  1  0
  8  7  2  0
  9 10  1  0
  9  7  1  0
 11 10  1  0
 12 13  1  0
 12 11  1  0
 13  9  1  0
 13 14  1  1
 14 15  2  0
 17 16  1  6
 18 17  1  0
 19 17  1  0
 20 19  1  1
 20 21  1  0
 21 14  1  0
 22 24  1  0
 22 20  1  0
 23 22  2  0
M  END
$$$$
