MPL.pdb
     RDKit          3D

 24 24  0  0  1  0  0  0  0  0999 V2000
    5.4639  -11.6295   27.3519 C   0  0  0  0  0  0  0  0  0  0  0  0
    6.0374  -11.7187   25.6417 S   0  0  0  0  0  0  0  0  0  0  0  0
    6.9904  -13.2831   25.4272 C   0  0  0  0  0  0  0  0  0  0  0  0
    6.1032  -14.4645   25.5956 C   0  0  0  0  0  0  0  0  0  0  0  0
    6.7807  -15.7557   25.2809 C   0  0  2  0  0  0  0  0  0  0  0  0
    7.9452  -15.9678   26.1330 N   0  0  0  0  0  0  0  0  0  0  0  0
    7.1388  -15.9976   23.8875 C   0  0  0  0  0  0  0  0  0  0  0  0
    6.2764  -16.6219   23.1821 O   0  0  0  0  0  0  0  0  0  0  0  0
    8.3353  -15.6157   23.2372 N   0  0  0  0  0  0  0  0  0  0  0  0
    8.7841  -14.4114   22.6145 C   0  0  0  0  0  0  0  0  0  0  0  0
    9.4663  -14.9491   21.3471 C   0  0  0  0  0  0  0  0  0  0  0  0
    9.8883  -16.3497   21.6421 C   0  0  0  0  0  0  0  0  0  0  0  0
    9.4913  -16.5190   23.0716 C   0  0  1  0  0  0  0  0  0  0  0  0
   10.5778  -16.1525   24.0310 C   0  0  0  0  0  0  0  0  0  0  0  0
   11.1316  -15.0457   24.0315 O   0  0  0  0  0  0  0  0  0  0  0  0
    8.9320  -14.4798   28.4029 C   0  0  0  0  0  0  0  0  0  0  0  0
   10.2296  -15.1371   28.0463 C   0  0  2  0  0  0  0  0  0  0  0  0
   11.4462  -14.4102   28.5451 C   0  0  0  0  0  0  0  0  0  0  0  0
   10.3390  -15.6494   26.6686 C   0  0  0  0  0  0  0  0  0  0  0  0
   11.1407  -16.8535   26.3874 C   0  0  2  0  0  0  0  0  0  0  0  0
   10.9570  -17.1473   24.9622 N   0  0  0  0  0  0  0  0  0  0  0  0
   10.8599  -18.0746   27.1295 C   0  0  0  0  0  0  0  0  0  0  0  0
    9.8180  -18.7514   26.8491 O   0  0  0  0  0  0  0  0  0  0  0  0
   11.6269  -18.6179   28.1508 O   0  0  0  0  0  0  0  0  0  0  0  0
  1  2  1  0
  3  2  1  0
  4  3  1  0
  5  6  1  1
  5  4  1  0
  7  5  1  0
  8  7  2  0
  9 10  1  0
  9  7  1  0
 11 10  1  0
 12 13  1  0
 12 11  1  0
 13  9  1  0
 13 14  1  1
 14 15  2  0
 17 16  1  6
 18 17  1  0
 19 17  1  0
 20 19  1  1
 20 21  1  0
 21 14  1  0
 22 24  1  0
 22 20  1  0
 23 22  2  0
M  END
$$$$
