MPL.pdb
     RDKit          3D

 24 24  0  0  1  0  0  0  0  0999 V2000
    6.2690  -12.1838   26.4562 C   0  0  0  0  0  0  0  0  0  0  0  0
    5.1286  -13.0187   25.3319 S   0  0  0  0  0  0  0  0  0  0  0  0
    4.7961  -14.7098   25.9884 C   0  0  0  0  0  0  0  0  0  0  0  0
    6.0247  -15.5456   25.9301 C   0  0  0  0  0  0  0  0  0  0  0  0
    6.0550  -16.4615   24.7532 C   0  0  2  0  0  0  0  0  0  0  0  0
    5.5102  -17.7732   25.0847 N   0  0  0  0  0  0  0  0  0  0  0  0
    7.3312  -16.6178   24.0637 C   0  0  0  0  0  0  0  0  0  0  0  0
    7.7367  -17.8163   23.8892 O   0  0  0  0  0  0  0  0  0  0  0  0
    8.1641  -15.5870   23.5698 N   0  0  0  0  0  0  0  0  0  0  0  0
    8.1335  -14.1618   23.6546 C   0  0  0  0  0  0  0  0  0  0  0  0
    8.5014  -13.7543   22.2195 C   0  0  0  0  0  0  0  0  0  0  0  0
    9.2845  -14.8822   21.6352 C   0  0  0  0  0  0  0  0  0  0  0  0
    9.3829  -15.8405   22.7761 C   0  0  1  0  0  0  0  0  0  0  0  0
   10.6019  -15.6316   23.6160 C   0  0  0  0  0  0  0  0  0  0  0  0
   11.3973  -14.7018   23.4303 O   0  0  0  0  0  0  0  0  0  0  0  0
    9.5475  -13.3359   28.0519 C   0  0  0  0  0  0  0  0  0  0  0  0
   10.5640  -14.3775   27.6987 C   0  0  2  0  0  0  0  0  0  0  0  0
   11.9720  -14.0192   28.0816 C   0  0  0  0  0  0  0  0  0  0  0  0
   10.4248  -14.9929   26.3667 C   0  0  0  0  0  0  0  0  0  0  0  0
   11.2554  -16.1522   25.9957 C   0  0  2  0  0  0  0  0  0  0  0  0
   10.8152  -16.5635   24.6585 N   0  0  0  0  0  0  0  0  0  0  0  0
   11.2372  -17.3323   26.8488 C   0  0  0  0  0  0  0  0  0  0  0  0
   12.1472  -17.4834   27.7270 O   0  0  0  0  0  0  0  0  0  0  0  0
   10.3035  -18.3590   26.8221 O   0  0  0  0  0  0  0  0  0  0  0  0
  1  2  1  0
  3  2  1  0
  4  3  1  0
  5  6  1  1
  5  4  1  0
  7  5  1  0
  8  7  2  0
  9 10  1  0
  9  7  1  0
 11 10  1  0
 12 13  1  0
 12 11  1  0
 13  9  1  0
 13 14  1  1
 14 15  2  0
 17 16  1  6
 18 17  1  0
 19 17  1  0
 20 19  1  1
 20 21  1  0
 21 14  1  0
 22 24  1  0
 22 20  1  0
 23 22  2  0
M  END
$$$$
