MPL.pdb
     RDKit          3D

 24 24  0  0  1  0  0  0  0  0999 V2000
    6.4874  -12.1497   25.3693 C   0  0  0  0  0  0  0  0  0  0  0  0
    5.9208  -13.4147   26.5270 S   0  0  0  0  0  0  0  0  0  0  0  0
    6.4851  -15.0603   25.9146 C   0  0  0  0  0  0  0  0  0  0  0  0
    5.5873  -15.5547   24.8372 C   0  0  0  0  0  0  0  0  0  0  0  0
    6.0807  -16.8052   24.1910 C   0  0  2  0  0  0  0  0  0  0  0  0
    5.6500  -17.9899   24.9247 N   0  0  0  0  0  0  0  0  0  0  0  0
    7.5100  -16.8912   23.9115 C   0  0  0  0  0  0  0  0  0  0  0  0
    8.0561  -18.0299   24.1022 O   0  0  0  0  0  0  0  0  0  0  0  0
    8.3523  -15.8513   23.4537 N   0  0  0  0  0  0  0  0  0  0  0  0
    8.2012  -14.4370   23.3263 C   0  0  0  0  0  0  0  0  0  0  0  0
    8.8363  -14.1764   21.9516 C   0  0  0  0  0  0  0  0  0  0  0  0
    9.8055  -15.2837   21.7042 C   0  0  0  0  0  0  0  0  0  0  0  0
    9.7274  -16.0778   22.9664 C   0  0  1  0  0  0  0  0  0  0  0  0
   10.7208  -15.6444   23.9963 C   0  0  0  0  0  0  0  0  0  0  0  0
   11.3088  -14.5564   23.9498 O   0  0  0  0  0  0  0  0  0  0  0  0
   11.3205  -14.0428   28.6833 C   0  0  0  0  0  0  0  0  0  0  0  0
   10.5132  -13.8506   27.4366 C   0  0  2  0  0  0  0  0  0  0  0  0
    9.3968  -12.8545   27.5728 C   0  0  0  0  0  0  0  0  0  0  0  0
   10.1592  -15.0765   26.6989 C   0  0  0  0  0  0  0  0  0  0  0  0
   11.1829  -16.1027   26.4329 C   0  0  2  0  0  0  0  0  0  0  0  0
   10.9680  -16.5513   25.0532 N   0  0  0  0  0  0  0  0  0  0  0  0
   11.2288  -17.2865   27.2798 C   0  0  0  0  0  0  0  0  0  0  0  0
   12.1423  -17.3900   28.1613 O   0  0  0  0  0  0  0  0  0  0  0  0
   10.3557  -18.3649   27.2437 O   0  0  0  0  0  0  0  0  0  0  0  0
  1  2  1  0
  3  2  1  0
  4  3  1  0
  5  6  1  1
  5  4  1  0
  7  5  1  0
  8  7  2  0
  9 10  1  0
  9  7  1  0
 11 10  1  0
 12 13  1  0
 12 11  1  0
 13  9  1  0
 13 14  1  1
 14 15  2  0
 17 16  1  1
 18 17  1  0
 19 17  1  0
 20 19  1  1
 20 21  1  0
 21 14  1  0
 22 24  1  0
 22 20  1  0
 23 22  2  0
M  END
$$$$
