MPL.pdb
     RDKit          3D

 24 24  0  0  1  0  0  0  0  0999 V2000
    6.3204  -12.5407   24.5811 C   0  0  0  0  0  0  0  0  0  0  0  0
    5.6626  -13.7019   25.7978 S   0  0  0  0  0  0  0  0  0  0  0  0
    6.3915  -15.3643   25.4708 C   0  0  0  0  0  0  0  0  0  0  0  0
    5.8240  -15.9501   24.2274 C   0  0  0  0  0  0  0  0  0  0  0  0
    6.4661  -17.2397   23.8410 C   0  0  2  0  0  0  0  0  0  0  0  0
    5.9407  -18.3523   24.6243 N   0  0  0  0  0  0  0  0  0  0  0  0
    7.9244  -17.2834   23.8394 C   0  0  0  0  0  0  0  0  0  0  0  0
    8.4605  -18.2968   24.4024 O   0  0  0  0  0  0  0  0  0  0  0  0
    8.8044  -16.3263   23.2828 N   0  0  0  0  0  0  0  0  0  0  0  0
    8.6268  -15.0263   22.7190 C   0  0  0  0  0  0  0  0  0  0  0  0
    9.5486  -15.0883   21.4912 C   0  0  0  0  0  0  0  0  0  0  0  0
   10.5948  -16.1111   21.7851 C   0  0  0  0  0  0  0  0  0  0  0  0
   10.2629  -16.5303   23.1794 C   0  0  1  0  0  0  0  0  0  0  0  0
   10.9743  -15.7266   24.2202 C   0  0  0  0  0  0  0  0  0  0  0  0
   10.9091  -14.4922   24.2799 O   0  0  0  0  0  0  0  0  0  0  0  0
    9.6342  -13.2570   28.1434 C   0  0  0  0  0  0  0  0  0  0  0  0
   10.5892  -14.4093   28.0858 C   0  0  2  0  0  0  0  0  0  0  0  0
   11.7923  -14.2575   28.9726 C   0  0  0  0  0  0  0  0  0  0  0  0
   10.8762  -14.9460   26.7434 C   0  0  0  0  0  0  0  0  0  0  0  0
   11.7503  -16.1222   26.5871 C   0  0  2  0  0  0  0  0  0  0  0  0
   11.7448  -16.4526   25.1582 N   0  0  0  0  0  0  0  0  0  0  0  0
   11.4315  -17.3381   27.3225 C   0  0  0  0  0  0  0  0  0  0  0  0
   11.9645  -17.5379   28.4619 O   0  0  0  0  0  0  0  0  0  0  0  0
   10.5752  -18.3516   26.9153 O   0  0  0  0  0  0  0  0  0  0  0  0
  1  2  1  0
  3  2  1  0
  4  3  1  0
  5  6  1  1
  5  4  1  0
  7  5  1  0
  8  7  2  0
  9 10  1  0
  9  7  1  0
 11 10  1  0
 12 13  1  0
 12 11  1  0
 13  9  1  0
 13 14  1  1
 14 15  2  0
 17 16  1  6
 18 17  1  0
 19 17  1  0
 20 19  1  6
 20 21  1  0
 21 14  1  0
 22 24  1  0
 22 20  1  0
 23 22  2  0
M  END
$$$$
