MPL.pdb
     RDKit          3D

 24 24  0  0  1  0  0  0  0  0999 V2000
    5.9035  -13.9741   26.5361 C   0  0  0  0  0  0  0  0  0  0  0  0
    7.1431  -15.2616   26.7951 S   0  0  0  0  0  0  0  0  0  0  0  0
    6.5007  -16.8398   26.0893 C   0  0  0  0  0  0  0  0  0  0  0  0
    5.6643  -16.5750   24.8887 C   0  0  0  0  0  0  0  0  0  0  0  0
    6.0624  -17.3914   23.7055 C   0  0  2  0  0  0  0  0  0  0  0  0
    5.8780  -18.8165   23.9552 N   0  0  0  0  0  0  0  0  0  0  0  0
    7.3909  -17.1561   23.1505 C   0  0  0  0  0  0  0  0  0  0  0  0
    8.0286  -18.1887   22.7525 O   0  0  0  0  0  0  0  0  0  0  0  0
    8.0455  -15.9107   23.0069 N   0  0  0  0  0  0  0  0  0  0  0  0
    7.7165  -14.5701   23.3729 C   0  0  0  0  0  0  0  0  0  0  0  0
    8.1480  -13.7887   22.1222 C   0  0  0  0  0  0  0  0  0  0  0  0
    9.2031  -14.5992   21.4465 C   0  0  0  0  0  0  0  0  0  0  0  0
    9.3694  -15.7597   22.3713 C   0  0  1  0  0  0  0  0  0  0  0  0
   10.4215  -15.5378   23.4102 C   0  0  0  0  0  0  0  0  0  0  0  0
   11.3567  -14.7408   23.2629 O   0  0  0  0  0  0  0  0  0  0  0  0
   10.5901  -14.4897   28.5814 C   0  0  0  0  0  0  0  0  0  0  0  0
   10.6843  -13.7183   27.3011 C   0  0  2  0  0  0  0  0  0  0  0  0
   10.1092  -12.3322   27.3731 C   0  0  0  0  0  0  0  0  0  0  0  0
   10.3523  -14.4606   26.0719 C   0  0  0  0  0  0  0  0  0  0  0  0
   10.8521  -15.8333   25.8776 C   0  0  2  0  0  0  0  0  0  0  0  0
   10.3019  -16.2951   24.5988 N   0  0  0  0  0  0  0  0  0  0  0  0
   10.5437  -16.8427   26.8809 C   0  0  0  0  0  0  0  0  0  0  0  0
   11.2586  -16.9185   27.9323 O   0  0  0  0  0  0  0  0  0  0  0  0
    9.5156  -17.7739   26.8301 O   0  0  0  0  0  0  0  0  0  0  0  0
  1  2  1  0
  3  2  1  0
  4  3  1  0
  5  6  1  1
  5  4  1  0
  7  5  1  0
  8  7  2  0
  9 10  1  0
  9  7  1  0
 11 10  1  0
 12 13  1  0
 12 11  1  0
 13  9  1  0
 13 14  1  1
 14 15  2  0
 17 16  1  1
 18 17  1  0
 19 17  1  0
 20 19  1  1
 20 21  1  0
 21 14  1  0
 22 24  1  0
 22 20  1  0
 23 22  2  0
M  END
$$$$
