MPL.pdb
     RDKit          3D

 24 24  0  0  1  0  0  0  0  0999 V2000
    5.5218  -12.0390   25.9443 C   0  0  0  0  0  0  0  0  0  0  0  0
    6.9743  -12.9286   26.5447 S   0  0  0  0  0  0  0  0  0  0  0  0
    6.6095  -14.7360   26.5033 C   0  0  0  0  0  0  0  0  0  0  0  0
    5.7057  -15.0624   25.3684 C   0  0  0  0  0  0  0  0  0  0  0  0
    5.9771  -16.4013   24.7695 C   0  0  2  0  0  0  0  0  0  0  0  0
    5.7700  -17.4707   25.7394 N   0  0  0  0  0  0  0  0  0  0  0  0
    7.2608  -16.5840   24.1010 C   0  0  0  0  0  0  0  0  0  0  0  0
    7.7663  -17.7555   24.1576 O   0  0  0  0  0  0  0  0  0  0  0  0
    8.0025  -15.6052   23.3994 N   0  0  0  0  0  0  0  0  0  0  0  0
    7.8437  -14.2012   23.1921 C   0  0  0  0  0  0  0  0  0  0  0  0
    8.1865  -14.0637   21.7006 C   0  0  0  0  0  0  0  0  0  0  0  0
    9.0727  -15.2124   21.3511 C   0  0  0  0  0  0  0  0  0  0  0  0
    9.2462  -15.9051   22.6625 C   0  0  1  0  0  0  0  0  0  0  0  0
   10.4341  -15.4212   23.4306 C   0  0  0  0  0  0  0  0  0  0  0  0
   10.9049  -14.2843   23.2983 O   0  0  0  0  0  0  0  0  0  0  0  0
   10.2423  -15.4939   28.7821 C   0  0  0  0  0  0  0  0  0  0  0  0
   10.5781  -14.5937   27.6332 C   0  0  2  0  0  0  0  0  0  0  0  0
   10.0739  -13.1866   27.7849 C   0  0  0  0  0  0  0  0  0  0  0  0
   10.4045  -15.1692   26.2874 C   0  0  0  0  0  0  0  0  0  0  0  0
   11.5005  -15.9282   25.6592 C   0  0  2  0  0  0  0  0  0  0  0  0
   11.0132  -16.3386   24.3382 N   0  0  0  0  0  0  0  0  0  0  0  0
   12.0085  -17.1163   26.3309 C   0  0  0  0  0  0  0  0  0  0  0  0
   11.3771  -18.2167   26.2182 O   0  0  0  0  0  0  0  0  0  0  0  0
   13.1520  -17.2001   27.1130 O   0  0  0  0  0  0  0  0  0  0  0  0
  1  2  1  0
  3  2  1  0
  4  3  1  0
  5  6  1  1
  5  4  1  0
  7  5  1  0
  8  7  2  0
  9 10  1  0
  9  7  1  0
 11 10  1  0
 12 13  1  0
 12 11  1  0
 13  9  1  0
 13 14  1  1
 14 15  2  0
 17 16  1  1
 18 17  1  0
 19 17  1  0
 20 19  1  1
 20 21  1  0
 21 14  1  0
 22 24  1  0
 22 20  1  0
 23 22  2  0
M  END
$$$$
