MPL.pdb
     RDKit          3D

 24 24  0  0  1  0  0  0  0  0999 V2000
   11.8069  -21.2109   21.7461 C   0  0  0  0  0  0  0  0  0  0  0  0
   11.4957  -20.0011   23.0504 S   0  0  0  0  0  0  0  0  0  0  0  0
   11.2449  -18.3505   22.2667 C   0  0  0  0  0  0  0  0  0  0  0  0
   11.2174  -18.4725   20.7850 C   0  0  0  0  0  0  0  0  0  0  0  0
   10.7942  -17.2161   20.1012 C   0  0  2  0  0  0  0  0  0  0  0  0
   11.8917  -16.6268   19.3426 N   0  0  0  0  0  0  0  0  0  0  0  0
   10.1577  -16.1926   20.9231 C   0  0  0  0  0  0  0  0  0  0  0  0
   10.9044  -15.2301   21.3067 O   0  0  0  0  0  0  0  0  0  0  0  0
    8.8064  -16.1531   21.3389 N   0  0  0  0  0  0  0  0  0  0  0  0
    7.6983  -17.0422   21.1937 C   0  0  0  0  0  0  0  0  0  0  0  0
    6.5590  -16.0699   20.8505 C   0  0  0  0  0  0  0  0  0  0  0  0
    6.9363  -14.7418   21.4168 C   0  0  0  0  0  0  0  0  0  0  0  0
    8.2277  -15.0333   22.1076 C   0  0  1  0  0  0  0  0  0  0  0  0
    8.0533  -15.4229   23.5404 C   0  0  0  0  0  0  0  0  0  0  0  0
    8.3983  -16.5247   23.9862 O   0  0  0  0  0  0  0  0  0  0  0  0
    5.9748  -11.1863   26.7648 C   0  0  0  0  0  0  0  0  0  0  0  0
    6.9176  -12.3443   26.8792 C   0  0  2  0  0  0  0  0  0  0  0  0
    8.3436  -12.0137   26.5407 C   0  0  0  0  0  0  0  0  0  0  0  0
    6.4364  -13.6273   26.3363 C   0  0  0  0  0  0  0  0  0  0  0  0
    7.3971  -14.6300   25.8429 C   0  0  2  0  0  0  0  0  0  0  0  0
    7.4631  -14.4566   24.3880 N   0  0  0  0  0  0  0  0  0  0  0  0
    7.1418  -16.0389   26.1084 C   0  0  0  0  0  0  0  0  0  0  0  0
    6.2187  -16.6388   25.4680 O   0  0  0  0  0  0  0  0  0  0  0  0
    7.8155  -16.8461   27.0144 O   0  0  0  0  0  0  0  0  0  0  0  0
  1  2  1  0
  3  2  1  0
  4  3  1  0
  5  6  1  1
  5  4  1  0
  7  5  1  0
  8  7  2  0
  9 10  1  0
  9  7  1  0
 11 10  1  0
 12 13  1  0
 12 11  1  0
 13  9  1  0
 13 14  1  1
 14 15  2  0
 17 16  1  6
 18 17  1  0
 19 17  1  0
 20 19  1  6
 20 21  1  0
 21 14  1  0
 22 24  1  0
 22 20  1  0
 23 22  2  0
M  END
$$$$
