FDL.pdb
     RDKit          3D

 28 28  0  0  1  0  0  0  0  0999 V2000
    6.9178  -17.3445   21.0125 N   0  0  0  0  0  0  0  0  0  0  0  0
    7.4890  -16.2995   21.8257 C   0  0  1  0  0  0  0  0  0  0  0  0
    6.4518  -15.9083   22.8764 C   0  0  0  0  0  0  0  0  0  0  0  0
    6.9303  -14.7643   23.6977 C   0  0  0  0  0  0  0  0  0  0  0  0
    6.8102  -14.8662   25.0713 C   0  0  0  0  0  0  0  0  0  0  0  0
    7.2439  -13.8244   25.8587 C   0  0  0  0  0  0  0  0  0  0  0  0
    7.7832  -12.7168   25.2351 C   0  0  0  0  0  0  0  0  0  0  0  0
    7.9021  -12.6172   23.8644 C   0  0  0  0  0  0  0  0  0  0  0  0
    7.4674  -13.6609   23.0784 C   0  0  0  0  0  0  0  0  0  0  0  0
    8.6543  -16.8458   22.5901 C   0  0  0  0  0  0  0  0  0  0  0  0
    8.5593  -17.9393   23.1732 O   0  0  0  0  0  0  0  0  0  0  0  0
    9.8787  -16.1263   22.6595 N   0  0  0  0  0  0  0  0  0  0  0  0
   11.0081  -16.7388   23.2997 C   0  0  1  0  0  0  0  0  0  0  0  0
   12.2741  -16.2916   22.6340 C   0  0  0  0  0  0  0  0  0  0  0  0
   13.4647  -17.0707   22.9954 C   0  0  0  0  0  0  0  0  0  0  0  0
   14.5841  -16.5957   23.3124 O   0  0  0  0  0  0  0  0  0  0  0  0
   11.0728  -16.3621   24.7456 C   0  0  0  0  0  0  0  0  0  0  0  0
   11.8638  -15.4696   25.1424 O   0  0  0  0  0  0  0  0  0  0  0  0
   13.3313  -18.4632   22.9830 O   0  0  0  0  0  0  0  0  0  0  0  0
   10.1833  -13.6159   28.3422 C   0  0  0  0  0  0  0  0  0  0  0  0
    9.2644  -14.4611   27.5568 C   0  0  2  0  0  0  0  0  0  0  0  0
    7.8198  -13.9798   27.8801 C   0  0  0  0  0  0  0  0  0  0  0  0
    9.2894  -15.9119   27.6493 C   0  0  0  0  0  0  0  0  0  0  0  0
   10.4348  -16.6953   27.1583 C   0  0  2  0  0  0  0  0  0  0  0  0
   10.2624  -16.9796   25.7210 N   0  0  0  0  0  0  0  0  0  0  0  0
   10.5749  -18.0031   27.7916 C   0  0  0  0  0  0  0  0  0  0  0  0
   10.1934  -19.1010   27.3396 O   0  0  0  0  0  0  0  0  0  0  0  0
   11.2037  -18.0862   29.0517 O   0  0  0  0  0  0  0  0  0  0  0  0
  2  1  1  6
  3  2  1  0
  4  3  1  0
  4  9  2  0
  5  4  1  0
  6  5  2  0
  6  7  1  0
  7  8  2  0
  8  9  1  0
 10 11  2  0
 10  2  1  0
 12 10  1  0
 13 17  1  0
 13 12  1  0
 13 14  1  6
 15 14  1  0
 15 16  2  0
 17 18  2  0
 19 15  1  0
 21 20  1  1
 22 21  1  0
 23 21  1  0
 24 23  1  1
 25 24  1  0
 25 17  1  0
 26 28  1  0
 26 24  1  0
 27 26  2  0
M  END
$$$$
