FDL.pdb
     RDKit          3D

 28 28  0  0  1  0  0  0  0  0999 V2000
    6.8710  -18.3157   21.0175 N   0  0  0  0  0  0  0  0  0  0  0  0
    7.5608  -17.0692   21.2412 C   0  0  1  0  0  0  0  0  0  0  0  0
    6.5745  -16.1022   21.8930 C   0  0  0  0  0  0  0  0  0  0  0  0
    7.1670  -14.7443   22.0240 C   0  0  0  0  0  0  0  0  0  0  0  0
    7.5404  -14.0926   20.8632 C   0  0  0  0  0  0  0  0  0  0  0  0
    8.0915  -12.8349   20.9512 C   0  0  0  0  0  0  0  0  0  0  0  0
    8.2470  -12.2777   22.2049 C   0  0  0  0  0  0  0  0  0  0  0  0
    7.8738  -12.9296   23.3619 C   0  0  0  0  0  0  0  0  0  0  0  0
    7.3225  -14.1882   23.2715 C   0  0  0  0  0  0  0  0  0  0  0  0
    8.6494  -17.2775   22.2473 C   0  0  0  0  0  0  0  0  0  0  0  0
    8.4008  -17.8423   23.3261 O   0  0  0  0  0  0  0  0  0  0  0  0
    9.9749  -16.8351   21.9848 N   0  0  0  0  0  0  0  0  0  0  0  0
   10.9927  -17.0705   22.9694 C   0  0  1  0  0  0  0  0  0  0  0  0
   12.3464  -16.8659   22.3600 C   0  0  0  0  0  0  0  0  0  0  0  0
   12.6521  -17.7559   21.2332 C   0  0  0  0  0  0  0  0  0  0  0  0
   12.3444  -18.9717   21.1540 O   0  0  0  0  0  0  0  0  0  0  0  0
   10.8455  -16.1334   24.1256 C   0  0  0  0  0  0  0  0  0  0  0  0
   11.4989  -15.0607   24.1708 O   0  0  0  0  0  0  0  0  0  0  0  0
   13.3470  -17.1917   20.1582 O   0  0  0  0  0  0  0  0  0  0  0  0
    7.1149  -12.9747   27.3492 C   0  0  0  0  0  0  0  0  0  0  0  0
    8.3477  -13.7830   27.3979 C   0  0  2  0  0  0  0  0  0  0  0  0
    9.5198  -12.8023   27.6941 C   0  0  0  0  0  0  0  0  0  0  0  0
    8.7448  -14.6426   26.2945 C   0  0  0  0  0  0  0  0  0  0  0  0
    9.9239  -15.5189   26.3867 C   0  0  2  0  0  0  0  0  0  0  0  0
    9.9797  -16.4021   25.2063 N   0  0  0  0  0  0  0  0  0  0  0  0
    9.9064  -16.4190   27.5358 C   0  0  0  0  0  0  0  0  0  0  0  0
   10.6064  -16.3368   28.5648 O   0  0  0  0  0  0  0  0  0  0  0  0
    9.0183  -17.5151   27.5295 O   0  0  0  0  0  0  0  0  0  0  0  0
  2  1  1  1
  3  2  1  0
  4  3  1  0
  4  9  2  0
  5  4  1  0
  6  5  2  0
  6  7  1  0
  7  8  2  0
  8  9  1  0
 10 11  2  0
 10  2  1  0
 12 10  1  0
 13 17  1  0
 13 12  1  0
 13 14  1  6
 15 14  1  0
 15 16  2  0
 17 18  2  0
 19 15  1  0
 21 20  1  6
 22 21  1  0
 23 21  1  0
 24 23  1  6
 25 24  1  0
 25 17  1  0
 26 28  1  0
 26 24  1  0
 27 26  2  0
M  END
$$$$
