FDL.pdb
     RDKit          3D

 28 28  0  0  1  0  0  0  0  0999 V2000
    5.8455  -17.7163   23.6976 N   0  0  0  0  0  0  0  0  0  0  0  0
    6.7821  -16.6526   23.9637 C   0  0  1  0  0  0  0  0  0  0  0  0
    6.5400  -16.1658   25.3910 C   0  0  0  0  0  0  0  0  0  0  0  0
    6.8509  -14.7171   25.5201 C   0  0  0  0  0  0  0  0  0  0  0  0
    7.8020  -14.1867   24.6683 C   0  0  0  0  0  0  0  0  0  0  0  0
    8.1118  -12.8494   24.7629 C   0  0  0  0  0  0  0  0  0  0  0  0
    7.4528  -12.0934   25.7120 C   0  0  0  0  0  0  0  0  0  0  0  0
    6.5042  -12.6245   26.5609 C   0  0  0  0  0  0  0  0  0  0  0  0
    6.1958  -13.9631   26.4645 C   0  0  0  0  0  0  0  0  0  0  0  0
    8.1743  -17.2025   23.9535 C   0  0  0  0  0  0  0  0  0  0  0  0
    8.4150  -18.2987   24.4874 O   0  0  0  0  0  0  0  0  0  0  0  0
    9.2344  -16.4832   23.3368 N   0  0  0  0  0  0  0  0  0  0  0  0
   10.5793  -16.9604   23.4924 C   0  0  1  0  0  0  0  0  0  0  0  0
   11.4629  -16.3380   22.4542 C   0  0  0  0  0  0  0  0  0  0  0  0
   12.7692  -16.9879   22.2919 C   0  0  0  0  0  0  0  0  0  0  0  0
   13.1611  -18.0113   22.9068 O   0  0  0  0  0  0  0  0  0  0  0  0
   11.1171  -16.6133   24.8441 C   0  0  0  0  0  0  0  0  0  0  0  0
   12.3156  -16.2635   24.9885 O   0  0  0  0  0  0  0  0  0  0  0  0
   13.6477  -16.4096   21.3696 O   0  0  0  0  0  0  0  0  0  0  0  0
    8.6755  -13.4723   28.3042 C   0  0  0  0  0  0  0  0  0  0  0  0
    9.9303  -14.2270   28.1268 C   0  0  2  0  0  0  0  0  0  0  0  0
   10.5410  -13.7756   26.7679 C   0  0  0  0  0  0  0  0  0  0  0  0
    9.9650  -15.6796   28.1782 C   0  0  0  0  0  0  0  0  0  0  0  0
   10.8986  -16.4576   27.3476 C   0  0  2  0  0  0  0  0  0  0  0  0
   10.3189  -16.6605   26.0061 N   0  0  0  0  0  0  0  0  0  0  0  0
   11.1668  -17.8001   27.8541 C   0  0  0  0  0  0  0  0  0  0  0  0
   10.8158  -18.8807   27.3398 O   0  0  0  0  0  0  0  0  0  0  0  0
   11.8992  -17.9430   29.0513 O   0  0  0  0  0  0  0  0  0  0  0  0
  2  1  1  1
  3  2  1  0
  4  3  1  0
  4  9  2  0
  5  4  1  0
  6  5  2  0
  6  7  1  0
  7  8  2  0
  8  9  1  0
 10 11  2  0
 10  2  1  0
 12 10  1  0
 13 17  1  0
 13 12  1  0
 13 14  1  6
 15 14  1  0
 15 16  2  0
 17 18  2  0
 19 15  1  0
 21 20  1  6
 22 21  1  0
 23 21  1  0
 24 23  1  1
 25 24  1  0
 25 17  1  0
 26 28  1  0
 26 24  1  0
 27 26  2  0
M  END
$$$$
