FDL.pdb
     RDKit          3D

 28 28  0  0  1  0  0  0  0  0999 V2000
    6.4315  -16.4032   22.6482 N   0  0  0  0  0  0  0  0  0  0  0  0
    7.6634  -15.8840   22.1075 C   0  0  1  0  0  0  0  0  0  0  0  0
    7.7246  -14.3939   22.4370 C   0  0  0  0  0  0  0  0  0  0  0  0
    7.4711  -14.1569   23.8833 C   0  0  0  0  0  0  0  0  0  0  0  0
    7.4820  -12.8487   24.3306 C   0  0  0  0  0  0  0  0  0  0  0  0
    7.2508  -12.5966   25.6633 C   0  0  0  0  0  0  0  0  0  0  0  0
    7.0168  -13.6708   26.4988 C   0  0  0  0  0  0  0  0  0  0  0  0
    7.0065  -14.9753   26.0505 C   0  0  0  0  0  0  0  0  0  0  0  0
    7.2381  -15.2253   24.7163 C   0  0  0  0  0  0  0  0  0  0  0  0
    8.8214  -16.5056   22.8240 C   0  0  0  0  0  0  0  0  0  0  0  0
    8.6233  -17.3639   23.7007 O   0  0  0  0  0  0  0  0  0  0  0  0
   10.1559  -16.1255   22.5137 N   0  0  0  0  0  0  0  0  0  0  0  0
   11.2404  -16.8238   23.1435 C   0  0  1  0  0  0  0  0  0  0  0  0
   12.5076  -16.5912   22.3780 C   0  0  0  0  0  0  0  0  0  0  0  0
   12.5699  -17.2670   21.0762 C   0  0  0  0  0  0  0  0  0  0  0  0
   11.9036  -18.2787   20.7420 O   0  0  0  0  0  0  0  0  0  0  0  0
   11.4393  -16.3483   24.5475 C   0  0  0  0  0  0  0  0  0  0  0  0
   11.9955  -15.2455   24.7798 O   0  0  0  0  0  0  0  0  0  0  0  0
   13.4513  -16.7303   20.1318 O   0  0  0  0  0  0  0  0  0  0  0  0
    8.9213  -13.5220   28.3740 C   0  0  0  0  0  0  0  0  0  0  0  0
    9.8689  -14.6505   28.3104 C   0  0  2  0  0  0  0  0  0  0  0  0
   11.2163  -14.1433   28.9026 C   0  0  0  0  0  0  0  0  0  0  0  0
   10.1544  -15.3423   27.0639 C   0  0  0  0  0  0  0  0  0  0  0  0
   11.0222  -16.5306   27.0238 C   0  0  2  0  0  0  0  0  0  0  0  0
   11.0195  -17.1019   25.6636 N   0  0  0  0  0  0  0  0  0  0  0  0
   10.5824  -17.6167   27.8943 C   0  0  0  0  0  0  0  0  0  0  0  0
    9.6386  -18.4064   27.6915 O   0  0  0  0  0  0  0  0  0  0  0  0
   11.2676  -17.8378   29.1075 O   0  0  0  0  0  0  0  0  0  0  0  0
  2  1  1  1
  3  2  1  0
  4  3  1  0
  4  9  2  0
  5  4  1  0
  6  5  2  0
  6  7  1  0
  7  8  2  0
  8  9  1  0
 10 11  2  0
 10  2  1  0
 12 10  1  0
 13 17  1  0
 13 12  1  0
 13 14  1  6
 15 14  1  0
 15 16  2  0
 17 18  2  0
 19 15  1  0
 21 20  1  6
 22 21  1  0
 23 21  1  0
 24 23  1  6
 25 24  1  0
 25 17  1  0
 26 28  1  0
 26 24  1  0
 27 26  2  0
M  END
$$$$
