FDL.pdb
     RDKit          3D

 28 28  0  0  1  0  0  0  0  0999 V2000
    6.3885  -18.2245   22.2783 N   0  0  0  0  0  0  0  0  0  0  0  0
    6.9702  -17.0483   22.8762 C   0  0  1  0  0  0  0  0  0  0  0  0
    6.1878  -16.7389   24.1508 C   0  0  0  0  0  0  0  0  0  0  0  0
    6.5615  -15.4063   24.6955 C   0  0  0  0  0  0  0  0  0  0  0  0
    6.4133  -15.2046   26.0553 C   0  0  0  0  0  0  0  0  0  0  0  0
    6.7506  -13.9823   26.5897 C   0  0  0  0  0  0  0  0  0  0  0  0
    7.2252  -13.0063   25.7361 C   0  0  0  0  0  0  0  0  0  0  0  0
    7.3722  -13.2096   24.3797 C   0  0  0  0  0  0  0  0  0  0  0  0
    7.0341  -14.4335   23.8470 C   0  0  0  0  0  0  0  0  0  0  0  0
    8.3658  -17.3560   23.3217 C   0  0  0  0  0  0  0  0  0  0  0  0
    8.6134  -18.4292   23.8975 O   0  0  0  0  0  0  0  0  0  0  0  0
    9.4212  -16.4309   23.0940 N   0  0  0  0  0  0  0  0  0  0  0  0
   10.7753  -16.8572   23.3064 C   0  0  1  0  0  0  0  0  0  0  0  0
   11.7054  -16.0309   22.4707 C   0  0  0  0  0  0  0  0  0  0  0  0
   13.0322  -16.6236   22.2625 C   0  0  0  0  0  0  0  0  0  0  0  0
   13.3976  -17.7605   22.6535 O   0  0  0  0  0  0  0  0  0  0  0  0
   11.1650  -16.7054   24.7423 C   0  0  0  0  0  0  0  0  0  0  0  0
   12.3631  -16.8331   25.1000 O   0  0  0  0  0  0  0  0  0  0  0  0
   13.9645  -15.8467   21.5667 O   0  0  0  0  0  0  0  0  0  0  0  0
   11.2270  -13.2389   27.9382 C   0  0  0  0  0  0  0  0  0  0  0  0
    9.9716  -13.9435   27.6169 C   0  0  2  0  0  0  0  0  0  0  0  0
    8.8256  -13.1777   28.3403 C   0  0  0  0  0  0  0  0  0  0  0  0
    9.8015  -15.3638   27.8772 C   0  0  0  0  0  0  0  0  0  0  0  0
   10.6058  -16.3772   27.1752 C   0  0  2  0  0  0  0  0  0  0  0  0
   10.2225  -16.4161   25.7510 N   0  0  0  0  0  0  0  0  0  0  0  0
   10.4027  -17.7383   27.6620 C   0  0  0  0  0  0  0  0  0  0  0  0
   10.7773  -18.2088   28.7546 O   0  0  0  0  0  0  0  0  0  0  0  0
    9.7128  -18.6584   26.8450 O   0  0  0  0  0  0  0  0  0  0  0  0
  2  1  1  1
  3  2  1  0
  4  3  1  0
  4  9  2  0
  5  4  1  0
  6  5  2  0
  6  7  1  0
  7  8  2  0
  8  9  1  0
 10 11  2  0
 10  2  1  0
 12 10  1  0
 13 17  1  0
 13 12  1  0
 13 14  1  6
 15 14  1  0
 15 16  2  0
 17 18  2  0
 19 15  1  0
 21 20  1  1
 22 21  1  0
 23 21  1  0
 24 23  1  1
 25 24  1  0
 25 17  1  0
 26 28  1  0
 26 24  1  0
 27 26  2  0
M  END
$$$$
