FDL.pdb
     RDKit          3D

 28 28  0  0  1  0  0  0  0  0999 V2000
    6.2490  -17.9445   20.5861 N   0  0  0  0  0  0  0  0  0  0  0  0
    7.0638  -16.7687   20.7676 C   0  0  1  0  0  0  0  0  0  0  0  0
    6.1358  -15.6108   21.1294 C   0  0  0  0  0  0  0  0  0  0  0  0
    6.8808  -14.3243   21.1739 C   0  0  0  0  0  0  0  0  0  0  0  0
    7.3966  -13.8403   19.9859 C   0  0  0  0  0  0  0  0  0  0  0  0
    8.0909  -12.6524   19.9941 C   0  0  0  0  0  0  0  0  0  0  0  0
    8.2413  -11.9937   21.1983 C   0  0  0  0  0  0  0  0  0  0  0  0
    7.7259  -12.4784   22.3825 C   0  0  0  0  0  0  0  0  0  0  0  0
    7.0314  -13.6674   22.3720 C   0  0  0  0  0  0  0  0  0  0  0  0
    7.9550  -16.9603   21.9549 C   0  0  0  0  0  0  0  0  0  0  0  0
    7.5167  -17.5080   22.9808 O   0  0  0  0  0  0  0  0  0  0  0  0
    9.3071  -16.5213   21.9261 N   0  0  0  0  0  0  0  0  0  0  0  0
   10.1861  -16.9118   22.9917 C   0  0  1  0  0  0  0  0  0  0  0  0
   11.6008  -16.9428   22.4980 C   0  0  0  0  0  0  0  0  0  0  0  0
   12.0171  -18.2224   21.9110 C   0  0  0  0  0  0  0  0  0  0  0  0
   11.3747  -18.8803   21.0545 O   0  0  0  0  0  0  0  0  0  0  0  0
   10.1024  -15.9501   24.1340 C   0  0  0  0  0  0  0  0  0  0  0  0
   10.9074  -14.9892   24.2254 O   0  0  0  0  0  0  0  0  0  0  0  0
   13.2372  -18.7471   22.3501 O   0  0  0  0  0  0  0  0  0  0  0  0
    8.0305  -12.2830   26.5030 C   0  0  0  0  0  0  0  0  0  0  0  0
    7.4283  -13.6058   26.2515 C   0  0  2  0  0  0  0  0  0  0  0  0
    5.9252  -13.4999   26.6426 C   0  0  0  0  0  0  0  0  0  0  0  0
    7.9663  -14.8186   26.8464 C   0  0  0  0  0  0  0  0  0  0  0  0
    9.2707  -15.3640   26.4371 C   0  0  2  0  0  0  0  0  0  0  0  0
    9.1314  -16.0713   25.1499 N   0  0  0  0  0  0  0  0  0  0  0  0
    9.8159  -16.3552   27.3597 C   0  0  0  0  0  0  0  0  0  0  0  0
    9.8235  -17.5937   27.2129 O   0  0  0  0  0  0  0  0  0  0  0  0
   10.4096  -15.9140   28.5610 O   0  0  0  0  0  0  0  0  0  0  0  0
  2  1  1  1
  3  2  1  0
  4  3  1  0
  4  9  2  0
  5  4  1  0
  6  5  2  0
  6  7  1  0
  7  8  2  0
  8  9  1  0
 10 11  2  0
 10  2  1  0
 12 10  1  0
 13 17  1  0
 13 12  1  0
 13 14  1  6
 15 14  1  0
 15 16  2  0
 17 18  2  0
 19 15  1  0
 21 20  1  1
 22 21  1  0
 23 21  1  0
 24 23  1  1
 25 24  1  0
 25 17  1  0
 26 28  1  0
 26 24  1  0
 27 26  2  0
M  END
$$$$
