FDL.pdb
     RDKit          3D

 28 28  0  0  1  0  0  0  0  0999 V2000
    7.2297  -17.8953   20.0338 N   0  0  0  0  0  0  0  0  0  0  0  0
    7.7493  -16.6942   20.6394 C   0  0  1  0  0  0  0  0  0  0  0  0
    6.5739  -15.9370   21.2540 C   0  0  0  0  0  0  0  0  0  0  0  0
    7.0321  -14.6844   21.9121 C   0  0  0  0  0  0  0  0  0  0  0  0
    6.9236  -14.6060   23.2882 C   0  0  0  0  0  0  0  0  0  0  0  0
    7.3392  -13.4601   23.9267 C   0  0  0  0  0  0  0  0  0  0  0  0
    7.8493  -12.4337   23.1568 C   0  0  0  0  0  0  0  0  0  0  0  0
    7.9567  -12.5139   21.7840 C   0  0  0  0  0  0  0  0  0  0  0  0
    7.5402  -13.6616   21.1471 C   0  0  0  0  0  0  0  0  0  0  0  0
    8.6395  -17.0607   21.7856 C   0  0  0  0  0  0  0  0  0  0  0  0
    8.1824  -17.6967   22.7506 O   0  0  0  0  0  0  0  0  0  0  0  0
   10.0119  -16.6889   21.7868 N   0  0  0  0  0  0  0  0  0  0  0  0
   10.8492  -17.1298   22.8661 C   0  0  1  0  0  0  0  0  0  0  0  0
   12.2616  -17.2758   22.3868 C   0  0  0  0  0  0  0  0  0  0  0  0
   13.1523  -17.9868   23.3122 C   0  0  0  0  0  0  0  0  0  0  0  0
   12.8210  -18.4700   24.4239 O   0  0  0  0  0  0  0  0  0  0  0  0
   10.8293  -16.1480   23.9942 C   0  0  0  0  0  0  0  0  0  0  0  0
   11.4244  -15.0452   23.8970 O   0  0  0  0  0  0  0  0  0  0  0  0
   14.4847  -18.1342   22.9124 O   0  0  0  0  0  0  0  0  0  0  0  0
    8.3987  -12.2475   27.2592 C   0  0  0  0  0  0  0  0  0  0  0  0
    9.3288  -13.3894   27.3413 C   0  0  2  0  0  0  0  0  0  0  0  0
   10.7449  -12.8008   27.6082 C   0  0  0  0  0  0  0  0  0  0  0  0
    9.4394  -14.3665   26.2703 C   0  0  0  0  0  0  0  0  0  0  0  0
   10.3247  -15.5370   26.3840 C   0  0  2  0  0  0  0  0  0  0  0  0
   10.1525  -16.4063   25.2045 N   0  0  0  0  0  0  0  0  0  0  0  0
   10.0358  -16.3908   27.5323 C   0  0  0  0  0  0  0  0  0  0  0  0
   10.6778  -16.4567   28.5994 O   0  0  0  0  0  0  0  0  0  0  0  0
    8.9196  -17.2518   27.4775 O   0  0  0  0  0  0  0  0  0  0  0  0
  2  1  1  1
  3  2  1  0
  4  3  1  0
  4  9  2  0
  5  4  1  0
  6  5  2  0
  6  7  1  0
  7  8  2  0
  8  9  1  0
 10 11  2  0
 10  2  1  0
 12 10  1  0
 13 17  1  0
 13 12  1  0
 13 14  1  6
 15 14  1  0
 15 16  2  0
 17 18  2  0
 19 15  1  0
 21 20  1  6
 22 21  1  0
 23 21  1  0
 24 23  1  6
 25 24  1  0
 25 17  1  0
 26 28  1  0
 26 24  1  0
 27 26  2  0
M  END
$$$$
