FDL.pdb
     RDKit          3D

 28 28  0  0  1  0  0  0  0  0999 V2000
    6.2625  -18.2715   22.8668 N   0  0  0  0  0  0  0  0  0  0  0  0
    6.9592  -17.0744   23.2679 C   0  0  1  0  0  0  0  0  0  0  0  0
    6.3213  -16.5770   24.5635 C   0  0  0  0  0  0  0  0  0  0  0  0
    6.7112  -15.1692   24.8434 C   0  0  0  0  0  0  0  0  0  0  0  0
    6.3419  -14.6316   26.0626 C   0  0  0  0  0  0  0  0  0  0  0  0
    6.6879  -13.3316   26.3514 C   0  0  0  0  0  0  0  0  0  0  0  0
    7.3935  -12.6187   25.4024 C   0  0  0  0  0  0  0  0  0  0  0  0
    7.7609  -13.1569   24.1867 C   0  0  0  0  0  0  0  0  0  0  0  0
    7.4136  -14.4582   23.8997 C   0  0  0  0  0  0  0  0  0  0  0  0
    8.3739  -17.4164   23.6177 C   0  0  0  0  0  0  0  0  0  0  0  0
    8.6219  -18.4377   24.2811 O   0  0  0  0  0  0  0  0  0  0  0  0
    9.4471  -16.5832   23.1987 N   0  0  0  0  0  0  0  0  0  0  0  0
   10.7948  -17.0097   23.4485 C   0  0  1  0  0  0  0  0  0  0  0  0
   11.7430  -16.2250   22.5934 C   0  0  0  0  0  0  0  0  0  0  0  0
   13.1161  -16.7438   22.5660 C   0  0  0  0  0  0  0  0  0  0  0  0
   13.4414  -17.9553   22.4931 O   0  0  0  0  0  0  0  0  0  0  0  0
   11.1648  -16.8014   24.8826 C   0  0  0  0  0  0  0  0  0  0  0  0
   12.3692  -16.7984   25.2417 O   0  0  0  0  0  0  0  0  0  0  0  0
   14.1455  -15.7985   22.6270 O   0  0  0  0  0  0  0  0  0  0  0  0
   10.9292  -13.2779   27.8693 C   0  0  0  0  0  0  0  0  0  0  0  0
    9.7437  -14.1214   27.6266 C   0  0  2  0  0  0  0  0  0  0  0  0
    8.5394  -13.4181   28.3181 C   0  0  0  0  0  0  0  0  0  0  0  0
    9.7164  -15.5285   27.9914 C   0  0  0  0  0  0  0  0  0  0  0  0
   10.5702  -16.5169   27.3125 C   0  0  2  0  0  0  0  0  0  0  0  0
   10.1959  -16.6012   25.8879 N   0  0  0  0  0  0  0  0  0  0  0  0
   10.4280  -17.8762   27.8252 C   0  0  0  0  0  0  0  0  0  0  0  0
    9.9044  -18.8472   27.2435 O   0  0  0  0  0  0  0  0  0  0  0  0
   10.9213  -18.1739   29.1130 O   0  0  0  0  0  0  0  0  0  0  0  0
  2  1  1  1
  3  2  1  0
  4  3  1  0
  4  9  2  0
  5  4  1  0
  6  5  2  0
  6  7  1  0
  7  8  2  0
  8  9  1  0
 10 11  2  0
 10  2  1  0
 12 10  1  0
 13 17  1  0
 13 12  1  0
 13 14  1  6
 15 14  1  0
 15 16  2  0
 17 18  2  0
 19 15  1  0
 21 20  1  1
 22 21  1  0
 23 21  1  0
 24 23  1  1
 25 24  1  0
 25 17  1  0
 26 28  1  0
 26 24  1  0
 27 26  2  0
M  END
$$$$
