FDL.pdb
     RDKit          3D

 28 28  0  0  1  0  0  0  0  0999 V2000
    6.3968  -18.3018   22.8381 N   0  0  0  0  0  0  0  0  0  0  0  0
    7.0020  -17.0915   23.3363 C   0  0  1  0  0  0  0  0  0  0  0  0
    6.3036  -16.7265   24.6446 C   0  0  0  0  0  0  0  0  0  0  0  0
    6.6708  -15.3524   25.0797 C   0  0  0  0  0  0  0  0  0  0  0  0
    6.4382  -15.0139   26.3998 C   0  0  0  0  0  0  0  0  0  0  0  0
    6.7673  -13.7501   26.8331 C   0  0  0  0  0  0  0  0  0  0  0  0
    7.3189  -12.8717   25.9217 C   0  0  0  0  0  0  0  0  0  0  0  0
    7.5501  -13.2114   24.6049 C   0  0  0  0  0  0  0  0  0  0  0  0
    7.2201  -14.4768   24.1735 C   0  0  0  0  0  0  0  0  0  0  0  0
    8.4285  -17.3626   23.7000 C   0  0  0  0  0  0  0  0  0  0  0  0
    8.7178  -18.3571   24.3871 O   0  0  0  0  0  0  0  0  0  0  0  0
    9.4661  -16.4920   23.2676 N   0  0  0  0  0  0  0  0  0  0  0  0
   10.8232  -16.8029   23.6171 C   0  0  1  0  0  0  0  0  0  0  0  0
   11.7629  -16.0614   22.7154 C   0  0  0  0  0  0  0  0  0  0  0  0
   12.3096  -16.8591   21.6108 C   0  0  0  0  0  0  0  0  0  0  0  0
   12.7656  -18.0263   21.7041 O   0  0  0  0  0  0  0  0  0  0  0  0
   11.1144  -16.4125   25.0312 C   0  0  0  0  0  0  0  0  0  0  0  0
   12.1782  -15.8117   25.3261 O   0  0  0  0  0  0  0  0  0  0  0  0
   12.3193  -16.2583   20.3475 O   0  0  0  0  0  0  0  0  0  0  0  0
   11.1842  -13.1773   27.8514 C   0  0  0  0  0  0  0  0  0  0  0  0
    9.9535  -13.9253   27.5327 C   0  0  2  0  0  0  0  0  0  0  0  0
    8.7579  -13.0624   28.0320 C   0  0  0  0  0  0  0  0  0  0  0  0
    9.7470  -15.2908   27.9873 C   0  0  0  0  0  0  0  0  0  0  0  0
   10.5754  -16.4015   27.4906 C   0  0  2  0  0  0  0  0  0  0  0  0
   10.2238  -16.6945   26.0880 N   0  0  0  0  0  0  0  0  0  0  0  0
   10.3735  -17.6585   28.2048 C   0  0  0  0  0  0  0  0  0  0  0  0
   10.6273  -17.8901   29.4037 O   0  0  0  0  0  0  0  0  0  0  0  0
    9.8348  -18.7599   27.5070 O   0  0  0  0  0  0  0  0  0  0  0  0
  2  1  1  1
  3  2  1  0
  4  3  1  0
  4  9  2  0
  5  4  1  0
  6  5  2  0
  6  7  1  0
  7  8  2  0
  8  9  1  0
 10 11  2  0
 10  2  1  0
 12 10  1  0
 13 17  1  0
 13 12  1  0
 13 14  1  6
 15 14  1  0
 15 16  2  0
 17 18  2  0
 19 15  1  0
 21 20  1  1
 22 21  1  0
 23 21  1  0
 24 23  1  1
 25 24  1  0
 25 17  1  0
 26 28  1  0
 26 24  1  0
 27 26  2  0
M  END
$$$$
