FDL.pdb
     RDKit          3D

 28 28  0  0  1  0  0  0  0  0999 V2000
    8.0242  -16.0819   25.3135 N   0  0  0  0  0  0  0  0  0  0  0  0
    7.3573  -16.6759   24.1813 C   0  0  1  0  0  0  0  0  0  0  0  0
    6.8039  -15.5423   23.3201 C   0  0  0  0  0  0  0  0  0  0  0  0
    6.7147  -14.2772   24.0971 C   0  0  0  0  0  0  0  0  0  0  0  0
    7.5227  -13.2258   23.7057 C   0  0  0  0  0  0  0  0  0  0  0  0
    7.4633  -12.0419   24.4044 C   0  0  0  0  0  0  0  0  0  0  0  0
    6.5923  -11.9586   25.4726 C   0  0  0  0  0  0  0  0  0  0  0  0
    5.7870  -13.0089   25.8615 C   0  0  0  0  0  0  0  0  0  0  0  0
    5.8481  -14.1927   25.1608 C   0  0  0  0  0  0  0  0  0  0  0  0
    8.3632  -17.3809   23.3259 C   0  0  0  0  0  0  0  0  0  0  0  0
    8.1704  -18.5591   22.9804 O   0  0  0  0  0  0  0  0  0  0  0  0
    9.5460  -16.7172   22.8993 N   0  0  0  0  0  0  0  0  0  0  0  0
   10.8158  -17.3464   23.1285 C   0  0  1  0  0  0  0  0  0  0  0  0
   11.8235  -16.8299   22.1468 C   0  0  0  0  0  0  0  0  0  0  0  0
   11.2510  -16.2929   20.9062 C   0  0  0  0  0  0  0  0  0  0  0  0
   10.4427  -16.8906   20.1521 O   0  0  0  0  0  0  0  0  0  0  0  0
   11.3112  -17.0638   24.5110 C   0  0  0  0  0  0  0  0  0  0  0  0
   12.5348  -17.1487   24.7852 O   0  0  0  0  0  0  0  0  0  0  0  0
   11.6461  -15.0019   20.5399 O   0  0  0  0  0  0  0  0  0  0  0  0
    9.1586  -14.2896   29.6723 C   0  0  0  0  0  0  0  0  0  0  0  0
   10.2150  -15.0154   28.9423 C   0  0  2  0  0  0  0  0  0  0  0  0
   11.5234  -14.1866   29.0983 C   0  0  0  0  0  0  0  0  0  0  0  0
   10.0705  -15.3735   27.5405 C   0  0  0  0  0  0  0  0  0  0  0  0
   10.9567  -16.3605   26.9025 C   0  0  2  0  0  0  0  0  0  0  0  0
   10.4437  -16.6938   25.5600 N   0  0  0  0  0  0  0  0  0  0  0  0
   11.0318  -17.6355   27.6093 C   0  0  0  0  0  0  0  0  0  0  0  0
   11.9515  -18.0279   28.3547 O   0  0  0  0  0  0  0  0  0  0  0  0
    9.9735  -18.5574   27.4662 O   0  0  0  0  0  0  0  0  0  0  0  0
  2  1  1  1
  3  2  1  0
  4  3  1  0
  4  9  2  0
  5  4  1  0
  6  5  2  0
  6  7  1  0
  7  8  2  0
  8  9  1  0
 10 11  2  0
 10  2  1  0
 12 10  1  0
 13 17  1  0
 13 12  1  0
 13 14  1  6
 15 14  1  0
 15 16  2  0
 17 18  2  0
 19 15  1  0
 21 20  1  6
 22 21  1  0
 23 21  1  0
 24 23  1  1
 25 24  1  0
 25 17  1  0
 26 28  1  0
 26 24  1  0
 27 26  2  0
M  END
$$$$
