FDL.pdb
     RDKit          3D

 28 28  0  0  1  0  0  0  0  0999 V2000
    7.6254  -16.9783   19.3654 N   0  0  0  0  0  0  0  0  0  0  0  0
    8.9726  -16.6734   19.7797 C   0  0  1  0  0  0  0  0  0  0  0  0
    9.2230  -15.1937   19.4960 C   0  0  0  0  0  0  0  0  0  0  0  0
    8.3490  -14.3341   20.3383 C   0  0  0  0  0  0  0  0  0  0  0  0
    8.9558  -13.5556   21.3064 C   0  0  0  0  0  0  0  0  0  0  0  0
    8.1743  -12.7494   22.1017 C   0  0  0  0  0  0  0  0  0  0  0  0
    6.8092  -12.7556   21.8942 C   0  0  0  0  0  0  0  0  0  0  0  0
    6.2057  -13.5331   20.9277 C   0  0  0  0  0  0  0  0  0  0  0  0
    6.9897  -14.3392   20.1329 C   0  0  0  0  0  0  0  0  0  0  0  0
    9.0822  -16.8258   21.2648 C   0  0  0  0  0  0  0  0  0  0  0  0
    8.0604  -17.0028   21.9498 O   0  0  0  0  0  0  0  0  0  0  0  0
   10.3487  -16.7707   21.9087 N   0  0  0  0  0  0  0  0  0  0  0  0
   10.4750  -17.2995   23.2373 C   0  0  1  0  0  0  0  0  0  0  0  0
   11.8333  -17.9072   23.4155 C   0  0  0  0  0  0  0  0  0  0  0  0
   12.0556  -19.1439   22.6563 C   0  0  0  0  0  0  0  0  0  0  0  0
   13.0582  -19.3963   21.9420 O   0  0  0  0  0  0  0  0  0  0  0  0
   10.2980  -16.2232   24.2606 C   0  0  0  0  0  0  0  0  0  0  0  0
   11.1055  -15.2625   24.3291 O   0  0  0  0  0  0  0  0  0  0  0  0
   11.0582  -20.1210   22.7421 O   0  0  0  0  0  0  0  0  0  0  0  0
    8.2113  -12.1618   25.7790 C   0  0  0  0  0  0  0  0  0  0  0  0
    7.5298  -13.4473   25.5370 C   0  0  2  0  0  0  0  0  0  0  0  0
    6.0007  -13.1748   25.6400 C   0  0  0  0  0  0  0  0  0  0  0  0
    7.8317  -14.6344   26.3204 C   0  0  0  0  0  0  0  0  0  0  0  0
    9.1647  -15.2580   26.2912 C   0  0  2  0  0  0  0  0  0  0  0  0
    9.2330  -16.2322   25.1853 N   0  0  0  0  0  0  0  0  0  0  0  0
    9.4898  -16.0212   27.4923 C   0  0  0  0  0  0  0  0  0  0  0  0
    9.3321  -17.2456   27.6696 O   0  0  0  0  0  0  0  0  0  0  0  0
   10.0453  -15.3458   28.5993 O   0  0  0  0  0  0  0  0  0  0  0  0
  2  1  1  1
  3  2  1  0
  4  3  1  0
  4  9  2  0
  5  4  1  0
  6  5  2  0
  6  7  1  0
  7  8  2  0
  8  9  1  0
 10 11  2  0
 10  2  1  0
 12 10  1  0
 13 17  1  0
 13 12  1  0
 13 14  1  6
 15 14  1  0
 15 16  2  0
 17 18  2  0
 19 15  1  0
 21 20  1  1
 22 21  1  0
 23 21  1  0
 24 23  1  1
 25 24  1  0
 25 17  1  0
 26 28  1  0
 26 24  1  0
 27 26  2  0
M  END
$$$$
