FDL.pdb
     RDKit          3D

 28 28  0  0  1  0  0  0  0  0999 V2000
    6.6999  -18.1940   20.1831 N   0  0  0  0  0  0  0  0  0  0  0  0
    7.3507  -16.9439   20.4885 C   0  0  1  0  0  0  0  0  0  0  0  0
    6.2748  -15.9564   20.9357 C   0  0  0  0  0  0  0  0  0  0  0  0
    6.8619  -14.6187   21.2150 C   0  0  0  0  0  0  0  0  0  0  0  0
    7.3279  -13.8855   20.1395 C   0  0  0  0  0  0  0  0  0  0  0  0
    7.8767  -12.6440   20.3652 C   0  0  0  0  0  0  0  0  0  0  0  0
    7.9367  -12.1847   21.6660 C   0  0  0  0  0  0  0  0  0  0  0  0
    7.4711  -12.9179   22.7376 C   0  0  0  0  0  0  0  0  0  0  0  0
    6.9223  -14.1600   22.5095 C   0  0  0  0  0  0  0  0  0  0  0  0
    8.2493  -17.1277   21.6714 C   0  0  0  0  0  0  0  0  0  0  0  0
    7.8494  -17.7572   22.6656 O   0  0  0  0  0  0  0  0  0  0  0  0
    9.5649  -16.5883   21.6745 N   0  0  0  0  0  0  0  0  0  0  0  0
   10.4438  -16.9094   22.7630 C   0  0  1  0  0  0  0  0  0  0  0  0
   11.8696  -16.7605   22.3260 C   0  0  0  0  0  0  0  0  0  0  0  0
   12.8608  -17.2500   23.2920 C   0  0  0  0  0  0  0  0  0  0  0  0
   12.7383  -18.2695   24.0163 O   0  0  0  0  0  0  0  0  0  0  0  0
   10.2066  -16.0017   23.9278 C   0  0  0  0  0  0  0  0  0  0  0  0
   10.7142  -14.8525   23.9609 O   0  0  0  0  0  0  0  0  0  0  0  0
   14.0420  -16.5096   23.4091 O   0  0  0  0  0  0  0  0  0  0  0  0
    8.3353  -12.4828   26.8457 C   0  0  0  0  0  0  0  0  0  0  0  0
    7.6922  -13.5125   26.0080 C   0  0  2  0  0  0  0  0  0  0  0  0
    6.1593  -13.2470   26.0626 C   0  0  0  0  0  0  0  0  0  0  0  0
    7.9139  -14.9318   26.2327 C   0  0  0  0  0  0  0  0  0  0  0  0
    9.2661  -15.5129   26.2117 C   0  0  2  0  0  0  0  0  0  0  0  0
    9.4139  -16.3840   25.0301 N   0  0  0  0  0  0  0  0  0  0  0  0
    9.5624  -16.3692   27.3561 C   0  0  0  0  0  0  0  0  0  0  0  0
   10.0244  -16.0153   28.4592 O   0  0  0  0  0  0  0  0  0  0  0  0
    9.3158  -17.7544   27.2527 O   0  0  0  0  0  0  0  0  0  0  0  0
  2  1  1  1
  3  2  1  0
  4  3  1  0
  4  9  2  0
  5  4  1  0
  6  5  2  0
  6  7  1  0
  7  8  2  0
  8  9  1  0
 10 11  2  0
 10  2  1  0
 12 10  1  0
 13 17  1  0
 13 12  1  0
 13 14  1  6
 15 14  1  0
 15 16  2  0
 17 18  2  0
 19 15  1  0
 21 20  1  1
 22 21  1  0
 23 21  1  0
 24 23  1  1
 25 24  1  0
 25 17  1  0
 26 28  1  0
 26 24  1  0
 27 26  2  0
M  END
$$$$
