FDL.pdb
     RDKit          3D

 28 28  0  0  1  0  0  0  0  0999 V2000
    6.0154  -18.4748   22.5595 N   0  0  0  0  0  0  0  0  0  0  0  0
    6.8463  -17.3327   22.2685 C   0  0  1  0  0  0  0  0  0  0  0  0
    6.2181  -16.1159   22.9449 C   0  0  0  0  0  0  0  0  0  0  0  0
    6.9588  -14.8729   22.6005 C   0  0  0  0  0  0  0  0  0  0  0  0
    7.1348  -14.5815   21.2605 C   0  0  0  0  0  0  0  0  0  0  0  0
    7.8158  -13.4385   20.9095 C   0  0  0  0  0  0  0  0  0  0  0  0
    8.2956  -12.6294   21.9203 C   0  0  0  0  0  0  0  0  0  0  0  0
    8.1189  -12.9221   23.2567 C   0  0  0  0  0  0  0  0  0  0  0  0
    7.4371  -14.0664   23.6057 C   0  0  0  0  0  0  0  0  0  0  0  0
    8.1830  -17.5126   22.9178 C   0  0  0  0  0  0  0  0  0  0  0  0
    8.2622  -18.0173   24.0508 O   0  0  0  0  0  0  0  0  0  0  0  0
    9.3735  -17.1112   22.2520 N   0  0  0  0  0  0  0  0  0  0  0  0
   10.6304  -17.2573   22.9297 C   0  0  1  0  0  0  0  0  0  0  0  0
   11.7522  -16.8979   22.0033 C   0  0  0  0  0  0  0  0  0  0  0  0
   13.0954  -17.1330   22.5473 C   0  0  0  0  0  0  0  0  0  0  0  0
   14.1088  -16.4217   22.3328 O   0  0  0  0  0  0  0  0  0  0  0  0
   10.6991  -16.3648   24.1279 C   0  0  0  0  0  0  0  0  0  0  0  0
   10.8500  -15.1239   23.9971 O   0  0  0  0  0  0  0  0  0  0  0  0
   13.2504  -18.2494   23.3759 O   0  0  0  0  0  0  0  0  0  0  0  0
    7.6996  -13.3776   27.4351 C   0  0  0  0  0  0  0  0  0  0  0  0
    8.9274  -14.1889   27.5348 C   0  0  2  0  0  0  0  0  0  0  0  0
   10.0922  -13.2082   27.8583 C   0  0  0  0  0  0  0  0  0  0  0  0
    9.3583  -15.0631   26.4559 C   0  0  0  0  0  0  0  0  0  0  0  0
   10.5174  -15.9579   26.6059 C   0  0  2  0  0  0  0  0  0  0  0  0
   10.5997  -16.8630   25.4437 N   0  0  0  0  0  0  0  0  0  0  0  0
   10.4426  -16.8367   27.7691 C   0  0  0  0  0  0  0  0  0  0  0  0
    9.8035  -17.9035   27.8644 O   0  0  0  0  0  0  0  0  0  0  0  0
   11.1532  -16.4848   28.9359 O   0  0  0  0  0  0  0  0  0  0  0  0
  2  1  1  1
  3  2  1  0
  4  3  1  0
  4  9  2  0
  5  4  1  0
  6  5  2  0
  6  7  1  0
  7  8  2  0
  8  9  1  0
 10 11  2  0
 10  2  1  0
 12 10  1  0
 13 17  1  0
 13 12  1  0
 13 14  1  6
 15 14  1  0
 15 16  2  0
 17 18  2  0
 19 15  1  0
 21 20  1  6
 22 21  1  0
 23 21  1  0
 24 23  1  6
 25 24  1  0
 25 17  1  0
 26 28  1  0
 26 24  1  0
 27 26  2  0
M  END
$$$$
