RRL.pdb
     RDKit          3D

 31 30  0  0  1  0  0  0  0  0999 V2000
   10.4634  -13.7392   17.7446 N   0  0  0  0  0  0  0  0  0  0  0  0
    9.1832  -13.6111   17.1497 C   0  0  0  0  0  0  0  0  0  0  0  0
    9.0315  -13.7467   15.8588 N   0  0  0  0  0  0  0  0  0  0  0  0
    8.0121  -13.3321   17.9196 N   0  0  0  0  0  0  0  0  0  0  0  0
    7.9830  -13.6135   19.3392 C   0  0  0  0  0  0  0  0  0  0  0  0
    8.1076  -15.1254   19.5558 C   0  0  0  0  0  0  0  0  0  0  0  0
    7.9053  -15.3541   21.0260 C   0  0  0  0  0  0  0  0  0  0  0  0
    7.9184  -16.8263   21.3916 C   0  0  2  0  0  0  0  0  0  0  0  0
    6.7613  -17.5154   20.9100 N   0  0  0  0  0  0  0  0  0  0  0  0
    7.9016  -16.8620   22.8763 C   0  0  0  0  0  0  0  0  0  0  0  0
    6.7716  -16.8363   23.4146 O   0  0  0  0  0  0  0  0  0  0  0  0
    8.0795  -13.6836   15.4383 N   0  0  0  0  0  0  0  0  0  0  0  0
   13.2206  -20.1867   30.2663 C   0  0  0  0  0  0  0  0  0  0  0  0
   12.9039  -20.0356   28.8871 N   0  0  0  0  0  0  0  0  0  0  0  0
   13.4937  -20.7533   28.0175 N   0  0  0  0  0  0  0  0  0  0  0  0
   11.9291  -19.0803   28.5143 C   0  0  0  0  0  0  0  0  0  0  0  0
   11.5952  -18.9584   27.1145 C   0  0  0  0  0  0  0  0  0  0  0  0
   10.3943  -18.0243   26.9129 C   0  0  0  0  0  0  0  0  0  0  0  0
   10.2356  -17.8428   25.4354 C   0  0  2  0  0  0  0  0  0  0  0  0
    9.1366  -16.9176   25.0333 N   0  0  0  0  0  0  0  0  0  0  0  0
    9.1115  -16.9220   23.5741 C   0  0  0  0  0  0  0  0  0  0  0  0
    9.2299  -15.5599   25.5784 O   0  0  0  0  0  0  0  0  0  0  0  0
   10.0468  -14.7748   25.0241 C   0  0  0  0  0  0  0  0  0  0  0  0
   13.2739  -20.6815   27.0038 C   0  0  1  0  0  0  0  0  0  0  0  0
    5.2727  -12.3344   27.0293 C   0  0  0  0  0  0  0  0  0  0  0  0
    6.5648  -12.9267   26.3581 C   0  0  0  0  0  0  0  0  0  0  0  0
    6.8952  -11.8720   25.3098 C   0  0  1  0  0  0  0  0  0  0  0  0
    7.5298  -13.0295   27.4717 N   0  0  0  0  0  0  0  0  0  0  0  0
    8.8065  -13.7387   27.2170 C   0  0  0  0  0  0  0  0  0  0  0  0
    8.4739  -15.0741   26.6622 O   0  0  0  0  0  0  0  0  0  0  0  0
    9.7579  -13.9054   28.3025 O   0  0  0  0  0  0  0  0  0  0  0  0
  2  1  1  0
  3  2  2  0
  4  2  1  0
  5  4  1  0
  6  5  1  0
  7  6  1  0
  8  9  1  6
  8  7  1  0
 10  8  1  0
 10 11  2  0
 13 14  2  0
 13 12  1  0
 15 13  1  0
 15 16  1  0
 17 18  1  0
 17 16  1  0
 19 18  1  1
 19 20  1  0
 19 21  1  0
 20 10  1  0
 21 28  1  0
 21 22  2  0
 24 23  1  1
 24 25  1  0
 26 24  1  0
 27 26  1  1
 28 27  1  0
 29 30  1  0
 29 27  1  0
 31 29  2  0
M  END
$$$$
