RRL.pdb
     RDKit          3D

 31 30  0  0  1  0  0  0  0  0999 V2000
   10.6591  -17.3319   15.7030 N   0  0  0  0  0  0  0  0  0  0  0  0
   11.9702  -17.7628   16.0261 C   0  0  0  0  0  0  0  0  0  0  0  0
   12.9976  -17.3499   15.3319 N   0  0  0  0  0  0  0  0  0  0  0  0
   12.2308  -18.6561   17.1105 N   0  0  0  0  0  0  0  0  0  0  0  0
   11.1532  -19.1051   17.9665 C   0  0  0  0  0  0  0  0  0  0  0  0
   10.8297  -18.0083   18.9866 C   0  0  0  0  0  0  0  0  0  0  0  0
    9.8349  -18.6056   19.9397 C   0  0  0  0  0  0  0  0  0  0  0  0
   10.3616  -18.6746   21.3606 C   0  0  2  0  0  0  0  0  0  0  0  0
    9.4295  -19.2874   22.2558 N   0  0  0  0  0  0  0  0  0  0  0  0
   10.5526  -17.2619   21.7772 C   0  0  0  0  0  0  0  0  0  0  0  0
   11.7102  -16.8023   21.6499 O   0  0  0  0  0  0  0  0  0  0  0  0
   13.9619  -17.6227   15.6192 N   0  0  0  0  0  0  0  0  0  0  0  0
    7.7998  -14.1145   17.1449 C   0  0  0  0  0  0  0  0  0  0  0  0
    8.1720  -13.1336   18.1065 N   0  0  0  0  0  0  0  0  0  0  0  0
    8.5689  -11.9869   17.7234 N   0  0  0  0  0  0  0  0  0  0  0  0
    8.0894  -13.4627   19.4800 C   0  0  0  0  0  0  0  0  0  0  0  0
    7.4378  -14.6984   19.8465 C   0  0  0  0  0  0  0  0  0  0  0  0
    7.5266  -14.9416   21.3592 C   0  0  0  0  0  0  0  0  0  0  0  0
    8.8074  -14.3177   21.8193 C   0  0  1  0  0  0  0  0  0  0  0  0
    9.6220  -15.1658   22.7372 N   0  0  0  0  0  0  0  0  0  0  0  0
    9.4628  -16.5404   22.2733 C   0  0  0  0  0  0  0  0  0  0  0  0
    9.3088  -15.0259   24.1625 O   0  0  0  0  0  0  0  0  0  0  0  0
    9.1496  -13.8543   24.6018 C   0  0  0  0  0  0  0  0  0  0  0  0
    8.9060  -11.2684   18.3950 C   0  0  1  0  0  0  0  0  0  0  0  0
    5.9924  -13.2130   26.1391 C   0  0  0  0  0  0  0  0  0  0  0  0
    7.5093  -13.6250   26.1618 C   0  0  0  0  0  0  0  0  0  0  0  0
    8.0566  -12.7750   27.3013 C   0  0  1  0  0  0  0  0  0  0  0  0
    7.4798  -15.0790   26.4206 N   0  0  0  0  0  0  0  0  0  0  0  0
    8.7745  -15.7999   26.4638 C   0  0  0  0  0  0  0  0  0  0  0  0
    9.1680  -16.0976   25.0645 O   0  0  0  0  0  0  0  0  0  0  0  0
    8.8871  -17.0156   27.2516 O   0  0  0  0  0  0  0  0  0  0  0  0
  2  1  1  0
  3  2  2  0
  4  2  1  0
  5  4  1  0
  6  5  1  0
  7  6  1  0
  8  9  1  1
  8  7  1  0
 10  8  1  0
 10 11  2  0
 13 14  2  0
 13 12  1  0
 15 13  1  0
 15 16  1  0
 17 18  1  0
 17 16  1  0
 19 18  1  6
 19 20  1  0
 19 21  1  0
 20 10  1  0
 21 28  1  0
 21 22  2  0
 24 23  1  6
 24 25  1  0
 26 24  1  0
 27 26  1  1
 28 27  1  0
 29 30  1  0
 29 27  1  0
 31 29  2  0
M  END
$$$$
