RRL.pdb
     RDKit          3D

 31 30  0  0  1  0  0  0  0  0999 V2000
   13.7864  -22.0203   19.9975 N   0  0  0  0  0  0  0  0  0  0  0  0
   12.7971  -23.0351   20.0238 C   0  0  0  0  0  0  0  0  0  0  0  0
   13.1348  -24.2924   20.1382 N   0  0  0  0  0  0  0  0  0  0  0  0
   11.4024  -22.7392   19.9285 N   0  0  0  0  0  0  0  0  0  0  0  0
   10.9446  -21.3665   19.8869 C   0  0  0  0  0  0  0  0  0  0  0  0
   11.8203  -20.5152   20.8124 C   0  0  0  0  0  0  0  0  0  0  0  0
   11.3117  -19.1077   20.6896 C   0  0  0  0  0  0  0  0  0  0  0  0
   10.3603  -18.7344   21.8106 C   0  0  2  0  0  0  0  0  0  0  0  0
    9.0481  -19.2667   21.6087 N   0  0  0  0  0  0  0  0  0  0  0  0
   10.2756  -17.2520   21.7759 C   0  0  0  0  0  0  0  0  0  0  0  0
   11.3626  -16.6366   21.8591 O   0  0  0  0  0  0  0  0  0  0  0  0
   12.3957  -25.0249   20.2017 N   0  0  0  0  0  0  0  0  0  0  0  0
    6.9565  -13.0266   16.0356 C   0  0  0  0  0  0  0  0  0  0  0  0
    8.0461  -13.7499   16.5966 N   0  0  0  0  0  0  0  0  0  0  0  0
    9.1148  -13.9109   15.9249 N   0  0  0  0  0  0  0  0  0  0  0  0
    7.9115  -14.2771   17.9027 C   0  0  0  0  0  0  0  0  0  0  0  0
    8.5421  -13.5685   18.9916 C   0  0  0  0  0  0  0  0  0  0  0  0
    7.6280  -13.5234   20.2235 C   0  0  0  0  0  0  0  0  0  0  0  0
    7.6678  -14.8884   20.8371 C   0  0  2  0  0  0  0  0  0  0  0  0
    8.9013  -15.1859   21.6216 N   0  0  0  0  0  0  0  0  0  0  0  0
    9.0246  -16.6398   21.6543 C   0  0  0  0  0  0  0  0  0  0  0  0
    8.9466  -14.5991   22.9642 O   0  0  0  0  0  0  0  0  0  0  0  0
    9.1636  -13.3590   23.0405 C   0  0  0  0  0  0  0  0  0  0  0  0
    9.9330  -14.4261   16.3073 C   0  0  2  0  0  0  0  0  0  0  0  0
    8.2475  -11.6244   26.4874 C   0  0  0  0  0  0  0  0  0  0  0  0
    7.2518  -12.8373   26.5794 C   0  0  0  0  0  0  0  0  0  0  0  0
    5.8961  -12.1425   26.5662 C   0  0  1  0  0  0  0  0  0  0  0  0
    7.5574  -13.6412   25.3786 N   0  0  0  0  0  0  0  0  0  0  0  0
    8.7182  -14.5614   25.4396 C   0  0  0  0  0  0  0  0  0  0  0  0
    8.7598  -15.3150   24.1621 O   0  0  0  0  0  0  0  0  0  0  0  0
    8.8252  -15.5014   26.5424 O   0  0  0  0  0  0  0  0  0  0  0  0
  2  1  1  0
  3  2  2  0
  4  2  1  0
  5  4  1  0
  6  5  1  0
  7  6  1  0
  8  9  1  6
  8  7  1  0
 10  8  1  0
 10 11  2  0
 13 14  2  0
 13 12  1  0
 15 13  1  0
 15 16  1  0
 17 18  1  0
 17 16  1  0
 19 18  1  6
 19 20  1  0
 19 21  1  0
 20 10  1  0
 21 28  1  0
 21 22  2  0
 24 23  1  6
 24 25  1  0
 26 24  1  0
 27 26  1  1
 28 27  1  0
 29 30  1  0
 29 27  1  0
 31 29  2  0
M  END
$$$$
