RRL.pdb
     RDKit          3D

 31 30  0  0  1  0  0  0  0  0999 V2000
   13.3290  -21.3821   20.4767 N   0  0  0  0  0  0  0  0  0  0  0  0
   13.8539  -21.6566   21.7644 C   0  0  0  0  0  0  0  0  0  0  0  0
   15.0945  -22.0409   21.9105 N   0  0  0  0  0  0  0  0  0  0  0  0
   13.0656  -21.5287   22.9494 N   0  0  0  0  0  0  0  0  0  0  0  0
   11.6389  -21.3003   22.8604 C   0  0  0  0  0  0  0  0  0  0  0  0
   11.3832  -19.8176   22.5698 C   0  0  0  0  0  0  0  0  0  0  0  0
    9.8923  -19.6609   22.4825 C   0  0  0  0  0  0  0  0  0  0  0  0
    9.4641  -18.8453   21.2773 C   0  0  2  0  0  0  0  0  0  0  0  0
   10.2798  -19.1018   20.1307 N   0  0  0  0  0  0  0  0  0  0  0  0
    9.6499  -17.4271   21.6773 C   0  0  0  0  0  0  0  0  0  0  0  0
   10.8189  -17.0858   21.9676 O   0  0  0  0  0  0  0  0  0  0  0  0
   15.4953  -22.1495   22.8668 N   0  0  0  0  0  0  0  0  0  0  0  0
    8.5208  -12.3720   17.0834 C   0  0  0  0  0  0  0  0  0  0  0  0
    8.1107  -13.7140   16.8470 N   0  0  0  0  0  0  0  0  0  0  0  0
    8.3036  -14.2459   15.7072 N   0  0  0  0  0  0  0  0  0  0  0  0
    7.4923  -14.4310   17.8984 C   0  0  0  0  0  0  0  0  0  0  0  0
    7.7796  -14.0318   19.2563 C   0  0  0  0  0  0  0  0  0  0  0  0
    6.9943  -14.8862   20.2605 C   0  0  0  0  0  0  0  0  0  0  0  0
    7.4567  -14.4780   21.6246 C   0  0  2  0  0  0  0  0  0  0  0  0
    8.6856  -15.1754   22.1032 N   0  0  0  0  0  0  0  0  0  0  0  0
    8.5437  -16.5728   21.7067 C   0  0  0  0  0  0  0  0  0  0  0  0
    8.9681  -15.0352   23.5349 O   0  0  0  0  0  0  0  0  0  0  0  0
    9.6801  -14.0547   23.8851 C   0  0  0  0  0  0  0  0  0  0  0  0
    8.0822  -15.2446   15.5212 C   0  0  2  0  0  0  0  0  0  0  0  0
    8.1140  -12.4399   27.2186 C   0  0  0  0  0  0  0  0  0  0  0  0
    6.9835  -13.5174   27.0391 C   0  0  0  0  0  0  0  0  0  0  0  0
    5.7303  -12.6564   26.9450 C   0  0  1  0  0  0  0  0  0  0  0  0
    7.3566  -14.2217   25.7955 N   0  0  0  0  0  0  0  0  0  0  0  0
    8.2907  -15.3678   25.9037 C   0  0  0  0  0  0  0  0  0  0  0  0
    8.4991  -15.9061   24.5368 O   0  0  0  0  0  0  0  0  0  0  0  0
    7.9686  -16.4677   26.7969 O   0  0  0  0  0  0  0  0  0  0  0  0
  2  1  1  0
  3  2  2  0
  4  2  1  0
  5  4  1  0
  6  5  1  0
  7  6  1  0
  8  9  1  6
  8  7  1  0
 10  8  1  0
 10 11  2  0
 13 14  2  0
 13 12  1  0
 15 13  1  0
 15 16  1  0
 17 18  1  0
 17 16  1  0
 19 18  1  6
 19 20  1  0
 19 21  1  0
 20 10  1  0
 21 28  1  0
 21 22  2  0
 24 23  1  6
 24 25  1  0
 26 24  1  0
 27 26  1  6
 28 27  1  0
 29 30  1  0
 29 27  1  0
 31 29  2  0
M  END
$$$$
