RRL.pdb
     RDKit          3D

 31 30  0  0  1  0  0  0  0  0999 V2000
    6.7690  -14.5368   15.0907 N   0  0  0  0  0  0  0  0  0  0  0  0
    7.6114  -13.5051   15.5756 C   0  0  0  0  0  0  0  0  0  0  0  0
    8.7180  -13.1993   14.9512 N   0  0  0  0  0  0  0  0  0  0  0  0
    7.2979  -12.7586   16.7531 N   0  0  0  0  0  0  0  0  0  0  0  0
    7.7019  -13.2409   18.0569 C   0  0  0  0  0  0  0  0  0  0  0  0
    7.7639  -14.7718   18.0308 C   0  0  0  0  0  0  0  0  0  0  0  0
    7.4364  -15.2262   19.4240 C   0  0  0  0  0  0  0  0  0  0  0  0
    8.3818  -16.3038   19.9203 C   0  0  2  0  0  0  0  0  0  0  0  0
    8.2381  -17.5280   19.1947 N   0  0  0  0  0  0  0  0  0  0  0  0
    7.9922  -16.5471   21.3327 C   0  0  0  0  0  0  0  0  0  0  0  0
    6.9040  -17.1403   21.5091 O   0  0  0  0  0  0  0  0  0  0  0  0
    9.3596  -12.4822   15.3525 N   0  0  0  0  0  0  0  0  0  0  0  0
    9.4772  -23.1438   22.9339 C   0  0  0  0  0  0  0  0  0  0  0  0
    9.7717  -22.8663   24.2983 N   0  0  0  0  0  0  0  0  0  0  0  0
    9.6110  -23.7701   25.1794 N   0  0  0  0  0  0  0  0  0  0  0  0
   10.2420  -21.5773   24.6436 C   0  0  0  0  0  0  0  0  0  0  0  0
   10.1390  -20.5277   23.6568 C   0  0  0  0  0  0  0  0  0  0  0  0
    9.6109  -19.2305   24.2842 C   0  0  0  0  0  0  0  0  0  0  0  0
    9.4762  -18.2394   23.1702 C   0  0  2  0  0  0  0  0  0  0  0  0
    8.9839  -16.8940   23.5861 N   0  0  0  0  0  0  0  0  0  0  0  0
    8.8361  -16.1156   22.3604 C   0  0  0  0  0  0  0  0  0  0  0  0
    9.8113  -16.2039   24.5802 O   0  0  0  0  0  0  0  0  0  0  0  0
   10.4947  -15.2238   24.1761 C   0  0  0  0  0  0  0  0  0  0  0  0
    9.8111  -23.5999   26.1854 C   0  0  2  0  0  0  0  0  0  0  0  0
    6.5537  -13.2699   26.6817 C   0  0  0  0  0  0  0  0  0  0  0  0
    8.0768  -13.5508   26.4127 C   0  0  0  0  0  0  0  0  0  0  0  0
    8.7561  -12.6369   27.4247 C   0  0  1  0  0  0  0  0  0  0  0  0
    8.2241  -14.9971   26.6742 N   0  0  0  0  0  0  0  0  0  0  0  0
    9.5846  -15.5133   26.9578 C   0  0  0  0  0  0  0  0  0  0  0  0
    9.8902  -16.5512   25.9424 O   0  0  0  0  0  0  0  0  0  0  0  0
    9.8845  -16.0446   28.2765 O   0  0  0  0  0  0  0  0  0  0  0  0
  2  1  1  0
  3  2  2  0
  4  2  1  0
  5  4  1  0
  6  5  1  0
  7  6  1  0
  8  9  1  6
  8  7  1  0
 10  8  1  0
 10 11  2  0
 13 14  2  0
 13 12  1  0
 15 13  1  0
 15 16  1  0
 17 18  1  0
 17 16  1  0
 19 18  1  6
 19 20  1  0
 19 21  1  0
 20 10  1  0
 21 28  1  0
 21 22  2  0
 24 23  1  1
 24 25  1  0
 26 24  1  0
 27 26  1  1
 28 27  1  0
 29 30  1  0
 29 27  1  0
 31 29  2  0
M  END
$$$$
