RRL.pdb
     RDKit          3D

 31 30  0  0  1  0  0  0  0  0999 V2000
   11.4127  -22.6606   26.6822 N   0  0  0  0  0  0  0  0  0  0  0  0
   11.1725  -23.5176   25.5790 C   0  0  0  0  0  0  0  0  0  0  0  0
   11.7567  -24.6840   25.5015 N   0  0  0  0  0  0  0  0  0  0  0  0
   10.2929  -23.1552   24.5128 N   0  0  0  0  0  0  0  0  0  0  0  0
    9.6512  -21.8576   24.4998 C   0  0  0  0  0  0  0  0  0  0  0  0
    9.6678  -21.3017   23.0720 C   0  0  0  0  0  0  0  0  0  0  0  0
    9.0912  -19.9178   23.1566 C   0  0  0  0  0  0  0  0  0  0  0  0
    8.9787  -19.2518   21.7983 C   0  0  2  0  0  0  0  0  0  0  0  0
    9.7263  -19.9409   20.7923 N   0  0  0  0  0  0  0  0  0  0  0  0
    9.5658  -17.8990   21.9749 C   0  0  0  0  0  0  0  0  0  0  0  0
   10.7759  -17.7811   21.6768 O   0  0  0  0  0  0  0  0  0  0  0  0
   11.6151  -25.2807   24.6584 N   0  0  0  0  0  0  0  0  0  0  0  0
    9.4140  -14.7136   17.7876 C   0  0  0  0  0  0  0  0  0  0  0  0
    8.2637  -13.8909   17.6291 N   0  0  0  0  0  0  0  0  0  0  0  0
    8.0327  -13.3306   16.5102 N   0  0  0  0  0  0  0  0  0  0  0  0
    7.3959  -13.7159   18.7327 C   0  0  0  0  0  0  0  0  0  0  0  0
    7.9806  -13.6114   20.0492 C   0  0  0  0  0  0  0  0  0  0  0  0
    7.5784  -14.8037   20.9278 C   0  0  0  0  0  0  0  0  0  0  0  0
    8.1956  -14.5732   22.2721 C   0  0  2  0  0  0  0  0  0  0  0  0
    9.2988  -15.5138   22.6235 N   0  0  0  0  0  0  0  0  0  0  0  0
    8.7606  -16.8591   22.4489 C   0  0  0  0  0  0  0  0  0  0  0  0
    9.8845  -15.3234   23.9539 O   0  0  0  0  0  0  0  0  0  0  0  0
   10.3953  -14.1966   24.1991 C   0  0  0  0  0  0  0  0  0  0  0  0
    7.1946  -12.7351   16.3554 C   0  0  2  0  0  0  0  0  0  0  0  0
   11.0798  -13.3542   27.9630 C   0  0  0  0  0  0  0  0  0  0  0  0
    9.7259  -14.1463   28.0662 C   0  0  0  0  0  0  0  0  0  0  0  0
    8.7427  -13.0526   28.4635 C   0  0  1  0  0  0  0  0  0  0  0  0
    9.5337  -14.7017   26.7111 N   0  0  0  0  0  0  0  0  0  0  0  0
   10.3318  -15.8923   26.3323 C   0  0  0  0  0  0  0  0  0  0  0  0
    9.9102  -16.2987   24.9690 O   0  0  0  0  0  0  0  0  0  0  0  0
   10.3204  -17.0616   27.1948 O   0  0  0  0  0  0  0  0  0  0  0  0
  2  1  1  0
  3  2  2  0
  4  2  1  0
  5  4  1  0
  6  5  1  0
  7  6  1  0
  8  9  1  6
  8  7  1  0
 10  8  1  0
 10 11  2  0
 13 14  2  0
 13 12  1  0
 15 13  1  0
 15 16  1  0
 17 18  1  0
 17 16  1  0
 19 18  1  6
 19 20  1  0
 19 21  1  0
 20 10  1  0
 21 28  1  0
 21 22  2  0
 24 23  1  1
 24 25  1  0
 26 24  1  0
 27 26  1  1
 28 27  1  0
 29 30  1  0
 29 27  1  0
 31 29  2  0
M  END
$$$$
