RRL.pdb
     RDKit          3D

 31 30  0  0  1  0  0  0  0  0999 V2000
    8.1058  -16.3401   14.2396 N   0  0  0  0  0  0  0  0  0  0  0  0
    8.8667  -15.2352   14.6973 C   0  0  0  0  0  0  0  0  0  0  0  0
    9.6317  -14.5665   13.8755 N   0  0  0  0  0  0  0  0  0  0  0  0
    8.8358  -14.8034   16.0591 N   0  0  0  0  0  0  0  0  0  0  0  0
    7.5726  -14.6107   16.7393 C   0  0  0  0  0  0  0  0  0  0  0  0
    7.6295  -13.3110   17.5490 C   0  0  0  0  0  0  0  0  0  0  0  0
    6.9327  -13.5980   18.8479 C   0  0  0  0  0  0  0  0  0  0  0  0
    7.8333  -13.3828   20.0495 C   0  0  2  0  0  0  0  0  0  0  0  0
    9.0833  -12.7872   19.6912 N   0  0  0  0  0  0  0  0  0  0  0  0
    8.0983  -14.7409   20.5892 C   0  0  0  0  0  0  0  0  0  0  0  0
    7.7649  -15.6992   19.8560 O   0  0  0  0  0  0  0  0  0  0  0  0
   10.2323  -13.7947   14.2368 N   0  0  0  0  0  0  0  0  0  0  0  0
   15.6785  -15.0219   21.7272 C   0  0  0  0  0  0  0  0  0  0  0  0
   15.4264  -14.6810   20.3688 N   0  0  0  0  0  0  0  0  0  0  0  0
   16.1571  -13.8189   19.7839 N   0  0  0  0  0  0  0  0  0  0  0  0
   14.3572  -15.3177   19.6954 C   0  0  0  0  0  0  0  0  0  0  0  0
   13.0288  -14.7758   19.8610 C   0  0  0  0  0  0  0  0  0  0  0  0
   12.2863  -15.4755   21.0074 C   0  0  0  0  0  0  0  0  0  0  0  0
   10.9143  -14.8786   21.0572 C   0  0  2  0  0  0  0  0  0  0  0  0
    9.9761  -15.5452   22.0064 N   0  0  0  0  0  0  0  0  0  0  0  0
    8.6896  -14.8743   21.8490 C   0  0  0  0  0  0  0  0  0  0  0  0
   10.4150  -15.5735   23.4048 O   0  0  0  0  0  0  0  0  0  0  0  0
   11.5650  -15.1192   23.6538 C   0  0  0  0  0  0  0  0  0  0  0  0
   15.9199  -13.4431   18.8439 C   0  0  1  0  0  0  0  0  0  0  0  0
    6.0830  -13.2961   25.1155 C   0  0  0  0  0  0  0  0  0  0  0  0
    7.6029  -13.0264   25.4129 C   0  0  0  0  0  0  0  0  0  0  0  0
    7.6617  -13.1549   26.9297 C   0  0  1  0  0  0  0  0  0  0  0  0
    8.3063  -14.0881   24.6648 N   0  0  0  0  0  0  0  0  0  0  0  0
    9.0763  -15.0880   25.4427 C   0  0  0  0  0  0  0  0  0  0  0  0
    9.6474  -16.0615   24.4795 O   0  0  0  0  0  0  0  0  0  0  0  0
    8.4188  -15.8179   26.5133 O   0  0  0  0  0  0  0  0  0  0  0  0
  2  1  1  0
  3  2  2  0
  4  2  1  0
  5  4  1  0
  6  5  1  0
  7  6  1  0
  8  9  1  6
  8  7  1  0
 10  8  1  0
 10 11  2  0
 13 14  2  0
 13 12  1  0
 15 13  1  0
 15 16  1  0
 17 18  1  0
 17 16  1  0
 19 18  1  6
 19 20  1  0
 19 21  1  0
 20 10  1  0
 21 28  1  0
 21 22  2  0
 24 23  1  1
 24 25  1  0
 26 24  1  0
 27 26  1  1
 28 27  1  0
 29 30  1  0
 29 27  1  0
 31 29  2  0
M  END
$$$$
