RRL.pdb
     RDKit          3D

 31 30  0  0  1  0  0  0  0  0999 V2000
   10.0259  -13.8822   18.7626 N   0  0  0  0  0  0  0  0  0  0  0  0
    9.1921  -12.7359   18.7640 C   0  0  0  0  0  0  0  0  0  0  0  0
    9.6987  -11.5430   18.5960 N   0  0  0  0  0  0  0  0  0  0  0  0
    7.7776  -12.8254   18.9460 N   0  0  0  0  0  0  0  0  0  0  0  0
    7.0631  -14.0248   18.5636 C   0  0  0  0  0  0  0  0  0  0  0  0
    6.4703  -14.6790   19.8161 C   0  0  0  0  0  0  0  0  0  0  0  0
    7.5841  -15.4686   20.4411 C   0  0  0  0  0  0  0  0  0  0  0  0
    7.1321  -16.8384   20.9106 C   0  0  2  0  0  0  0  0  0  0  0  0
    5.7433  -17.0681   20.6571 N   0  0  0  0  0  0  0  0  0  0  0  0
    7.3473  -16.8400   22.3802 C   0  0  0  0  0  0  0  0  0  0  0  0
    6.3878  -16.4390   23.0773 O   0  0  0  0  0  0  0  0  0  0  0  0
    9.0703  -10.7117   18.5636 N   0  0  0  0  0  0  0  0  0  0  0  0
   11.5277  -18.9922   28.6759 C   0  0  0  0  0  0  0  0  0  0  0  0
   11.9167  -20.2578   28.1543 N   0  0  0  0  0  0  0  0  0  0  0  0
   12.8614  -20.9087   28.7048 N   0  0  0  0  0  0  0  0  0  0  0  0
   11.2342  -20.7659   27.0239 C   0  0  0  0  0  0  0  0  0  0  0  0
   11.2232  -19.9688   25.8196 C   0  0  0  0  0  0  0  0  0  0  0  0
   10.1432  -18.8806   25.8880 C   0  0  0  0  0  0  0  0  0  0  0  0
    9.7685  -18.5591   24.4747 C   0  0  1  0  0  0  0  0  0  0  0  0
    8.7583  -17.4713   24.3274 N   0  0  0  0  0  0  0  0  0  0  0  0
    8.5721  -17.2773   22.8930 C   0  0  0  0  0  0  0  0  0  0  0  0
    9.0826  -16.2179   25.0151 O   0  0  0  0  0  0  0  0  0  0  0  0
    9.9830  -15.4991   24.5017 C   0  0  0  0  0  0  0  0  0  0  0  0
   13.1765  -21.8319   28.3449 C   0  0  1  0  0  0  0  0  0  0  0  0
    5.5672  -12.7764   27.2156 C   0  0  0  0  0  0  0  0  0  0  0  0
    6.6696  -13.4805   26.3438 C   0  0  0  0  0  0  0  0  0  0  0  0
    6.9850  -12.4148   25.3018 C   0  0  1  0  0  0  0  0  0  0  0  0
    7.7568  -13.7622   27.3032 N   0  0  0  0  0  0  0  0  0  0  0  0
    8.9430  -14.5001   26.8069 C   0  0  0  0  0  0  0  0  0  0  0  0
    8.4607  -15.7619   26.1930 O   0  0  0  0  0  0  0  0  0  0  0  0
   10.0256  -14.8091   27.7253 O   0  0  0  0  0  0  0  0  0  0  0  0
  2  1  1  0
  3  2  2  0
  4  2  1  0
  5  4  1  0
  6  5  1  0
  7  6  1  0
  8  9  1  1
  8  7  1  0
 10  8  1  0
 10 11  2  0
 13 14  2  0
 13 12  1  0
 15 13  1  0
 15 16  1  0
 17 18  1  0
 17 16  1  0
 19 18  1  1
 19 20  1  0
 19 21  1  0
 20 10  1  0
 21 28  1  0
 21 22  2  0
 24 23  1  1
 24 25  1  0
 26 24  1  0
 27 26  1  1
 28 27  1  0
 29 30  1  0
 29 27  1  0
 31 29  2  0
M  END
$$$$
