RRL.pdb
     RDKit          3D

 31 30  0  0  1  0  0  0  0  0999 V2000
    9.3496  -13.5935   17.1024 N   0  0  0  0  0  0  0  0  0  0  0  0
    9.7426  -13.0040   18.3301 C   0  0  0  0  0  0  0  0  0  0  0  0
   11.0074  -12.8608   18.6260 N   0  0  0  0  0  0  0  0  0  0  0  0
    8.7905  -12.5434   19.2910 N   0  0  0  0  0  0  0  0  0  0  0  0
    7.3858  -12.8599   19.1421 C   0  0  0  0  0  0  0  0  0  0  0  0
    7.2220  -14.3785   19.0179 C   0  0  0  0  0  0  0  0  0  0  0  0
    7.4685  -14.9381   20.3893 C   0  0  0  0  0  0  0  0  0  0  0  0
    7.4792  -16.4549   20.4039 C   0  0  2  0  0  0  0  0  0  0  0  0
    6.2424  -17.0108   19.9489 N   0  0  0  0  0  0  0  0  0  0  0  0
    7.6672  -16.8321   21.8281 C   0  0  0  0  0  0  0  0  0  0  0  0
    6.6272  -16.8977   22.5219 O   0  0  0  0  0  0  0  0  0  0  0  0
   11.2827  -12.4320   19.5356 N   0  0  0  0  0  0  0  0  0  0  0  0
   14.2225  -21.6057   24.4035 C   0  0  0  0  0  0  0  0  0  0  0  0
   14.0031  -20.8276   25.5746 N   0  0  0  0  0  0  0  0  0  0  0  0
   14.8169  -20.9041   26.5499 N   0  0  0  0  0  0  0  0  0  0  0  0
   12.8726  -19.9783   25.6245 C   0  0  0  0  0  0  0  0  0  0  0  0
   11.8783  -20.1060   24.5849 C   0  0  0  0  0  0  0  0  0  0  0  0
   10.6642  -19.2115   24.8697 C   0  0  0  0  0  0  0  0  0  0  0  0
   10.3298  -18.5205   23.5843 C   0  0  2  0  0  0  0  0  0  0  0  0
    9.1696  -17.5858   23.6601 N   0  0  0  0  0  0  0  0  0  0  0  0
    8.9563  -17.0879   22.3049 C   0  0  0  0  0  0  0  0  0  0  0  0
    9.3049  -16.4967   24.6320 O   0  0  0  0  0  0  0  0  0  0  0  0
   10.0735  -15.5454   24.3232 C   0  0  0  0  0  0  0  0  0  0  0  0
   14.6673  -20.3781   27.4342 C   0  0  2  0  0  0  0  0  0  0  0  0
    5.8833  -13.0202   26.4885 C   0  0  0  0  0  0  0  0  0  0  0  0
    7.2994  -13.5107   26.0138 C   0  0  0  0  0  0  0  0  0  0  0  0
    8.1277  -12.2352   26.1012 C   0  0  1  0  0  0  0  0  0  0  0  0
    7.6581  -14.5608   26.9887 N   0  0  0  0  0  0  0  0  0  0  0  0
    8.9274  -15.2968   26.7764 C   0  0  0  0  0  0  0  0  0  0  0  0
    8.6383  -16.4359   25.8706 O   0  0  0  0  0  0  0  0  0  0  0  0
    9.6671  -15.7881   27.9265 O   0  0  0  0  0  0  0  0  0  0  0  0
  2  1  1  0
  3  2  2  0
  4  2  1  0
  5  4  1  0
  6  5  1  0
  7  6  1  0
  8  9  1  1
  8  7  1  0
 10  8  1  0
 10 11  2  0
 13 14  2  0
 13 12  1  0
 15 13  1  0
 15 16  1  0
 17 18  1  0
 17 16  1  0
 19 18  1  6
 19 20  1  0
 19 21  1  0
 20 10  1  0
 21 28  1  0
 21 22  2  0
 24 23  1  1
 24 25  1  0
 26 24  1  0
 27 26  1  1
 28 27  1  0
 29 30  1  0
 29 27  1  0
 31 29  2  0
M  END
$$$$
