RRL.pdb
     RDKit          3D

 31 30  0  0  1  0  0  0  0  0999 V2000
   14.1975  -23.2623   25.6395 N   0  0  0  0  0  0  0  0  0  0  0  0
   13.0242  -23.5938   24.9166 C   0  0  0  0  0  0  0  0  0  0  0  0
   12.3620  -24.6878   25.1861 N   0  0  0  0  0  0  0  0  0  0  0  0
   12.5139  -22.7614   23.8732 N   0  0  0  0  0  0  0  0  0  0  0  0
   13.1472  -21.4959   23.5683 C   0  0  0  0  0  0  0  0  0  0  0  0
   12.4082  -20.8308   22.4022 C   0  0  0  0  0  0  0  0  0  0  0  0
   13.1715  -19.5770   22.0856 C   0  0  0  0  0  0  0  0  0  0  0  0
   12.4941  -18.7391   21.0177 C   0  0  2  0  0  0  0  0  0  0  0  0
   13.3887  -18.3796   19.9613 N   0  0  0  0  0  0  0  0  0  0  0  0
   12.0615  -17.4978   21.7089 C   0  0  0  0  0  0  0  0  0  0  0  0
   12.9525  -16.6424   21.9129 O   0  0  0  0  0  0  0  0  0  0  0  0
   11.5287  -24.9446   24.6146 N   0  0  0  0  0  0  0  0  0  0  0  0
    7.3218  -15.0559   19.1225 C   0  0  0  0  0  0  0  0  0  0  0  0
    7.4487  -13.7001   19.5360 N   0  0  0  0  0  0  0  0  0  0  0  0
    7.8028  -12.8107   18.6978 N   0  0  0  0  0  0  0  0  0  0  0  0
    7.1738  -13.3723   20.8847 C   0  0  0  0  0  0  0  0  0  0  0  0
    6.9310  -14.4523   21.8123 C   0  0  0  0  0  0  0  0  0  0  0  0
    8.1583  -14.7052   22.6983 C   0  0  0  0  0  0  0  0  0  0  0  0
    8.9252  -15.8213   22.0600 C   0  0  1  0  0  0  0  0  0  0  0  0
   10.2435  -16.1164   22.6928 N   0  0  0  0  0  0  0  0  0  0  0  0
   10.7223  -17.3530   22.0831 C   0  0  0  0  0  0  0  0  0  0  0  0
   10.2326  -16.1925   24.1568 O   0  0  0  0  0  0  0  0  0  0  0  0
    9.4732  -17.0528   24.6802 C   0  0  0  0  0  0  0  0  0  0  0  0
    7.9571  -11.8212   18.9772 C   0  0  1  0  0  0  0  0  0  0  0  0
   10.0305  -12.4595   28.6347 C   0  0  0  0  0  0  0  0  0  0  0  0
   10.2935  -13.9981   28.4486 C   0  0  0  0  0  0  0  0  0  0  0  0
    9.0288  -14.6138   29.0333 C   0  0  1  0  0  0  0  0  0  0  0  0
   10.4533  -14.1583   26.9889 N   0  0  0  0  0  0  0  0  0  0  0  0
   10.8064  -15.5036   26.4756 C   0  0  0  0  0  0  0  0  0  0  0  0
   11.0081  -15.3849   25.0104 O   0  0  0  0  0  0  0  0  0  0  0  0
    9.9169  -16.6222   26.7376 O   0  0  0  0  0  0  0  0  0  0  0  0
  2  1  1  0
  3  2  2  0
  4  2  1  0
  5  4  1  0
  6  5  1  0
  7  6  1  0
  8  9  1  6
  8  7  1  0
 10  8  1  0
 10 11  2  0
 13 14  2  0
 13 12  1  0
 15 13  1  0
 15 16  1  0
 17 18  1  0
 17 16  1  0
 19 18  1  6
 19 20  1  0
 19 21  1  0
 20 10  1  0
 21 28  1  0
 21 22  2  0
 24 23  1  1
 24 25  1  0
 26 24  1  0
 27 26  1  6
 28 27  1  0
 29 30  1  0
 29 27  1  0
 31 29  2  0
M  END
$$$$
