RRL.pdb
     RDKit          3D

 31 30  0  0  1  0  0  0  0  0999 V2000
    3.0393  -19.3271   20.6981 N   0  0  0  0  0  0  0  0  0  0  0  0
    3.0717  -20.0092   21.9403 C   0  0  0  0  0  0  0  0  0  0  0  0
    2.2864  -21.0303   22.1606 N   0  0  0  0  0  0  0  0  0  0  0  0
    3.9511  -19.6210   22.9976 N   0  0  0  0  0  0  0  0  0  0  0  0
    4.7226  -18.4001   22.8993 C   0  0  0  0  0  0  0  0  0  0  0  0
    6.0026  -18.6756   22.1031 C   0  0  0  0  0  0  0  0  0  0  0  0
    6.0866  -17.5967   21.0622 C   0  0  0  0  0  0  0  0  0  0  0  0
    7.3540  -17.6870   20.2335 C   0  0  2  0  0  0  0  0  0  0  0  0
    7.5810  -19.0068   19.7312 N   0  0  0  0  0  0  0  0  0  0  0  0
    8.4577  -17.3438   21.1662 C   0  0  0  0  0  0  0  0  0  0  0  0
    8.9046  -18.2851   21.8601 O   0  0  0  0  0  0  0  0  0  0  0  0
    2.3186  -21.5213   23.0797 N   0  0  0  0  0  0  0  0  0  0  0  0
   14.0772  -13.4731   18.4344 C   0  0  0  0  0  0  0  0  0  0  0  0
   14.9191  -14.4905   18.9647 N   0  0  0  0  0  0  0  0  0  0  0  0
   16.0069  -14.7865   18.3747 N   0  0  0  0  0  0  0  0  0  0  0  0
   14.5202  -15.1540   20.1489 C   0  0  0  0  0  0  0  0  0  0  0  0
   13.3647  -14.6518   20.8550 C   0  0  0  0  0  0  0  0  0  0  0  0
   12.1469  -15.5600   20.6368 C   0  0  0  0  0  0  0  0  0  0  0  0
   10.9652  -14.8359   21.2029 C   0  0  2  0  0  0  0  0  0  0  0  0
   10.0687  -15.6711   22.0539 N   0  0  0  0  0  0  0  0  0  0  0  0
    8.9268  -16.0278   21.2180 C   0  0  0  0  0  0  0  0  0  0  0  0
    9.6546  -15.0567   23.3188 O   0  0  0  0  0  0  0  0  0  0  0  0
    9.2038  -13.8799   23.2637 C   0  0  0  0  0  0  0  0  0  0  0  0
   16.6735  -15.4822   18.7654 C   0  0  1  0  0  0  0  0  0  0  0  0
    7.2093  -12.4421   26.4061 C   0  0  0  0  0  0  0  0  0  0  0  0
    6.9445  -13.9894   26.4902 C   0  0  0  0  0  0  0  0  0  0  0  0
    5.4417  -14.0718   26.2550 C   0  0  1  0  0  0  0  0  0  0  0  0
    7.7811  -14.5532   25.4113 N   0  0  0  0  0  0  0  0  0  0  0  0
    9.1611  -14.9727   25.7541 C   0  0  0  0  0  0  0  0  0  0  0  0
    9.7180  -15.6846   24.5773 O   0  0  0  0  0  0  0  0  0  0  0  0
    9.3864  -15.7803   26.9408 O   0  0  0  0  0  0  0  0  0  0  0  0
  2  1  1  0
  3  2  2  0
  4  2  1  0
  5  4  1  0
  6  5  1  0
  7  6  1  0
  8  9  1  1
  8  7  1  0
 10  8  1  0
 10 11  2  0
 13 14  2  0
 13 12  1  0
 15 13  1  0
 15 16  1  0
 17 18  1  0
 17 16  1  0
 19 18  1  6
 19 20  1  0
 19 21  1  0
 20 10  1  0
 21 28  1  0
 21 22  2  0
 24 23  1  6
 24 25  1  0
 26 24  1  0
 27 26  1  6
 28 27  1  0
 29 30  1  0
 29 27  1  0
 31 29  2  0
M  END
$$$$
