FIN.pdb
     RDKit          3D

 28 28  0  0  1  0  0  0  0  0999 V2000
   28.2434  -21.2191   -9.0795 N   0  0  0  0  0  0  0  0  0  0  0  0
   26.9224  -20.6632   -8.8884 C   0  0  1  0  0  0  0  0  0  0  0  0
   26.9374  -19.3710   -8.1044 C   0  0  0  0  0  0  0  0  0  0  0  0
   27.5291  -19.5227   -6.7591 C   0  0  0  0  0  0  0  0  0  0  0  0
   26.7797  -20.2091   -5.8059 C   0  0  0  0  0  0  0  0  0  0  0  0
   27.2236  -20.4168   -4.5168 C   0  0  0  0  0  0  0  0  0  0  0  0
   28.4786  -19.9016   -4.1995 C   0  0  0  0  0  0  0  0  0  0  0  0
   29.2243  -19.2249   -5.1284 C   0  0  0  0  0  0  0  0  0  0  0  0
   28.7586  -19.0255   -6.4235 C   0  0  0  0  0  0  0  0  0  0  0  0
   26.3313  -20.3911  -10.2264 C   0  0  0  0  0  0  0  0  0  0  0  0
   26.9585  -19.6837  -11.0623 O   0  0  0  0  0  0  0  0  0  0  0  0
   25.7697  -20.4485  -15.2186 C   0  0  0  0  0  0  0  0  0  0  0  0
   24.8087  -21.2565  -14.3817 C   0  0  0  0  0  0  0  0  0  0  0  0
   25.3930  -21.4342  -12.9960 C   0  0  2  0  0  0  0  0  0  0  0  0
   25.3583  -22.9048  -12.6009 C   0  0  0  0  0  0  0  0  0  0  0  0
   24.5868  -20.6739  -11.9599 C   0  0  2  0  0  0  0  0  0  0  0  0
   25.0702  -20.8905  -10.6328 N   0  0  0  0  0  0  0  0  0  0  0  0
   23.1490  -21.1135  -12.0916 C   0  0  0  0  0  0  0  0  0  0  0  0
   22.7356  -22.1934  -11.5995 O   0  0  0  0  0  0  0  0  0  0  0  0
   20.2614  -17.1166  -12.8071 N   0  0  0  0  0  0  0  0  0  0  0  0
   19.9002  -18.4515  -12.5115 C   0  0  0  0  0  0  0  0  0  0  0  0
   19.5036  -18.7341  -11.3599 O   0  0  0  0  0  0  0  0  0  0  0  0
   19.9731  -19.5283  -13.5233 C   0  0  0  0  0  0  0  0  0  0  0  0
   20.7944  -20.6463  -12.9188 C   0  0  2  0  0  0  0  0  0  0  0  0
   22.1877  -20.3257  -12.7801 N   0  0  0  0  0  0  0  0  0  0  0  0
   20.5756  -21.8443  -13.7716 C   0  0  0  0  0  0  0  0  0  0  0  0
   21.3306  -22.1014  -14.9072 O   0  0  0  0  0  0  0  0  0  0  0  0
   19.6569  -22.6502  -13.4306 O   0  0  0  0  0  0  0  0  0  0  0  0
  2  1  1  6
  2  3  1  0
  4  3  1  0
  4  9  2  0
  5  4  1  0
  6  5  2  0
  6  7  1  0
  7  8  2  0
  8  9  1  0
 10  2  1  0
 11 10  2  0
 13 12  1  0
 14 13  1  0
 14 16  1  0
 14 15  1  1
 16 17  1  1
 17 10  1  0
 18 25  1  0
 18 16  1  0
 19 18  2  0
 21 22  2  0
 21 20  1  0
 23 21  1  0
 24 26  1  0
 24 23  1  6
 24 25  1  0
 26 27  1  0
 28 26  2  0
M  END
$$$$
