FIN.pdb
     RDKit          3D

 28 28  0  0  1  0  0  0  0  0999 V2000
   19.6081  -11.4603  -19.8584 N   0  0  0  0  0  0  0  0  0  0  0  0
   20.5806  -10.4017  -19.7023 C   0  0  1  0  0  0  0  0  0  0  0  0
   20.2951   -9.2081  -20.5844 C   0  0  0  0  0  0  0  0  0  0  0  0
   20.4700   -9.5017  -22.0218 C   0  0  0  0  0  0  0  0  0  0  0  0
   19.3232   -9.5240  -22.8128 C   0  0  0  0  0  0  0  0  0  0  0  0
   19.3564   -9.7846  -24.1667 C   0  0  0  0  0  0  0  0  0  0  0  0
   20.6098  -10.0299  -24.7234 C   0  0  0  0  0  0  0  0  0  0  0  0
   21.7442  -10.0108  -23.9554 C   0  0  0  0  0  0  0  0  0  0  0  0
   21.6896   -9.7463  -22.5913 C   0  0  0  0  0  0  0  0  0  0  0  0
   20.5578   -9.9510  -18.2845 C   0  0  0  0  0  0  0  0  0  0  0  0
   19.5483  -10.1829  -17.5638 O   0  0  0  0  0  0  0  0  0  0  0  0
   23.5647  -10.2680  -13.2815 C   0  0  0  0  0  0  0  0  0  0  0  0
   22.5382   -9.4388  -14.0134 C   0  0  0  0  0  0  0  0  0  0  0  0
   22.5722   -9.8000  -15.4837 C   0  0  2  0  0  0  0  0  0  0  0  0
   23.9644   -9.5503  -16.0492 C   0  0  0  0  0  0  0  0  0  0  0  0
   21.6060   -8.9440  -16.2806 C   0  0  2  0  0  0  0  0  0  0  0  0
   21.6303   -9.2560  -17.6748 N   0  0  0  0  0  0  0  0  0  0  0  0
   21.9754   -7.5003  -16.0416 C   0  0  0  0  0  0  0  0  0  0  0  0
   23.0436   -7.0053  -16.4810 O   0  0  0  0  0  0  0  0  0  0  0  0
   18.1271   -4.5970  -16.5755 N   0  0  0  0  0  0  0  0  0  0  0  0
   19.5120   -4.4030  -16.3652 C   0  0  0  0  0  0  0  0  0  0  0  0
   20.2589   -4.2270  -17.3523 O   0  0  0  0  0  0  0  0  0  0  0  0
   20.1088   -4.3984  -15.0114 C   0  0  0  0  0  0  0  0  0  0  0  0
   21.3728   -5.2272  -15.0841 C   0  0  2  0  0  0  0  0  0  0  0  0
   21.1310   -6.6257  -15.3062 N   0  0  0  0  0  0  0  0  0  0  0  0
   22.1175   -4.9793  -13.8215 C   0  0  0  0  0  0  0  0  0  0  0  0
   22.9699   -3.8967  -13.6567 O   0  0  0  0  0  0  0  0  0  0  0  0
   21.9539   -5.8022  -12.8698 O   0  0  0  0  0  0  0  0  0  0  0  0
  2  1  1  1
  2  3  1  0
  4  3  1  0
  4  9  2  0
  5  4  1  0
  6  5  2  0
  6  7  1  0
  7  8  2  0
  8  9  1  0
 10  2  1  0
 11 10  2  0
 13 12  1  0
 14 13  1  0
 14 16  1  0
 14 15  1  6
 16 17  1  6
 17 10  1  0
 18 25  1  0
 18 16  1  0
 19 18  2  0
 21 22  2  0
 21 20  1  0
 23 21  1  0
 24 26  1  0
 24 23  1  1
 24 25  1  0
 26 27  1  0
 28 26  2  0
M  END
$$$$
