FIN.pdb
     RDKit          3D

 28 28  0  0  1  0  0  0  0  0999 V2000
   28.5873  -20.1015  -15.0074 N   0  0  0  0  0  0  0  0  0  0  0  0
   27.6901  -19.3368  -14.1701 C   0  0  1  0  0  0  0  0  0  0  0  0
   26.7549  -18.4546  -14.9647 C   0  0  0  0  0  0  0  0  0  0  0  0
   27.4468  -17.3214  -15.6128 C   0  0  0  0  0  0  0  0  0  0  0  0
   27.6242  -16.1649  -14.8562 C   0  0  0  0  0  0  0  0  0  0  0  0
   28.2554  -15.0417  -15.3482 C   0  0  0  0  0  0  0  0  0  0  0  0
   28.7184  -15.1118  -16.6604 C   0  0  0  0  0  0  0  0  0  0  0  0
   28.5495  -16.2435  -17.4138 C   0  0  0  0  0  0  0  0  0  0  0  0
   27.9097  -17.3659  -16.8993 C   0  0  0  0  0  0  0  0  0  0  0  0
   26.8701  -20.2881  -13.3723 C   0  0  0  0  0  0  0  0  0  0  0  0
   26.6421  -21.4487  -13.8121 O   0  0  0  0  0  0  0  0  0  0  0  0
   26.6158  -20.1588   -7.9287 C   0  0  0  0  0  0  0  0  0  0  0  0
   26.6306  -20.8331   -9.2785 C   0  0  0  0  0  0  0  0  0  0  0  0
   25.3070  -20.5797   -9.9692 C   0  0  2  0  0  0  0  0  0  0  0  0
   24.2411  -21.5140   -9.4112 C   0  0  0  0  0  0  0  0  0  0  0  0
   25.4049  -20.8522  -11.4583 C   0  0  2  0  0  0  0  0  0  0  0  0
   26.3116  -19.9624  -12.1126 N   0  0  0  0  0  0  0  0  0  0  0  0
   24.0153  -20.7305  -12.0343 C   0  0  0  0  0  0  0  0  0  0  0  0
   23.4358  -19.6209  -12.1452 O   0  0  0  0  0  0  0  0  0  0  0  0
   20.0701  -22.4890  -15.6911 N   0  0  0  0  0  0  0  0  0  0  0  0
   20.2845  -22.9575  -14.3742 C   0  0  0  0  0  0  0  0  0  0  0  0
   19.2976  -23.2352  -13.6586 O   0  0  0  0  0  0  0  0  0  0  0  0
   21.6422  -23.1337  -13.8134 C   0  0  0  0  0  0  0  0  0  0  0  0
   22.0072  -21.8358  -13.1264 C   0  0  2  0  0  0  0  0  0  0  0  0
   23.2906  -21.8677  -12.4821 N   0  0  0  0  0  0  0  0  0  0  0  0
   20.9070  -21.5349  -12.1729 C   0  0  0  0  0  0  0  0  0  0  0  0
   19.8757  -20.6566  -12.4744 O   0  0  0  0  0  0  0  0  0  0  0  0
   20.9310  -22.1137  -11.0441 O   0  0  0  0  0  0  0  0  0  0  0  0
  2  1  1  6
  2  3  1  0
  4  3  1  0
  4  9  2  0
  5  4  1  0
  6  5  2  0
  6  7  1  0
  7  8  2  0
  8  9  1  0
 10  2  1  0
 11 10  2  0
 13 12  1  0
 14 13  1  0
 14 16  1  0
 14 15  1  1
 16 17  1  6
 17 10  1  0
 18 25  1  0
 18 16  1  0
 19 18  2  0
 21 22  2  0
 21 20  1  0
 23 21  1  0
 24 26  1  0
 24 23  1  1
 24 25  1  0
 26 27  1  0
 28 26  2  0
M  END
$$$$
