FIN.pdb
     RDKit          3D

 28 28  0  0  1  0  0  0  0  0999 V2000
   28.5734  -18.7999  -15.7917 N   0  0  0  0  0  0  0  0  0  0  0  0
   27.5404  -18.5187  -14.8198 C   0  0  1  0  0  0  0  0  0  0  0  0
   26.3778  -17.7503  -15.4051 C   0  0  0  0  0  0  0  0  0  0  0  0
   26.7652  -16.4145  -15.9033 C   0  0  0  0  0  0  0  0  0  0  0  0
   27.0413  -15.4340  -14.9526 C   0  0  0  0  0  0  0  0  0  0  0  0
   27.4139  -14.1504  -15.2921 C   0  0  0  0  0  0  0  0  0  0  0  0
   27.5052  -13.8676  -16.6533 C   0  0  0  0  0  0  0  0  0  0  0  0
   27.2360  -14.8235  -17.5971 C   0  0  0  0  0  0  0  0  0  0  0  0
   26.8612  -16.1126  -17.2342 C   0  0  0  0  0  0  0  0  0  0  0  0
   27.0280  -19.8129  -14.2941 C   0  0  0  0  0  0  0  0  0  0  0  0
   26.9774  -20.8248  -15.0463 O   0  0  0  0  0  0  0  0  0  0  0  0
   25.5026  -20.3993   -8.8485 C   0  0  0  0  0  0  0  0  0  0  0  0
   25.3476  -20.1836  -10.3339 C   0  0  0  0  0  0  0  0  0  0  0  0
   25.9151  -21.3813  -11.0664 C   0  0  2  0  0  0  0  0  0  0  0  0
   27.3716  -21.5904  -10.6726 C   0  0  0  0  0  0  0  0  0  0  0  0
   25.8842  -21.1700  -12.5684 C   0  0  2  0  0  0  0  0  0  0  0  0
   26.5789  -19.9851  -12.9624 N   0  0  0  0  0  0  0  0  0  0  0  0
   24.4359  -21.1146  -12.9892 C   0  0  0  0  0  0  0  0  0  0  0  0
   23.8430  -20.0253  -13.1919 O   0  0  0  0  0  0  0  0  0  0  0  0
   23.5625  -25.2904  -15.0596 N   0  0  0  0  0  0  0  0  0  0  0  0
   22.8139  -24.0937  -15.1448 C   0  0  0  0  0  0  0  0  0  0  0  0
   22.9658  -23.3501  -16.1385 O   0  0  0  0  0  0  0  0  0  0  0  0
   21.8513  -23.6918  -14.0957 C   0  0  0  0  0  0  0  0  0  0  0  0
   22.2921  -22.3357  -13.5893 C   0  0  2  0  0  0  0  0  0  0  0  0
   23.6679  -22.2950  -13.1783 N   0  0  0  0  0  0  0  0  0  0  0  0
   21.3650  -21.9716  -12.4855 C   0  0  0  0  0  0  0  0  0  0  0  0
   20.0105  -21.7493  -12.6897 O   0  0  0  0  0  0  0  0  0  0  0  0
   21.8516  -21.8642  -11.3188 O   0  0  0  0  0  0  0  0  0  0  0  0
  2  1  1  6
  2  3  1  0
  4  3  1  0
  4  9  2  0
  5  4  1  0
  6  5  2  0
  6  7  1  0
  7  8  2  0
  8  9  1  0
 10  2  1  0
 11 10  2  0
 13 12  1  0
 14 13  1  0
 14 16  1  0
 14 15  1  1
 16 17  1  1
 17 10  1  0
 18 25  1  0
 18 16  1  0
 19 18  2  0
 21 22  2  0
 21 20  1  0
 23 21  1  0
 24 26  1  0
 24 23  1  1
 24 25  1  0
 26 27  1  0
 28 26  2  0
M  END
$$$$
