FIN.pdb
     RDKit          3D

 28 28  0  0  1  0  0  0  0  0999 V2000
   27.8953  -20.8270  -16.1858 N   0  0  0  0  0  0  0  0  0  0  0  0
   27.0378  -19.8165  -15.6075 C   0  0  1  0  0  0  0  0  0  0  0  0
   26.2570  -19.0450  -16.6465 C   0  0  0  0  0  0  0  0  0  0  0  0
   27.1178  -18.2051  -17.5047 C   0  0  0  0  0  0  0  0  0  0  0  0
   27.4064  -18.6828  -18.7814 C   0  0  0  0  0  0  0  0  0  0  0  0
   28.1965  -17.9908  -19.6752 C   0  0  0  0  0  0  0  0  0  0  0  0
   28.7052  -16.7687  -19.2407 C   0  0  0  0  0  0  0  0  0  0  0  0
   28.4284  -16.2892  -17.9876 C   0  0  0  0  0  0  0  0  0  0  0  0
   27.6295  -17.0025  -17.1006 C   0  0  0  0  0  0  0  0  0  0  0  0
   26.0697  -20.4886  -14.6993 C   0  0  0  0  0  0  0  0  0  0  0  0
   25.5758  -21.6055  -15.0171 O   0  0  0  0  0  0  0  0  0  0  0  0
   26.7869  -20.9908   -9.4493 C   0  0  0  0  0  0  0  0  0  0  0  0
   26.4201  -21.1939  -10.8988 C   0  0  0  0  0  0  0  0  0  0  0  0
   25.0804  -20.5393  -11.1633 C   0  0  2  0  0  0  0  0  0  0  0  0
   23.9861  -21.2610  -10.3875 C   0  0  0  0  0  0  0  0  0  0  0  0
   24.7126  -20.6182  -12.6329 C   0  0  2  0  0  0  0  0  0  0  0  0
   25.6543  -19.9362  -13.4635 N   0  0  0  0  0  0  0  0  0  0  0  0
   23.3302  -20.0327  -12.7868 C   0  0  0  0  0  0  0  0  0  0  0  0
   23.1467  -18.8107  -13.0155 O   0  0  0  0  0  0  0  0  0  0  0  0
   19.5467  -19.1072  -16.1527 N   0  0  0  0  0  0  0  0  0  0  0  0
   19.7472  -20.3204  -15.4543 C   0  0  0  0  0  0  0  0  0  0  0  0
   18.7863  -21.1079  -15.3135 O   0  0  0  0  0  0  0  0  0  0  0  0
   21.0612  -20.6921  -14.8849 C   0  0  0  0  0  0  0  0  0  0  0  0
   20.9292  -20.6077  -13.3798 C   0  0  2  0  0  0  0  0  0  0  0  0
   22.1632  -20.8363  -12.6810 N   0  0  0  0  0  0  0  0  0  0  0  0
   19.8741  -21.5798  -12.9900 C   0  0  0  0  0  0  0  0  0  0  0  0
   20.0524  -22.9531  -13.0813 O   0  0  0  0  0  0  0  0  0  0  0  0
   18.7746  -21.1151  -12.5602 O   0  0  0  0  0  0  0  0  0  0  0  0
  2  1  1  6
  2  3  1  0
  4  3  1  0
  4  9  2  0
  5  4  1  0
  6  5  2  0
  6  7  1  0
  7  8  2  0
  8  9  1  0
 10  2  1  0
 11 10  2  0
 13 12  1  0
 14 13  1  0
 14 16  1  0
 14 15  1  1
 16 17  1  6
 17 10  1  0
 18 25  1  0
 18 16  1  0
 19 18  2  0
 21 22  2  0
 21 20  1  0
 23 21  1  0
 24 26  1  0
 24 23  1  6
 24 25  1  0
 26 27  1  0
 28 26  2  0
M  END
$$$$
