FIN.pdb
     RDKit          3D

 28 28  0  0  1  0  0  0  0  0999 V2000
   28.0668  -21.3863   -8.5239 N   0  0  0  0  0  0  0  0  0  0  0  0
   26.8301  -20.6427   -8.4336 C   0  0  1  0  0  0  0  0  0  0  0  0
   26.9477  -19.4120   -7.5640 C   0  0  0  0  0  0  0  0  0  0  0  0
   27.6971  -19.6610   -6.3153 C   0  0  0  0  0  0  0  0  0  0  0  0
   26.9867  -20.1885   -5.2390 C   0  0  0  0  0  0  0  0  0  0  0  0
   27.5738  -20.4654   -4.0222 C   0  0  0  0  0  0  0  0  0  0  0  0
   28.9351  -20.1905   -3.9104 C   0  0  0  0  0  0  0  0  0  0  0  0
   29.6437  -19.6716   -4.9618 C   0  0  0  0  0  0  0  0  0  0  0  0
   29.0330  -19.3989   -6.1810 C   0  0  0  0  0  0  0  0  0  0  0  0
   26.4424  -20.2114   -9.8038 C   0  0  0  0  0  0  0  0  0  0  0  0
   26.9506  -19.1714  -10.3064 O   0  0  0  0  0  0  0  0  0  0  0  0
   28.9540  -20.0846  -13.1504 C   0  0  0  0  0  0  0  0  0  0  0  0
   27.7357  -19.9046  -12.2785 C   0  0  0  0  0  0  0  0  0  0  0  0
   26.6379  -20.8235  -12.7719 C   0  0  2  0  0  0  0  0  0  0  0  0
   26.3278  -20.5264  -14.2334 C   0  0  0  0  0  0  0  0  0  0  0  0
   25.3545  -20.6127  -11.9910 C   0  0  2  0  0  0  0  0  0  0  0  0
   25.5098  -20.9157  -10.6032 N   0  0  0  0  0  0  0  0  0  0  0  0
   24.2926  -21.4812  -12.6200 C   0  0  0  0  0  0  0  0  0  0  0  0
   24.2543  -22.7237  -12.4363 O   0  0  0  0  0  0  0  0  0  0  0  0
   18.8967  -20.6532  -11.3723 N   0  0  0  0  0  0  0  0  0  0  0  0
   19.9567  -21.4383  -11.8819 C   0  0  0  0  0  0  0  0  0  0  0  0
   19.7093  -22.5806  -12.3260 O   0  0  0  0  0  0  0  0  0  0  0  0
   21.3533  -20.9508  -11.9102 C   0  0  0  0  0  0  0  0  0  0  0  0
   21.8698  -21.1744  -13.3149 C   0  0  2  0  0  0  0  0  0  0  0  0
   23.2794  -20.9357  -13.4537 N   0  0  0  0  0  0  0  0  0  0  0  0
   21.0618  -20.3038  -14.2090 C   0  0  0  0  0  0  0  0  0  0  0  0
   19.8621  -20.7175  -14.7707 O   0  0  0  0  0  0  0  0  0  0  0  0
   21.5047  -19.1409  -14.4564 O   0  0  0  0  0  0  0  0  0  0  0  0
  2  1  1  6
  2  3  1  0
  4  3  1  0
  4  9  2  0
  5  4  1  0
  6  5  2  0
  6  7  1  0
  7  8  2  0
  8  9  1  0
 10  2  1  0
 11 10  2  0
 13 12  1  0
 14 13  1  0
 14 16  1  0
 14 15  1  6
 16 17  1  1
 17 10  1  0
 18 25  1  0
 18 16  1  0
 19 18  2  0
 21 22  2  0
 21 20  1  0
 23 21  1  0
 24 26  1  0
 24 23  1  1
 24 25  1  0
 26 27  1  0
 28 26  2  0
M  END
$$$$
