FIN.pdb
     RDKit          3D

 28 28  0  0  1  0  0  0  0  0999 V2000
   28.3096  -19.8028  -16.1962 N   0  0  0  0  0  0  0  0  0  0  0  0
   27.4708  -19.1071  -15.2458 C   0  0  1  0  0  0  0  0  0  0  0  0
   26.4733  -18.1851  -15.9086 C   0  0  0  0  0  0  0  0  0  0  0  0
   27.0945  -16.9550  -16.4414 C   0  0  0  0  0  0  0  0  0  0  0  0
   27.2242  -15.8762  -15.5692 C   0  0  0  0  0  0  0  0  0  0  0  0
   27.7879  -14.6756  -15.9473 C   0  0  0  0  0  0  0  0  0  0  0  0
   28.2319  -14.5832  -17.2647 C   0  0  0  0  0  0  0  0  0  0  0  0
   28.1093  -15.6373  -18.1312 C   0  0  0  0  0  0  0  0  0  0  0  0
   27.5374  -16.8399  -17.7306 C   0  0  0  0  0  0  0  0  0  0  0  0
   26.7186  -20.1197  -14.4567 C   0  0  0  0  0  0  0  0  0  0  0  0
   26.4337  -21.2367  -14.9702 O   0  0  0  0  0  0  0  0  0  0  0  0
   25.2665  -21.8284   -8.7303 C   0  0  0  0  0  0  0  0  0  0  0  0
   24.9249  -21.8610  -10.1996 C   0  0  0  0  0  0  0  0  0  0  0  0
   25.7842  -20.8481  -10.9268 C   0  0  2  0  0  0  0  0  0  0  0  0
   25.4381  -19.4403  -10.4592 C   0  0  0  0  0  0  0  0  0  0  0  0
   25.5390  -20.8950  -12.4231 C   0  0  2  0  0  0  0  0  0  0  0  0
   26.2884  -19.9017  -13.1255 N   0  0  0  0  0  0  0  0  0  0  0  0
   24.0573  -20.7147  -12.6460 C   0  0  0  0  0  0  0  0  0  0  0  0
   23.5186  -19.5794  -12.6517 O   0  0  0  0  0  0  0  0  0  0  0  0
   19.3102  -21.4995  -14.2018 N   0  0  0  0  0  0  0  0  0  0  0  0
   20.0411  -22.6223  -14.6544 C   0  0  0  0  0  0  0  0  0  0  0  0
   19.5120  -23.4024  -15.4758 O   0  0  0  0  0  0  0  0  0  0  0  0
   21.4169  -22.9047  -14.1892 C   0  0  0  0  0  0  0  0  0  0  0  0
   21.8338  -21.7422  -13.3148 C   0  0  2  0  0  0  0  0  0  0  0  0
   23.1946  -21.8228  -12.8618 N   0  0  0  0  0  0  0  0  0  0  0  0
   20.8679  -21.6909  -12.1858 C   0  0  0  0  0  0  0  0  0  0  0  0
   19.5982  -21.1454  -12.3126 O   0  0  0  0  0  0  0  0  0  0  0  0
   21.2390  -22.1693  -11.0709 O   0  0  0  0  0  0  0  0  0  0  0  0
  2  1  1  6
  2  3  1  0
  4  3  1  0
  4  9  2  0
  5  4  1  0
  6  5  2  0
  6  7  1  0
  7  8  2  0
  8  9  1  0
 10  2  1  0
 11 10  2  0
 13 12  1  0
 14 13  1  0
 14 16  1  0
 14 15  1  1
 16 17  1  6
 17 10  1  0
 18 25  1  0
 18 16  1  0
 19 18  2  0
 21 22  2  0
 21 20  1  0
 23 21  1  0
 24 26  1  0
 24 23  1  6
 24 25  1  0
 26 27  1  0
 28 26  2  0
M  END
$$$$
