FIN.pdb
     RDKit          3D

 28 28  0  0  1  0  0  0  0  0999 V2000
   24.7971  -17.5949  -18.3954 N   0  0  0  0  0  0  0  0  0  0  0  0
   24.5617  -17.5753  -16.9689 C   0  0  1  0  0  0  0  0  0  0  0  0
   23.1738  -17.0964  -16.6098 C   0  0  0  0  0  0  0  0  0  0  0  0
   22.9521  -15.6750  -16.9467 C   0  0  0  0  0  0  0  0  0  0  0  0
   22.1851  -15.3991  -18.0767 C   0  0  0  0  0  0  0  0  0  0  0  0
   21.9070  -14.1142  -18.4933 C   0  0  0  0  0  0  0  0  0  0  0  0
   22.4351  -13.0811  -17.7221 C   0  0  0  0  0  0  0  0  0  0  0  0
   23.1908  -13.3404  -16.6091 C   0  0  0  0  0  0  0  0  0  0  0  0
   23.4604  -14.6436  -16.2056 C   0  0  0  0  0  0  0  0  0  0  0  0
   24.7276  -18.9593  -16.4484 C   0  0  0  0  0  0  0  0  0  0  0  0
   24.7412  -19.9370  -17.2461 O   0  0  0  0  0  0  0  0  0  0  0  0
   28.0942  -19.9191  -12.2679 C   0  0  0  0  0  0  0  0  0  0  0  0
   27.3551  -19.9642  -13.5826 C   0  0  0  0  0  0  0  0  0  0  0  0
   25.9978  -20.5985  -13.3620 C   0  0  2  0  0  0  0  0  0  0  0  0
   26.1646  -22.0557  -12.9511 C   0  0  0  0  0  0  0  0  0  0  0  0
   25.1731  -20.5847  -14.6351 C   0  0  2  0  0  0  0  0  0  0  0  0
   24.8747  -19.2574  -15.0720 N   0  0  0  0  0  0  0  0  0  0  0  0
   23.9089  -21.3637  -14.3654 C   0  0  0  0  0  0  0  0  0  0  0  0
   23.9333  -22.5344  -13.9091 O   0  0  0  0  0  0  0  0  0  0  0  0
   19.8762  -22.4496  -11.6028 N   0  0  0  0  0  0  0  0  0  0  0  0
   20.2776  -21.1014  -11.7476 C   0  0  0  0  0  0  0  0  0  0  0  0
   19.5318  -20.1946  -11.3178 O   0  0  0  0  0  0  0  0  0  0  0  0
   21.5564  -20.7263  -12.3901 C   0  0  0  0  0  0  0  0  0  0  0  0
   21.4370  -21.0891  -13.8544 C   0  0  2  0  0  0  0  0  0  0  0  0
   22.6239  -20.8107  -14.6141 N   0  0  0  0  0  0  0  0  0  0  0  0
   20.2512  -20.3611  -14.3779 C   0  0  0  0  0  0  0  0  0  0  0  0
   20.3450  -19.3942  -15.3689 O   0  0  0  0  0  0  0  0  0  0  0  0
   19.1181  -20.6495  -13.8852 O   0  0  0  0  0  0  0  0  0  0  0  0
  2  1  1  6
  2  3  1  0
  4  3  1  0
  4  9  2  0
  5  4  1  0
  6  5  2  0
  6  7  1  0
  7  8  2  0
  8  9  1  0
 10  2  1  0
 11 10  2  0
 13 12  1  0
 14 13  1  0
 14 16  1  0
 14 15  1  6
 16 17  1  1
 17 10  1  0
 18 25  1  0
 18 16  1  0
 19 18  2  0
 21 22  2  0
 21 20  1  0
 23 21  1  0
 24 26  1  0
 24 23  1  1
 24 25  1  0
 26 27  1  0
 28 26  2  0
M  END
$$$$
