HYL.pdb
     RDKit          3D

 31 32  0  0  1  0  0  0  0  0999 V2000
    6.5000  -19.3774   20.8504 N   0  0  0  0  0  0  0  0  0  0  0  0
    6.2840  -18.0732   21.4238 C   0  0  1  0  0  0  0  0  0  0  0  0
    5.3848  -18.2869   22.6485 C   0  0  0  0  0  0  0  0  0  0  0  0
    4.0881  -18.8026   22.1387 C   0  0  0  0  0  0  0  0  0  0  0  0
    3.3383  -18.2461   21.0943 C   0  0  0  0  0  0  0  0  0  0  0  0
    2.2318  -18.9832   20.9202 N   0  0  0  0  0  0  0  0  0  0  0  0
    2.2476  -19.9839   21.8096 C   0  0  0  0  0  0  0  0  0  0  0  0
    3.3765  -19.8686   22.5459 N   0  0  0  0  0  0  0  0  0  0  0  0
    7.5563  -17.4231   21.8455 C   0  0  0  0  0  0  0  0  0  0  0  0
    8.5160  -18.1825   22.1299 O   0  0  0  0  0  0  0  0  0  0  0  0
    8.0058  -13.7155   16.0549 O   0  0  0  0  0  0  0  0  0  0  0  0
    8.2430  -13.7970   17.4295 C   0  0  0  0  0  0  0  0  0  0  0  0
    7.7823  -12.8389   18.3113 C   0  0  0  0  0  0  0  0  0  0  0  0
    7.9952  -12.8843   19.6682 C   0  0  0  0  0  0  0  0  0  0  0  0
    8.7075  -13.9388   20.2002 C   0  0  0  0  0  0  0  0  0  0  0  0
    8.9297  -13.9782   21.6516 C   0  0  0  0  0  0  0  0  0  0  0  0
    8.8202  -15.3359   22.2865 C   0  0  2  0  0  0  0  0  0  0  0  0
    7.6207  -16.0209   21.9037 N   0  0  0  0  0  0  0  0  0  0  0  0
    9.0362  -15.3023   23.7308 C   0  0  0  0  0  0  0  0  0  0  0  0
   10.1157  -14.8860   24.2047 O   0  0  0  0  0  0  0  0  0  0  0  0
    9.1774  -14.9070   19.3401 C   0  0  0  0  0  0  0  0  0  0  0  0
    8.9516  -14.8388   17.9907 C   0  0  0  0  0  0  0  0  0  0  0  0
    7.7865  -12.3413   26.8077 C   0  0  0  0  0  0  0  0  0  0  0  0
    6.8907  -13.4312   26.3052 C   0  0  2  0  0  0  0  0  0  0  0  0
    5.4723  -13.0856   26.7923 C   0  0  0  0  0  0  0  0  0  0  0  0
    7.1793  -14.7959   26.8115 C   0  0  0  0  0  0  0  0  0  0  0  0
    8.2128  -15.5861   26.0910 C   0  0  2  0  0  0  0  0  0  0  0  0
    8.0442  -15.7361   24.6875 N   0  0  0  0  0  0  0  0  0  0  0  0
    8.5348  -16.8739   26.7814 C   0  0  0  0  0  0  0  0  0  0  0  0
    8.7218  -16.8864   28.0178 O   0  0  0  0  0  0  0  0  0  0  0  0
    8.6362  -18.0731   26.0978 O   0  0  0  0  0  0  0  0  0  0  0  0
  2  1  1  1
  2  3  1  0
  3  4  1  0
  4  5  2  0
  5  6  1  0
  7  6  1  0
  8  4  1  0
  8  7  2  0
  9 18  1  0
  9  2  1  0
 10  9  2  0
 11 12  1  0
 12 13  2  0
 13 14  1  0
 15 16  1  0
 15 14  2  0
 17 16  1  1
 17 18  1  0
 19 17  1  0
 20 19  2  0
 21 15  1  0
 22 21  2  0
 22 12  1  0
 24 23  1  1
 24 26  1  0
 25 24  1  0
 27 26  1  1
 27 29  1  0
 27 28  1  0
 28 19  1  0
 29 31  1  0
 30 29  2  0
M  END
$$$$
