HYL.pdb
     RDKit          3D

 31 32  0  0  1  0  0  0  0  0999 V2000
    7.4661  -17.0550   19.1909 N   0  0  0  0  0  0  0  0  0  0  0  0
    7.8310  -16.0783   20.1855 C   0  0  1  0  0  0  0  0  0  0  0  0
    6.9475  -14.8511   19.9255 C   0  0  0  0  0  0  0  0  0  0  0  0
    7.5830  -14.0978   18.8139 C   0  0  0  0  0  0  0  0  0  0  0  0
    8.3886  -12.9598   18.9501 C   0  0  0  0  0  0  0  0  0  0  0  0
    8.7784  -12.5613   17.7305 N   0  0  0  0  0  0  0  0  0  0  0  0
    8.2544  -13.3980   16.8261 C   0  0  0  0  0  0  0  0  0  0  0  0
    7.5302  -14.3280   17.4899 N   0  0  0  0  0  0  0  0  0  0  0  0
    7.6047  -16.5721   21.5726 C   0  0  0  0  0  0  0  0  0  0  0  0
    6.4394  -16.9423   21.8615 O   0  0  0  0  0  0  0  0  0  0  0  0
    8.7056  -20.0597   29.5252 O   0  0  0  0  0  0  0  0  0  0  0  0
    8.8384  -19.6244   28.2041 C   0  0  0  0  0  0  0  0  0  0  0  0
    7.7879  -19.6683   27.3084 C   0  0  0  0  0  0  0  0  0  0  0  0
    7.8795  -19.2498   26.0026 C   0  0  0  0  0  0  0  0  0  0  0  0
    9.0807  -18.7542   25.5401 C   0  0  0  0  0  0  0  0  0  0  0  0
    9.1684  -18.3095   24.1429 C   0  0  0  0  0  0  0  0  0  0  0  0
    8.5140  -16.9908   23.8411 C   0  0  2  0  0  0  0  0  0  0  0  0
    8.6831  -16.5995   22.4727 N   0  0  0  0  0  0  0  0  0  0  0  0
    8.8813  -15.9474   24.7952 C   0  0  0  0  0  0  0  0  0  0  0  0
   10.0453  -15.4924   24.8259 O   0  0  0  0  0  0  0  0  0  0  0  0
   10.1433  -18.7007   26.4154 C   0  0  0  0  0  0  0  0  0  0  0  0
   10.0262  -19.1242   27.7129 C   0  0  0  0  0  0  0  0  0  0  0  0
    7.9079  -11.5878   25.2265 C   0  0  0  0  0  0  0  0  0  0  0  0
    6.8800  -12.4956   25.8283 C   0  0  2  0  0  0  0  0  0  0  0  0
    5.7632  -11.5864   26.3711 C   0  0  0  0  0  0  0  0  0  0  0  0
    7.3328  -13.3216   26.9749 C   0  0  0  0  0  0  0  0  0  0  0  0
    8.3250  -14.3931   26.6936 C   0  0  2  0  0  0  0  0  0  0  0  0
    7.9500  -15.3831   25.7448 N   0  0  0  0  0  0  0  0  0  0  0  0
    8.9121  -14.9733   27.9416 C   0  0  0  0  0  0  0  0  0  0  0  0
    8.5171  -16.0853   28.3556 O   0  0  0  0  0  0  0  0  0  0  0  0
    9.8910  -14.3201   28.6702 O   0  0  0  0  0  0  0  0  0  0  0  0
  2  1  1  6
  2  3  1  0
  3  4  1  0
  4  5  2  0
  5  6  1  0
  7  6  1  0
  8  4  1  0
  8  7  2  0
  9 18  1  0
  9  2  1  0
 10  9  2  0
 11 12  1  0
 12 13  2  0
 13 14  1  0
 15 16  1  0
 15 14  2  0
 17 16  1  1
 17 18  1  0
 19 17  1  0
 20 19  2  0
 21 15  1  0
 22 21  2  0
 22 12  1  0
 24 23  1  1
 24 26  1  0
 25 24  1  0
 27 26  1  1
 27 29  1  0
 27 28  1  0
 28 19  1  0
 29 31  1  0
 30 29  2  0
M  END
$$$$
