HYL.pdb
     RDKit          3D

 31 32  0  0  1  0  0  0  0  0999 V2000
   12.5058  -20.0118   21.6348 N   0  0  0  0  0  0  0  0  0  0  0  0
   12.2513  -18.6125   21.8664 C   0  0  1  0  0  0  0  0  0  0  0  0
   11.3399  -18.1476   20.7229 C   0  0  0  0  0  0  0  0  0  0  0  0
   12.2160  -17.9301   19.5430 C   0  0  0  0  0  0  0  0  0  0  0  0
   13.3848  -17.1579   19.5211 C   0  0  0  0  0  0  0  0  0  0  0  0
   13.9019  -17.1969   18.2845 N   0  0  0  0  0  0  0  0  0  0  0  0
   13.1111  -17.9611   17.5208 C   0  0  0  0  0  0  0  0  0  0  0  0
   12.0900  -18.4028   18.2903 N   0  0  0  0  0  0  0  0  0  0  0  0
   11.5778  -18.3689   23.1726 C   0  0  0  0  0  0  0  0  0  0  0  0
   10.6160  -19.1221   23.4658 O   0  0  0  0  0  0  0  0  0  0  0  0
    9.6559  -14.5982   30.9497 O   0  0  0  0  0  0  0  0  0  0  0  0
   10.2435  -14.9007   29.7186 C   0  0  0  0  0  0  0  0  0  0  0  0
   10.8179  -16.1305   29.4627 C   0  0  0  0  0  0  0  0  0  0  0  0
   11.4048  -16.4651   28.2660 C   0  0  0  0  0  0  0  0  0  0  0  0
   11.4323  -15.5337   27.2491 C   0  0  0  0  0  0  0  0  0  0  0  0
   12.0619  -15.9011   25.9738 C   0  0  0  0  0  0  0  0  0  0  0  0
   11.2848  -16.8654   25.1225 C   0  0  2  0  0  0  0  0  0  0  0  0
   12.0411  -17.3299   23.9970 N   0  0  0  0  0  0  0  0  0  0  0  0
    9.9600  -16.3632   24.7671 C   0  0  0  0  0  0  0  0  0  0  0  0
    9.0825  -16.2030   25.6431 O   0  0  0  0  0  0  0  0  0  0  0  0
   10.8654  -14.2996   27.4809 C   0  0  0  0  0  0  0  0  0  0  0  0
   10.2863  -13.9905   28.6833 C   0  0  0  0  0  0  0  0  0  0  0  0
    6.9745  -13.2536   20.1693 C   0  0  0  0  0  0  0  0  0  0  0  0
    7.0037  -13.9771   21.4802 C   0  0  2  0  0  0  0  0  0  0  0  0
    6.6459  -12.9375   22.5572 C   0  0  0  0  0  0  0  0  0  0  0  0
    8.3137  -14.5491   21.8786 C   0  0  0  0  0  0  0  0  0  0  0  0
    8.3431  -15.4028   23.0960 C   0  0  2  0  0  0  0  0  0  0  0  0
    9.5808  -16.0253   23.4145 N   0  0  0  0  0  0  0  0  0  0  0  0
    7.1816  -16.3434   23.1652 C   0  0  0  0  0  0  0  0  0  0  0  0
    6.0821  -15.9418   23.6056 O   0  0  0  0  0  0  0  0  0  0  0  0
    7.2736  -17.6621   22.7554 O   0  0  0  0  0  0  0  0  0  0  0  0
  2  1  1  6
  2  3  1  0
  3  4  1  0
  4  5  2  0
  5  6  1  0
  7  6  1  0
  8  4  1  0
  8  7  2  0
  9 18  1  0
  9  2  1  0
 10  9  2  0
 11 12  1  0
 12 13  2  0
 13 14  1  0
 15 16  1  0
 15 14  2  0
 17 16  1  6
 17 18  1  0
 19 17  1  0
 20 19  2  0
 21 15  1  0
 22 21  2  0
 22 12  1  0
 24 23  1  6
 24 26  1  0
 25 24  1  0
 27 26  1  6
 27 29  1  0
 27 28  1  0
 28 19  1  0
 29 31  1  0
 30 29  2  0
M  END
$$$$
