HYL.pdb
     RDKit          3D

 31 32  0  0  1  0  0  0  0  0999 V2000
    9.1222  -16.2049   19.8173 N   0  0  0  0  0  0  0  0  0  0  0  0
    8.1389  -15.3051   20.3648 C   0  0  1  0  0  0  0  0  0  0  0  0
    6.8996  -15.4278   19.4687 C   0  0  0  0  0  0  0  0  0  0  0  0
    7.3256  -15.0404   18.0991 C   0  0  0  0  0  0  0  0  0  0  0  0
    7.4241  -15.9002   16.9973 C   0  0  0  0  0  0  0  0  0  0  0  0
    7.8392  -15.1927   15.9366 N   0  0  0  0  0  0  0  0  0  0  0  0
    8.0083  -13.9205   16.3182 C   0  0  0  0  0  0  0  0  0  0  0  0
    7.6950  -13.8348   17.6314 N   0  0  0  0  0  0  0  0  0  0  0  0
    7.7768  -15.6492   21.7682 C   0  0  0  0  0  0  0  0  0  0  0  0
    6.8460  -14.9889   22.2936 O   0  0  0  0  0  0  0  0  0  0  0  0
    7.8038  -20.1707   29.4313 O   0  0  0  0  0  0  0  0  0  0  0  0
    7.9261  -19.7608   28.1011 C   0  0  0  0  0  0  0  0  0  0  0  0
    9.1555  -19.5339   27.5137 C   0  0  0  0  0  0  0  0  0  0  0  0
    9.3163  -19.1305   26.2099 C   0  0  0  0  0  0  0  0  0  0  0  0
    8.1985  -18.9353   25.4258 C   0  0  0  0  0  0  0  0  0  0  0  0
    8.3809  -18.5041   24.0335 C   0  0  0  0  0  0  0  0  0  0  0  0
    8.1962  -17.0341   23.7818 C   0  0  2  0  0  0  0  0  0  0  0  0
    8.4790  -16.6745   22.4234 N   0  0  0  0  0  0  0  0  0  0  0  0
    8.8909  -16.2024   24.7614 C   0  0  0  0  0  0  0  0  0  0  0  0
   10.1350  -16.0838   24.7295 O   0  0  0  0  0  0  0  0  0  0  0  0
    6.9610  -19.1554   25.9898 C   0  0  0  0  0  0  0  0  0  0  0  0
    6.8274  -19.5574   27.2926 C   0  0  0  0  0  0  0  0  0  0  0  0
    7.1004  -11.2624   26.7980 C   0  0  0  0  0  0  0  0  0  0  0  0
    7.6171  -12.5675   26.2759 C   0  0  2  0  0  0  0  0  0  0  0  0
    6.4067  -13.3034   25.6741 C   0  0  0  0  0  0  0  0  0  0  0  0
    8.1987  -13.4874   27.2847 C   0  0  0  0  0  0  0  0  0  0  0  0
    8.8943  -14.7011   26.7801 C   0  0  2  0  0  0  0  0  0  0  0  0
    8.2072  -15.4779   25.8078 N   0  0  0  0  0  0  0  0  0  0  0  0
    9.4775  -15.5280   27.8823 C   0  0  0  0  0  0  0  0  0  0  0  0
   10.2565  -15.0029   28.7077 O   0  0  0  0  0  0  0  0  0  0  0  0
    9.1864  -16.8730   28.0299 O   0  0  0  0  0  0  0  0  0  0  0  0
  2  1  1  6
  2  3  1  0
  3  4  1  0
  4  5  2  0
  5  6  1  0
  7  6  1  0
  8  4  1  0
  8  7  2  0
  9 18  1  0
  9  2  1  0
 10  9  2  0
 11 12  1  0
 12 13  2  0
 13 14  1  0
 15 16  1  0
 15 14  2  0
 17 16  1  6
 17 18  1  0
 19 17  1  0
 20 19  2  0
 21 15  1  0
 22 21  2  0
 22 12  1  0
 24 23  1  1
 24 26  1  0
 25 24  1  0
 27 26  1  1
 27 29  1  0
 27 28  1  0
 28 19  1  0
 29 31  1  0
 30 29  2  0
M  END
$$$$
