HYL.pdb
     RDKit          3D

 31 32  0  0  1  0  0  0  0  0999 V2000
    7.4412  -16.9088   18.8461 N   0  0  0  0  0  0  0  0  0  0  0  0
    8.3914  -16.1463   19.6155 C   0  0  1  0  0  0  0  0  0  0  0  0
    8.0182  -14.6713   19.4175 C   0  0  0  0  0  0  0  0  0  0  0  0
    8.2217  -14.3714   17.9767 C   0  0  0  0  0  0  0  0  0  0  0  0
    7.2957  -13.7475   17.1305 C   0  0  0  0  0  0  0  0  0  0  0  0
    7.8324  -13.6484   15.9057 N   0  0  0  0  0  0  0  0  0  0  0  0
    9.0596  -14.1828   15.9385 C   0  0  0  0  0  0  0  0  0  0  0  0
    9.2898  -14.6196   17.1980 N   0  0  0  0  0  0  0  0  0  0  0  0
    8.3447  -16.4831   21.0659 C   0  0  0  0  0  0  0  0  0  0  0  0
    7.2118  -16.7031   21.5625 O   0  0  0  0  0  0  0  0  0  0  0  0
   11.2109  -18.8533   29.1267 O   0  0  0  0  0  0  0  0  0  0  0  0
   11.0760  -18.5775   27.7636 C   0  0  0  0  0  0  0  0  0  0  0  0
   11.9683  -17.7688   27.0872 C   0  0  0  0  0  0  0  0  0  0  0  0
   11.8692  -17.4746   25.7486 C   0  0  0  0  0  0  0  0  0  0  0  0
   10.8260  -18.0074   25.0204 C   0  0  0  0  0  0  0  0  0  0  0  0
   10.7288  -17.6870   23.5902 C   0  0  0  0  0  0  0  0  0  0  0  0
    9.5636  -16.8226   23.1984 C   0  0  2  0  0  0  0  0  0  0  0  0
    9.5451  -16.5375   21.7938 N   0  0  0  0  0  0  0  0  0  0  0  0
    9.4370  -15.6327   24.0362 C   0  0  0  0  0  0  0  0  0  0  0  0
   10.3679  -14.8012   24.1077 O   0  0  0  0  0  0  0  0  0  0  0  0
    9.9229  -18.8173   25.6736 C   0  0  0  0  0  0  0  0  0  0  0  0
   10.0439  -19.0954   27.0094 C   0  0  0  0  0  0  0  0  0  0  0  0
    5.3111  -11.8672   26.8902 C   0  0  0  0  0  0  0  0  0  0  0  0
    6.6950  -12.4069   26.6990 C   0  0  2  0  0  0  0  0  0  0  0  0
    7.5199  -11.2710   26.0680 C   0  0  0  0  0  0  0  0  0  0  0  0
    6.8203  -13.5661   25.7811 C   0  0  0  0  0  0  0  0  0  0  0  0
    8.1598  -14.2013   25.6637 C   0  0  2  0  0  0  0  0  0  0  0  0
    8.2588  -15.3410   24.8199 N   0  0  0  0  0  0  0  0  0  0  0  0
    8.8192  -14.3994   26.9922 C   0  0  0  0  0  0  0  0  0  0  0  0
    9.6280  -13.5459   27.4180 O   0  0  0  0  0  0  0  0  0  0  0  0
    8.5676  -15.5064   27.7838 O   0  0  0  0  0  0  0  0  0  0  0  0
  2  1  1  6
  2  3  1  0
  3  4  1  0
  4  5  2  0
  5  6  1  0
  7  6  1  0
  8  4  1  0
  8  7  2  0
  9 18  1  0
  9  2  1  0
 10  9  2  0
 11 12  1  0
 12 13  2  0
 13 14  1  0
 15 16  1  0
 15 14  2  0
 17 16  1  1
 17 18  1  0
 19 17  1  0
 20 19  2  0
 21 15  1  0
 22 21  2  0
 22 12  1  0
 24 23  1  6
 24 26  1  0
 25 24  1  0
 27 26  1  1
 27 29  1  0
 27 28  1  0
 28 19  1  0
 29 31  1  0
 30 29  2  0
M  END
$$$$
