HYL.pdb
     RDKit          3D

 31 32  0  0  1  0  0  0  0  0999 V2000
    9.2759  -17.5194   19.3885 N   0  0  0  0  0  0  0  0  0  0  0  0
   10.1543  -17.1471   20.4684 C   0  0  1  0  0  0  0  0  0  0  0  0
   10.7275  -15.7724   20.0999 C   0  0  0  0  0  0  0  0  0  0  0  0
   11.7846  -16.0114   19.0837 C   0  0  0  0  0  0  0  0  0  0  0  0
   12.7433  -17.0321   19.1226 C   0  0  0  0  0  0  0  0  0  0  0  0
   13.5244  -16.9289   18.0376 N   0  0  0  0  0  0  0  0  0  0  0  0
   13.1022  -15.8860   17.3118 C   0  0  0  0  0  0  0  0  0  0  0  0
   12.0463  -15.3336   17.9519 N   0  0  0  0  0  0  0  0  0  0  0  0
    9.4403  -17.0574   21.7727 C   0  0  0  0  0  0  0  0  0  0  0  0
    8.5514  -16.1754   21.8751 O   0  0  0  0  0  0  0  0  0  0  0  0
    6.4063  -19.8683   29.6285 O   0  0  0  0  0  0  0  0  0  0  0  0
    7.0694  -19.7521   28.4041 C   0  0  0  0  0  0  0  0  0  0  0  0
    6.3873  -19.6525   27.2072 C   0  0  0  0  0  0  0  0  0  0  0  0
    7.0033  -19.5370   25.9843 C   0  0  0  0  0  0  0  0  0  0  0  0
    8.3813  -19.5173   25.9269 C   0  0  0  0  0  0  0  0  0  0  0  0
    9.0303  -19.3935   24.6150 C   0  0  0  0  0  0  0  0  0  0  0  0
    9.0425  -18.0106   24.0269 C   0  0  2  0  0  0  0  0  0  0  0  0
    9.7881  -17.9452   22.8045 N   0  0  0  0  0  0  0  0  0  0  0  0
    9.4244  -16.9881   24.9978 C   0  0  0  0  0  0  0  0  0  0  0  0
   10.6244  -16.6744   25.1548 O   0  0  0  0  0  0  0  0  0  0  0  0
    9.0836  -19.6153   27.1081 C   0  0  0  0  0  0  0  0  0  0  0  0
    8.4456  -19.7296   28.3149 C   0  0  0  0  0  0  0  0  0  0  0  0
    7.0511  -12.9422   25.4705 C   0  0  0  0  0  0  0  0  0  0  0  0
    6.6750  -14.0138   26.4469 C   0  0  2  0  0  0  0  0  0  0  0  0
    5.5830  -13.4134   27.3502 C   0  0  0  0  0  0  0  0  0  0  0  0
    7.7542  -14.4741   27.3554 C   0  0  0  0  0  0  0  0  0  0  0  0
    8.8478  -15.2863   26.7585 C   0  0  2  0  0  0  0  0  0  0  0  0
    8.4679  -16.2865   25.8226 N   0  0  0  0  0  0  0  0  0  0  0  0
    9.8177  -15.7839   27.7835 C   0  0  0  0  0  0  0  0  0  0  0  0
    9.9877  -17.0138   27.9327 O   0  0  0  0  0  0  0  0  0  0  0  0
   10.5476  -14.9259   28.5875 O   0  0  0  0  0  0  0  0  0  0  0  0
  2  1  1  6
  2  3  1  0
  3  4  1  0
  4  5  2  0
  5  6  1  0
  7  6  1  0
  8  4  1  0
  8  7  2  0
  9 18  1  0
  9  2  1  0
 10  9  2  0
 11 12  1  0
 12 13  2  0
 13 14  1  0
 15 16  1  0
 15 14  2  0
 17 16  1  1
 17 18  1  0
 19 17  1  0
 20 19  2  0
 21 15  1  0
 22 21  2  0
 22 12  1  0
 24 23  1  6
 24 26  1  0
 25 24  1  0
 27 26  1  1
 27 29  1  0
 27 28  1  0
 28 19  1  0
 29 31  1  0
 30 29  2  0
M  END
$$$$
