HYL.pdb
     RDKit          3D

 31 32  0  0  1  0  0  0  0  0999 V2000
    8.9671  -16.0702   19.9297 N   0  0  0  0  0  0  0  0  0  0  0  0
    8.0900  -15.0915   20.5206 C   0  0  1  0  0  0  0  0  0  0  0  0
    6.8815  -14.9769   19.5822 C   0  0  0  0  0  0  0  0  0  0  0  0
    7.4030  -14.5051   18.2736 C   0  0  0  0  0  0  0  0  0  0  0  0
    8.0255  -13.2729   18.0352 C   0  0  0  0  0  0  0  0  0  0  0  0
    8.3587  -13.2040   16.7382 N   0  0  0  0  0  0  0  0  0  0  0  0
    7.9741  -14.3401   16.1432 C   0  0  0  0  0  0  0  0  0  0  0  0
    7.3950  -15.1253   17.0802 N   0  0  0  0  0  0  0  0  0  0  0  0
    7.6308  -15.4914   21.8801 C   0  0  0  0  0  0  0  0  0  0  0  0
    6.6841  -14.8319   22.3776 O   0  0  0  0  0  0  0  0  0  0  0  0
    4.4738  -21.5069   20.8685 O   0  0  0  0  0  0  0  0  0  0  0  0
    5.3263  -20.7463   21.6730 C   0  0  0  0  0  0  0  0  0  0  0  0
    6.6260  -20.4627   21.3014 C   0  0  0  0  0  0  0  0  0  0  0  0
    7.4936  -19.7190   22.0647 C   0  0  0  0  0  0  0  0  0  0  0  0
    7.0613  -19.2177   23.2748 C   0  0  0  0  0  0  0  0  0  0  0  0
    7.9962  -18.4240   24.0832 C   0  0  0  0  0  0  0  0  0  0  0  0
    7.9343  -16.9375   23.8713 C   0  0  2  0  0  0  0  0  0  0  0  0
    8.2653  -16.5647   22.5275 N   0  0  0  0  0  0  0  0  0  0  0  0
    8.6791  -16.1920   24.8830 C   0  0  0  0  0  0  0  0  0  0  0  0
    9.8878  -15.9209   24.7142 O   0  0  0  0  0  0  0  0  0  0  0  0
    5.7684  -19.4875   23.6669 C   0  0  0  0  0  0  0  0  0  0  0  0
    4.9228  -20.2318   22.8875 C   0  0  0  0  0  0  0  0  0  0  0  0
    7.8935  -12.1563   25.4376 C   0  0  0  0  0  0  0  0  0  0  0  0
    7.2799  -13.0174   26.4982 C   0  0  2  0  0  0  0  0  0  0  0  0
    6.3755  -12.0957   27.3355 C   0  0  0  0  0  0  0  0  0  0  0  0
    8.2255  -13.6458   27.4538 C   0  0  0  0  0  0  0  0  0  0  0  0
    8.8060  -14.9610   27.0733 C   0  0  2  0  0  0  0  0  0  0  0  0
    8.0871  -15.7282   26.1166 N   0  0  0  0  0  0  0  0  0  0  0  0
    9.2362  -15.7633   28.2608 C   0  0  0  0  0  0  0  0  0  0  0  0
    9.9397  -15.2321   29.1479 O   0  0  0  0  0  0  0  0  0  0  0  0
    8.8826  -17.0916   28.4222 O   0  0  0  0  0  0  0  0  0  0  0  0
  2  1  1  6
  2  3  1  0
  3  4  1  0
  4  5  2  0
  5  6  1  0
  7  6  1  0
  8  4  1  0
  8  7  2  0
  9 18  1  0
  9  2  1  0
 10  9  2  0
 11 12  1  0
 12 13  2  0
 13 14  1  0
 15 16  1  0
 15 14  2  0
 17 16  1  6
 17 18  1  0
 19 17  1  0
 20 19  2  0
 21 15  1  0
 22 21  2  0
 22 12  1  0
 24 23  1  6
 24 26  1  0
 25 24  1  0
 27 26  1  1
 27 29  1  0
 27 28  1  0
 28 19  1  0
 29 31  1  0
 30 29  2  0
M  END
$$$$
