HYL.pdb
     RDKit          3D

 31 32  0  0  1  0  0  0  0  0999 V2000
    6.5313  -16.6792   19.2308 N   0  0  0  0  0  0  0  0  0  0  0  0
    7.5100  -16.0932   20.1110 C   0  0  1  0  0  0  0  0  0  0  0  0
    7.3927  -14.5739   19.9316 C   0  0  0  0  0  0  0  0  0  0  0  0
    8.0475  -14.2470   18.6387 C   0  0  0  0  0  0  0  0  0  0  0  0
    7.4429  -13.5967   17.5551 C   0  0  0  0  0  0  0  0  0  0  0  0
    8.3436  -13.4783   16.5687 N   0  0  0  0  0  0  0  0  0  0  0  0
    9.4940  -14.0258   16.9803 C   0  0  0  0  0  0  0  0  0  0  0  0
    9.3077  -14.4904   18.2371 N   0  0  0  0  0  0  0  0  0  0  0  0
    7.2713  -16.4477   21.5381 C   0  0  0  0  0  0  0  0  0  0  0  0
    6.0751  -16.5000   21.9187 O   0  0  0  0  0  0  0  0  0  0  0  0
    8.0917  -20.1556   29.4202 O   0  0  0  0  0  0  0  0  0  0  0  0
    8.2626  -19.7358   28.0985 C   0  0  0  0  0  0  0  0  0  0  0  0
    7.1930  -19.5424   27.2463 C   0  0  0  0  0  0  0  0  0  0  0  0
    7.3208  -19.1306   25.9415 C   0  0  0  0  0  0  0  0  0  0  0  0
    8.5808  -18.8912   25.4343 C   0  0  0  0  0  0  0  0  0  0  0  0
    8.7068  -18.4514   24.0385 C   0  0  0  0  0  0  0  0  0  0  0  0
    8.2082  -17.0634   23.7497 C   0  0  2  0  0  0  0  0  0  0  0  0
    8.3726  -16.7012   22.3727 N   0  0  0  0  0  0  0  0  0  0  0  0
    8.7362  -16.0693   24.6808 C   0  0  0  0  0  0  0  0  0  0  0  0
    9.9053  -15.6425   24.5625 O   0  0  0  0  0  0  0  0  0  0  0  0
    9.6636  -19.0773   26.2657 C   0  0  0  0  0  0  0  0  0  0  0  0
    9.5095  -19.4886   27.5632 C   0  0  0  0  0  0  0  0  0  0  0  0
    7.3192  -11.6960   26.0484 C   0  0  0  0  0  0  0  0  0  0  0  0
    6.6607  -12.8805   26.6858 C   0  0  2  0  0  0  0  0  0  0  0  0
    5.6253  -12.3197   27.6769 C   0  0  0  0  0  0  0  0  0  0  0  0
    7.5470  -13.7709   27.4756 C   0  0  0  0  0  0  0  0  0  0  0  0
    8.5110  -14.6162   26.7220 C   0  0  2  0  0  0  0  0  0  0  0  0
    7.9651  -15.5242   25.7742 N   0  0  0  0  0  0  0  0  0  0  0  0
    9.5377  -15.2460   27.6097 C   0  0  0  0  0  0  0  0  0  0  0  0
   10.6689  -14.7242   27.7190 O   0  0  0  0  0  0  0  0  0  0  0  0
    9.2843  -16.4017   28.3277 O   0  0  0  0  0  0  0  0  0  0  0  0
  2  1  1  6
  2  3  1  0
  3  4  1  0
  4  5  2  0
  5  6  1  0
  7  6  1  0
  8  4  1  0
  8  7  2  0
  9 18  1  0
  9  2  1  0
 10  9  2  0
 11 12  1  0
 12 13  2  0
 13 14  1  0
 15 16  1  0
 15 14  2  0
 17 16  1  6
 17 18  1  0
 19 17  1  0
 20 19  2  0
 21 15  1  0
 22 21  2  0
 22 12  1  0
 24 23  1  1
 24 26  1  0
 25 24  1  0
 27 26  1  1
 27 29  1  0
 27 28  1  0
 28 19  1  0
 29 31  1  0
 30 29  2  0
M  END
$$$$
