HYL.pdb
     RDKit          3D

 31 32  0  0  1  0  0  0  0  0999 V2000
    9.3136  -15.9692   19.8687 N   0  0  0  0  0  0  0  0  0  0  0  0
    8.1498  -15.2669   20.3471 C   0  0  1  0  0  0  0  0  0  0  0  0
    7.0504  -15.4976   19.3020 C   0  0  0  0  0  0  0  0  0  0  0  0
    7.5822  -14.9967   18.0083 C   0  0  0  0  0  0  0  0  0  0  0  0
    8.1647  -13.7410   17.7925 C   0  0  0  0  0  0  0  0  0  0  0  0
    8.5226  -13.6497   16.5035 N   0  0  0  0  0  0  0  0  0  0  0  0
    8.1920  -14.7940   15.8920 C   0  0  0  0  0  0  0  0  0  0  0  0
    7.6218  -15.6071   16.8105 N   0  0  0  0  0  0  0  0  0  0  0  0
    7.6920  -15.7685   21.6729 C   0  0  0  0  0  0  0  0  0  0  0  0
    6.6278  -15.2807   22.1290 O   0  0  0  0  0  0  0  0  0  0  0  0
    7.9747  -20.1858   29.3788 O   0  0  0  0  0  0  0  0  0  0  0  0
    8.1162  -19.7857   28.0475 C   0  0  0  0  0  0  0  0  0  0  0  0
    7.0292  -19.6247   27.2107 C   0  0  0  0  0  0  0  0  0  0  0  0
    7.1279  -19.2330   25.8972 C   0  0  0  0  0  0  0  0  0  0  0  0
    8.3750  -18.9814   25.3645 C   0  0  0  0  0  0  0  0  0  0  0  0
    8.4699  -18.5633   23.9596 C   0  0  0  0  0  0  0  0  0  0  0  0
    8.1958  -17.1092   23.6971 C   0  0  2  0  0  0  0  0  0  0  0  0
    8.4565  -16.7429   22.3361 N   0  0  0  0  0  0  0  0  0  0  0  0
    8.8379  -16.2295   24.6705 C   0  0  0  0  0  0  0  0  0  0  0  0
   10.0715  -16.0297   24.6332 O   0  0  0  0  0  0  0  0  0  0  0  0
    9.4745  -19.1352   26.1802 C   0  0  0  0  0  0  0  0  0  0  0  0
    9.3494  -19.5269   27.4869 C   0  0  0  0  0  0  0  0  0  0  0  0
    6.8726  -11.3161   26.5245 C   0  0  0  0  0  0  0  0  0  0  0  0
    7.5792  -12.5492   26.0523 C   0  0  2  0  0  0  0  0  0  0  0  0
    6.5752  -13.3137   25.1713 C   0  0  0  0  0  0  0  0  0  0  0  0
    8.0068  -13.4990   27.1092 C   0  0  0  0  0  0  0  0  0  0  0  0
    8.7488  -14.7127   26.6756 C   0  0  2  0  0  0  0  0  0  0  0  0
    8.1120  -15.5468   25.7166 N   0  0  0  0  0  0  0  0  0  0  0  0
    9.3197  -15.4782   27.8276 C   0  0  0  0  0  0  0  0  0  0  0  0
   10.0193  -14.8883   28.6800 O   0  0  0  0  0  0  0  0  0  0  0  0
    9.1027  -16.8350   27.9929 O   0  0  0  0  0  0  0  0  0  0  0  0
  2  1  1  6
  2  3  1  0
  3  4  1  0
  4  5  2  0
  5  6  1  0
  7  6  1  0
  8  4  1  0
  8  7  2  0
  9 18  1  0
  9  2  1  0
 10  9  2  0
 11 12  1  0
 12 13  2  0
 13 14  1  0
 15 16  1  0
 15 14  2  0
 17 16  1  6
 17 18  1  0
 19 17  1  0
 20 19  2  0
 21 15  1  0
 22 21  2  0
 22 12  1  0
 24 23  1  1
 24 26  1  0
 25 24  1  0
 27 26  1  1
 27 29  1  0
 27 28  1  0
 28 19  1  0
 29 31  1  0
 30 29  2  0
M  END
$$$$
