HYL.pdb
     RDKit          3D

 31 32  0  0  1  0  0  0  0  0999 V2000
    9.2420  -19.0300   19.7631 N   0  0  0  0  0  0  0  0  0  0  0  0
    8.5090  -18.3753   20.8169 C   0  0  1  0  0  0  0  0  0  0  0  0
    8.2924  -19.4316   21.9084 C   0  0  0  0  0  0  0  0  0  0  0  0
    7.4202  -20.4795   21.3183 C   0  0  0  0  0  0  0  0  0  0  0  0
    6.2707  -20.2525   20.5503 C   0  0  0  0  0  0  0  0  0  0  0  0
    5.7508  -21.4365   20.1954 N   0  0  0  0  0  0  0  0  0  0  0  0
    6.5214  -22.4053   20.7056 C   0  0  0  0  0  0  0  0  0  0  0  0
    7.5325  -21.8181   21.3858 N   0  0  0  0  0  0  0  0  0  0  0  0
    9.2505  -17.2148   21.3848 C   0  0  0  0  0  0  0  0  0  0  0  0
   10.5049  -17.2607   21.3327 O   0  0  0  0  0  0  0  0  0  0  0  0
    7.7945  -13.4956   16.3461 O   0  0  0  0  0  0  0  0  0  0  0  0
    7.9748  -13.5549   17.7305 C   0  0  0  0  0  0  0  0  0  0  0  0
    9.1603  -13.1806   18.3323 C   0  0  0  0  0  0  0  0  0  0  0  0
    9.3755  -13.2248   19.6888 C   0  0  0  0  0  0  0  0  0  0  0  0
    8.3621  -13.6652   20.5144 C   0  0  0  0  0  0  0  0  0  0  0  0
    8.6019  -13.7087   21.9629 C   0  0  0  0  0  0  0  0  0  0  0  0
    9.1807  -14.9936   22.4848 C   0  0  2  0  0  0  0  0  0  0  0  0
    8.5263  -16.1466   21.9400 N   0  0  0  0  0  0  0  0  0  0  0  0
    9.2828  -15.0156   23.9418 C   0  0  0  0  0  0  0  0  0  0  0  0
   10.2130  -14.4177   24.5251 O   0  0  0  0  0  0  0  0  0  0  0  0
    7.1700  -14.0439   19.9369 C   0  0  0  0  0  0  0  0  0  0  0  0
    6.9805  -13.9905   18.5813 C   0  0  0  0  0  0  0  0  0  0  0  0
    7.7387  -12.4143   26.9660 C   0  0  0  0  0  0  0  0  0  0  0  0
    6.9240  -13.5115   26.3534 C   0  0  2  0  0  0  0  0  0  0  0  0
    5.4595  -13.2267   26.7310 C   0  0  0  0  0  0  0  0  0  0  0  0
    7.2145  -14.8845   26.8356 C   0  0  0  0  0  0  0  0  0  0  0  0
    8.3550  -15.6015   26.2057 C   0  0  2  0  0  0  0  0  0  0  0  0
    8.3411  -15.7112   24.7884 N   0  0  0  0  0  0  0  0  0  0  0  0
    8.6664  -16.8959   26.8885 C   0  0  0  0  0  0  0  0  0  0  0  0
    8.7308  -17.9512   26.2205 O   0  0  0  0  0  0  0  0  0  0  0  0
    8.8900  -16.9766   28.2519 O   0  0  0  0  0  0  0  0  0  0  0  0
  2  1  1  6
  2  3  1  0
  3  4  1  0
  4  5  2  0
  5  6  1  0
  7  6  1  0
  8  4  1  0
  8  7  2  0
  9 18  1  0
  9  2  1  0
 10  9  2  0
 11 12  1  0
 12 13  2  0
 13 14  1  0
 15 16  1  0
 15 14  2  0
 17 16  1  1
 17 18  1  0
 19 17  1  0
 20 19  2  0
 21 15  1  0
 22 21  2  0
 22 12  1  0
 24 23  1  1
 24 26  1  0
 25 24  1  0
 27 26  1  1
 27 29  1  0
 27 28  1  0
 28 19  1  0
 29 31  1  0
 30 29  2  0
M  END
$$$$
