HYL.pdb
     RDKit          3D

 31 32  0  0  1  0  0  0  0  0999 V2000
    8.6598  -16.8711   18.9946 N   0  0  0  0  0  0  0  0  0  0  0  0
    8.4127  -15.7808   19.9037 C   0  0  1  0  0  0  0  0  0  0  0  0
    7.2077  -15.0169   19.3394 C   0  0  0  0  0  0  0  0  0  0  0  0
    7.6637  -14.3750   18.0796 C   0  0  0  0  0  0  0  0  0  0  0  0
    8.4321  -13.2073   17.9860 C   0  0  0  0  0  0  0  0  0  0  0  0
    8.6454  -12.9366   16.6901 N   0  0  0  0  0  0  0  0  0  0  0  0
    8.0451  -13.8828   15.9573 C   0  0  0  0  0  0  0  0  0  0  0  0
    7.4512  -14.7525   16.8063 N   0  0  0  0  0  0  0  0  0  0  0  0
    8.1039  -16.2530   21.2824 C   0  0  0  0  0  0  0  0  0  0  0  0
    6.9975  -16.8230   21.4539 O   0  0  0  0  0  0  0  0  0  0  0  0
   14.7567  -18.6281   21.9796 O   0  0  0  0  0  0  0  0  0  0  0  0
   13.4504  -18.4518   22.4431 C   0  0  0  0  0  0  0  0  0  0  0  0
   12.3494  -18.7443   21.6620 C   0  0  0  0  0  0  0  0  0  0  0  0
   11.0508  -18.5843   22.0820 C   0  0  0  0  0  0  0  0  0  0  0  0
   10.8114  -18.1055   23.3531 C   0  0  0  0  0  0  0  0  0  0  0  0
    9.4198  -17.9381   23.7926 C   0  0  0  0  0  0  0  0  0  0  0  0
    8.8505  -16.5571   23.6273 C   0  0  2  0  0  0  0  0  0  0  0  0
    9.0454  -16.0426   22.3037 N   0  0  0  0  0  0  0  0  0  0  0  0
    9.2823  -15.6394   24.6786 C   0  0  0  0  0  0  0  0  0  0  0  0
   10.3270  -14.9653   24.5471 O   0  0  0  0  0  0  0  0  0  0  0  0
   11.8940  -17.8067   24.1509 C   0  0  0  0  0  0  0  0  0  0  0  0
   13.1795  -17.9750   23.7086 C   0  0  0  0  0  0  0  0  0  0  0  0
    7.8921  -11.7640   25.7490 C   0  0  0  0  0  0  0  0  0  0  0  0
    7.1992  -12.8665   26.4888 C   0  0  2  0  0  0  0  0  0  0  0  0
    6.0631  -12.2046   27.2887 C   0  0  0  0  0  0  0  0  0  0  0  0
    8.0235  -13.6048   27.4775 C   0  0  0  0  0  0  0  0  0  0  0  0
    9.0033  -14.5903   26.9480 C   0  0  2  0  0  0  0  0  0  0  0  0
    8.5521  -15.4515   25.9110 N   0  0  0  0  0  0  0  0  0  0  0  0
    9.7307  -15.3169   28.0353 C   0  0  0  0  0  0  0  0  0  0  0  0
   10.2319  -14.6749   28.9842 O   0  0  0  0  0  0  0  0  0  0  0  0
    9.8748  -16.6933   28.0354 O   0  0  0  0  0  0  0  0  0  0  0  0
  2  1  1  6
  2  3  1  0
  3  4  1  0
  4  5  2  0
  5  6  1  0
  7  6  1  0
  8  4  1  0
  8  7  2  0
  9 18  1  0
  9  2  1  0
 10  9  2  0
 11 12  1  0
 12 13  2  0
 13 14  1  0
 15 16  1  0
 15 14  2  0
 17 16  1  6
 17 18  1  0
 19 17  1  0
 20 19  2  0
 21 15  1  0
 22 21  2  0
 22 12  1  0
 24 23  1  1
 24 26  1  0
 25 24  1  0
 27 26  1  1
 27 29  1  0
 27 28  1  0
 28 19  1  0
 29 31  1  0
 30 29  2  0
M  END
$$$$
