HYL.pdb
     RDKit          3D

 31 32  0  0  1  0  0  0  0  0999 V2000
   10.2812  -18.3975   19.4397 N   0  0  0  0  0  0  0  0  0  0  0  0
    9.2577  -18.2262   20.4394 C   0  0  1  0  0  0  0  0  0  0  0  0
    9.4172  -19.3947   21.4208 C   0  0  0  0  0  0  0  0  0  0  0  0
    8.8563  -20.5944   20.7477 C   0  0  0  0  0  0  0  0  0  0  0  0
    8.3816  -20.6487   19.4307 C   0  0  0  0  0  0  0  0  0  0  0  0
    7.9551  -21.8948   19.1791 N   0  0  0  0  0  0  0  0  0  0  0  0
    8.1389  -22.6337   20.2804 C   0  0  0  0  0  0  0  0  0  0  0  0
    8.6860  -21.8389   21.2285 N   0  0  0  0  0  0  0  0  0  0  0  0
    9.3931  -16.9363   21.1721 C   0  0  0  0  0  0  0  0  0  0  0  0
   10.5501  -16.4562   21.2694 O   0  0  0  0  0  0  0  0  0  0  0  0
    8.2697  -13.2979   16.1558 O   0  0  0  0  0  0  0  0  0  0  0  0
    8.0543  -13.4937   17.5224 C   0  0  0  0  0  0  0  0  0  0  0  0
    8.5862  -12.6490   18.4770 C   0  0  0  0  0  0  0  0  0  0  0  0
    8.3969  -12.8086   19.8287 C   0  0  0  0  0  0  0  0  0  0  0  0
    7.6352  -13.8667   20.2788 C   0  0  0  0  0  0  0  0  0  0  0  0
    7.4388  -14.0287   21.7254 C   0  0  0  0  0  0  0  0  0  0  0  0
    8.3020  -15.0679   22.3835 C   0  0  2  0  0  0  0  0  0  0  0  0
    8.2443  -16.3309   21.7082 N   0  0  0  0  0  0  0  0  0  0  0  0
    8.0699  -15.1653   23.8224 C   0  0  0  0  0  0  0  0  0  0  0  0
    6.9669  -15.5526   24.2656 O   0  0  0  0  0  0  0  0  0  0  0  0
    7.0941  -14.7231   19.3450 C   0  0  0  0  0  0  0  0  0  0  0  0
    7.2977  -14.5422   18.0025 C   0  0  0  0  0  0  0  0  0  0  0  0
    8.2348  -11.6275   26.9125 C   0  0  0  0  0  0  0  0  0  0  0  0
    7.3179  -12.5568   26.1786 C   0  0  2  0  0  0  0  0  0  0  0  0
    5.8866  -12.1677   26.5894 C   0  0  0  0  0  0  0  0  0  0  0  0
    7.4607  -13.9988   26.4983 C   0  0  0  0  0  0  0  0  0  0  0  0
    8.7644  -14.6413   26.1829 C   0  0  2  0  0  0  0  0  0  0  0  0
    9.0717  -14.8299   24.8079 N   0  0  0  0  0  0  0  0  0  0  0  0
    9.0175  -15.8619   27.0105 C   0  0  0  0  0  0  0  0  0  0  0  0
    8.1993  -16.8075   26.9897 O   0  0  0  0  0  0  0  0  0  0  0  0
   10.1382  -15.9912   27.8122 O   0  0  0  0  0  0  0  0  0  0  0  0
  2  1  1  6
  2  3  1  0
  3  4  1  0
  4  5  2  0
  5  6  1  0
  7  6  1  0
  8  4  1  0
  8  7  2  0
  9 18  1  0
  9  2  1  0
 10  9  2  0
 11 12  1  0
 12 13  2  0
 13 14  1  0
 15 16  1  0
 15 14  2  0
 17 16  1  6
 17 18  1  0
 19 17  1  0
 20 19  2  0
 21 15  1  0
 22 21  2  0
 22 12  1  0
 24 23  1  1
 24 26  1  0
 25 24  1  0
 27 26  1  6
 27 29  1  0
 27 28  1  0
 28 19  1  0
 29 31  1  0
 30 29  2  0
M  END
$$$$
