QIH.pdb
     RDKit          3D

 28 28  0  0  1  0  0  0  0  0999 V2000
   26.5175  -17.8525  -19.8629 N   0  0  0  0  0  0  0  0  0  0  0  0
   27.3184  -16.9275  -19.1507 C   0  0  0  0  0  0  0  0  0  0  0  0
   27.7299  -15.9056  -19.7254 O   0  0  0  0  0  0  0  0  0  0  0  0
   27.6489  -17.1885  -17.7447 C   0  0  0  0  0  0  0  0  0  0  0  0
   26.9741  -18.4219  -17.2579 C   0  0  0  0  0  0  0  0  0  0  0  0
   27.8441  -19.4238  -16.5844 C   0  0  2  0  0  0  0  0  0  0  0  0
   28.4654  -20.3497  -17.5159 N   0  0  0  0  0  0  0  0  0  0  0  0
   27.0091  -20.1471  -15.5921 C   0  0  0  0  0  0  0  0  0  0  0  0
   26.3955  -21.1680  -15.9866 O   0  0  0  0  0  0  0  0  0  0  0  0
   29.1380  -20.2884  -11.9351 C   0  0  0  0  0  0  0  0  0  0  0  0
   28.0697  -21.3672  -11.9779 C   0  0  0  0  0  0  0  0  0  0  0  0
   26.7395  -20.6818  -11.9611 C   0  0  2  0  0  0  0  0  0  0  0  0
   25.7993  -21.4821  -11.0892 C   0  0  0  0  0  0  0  0  0  0  0  0
   26.1054  -20.5661  -13.3211 C   0  0  2  0  0  0  0  0  0  0  0  0
   26.8575  -19.7660  -14.2348 N   0  0  0  0  0  0  0  0  0  0  0  0
   24.6816  -20.0831  -13.2123 C   0  0  0  0  0  0  0  0  0  0  0  0
   24.4339  -18.8921  -12.8932 O   0  0  0  0  0  0  0  0  0  0  0  0
   23.5949  -20.9542  -13.4653 N   0  0  0  0  0  0  0  0  0  0  0  0
   22.2169  -20.5418  -13.2869 C   0  0  1  0  0  0  0  0  0  0  0  0
   22.0261  -19.6940  -12.0769 C   0  0  0  0  0  0  0  0  0  0  0  0
   21.9417  -20.5181  -10.8568 C   0  0  0  0  0  0  0  0  0  0  0  0
   22.0023  -21.8621  -10.6694 C   0  0  0  0  0  0  0  0  0  0  0  0
   21.8581  -22.1794   -9.3693 N   0  0  0  0  0  0  0  0  0  0  0  0
   21.7031  -21.0185   -8.7204 C   0  0  0  0  0  0  0  0  0  0  0  0
   21.7514  -19.9946   -9.6121 N   0  0  0  0  0  0  0  0  0  0  0  0
   21.8203  -19.8282  -14.5203 C   0  0  0  0  0  0  0  0  0  0  0  0
   22.6767  -19.7469  -15.6387 O   0  0  0  0  0  0  0  0  0  0  0  0
   20.7139  -19.2458  -14.6780 O   0  0  0  0  0  0  0  0  0  0  0  0
  1  2  1  0
  2  3  2  0
  4  5  1  0
  4  2  1  0
  6  5  1  0
  6  7  1  6
  8  6  1  0
  9  8  2  0
 10 11  1  0
 11 12  1  0
 12 13  1  1
 12 14  1  0
 14 15  1  6
 15  8  1  0
 16 14  1  0
 16 18  1  0
 17 16  2  0
 18 19  1  0
 19 26  1  0
 19 20  1  1
 20 21  1  0
 21 25  1  0
 21 22  2  0
 22 23  1  0
 24 23  1  0
 25 24  2  0
 26 28  2  0
 26 27  1  0
M  END
$$$$
