QIH.pdb
     RDKit          3D

 28 28  0  0  1  0  0  0  0  0999 V2000
   28.4471  -16.9082  -16.4011 N   0  0  0  0  0  0  0  0  0  0  0  0
   28.3228  -17.5137  -17.6748 C   0  0  0  0  0  0  0  0  0  0  0  0
   28.8761  -16.9908  -18.6569 O   0  0  0  0  0  0  0  0  0  0  0  0
   27.5443  -18.7499  -17.8157 C   0  0  0  0  0  0  0  0  0  0  0  0
   26.9715  -19.1717  -16.5090 C   0  0  0  0  0  0  0  0  0  0  0  0
   27.5685  -20.3873  -15.8924 C   0  0  2  0  0  0  0  0  0  0  0  0
   27.8550  -21.4304  -16.8625 N   0  0  0  0  0  0  0  0  0  0  0  0
   26.6251  -20.8718  -14.8530 C   0  0  0  0  0  0  0  0  0  0  0  0
   25.8214  -21.7786  -15.1784 O   0  0  0  0  0  0  0  0  0  0  0  0
   25.4865  -21.0554   -8.8114 C   0  0  0  0  0  0  0  0  0  0  0  0
   24.9917  -21.3430  -10.2183 C   0  0  0  0  0  0  0  0  0  0  0  0
   26.0158  -20.8109  -11.1711 C   0  0  2  0  0  0  0  0  0  0  0  0
   26.3019  -19.3708  -10.8118 C   0  0  0  0  0  0  0  0  0  0  0  0
   25.5709  -20.8376  -12.6086 C   0  0  2  0  0  0  0  0  0  0  0  0
   26.5696  -20.3827  -13.5232 N   0  0  0  0  0  0  0  0  0  0  0  0
   24.2787  -20.0821  -12.7867 C   0  0  0  0  0  0  0  0  0  0  0  0
   24.2750  -18.8252  -12.8327 O   0  0  0  0  0  0  0  0  0  0  0  0
   23.0450  -20.7657  -12.9058 N   0  0  0  0  0  0  0  0  0  0  0  0
   21.9507  -20.2504  -13.7044 C   0  0  1  0  0  0  0  0  0  0  0  0
   22.3320  -20.0411  -15.1293 C   0  0  0  0  0  0  0  0  0  0  0  0
   21.2161  -19.4616  -15.9000 C   0  0  0  0  0  0  0  0  0  0  0  0
   19.9503  -19.1243  -15.5407 C   0  0  0  0  0  0  0  0  0  0  0  0
   19.2595  -18.6393  -16.5892 N   0  0  0  0  0  0  0  0  0  0  0  0
   20.0998  -18.6693  -17.6312 C   0  0  0  0  0  0  0  0  0  0  0  0
   21.2978  -19.1681  -17.2291 N   0  0  0  0  0  0  0  0  0  0  0  0
   20.8353  -21.2131  -13.5746 C   0  0  0  0  0  0  0  0  0  0  0  0
   19.5090  -20.7868  -13.3514 O   0  0  0  0  0  0  0  0  0  0  0  0
   20.9661  -22.4643  -13.6496 O   0  0  0  0  0  0  0  0  0  0  0  0
  1  2  1  0
  2  3  2  0
  4  5  1  0
  4  2  1  0
  6  5  1  0
  6  7  1  6
  8  6  1  0
  9  8  2  0
 10 11  1  0
 11 12  1  0
 12 13  1  1
 12 14  1  0
 14 15  1  6
 15  8  1  0
 16 14  1  0
 16 18  1  0
 17 16  2  0
 18 19  1  0
 19 26  1  0
 19 20  1  6
 20 21  1  0
 21 25  1  0
 21 22  2  0
 22 23  1  0
 24 23  1  0
 25 24  2  0
 26 28  2  0
 26 27  1  0
M  END
$$$$
