QIH.pdb
     RDKit          3D

 28 28  0  0  1  0  0  0  0  0999 V2000
   21.0574  -15.8771  -20.1677 N   0  0  0  0  0  0  0  0  0  0  0  0
   22.2616  -15.9756  -20.9056 C   0  0  0  0  0  0  0  0  0  0  0  0
   22.5877  -17.0675  -21.4009 O   0  0  0  0  0  0  0  0  0  0  0  0
   23.1055  -14.7867  -21.0758 C   0  0  0  0  0  0  0  0  0  0  0  0
   22.4986  -13.6020  -20.4113 C   0  0  0  0  0  0  0  0  0  0  0  0
   23.2370  -12.3182  -20.5563 C   0  0  2  0  0  0  0  0  0  0  0  0
   24.6017  -12.5006  -21.0204 N   0  0  0  0  0  0  0  0  0  0  0  0
   23.2099  -11.6345  -19.2384 C   0  0  0  0  0  0  0  0  0  0  0  0
   22.1081  -11.5721  -18.6414 O   0  0  0  0  0  0  0  0  0  0  0  0
   27.6053  -11.3962  -15.8904 C   0  0  0  0  0  0  0  0  0  0  0  0
   26.2167  -11.6601  -16.4462 C   0  0  0  0  0  0  0  0  0  0  0  0
   25.5313  -10.3372  -16.5871 C   0  0  2  0  0  0  0  0  0  0  0  0
   25.2297   -9.8044  -15.2051 C   0  0  0  0  0  0  0  0  0  0  0  0
   24.2283  -10.4118  -17.3364 C   0  0  2  0  0  0  0  0  0  0  0  0
   24.3383  -11.0495  -18.6099 N   0  0  0  0  0  0  0  0  0  0  0  0
   23.5981   -9.0478  -17.4583 C   0  0  0  0  0  0  0  0  0  0  0  0
   24.1161   -8.1685  -18.1933 O   0  0  0  0  0  0  0  0  0  0  0  0
   22.4144   -8.7259  -16.7521 N   0  0  0  0  0  0  0  0  0  0  0  0
   21.7348   -7.4569  -16.9219 C   0  0  1  0  0  0  0  0  0  0  0  0
   20.4031   -7.6044  -17.5731 C   0  0  0  0  0  0  0  0  0  0  0  0
   19.7246   -6.3011  -17.6997 C   0  0  0  0  0  0  0  0  0  0  0  0
   20.1329   -5.0388  -17.4077 C   0  0  0  0  0  0  0  0  0  0  0  0
   19.1642   -4.1413  -17.6683 N   0  0  0  0  0  0  0  0  0  0  0  0
   18.1239   -4.8446  -18.1329 C   0  0  0  0  0  0  0  0  0  0  0  0
   18.4480   -6.1637  -18.1587 N   0  0  0  0  0  0  0  0  0  0  0  0
   21.6202   -6.8493  -15.5783 C   0  0  0  0  0  0  0  0  0  0  0  0
   21.3803   -5.4697  -15.4056 O   0  0  0  0  0  0  0  0  0  0  0  0
   21.7235   -7.4910  -14.4986 O   0  0  0  0  0  0  0  0  0  0  0  0
  1  2  1  0
  2  3  2  0
  4  5  1  0
  4  2  1  0
  6  5  1  0
  6  7  1  1
  8  6  1  0
  9  8  2  0
 10 11  1  0
 11 12  1  0
 12 13  1  1
 12 14  1  0
 14 15  1  6
 15  8  1  0
 16 14  1  0
 16 18  1  0
 17 16  2  0
 18 19  1  0
 19 26  1  0
 19 20  1  1
 20 21  1  0
 21 25  1  0
 21 22  2  0
 22 23  1  0
 24 23  1  0
 25 24  2  0
 26 28  2  0
 26 27  1  0
M  END
$$$$
