QIH.pdb
     RDKit          3D

 28 28  0  0  1  0  0  0  0  0999 V2000
   28.7019  -17.5589  -16.2247 N   0  0  0  0  0  0  0  0  0  0  0  0
   28.4936  -17.9517  -17.5688 C   0  0  0  0  0  0  0  0  0  0  0  0
   29.3262  -17.6339  -18.4347 O   0  0  0  0  0  0  0  0  0  0  0  0
   27.2989  -18.7292  -17.9188 C   0  0  0  0  0  0  0  0  0  0  0  0
   26.5636  -19.1563  -16.6979 C   0  0  0  0  0  0  0  0  0  0  0  0
   27.2538  -20.1479  -15.8292 C   0  0  2  0  0  0  0  0  0  0  0  0
   27.8254  -21.2540  -16.5781 N   0  0  0  0  0  0  0  0  0  0  0  0
   26.2664  -20.6340  -14.8323 C   0  0  0  0  0  0  0  0  0  0  0  0
   25.4015  -21.4532  -15.2264 O   0  0  0  0  0  0  0  0  0  0  0  0
   27.9268  -20.5333  -10.5616 C   0  0  0  0  0  0  0  0  0  0  0  0
   26.7238  -21.4438  -10.7366 C   0  0  0  0  0  0  0  0  0  0  0  0
   25.5653  -20.5843  -11.1351 C   0  0  2  0  0  0  0  0  0  0  0  0
   24.3557  -21.0095  -10.3346 C   0  0  0  0  0  0  0  0  0  0  0  0
   25.2052  -20.6981  -12.5919 C   0  0  2  0  0  0  0  0  0  0  0  0
   26.2330  -20.2384  -13.4711 N   0  0  0  0  0  0  0  0  0  0  0  0
   23.8925  -20.0141  -12.8774 C   0  0  0  0  0  0  0  0  0  0  0  0
   23.7878  -18.7650  -12.7748 O   0  0  0  0  0  0  0  0  0  0  0  0
   22.7523  -20.7575  -13.2657 N   0  0  0  0  0  0  0  0  0  0  0  0
   21.4950  -20.1217  -13.6061 C   0  0  1  0  0  0  0  0  0  0  0  0
   21.0482  -20.4435  -14.9903 C   0  0  0  0  0  0  0  0  0  0  0  0
   19.8102  -19.7189  -15.3327 C   0  0  0  0  0  0  0  0  0  0  0  0
   19.0592  -18.8325  -14.6288 C   0  0  0  0  0  0  0  0  0  0  0  0
   17.9864  -18.4331  -15.3368 N   0  0  0  0  0  0  0  0  0  0  0  0
   18.0567  -19.0763  -16.5090 C   0  0  0  0  0  0  0  0  0  0  0  0
   19.1628  -19.8650  -16.5239 N   0  0  0  0  0  0  0  0  0  0  0  0
   20.5060  -20.5614  -12.5981 C   0  0  0  0  0  0  0  0  0  0  0  0
   20.4505  -21.8967  -12.1459 O   0  0  0  0  0  0  0  0  0  0  0  0
   19.6490  -19.8044  -12.0683 O   0  0  0  0  0  0  0  0  0  0  0  0
  1  2  1  0
  2  3  2  0
  4  5  1  0
  4  2  1  0
  6  5  1  0
  6  7  1  6
  8  6  1  0
  9  8  2  0
 10 11  1  0
 11 12  1  0
 12 13  1  1
 12 14  1  0
 14 15  1  6
 15  8  1  0
 16 14  1  0
 16 18  1  0
 17 16  2  0
 18 19  1  0
 19 26  1  0
 19 20  1  6
 20 21  1  0
 21 25  1  0
 21 22  2  0
 22 23  1  0
 24 23  1  0
 25 24  2  0
 26 28  2  0
 26 27  1  0
M  END
$$$$
