QIH.pdb
     RDKit          3D

 28 28  0  0  1  0  0  0  0  0999 V2000
   25.2610  -12.6156  -20.7560 N   0  0  0  0  0  0  0  0  0  0  0  0
   24.7322  -13.7334  -21.4454 C   0  0  0  0  0  0  0  0  0  0  0  0
   25.3764  -14.2347  -22.3823 O   0  0  0  0  0  0  0  0  0  0  0  0
   23.4326  -14.2838  -21.0424 C   0  0  0  0  0  0  0  0  0  0  0  0
   22.8309  -13.4816  -19.9434 C   0  0  0  0  0  0  0  0  0  0  0  0
   23.2727  -13.8227  -18.5640 C   0  0  2  0  0  0  0  0  0  0  0  0
   22.9602  -15.1923  -18.1931 N   0  0  0  0  0  0  0  0  0  0  0  0
   22.6275  -12.8596  -17.6359 C   0  0  0  0  0  0  0  0  0  0  0  0
   21.4660  -13.1247  -17.2423 O   0  0  0  0  0  0  0  0  0  0  0  0
   23.1151   -9.9960  -12.5774 C   0  0  0  0  0  0  0  0  0  0  0  0
   22.4342   -9.8685  -13.9291 C   0  0  0  0  0  0  0  0  0  0  0  0
   23.1398  -10.7887  -14.8751 C   0  0  2  0  0  0  0  0  0  0  0  0
   24.5765  -10.3364  -15.0012 C   0  0  0  0  0  0  0  0  0  0  0  0
   22.5469  -10.7991  -16.2583 C   0  0  2  0  0  0  0  0  0  0  0  0
   23.2304  -11.6656  -17.1653 N   0  0  0  0  0  0  0  0  0  0  0  0
   22.4416   -9.4001  -16.8099 C   0  0  0  0  0  0  0  0  0  0  0  0
   22.9792   -9.1045  -17.9078 O   0  0  0  0  0  0  0  0  0  0  0  0
   21.7387   -8.3911  -16.1090 N   0  0  0  0  0  0  0  0  0  0  0  0
   21.2563   -7.1904  -16.7619 C   0  0  1  0  0  0  0  0  0  0  0  0
   20.4314   -7.4869  -17.9664 C   0  0  0  0  0  0  0  0  0  0  0  0
   20.0156   -6.2459  -18.6462 C   0  0  0  0  0  0  0  0  0  0  0  0
   20.2937   -4.9408  -18.3920 C   0  0  0  0  0  0  0  0  0  0  0  0
   19.6755   -4.1310  -19.2716 N   0  0  0  0  0  0  0  0  0  0  0  0
   18.9934   -4.9344  -20.0975 C   0  0  0  0  0  0  0  0  0  0  0  0
   19.1893   -6.2278  -19.7308 N   0  0  0  0  0  0  0  0  0  0  0  0
   20.4901   -6.4310  -15.7501 C   0  0  0  0  0  0  0  0  0  0  0  0
   20.5803   -5.0264  -15.6510 O   0  0  0  0  0  0  0  0  0  0  0  0
   19.7106   -6.9554  -14.9102 O   0  0  0  0  0  0  0  0  0  0  0  0
  1  2  1  0
  2  3  2  0
  4  5  1  0
  4  2  1  0
  6  5  1  0
  6  7  1  1
  8  6  1  0
  9  8  2  0
 10 11  1  0
 11 12  1  0
 12 13  1  6
 12 14  1  0
 14 15  1  6
 15  8  1  0
 16 14  1  0
 16 18  1  0
 17 16  2  0
 18 19  1  0
 19 26  1  0
 19 20  1  6
 20 21  1  0
 21 25  1  0
 21 22  2  0
 22 23  1  0
 24 23  1  0
 25 24  2  0
 26 28  2  0
 26 27  1  0
M  END
$$$$
