QIH.pdb
     RDKit          3D

 28 28  0  0  1  0  0  0  0  0999 V2000
   20.8565  -20.5020  -16.5266 N   0  0  0  0  0  0  0  0  0  0  0  0
   19.8028  -19.6368  -16.9082 C   0  0  0  0  0  0  0  0  0  0  0  0
   18.9878  -20.0086  -17.7693 O   0  0  0  0  0  0  0  0  0  0  0  0
   19.6881  -18.3151  -16.2801 C   0  0  0  0  0  0  0  0  0  0  0  0
   20.6751  -18.1607  -15.1776 C   0  0  0  0  0  0  0  0  0  0  0  0
   22.0939  -18.4482  -15.5218 C   0  0  2  0  0  0  0  0  0  0  0  0
   22.6126  -19.6242  -14.8444 N   0  0  0  0  0  0  0  0  0  0  0  0
   22.8908  -17.2426  -15.1804 C   0  0  0  0  0  0  0  0  0  0  0  0
   23.1575  -17.0489  -13.9697 O   0  0  0  0  0  0  0  0  0  0  0  0
   26.9120  -16.2106  -14.6453 C   0  0  0  0  0  0  0  0  0  0  0  0
   26.3637  -16.3851  -16.0509 C   0  0  0  0  0  0  0  0  0  0  0  0
   25.5388  -15.1762  -16.3635 C   0  0  2  0  0  0  0  0  0  0  0  0
   26.2673  -13.9541  -15.8530 C   0  0  0  0  0  0  0  0  0  0  0  0
   24.1789  -15.1930  -15.7190 C   0  0  2  0  0  0  0  0  0  0  0  0
   23.3696  -16.2984  -16.1238 N   0  0  0  0  0  0  0  0  0  0  0  0
   23.4650  -13.8827  -15.9331 C   0  0  0  0  0  0  0  0  0  0  0  0
   22.9911  -13.5906  -17.0609 O   0  0  0  0  0  0  0  0  0  0  0  0
   23.3117  -12.9546  -14.8754 N   0  0  0  0  0  0  0  0  0  0  0  0
   22.5780  -11.7150  -15.0361 C   0  0  1  0  0  0  0  0  0  0  0  0
   22.5722  -10.8894  -13.7961 C   0  0  0  0  0  0  0  0  0  0  0  0
   21.8560   -9.6175  -14.0061 C   0  0  0  0  0  0  0  0  0  0  0  0
   21.1728   -9.1321  -15.0751 C   0  0  0  0  0  0  0  0  0  0  0  0
   20.6907   -7.9003  -14.8265 N   0  0  0  0  0  0  0  0  0  0  0  0
   21.0741   -7.5980  -13.5797 C   0  0  0  0  0  0  0  0  0  0  0  0
   21.7859   -8.6340  -13.0641 N   0  0  0  0  0  0  0  0  0  0  0  0
   23.1989  -10.9935  -16.1682 C   0  0  0  0  0  0  0  0  0  0  0  0
   22.4234  -10.4215  -17.1987 O   0  0  0  0  0  0  0  0  0  0  0  0
   24.4405  -10.8299  -16.3095 O   0  0  0  0  0  0  0  0  0  0  0  0
  1  2  1  0
  2  3  2  0
  4  5  1  0
  4  2  1  0
  6  5  1  0
  6  7  1  1
  8  6  1  0
  9  8  2  0
 10 11  1  0
 11 12  1  0
 12 13  1  1
 12 14  1  0
 14 15  1  6
 15  8  1  0
 16 14  1  0
 16 18  1  0
 17 16  2  0
 18 19  1  0
 19 26  1  0
 19 20  1  1
 20 21  1  0
 21 25  1  0
 21 22  2  0
 22 23  1  0
 24 23  1  0
 25 24  2  0
 26 28  2  0
 26 27  1  0
M  END
$$$$
