QIH.pdb
     RDKit          3D

 28 28  0  0  1  0  0  0  0  0999 V2000
   23.7237  -21.2384   -9.0184 N   0  0  0  0  0  0  0  0  0  0  0  0
   24.8459  -20.8918   -8.2279 C   0  0  0  0  0  0  0  0  0  0  0  0
   24.8133  -21.0869   -7.0011 O   0  0  0  0  0  0  0  0  0  0  0  0
   26.0307  -20.3092   -8.8690 C   0  0  0  0  0  0  0  0  0  0  0  0
   25.8013  -20.0990  -10.3239 C   0  0  0  0  0  0  0  0  0  0  0  0
   26.1315  -21.2458  -11.2128 C   0  0  2  0  0  0  0  0  0  0  0  0
   27.5498  -21.5610  -11.2253 N   0  0  0  0  0  0  0  0  0  0  0  0
   25.6490  -20.9092  -12.5762 C   0  0  0  0  0  0  0  0  0  0  0  0
   26.2027  -19.9497  -13.1655 O   0  0  0  0  0  0  0  0  0  0  0  0
   25.2742  -24.2451  -14.9085 C   0  0  0  0  0  0  0  0  0  0  0  0
   25.2750  -23.0125  -15.7959 C   0  0  0  0  0  0  0  0  0  0  0  0
   24.0013  -22.2714  -15.5349 C   0  0  2  0  0  0  0  0  0  0  0  0
   23.5298  -21.6572  -16.8331 C   0  0  0  0  0  0  0  0  0  0  0  0
   24.1486  -21.1561  -14.5352 C   0  0  2  0  0  0  0  0  0  0  0  0
   24.6101  -21.5939  -13.2561 N   0  0  0  0  0  0  0  0  0  0  0  0
   22.8699  -20.3666  -14.4165 C   0  0  0  0  0  0  0  0  0  0  0  0
   22.2979  -20.2412  -13.3035 O   0  0  0  0  0  0  0  0  0  0  0  0
   22.2856  -19.7507  -15.5491 N   0  0  0  0  0  0  0  0  0  0  0  0
   21.2165  -18.7787  -15.4341 C   0  0  1  0  0  0  0  0  0  0  0  0
   21.6372  -17.5501  -14.7041 C   0  0  0  0  0  0  0  0  0  0  0  0
   20.5056  -16.6211  -14.5280 C   0  0  0  0  0  0  0  0  0  0  0  0
   19.4521  -16.6341  -13.6705 C   0  0  0  0  0  0  0  0  0  0  0  0
   18.6405  -15.5810  -13.8803 N   0  0  0  0  0  0  0  0  0  0  0  0
   19.1868  -14.8881  -14.8874 C   0  0  0  0  0  0  0  0  0  0  0  0
   20.3250  -15.5081  -15.2948 N   0  0  0  0  0  0  0  0  0  0  0  0
   20.7693  -18.4691  -16.8095 C   0  0  0  0  0  0  0  0  0  0  0  0
   19.4270  -18.1440  -17.0980 O   0  0  0  0  0  0  0  0  0  0  0  0
   21.5254  -18.4679  -17.8177 O   0  0  0  0  0  0  0  0  0  0  0  0
  1  2  1  0
  2  3  2  0
  4  5  1  0
  4  2  1  0
  6  5  1  0
  6  7  1  6
  8  6  1  0
  9  8  2  0
 10 11  1  0
 11 12  1  0
 12 13  1  6
 12 14  1  0
 14 15  1  1
 15  8  1  0
 16 14  1  0
 16 18  1  0
 17 16  2  0
 18 19  1  0
 19 26  1  0
 19 20  1  6
 20 21  1  0
 21 25  1  0
 21 22  2  0
 22 23  1  0
 24 23  1  0
 25 24  2  0
 26 28  2  0
 26 27  1  0
M  END
$$$$
