QIH.pdb
     RDKit          3D

 28 28  0  0  1  0  0  0  0  0999 V2000
   20.6719  -15.3420  -16.4779 N   0  0  0  0  0  0  0  0  0  0  0  0
   19.4362  -15.4755  -17.1558 C   0  0  0  0  0  0  0  0  0  0  0  0
   18.8044  -16.5421  -17.0711 O   0  0  0  0  0  0  0  0  0  0  0  0
   18.9195  -14.3521  -17.9466 C   0  0  0  0  0  0  0  0  0  0  0  0
   19.8719  -13.2091  -17.9359 C   0  0  0  0  0  0  0  0  0  0  0  0
   19.2899  -11.8726  -17.6372 C   0  0  2  0  0  0  0  0  0  0  0  0
   18.0803  -11.6008  -18.3950 N   0  0  0  0  0  0  0  0  0  0  0  0
   20.3346  -10.8558  -17.9197 C   0  0  0  0  0  0  0  0  0  0  0  0
   21.4519  -11.0057  -17.3689 O   0  0  0  0  0  0  0  0  0  0  0  0
   21.2452   -8.5325  -22.8122 C   0  0  0  0  0  0  0  0  0  0  0  0
   21.4627   -9.2319  -21.4817 C   0  0  0  0  0  0  0  0  0  0  0  0
   21.2034   -8.2298  -20.4009 C   0  0  2  0  0  0  0  0  0  0  0  0
   22.2795   -7.1701  -20.4620 C   0  0  0  0  0  0  0  0  0  0  0  0
   21.2281   -8.8188  -19.0162 C   0  0  2  0  0  0  0  0  0  0  0  0
   20.1581   -9.7314  -18.7654 N   0  0  0  0  0  0  0  0  0  0  0  0
   21.2809   -7.7345  -17.9703 C   0  0  0  0  0  0  0  0  0  0  0  0
   22.3032   -7.0116  -17.8511 O   0  0  0  0  0  0  0  0  0  0  0  0
   20.1869   -7.5052  -17.1019 N   0  0  0  0  0  0  0  0  0  0  0  0
   20.2389   -6.5233  -16.0370 C   0  0  1  0  0  0  0  0  0  0  0  0
   21.4272   -6.6984  -15.1558 C   0  0  0  0  0  0  0  0  0  0  0  0
   21.3872   -7.9975  -14.4590 C   0  0  0  0  0  0  0  0  0  0  0  0
   20.4920   -9.0183  -14.5032 C   0  0  0  0  0  0  0  0  0  0  0  0
   20.8504  -10.0164  -13.6744 N   0  0  0  0  0  0  0  0  0  0  0  0
   21.9913   -9.6234  -13.0941 C   0  0  0  0  0  0  0  0  0  0  0  0
   22.3334   -8.3943  -13.5608 N   0  0  0  0  0  0  0  0  0  0  0  0
   20.2295   -5.1919  -16.6811 C   0  0  0  0  0  0  0  0  0  0  0  0
   20.2477   -4.0012  -15.9245 O   0  0  0  0  0  0  0  0  0  0  0  0
   20.2052   -5.0073  -17.9275 O   0  0  0  0  0  0  0  0  0  0  0  0
  1  2  1  0
  2  3  2  0
  4  5  1  0
  4  2  1  0
  6  5  1  0
  6  7  1  6
  8  6  1  0
  9  8  2  0
 10 11  1  0
 11 12  1  0
 12 13  1  1
 12 14  1  0
 14 15  1  1
 15  8  1  0
 16 14  1  0
 16 18  1  0
 17 16  2  0
 18 19  1  0
 19 26  1  0
 19 20  1  6
 20 21  1  0
 21 25  1  0
 21 22  2  0
 22 23  1  0
 24 23  1  0
 25 24  2  0
 26 28  2  0
 26 27  1  0
M  END
$$$$
