QIH.pdb
     RDKit          3D

 28 28  0  0  1  0  0  0  0  0999 V2000
   21.8275  -17.1975  -15.9477 N   0  0  0  0  0  0  0  0  0  0  0  0
   22.1584  -16.2853  -16.9786 C   0  0  0  0  0  0  0  0  0  0  0  0
   21.8555  -15.0865  -16.8548 O   0  0  0  0  0  0  0  0  0  0  0  0
   22.8554  -16.7686  -18.1765 C   0  0  0  0  0  0  0  0  0  0  0  0
   23.3122  -18.1732  -17.9979 C   0  0  0  0  0  0  0  0  0  0  0  0
   24.7038  -18.3528  -17.5026 C   0  0  2  0  0  0  0  0  0  0  0  0
   25.6523  -18.6260  -18.5689 N   0  0  0  0  0  0  0  0  0  0  0  0
   24.6869  -19.4568  -16.5096 C   0  0  0  0  0  0  0  0  0  0  0  0
   24.6468  -20.6309  -16.9502 O   0  0  0  0  0  0  0  0  0  0  0  0
   27.9918  -20.7001  -12.5548 C   0  0  0  0  0  0  0  0  0  0  0  0
   27.0259  -20.6368  -13.7252 C   0  0  0  0  0  0  0  0  0  0  0  0
   25.6517  -20.4498  -13.1628 C   0  0  2  0  0  0  0  0  0  0  0  0
   25.3383  -21.6236  -12.2636 C   0  0  0  0  0  0  0  0  0  0  0  0
   24.5757  -20.3858  -14.2130 C   0  0  2  0  0  0  0  0  0  0  0  0
   24.7127  -19.2771  -15.1033 N   0  0  0  0  0  0  0  0  0  0  0  0
   23.2062  -20.4183  -13.5838 C   0  0  0  0  0  0  0  0  0  0  0  0
   22.7751  -19.4270  -12.9410 O   0  0  0  0  0  0  0  0  0  0  0  0
   22.3769  -21.5595  -13.7009 N   0  0  0  0  0  0  0  0  0  0  0  0
   21.0211  -21.5845  -13.1892 C   0  0  1  0  0  0  0  0  0  0  0  0
   20.1640  -20.5242  -13.7893 C   0  0  0  0  0  0  0  0  0  0  0  0
   20.0944  -19.3376  -12.9163 C   0  0  0  0  0  0  0  0  0  0  0  0
   20.5644  -19.1110  -11.6621 C   0  0  0  0  0  0  0  0  0  0  0  0
   20.2502  -17.8718  -11.2410 N   0  0  0  0  0  0  0  0  0  0  0  0
   19.5695  -17.3021  -12.2434 C   0  0  0  0  0  0  0  0  0  0  0  0
   19.4649  -18.1819  -13.2734 N   0  0  0  0  0  0  0  0  0  0  0  0
   20.4858  -22.9364  -13.4605 C   0  0  0  0  0  0  0  0  0  0  0  0
   21.2084  -23.8826  -14.2176 O   0  0  0  0  0  0  0  0  0  0  0  0
   19.3686  -23.3520  -13.0514 O   0  0  0  0  0  0  0  0  0  0  0  0
  1  2  1  0
  2  3  2  0
  4  5  1  0
  4  2  1  0
  6  5  1  0
  6  7  1  6
  8  6  1  0
  9  8  2  0
 10 11  1  0
 11 12  1  0
 12 13  1  1
 12 14  1  0
 14 15  1  1
 15  8  1  0
 16 14  1  0
 16 18  1  0
 17 16  2  0
 18 19  1  0
 19 26  1  0
 19 20  1  6
 20 21  1  0
 21 25  1  0
 21 22  2  0
 22 23  1  0
 24 23  1  0
 25 24  2  0
 26 28  2  0
 26 27  1  0
M  END
$$$$
