QIH.pdb
     RDKit          3D

 28 28  0  0  1  0  0  0  0  0999 V2000
   19.7955  -22.7968  -12.5434 N   0  0  0  0  0  0  0  0  0  0  0  0
   19.4712  -22.9555  -13.9124 C   0  0  0  0  0  0  0  0  0  0  0  0
   18.7772  -23.9228  -14.2681 O   0  0  0  0  0  0  0  0  0  0  0  0
   19.9580  -21.9748  -14.8899 C   0  0  0  0  0  0  0  0  0  0  0  0
   20.7116  -20.8814  -14.2190 C   0  0  0  0  0  0  0  0  0  0  0  0
   21.9109  -21.2929  -13.4401 C   0  0  2  0  0  0  0  0  0  0  0  0
   21.6919  -21.2567  -12.0043 N   0  0  0  0  0  0  0  0  0  0  0  0
   23.0282  -20.3962  -13.8309 C   0  0  0  0  0  0  0  0  0  0  0  0
   22.8959  -19.1708  -13.5963 O   0  0  0  0  0  0  0  0  0  0  0  0
   27.9804  -20.9639  -12.2962 C   0  0  0  0  0  0  0  0  0  0  0  0
   26.5820  -20.5434  -12.7141 C   0  0  0  0  0  0  0  0  0  0  0  0
   26.6111  -20.2936  -14.1893 C   0  0  2  0  0  0  0  0  0  0  0  0
   27.5701  -19.1580  -14.4640 C   0  0  0  0  0  0  0  0  0  0  0  0
   25.2742  -19.9032  -14.7595 C   0  0  2  0  0  0  0  0  0  0  0  0
   24.2298  -20.8268  -14.4486 N   0  0  0  0  0  0  0  0  0  0  0  0
   25.3710  -19.6642  -16.2448 C   0  0  0  0  0  0  0  0  0  0  0  0
   25.8499  -20.5455  -17.0035 O   0  0  0  0  0  0  0  0  0  0  0  0
   24.9276  -18.4483  -16.8180 N   0  0  0  0  0  0  0  0  0  0  0  0
   24.9422  -18.2187  -18.2490 C   0  0  1  0  0  0  0  0  0  0  0  0
   23.8423  -17.3181  -18.6947 C   0  0  0  0  0  0  0  0  0  0  0  0
   22.5264  -17.9642  -18.5339 C   0  0  0  0  0  0  0  0  0  0  0  0
   22.1790  -19.2469  -18.2522 C   0  0  0  0  0  0  0  0  0  0  0  0
   20.8414  -19.3930  -18.2194 N   0  0  0  0  0  0  0  0  0  0  0  0
   20.3308  -18.1841  -18.4849 C   0  0  0  0  0  0  0  0  0  0  0  0
   21.3442  -17.3004  -18.6795 N   0  0  0  0  0  0  0  0  0  0  0  0
   26.2713  -17.6605  -18.5798 C   0  0  0  0  0  0  0  0  0  0  0  0
   26.9170  -16.7317  -17.7365 O   0  0  0  0  0  0  0  0  0  0  0  0
   26.9271  -17.9559  -19.6146 O   0  0  0  0  0  0  0  0  0  0  0  0
  1  2  1  0
  2  3  2  0
  4  5  1  0
  4  2  1  0
  6  5  1  0
  6  7  1  1
  8  6  1  0
  9  8  2  0
 10 11  1  0
 11 12  1  0
 12 13  1  1
 12 14  1  0
 14 15  1  6
 15  8  1  0
 16 14  1  0
 16 18  1  0
 17 16  2  0
 18 19  1  0
 19 26  1  0
 19 20  1  1
 20 21  1  0
 21 25  1  0
 21 22  2  0
 22 23  1  0
 24 23  1  0
 25 24  2  0
 26 28  2  0
 26 27  1  0
M  END
$$$$
