QIH.pdb
     RDKit          3D

 28 28  0  0  1  0  0  0  0  0999 V2000
   20.9078  -13.9909  -20.9950 N   0  0  0  0  0  0  0  0  0  0  0  0
   19.6683  -14.6536  -21.1655 C   0  0  0  0  0  0  0  0  0  0  0  0
   19.4260  -15.2304  -22.2390 O   0  0  0  0  0  0  0  0  0  0  0  0
   18.6896  -14.6507  -20.0716 C   0  0  0  0  0  0  0  0  0  0  0  0
   19.1930  -13.8734  -18.9072 C   0  0  0  0  0  0  0  0  0  0  0  0
   19.9393  -14.6447  -17.8764 C   0  0  2  0  0  0  0  0  0  0  0  0
   19.1307  -15.6735  -17.2450 N   0  0  0  0  0  0  0  0  0  0  0  0
   20.4469  -13.6756  -16.8722 C   0  0  0  0  0  0  0  0  0  0  0  0
   19.6396  -13.2669  -16.0029 O   0  0  0  0  0  0  0  0  0  0  0  0
   24.6381  -14.6349  -15.8624 C   0  0  0  0  0  0  0  0  0  0  0  0
   23.9071  -13.8276  -14.8038 C   0  0  0  0  0  0  0  0  0  0  0  0
   23.6296  -12.4759  -15.3832 C   0  0  2  0  0  0  0  0  0  0  0  0
   23.9412  -11.4323  -14.3351 C   0  0  0  0  0  0  0  0  0  0  0  0
   22.1964  -12.2830  -15.8000 C   0  0  2  0  0  0  0  0  0  0  0  0
   21.7753  -13.1819  -16.8273 N   0  0  0  0  0  0  0  0  0  0  0  0
   21.9356  -10.8490  -16.1849 C   0  0  0  0  0  0  0  0  0  0  0  0
   22.3844  -10.3860  -17.2647 O   0  0  0  0  0  0  0  0  0  0  0  0
   21.1833   -9.9939  -15.3444 N   0  0  0  0  0  0  0  0  0  0  0  0
   20.8229   -8.6462  -15.7378 C   0  0  1  0  0  0  0  0  0  0  0  0
   19.3540   -8.4062  -15.6755 C   0  0  0  0  0  0  0  0  0  0  0  0
   19.0211   -7.0294  -16.0859 C   0  0  0  0  0  0  0  0  0  0  0  0
   19.5709   -5.8316  -15.7569 C   0  0  0  0  0  0  0  0  0  0  0  0
   18.9247   -4.8170  -16.3608 N   0  0  0  0  0  0  0  0  0  0  0  0
   17.9485   -5.3790  -17.0846 C   0  0  0  0  0  0  0  0  0  0  0  0
   17.9924   -6.7279  -16.9287 N   0  0  0  0  0  0  0  0  0  0  0  0
   21.5635   -7.7273  -14.8464 C   0  0  0  0  0  0  0  0  0  0  0  0
   21.9336   -6.4300  -15.2597 O   0  0  0  0  0  0  0  0  0  0  0  0
   21.9200   -8.0126  -13.6718 O   0  0  0  0  0  0  0  0  0  0  0  0
  1  2  1  0
  2  3  2  0
  4  5  1  0
  4  2  1  0
  6  5  1  0
  6  7  1  1
  8  6  1  0
  9  8  2  0
 10 11  1  0
 11 12  1  0
 12 13  1  1
 12 14  1  0
 14 15  1  6
 15  8  1  0
 16 14  1  0
 16 18  1  0
 17 16  2  0
 18 19  1  0
 19 26  1  0
 19 20  1  1
 20 21  1  0
 21 25  1  0
 21 22  2  0
 22 23  1  0
 24 23  1  0
 25 24  2  0
 26 28  2  0
 26 27  1  0
M  END
$$$$
