QIH.pdb
     RDKit          3D

 28 28  0  0  1  0  0  0  0  0999 V2000
   26.0347  -21.5734  -19.2874 N   0  0  0  0  0  0  0  0  0  0  0  0
   27.1244  -20.7003  -19.5211 C   0  0  0  0  0  0  0  0  0  0  0  0
   27.4965  -20.4853  -20.6870 O   0  0  0  0  0  0  0  0  0  0  0  0
   27.7966  -20.0612  -18.3835 C   0  0  0  0  0  0  0  0  0  0  0  0
   27.1340  -20.4213  -17.1010 C   0  0  0  0  0  0  0  0  0  0  0  0
   28.0351  -20.8201  -15.9860 C   0  0  2  0  0  0  0  0  0  0  0  0
   29.1036  -21.7074  -16.4128 N   0  0  0  0  0  0  0  0  0  0  0  0
   27.1975  -21.4602  -14.9402 C   0  0  0  0  0  0  0  0  0  0  0  0
   27.7681  -22.2372  -14.1371 O   0  0  0  0  0  0  0  0  0  0  0  0
   26.2183  -21.4219   -9.9786 C   0  0  0  0  0  0  0  0  0  0  0  0
   25.1529  -21.3277  -11.0570 C   0  0  0  0  0  0  0  0  0  0  0  0
   25.8457  -21.0109  -12.3451 C   0  0  2  0  0  0  0  0  0  0  0  0
   25.9092  -19.5084  -12.4978 C   0  0  0  0  0  0  0  0  0  0  0  0
   25.1414  -21.5583  -13.5572 C   0  0  2  0  0  0  0  0  0  0  0  0
   25.8028  -21.2553  -14.7866 N   0  0  0  0  0  0  0  0  0  0  0  0
   23.6997  -21.1188  -13.5869 C   0  0  0  0  0  0  0  0  0  0  0  0
   23.4016  -19.9004  -13.4957 O   0  0  0  0  0  0  0  0  0  0  0  0
   22.6525  -22.0622  -13.7175 N   0  0  0  0  0  0  0  0  0  0  0  0
   21.3248  -21.6856  -14.1603 C   0  0  1  0  0  0  0  0  0  0  0  0
   20.4561  -22.8654  -14.4300 C   0  0  0  0  0  0  0  0  0  0  0  0
   19.1392  -22.4503  -14.9480 C   0  0  0  0  0  0  0  0  0  0  0  0
   18.7070  -22.1883  -16.2089 C   0  0  0  0  0  0  0  0  0  0  0  0
   17.4131  -21.8176  -16.2128 N   0  0  0  0  0  0  0  0  0  0  0  0
   17.0170  -21.8441  -14.9341 C   0  0  0  0  0  0  0  0  0  0  0  0
   18.0571  -22.2278  -14.1487 N   0  0  0  0  0  0  0  0  0  0  0  0
   20.7529  -20.8168  -13.1087 C   0  0  0  0  0  0  0  0  0  0  0  0
   19.8792  -19.7532  -13.4186 O   0  0  0  0  0  0  0  0  0  0  0  0
   20.9882  -20.9452  -11.8773 O   0  0  0  0  0  0  0  0  0  0  0  0
  1  2  1  0
  2  3  2  0
  4  5  1  0
  4  2  1  0
  6  5  1  0
  6  7  1  6
  8  6  1  0
  9  8  2  0
 10 11  1  0
 11 12  1  0
 12 13  1  6
 12 14  1  0
 14 15  1  6
 15  8  1  0
 16 14  1  0
 16 18  1  0
 17 16  2  0
 18 19  1  0
 19 26  1  0
 19 20  1  1
 20 21  1  0
 21 25  1  0
 21 22  2  0
 22 23  1  0
 24 23  1  0
 25 24  2  0
 26 28  2  0
 26 27  1  0
M  END
$$$$
