QIH.pdb
     RDKit          3D

 28 28  0  0  1  0  0  0  0  0999 V2000
   19.1750  -18.6910  -15.7156 N   0  0  0  0  0  0  0  0  0  0  0  0
   19.2799  -20.0998  -15.8086 C   0  0  0  0  0  0  0  0  0  0  0  0
   18.3000  -20.8064  -15.5177 O   0  0  0  0  0  0  0  0  0  0  0  0
   20.5430  -20.7041  -16.2487 C   0  0  0  0  0  0  0  0  0  0  0  0
   21.5503  -19.6584  -16.5734 C   0  0  0  0  0  0  0  0  0  0  0  0
   22.8959  -19.8309  -15.9619 C   0  0  2  0  0  0  0  0  0  0  0  0
   22.8983  -20.7764  -14.8587 N   0  0  0  0  0  0  0  0  0  0  0  0
   23.3606  -18.4926  -15.5169 C   0  0  0  0  0  0  0  0  0  0  0  0
   23.1891  -18.1920  -14.3108 O   0  0  0  0  0  0  0  0  0  0  0  0
   28.1894  -16.6864  -16.2890 C   0  0  0  0  0  0  0  0  0  0  0  0
   26.8189  -17.0499  -15.7446 C   0  0  0  0  0  0  0  0  0  0  0  0
   25.8682  -15.9751  -16.1696 C   0  0  2  0  0  0  0  0  0  0  0  0
   26.2364  -14.6979  -15.4501 C   0  0  0  0  0  0  0  0  0  0  0  0
   24.4311  -16.2795  -15.8421 C   0  0  2  0  0  0  0  0  0  0  0  0
   23.9823  -17.5341  -16.3568 N   0  0  0  0  0  0  0  0  0  0  0  0
   23.5290  -15.1531  -16.2782 C   0  0  0  0  0  0  0  0  0  0  0  0
   23.6737  -13.9982  -15.8016 O   0  0  0  0  0  0  0  0  0  0  0  0
   22.5030  -15.3674  -17.2294 N   0  0  0  0  0  0  0  0  0  0  0  0
   21.5687  -14.3250  -17.6055 C   0  0  1  0  0  0  0  0  0  0  0  0
   21.4652  -14.1558  -19.0819 C   0  0  0  0  0  0  0  0  0  0  0  0
   22.6679  -13.5007  -19.6289 C   0  0  0  0  0  0  0  0  0  0  0  0
   23.7525  -12.9530  -19.0215 C   0  0  0  0  0  0  0  0  0  0  0  0
   24.6103  -12.4428  -19.9246 N   0  0  0  0  0  0  0  0  0  0  0  0
   24.0618  -12.6696  -21.1248 C   0  0  0  0  0  0  0  0  0  0  0  0
   22.8767  -13.3139  -20.9634 N   0  0  0  0  0  0  0  0  0  0  0  0
   20.2649  -14.6814  -17.0050 C   0  0  0  0  0  0  0  0  0  0  0  0
   19.1204  -13.8758  -17.1838 O   0  0  0  0  0  0  0  0  0  0  0  0
   20.0652  -15.7069  -16.3003 O   0  0  0  0  0  0  0  0  0  0  0  0
  1  2  1  0
  2  3  2  0
  4  5  1  0
  4  2  1  0
  6  5  1  0
  6  7  1  1
  8  6  1  0
  9  8  2  0
 10 11  1  0
 11 12  1  0
 12 13  1  1
 12 14  1  0
 14 15  1  6
 15  8  1  0
 16 14  1  0
 16 18  1  0
 17 16  2  0
 18 19  1  0
 19 26  1  0
 19 20  1  6
 20 21  1  0
 21 25  1  0
 21 22  2  0
 22 23  1  0
 24 23  1  0
 25 24  2  0
 26 28  2  0
 26 27  1  0
M  END
$$$$
