QIH.pdb
     RDKit          3D

 28 28  0  0  1  0  0  0  0  0999 V2000
   28.3916  -18.6341  -16.4396 N   0  0  0  0  0  0  0  0  0  0  0  0
   28.4773  -19.3495  -17.6583 C   0  0  0  0  0  0  0  0  0  0  0  0
   29.4211  -19.1242  -18.4345 O   0  0  0  0  0  0  0  0  0  0  0  0
   27.4517  -20.3472  -17.9857 C   0  0  0  0  0  0  0  0  0  0  0  0
   26.5261  -20.5567  -16.8399 C   0  0  0  0  0  0  0  0  0  0  0  0
   26.9711  -21.5303  -15.8062 C   0  0  2  0  0  0  0  0  0  0  0  0
   27.2143  -22.8567  -16.3468 N   0  0  0  0  0  0  0  0  0  0  0  0
   25.9287  -21.5692  -14.7493 C   0  0  0  0  0  0  0  0  0  0  0  0
   25.0810  -22.4925  -14.8062 O   0  0  0  0  0  0  0  0  0  0  0  0
   26.9050  -20.8906   -9.5373 C   0  0  0  0  0  0  0  0  0  0  0  0
   26.4164  -21.3782  -10.8903 C   0  0  0  0  0  0  0  0  0  0  0  0
   25.2736  -20.5016  -11.2967 C   0  0  2  0  0  0  0  0  0  0  0  0
   24.1117  -20.7677  -10.3673 C   0  0  0  0  0  0  0  0  0  0  0  0
   24.7943  -20.7513  -12.7013 C   0  0  2  0  0  0  0  0  0  0  0  0
   25.8250  -20.6390  -13.6841 N   0  0  0  0  0  0  0  0  0  0  0  0
   23.6195  -19.8674  -13.0348 C   0  0  0  0  0  0  0  0  0  0  0  0
   23.7966  -18.7515  -13.5873 O   0  0  0  0  0  0  0  0  0  0  0  0
   22.2960  -20.2702  -12.7355 N   0  0  0  0  0  0  0  0  0  0  0  0
   21.1694  -19.9016  -13.5696 C   0  0  1  0  0  0  0  0  0  0  0  0
   21.5402  -19.7732  -15.0068 C   0  0  0  0  0  0  0  0  0  0  0  0
   20.3770  -19.3813  -15.8242 C   0  0  0  0  0  0  0  0  0  0  0  0
   19.0681  -19.2055  -15.5059 C   0  0  0  0  0  0  0  0  0  0  0  0
   18.3460  -18.8602  -16.5880 N   0  0  0  0  0  0  0  0  0  0  0  0
   19.2098  -18.8161  -17.6102 C   0  0  0  0  0  0  0  0  0  0  0  0
   20.4532  -19.1313  -17.1625 N   0  0  0  0  0  0  0  0  0  0  0  0
   20.1295  -20.9333  -13.3652 C   0  0  0  0  0  0  0  0  0  0  0  0
   18.7928  -20.5915  -13.0700 O   0  0  0  0  0  0  0  0  0  0  0  0
   20.3383  -22.1742  -13.4343 O   0  0  0  0  0  0  0  0  0  0  0  0
  1  2  1  0
  2  3  2  0
  4  5  1  0
  4  2  1  0
  6  5  1  0
  6  7  1  6
  8  6  1  0
  9  8  2  0
 10 11  1  0
 11 12  1  0
 12 13  1  1
 12 14  1  0
 14 15  1  6
 15  8  1  0
 16 14  1  0
 16 18  1  0
 17 16  2  0
 18 19  1  0
 19 26  1  0
 19 20  1  6
 20 21  1  0
 21 25  1  0
 21 22  2  0
 22 23  1  0
 24 23  1  0
 25 24  2  0
 26 28  2  0
 26 27  1  0
M  END
$$$$
