QIH.pdb
     RDKit          3D

 28 28  0  0  1  0  0  0  0  0999 V2000
   27.7233  -21.3373  -19.0728 N   0  0  0  0  0  0  0  0  0  0  0  0
   27.9947  -19.9819  -18.7668 C   0  0  0  0  0  0  0  0  0  0  0  0
   28.7256  -19.3190  -19.5221 O   0  0  0  0  0  0  0  0  0  0  0  0
   27.4077  -19.3800  -17.5637 C   0  0  0  0  0  0  0  0  0  0  0  0
   26.6169  -20.3808  -16.7977 C   0  0  0  0  0  0  0  0  0  0  0  0
   27.1878  -20.8079  -15.4916 C   0  0  2  0  0  0  0  0  0  0  0  0
   28.1210  -21.9144  -15.6175 N   0  0  0  0  0  0  0  0  0  0  0  0
   26.0535  -21.1668  -14.6029 C   0  0  0  0  0  0  0  0  0  0  0  0
   25.3556  -22.1579  -14.9269 O   0  0  0  0  0  0  0  0  0  0  0  0
   26.4840  -20.5251   -9.3182 C   0  0  0  0  0  0  0  0  0  0  0  0
   26.0659  -21.3053  -10.5524 C   0  0  0  0  0  0  0  0  0  0  0  0
   24.8570  -20.6306  -11.1209 C   0  0  2  0  0  0  0  0  0  0  0  0
   23.6384  -21.1224  -10.3740 C   0  0  0  0  0  0  0  0  0  0  0  0
   24.6382  -20.9196  -12.5816 C   0  0  2  0  0  0  0  0  0  0  0  0
   25.7054  -20.4700  -13.4180 N   0  0  0  0  0  0  0  0  0  0  0  0
   23.3110  -20.3757  -13.0455 C   0  0  0  0  0  0  0  0  0  0  0  0
   23.1310  -19.1355  -13.1513 O   0  0  0  0  0  0  0  0  0  0  0  0
   22.2412  -21.2435  -13.3713 N   0  0  0  0  0  0  0  0  0  0  0  0
   20.9705  -20.7511  -13.8648 C   0  0  1  0  0  0  0  0  0  0  0  0
   20.6222  -21.3077  -15.2020 C   0  0  0  0  0  0  0  0  0  0  0  0
   19.2796  -20.8707  -15.6279 C   0  0  0  0  0  0  0  0  0  0  0  0
   18.3621  -20.0643  -15.0336 C   0  0  0  0  0  0  0  0  0  0  0  0
   17.2502  -19.9560  -15.7844 N   0  0  0  0  0  0  0  0  0  0  0  0
   17.4645  -20.7058  -16.8728 C   0  0  0  0  0  0  0  0  0  0  0  0
   18.6973  -21.2712  -16.7941 N   0  0  0  0  0  0  0  0  0  0  0  0
   19.9531  -21.0973  -12.8485 C   0  0  0  0  0  0  0  0  0  0  0  0
   19.9104  -22.3721  -12.2454 O   0  0  0  0  0  0  0  0  0  0  0  0
   19.0593  -20.3073  -12.4421 O   0  0  0  0  0  0  0  0  0  0  0  0
  1  2  1  0
  2  3  2  0
  4  5  1  0
  4  2  1  0
  6  5  1  0
  6  7  1  6
  8  6  1  0
  9  8  2  0
 10 11  1  0
 11 12  1  0
 12 13  1  1
 12 14  1  0
 14 15  1  6
 15  8  1  0
 16 14  1  0
 16 18  1  0
 17 16  2  0
 18 19  1  0
 19 26  1  0
 19 20  1  6
 20 21  1  0
 21 25  1  0
 21 22  2  0
 22 23  1  0
 24 23  1  0
 25 24  2  0
 26 28  2  0
 26 27  1  0
M  END
$$$$
