QIH.pdb
     RDKit          3D

 28 28  0  0  1  0  0  0  0  0999 V2000
   24.4987  -17.4177  -16.9139 N   0  0  0  0  0  0  0  0  0  0  0  0
   25.0962  -17.8046  -18.1377 C   0  0  0  0  0  0  0  0  0  0  0  0
   24.4458  -17.7104  -19.1923 O   0  0  0  0  0  0  0  0  0  0  0  0
   26.4745  -18.3092  -18.1426 C   0  0  0  0  0  0  0  0  0  0  0  0
   27.0670  -18.2564  -16.7789 C   0  0  0  0  0  0  0  0  0  0  0  0
   27.8180  -19.4647  -16.3425 C   0  0  2  0  0  0  0  0  0  0  0  0
   28.1057  -20.3768  -17.4361 N   0  0  0  0  0  0  0  0  0  0  0  0
   27.0151  -20.1344  -15.2880 C   0  0  0  0  0  0  0  0  0  0  0  0
   26.1758  -20.9914  -15.6564 O   0  0  0  0  0  0  0  0  0  0  0  0
   29.3349  -20.8876  -10.7168 C   0  0  0  0  0  0  0  0  0  0  0  0
   28.3979  -21.4991  -11.7438 C   0  0  0  0  0  0  0  0  0  0  0  0
   27.0822  -20.7959  -11.6251 C   0  0  2  0  0  0  0  0  0  0  0  0
   26.1793  -21.6164  -10.7328 C   0  0  0  0  0  0  0  0  0  0  0  0
   26.3748  -20.6176  -12.9415 C   0  0  2  0  0  0  0  0  0  0  0  0
   27.1304  -19.8740  -13.8989 N   0  0  0  0  0  0  0  0  0  0  0  0
   25.0050  -20.0209  -12.7404 C   0  0  0  0  0  0  0  0  0  0  0  0
   24.8773  -18.8271  -12.3658 O   0  0  0  0  0  0  0  0  0  0  0  0
   23.8360  -20.7861  -12.9674 N   0  0  0  0  0  0  0  0  0  0  0  0
   22.5431  -20.1717  -13.1945 C   0  0  1  0  0  0  0  0  0  0  0  0
   22.3534  -19.7455  -14.6093 C   0  0  0  0  0  0  0  0  0  0  0  0
   21.0254  -19.1357  -14.8086 C   0  0  0  0  0  0  0  0  0  0  0  0
   19.9613  -18.9980  -13.9757 C   0  0  0  0  0  0  0  0  0  0  0  0
   18.9348  -18.3854  -14.5944 N   0  0  0  0  0  0  0  0  0  0  0  0
   19.3534  -18.1302  -15.8404 C   0  0  0  0  0  0  0  0  0  0  0  0
   20.6263  -18.5812  -15.9887 N   0  0  0  0  0  0  0  0  0  0  0  0
   21.5216  -21.1582  -12.7809 C   0  0  0  0  0  0  0  0  0  0  0  0
   20.2195  -20.7654  -12.4055 O   0  0  0  0  0  0  0  0  0  0  0  0
   21.7172  -22.4021  -12.7283 O   0  0  0  0  0  0  0  0  0  0  0  0
  1  2  1  0
  2  3  2  0
  4  5  1  0
  4  2  1  0
  6  5  1  0
  6  7  1  6
  8  6  1  0
  9  8  2  0
 10 11  1  0
 11 12  1  0
 12 13  1  1
 12 14  1  0
 14 15  1  6
 15  8  1  0
 16 14  1  0
 16 18  1  0
 17 16  2  0
 18 19  1  0
 19 26  1  0
 19 20  1  6
 20 21  1  0
 21 25  1  0
 21 22  2  0
 22 23  1  0
 24 23  1  0
 25 24  2  0
 26 28  2  0
 26 27  1  0
M  END
$$$$
