TLP.pdb
     RDKit          3D

 23 23  0  0  1  0  0  0  0  0999 V2000
   19.9640  -22.5988  -14.9407 C   0  0  0  0  0  0  0  0  0  0  0  0
   21.1054  -21.6329  -14.9022 C   0  0  1  0  0  0  0  0  0  0  0  0
   20.7521  -20.4394  -15.5398 O   0  0  0  0  0  0  0  0  0  0  0  0
   21.5589  -21.3050  -13.4997 C   0  0  2  0  0  0  0  0  0  0  0  0
   20.5755  -20.4179  -12.9279 N   0  0  0  0  0  0  0  0  0  0  0  0
   22.8634  -20.5785  -13.5423 C   0  0  0  0  0  0  0  0  0  0  0  0
   22.8383  -19.3077  -13.3954 O   0  0  0  0  0  0  0  0  0  0  0  0
   26.6844  -21.9943  -10.2066 C   0  0  0  0  0  0  0  0  0  0  0  0
   25.6918  -21.2745  -11.1258 C   0  0  1  0  0  0  0  0  0  0  0  0
   25.7285  -19.8066  -10.5675 C   0  0  0  0  0  0  0  0  0  0  0  0
   26.2013  -21.1728  -12.5174 C   0  0  0  0  0  0  0  0  0  0  0  0
   25.4208  -20.5258  -13.5525 C   0  0  2  0  0  0  0  0  0  0  0  0
   24.1003  -21.2019  -13.7322 N   0  0  0  0  0  0  0  0  0  0  0  0
   25.8299  -19.9356  -14.7787 C   0  0  0  0  0  0  0  0  0  0  0  0
   25.8610  -20.8599  -15.7604 O   0  0  0  0  0  0  0  0  0  0  0  0
   26.2103  -18.6784  -15.2600 N   0  0  0  0  0  0  0  0  0  0  0  0
   26.0459  -17.4082  -14.5900 C   0  0  0  0  0  0  0  0  0  0  0  0
   26.7347  -16.3474  -15.3974 C   0  0  0  0  0  0  0  0  0  0  0  0
   27.6135  -17.1223  -16.2972 C   0  0  0  0  0  0  0  0  0  0  0  0
   26.8137  -18.4106  -16.5435 C   0  0  1  0  0  0  0  0  0  0  0  0
   27.8330  -19.3839  -16.9899 C   0  0  0  0  0  0  0  0  0  0  0  0
   28.3170  -19.2560  -18.3057 O   0  0  0  0  0  0  0  0  0  0  0  0
   28.3271  -20.3218  -16.3305 O   0  0  0  0  0  0  0  0  0  0  0  0
  2  4  1  0
  2  1  1  1
  3  2  1  0
  4  6  1  0
  4  5  1  6
  6  7  2  0
  9  8  1  1
  9 10  1  0
 12 11  1  6
 11  9  1  0
 12 14  1  0
 13  6  1  0
 13 12  1  0
 14 15  2  0
 16 14  1  0
 16 17  1  0
 18 17  1  0
 19 18  1  0
 20 19  1  0
 20 16  1  0
 21 22  1  0
 20 21  1  1
 23 21  2  0
M  END
$$$$
