TLP.pdb
     RDKit          3D

 23 23  0  0  1  0  0  0  0  0999 V2000
 -210.0213  -47.6112 -167.9281 C   0  0  0  0  0  0  0  0  0  0  0  0
 -211.0132  -46.5009 -168.0714 C   0  0  1  0  0  0  0  0  0  0  0  0
 -212.0977  -46.9173 -168.8499 O   0  0  0  0  0  0  0  0  0  0  0  0
 -211.5429  -46.0033 -166.7477 C   0  0  2  0  0  0  0  0  0  0  0  0
 -212.0254  -47.1518 -166.0204 N   0  0  0  0  0  0  0  0  0  0  0  0
 -212.6984  -45.0841 -166.9741 C   0  0  0  0  0  0  0  0  0  0  0  0
 -212.5062  -44.0648 -167.7231 O   0  0  0  0  0  0  0  0  0  0  0  0
 -216.1514  -44.4735 -168.5561 C   0  0  0  0  0  0  0  0  0  0  0  0
 -216.6653  -45.8513 -168.1249 C   0  0  1  0  0  0  0  0  0  0  0  0
 -215.9174  -46.8095 -169.1202 C   0  0  0  0  0  0  0  0  0  0  0  0
 -216.1692  -46.2290 -166.7767 C   0  0  0  0  0  0  0  0  0  0  0  0
 -214.7689  -46.5261 -166.5531 C   0  0  2  0  0  0  0  0  0  0  0  0
 -213.9677  -45.2717 -166.4187 N   0  0  0  0  0  0  0  0  0  0  0  0
 -213.9536  -47.5634 -167.0809 C   0  0  0  0  0  0  0  0  0  0  0  0
 -214.2754  -48.7477 -166.5216 O   0  0  0  0  0  0  0  0  0  0  0  0
 -212.9164  -47.7109 -168.0080 N   0  0  0  0  0  0  0  0  0  0  0  0
 -212.7980  -47.0498 -169.2879 C   0  0  0  0  0  0  0  0  0  0  0  0
 -211.4578  -47.3803 -169.8763 C   0  0  0  0  0  0  0  0  0  0  0  0
 -210.6974  -47.8972 -168.7201 C   0  0  0  0  0  0  0  0  0  0  0  0
 -211.7767  -48.5856 -167.8707 C   0  0  1  0  0  0  0  0  0  0  0  0
 -211.1785  -48.6545 -166.5205 C   0  0  0  0  0  0  0  0  0  0  0  0
 -211.7292  -47.8241 -165.5259 O   0  0  0  0  0  0  0  0  0  0  0  0
 -210.2282  -49.3729 -166.1471 O   0  0  0  0  0  0  0  0  0  0  0  0
  2  4  1  0
  2  1  1  1
  3  2  1  0
  4  6  1  0
  4  5  1  1
  6  7  2  0
  9  8  1  6
  9 10  1  0
 12 11  1  6
 11  9  1  0
 12 14  1  0
 13  6  1  0
 13 12  1  0
 14 15  2  0
 16 14  1  0
 16 17  1  0
 18 17  1  0
 19 18  1  0
 20 19  1  0
 20 16  1  0
 21 22  1  0
 20 21  1  1
 23 21  2  0
M  END
$$$$
