TLP.pdb
     RDKit          3D

 23 23  0  0  1  0  0  0  0  0999 V2000
   18.5952  -11.9083  -19.8972 C   0  0  0  0  0  0  0  0  0  0  0  0
   19.5478  -11.2562  -18.9462 C   0  0  1  0  0  0  0  0  0  0  0  0
   18.8452  -10.5653  -17.9539 O   0  0  0  0  0  0  0  0  0  0  0  0
   20.4790  -12.2360  -18.2730 C   0  0  2  0  0  0  0  0  0  0  0  0
   19.6674  -13.1094  -17.4609 N   0  0  0  0  0  0  0  0  0  0  0  0
   21.4178  -11.5077  -17.3676 C   0  0  0  0  0  0  0  0  0  0  0  0
   21.0287  -11.2810  -16.1700 O   0  0  0  0  0  0  0  0  0  0  0  0
   26.1718  -10.0854  -14.8352 C   0  0  0  0  0  0  0  0  0  0  0  0
   26.1440  -10.3798  -16.3389 C   0  0  1  0  0  0  0  0  0  0  0  0
   27.2778  -11.4574  -16.4858 C   0  0  0  0  0  0  0  0  0  0  0  0
   24.8947  -11.0742  -16.7429 C   0  0  0  0  0  0  0  0  0  0  0  0
   23.6405  -10.3558  -16.8431 C   0  0  2  0  0  0  0  0  0  0  0  0
   22.6866  -11.0627  -17.7505 N   0  0  0  0  0  0  0  0  0  0  0  0
   23.3807   -8.9588  -16.8661 C   0  0  0  0  0  0  0  0  0  0  0  0
   23.7275   -8.4337  -18.0590 O   0  0  0  0  0  0  0  0  0  0  0  0
   22.8732   -7.9740  -16.0120 N   0  0  0  0  0  0  0  0  0  0  0  0
   22.1985   -8.1847  -14.7512 C   0  0  0  0  0  0  0  0  0  0  0  0
   21.9680   -6.8516  -14.1019 C   0  0  0  0  0  0  0  0  0  0  0  0
   22.8836   -5.9538  -14.8353 C   0  0  0  0  0  0  0  0  0  0  0  0
   22.9002   -6.5509  -16.2507 C   0  0  1  0  0  0  0  0  0  0  0  0
   24.1460   -6.0228  -16.8465 C   0  0  0  0  0  0  0  0  0  0  0  0
   24.1527   -4.6709  -17.2392 O   0  0  0  0  0  0  0  0  0  0  0  0
   25.2127   -6.6399  -17.0464 O   0  0  0  0  0  0  0  0  0  0  0  0
  2  4  1  0
  2  1  1  6
  3  2  1  0
  4  6  1  0
  4  5  1  1
  6  7  2  0
  9  8  1  1
  9 10  1  0
 12 11  1  6
 11  9  1  0
 12 14  1  0
 13  6  1  0
 13 12  1  0
 14 15  2  0
 16 14  1  0
 16 17  1  0
 18 17  1  0
 19 18  1  0
 20 19  1  0
 20 16  1  0
 21 22  1  0
 20 21  1  1
 23 21  2  0
M  END
$$$$
