TLP.pdb
     RDKit          3D

 23 23  0  0  1  0  0  0  0  0999 V2000
   15.7965  -18.7731    3.4544 C   0  0  0  0  0  0  0  0  0  0  0  0
   14.5981  -19.5134    2.9514 C   0  0  1  0  0  0  0  0  0  0  0  0
   13.7962  -18.6686    2.1775 O   0  0  0  0  0  0  0  0  0  0  0  0
   14.9531  -20.7230    2.1201 C   0  0  2  0  0  0  0  0  0  0  0  0
   13.7149  -21.3385    1.7089 N   0  0  0  0  0  0  0  0  0  0  0  0
   15.7032  -21.7113    2.9521 C   0  0  0  0  0  0  0  0  0  0  0  0
   15.0223  -22.4807    3.7147 O   0  0  0  0  0  0  0  0  0  0  0  0
   19.2110  -25.8529    3.4725 C   0  0  0  0  0  0  0  0  0  0  0  0
   19.8042  -24.4537    3.6693 C   0  0  1  0  0  0  0  0  0  0  0  0
   21.0917  -24.5110    2.7709 C   0  0  0  0  0  0  0  0  0  0  0  0
   18.9520  -23.4014    3.0587 C   0  0  0  0  0  0  0  0  0  0  0  0
   17.8536  -22.8101    3.7955 C   0  0  2  0  0  0  0  0  0  0  0  0
   17.0950  -21.8426    2.9459 N   0  0  0  0  0  0  0  0  0  0  0  0
   17.7642  -22.4246    5.1604 C   0  0  0  0  0  0  0  0  0  0  0  0
   18.4091  -21.2578    5.3646 O   0  0  0  0  0  0  0  0  0  0  0  0
   17.2048  -22.9043    6.3494 N   0  0  0  0  0  0  0  0  0  0  0  0
   16.1919  -23.9274    6.4792 C   0  0  0  0  0  0  0  0  0  0  0  0
   16.0048  -24.2349    7.9360 C   0  0  0  0  0  0  0  0  0  0  0  0
   17.2113  -23.6573    8.5628 C   0  0  0  0  0  0  0  0  0  0  0  0
   17.5150  -22.4376    7.6794 C   0  0  1  0  0  0  0  0  0  0  0  0
   18.9412  -22.1515    7.9436 C   0  0  0  0  0  0  0  0  0  0  0  0
   19.2393  -21.2760    9.0050 O   0  0  0  0  0  0  0  0  0  0  0  0
   19.9316  -22.6002    7.3303 O   0  0  0  0  0  0  0  0  0  0  0  0
  2  4  1  0
  2  1  1  6
  3  2  1  0
  4  6  1  0
  4  5  1  1
  6  7  2  0
  9  8  1  6
  9 10  1  0
 12 11  1  6
 11  9  1  0
 12 14  1  0
 13  6  1  0
 13 12  1  0
 14 15  2  0
 16 14  1  0
 16 17  1  0
 18 17  1  0
 19 18  1  0
 20 19  1  0
 20 16  1  0
 21 22  1  0
 20 21  1  6
 23 21  2  0
M  END
$$$$
