TLP.pdb
     RDKit          3D

 23 23  0  0  1  0  0  0  0  0999 V2000
   20.1204  -19.0835  -17.7799 C   0  0  0  0  0  0  0  0  0  0  0  0
   21.5149  -19.0666  -17.2394 C   0  0  1  0  0  0  0  0  0  0  0  0
   22.4008  -18.5675  -18.1996 O   0  0  0  0  0  0  0  0  0  0  0  0
   21.6562  -18.2356  -15.9865 C   0  0  2  0  0  0  0  0  0  0  0  0
   21.6235  -16.8498  -16.3857 N   0  0  0  0  0  0  0  0  0  0  0  0
   22.9805  -18.4983  -15.3471 C   0  0  0  0  0  0  0  0  0  0  0  0
   23.9489  -17.7187  -15.6496 O   0  0  0  0  0  0  0  0  0  0  0  0
   26.5664  -19.8760  -11.2940 C   0  0  0  0  0  0  0  0  0  0  0  0
   25.4461  -20.8607  -11.6459 C   0  0  1  0  0  0  0  0  0  0  0  0
   24.8357  -21.1852  -10.2352 C   0  0  0  0  0  0  0  0  0  0  0  0
   24.3491  -20.2025  -12.4008 C   0  0  0  0  0  0  0  0  0  0  0  0
   24.5342  -19.7876  -13.7765 C   0  0  2  0  0  0  0  0  0  0  0  0
   23.2209  -19.5387  -14.4447 N   0  0  0  0  0  0  0  0  0  0  0  0
   25.4935  -20.2009  -14.7401 C   0  0  0  0  0  0  0  0  0  0  0  0
   25.1629  -21.4055  -15.2488 O   0  0  0  0  0  0  0  0  0  0  0  0
   26.6780  -19.7227  -15.3101 N   0  0  0  0  0  0  0  0  0  0  0  0
   27.2339  -18.3960  -15.1677 C   0  0  0  0  0  0  0  0  0  0  0  0
   28.5874  -18.3710  -15.8153 C   0  0  0  0  0  0  0  0  0  0  0  0
   28.9244  -19.8027  -15.9531 C   0  0  0  0  0  0  0  0  0  0  0  0
   27.5568  -20.4638  -16.1828 C   0  0  1  0  0  0  0  0  0  0  0  0
   27.7790  -21.8795  -15.8193 C   0  0  0  0  0  0  0  0  0  0  0  0
   27.2577  -22.3207  -14.5882 O   0  0  0  0  0  0  0  0  0  0  0  0
   28.3821  -22.7479  -16.4831 O   0  0  0  0  0  0  0  0  0  0  0  0
  2  4  1  0
  2  1  1  6
  3  2  1  0
  4  6  1  0
  4  5  1  6
  6  7  2  0
  9  8  1  1
  9 10  1  0
 12 11  1  1
 11  9  1  0
 12 14  1  0
 13  6  1  0
 13 12  1  0
 14 15  2  0
 16 14  1  0
 16 17  1  0
 18 17  1  0
 19 18  1  0
 20 19  1  0
 20 16  1  0
 21 22  1  0
 20 21  1  1
 23 21  2  0
M  END
$$$$
