TLP.pdb
     RDKit          3D

 23 23  0  0  1  0  0  0  0  0999 V2000
   17.0307  -12.1070  -20.7100 C   0  0  0  0  0  0  0  0  0  0  0  0
   17.6767  -11.4428  -19.5358 C   0  0  1  0  0  0  0  0  0  0  0  0
   16.7076  -10.8480  -18.7216 O   0  0  0  0  0  0  0  0  0  0  0  0
   18.4893  -12.3930  -18.6889 C   0  0  2  0  0  0  0  0  0  0  0  0
   17.5829  -13.3908  -18.1750 N   0  0  0  0  0  0  0  0  0  0  0  0
   19.0773  -11.6637  -17.5254 C   0  0  0  0  0  0  0  0  0  0  0  0
   18.4754  -11.7607  -16.4005 O   0  0  0  0  0  0  0  0  0  0  0  0
   22.6284  -10.2973  -13.6880 C   0  0  0  0  0  0  0  0  0  0  0  0
   23.0961  -10.2443  -15.1464 C   0  0  1  0  0  0  0  0  0  0  0  0
   24.3394  -11.2046  -15.1300 C   0  0  0  0  0  0  0  0  0  0  0  0
   22.1208  -10.8885  -16.0631 C   0  0  0  0  0  0  0  0  0  0  0  0
   20.8811  -10.2278  -16.4177 C   0  0  2  0  0  0  0  0  0  0  0  0
   20.2377  -10.8870  -17.5943 N   0  0  0  0  0  0  0  0  0  0  0  0
   20.5323   -8.8505  -16.3876 C   0  0  0  0  0  0  0  0  0  0  0  0
   21.3038   -8.1493  -17.2433 O   0  0  0  0  0  0  0  0  0  0  0  0
   19.6251   -8.0143  -15.7284 N   0  0  0  0  0  0  0  0  0  0  0  0
   18.5376   -8.4230  -14.8684 C   0  0  0  0  0  0  0  0  0  0  0  0
   17.9252   -7.1983  -14.2546 C   0  0  0  0  0  0  0  0  0  0  0  0
   18.9500   -6.1579  -14.4777 C   0  0  0  0  0  0  0  0  0  0  0  0
   19.5864   -6.5740  -15.8127 C   0  0  1  0  0  0  0  0  0  0  0  0
   20.8995   -5.8947  -15.8095 C   0  0  0  0  0  0  0  0  0  0  0  0
   20.9109   -4.5082  -16.0535 O   0  0  0  0  0  0  0  0  0  0  0  0
   22.0197   -6.4090  -15.6120 O   0  0  0  0  0  0  0  0  0  0  0  0
  2  4  1  0
  2  1  1  6
  3  2  1  0
  4  6  1  0
  4  5  1  1
  6  7  2  0
  9  8  1  1
  9 10  1  0
 12 11  1  6
 11  9  1  0
 12 14  1  0
 13  6  1  0
 13 12  1  0
 14 15  2  0
 16 14  1  0
 16 17  1  0
 18 17  1  0
 19 18  1  0
 20 19  1  0
 20 16  1  0
 21 22  1  0
 20 21  1  1
 23 21  2  0
M  END
$$$$
