TLP.pdb
     RDKit          3D

 23 23  0  0  1  0  0  0  0  0999 V2000
   26.8013  -18.1412  -16.4288 C   0  0  0  0  0  0  0  0  0  0  0  0
   27.6074  -19.2952  -16.9345 C   0  0  1  0  0  0  0  0  0  0  0  0
   28.5844  -18.8486  -17.8298 O   0  0  0  0  0  0  0  0  0  0  0  0
   28.2916  -20.0695  -15.8334 C   0  0  2  0  0  0  0  0  0  0  0  0
   28.9590  -21.1906  -16.4489 N   0  0  0  0  0  0  0  0  0  0  0  0
   27.2748  -20.6070  -14.8802 C   0  0  0  0  0  0  0  0  0  0  0  0
   26.5819  -21.6136  -15.2594 O   0  0  0  0  0  0  0  0  0  0  0  0
   25.5091  -22.0105   -9.7051 C   0  0  0  0  0  0  0  0  0  0  0  0
   25.4183  -20.5535  -10.1712 C   0  0  1  0  0  0  0  0  0  0  0  0
   25.9999  -19.7746   -8.9370 C   0  0  0  0  0  0  0  0  0  0  0  0
   26.3581  -20.2704  -11.2861 C   0  0  0  0  0  0  0  0  0  0  0  0
   26.0153  -20.6034  -12.6539 C   0  0  2  0  0  0  0  0  0  0  0  0
   27.0383  -20.0777  -13.6080 N   0  0  0  0  0  0  0  0  0  0  0  0
   24.7483  -20.6679  -13.2943 C   0  0  0  0  0  0  0  0  0  0  0  0
   24.2699  -19.4274  -13.5204 O   0  0  0  0  0  0  0  0  0  0  0  0
   23.8562  -21.6421  -13.7545 N   0  0  0  0  0  0  0  0  0  0  0  0
   24.1467  -23.0370  -13.9980 C   0  0  0  0  0  0  0  0  0  0  0  0
   22.8650  -23.7428  -14.3310 C   0  0  0  0  0  0  0  0  0  0  0  0
   21.8273  -22.7980  -13.8698 C   0  0  0  0  0  0  0  0  0  0  0  0
   22.4737  -21.4247  -14.1072 C   0  0  1  0  0  0  0  0  0  0  0  0
   21.7190  -20.5162  -13.2179 C   0  0  0  0  0  0  0  0  0  0  0  0
   20.4750  -20.0455  -13.6794 O   0  0  0  0  0  0  0  0  0  0  0  0
   22.0552  -20.1089  -12.0868 O   0  0  0  0  0  0  0  0  0  0  0  0
  2  4  1  0
  2  1  1  1
  3  2  1  0
  4  6  1  0
  4  5  1  6
  6  7  2  0
  9  8  1  1
  9 10  1  0
 12 11  1  1
 11  9  1  0
 12 14  1  0
 13  6  1  0
 13 12  1  0
 14 15  2  0
 16 14  1  0
 16 17  1  0
 18 17  1  0
 19 18  1  0
 20 19  1  0
 20 16  1  0
 21 22  1  0
 20 21  1  1
 23 21  2  0
M  END
$$$$
