TLP.pdb
     RDKit          3D

 23 23  0  0  1  0  0  0  0  0999 V2000
   23.3120  -19.7355  -11.7628 C   0  0  0  0  0  0  0  0  0  0  0  0
   24.2087  -20.6590  -12.5245 C   0  0  1  0  0  0  0  0  0  0  0  0
   24.1079  -20.4100  -13.8969 O   0  0  0  0  0  0  0  0  0  0  0  0
   25.6604  -20.5397  -12.1263 C   0  0  2  0  0  0  0  0  0  0  0  0
   26.3979  -21.5085  -12.9000 N   0  0  0  0  0  0  0  0  0  0  0  0
   25.8231  -20.8852  -10.6821 C   0  0  0  0  0  0  0  0  0  0  0  0
   25.8303  -22.1254  -10.3674 O   0  0  0  0  0  0  0  0  0  0  0  0
   29.0075  -20.3350   -6.0733 C   0  0  0  0  0  0  0  0  0  0  0  0
   27.6179  -19.7041   -6.2124 C   0  0  1  0  0  0  0  0  0  0  0  0
   27.8573  -18.2521   -5.6624 C   0  0  0  0  0  0  0  0  0  0  0  0
   27.2342  -19.5211   -7.6357 C   0  0  0  0  0  0  0  0  0  0  0  0
   26.1448  -20.2780   -8.2182 C   0  0  2  0  0  0  0  0  0  0  0  0
   25.9664  -19.9392   -9.6627 N   0  0  0  0  0  0  0  0  0  0  0  0
   24.8998  -20.6752   -7.6599 C   0  0  0  0  0  0  0  0  0  0  0  0
   23.9751  -19.7087   -7.8327 O   0  0  0  0  0  0  0  0  0  0  0  0
   24.3583  -21.7735   -6.9837 N   0  0  0  0  0  0  0  0  0  0  0  0
   24.9711  -23.0708   -6.8080 C   0  0  0  0  0  0  0  0  0  0  0  0
   24.1101  -23.8875   -5.8896 C   0  0  0  0  0  0  0  0  0  0  0  0
   23.2390  -22.8781   -5.2536 C   0  0  0  0  0  0  0  0  0  0  0  0
   23.0587  -21.8255   -6.3580 C   0  0  1  0  0  0  0  0  0  0  0  0
   22.6483  -20.6077   -5.6271 C   0  0  0  0  0  0  0  0  0  0  0  0
   21.2785  -20.4572   -5.3388 O   0  0  0  0  0  0  0  0  0  0  0  0
   23.3811  -19.6801   -5.2258 O   0  0  0  0  0  0  0  0  0  0  0  0
  2  4  1  0
  2  1  1  1
  3  2  1  0
  4  6  1  0
  4  5  1  6
  6  7  2  0
  9  8  1  6
  9 10  1  0
 12 11  1  1
 11  9  1  0
 12 14  1  0
 13  6  1  0
 13 12  1  0
 14 15  2  0
 16 14  1  0
 16 17  1  0
 18 17  1  0
 19 18  1  0
 20 19  1  0
 20 16  1  0
 21 22  1  0
 20 21  1  1
 23 21  2  0
M  END
$$$$
