TLP.pdb
     RDKit          3D

 23 23  0  0  1  0  0  0  0  0999 V2000
   23.2647  -19.8953  -11.6627 C   0  0  0  0  0  0  0  0  0  0  0  0
   24.2325  -20.6699  -12.4997 C   0  0  1  0  0  0  0  0  0  0  0  0
   24.0820  -20.3355  -13.8492 O   0  0  0  0  0  0  0  0  0  0  0  0
   25.6729  -20.4368  -12.1112 C   0  0  2  0  0  0  0  0  0  0  0  0
   26.4851  -21.2866  -12.9475 N   0  0  0  0  0  0  0  0  0  0  0  0
   25.8908  -20.8462  -10.6912 C   0  0  0  0  0  0  0  0  0  0  0  0
   25.9545  -22.0990  -10.4395 O   0  0  0  0  0  0  0  0  0  0  0  0
   28.9235  -20.2928   -5.8466 C   0  0  0  0  0  0  0  0  0  0  0  0
   27.5528  -19.6687   -6.1294 C   0  0  1  0  0  0  0  0  0  0  0  0
   27.7582  -18.1875   -5.6477 C   0  0  0  0  0  0  0  0  0  0  0  0
   27.2814  -19.5684   -7.5863 C   0  0  0  0  0  0  0  0  0  0  0  0
   26.2294  -20.3493   -8.2050 C   0  0  2  0  0  0  0  0  0  0  0  0
   26.0275  -19.9465   -9.6298 N   0  0  0  0  0  0  0  0  0  0  0  0
   25.0088  -20.8377   -7.6655 C   0  0  0  0  0  0  0  0  0  0  0  0
   24.0560  -19.8845   -7.7147 O   0  0  0  0  0  0  0  0  0  0  0  0
   24.5119  -22.0161   -7.0985 N   0  0  0  0  0  0  0  0  0  0  0  0
   25.1500  -23.3131   -7.0976 C   0  0  0  0  0  0  0  0  0  0  0  0
   24.3401  -24.2454   -6.2451 C   0  0  0  0  0  0  0  0  0  0  0  0
   23.4822  -23.3318   -5.4631 C   0  0  0  0  0  0  0  0  0  0  0  0
   23.2407  -22.1637   -6.4313 C   0  0  1  0  0  0  0  0  0  0  0  0
   22.8440  -21.0452   -5.5497 C   0  0  0  0  0  0  0  0  0  0  0  0
   21.5309  -21.0560   -5.0423 O   0  0  0  0  0  0  0  0  0  0  0  0
   23.5441  -20.0753   -5.1925 O   0  0  0  0  0  0  0  0  0  0  0  0
  2  4  1  0
  2  1  1  1
  3  2  1  0
  4  6  1  0
  4  5  1  6
  6  7  2  0
  9  8  1  6
  9 10  1  0
 12 11  1  1
 11  9  1  0
 12 14  1  0
 13  6  1  0
 13 12  1  0
 14 15  2  0
 16 14  1  0
 16 17  1  0
 18 17  1  0
 19 18  1  0
 20 19  1  0
 20 16  1  0
 21 22  1  0
 20 21  1  1
 23 21  2  0
M  END
$$$$
