TLP.pdb
     RDKit          3D

 23 23  0  0  1  0  0  0  0  0999 V2000
   23.1816  -24.4719  -16.3291 C   0  0  0  0  0  0  0  0  0  0  0  0
   24.2601  -25.5037  -16.4268 C   0  0  1  0  0  0  0  0  0  0  0  0
   24.0550  -26.3146  -17.5475 O   0  0  0  0  0  0  0  0  0  0  0  0
   25.6448  -24.9085  -16.5191 C   0  0  2  0  0  0  0  0  0  0  0  0
   26.5866  -25.9781  -16.2952 N   0  0  0  0  0  0  0  0  0  0  0  0
   25.8368  -23.8939  -15.4397 C   0  0  0  0  0  0  0  0  0  0  0  0
   26.1172  -24.3228  -14.2673 O   0  0  0  0  0  0  0  0  0  0  0  0
   28.5051  -18.5059  -15.0792 C   0  0  0  0  0  0  0  0  0  0  0  0
   27.3189  -19.2504  -14.4572 C   0  0  1  0  0  0  0  0  0  0  0  0
   26.1099  -18.3214  -14.8361 C   0  0  0  0  0  0  0  0  0  0  0  0
   27.0503  -20.5373  -15.1486 C   0  0  0  0  0  0  0  0  0  0  0  0
   26.0960  -21.4870  -14.6134 C   0  0  2  0  0  0  0  0  0  0  0  0
   25.7283  -22.5138  -15.6350 N   0  0  0  0  0  0  0  0  0  0  0  0
   25.0130  -21.2941  -13.7138 C   0  0  0  0  0  0  0  0  0  0  0  0
   23.8525  -21.1749  -14.3907 O   0  0  0  0  0  0  0  0  0  0  0  0
   24.8032  -21.1903  -12.3347 N   0  0  0  0  0  0  0  0  0  0  0  0
   25.7996  -21.3154  -11.2951 C   0  0  0  0  0  0  0  0  0  0  0  0
   25.1640  -20.9777   -9.9783 C   0  0  0  0  0  0  0  0  0  0  0  0
   23.9221  -20.2800  -10.3697 C   0  0  0  0  0  0  0  0  0  0  0  0
   23.5329  -20.9699  -11.6860 C   0  0  1  0  0  0  0  0  0  0  0  0
   22.6343  -19.9990  -12.3461 C   0  0  0  0  0  0  0  0  0  0  0  0
   23.1358  -19.3132  -13.4686 O   0  0  0  0  0  0  0  0  0  0  0  0
   21.4636  -19.7084  -12.0247 O   0  0  0  0  0  0  0  0  0  0  0  0
  2  4  1  0
  2  1  1  6
  3  2  1  0
  4  6  1  0
  4  5  1  1
  6  7  2  0
  9  8  1  6
  9 10  1  0
 12 11  1  6
 11  9  1  0
 12 14  1  0
 13  6  1  0
 13 12  1  0
 14 15  2  0
 16 14  1  0
 16 17  1  0
 18 17  1  0
 19 18  1  0
 20 19  1  0
 20 16  1  0
 21 22  1  0
 20 21  1  6
 23 21  2  0
M  END
$$$$
