TLP.pdb
     RDKit          3D

 23 23  0  0  1  0  0  0  0  0999 V2000
   16.4066  -13.8627    7.0289 C   0  0  0  0  0  0  0  0  0  0  0  0
   17.0936  -12.8365    6.1850 C   0  0  1  0  0  0  0  0  0  0  0  0
   16.4357  -11.6065    6.2861 O   0  0  0  0  0  0  0  0  0  0  0  0
   18.5419  -12.6319    6.5602 C   0  0  2  0  0  0  0  0  0  0  0  0
   19.1029  -11.7014    5.6112 N   0  0  0  0  0  0  0  0  0  0  0  0
   19.2877  -13.9202    6.4363 C   0  0  0  0  0  0  0  0  0  0  0  0
   19.6738  -14.2706    5.2678 O   0  0  0  0  0  0  0  0  0  0  0  0
   21.4311  -16.1494   10.3118 C   0  0  0  0  0  0  0  0  0  0  0  0
   22.0481  -15.2147    9.2659 C   0  0  1  0  0  0  0  0  0  0  0  0
   23.5871  -15.4277    9.4988 C   0  0  0  0  0  0  0  0  0  0  0  0
   21.7959  -15.6912    7.8818 C   0  0  0  0  0  0  0  0  0  0  0  0
   20.4509  -15.9735    7.4231 C   0  0  2  0  0  0  0  0  0  0  0  0
   19.5854  -14.7587    7.5146 N   0  0  0  0  0  0  0  0  0  0  0  0
   19.6562  -17.1425    7.5693 C   0  0  0  0  0  0  0  0  0  0  0  0
   18.7583  -16.9818    8.5627 O   0  0  0  0  0  0  0  0  0  0  0  0
   19.5376  -18.4078    6.9846 N   0  0  0  0  0  0  0  0  0  0  0  0
   20.2691  -18.9060    5.8418 C   0  0  0  0  0  0  0  0  0  0  0  0
   19.9405  -20.3586    5.6581 C   0  0  0  0  0  0  0  0  0  0  0  0
   19.3384  -20.7371    6.9529 C   0  0  0  0  0  0  0  0  0  0  0  0
   18.6285  -19.4495    7.3985 C   0  0  1  0  0  0  0  0  0  0  0  0
   18.4663  -19.6181    8.8583 C   0  0  0  0  0  0  0  0  0  0  0  0
   17.3692  -20.3799    9.3034 O   0  0  0  0  0  0  0  0  0  0  0  0
   19.1970  -19.1604    9.7611 O   0  0  0  0  0  0  0  0  0  0  0  0
  2  4  1  0
  2  1  1  1
  3  2  1  0
  4  6  1  0
  4  5  1  6
  6  7  2  0
  9  8  1  1
  9 10  1  0
 12 11  1  1
 11  9  1  0
 12 14  1  0
 13  6  1  0
 13 12  1  0
 14 15  2  0
 16 14  1  0
 16 17  1  0
 18 17  1  0
 19 18  1  0
 20 19  1  0
 20 16  1  0
 21 22  1  0
 20 21  1  1
 23 21  2  0
M  END
$$$$
