TLP.pdb
     RDKit          3D

 23 23  0  0  1  0  0  0  0  0999 V2000
   23.3206  -19.8755  -10.3756 C   0  0  0  0  0  0  0  0  0  0  0  0
   24.1888  -20.6706  -11.2982 C   0  0  1  0  0  0  0  0  0  0  0  0
   23.7953  -20.4720  -12.6254 O   0  0  0  0  0  0  0  0  0  0  0  0
   25.6538  -20.3240  -11.1810 C   0  0  2  0  0  0  0  0  0  0  0  0
   26.3611  -21.1174  -12.1564 N   0  0  0  0  0  0  0  0  0  0  0  0
   26.1604  -20.7013   -9.8274 C   0  0  0  0  0  0  0  0  0  0  0  0
   26.3847  -21.9410   -9.6037 O   0  0  0  0  0  0  0  0  0  0  0  0
   29.4273  -20.3919   -5.3459 C   0  0  0  0  0  0  0  0  0  0  0  0
   28.1889  -19.4925   -5.4215 C   0  0  1  0  0  0  0  0  0  0  0  0
   28.7681  -18.0957   -4.9956 C   0  0  0  0  0  0  0  0  0  0  0  0
   27.7239  -19.3090   -6.8203 C   0  0  0  0  0  0  0  0  0  0  0  0
   26.7014  -20.1661   -7.3853 C   0  0  2  0  0  0  0  0  0  0  0  0
   26.4014  -19.7855   -8.7989 N   0  0  0  0  0  0  0  0  0  0  0  0
   25.5470  -20.7380   -6.7856 C   0  0  0  0  0  0  0  0  0  0  0  0
   24.5503  -19.8316   -6.7211 O   0  0  0  0  0  0  0  0  0  0  0  0
   25.1472  -21.9639   -6.2431 N   0  0  0  0  0  0  0  0  0  0  0  0
   25.8154  -23.2368   -6.3934 C   0  0  0  0  0  0  0  0  0  0  0  0
   25.1299  -24.2446   -5.5180 C   0  0  0  0  0  0  0  0  0  0  0  0
   24.3403  -23.4081   -4.5911 C   0  0  0  0  0  0  0  0  0  0  0  0
   23.9622  -22.1930   -5.4518 C   0  0  1  0  0  0  0  0  0  0  0  0
   23.6366  -21.1428   -4.4635 C   0  0  0  0  0  0  0  0  0  0  0  0
   22.3969  -21.2381   -3.8032 O   0  0  0  0  0  0  0  0  0  0  0  0
   24.3396  -20.1647   -4.1358 O   0  0  0  0  0  0  0  0  0  0  0  0
  2  4  1  0
  2  1  1  1
  3  2  1  0
  4  6  1  0
  4  5  1  6
  6  7  2  0
  9  8  1  6
  9 10  1  0
 12 11  1  1
 11  9  1  0
 12 14  1  0
 13  6  1  0
 13 12  1  0
 14 15  2  0
 16 14  1  0
 16 17  1  0
 18 17  1  0
 19 18  1  0
 20 19  1  0
 20 16  1  0
 21 22  1  0
 20 21  1  1
 23 21  2  0
M  END
$$$$
