KGF.pdb
     RDKit          3D

 25 25  0  0  1  0  0  0  0  0999 V2000
   25.7092  -18.7780  -13.1531 N   0  0  0  0  0  0  0  0  0  0  0  0
   25.8946  -19.9388  -13.9284 C   0  0  1  0  0  0  0  0  0  0  0  0
   26.2723  -19.8494  -15.3398 C   0  0  0  0  0  0  0  0  0  0  0  0
   25.5140  -19.1547  -16.3601 C   0  0  0  0  0  0  0  0  0  0  0  0
   25.5096  -17.7380  -16.6593 C   0  0  0  0  0  0  0  0  0  0  0  0
   24.6697  -17.1516  -17.7274 C   0  0  0  0  0  0  0  0  0  0  0  0
   24.8206  -15.6567  -17.7071 N   0  0  0  0  0  0  0  0  0  0  0  0
   26.9745  -20.7573  -13.2430 C   0  0  0  0  0  0  0  0  0  0  0  0
   27.0669  -21.9789  -13.4823 O   0  0  0  0  0  0  0  0  0  0  0  0
   27.8865  -20.1643  -12.3318 N   0  0  0  0  0  0  0  0  0  0  0  0
   28.6101  -21.0179  -11.4579 C   0  0  0  0  0  0  0  0  0  0  0  0
   28.0409  -21.2270  -10.1272 C   0  0  0  0  0  0  0  0  0  0  0  0
   28.4561  -22.1987   -9.4002 O   0  0  0  0  0  0  0  0  0  0  0  0
   27.0334  -20.4408   -9.5176 N   0  0  0  0  0  0  0  0  0  0  0  0
   26.4068  -20.8007   -8.2588 C   0  0  1  0  0  0  0  0  0  0  0  0
   26.4784  -19.6726   -7.2726 C   0  0  0  0  0  0  0  0  0  0  0  0
   27.7008  -19.6485   -6.4808 C   0  0  0  0  0  0  0  0  0  0  0  0
   28.0324  -20.6687   -5.6208 C   0  0  0  0  0  0  0  0  0  0  0  0
   29.2039  -20.6042   -4.9066 C   0  0  0  0  0  0  0  0  0  0  0  0
   30.0714  -19.5375   -5.0230 C   0  0  0  0  0  0  0  0  0  0  0  0
   29.7236  -18.5234   -5.8896 C   0  0  0  0  0  0  0  0  0  0  0  0
   28.5542  -18.5729   -6.6120 C   0  0  0  0  0  0  0  0  0  0  0  0
   25.0553  -21.3556   -8.4571 C   0  0  0  0  0  0  0  0  0  0  0  0
   24.5710  -21.3917   -9.6104 O   0  0  0  0  0  0  0  0  0  0  0  0
   24.3256  -21.8308   -7.4063 O   0  0  0  0  0  0  0  0  0  0  0  0
  2  1  1  1
  2  8  1  0
  3  2  1  0
  3  4  1  0
  4  5  1  0
  5  6  1  0
  6  7  1  0
  8  9  2  0
 10 11  1  0
 10  8  1  0
 11 12  1  0
 12 13  2  0
 12 14  1  0
 14 15  1  0
 15 23  1  0
 15 16  1  1
 17 16  1  0
 17 18  2  0
 19 18  1  0
 20 19  2  0
 21 22  2  0
 21 20  1  0
 22 17  1  0
 23 25  1  0
 24 23  2  0
M  END
$$$$
