KGF.pdb
     RDKit          3D

 25 25  0  0  1  0  0  0  0  0999 V2000
   28.9866  -32.3141  -18.8167 N   0  0  0  0  0  0  0  0  0  0  0  0
   29.0868  -31.0281  -18.2517 C   0  0  1  0  0  0  0  0  0  0  0  0
   28.1493  -29.9671  -18.6232 C   0  0  0  0  0  0  0  0  0  0  0  0
   26.9542  -30.1561  -19.4200 C   0  0  0  0  0  0  0  0  0  0  0  0
   25.5954  -29.7765  -19.0945 C   0  0  0  0  0  0  0  0  0  0  0  0
   24.4400  -30.1451  -19.9428 C   0  0  0  0  0  0  0  0  0  0  0  0
   23.1801  -29.6232  -19.3118 N   0  0  0  0  0  0  0  0  0  0  0  0
   28.9723  -31.1989  -16.7472 C   0  0  0  0  0  0  0  0  0  0  0  0
   29.1162  -30.2079  -16.0019 O   0  0  0  0  0  0  0  0  0  0  0  0
   28.7041  -32.4646  -16.1642 N   0  0  0  0  0  0  0  0  0  0  0  0
   28.2778  -32.5013  -14.8104 C   0  0  0  0  0  0  0  0  0  0  0  0
   26.8678  -32.8106  -14.5763 C   0  0  0  0  0  0  0  0  0  0  0  0
   26.0903  -33.0397  -15.5704 O   0  0  0  0  0  0  0  0  0  0  0  0
   26.2294  -32.8906  -13.3151 N   0  0  0  0  0  0  0  0  0  0  0  0
   24.8853  -33.4112  -13.1438 C   0  0  1  0  0  0  0  0  0  0  0  0
   24.7345  -34.1054  -11.8226 C   0  0  0  0  0  0  0  0  0  0  0  0
   25.0655  -33.2765  -10.6714 C   0  0  0  0  0  0  0  0  0  0  0  0
   24.1159  -32.5328  -10.0115 C   0  0  0  0  0  0  0  0  0  0  0  0
   24.4774  -31.7778   -8.9225 C   0  0  0  0  0  0  0  0  0  0  0  0
   25.7771  -31.7387   -8.4610 C   0  0  0  0  0  0  0  0  0  0  0  0
   26.7164  -32.4903   -9.1342 C   0  0  0  0  0  0  0  0  0  0  0  0
   26.3707  -33.2515  -10.2263 C   0  0  0  0  0  0  0  0  0  0  0  0
   23.8607  -32.3871  -13.4178 C   0  0  0  0  0  0  0  0  0  0  0  0
   24.2149  -31.2027  -13.6118 O   0  0  0  0  0  0  0  0  0  0  0  0
   22.5353  -32.7088  -13.4646 O   0  0  0  0  0  0  0  0  0  0  0  0
  2  1  1  6
  2  8  1  0
  3  2  1  0
  3  4  1  0
  4  5  1  0
  5  6  1  0
  6  7  1  0
  8  9  2  0
 10 11  1  0
 10  8  1  0
 11 12  1  0
 12 13  2  0
 12 14  1  0
 14 15  1  0
 15 23  1  0
 15 16  1  1
 17 16  1  0
 17 18  2  0
 19 18  1  0
 20 19  2  0
 21 22  2  0
 21 20  1  0
 22 17  1  0
 23 25  1  0
 24 23  2  0
M  END
$$$$
