KGF.pdb
     RDKit          3D

 25 25  0  0  1  0  0  0  0  0999 V2000
   27.9047  -22.0538  -15.2267 N   0  0  0  0  0  0  0  0  0  0  0  0
   27.1268  -20.8800  -15.2319 C   0  0  1  0  0  0  0  0  0  0  0  0
   25.6962  -20.9259  -15.5389 C   0  0  0  0  0  0  0  0  0  0  0  0
   24.8196  -22.0419  -15.2477 C   0  0  0  0  0  0  0  0  0  0  0  0
   25.0428  -23.1346  -14.3243 C   0  0  0  0  0  0  0  0  0  0  0  0
   24.0587  -24.2215  -14.1229 C   0  0  0  0  0  0  0  0  0  0  0  0
   24.7708  -25.5440  -14.1654 N   0  0  0  0  0  0  0  0  0  0  0  0
   27.2528  -20.2630  -13.8501 C   0  0  0  0  0  0  0  0  0  0  0  0
   26.5868  -19.2461  -13.5664 O   0  0  0  0  0  0  0  0  0  0  0  0
   28.1139  -20.8172  -12.8677 N   0  0  0  0  0  0  0  0  0  0  0  0
   28.1519  -20.2037  -11.5879 C   0  0  0  0  0  0  0  0  0  0  0  0
   27.2001  -20.7006  -10.5951 C   0  0  0  0  0  0  0  0  0  0  0  0
   26.6617  -21.8548  -10.7479 O   0  0  0  0  0  0  0  0  0  0  0  0
   26.7830  -20.0205   -9.4255 N   0  0  0  0  0  0  0  0  0  0  0  0
   25.8326  -20.5828   -8.4835 C   0  0  1  0  0  0  0  0  0  0  0  0
   25.9003  -19.8831   -7.1583 C   0  0  0  0  0  0  0  0  0  0  0  0
   27.2032  -19.9552   -6.5109 C   0  0  0  0  0  0  0  0  0  0  0  0
   27.6185  -21.0761   -5.8316 C   0  0  0  0  0  0  0  0  0  0  0  0
   28.8625  -21.0984   -5.2499 C   0  0  0  0  0  0  0  0  0  0  0  0
   29.7219  -20.0213   -5.3240 C   0  0  0  0  0  0  0  0  0  0  0  0
   29.2897  -18.9058   -6.0088 C   0  0  0  0  0  0  0  0  0  0  0  0
   28.0469  -18.8675   -6.5969 C   0  0  0  0  0  0  0  0  0  0  0  0
   24.4782  -20.6747   -9.0588 C   0  0  0  0  0  0  0  0  0  0  0  0
   24.2207  -20.0641  -10.1203 O   0  0  0  0  0  0  0  0  0  0  0  0
   23.5030  -21.4141   -8.4550 O   0  0  0  0  0  0  0  0  0  0  0  0
  2  1  1  1
  2  8  1  0
  3  2  1  0
  3  4  1  0
  4  5  1  0
  5  6  1  0
  6  7  1  0
  8  9  2  0
 10 11  1  0
 10  8  1  0
 11 12  1  0
 12 13  2  0
 12 14  1  0
 14 15  1  0
 15 23  1  0
 15 16  1  1
 17 16  1  0
 17 18  2  0
 19 18  1  0
 20 19  2  0
 21 22  2  0
 21 20  1  0
 22 17  1  0
 23 25  1  0
 24 23  2  0
M  END
$$$$
