KGF.pdb
     RDKit          3D

 25 25  0  0  1  0  0  0  0  0999 V2000
   24.8208  -20.5069  -15.1251 N   0  0  0  0  0  0  0  0  0  0  0  0
   25.3608  -21.7708  -14.8186 C   0  0  1  0  0  0  0  0  0  0  0  0
   25.8868  -22.6407  -15.8718 C   0  0  0  0  0  0  0  0  0  0  0  0
   25.1521  -23.7174  -16.5039 C   0  0  0  0  0  0  0  0  0  0  0  0
   24.0662  -24.5006  -15.9526 C   0  0  0  0  0  0  0  0  0  0  0  0
   23.3798  -25.5631  -16.7209 C   0  0  0  0  0  0  0  0  0  0  0  0
   22.3725  -26.2390  -15.8341 N   0  0  0  0  0  0  0  0  0  0  0  0
   26.5000  -21.5369  -13.8420 C   0  0  0  0  0  0  0  0  0  0  0  0
   27.4066  -20.7305  -14.1348 O   0  0  0  0  0  0  0  0  0  0  0  0
   26.5596  -22.2165  -12.5977 N   0  0  0  0  0  0  0  0  0  0  0  0
   27.2680  -21.6013  -11.5322 C   0  0  0  0  0  0  0  0  0  0  0  0
   26.5129  -21.3433  -10.3067 C   0  0  0  0  0  0  0  0  0  0  0  0
   25.2305  -21.3509  -10.3329 O   0  0  0  0  0  0  0  0  0  0  0  0
   27.0616  -21.0723   -9.0300 N   0  0  0  0  0  0  0  0  0  0  0  0
   26.2437  -20.7895   -7.8647 C   0  0  1  0  0  0  0  0  0  0  0  0
   26.8023  -21.4434   -6.6355 C   0  0  0  0  0  0  0  0  0  0  0  0
   27.8427  -20.6717   -5.9691 C   0  0  0  0  0  0  0  0  0  0  0  0
   27.5475  -19.6716   -5.0731 C   0  0  0  0  0  0  0  0  0  0  0  0
   28.5660  -18.9824   -4.4613 C   0  0  0  0  0  0  0  0  0  0  0  0
   29.8928  -19.2619   -4.7175 C   0  0  0  0  0  0  0  0  0  0  0  0
   30.1709  -20.2675   -5.6183 C   0  0  0  0  0  0  0  0  0  0  0  0
   29.1626  -20.9671   -6.2394 C   0  0  0  0  0  0  0  0  0  0  0  0
   25.9722  -19.3475   -7.7212 C   0  0  0  0  0  0  0  0  0  0  0  0
   24.9616  -18.9749   -7.0841 O   0  0  0  0  0  0  0  0  0  0  0  0
   26.8034  -18.4142   -8.2691 O   0  0  0  0  0  0  0  0  0  0  0  0
  2  1  1  6
  2  8  1  0
  3  2  1  0
  3  4  1  0
  4  5  1  0
  5  6  1  0
  6  7  1  0
  8  9  2  0
 10 11  1  0
 10  8  1  0
 11 12  1  0
 12 13  2  0
 12 14  1  0
 14 15  1  0
 15 23  1  0
 15 16  1  1
 17 16  1  0
 17 18  2  0
 19 18  1  0
 20 19  2  0
 21 22  2  0
 21 20  1  0
 22 17  1  0
 23 25  1  0
 24 23  2  0
M  END
$$$$
