KGF.pdb
     RDKit          3D

 25 25  0  0  1  0  0  0  0  0999 V2000
   29.0642  -21.7025  -17.9873 N   0  0  0  0  0  0  0  0  0  0  0  0
   28.1089  -20.7306  -17.6324 C   0  0  1  0  0  0  0  0  0  0  0  0
   26.6998  -20.8922  -17.9943 C   0  0  0  0  0  0  0  0  0  0  0  0
   26.1597  -20.7206  -19.3275 C   0  0  0  0  0  0  0  0  0  0  0  0
   25.9686  -19.4869  -20.0610 C   0  0  0  0  0  0  0  0  0  0  0  0
   25.3296  -19.4438  -21.3952 C   0  0  0  0  0  0  0  0  0  0  0  0
   25.2828  -18.0197  -21.8724 N   0  0  0  0  0  0  0  0  0  0  0  0
   28.1547  -20.6010  -16.1201 C   0  0  0  0  0  0  0  0  0  0  0  0
   28.5180  -21.5749  -15.4290 O   0  0  0  0  0  0  0  0  0  0  0  0
   27.7926  -19.3930  -15.4694 N   0  0  0  0  0  0  0  0  0  0  0  0
   27.8496  -19.3533  -14.0513 C   0  0  0  0  0  0  0  0  0  0  0  0
   26.7528  -20.0018  -13.3337 C   0  0  0  0  0  0  0  0  0  0  0  0
   25.7109  -20.3888  -13.9739 O   0  0  0  0  0  0  0  0  0  0  0  0
   26.7057  -20.2653  -11.9434 N   0  0  0  0  0  0  0  0  0  0  0  0
   25.6712  -21.0778  -11.3299 C   0  0  1  0  0  0  0  0  0  0  0  0
   26.2049  -21.8434  -10.1554 C   0  0  0  0  0  0  0  0  0  0  0  0
   26.7655  -21.0072   -9.1025 C   0  0  0  0  0  0  0  0  0  0  0  0
   28.1211  -20.9032   -8.8985 C   0  0  0  0  0  0  0  0  0  0  0  0
   28.5995  -20.0902   -7.9001 C   0  0  0  0  0  0  0  0  0  0  0  0
   27.7565  -19.3642   -7.0837 C   0  0  0  0  0  0  0  0  0  0  0  0
   26.4004  -19.4802   -7.3021 C   0  0  0  0  0  0  0  0  0  0  0  0
   25.9053  -20.2900   -8.2975 C   0  0  0  0  0  0  0  0  0  0  0  0
   24.4533  -20.2959  -11.0487 C   0  0  0  0  0  0  0  0  0  0  0  0
   24.5277  -19.0484  -10.9831 O   0  0  0  0  0  0  0  0  0  0  0  0
   23.2484  -20.9083  -10.8604 O   0  0  0  0  0  0  0  0  0  0  0  0
  2  1  1  1
  2  8  1  0
  3  2  1  0
  3  4  1  0
  4  5  1  0
  5  6  1  0
  6  7  1  0
  8  9  2  0
 10 11  1  0
 10  8  1  0
 11 12  1  0
 12 13  2  0
 12 14  1  0
 14 15  1  0
 15 23  1  0
 15 16  1  1
 17 16  1  0
 17 18  2  0
 19 18  1  0
 20 19  2  0
 21 22  2  0
 21 20  1  0
 22 17  1  0
 23 25  1  0
 24 23  2  0
M  END
$$$$
