KGF.pdb
     RDKit          3D

 25 25  0  0  1  0  0  0  0  0999 V2000
   21.0780  -18.0422  -15.3241 N   0  0  0  0  0  0  0  0  0  0  0  0
   20.1471  -19.0918  -15.2021 C   0  0  1  0  0  0  0  0  0  0  0  0
   19.6757  -19.8212  -16.3804 C   0  0  0  0  0  0  0  0  0  0  0  0
   19.9910  -19.4765  -17.7517 C   0  0  0  0  0  0  0  0  0  0  0  0
   21.2637  -19.0497  -18.2945 C   0  0  0  0  0  0  0  0  0  0  0  0
   21.4759  -18.8182  -19.7407 C   0  0  0  0  0  0  0  0  0  0  0  0
   22.9144  -18.4521  -19.9745 N   0  0  0  0  0  0  0  0  0  0  0  0
   20.7659  -20.1227  -14.2746 C   0  0  0  0  0  0  0  0  0  0  0  0
   20.2922  -21.2767  -14.2324 O   0  0  0  0  0  0  0  0  0  0  0  0
   21.8760  -19.8045  -13.4498 N   0  0  0  0  0  0  0  0  0  0  0  0
   22.9972  -20.6753  -13.4710 C   0  0  0  0  0  0  0  0  0  0  0  0
   24.2893  -20.0713  -13.7937 C   0  0  0  0  0  0  0  0  0  0  0  0
   24.3344  -18.9035  -14.3224 O   0  0  0  0  0  0  0  0  0  0  0  0
   25.5607  -20.6561  -13.5789 N   0  0  0  0  0  0  0  0  0  0  0  0
   26.7868  -20.0961  -14.1173 C   0  0  1  0  0  0  0  0  0  0  0  0
   27.6418  -19.5125  -13.0316 C   0  0  0  0  0  0  0  0  0  0  0  0
   27.6816  -20.3068  -11.8112 C   0  0  0  0  0  0  0  0  0  0  0  0
   26.5849  -20.4417  -10.9931 C   0  0  0  0  0  0  0  0  0  0  0  0
   26.6708  -21.2133   -9.8601 C   0  0  0  0  0  0  0  0  0  0  0  0
   27.8342  -21.8668   -9.5089 C   0  0  0  0  0  0  0  0  0  0  0  0
   28.9241  -21.7209  -10.3403 C   0  0  0  0  0  0  0  0  0  0  0  0
   28.8545  -20.9518  -11.4784 C   0  0  0  0  0  0  0  0  0  0  0  0
   27.4842  -21.0488  -15.0004 C   0  0  0  0  0  0  0  0  0  0  0  0
   27.0657  -22.2251  -15.0846 O   0  0  0  0  0  0  0  0  0  0  0  0
   28.5755  -20.6698  -15.7268 O   0  0  0  0  0  0  0  0  0  0  0  0
  2  1  1  6
  2  8  1  0
  3  2  1  0
  3  4  1  0
  4  5  1  0
  5  6  1  0
  6  7  1  0
  8  9  2  0
 10 11  1  0
 10  8  1  0
 11 12  1  0
 12 13  2  0
 12 14  1  0
 14 15  1  0
 15 23  1  0
 15 16  1  1
 17 16  1  0
 17 18  2  0
 19 18  1  0
 20 19  2  0
 21 22  2  0
 21 20  1  0
 22 17  1  0
 23 25  1  0
 24 23  2  0
M  END
$$$$
