KGF.pdb
     RDKit          3D

 25 25  0  0  1  0  0  0  0  0999 V2000
   25.6437  -17.6881  -15.2415 N   0  0  0  0  0  0  0  0  0  0  0  0
   26.8413  -17.9271  -15.9427 C   0  0  1  0  0  0  0  0  0  0  0  0
   27.9137  -16.9310  -15.9632 C   0  0  0  0  0  0  0  0  0  0  0  0
   27.8460  -15.6514  -16.6390 C   0  0  0  0  0  0  0  0  0  0  0  0
   27.3195  -15.3651  -17.9571 C   0  0  0  0  0  0  0  0  0  0  0  0
   27.3140  -14.0025  -18.5344 C   0  0  0  0  0  0  0  0  0  0  0  0
   26.7076  -14.0526  -19.9083 N   0  0  0  0  0  0  0  0  0  0  0  0
   27.4420  -19.1972  -15.3666 C   0  0  0  0  0  0  0  0  0  0  0  0
   28.6590  -19.4280  -15.5206 O   0  0  0  0  0  0  0  0  0  0  0  0
   26.6494  -20.1336  -14.6535 N   0  0  0  0  0  0  0  0  0  0  0  0
   27.2514  -21.3575  -14.2591 C   0  0  0  0  0  0  0  0  0  0  0  0
   27.1082  -21.7344  -12.8534 C   0  0  0  0  0  0  0  0  0  0  0  0
   27.5401  -22.8728  -12.4500 O   0  0  0  0  0  0  0  0  0  0  0  0
   26.5180  -20.9481  -11.8346 N   0  0  0  0  0  0  0  0  0  0  0  0
   25.5194  -21.4666  -10.9178 C   0  0  1  0  0  0  0  0  0  0  0  0
   26.1544  -22.0170   -9.6751 C   0  0  0  0  0  0  0  0  0  0  0  0
   26.7809  -21.0105   -8.8287 C   0  0  0  0  0  0  0  0  0  0  0  0
   26.0509  -20.0289   -8.2012 C   0  0  0  0  0  0  0  0  0  0  0  0
   26.6883  -19.1112   -7.4025 C   0  0  0  0  0  0  0  0  0  0  0  0
   28.0536  -19.1397   -7.2047 C   0  0  0  0  0  0  0  0  0  0  0  0
   28.7702  -20.1304   -7.8413 C   0  0  0  0  0  0  0  0  0  0  0  0
   28.1470  -21.0569   -8.6445 C   0  0  0  0  0  0  0  0  0  0  0  0
   24.4396  -20.4928  -10.6737 C   0  0  0  0  0  0  0  0  0  0  0  0
   24.5432  -19.3346  -11.1361 O   0  0  0  0  0  0  0  0  0  0  0  0
   23.3308  -20.8329   -9.9545 O   0  0  0  0  0  0  0  0  0  0  0  0
  2  1  1  1
  2  8  1  0
  3  2  1  0
  3  4  1  0
  4  5  1  0
  5  6  1  0
  6  7  1  0
  8  9  2  0
 10 11  1  0
 10  8  1  0
 11 12  1  0
 12 13  2  0
 12 14  1  0
 14 15  1  0
 15 23  1  0
 15 16  1  1
 17 16  1  0
 17 18  2  0
 19 18  1  0
 20 19  2  0
 21 22  2  0
 21 20  1  0
 22 17  1  0
 23 25  1  0
 24 23  2  0
M  END
$$$$
