KGF.pdb
     RDKit          3D

 25 25  0  0  1  0  0  0  0  0999 V2000
   27.9733  -18.9655  -16.5211 N   0  0  0  0  0  0  0  0  0  0  0  0
   27.1227  -20.0743  -16.3476 C   0  0  1  0  0  0  0  0  0  0  0  0
   26.6067  -20.4277  -15.0241 C   0  0  0  0  0  0  0  0  0  0  0  0
   27.4038  -20.5134  -13.8175 C   0  0  0  0  0  0  0  0  0  0  0  0
   26.9737  -20.8970  -12.4891 C   0  0  0  0  0  0  0  0  0  0  0  0
   27.8414  -20.7556  -11.2987 C   0  0  0  0  0  0  0  0  0  0  0  0
   27.0005  -20.8790  -10.0595 N   0  0  0  0  0  0  0  0  0  0  0  0
   25.9128  -19.8435  -17.2358 C   0  0  0  0  0  0  0  0  0  0  0  0
   25.7052  -18.7082  -17.7111 O   0  0  0  0  0  0  0  0  0  0  0  0
   25.0072  -20.8927  -17.5404 N   0  0  0  0  0  0  0  0  0  0  0  0
   23.8715  -20.5870  -18.3357 C   0  0  0  0  0  0  0  0  0  0  0  0
   22.6917  -20.0905  -17.6286 C   0  0  0  0  0  0  0  0  0  0  0  0
   21.7065  -20.8787  -17.3977 O   0  0  0  0  0  0  0  0  0  0  0  0
   22.5016  -18.7734  -17.1450 N   0  0  0  0  0  0  0  0  0  0  0  0
   21.2969  -18.3546  -16.4520 C   0  0  1  0  0  0  0  0  0  0  0  0
   21.5927  -17.9616  -15.0348 C   0  0  0  0  0  0  0  0  0  0  0  0
   21.9475  -19.0769  -14.1675 C   0  0  0  0  0  0  0  0  0  0  0  0
   23.2505  -19.3434  -13.8191 C   0  0  0  0  0  0  0  0  0  0  0  0
   23.5309  -20.3996  -12.9871 C   0  0  0  0  0  0  0  0  0  0  0  0
   22.5381  -21.2137  -12.4816 C   0  0  0  0  0  0  0  0  0  0  0  0
   21.2373  -20.9324  -12.8411 C   0  0  0  0  0  0  0  0  0  0  0  0
   20.9398  -19.8785  -13.6733 C   0  0  0  0  0  0  0  0  0  0  0  0
   20.5423  -17.3486  -17.2216 C   0  0  0  0  0  0  0  0  0  0  0  0
   21.1304  -16.6852  -18.1047 O   0  0  0  0  0  0  0  0  0  0  0  0
   19.2156  -17.1302  -16.9883 O   0  0  0  0  0  0  0  0  0  0  0  0
  2  1  1  1
  2  8  1  0
  3  2  1  0
  3  4  1  0
  4  5  1  0
  5  6  1  0
  6  7  1  0
  8  9  2  0
 10 11  1  0
 10  8  1  0
 11 12  1  0
 12 13  2  0
 12 14  1  0
 14 15  1  0
 15 23  1  0
 15 16  1  1
 17 16  1  0
 17 18  2  0
 19 18  1  0
 20 19  2  0
 21 22  2  0
 21 20  1  0
 22 17  1  0
 23 25  1  0
 24 23  2  0
M  END
$$$$
