KGF.pdb
     RDKit          3D

 25 25  0  0  1  0  0  0  0  0999 V2000
   23.2140  -21.6499  -13.5163 N   0  0  0  0  0  0  0  0  0  0  0  0
   24.0670  -20.5356  -13.6328 C   0  0  1  0  0  0  0  0  0  0  0  0
   23.5247  -19.1847  -13.7871 C   0  0  0  0  0  0  0  0  0  0  0  0
   22.7524  -18.7245  -14.9231 C   0  0  0  0  0  0  0  0  0  0  0  0
   22.2998  -17.3790  -15.2084 C   0  0  0  0  0  0  0  0  0  0  0  0
   21.4102  -17.0622  -16.3478 C   0  0  0  0  0  0  0  0  0  0  0  0
   20.8673  -15.6716  -16.1763 N   0  0  0  0  0  0  0  0  0  0  0  0
   24.9340  -20.5135  -12.3863 C   0  0  0  0  0  0  0  0  0  0  0  0
   24.4983  -21.0030  -11.3240 O   0  0  0  0  0  0  0  0  0  0  0  0
   26.2350  -19.9468  -12.3995 N   0  0  0  0  0  0  0  0  0  0  0  0
   27.3415  -20.8051  -12.1652 C   0  0  0  0  0  0  0  0  0  0  0  0
   27.5943  -21.1825  -10.7751 C   0  0  0  0  0  0  0  0  0  0  0  0
   28.5438  -21.9990  -10.4974 O   0  0  0  0  0  0  0  0  0  0  0  0
   26.8758  -20.7278   -9.6431 N   0  0  0  0  0  0  0  0  0  0  0  0
   27.0106  -21.3309   -8.3297 C   0  0  1  0  0  0  0  0  0  0  0  0
   28.3911  -21.1312   -7.7778 C   0  0  0  0  0  0  0  0  0  0  0  0
   28.4328  -20.3772   -6.5321 C   0  0  0  0  0  0  0  0  0  0  0  0
   28.3790  -19.0036   -6.5093 C   0  0  0  0  0  0  0  0  0  0  0  0
   28.4081  -18.3404   -5.3069 C   0  0  0  0  0  0  0  0  0  0  0  0
   28.4905  -19.0128   -4.1047 C   0  0  0  0  0  0  0  0  0  0  0  0
   28.5435  -20.3897   -4.1458 C   0  0  0  0  0  0  0  0  0  0  0  0
   28.5154  -21.0687   -5.3416 C   0  0  0  0  0  0  0  0  0  0  0  0
   25.9233  -20.9201   -7.4226 C   0  0  0  0  0  0  0  0  0  0  0  0
   25.2302  -19.9189   -7.7111 O   0  0  0  0  0  0  0  0  0  0  0  0
   25.6597  -21.6127   -6.2767 O   0  0  0  0  0  0  0  0  0  0  0  0
  2  1  1  1
  2  8  1  0
  3  2  1  0
  3  4  1  0
  4  5  1  0
  5  6  1  0
  6  7  1  0
  8  9  2  0
 10 11  1  0
 10  8  1  0
 11 12  1  0
 12 13  2  0
 12 14  1  0
 14 15  1  0
 15 23  1  0
 15 16  1  1
 17 16  1  0
 17 18  2  0
 19 18  1  0
 20 19  2  0
 21 22  2  0
 21 20  1  0
 22 17  1  0
 23 25  1  0
 24 23  2  0
M  END
$$$$
