KGF.pdb
     RDKit          3D

 25 25  0  0  1  0  0  0  0  0999 V2000
   26.2467  -21.3531  -15.0213 N   0  0  0  0  0  0  0  0  0  0  0  0
   24.8486  -21.2567  -14.8838 C   0  0  1  0  0  0  0  0  0  0  0  0
   23.9920  -22.4309  -15.0573 C   0  0  0  0  0  0  0  0  0  0  0  0
   24.1962  -23.4691  -16.0467 C   0  0  0  0  0  0  0  0  0  0  0  0
   25.3843  -23.7328  -16.8314 C   0  0  0  0  0  0  0  0  0  0  0  0
   25.4187  -24.7461  -17.9094 C   0  0  0  0  0  0  0  0  0  0  0  0
   26.7702  -24.7205  -18.5658 N   0  0  0  0  0  0  0  0  0  0  0  0
   24.5798  -20.7282  -13.4858 C   0  0  0  0  0  0  0  0  0  0  0  0
   23.4028  -20.5516  -13.1097 O   0  0  0  0  0  0  0  0  0  0  0  0
   25.6398  -20.4286  -12.5912 N   0  0  0  0  0  0  0  0  0  0  0  0
   25.3158  -19.8271  -11.3467 C   0  0  0  0  0  0  0  0  0  0  0  0
   25.7858  -20.5151  -10.1449 C   0  0  0  0  0  0  0  0  0  0  0  0
   26.6032  -21.4980  -10.2499 O   0  0  0  0  0  0  0  0  0  0  0  0
   25.4245  -20.2059   -8.8113 N   0  0  0  0  0  0  0  0  0  0  0  0
   26.3126  -20.4227   -7.6839 C   0  0  1  0  0  0  0  0  0  0  0  0
   27.2242  -19.2497   -7.4752 C   0  0  0  0  0  0  0  0  0  0  0  0
   28.0536  -19.3430   -6.2813 C   0  0  0  0  0  0  0  0  0  0  0  0
   27.5476  -19.1180   -5.0228 C   0  0  0  0  0  0  0  0  0  0  0  0
   28.3689  -19.2320   -3.9278 C   0  0  0  0  0  0  0  0  0  0  0  0
   29.7016  -19.5689   -4.0474 C   0  0  0  0  0  0  0  0  0  0  0  0
   30.1925  -19.7911   -5.3163 C   0  0  0  0  0  0  0  0  0  0  0  0
   29.3832  -19.6809   -6.4230 C   0  0  0  0  0  0  0  0  0  0  0  0
   25.5769  -20.8481   -6.4791 C   0  0  0  0  0  0  0  0  0  0  0  0
   26.1338  -21.6119   -5.6591 O   0  0  0  0  0  0  0  0  0  0  0  0
   24.3019  -20.4228   -6.2430 O   0  0  0  0  0  0  0  0  0  0  0  0
  2  1  1  1
  2  8  1  0
  3  2  1  0
  3  4  1  0
  4  5  1  0
  5  6  1  0
  6  7  1  0
  8  9  2  0
 10 11  1  0
 10  8  1  0
 11 12  1  0
 12 13  2  0
 12 14  1  0
 14 15  1  0
 15 23  1  0
 15 16  1  1
 17 16  1  0
 17 18  2  0
 19 18  1  0
 20 19  2  0
 21 22  2  0
 21 20  1  0
 22 17  1  0
 23 25  1  0
 24 23  2  0
M  END
$$$$
