PPD.pdb
     RDKit          3D

 23 24  0  0  1  0  0  0  0  0999 V2000
    8.3836  -13.9722   21.0588 N   0  0  0  0  0  0  0  0  0  0  0  0
    7.8004  -14.9313   20.1781 C   0  0  0  0  0  0  0  0  0  0  0  0
    6.7879  -15.7064   20.9650 C   0  0  0  0  0  0  0  0  0  0  0  0
    6.6025  -14.9666   22.2499 C   0  0  0  0  0  0  0  0  0  0  0  0
    7.6251  -13.8708   22.2575 C   0  0  1  0  0  0  0  0  0  0  0  0
    8.4325  -13.9676   23.5026 C   0  0  0  0  0  0  0  0  0  0  0  0
    9.6538  -14.3017   23.4704 O   0  0  0  0  0  0  0  0  0  0  0  0
    7.8709  -13.6894   24.7983 N   0  0  0  0  0  0  0  0  0  0  0  0
    6.4971  -13.4001   25.0237 C   0  0  0  0  0  0  0  0  0  0  0  0
    6.3892  -13.0213   26.4801 C   0  0  0  0  0  0  0  0  0  0  0  0
    7.8390  -12.6717   26.8754 C   0  0  0  0  0  0  0  0  0  0  0  0
    8.5763  -13.6622   26.0456 C   0  0  1  0  0  0  0  0  0  0  0  0
    8.7064  -15.0010   26.6663 C   0  0  0  0  0  0  0  0  0  0  0  0
    7.7708  -15.8599   26.6803 O   0  0  0  0  0  0  0  0  0  0  0  0
    9.9091  -15.3732   27.2796 N   0  0  0  0  0  0  0  0  0  0  0  0
   10.3451  -16.7659   27.4408 C   0  0  1  0  0  0  0  0  0  0  0  0
   11.6554  -17.0150   26.7984 C   0  0  0  0  0  0  0  0  0  0  0  0
   11.5519  -18.0402   25.7546 C   0  0  0  0  0  0  0  0  0  0  0  0
   10.4728  -18.6207   25.5306 O   0  0  0  0  0  0  0  0  0  0  0  0
   10.4697  -16.9937   28.9167 C   0  0  0  0  0  0  0  0  0  0  0  0
   10.4653  -18.2024   29.5532 O   0  0  0  0  0  0  0  0  0  0  0  0
   12.6314  -18.4261   24.9598 O   0  0  0  0  0  0  0  0  0  0  0  0
   10.5936  -15.9720   29.6843 O   0  0  0  0  0  0  0  0  0  0  0  0
  2  1  1  0
  3  2  1  0
  4  3  1  0
  4  5  1  0
  5  6  1  1
  5  1  1  0
  6  7  2  0
  8 12  1  0
  8  6  1  0
  9 10  1  0
  9  8  1  0
 10 11  1  0
 11 12  1  0
 13 15  1  0
 12 13  1  1
 14 13  2  0
 16 15  1  0
 16 17  1  6
 17 18  1  0
 18 19  2  0
 18 22  1  0
 20 16  1  0
 21 20  1  0
 23 20  2  0
M  END
$$$$
