PPD.pdb
     RDKit          3D

 23 24  0  0  1  0  0  0  0  0999 V2000
    8.0369  -16.9808   17.5977 N   0  0  0  0  0  0  0  0  0  0  0  0
    7.4722  -18.2222   17.1786 C   0  0  0  0  0  0  0  0  0  0  0  0
    6.7760  -18.8214   18.3624 C   0  0  0  0  0  0  0  0  0  0  0  0
    6.7120  -17.7458   19.3975 C   0  0  0  0  0  0  0  0  0  0  0  0
    7.5129  -16.5972   18.8628 C   0  0  1  0  0  0  0  0  0  0  0  0
    8.5456  -16.2168   19.8631 C   0  0  0  0  0  0  0  0  0  0  0  0
    9.7770  -16.4195   19.6469 O   0  0  0  0  0  0  0  0  0  0  0  0
    8.2005  -15.6042   21.1190 N   0  0  0  0  0  0  0  0  0  0  0  0
    6.8653  -15.3852   21.5562 C   0  0  0  0  0  0  0  0  0  0  0  0
    6.9751  -14.5867   22.8316 C   0  0  0  0  0  0  0  0  0  0  0  0
    8.4019  -14.0022   22.7755 C   0  0  0  0  0  0  0  0  0  0  0  0
    9.1142  -15.1294   22.1159 C   0  0  1  0  0  0  0  0  0  0  0  0
    9.5627  -16.1935   23.0438 C   0  0  0  0  0  0  0  0  0  0  0  0
    8.8271  -17.1646   23.4031 O   0  0  0  0  0  0  0  0  0  0  0  0
   10.8590  -16.1592   23.5726 N   0  0  0  0  0  0  0  0  0  0  0  0
   11.4907  -17.2942   24.2569 C   0  0  1  0  0  0  0  0  0  0  0  0
   12.9642  -17.1605   24.3089 C   0  0  0  0  0  0  0  0  0  0  0  0
   13.5476  -17.1564   22.9633 C   0  0  0  0  0  0  0  0  0  0  0  0
   13.1011  -17.8989   22.0684 O   0  0  0  0  0  0  0  0  0  0  0  0
   10.9470  -17.2920   25.6533 C   0  0  0  0  0  0  0  0  0  0  0  0
   11.0699  -18.2952   26.5722 O   0  0  0  0  0  0  0  0  0  0  0  0
   14.6187  -16.3386   22.6028 O   0  0  0  0  0  0  0  0  0  0  0  0
   10.2967  -16.2600   26.0541 O   0  0  0  0  0  0  0  0  0  0  0  0
  2  1  1  0
  3  2  1  0
  4  3  1  0
  4  5  1  0
  5  6  1  1
  5  1  1  0
  6  7  2  0
  8 12  1  0
  8  6  1  0
  9 10  1  0
  9  8  1  0
 10 11  1  0
 11 12  1  0
 13 15  1  0
 12 13  1  1
 14 13  2  0
 16 15  1  0
 16 17  1  1
 17 18  1  0
 18 19  2  0
 18 22  1  0
 20 16  1  0
 21 20  1  0
 23 20  2  0
M  END
$$$$
