PPD.pdb
     RDKit          3D

 23 24  0  0  1  0  0  0  0  0999 V2000
    8.2500  -14.2240   21.1600 N   0  0  0  0  0  0  0  0  0  0  0  0
    7.6497  -15.2234   20.3375 C   0  0  0  0  0  0  0  0  0  0  0  0
    6.7305  -16.0273   21.2059 C   0  0  0  0  0  0  0  0  0  0  0  0
    6.6032  -15.2731   22.4894 C   0  0  0  0  0  0  0  0  0  0  0  0
    7.5739  -14.1340   22.4079 C   0  0  1  0  0  0  0  0  0  0  0  0
    8.4705  -14.1730   23.5938 C   0  0  0  0  0  0  0  0  0  0  0  0
    9.6808  -14.5320   23.4919 O   0  0  0  0  0  0  0  0  0  0  0  0
    8.0114  -13.8081   24.9082 N   0  0  0  0  0  0  0  0  0  0  0  0
    6.6615  -13.4852   25.2175 C   0  0  0  0  0  0  0  0  0  0  0  0
    6.6680  -13.0171   26.6517 C   0  0  0  0  0  0  0  0  0  0  0  0
    8.1471  -12.6657   26.9150 C   0  0  0  0  0  0  0  0  0  0  0  0
    8.8093  -13.7157   26.0952 C   0  0  1  0  0  0  0  0  0  0  0  0
    8.9722  -15.0160   26.7859 C   0  0  0  0  0  0  0  0  0  0  0  0
    8.0205  -15.8383   26.9635 O   0  0  0  0  0  0  0  0  0  0  0  0
   10.2266  -15.3913   27.2826 N   0  0  0  0  0  0  0  0  0  0  0  0
   10.5040  -16.6972   27.8935 C   0  0  1  0  0  0  0  0  0  0  0  0
   11.8934  -17.1431   27.6428 C   0  0  0  0  0  0  0  0  0  0  0  0
   12.1036  -17.4644   26.2272 C   0  0  0  0  0  0  0  0  0  0  0  0
   11.4441  -16.8968   25.3359 O   0  0  0  0  0  0  0  0  0  0  0  0
   10.3038  -16.5170   29.3677 C   0  0  0  0  0  0  0  0  0  0  0  0
   10.2031  -17.5111   30.2991 O   0  0  0  0  0  0  0  0  0  0  0  0
   13.0360  -18.4070   25.7931 O   0  0  0  0  0  0  0  0  0  0  0  0
   10.2139  -15.3227   29.8305 O   0  0  0  0  0  0  0  0  0  0  0  0
  2  1  1  0
  3  2  1  0
  4  3  1  0
  4  5  1  0
  5  6  1  1
  5  1  1  0
  6  7  2  0
  8 12  1  0
  8  6  1  0
  9 10  1  0
  9  8  1  0
 10 11  1  0
 11 12  1  0
 13 15  1  0
 12 13  1  1
 14 13  2  0
 16 15  1  0
 16 17  1  1
 17 18  1  0
 18 19  2  0
 18 22  1  0
 20 16  1  0
 21 20  1  0
 23 20  2  0
M  END
$$$$
