PPD.pdb
     RDKit          3D

 23 24  0  0  1  0  0  0  0  0999 V2000
    8.3803  -14.0741   20.8788 N   0  0  0  0  0  0  0  0  0  0  0  0
    7.6742  -14.9108   19.9639 C   0  0  0  0  0  0  0  0  0  0  0  0
    6.5392  -15.5389   20.7137 C   0  0  0  0  0  0  0  0  0  0  0  0
    6.4441  -14.8100   22.0145 C   0  0  0  0  0  0  0  0  0  0  0  0
    7.6226  -13.8854   22.0674 C   0  0  1  0  0  0  0  0  0  0  0  0
    8.3807  -14.1348   23.3224 C   0  0  0  0  0  0  0  0  0  0  0  0
    9.5558  -14.6066   23.2983 O   0  0  0  0  0  0  0  0  0  0  0  0
    7.8210  -13.8555   24.6187 N   0  0  0  0  0  0  0  0  0  0  0  0
    6.4815  -13.4281   24.8309 C   0  0  0  0  0  0  0  0  0  0  0  0
    6.3798  -13.1059   26.3013 C   0  0  0  0  0  0  0  0  0  0  0  0
    7.8489  -12.9353   26.7407 C   0  0  0  0  0  0  0  0  0  0  0  0
    8.4945  -13.9620   25.8793 C   0  0  1  0  0  0  0  0  0  0  0  0
    8.4635  -15.3336   26.4381 C   0  0  0  0  0  0  0  0  0  0  0  0
    7.4480  -16.0936   26.3720 O   0  0  0  0  0  0  0  0  0  0  0  0
    9.5946  -15.8525   27.0804 N   0  0  0  0  0  0  0  0  0  0  0  0
    9.9471  -17.2777   27.0857 C   0  0  1  0  0  0  0  0  0  0  0  0
   11.1981  -17.5426   26.3395 C   0  0  0  0  0  0  0  0  0  0  0  0
   11.6459  -18.9272   26.5229 C   0  0  0  0  0  0  0  0  0  0  0  0
   10.8322  -19.8702   26.5200 O   0  0  0  0  0  0  0  0  0  0  0  0
   10.1436  -17.6514   28.5236 C   0  0  0  0  0  0  0  0  0  0  0  0
   10.2715  -18.9170   29.0216 O   0  0  0  0  0  0  0  0  0  0  0  0
   12.9844  -19.2737   26.7091 O   0  0  0  0  0  0  0  0  0  0  0  0
   10.2009  -16.7118   29.3967 O   0  0  0  0  0  0  0  0  0  0  0  0
  2  1  1  0
  3  2  1  0
  4  3  1  0
  4  5  1  0
  5  6  1  1
  5  1  1  0
  6  7  2  0
  8 12  1  0
  8  6  1  0
  9 10  1  0
  9  8  1  0
 10 11  1  0
 11 12  1  0
 13 15  1  0
 12 13  1  1
 14 13  2  0
 16 15  1  0
 16 17  1  6
 17 18  1  0
 18 19  2  0
 18 22  1  0
 20 16  1  0
 21 20  1  0
 23 20  2  0
M  END
$$$$
