PPD.pdb
     RDKit          3D

 23 24  0  0  1  0  0  0  0  0999 V2000
    5.6077  -13.1095   26.3889 N   0  0  0  0  0  0  0  0  0  0  0  0
    6.1490  -12.4365   27.5245 C   0  0  0  0  0  0  0  0  0  0  0  0
    7.5581  -12.0527   27.1898 C   0  0  0  0  0  0  0  0  0  0  0  0
    7.7122  -12.2708   25.7197 C   0  0  0  0  0  0  0  0  0  0  0  0
    6.4481  -12.9293   25.2559 C   0  0  1  0  0  0  0  0  0  0  0  0
    6.7892  -14.1877   24.5406 C   0  0  0  0  0  0  0  0  0  0  0  0
    6.4991  -15.3204   25.0274 O   0  0  0  0  0  0  0  0  0  0  0  0
    7.4624  -14.1824   23.2684 N   0  0  0  0  0  0  0  0  0  0  0  0
    8.0354  -13.0231   22.6772 C   0  0  0  0  0  0  0  0  0  0  0  0
    8.4840  -13.4422   21.2990 C   0  0  0  0  0  0  0  0  0  0  0  0
    7.6907  -14.7388   21.0348 C   0  0  0  0  0  0  0  0  0  0  0  0
    7.6694  -15.3100   22.4083 C   0  0  1  0  0  0  0  0  0  0  0  0
    8.8758  -16.0937   22.7615 C   0  0  0  0  0  0  0  0  0  0  0  0
    9.2344  -17.1434   22.1428 O   0  0  0  0  0  0  0  0  0  0  0  0
    9.6868  -15.6860   23.8279 N   0  0  0  0  0  0  0  0  0  0  0  0
   10.8736  -16.4239   24.2779 C   0  0  1  0  0  0  0  0  0  0  0  0
   12.0873  -15.5760   24.2774 C   0  0  0  0  0  0  0  0  0  0  0  0
   12.8645  -15.7572   23.0468 C   0  0  0  0  0  0  0  0  0  0  0  0
   12.4643  -16.5127   22.1409 O   0  0  0  0  0  0  0  0  0  0  0  0
   10.5818  -16.8640   25.6804 C   0  0  0  0  0  0  0  0  0  0  0  0
    9.6962  -16.2843   26.5438 O   0  0  0  0  0  0  0  0  0  0  0  0
   14.0779  -15.1098   22.8131 O   0  0  0  0  0  0  0  0  0  0  0  0
   11.2107  -17.8827   26.1443 O   0  0  0  0  0  0  0  0  0  0  0  0
  2  1  1  0
  3  2  1  0
  4  3  1  0
  4  5  1  0
  5  6  1  1
  5  1  1  0
  6  7  2  0
  8 12  1  0
  8  6  1  0
  9 10  1  0
  9  8  1  0
 10 11  1  0
 11 12  1  0
 13 15  1  0
 12 13  1  1
 14 13  2  0
 16 15  1  0
 16 17  1  1
 17 18  1  0
 18 19  2  0
 18 22  1  0
 20 16  1  0
 21 20  1  0
 23 20  2  0
M  END
$$$$
