PPD.pdb
     RDKit          3D

 23 24  0  0  1  0  0  0  0  0999 V2000
    4.8901  -18.1040   19.0031 N   0  0  0  0  0  0  0  0  0  0  0  0
    3.9230  -18.9746   19.5883 C   0  0  0  0  0  0  0  0  0  0  0  0
    3.8150  -18.6156   21.0390 C   0  0  0  0  0  0  0  0  0  0  0  0
    4.5389  -17.3189   21.2031 C   0  0  0  0  0  0  0  0  0  0  0  0
    5.1919  -17.0302   19.8852 C   0  0  1  0  0  0  0  0  0  0  0  0
    6.6461  -16.8063   20.1015 C   0  0  0  0  0  0  0  0  0  0  0  0
    7.4993  -17.6957   19.8095 O   0  0  0  0  0  0  0  0  0  0  0  0
    7.1542  -15.5766   20.6507 N   0  0  0  0  0  0  0  0  0  0  0  0
    6.3316  -14.5206   21.1303 C   0  0  0  0  0  0  0  0  0  0  0  0
    7.2688  -13.3847   21.4585 C   0  0  0  0  0  0  0  0  0  0  0  0
    8.5553  -13.7364   20.6827 C   0  0  0  0  0  0  0  0  0  0  0  0
    8.5329  -15.2185   20.8086 C   0  0  1  0  0  0  0  0  0  0  0  0
    9.1241  -15.7325   22.0659 C   0  0  0  0  0  0  0  0  0  0  0  0
    8.5301  -15.6889   23.1877 O   0  0  0  0  0  0  0  0  0  0  0  0
   10.4032  -16.3025   22.0550 N   0  0  0  0  0  0  0  0  0  0  0  0
   11.0123  -16.9609   23.2173 C   0  0  1  0  0  0  0  0  0  0  0  0
   11.7576  -18.1819   22.8360 C   0  0  0  0  0  0  0  0  0  0  0  0
   10.9023  -19.1229   22.1052 C   0  0  0  0  0  0  0  0  0  0  0  0
    9.9395  -19.6816   22.6641 O   0  0  0  0  0  0  0  0  0  0  0  0
   11.9662  -15.9659   23.8055 C   0  0  0  0  0  0  0  0  0  0  0  0
   12.5079  -16.0058   25.0589 O   0  0  0  0  0  0  0  0  0  0  0  0
   11.1051  -19.4487   20.7639 O   0  0  0  0  0  0  0  0  0  0  0  0
   12.3281  -14.9667   23.0849 O   0  0  0  0  0  0  0  0  0  0  0  0
  2  1  1  0
  3  2  1  0
  4  3  1  0
  4  5  1  0
  5  6  1  1
  5  1  1  0
  6  7  2  0
  8 12  1  0
  8  6  1  0
  9 10  1  0
  9  8  1  0
 10 11  1  0
 11 12  1  0
 13 15  1  0
 12 13  1  1
 14 13  2  0
 16 15  1  0
 16 17  1  6
 17 18  1  0
 18 19  2  0
 18 22  1  0
 20 16  1  0
 21 20  1  0
 23 20  2  0
M  END
$$$$
