PPD.pdb
     RDKit          3D

 23 24  0  0  1  0  0  0  0  0999 V2000
    8.4354  -17.0075   17.9704 N   0  0  0  0  0  0  0  0  0  0  0  0
    7.7785  -18.1948   17.5294 C   0  0  0  0  0  0  0  0  0  0  0  0
    6.8880  -18.6555   18.6428 C   0  0  0  0  0  0  0  0  0  0  0  0
    6.8359  -17.5328   19.6274 C   0  0  0  0  0  0  0  0  0  0  0  0
    7.8217  -16.5086   19.1524 C   0  0  1  0  0  0  0  0  0  0  0  0
    8.7734  -16.2020   20.2533 C   0  0  0  0  0  0  0  0  0  0  0  0
   10.0002  -16.5045   20.1657 O   0  0  0  0  0  0  0  0  0  0  0  0
    8.3514  -15.5515   21.4659 N   0  0  0  0  0  0  0  0  0  0  0  0
    7.0162  -15.1344   21.7210 C   0  0  0  0  0  0  0  0  0  0  0  0
    7.0646  -14.3695   23.0206 C   0  0  0  0  0  0  0  0  0  0  0  0
    8.5564  -14.0088   23.1773 C   0  0  0  0  0  0  0  0  0  0  0  0
    9.1771  -15.2274   22.5917 C   0  0  1  0  0  0  0  0  0  0  0  0
    9.3265  -16.3529   23.5432 C   0  0  0  0  0  0  0  0  0  0  0  0
    8.6226  -16.4802   24.5928 O   0  0  0  0  0  0  0  0  0  0  0  0
   10.2841  -17.3467   23.3056 N   0  0  0  0  0  0  0  0  0  0  0  0
   11.4259  -17.6069   24.1910 C   0  0  1  0  0  0  0  0  0  0  0  0
   12.5665  -16.7076   23.9044 C   0  0  0  0  0  0  0  0  0  0  0  0
   13.3635  -17.1994   22.7756 C   0  0  0  0  0  0  0  0  0  0  0  0
   13.0532  -18.2486   22.1803 O   0  0  0  0  0  0  0  0  0  0  0  0
   10.9371  -17.3525   25.5846 C   0  0  0  0  0  0  0  0  0  0  0  0
   10.5890  -16.1418   26.1127 O   0  0  0  0  0  0  0  0  0  0  0  0
   14.4982  -16.5398   22.3030 O   0  0  0  0  0  0  0  0  0  0  0  0
   10.8246  -18.3507   26.3844 O   0  0  0  0  0  0  0  0  0  0  0  0
  2  1  1  0
  3  2  1  0
  4  3  1  0
  4  5  1  0
  5  6  1  1
  5  1  1  0
  6  7  2  0
  8 12  1  0
  8  6  1  0
  9 10  1  0
  9  8  1  0
 10 11  1  0
 11 12  1  0
 13 15  1  0
 12 13  1  1
 14 13  2  0
 16 15  1  0
 16 17  1  6
 17 18  1  0
 18 19  2  0
 18 22  1  0
 20 16  1  0
 21 20  1  0
 23 20  2  0
M  END
$$$$
