PPD.pdb
     RDKit          3D

 23 24  0  0  1  0  0  0  0  0999 V2000
    8.2472  -13.9538   21.0104 N   0  0  0  0  0  0  0  0  0  0  0  0
    7.5958  -14.8722   20.1341 C   0  0  0  0  0  0  0  0  0  0  0  0
    6.6054  -15.6460   20.9499 C   0  0  0  0  0  0  0  0  0  0  0  0
    6.5045  -14.9405   22.2632 C   0  0  0  0  0  0  0  0  0  0  0  0
    7.5535  -13.8701   22.2491 C   0  0  1  0  0  0  0  0  0  0  0  0
    8.4207  -14.0229   23.4476 C   0  0  0  0  0  0  0  0  0  0  0  0
    9.6249  -14.4015   23.3443 O   0  0  0  0  0  0  0  0  0  0  0  0
    7.9386  -13.7512   24.7763 N   0  0  0  0  0  0  0  0  0  0  0  0
    6.5953  -13.3950   25.0771 C   0  0  0  0  0  0  0  0  0  0  0  0
    6.5791  -13.0517   26.5462 C   0  0  0  0  0  0  0  0  0  0  0  0
    8.0633  -12.7916   26.8773 C   0  0  0  0  0  0  0  0  0  0  0  0
    8.7040  -13.7967   25.9871 C   0  0  1  0  0  0  0  0  0  0  0  0
    8.7902  -15.1573   26.5666 C   0  0  0  0  0  0  0  0  0  0  0  0
    7.7838  -15.9158   26.7247 O   0  0  0  0  0  0  0  0  0  0  0  0
   10.0298  -15.6666   26.9732 N   0  0  0  0  0  0  0  0  0  0  0  0
   10.2339  -17.0471   27.4293 C   0  0  1  0  0  0  0  0  0  0  0  0
   11.5024  -17.6174   26.9216 C   0  0  0  0  0  0  0  0  0  0  0  0
   11.6993  -17.3019   25.5028 C   0  0  0  0  0  0  0  0  0  0  0  0
   10.9914  -17.8296   24.6242 O   0  0  0  0  0  0  0  0  0  0  0  0
   10.2861  -16.9865   28.9258 C   0  0  0  0  0  0  0  0  0  0  0  0
   10.3133  -18.0527   29.7793 O   0  0  0  0  0  0  0  0  0  0  0  0
   12.6716  -16.4091   25.0515 O   0  0  0  0  0  0  0  0  0  0  0  0
   10.3078  -15.8335   29.4902 O   0  0  0  0  0  0  0  0  0  0  0  0
  2  1  1  0
  3  2  1  0
  4  3  1  0
  4  5  1  0
  5  6  1  1
  5  1  1  0
  6  7  2  0
  8 12  1  0
  8  6  1  0
  9 10  1  0
  9  8  1  0
 10 11  1  0
 11 12  1  0
 13 15  1  0
 12 13  1  1
 14 13  2  0
 16 15  1  0
 16 17  1  6
 17 18  1  0
 18 19  2  0
 18 22  1  0
 20 16  1  0
 21 20  1  0
 23 20  2  0
M  END
$$$$
