PPD.pdb
     RDKit          3D

 23 24  0  0  1  0  0  0  0  0999 V2000
    8.6707  -14.2734   21.0153 N   0  0  0  0  0  0  0  0  0  0  0  0
    7.9878  -15.0625   20.0423 C   0  0  0  0  0  0  0  0  0  0  0  0
    6.7354  -15.5796   20.6819 C   0  0  0  0  0  0  0  0  0  0  0  0
    6.5770  -14.8237   21.9609 C   0  0  0  0  0  0  0  0  0  0  0  0
    7.8199  -14.0014   22.1220 C   0  0  1  0  0  0  0  0  0  0  0  0
    8.4279  -14.2932   23.4474 C   0  0  0  0  0  0  0  0  0  0  0  0
    9.5404  -14.8908   23.5437 O   0  0  0  0  0  0  0  0  0  0  0  0
    7.7870  -13.9147   24.6794 N   0  0  0  0  0  0  0  0  0  0  0  0
    6.4832  -13.3526   24.7572 C   0  0  0  0  0  0  0  0  0  0  0  0
    6.2852  -12.9694   26.2029 C   0  0  0  0  0  0  0  0  0  0  0  0
    7.7196  -12.9256   26.7694 C   0  0  0  0  0  0  0  0  0  0  0  0
    8.3332  -14.0403   25.9985 C   0  0  1  0  0  0  0  0  0  0  0  0
    8.1171  -15.3814   26.5893 C   0  0  0  0  0  0  0  0  0  0  0  0
    7.0216  -16.0178   26.4989 O   0  0  0  0  0  0  0  0  0  0  0  0
    9.1523  -16.0110   27.2916 N   0  0  0  0  0  0  0  0  0  0  0  0
    9.2684  -17.4669   27.4409 C   0  0  1  0  0  0  0  0  0  0  0  0
   10.1545  -18.0610   26.4144 C   0  0  0  0  0  0  0  0  0  0  0  0
   10.3789  -19.4887   26.6646 C   0  0  0  0  0  0  0  0  0  0  0  0
   11.4236  -19.8872   27.2135 O   0  0  0  0  0  0  0  0  0  0  0  0
    9.8621  -17.6991   28.7971 C   0  0  0  0  0  0  0  0  0  0  0  0
   10.3357  -16.7420   29.6489 O   0  0  0  0  0  0  0  0  0  0  0  0
    9.4575  -20.4751   26.3122 O   0  0  0  0  0  0  0  0  0  0  0  0
    9.9480  -18.9056   29.2280 O   0  0  0  0  0  0  0  0  0  0  0  0
  2  1  1  0
  3  2  1  0
  4  3  1  0
  4  5  1  0
  5  6  1  1
  5  1  1  0
  6  7  2  0
  8 12  1  0
  8  6  1  0
  9 10  1  0
  9  8  1  0
 10 11  1  0
 11 12  1  0
 13 15  1  0
 12 13  1  1
 14 13  2  0
 16 15  1  0
 16 17  1  6
 17 18  1  0
 18 19  2  0
 18 22  1  0
 20 16  1  0
 21 20  1  0
 23 20  2  0
M  END
$$$$
