PPD.pdb
     RDKit          3D

 23 24  0  0  1  0  0  0  0  0999 V2000
    8.1611  -14.2263   21.1727 N   0  0  0  0  0  0  0  0  0  0  0  0
    7.5137  -15.2269   20.3884 C   0  0  0  0  0  0  0  0  0  0  0  0
    6.5545  -15.9493   21.2845 C   0  0  0  0  0  0  0  0  0  0  0  0
    6.4621  -15.1391   22.5366 C   0  0  0  0  0  0  0  0  0  0  0  0
    7.4880  -14.0533   22.4134 C   0  0  1  0  0  0  0  0  0  0  0  0
    8.3794  -14.0890   23.6034 C   0  0  0  0  0  0  0  0  0  0  0  0
    9.5833  -14.4717   23.5122 O   0  0  0  0  0  0  0  0  0  0  0  0
    7.9222  -13.6941   24.9098 N   0  0  0  0  0  0  0  0  0  0  0  0
    6.5742  -13.3573   25.2120 C   0  0  0  0  0  0  0  0  0  0  0  0
    6.5832  -12.8592   26.6361 C   0  0  0  0  0  0  0  0  0  0  0  0
    8.0642  -12.5107   26.8922 C   0  0  0  0  0  0  0  0  0  0  0  0
    8.7206  -13.5814   26.0947 C   0  0  1  0  0  0  0  0  0  0  0  0
    8.8761  -14.8678   26.8125 C   0  0  0  0  0  0  0  0  0  0  0  0
    7.9134  -15.6656   27.0357 O   0  0  0  0  0  0  0  0  0  0  0  0
   10.1358  -15.2571   27.2845 N   0  0  0  0  0  0  0  0  0  0  0  0
   10.4208  -16.5815   27.8505 C   0  0  1  0  0  0  0  0  0  0  0  0
   11.7711  -17.0636   27.4815 C   0  0  0  0  0  0  0  0  0  0  0  0
   12.0657  -16.7973   26.0696 C   0  0  0  0  0  0  0  0  0  0  0  0
   11.5406  -17.4751   25.1660 O   0  0  0  0  0  0  0  0  0  0  0  0
   10.3451  -16.4221   29.3386 C   0  0  0  0  0  0  0  0  0  0  0  0
   10.3836  -17.4263   30.2640 O   0  0  0  0  0  0  0  0  0  0  0  0
   12.9349  -15.7890   25.6526 O   0  0  0  0  0  0  0  0  0  0  0  0
   10.2319  -15.2378   29.8213 O   0  0  0  0  0  0  0  0  0  0  0  0
  2  1  1  0
  3  2  1  0
  4  3  1  0
  4  5  1  0
  5  6  1  1
  5  1  1  0
  6  7  2  0
  8 12  1  0
  8  6  1  0
  9 10  1  0
  9  8  1  0
 10 11  1  0
 11 12  1  0
 13 15  1  0
 12 13  1  1
 14 13  2  0
 16 15  1  0
 16 17  1  1
 17 18  1  0
 18 19  2  0
 18 22  1  0
 20 16  1  0
 21 20  1  0
 23 20  2  0
M  END
$$$$
