PPD.pdb
     RDKit          3D

 23 24  0  0  1  0  0  0  0  0999 V2000
    8.0606  -16.8966   17.9906 N   0  0  0  0  0  0  0  0  0  0  0  0
    7.2994  -18.0466   17.6248 C   0  0  0  0  0  0  0  0  0  0  0  0
    6.4906  -18.4488   18.8202 C   0  0  0  0  0  0  0  0  0  0  0  0
    6.5934  -17.3194   19.7930 C   0  0  0  0  0  0  0  0  0  0  0  0
    7.5879  -16.3564   19.2183 C   0  0  1  0  0  0  0  0  0  0  0  0
    8.6529  -16.0989   20.2239 C   0  0  0  0  0  0  0  0  0  0  0  0
    9.8583  -16.4181   20.0019 O   0  0  0  0  0  0  0  0  0  0  0  0
    8.3697  -15.4792   21.4917 N   0  0  0  0  0  0  0  0  0  0  0  0
    7.0655  -15.1129   21.9237 C   0  0  0  0  0  0  0  0  0  0  0  0
    7.2558  -14.3634   23.2192 C   0  0  0  0  0  0  0  0  0  0  0  0
    8.7425  -13.9521   23.1887 C   0  0  0  0  0  0  0  0  0  0  0  0
    9.3227  -15.1404   22.5072 C   0  0  1  0  0  0  0  0  0  0  0  0
    9.6314  -16.2719   23.4121 C   0  0  0  0  0  0  0  0  0  0  0  0
    8.7565  -17.0917   23.8312 O   0  0  0  0  0  0  0  0  0  0  0  0
   10.9456  -16.4789   23.8493 N   0  0  0  0  0  0  0  0  0  0  0  0
   11.4319  -17.7517   24.3960 C   0  0  1  0  0  0  0  0  0  0  0  0
   12.8559  -17.9888   24.0673 C   0  0  0  0  0  0  0  0  0  0  0  0
   13.3587  -19.2036   24.7175 C   0  0  0  0  0  0  0  0  0  0  0  0
   12.7883  -20.2994   24.5581 O   0  0  0  0  0  0  0  0  0  0  0  0
   11.2810  -17.6495   25.8834 C   0  0  0  0  0  0  0  0  0  0  0  0
   11.2695  -18.6887   26.7699 O   0  0  0  0  0  0  0  0  0  0  0  0
   14.4851  -19.2134   25.5405 O   0  0  0  0  0  0  0  0  0  0  0  0
   11.1468  -16.4841   26.4052 O   0  0  0  0  0  0  0  0  0  0  0  0
  2  1  1  0
  3  2  1  0
  4  3  1  0
  4  5  1  0
  5  6  1  1
  5  1  1  0
  6  7  2  0
  8 12  1  0
  8  6  1  0
  9 10  1  0
  9  8  1  0
 10 11  1  0
 11 12  1  0
 13 15  1  0
 12 13  1  1
 14 13  2  0
 16 15  1  0
 16 17  1  1
 17 18  1  0
 18 19  2  0
 18 22  1  0
 20 16  1  0
 21 20  1  0
 23 20  2  0
M  END
$$$$
