PPD.pdb
     RDKit          3D

 23 24  0  0  1  0  0  0  0  0999 V2000
    6.7845  -14.3903   20.6622 N   0  0  0  0  0  0  0  0  0  0  0  0
    6.3724  -13.3917   19.7302 C   0  0  0  0  0  0  0  0  0  0  0  0
    7.5940  -12.6250   19.3239 C   0  0  0  0  0  0  0  0  0  0  0  0
    8.7637  -13.4039   19.8317 C   0  0  0  0  0  0  0  0  0  0  0  0
    8.2009  -14.5179   20.6616 C   0  0  1  0  0  0  0  0  0  0  0  0
    8.8194  -14.4778   22.0135 C   0  0  0  0  0  0  0  0  0  0  0  0
   10.0692  -14.6119   22.1693 O   0  0  0  0  0  0  0  0  0  0  0  0
    8.0347  -14.2869   23.2049 N   0  0  0  0  0  0  0  0  0  0  0  0
    6.6400  -14.0100   23.2022 C   0  0  0  0  0  0  0  0  0  0  0  0
    6.2725  -13.7310   24.6387 C   0  0  0  0  0  0  0  0  0  0  0  0
    7.6260  -13.4128   25.3072 C   0  0  0  0  0  0  0  0  0  0  0  0
    8.5079  -14.3465   24.5565 C   0  0  1  0  0  0  0  0  0  0  0  0
    8.5389  -15.7247   25.0987 C   0  0  0  0  0  0  0  0  0  0  0  0
    7.6451  -16.5934   24.8540 O   0  0  0  0  0  0  0  0  0  0  0  0
    9.5931  -16.1258   25.9286 N   0  0  0  0  0  0  0  0  0  0  0  0
   10.4886  -17.2487   25.6240 C   0  0  1  0  0  0  0  0  0  0  0  0
   11.7686  -16.7937   25.0353 C   0  0  0  0  0  0  0  0  0  0  0  0
   12.6355  -17.9285   24.7008 C   0  0  0  0  0  0  0  0  0  0  0  0
   12.9417  -18.7768   25.5600 O   0  0  0  0  0  0  0  0  0  0  0  0
   10.7625  -17.9279   26.9315 C   0  0  0  0  0  0  0  0  0  0  0  0
   10.4012  -17.4779   28.1695 O   0  0  0  0  0  0  0  0  0  0  0  0
   13.1642  -18.1298   23.4257 O   0  0  0  0  0  0  0  0  0  0  0  0
   11.3979  -19.0435   26.9191 O   0  0  0  0  0  0  0  0  0  0  0  0
  2  1  1  0
  3  2  1  0
  4  3  1  0
  4  5  1  0
  5  6  1  1
  5  1  1  0
  6  7  2  0
  8 12  1  0
  8  6  1  0
  9 10  1  0
  9  8  1  0
 10 11  1  0
 11 12  1  0
 13 15  1  0
 12 13  1  1
 14 13  2  0
 16 15  1  0
 16 17  1  1
 17 18  1  0
 18 19  2  0
 18 22  1  0
 20 16  1  0
 21 20  1  0
 23 20  2  0
M  END
$$$$
