QGQ.pdb
     RDKit          3D

 23 22  0  0  1  0  0  0  0  0999 V2000
    1.5964  -18.8637   21.9377 N   0  0  0  0  0  0  0  0  0  0  0  0
    2.1344  -20.1783   21.7210 C   0  0  0  0  0  0  0  0  0  0  0  0
    1.4153  -21.1736   21.9855 O   0  0  0  0  0  0  0  0  0  0  0  0
    3.5048  -20.3775   21.1979 C   0  0  0  0  0  0  0  0  0  0  0  0
    4.1242  -19.0499   20.9281 C   0  0  0  0  0  0  0  0  0  0  0  0
    5.1663  -18.6779   21.9858 C   0  0  2  0  0  0  0  0  0  0  0  0
    4.5648  -18.4337   23.2610 N   0  0  0  0  0  0  0  0  0  0  0  0
    5.8609  -17.4638   21.4492 C   0  0  0  0  0  0  0  0  0  0  0  0
    6.8721  -17.6153   20.7191 O   0  0  0  0  0  0  0  0  0  0  0  0
    5.4101  -16.1494   21.7417 N   0  0  0  0  0  0  0  0  0  0  0  0
    6.0425  -14.9492   21.3250 C   0  0  0  0  0  0  0  0  0  0  0  0
    7.3107  -14.6178   21.9983 C   0  0  0  0  0  0  0  0  0  0  0  0
    7.9382  -13.5454   21.6792 O   0  0  0  0  0  0  0  0  0  0  0  0
    5.9775  -12.8129   26.6997 N   0  0  0  0  0  0  0  0  0  0  0  0
    7.3624  -12.7191   26.9867 C   0  0  0  0  0  0  0  0  0  0  0  0
    7.7563  -12.0113   27.9222 O   0  0  0  0  0  0  0  0  0  0  0  0
    8.3714  -13.4783   26.1584 C   0  0  0  0  0  0  0  0  0  0  0  0
    7.6594  -14.1586   25.0221 C   0  0  0  0  0  0  0  0  0  0  0  0
    8.6536  -14.8278   24.1174 C   0  0  2  0  0  0  0  0  0  0  0  0
    7.9014  -15.4122   22.9895 N   0  0  0  0  0  0  0  0  0  0  0  0
    9.3552  -15.8940   24.8539 C   0  0  0  0  0  0  0  0  0  0  0  0
    8.9461  -17.0671   25.0179 O   0  0  0  0  0  0  0  0  0  0  0  0
   10.6061  -15.5430   25.4221 O   0  0  0  0  0  0  0  0  0  0  0  0
  2  1  1  0
  2  4  1  0
  3  2  2  0
  5  4  1  0
  5  6  1  0
  6  7  1  1
  8  9  2  0
  8  6  1  0
 10  8  1  0
 11 10  1  0
 11 12  1  0
 12 20  1  0
 13 12  2  0
 15 16  2  0
 15 14  1  0
 17 15  1  0
 18 17  1  0
 19 21  1  0
 19 18  1  1
 20 19  1  0
 21 23  1  0
 22 21  2  0
M  END
$$$$
