QGQ.pdb
     RDKit          3D

 23 22  0  0  1  0  0  0  0  0999 V2000
    8.3792  -12.8583   17.7497 N   0  0  0  0  0  0  0  0  0  0  0  0
    8.3426  -13.3782   19.0887 C   0  0  0  0  0  0  0  0  0  0  0  0
    8.9522  -12.7549   19.9928 O   0  0  0  0  0  0  0  0  0  0  0  0
    7.6079  -14.6207   19.4171 C   0  0  0  0  0  0  0  0  0  0  0  0
    6.6621  -14.3496   20.5356 C   0  0  0  0  0  0  0  0  0  0  0  0
    7.3353  -14.4921   21.9029 C   0  0  2  0  0  0  0  0  0  0  0  0
    8.4321  -13.5852   22.0518 N   0  0  0  0  0  0  0  0  0  0  0  0
    7.7730  -15.9227   21.9830 C   0  0  0  0  0  0  0  0  0  0  0  0
    6.9509  -16.8267   21.6907 O   0  0  0  0  0  0  0  0  0  0  0  0
    9.0875  -16.2853   22.3789 N   0  0  0  0  0  0  0  0  0  0  0  0
    9.9801  -15.4681   23.1203 C   0  0  0  0  0  0  0  0  0  0  0  0
   10.3059  -15.9327   24.4803 C   0  0  0  0  0  0  0  0  0  0  0  0
   10.4049  -17.1899   24.7155 O   0  0  0  0  0  0  0  0  0  0  0  0
    5.9662  -13.7103   26.3896 N   0  0  0  0  0  0  0  0  0  0  0  0
    7.0200  -12.7912   26.6222 C   0  0  0  0  0  0  0  0  0  0  0  0
    6.7922  -11.5750   26.6334 O   0  0  0  0  0  0  0  0  0  0  0  0
    8.4285  -13.2818   26.8584 C   0  0  0  0  0  0  0  0  0  0  0  0
    8.4498  -14.7812   26.7480 C   0  0  0  0  0  0  0  0  0  0  0  0
    9.8580  -15.2876   26.8722 C   0  0  2  0  0  0  0  0  0  0  0  0
   10.5196  -15.0777   25.5692 N   0  0  0  0  0  0  0  0  0  0  0  0
    9.8414  -16.7249   27.1966 C   0  0  0  0  0  0  0  0  0  0  0  0
    9.4755  -17.6478   26.4321 O   0  0  0  0  0  0  0  0  0  0  0  0
   10.2833  -17.0777   28.4970 O   0  0  0  0  0  0  0  0  0  0  0  0
  2  1  1  0
  2  4  1  0
  3  2  2  0
  5  4  1  0
  5  6  1  0
  6  7  1  6
  8  9  2  0
  8  6  1  0
 10  8  1  0
 11 10  1  0
 11 12  1  0
 12 20  1  0
 13 12  2  0
 15 16  2  0
 15 14  1  0
 17 15  1  0
 18 17  1  0
 19 21  1  0
 19 18  1  6
 20 19  1  0
 21 23  1  0
 22 21  2  0
M  END
$$$$
