QGQ.pdb
     RDKit          3D

 23 22  0  0  1  0  0  0  0  0999 V2000
    2.0928  -20.3904   22.4887 N   0  0  0  0  0  0  0  0  0  0  0  0
    1.6486  -20.1007   21.1533 C   0  0  0  0  0  0  0  0  0  0  0  0
    0.7578  -20.8260   20.6451 O   0  0  0  0  0  0  0  0  0  0  0  0
    2.2155  -18.9759   20.3755 C   0  0  0  0  0  0  0  0  0  0  0  0
    3.2544  -18.2893   21.1931 C   0  0  0  0  0  0  0  0  0  0  0  0
    4.6648  -18.5342   20.6512 C   0  0  2  0  0  0  0  0  0  0  0  0
    5.1605  -19.8237   21.0241 N   0  0  0  0  0  0  0  0  0  0  0  0
    5.5032  -17.4256   21.2104 C   0  0  0  0  0  0  0  0  0  0  0  0
    5.2811  -16.2473   20.8349 O   0  0  0  0  0  0  0  0  0  0  0  0
    6.5393  -17.6679   22.1506 N   0  0  0  0  0  0  0  0  0  0  0  0
    6.4426  -17.4714   23.5528 C   0  0  0  0  0  0  0  0  0  0  0  0
    7.5052  -16.6561   24.1674 C   0  0  0  0  0  0  0  0  0  0  0  0
    8.7019  -16.7227   23.7101 O   0  0  0  0  0  0  0  0  0  0  0  0
    6.2378  -10.5843   25.9171 N   0  0  0  0  0  0  0  0  0  0  0  0
    6.4139  -11.8760   26.4735 C   0  0  0  0  0  0  0  0  0  0  0  0
    6.0115  -12.1194   27.6181 O   0  0  0  0  0  0  0  0  0  0  0  0
    7.0920  -12.9677   25.6805 C   0  0  0  0  0  0  0  0  0  0  0  0
    7.8044  -13.8915   26.6291 C   0  0  0  0  0  0  0  0  0  0  0  0
    8.4081  -15.0407   25.8742 C   0  0  2  0  0  0  0  0  0  0  0  0
    7.3000  -15.7891   25.2484 N   0  0  0  0  0  0  0  0  0  0  0  0
    9.1377  -15.9180   26.8065 C   0  0  0  0  0  0  0  0  0  0  0  0
    8.7636  -17.0475   27.1999 O   0  0  0  0  0  0  0  0  0  0  0  0
   10.3744  -15.4232   27.2931 O   0  0  0  0  0  0  0  0  0  0  0  0
  2  1  1  0
  2  4  1  0
  3  2  2  0
  5  4  1  0
  5  6  1  0
  6  7  1  1
  8  9  2  0
  8  6  1  0
 10  8  1  0
 11 10  1  0
 11 12  1  0
 12 20  1  0
 13 12  2  0
 15 16  2  0
 15 14  1  0
 17 15  1  0
 18 17  1  0
 19 21  1  0
 19 18  1  1
 20 19  1  0
 21 23  1  0
 22 21  2  0
M  END
$$$$
