QGQ.pdb
     RDKit          3D

 23 22  0  0  1  0  0  0  0  0999 V2000
    9.2029  -14.0409   16.0612 N   0  0  0  0  0  0  0  0  0  0  0  0
    7.8186  -14.2781   16.3648 C   0  0  0  0  0  0  0  0  0  0  0  0
    7.1598  -15.0388   15.6131 O   0  0  0  0  0  0  0  0  0  0  0  0
    7.1635  -13.6492   17.5339 C   0  0  0  0  0  0  0  0  0  0  0  0
    8.1998  -13.0058   18.3889 C   0  0  0  0  0  0  0  0  0  0  0  0
    9.1085  -14.0370   19.0625 C   0  0  2  0  0  0  0  0  0  0  0  0
    9.1899  -15.2483   18.3050 N   0  0  0  0  0  0  0  0  0  0  0  0
    8.5167  -14.2610   20.4205 C   0  0  0  0  0  0  0  0  0  0  0  0
    8.3607  -13.2763   21.1851 O   0  0  0  0  0  0  0  0  0  0  0  0
    8.1278  -15.5516   20.8671 N   0  0  0  0  0  0  0  0  0  0  0  0
    7.5471  -15.8474   22.1278 C   0  0  0  0  0  0  0  0  0  0  0  0
    8.2909  -15.3773   23.3099 C   0  0  0  0  0  0  0  0  0  0  0  0
    9.5561  -15.1818   23.2281 O   0  0  0  0  0  0  0  0  0  0  0  0
    5.8833  -10.4427   26.4756 N   0  0  0  0  0  0  0  0  0  0  0  0
    6.1412  -11.8159   26.7147 C   0  0  0  0  0  0  0  0  0  0  0  0
    5.5729  -12.4018   27.6448 O   0  0  0  0  0  0  0  0  0  0  0  0
    7.1086  -12.5789   25.8415 C   0  0  0  0  0  0  0  0  0  0  0  0
    7.5468  -13.8214   26.5661 C   0  0  0  0  0  0  0  0  0  0  0  0
    8.4815  -14.6192   25.7030 C   0  0  2  0  0  0  0  0  0  0  0  0
    7.7016  -15.1227   24.5550 N   0  0  0  0  0  0  0  0  0  0  0  0
    9.0222  -15.7528   26.4735 C   0  0  0  0  0  0  0  0  0  0  0  0
    8.7028  -16.9565   26.3342 O   0  0  0  0  0  0  0  0  0  0  0  0
    9.9915  -15.4343   27.4583 O   0  0  0  0  0  0  0  0  0  0  0  0
  2  1  1  0
  2  4  1  0
  3  2  2  0
  5  4  1  0
  5  6  1  0
  6  7  1  6
  8  9  2  0
  8  6  1  0
 10  8  1  0
 11 10  1  0
 11 12  1  0
 12 20  1  0
 13 12  2  0
 15 16  2  0
 15 14  1  0
 17 15  1  0
 18 17  1  0
 19 21  1  0
 19 18  1  1
 20 19  1  0
 21 23  1  0
 22 21  2  0
M  END
$$$$
