QGQ.pdb
     RDKit          3D

 23 22  0  0  1  0  0  0  0  0999 V2000
    8.4029  -13.1548   16.5022 N   0  0  0  0  0  0  0  0  0  0  0  0
    7.5775  -14.2194   17.0022 C   0  0  0  0  0  0  0  0  0  0  0  0
    7.4713  -15.2690   16.3204 O   0  0  0  0  0  0  0  0  0  0  0  0
    6.8590  -14.1020   18.2911 C   0  0  0  0  0  0  0  0  0  0  0  0
    7.6031  -13.1703   19.1839 C   0  0  0  0  0  0  0  0  0  0  0  0
    8.9134  -13.7815   19.6863 C   0  0  2  0  0  0  0  0  0  0  0  0
    9.3865  -14.8134   18.8150 N   0  0  0  0  0  0  0  0  0  0  0  0
    8.6096  -14.2993   21.0589 C   0  0  0  0  0  0  0  0  0  0  0  0
    8.2322  -13.4908   21.9434 O   0  0  0  0  0  0  0  0  0  0  0  0
    8.7356  -15.6748   21.3881 N   0  0  0  0  0  0  0  0  0  0  0  0
    8.5115  -16.2395   22.6707 C   0  0  0  0  0  0  0  0  0  0  0  0
    9.6375  -16.1621   23.6182 C   0  0  0  0  0  0  0  0  0  0  0  0
   10.8411  -16.2523   23.1834 O   0  0  0  0  0  0  0  0  0  0  0  0
    9.3240  -14.3369   29.5980 N   0  0  0  0  0  0  0  0  0  0  0  0
    8.9708  -13.6369   28.4171 C   0  0  0  0  0  0  0  0  0  0  0  0
    8.2847  -12.6093   28.4860 O   0  0  0  0  0  0  0  0  0  0  0  0
    9.4248  -14.1335   27.0652 C   0  0  0  0  0  0  0  0  0  0  0  0
   10.1471  -15.4405   27.2410 C   0  0  0  0  0  0  0  0  0  0  0  0
   10.6452  -15.9370   25.9142 C   0  0  2  0  0  0  0  0  0  0  0  0
    9.4868  -15.9947   25.0008 N   0  0  0  0  0  0  0  0  0  0  0  0
   11.2217  -17.2838   26.0733 C   0  0  0  0  0  0  0  0  0  0  0  0
   12.4278  -17.5474   26.2878 O   0  0  0  0  0  0  0  0  0  0  0  0
   10.3143  -18.3687   25.9715 O   0  0  0  0  0  0  0  0  0  0  0  0
  2  1  1  0
  2  4  1  0
  3  2  2  0
  5  4  1  0
  5  6  1  0
  6  7  1  6
  8  9  2  0
  8  6  1  0
 10  8  1  0
 11 10  1  0
 11 12  1  0
 12 20  1  0
 13 12  2  0
 15 16  2  0
 15 14  1  0
 17 15  1  0
 18 17  1  0
 19 21  1  0
 19 18  1  1
 20 19  1  0
 21 23  1  0
 22 21  2  0
M  END
$$$$
