QGQ.pdb
     RDKit          3D

 23 22  0  0  1  0  0  0  0  0999 V2000
    9.3095  -14.0671   15.8824 N   0  0  0  0  0  0  0  0  0  0  0  0
    7.8912  -14.1226   16.1059 C   0  0  0  0  0  0  0  0  0  0  0  0
    7.1694  -14.6929   15.2507 O   0  0  0  0  0  0  0  0  0  0  0  0
    7.2735  -13.5266   17.3120 C   0  0  0  0  0  0  0  0  0  0  0  0
    8.3442  -13.1593   18.2804 C   0  0  0  0  0  0  0  0  0  0  0  0
    9.0362  -14.3931   18.8651 C   0  0  2  0  0  0  0  0  0  0  0  0
    8.8226  -15.5547   18.0571 N   0  0  0  0  0  0  0  0  0  0  0  0
    8.4671  -14.5526   20.2418 C   0  0  0  0  0  0  0  0  0  0  0  0
    8.6048  -13.6163   21.0682 O   0  0  0  0  0  0  0  0  0  0  0  0
    7.7781  -15.7291   20.6384 N   0  0  0  0  0  0  0  0  0  0  0  0
    7.2127  -15.9612   21.9192 C   0  0  0  0  0  0  0  0  0  0  0  0
    8.1086  -15.7517   23.0703 C   0  0  0  0  0  0  0  0  0  0  0  0
    9.3691  -15.9503   22.9388 O   0  0  0  0  0  0  0  0  0  0  0  0
    5.3064  -11.6098   26.5574 N   0  0  0  0  0  0  0  0  0  0  0  0
    6.5034  -12.2858   26.9031 C   0  0  0  0  0  0  0  0  0  0  0  0
    7.3081  -11.7635   27.6848 O   0  0  0  0  0  0  0  0  0  0  0  0
    6.8113  -13.6464   26.3248 C   0  0  0  0  0  0  0  0  0  0  0  0
    8.2775  -13.7197   25.9997 C   0  0  0  0  0  0  0  0  0  0  0  0
    8.6149  -15.0720   25.4409 C   0  0  2  0  0  0  0  0  0  0  0  0
    7.6726  -15.3417   24.3369 N   0  0  0  0  0  0  0  0  0  0  0  0
    8.4589  -16.0951   26.4899 C   0  0  0  0  0  0  0  0  0  0  0  0
    7.5378  -16.9416   26.5613 O   0  0  0  0  0  0  0  0  0  0  0  0
    9.4510  -16.1085   27.5031 O   0  0  0  0  0  0  0  0  0  0  0  0
  2  1  1  0
  2  4  1  0
  3  2  2  0
  5  4  1  0
  5  6  1  0
  6  7  1  6
  8  9  2  0
  8  6  1  0
 10  8  1  0
 11 10  1  0
 11 12  1  0
 12 20  1  0
 13 12  2  0
 15 16  2  0
 15 14  1  0
 17 15  1  0
 18 17  1  0
 19 21  1  0
 19 18  1  1
 20 19  1  0
 21 23  1  0
 22 21  2  0
M  END
$$$$
