QGQ.pdb
     RDKit          3D

 23 22  0  0  1  0  0  0  0  0999 V2000
    8.6198  -12.4149   17.4788 N   0  0  0  0  0  0  0  0  0  0  0  0
    8.2170  -13.7699   17.2213 C   0  0  0  0  0  0  0  0  0  0  0  0
    8.2712  -14.1998   16.0423 O   0  0  0  0  0  0  0  0  0  0  0  0
    7.7449  -14.6572   18.3082 C   0  0  0  0  0  0  0  0  0  0  0  0
    8.9077  -15.3904   18.8821 C   0  0  0  0  0  0  0  0  0  0  0  0
    8.5262  -16.7989   19.3438 C   0  0  2  0  0  0  0  0  0  0  0  0
    7.3118  -17.2471   18.7337 N   0  0  0  0  0  0  0  0  0  0  0  0
    8.4075  -16.7097   20.8347 C   0  0  0  0  0  0  0  0  0  0  0  0
    9.4380  -16.4721   21.5129 O   0  0  0  0  0  0  0  0  0  0  0  0
    7.1662  -16.8855   21.5015 N   0  0  0  0  0  0  0  0  0  0  0  0
    6.9833  -16.9150   22.9086 C   0  0  0  0  0  0  0  0  0  0  0  0
    8.0093  -16.2245   23.7098 C   0  0  0  0  0  0  0  0  0  0  0  0
    9.1827  -16.0470   23.2226 O   0  0  0  0  0  0  0  0  0  0  0  0
    7.1227  -11.4641   27.1665 N   0  0  0  0  0  0  0  0  0  0  0  0
    6.2434  -12.5065   26.7801 C   0  0  0  0  0  0  0  0  0  0  0  0
    5.0187  -12.3457   26.8550 O   0  0  0  0  0  0  0  0  0  0  0  0
    6.7868  -13.8214   26.2740 C   0  0  0  0  0  0  0  0  0  0  0  0
    8.2894  -13.7679   26.2875 C   0  0  0  0  0  0  0  0  0  0  0  0
    8.8562  -15.0607   25.7753 C   0  0  2  0  0  0  0  0  0  0  0  0
    7.7928  -15.7347   25.0042 N   0  0  0  0  0  0  0  0  0  0  0  0
    9.2622  -15.9085   26.9101 C   0  0  0  0  0  0  0  0  0  0  0  0
    8.7398  -16.9994   27.2377 O   0  0  0  0  0  0  0  0  0  0  0  0
   10.3445  -15.4309   27.6919 O   0  0  0  0  0  0  0  0  0  0  0  0
  2  1  1  0
  2  4  1  0
  3  2  2  0
  5  4  1  0
  5  6  1  0
  6  7  1  6
  8  9  2  0
  8  6  1  0
 10  8  1  0
 11 10  1  0
 11 12  1  0
 12 20  1  0
 13 12  2  0
 15 16  2  0
 15 14  1  0
 17 15  1  0
 18 17  1  0
 19 21  1  0
 19 18  1  1
 20 19  1  0
 21 23  1  0
 22 21  2  0
M  END
$$$$
