QGQ.pdb
     RDKit          3D

 23 22  0  0  1  0  0  0  0  0999 V2000
    5.6652  -16.9159   23.3535 N   0  0  0  0  0  0  0  0  0  0  0  0
    5.0622  -17.1728   22.0748 C   0  0  0  0  0  0  0  0  0  0  0  0
    4.3402  -18.1923   21.9442 O   0  0  0  0  0  0  0  0  0  0  0  0
    5.2744  -16.2677   20.9228 C   0  0  0  0  0  0  0  0  0  0  0  0
    6.0696  -15.0886   21.3659 C   0  0  0  0  0  0  0  0  0  0  0  0
    7.5338  -15.1884   20.9311 C   0  0  2  0  0  0  0  0  0  0  0  0
    7.6826  -15.9704   19.7420 N   0  0  0  0  0  0  0  0  0  0  0  0
    8.2540  -15.7941   22.0969 C   0  0  0  0  0  0  0  0  0  0  0  0
    8.0829  -15.3008   23.2396 O   0  0  0  0  0  0  0  0  0  0  0  0
    9.1225  -16.9076   21.9475 N   0  0  0  0  0  0  0  0  0  0  0  0
   10.5266  -16.8912   22.1529 C   0  0  0  0  0  0  0  0  0  0  0  0
   10.9753  -16.7824   23.5523 C   0  0  0  0  0  0  0  0  0  0  0  0
   12.2301  -16.7394   23.8157 O   0  0  0  0  0  0  0  0  0  0  0  0
    8.5521  -13.5143   28.0810 N   0  0  0  0  0  0  0  0  0  0  0  0
    9.4538  -14.3310   28.8083 C   0  0  0  0  0  0  0  0  0  0  0  0
    9.5107  -14.2479   30.0417 O   0  0  0  0  0  0  0  0  0  0  0  0
   10.3532  -15.3094   28.0911 C   0  0  0  0  0  0  0  0  0  0  0  0
    9.7207  -15.6851   26.7797 C   0  0  0  0  0  0  0  0  0  0  0  0
   10.6033  -16.6478   26.0386 C   0  0  2  0  0  0  0  0  0  0  0  0
   10.1072  -16.7230   24.6501 N   0  0  0  0  0  0  0  0  0  0  0  0
   10.5252  -17.9778   26.6682 C   0  0  0  0  0  0  0  0  0  0  0  0
    9.7266  -18.8927   26.3590 O   0  0  0  0  0  0  0  0  0  0  0  0
   11.4452  -18.2280   27.7179 O   0  0  0  0  0  0  0  0  0  0  0  0
  2  1  1  0
  2  4  1  0
  3  2  2  0
  5  4  1  0
  5  6  1  0
  6  7  1  6
  8  9  2  0
  8  6  1  0
 10  8  1  0
 11 10  1  0
 11 12  1  0
 12 20  1  0
 13 12  2  0
 15 16  2  0
 15 14  1  0
 17 15  1  0
 18 17  1  0
 19 21  1  0
 19 18  1  1
 20 19  1  0
 21 23  1  0
 22 21  2  0
M  END
$$$$
