QGQ.pdb
     RDKit          3D

 23 22  0  0  1  0  0  0  0  0999 V2000
    8.9079  -15.4583   15.9886 N   0  0  0  0  0  0  0  0  0  0  0  0
    8.4862  -14.0924   15.8434 C   0  0  0  0  0  0  0  0  0  0  0  0
    9.0919  -13.3599   15.0223 O   0  0  0  0  0  0  0  0  0  0  0  0
    7.3638  -13.5402   16.6351 C   0  0  0  0  0  0  0  0  0  0  0  0
    7.8196  -13.3056   18.0338 C   0  0  0  0  0  0  0  0  0  0  0  0
    8.2272  -14.6065   18.7298 C   0  0  2  0  0  0  0  0  0  0  0  0
    7.5583  -15.7407   18.1695 N   0  0  0  0  0  0  0  0  0  0  0  0
    7.8847  -14.4082   20.1748 C   0  0  0  0  0  0  0  0  0  0  0  0
    8.4397  -13.4758   20.8082 O   0  0  0  0  0  0  0  0  0  0  0  0
    6.9527  -15.2420   20.8474 N   0  0  0  0  0  0  0  0  0  0  0  0
    6.6224  -15.1650   22.2255 C   0  0  0  0  0  0  0  0  0  0  0  0
    7.7140  -14.7673   23.1320 C   0  0  0  0  0  0  0  0  0  0  0  0
    8.1692  -13.5687   23.0908 O   0  0  0  0  0  0  0  0  0  0  0  0
    7.4716  -13.0349   28.2337 N   0  0  0  0  0  0  0  0  0  0  0  0
    7.0011  -12.5748   26.9783 C   0  0  0  0  0  0  0  0  0  0  0  0
    6.6007  -11.4105   26.8538 O   0  0  0  0  0  0  0  0  0  0  0  0
    6.9820  -13.4951   25.7811 C   0  0  0  0  0  0  0  0  0  0  0  0
    7.5231  -14.8379   26.1873 C   0  0  0  0  0  0  0  0  0  0  0  0
    8.7544  -15.1603   25.3905 C   0  0  2  0  0  0  0  0  0  0  0  0
    8.3115  -15.6277   24.0621 N   0  0  0  0  0  0  0  0  0  0  0  0
    9.5167  -16.2259   26.0649 C   0  0  0  0  0  0  0  0  0  0  0  0
   10.2960  -16.0729   27.0342 O   0  0  0  0  0  0  0  0  0  0  0  0
    9.3400  -17.5383   25.5576 O   0  0  0  0  0  0  0  0  0  0  0  0
  2  1  1  0
  2  4  1  0
  3  2  2  0
  5  4  1  0
  5  6  1  0
  6  7  1  6
  8  9  2  0
  8  6  1  0
 10  8  1  0
 11 10  1  0
 11 12  1  0
 12 20  1  0
 13 12  2  0
 15 16  2  0
 15 14  1  0
 17 15  1  0
 18 17  1  0
 19 21  1  0
 19 18  1  1
 20 19  1  0
 21 23  1  0
 22 21  2  0
M  END
$$$$
