QGQ.pdb
     RDKit          3D

 23 22  0  0  1  0  0  0  0  0999 V2000
   15.3581  -13.8600   19.5315 N   0  0  0  0  0  0  0  0  0  0  0  0
   14.5996  -14.5806   18.5466 C   0  0  0  0  0  0  0  0  0  0  0  0
   15.1421  -15.5504   17.9609 O   0  0  0  0  0  0  0  0  0  0  0  0
   13.2070  -14.2046   18.2143 C   0  0  0  0  0  0  0  0  0  0  0  0
   12.3849  -14.2225   19.4565 C   0  0  0  0  0  0  0  0  0  0  0  0
   12.1833  -15.6429   19.9901 C   0  0  2  0  0  0  0  0  0  0  0  0
   11.8715  -16.5650   18.9412 N   0  0  0  0  0  0  0  0  0  0  0  0
   11.0761  -15.5367   20.9938 C   0  0  0  0  0  0  0  0  0  0  0  0
   11.1749  -14.6940   21.9205 O   0  0  0  0  0  0  0  0  0  0  0  0
    9.9206  -16.3594   20.9278 N   0  0  0  0  0  0  0  0  0  0  0  0
    8.7610  -16.2183   21.7338 C   0  0  0  0  0  0  0  0  0  0  0  0
    8.9950  -15.9709   23.1676 C   0  0  0  0  0  0  0  0  0  0  0  0
   10.0333  -16.4647   23.7364 O   0  0  0  0  0  0  0  0  0  0  0  0
    5.2662  -12.3724   26.4176 N   0  0  0  0  0  0  0  0  0  0  0  0
    6.5227  -11.8032   26.0913 C   0  0  0  0  0  0  0  0  0  0  0  0
    6.6783  -10.5762   26.1330 O   0  0  0  0  0  0  0  0  0  0  0  0
    7.6831  -12.6824   25.6903 C   0  0  0  0  0  0  0  0  0  0  0  0
    7.3231  -14.1184   25.9533 C   0  0  0  0  0  0  0  0  0  0  0  0
    8.3963  -15.0247   25.4224 C   0  0  2  0  0  0  0  0  0  0  0  0
    8.1405  -15.2154   23.9809 N   0  0  0  0  0  0  0  0  0  0  0  0
    8.3358  -16.3239   26.1151 C   0  0  0  0  0  0  0  0  0  0  0  0
    7.6456  -17.3109   25.7694 O   0  0  0  0  0  0  0  0  0  0  0  0
    9.1384  -16.4511   27.2773 O   0  0  0  0  0  0  0  0  0  0  0  0
  2  1  1  0
  2  4  1  0
  3  2  2  0
  5  4  1  0
  5  6  1  0
  6  7  1  6
  8  9  2  0
  8  6  1  0
 10  8  1  0
 11 10  1  0
 11 12  1  0
 12 20  1  0
 13 12  2  0
 15 16  2  0
 15 14  1  0
 17 15  1  0
 18 17  1  0
 19 21  1  0
 19 18  1  1
 20 19  1  0
 21 23  1  0
 22 21  2  0
M  END
$$$$
