QGQ.pdb
     RDKit          3D

 23 22  0  0  1  0  0  0  0  0999 V2000
    6.8340  -14.8512   16.2851 N   0  0  0  0  0  0  0  0  0  0  0  0
    8.0563  -14.0970   16.3230 C   0  0  0  0  0  0  0  0  0  0  0  0
    8.6809  -13.9094   15.2495 O   0  0  0  0  0  0  0  0  0  0  0  0
    8.5860  -13.5439   17.5899 C   0  0  0  0  0  0  0  0  0  0  0  0
    7.6838  -13.9332   18.7096 C   0  0  0  0  0  0  0  0  0  0  0  0
    8.1718  -13.3895   20.0546 C   0  0  2  0  0  0  0  0  0  0  0  0
    9.5974  -13.4469   20.1650 N   0  0  0  0  0  0  0  0  0  0  0  0
    7.4927  -14.2295   21.0927 C   0  0  0  0  0  0  0  0  0  0  0  0
    6.2390  -14.3118   21.0826 O   0  0  0  0  0  0  0  0  0  0  0  0
    8.2237  -14.9340   22.0855 N   0  0  0  0  0  0  0  0  0  0  0  0
    9.4231  -14.4870   22.6985 C   0  0  0  0  0  0  0  0  0  0  0  0
   10.0239  -15.3992   23.6878 C   0  0  0  0  0  0  0  0  0  0  0  0
   11.2948  -15.5731   23.7020 O   0  0  0  0  0  0  0  0  0  0  0  0
    5.8576  -13.2057   26.3830 N   0  0  0  0  0  0  0  0  0  0  0  0
    7.1018  -12.6778   26.8104 C   0  0  0  0  0  0  0  0  0  0  0  0
    7.1734  -11.5137   27.2240 O   0  0  0  0  0  0  0  0  0  0  0  0
    8.3511  -13.5251   26.7668 C   0  0  0  0  0  0  0  0  0  0  0  0
    7.9966  -14.8940   26.2556 C   0  0  0  0  0  0  0  0  0  0  0  0
    9.2420  -15.7101   26.0605 C   0  0  2  0  0  0  0  0  0  0  0  0
    9.2877  -16.1141   24.6413 N   0  0  0  0  0  0  0  0  0  0  0  0
    9.1897  -16.9074   26.9178 C   0  0  0  0  0  0  0  0  0  0  0  0
    8.8074  -18.0480   26.5667 O   0  0  0  0  0  0  0  0  0  0  0  0
    9.6147  -16.7350   28.2597 O   0  0  0  0  0  0  0  0  0  0  0  0
  2  1  1  0
  2  4  1  0
  3  2  2  0
  5  4  1  0
  5  6  1  0
  6  7  1  6
  8  9  2  0
  8  6  1  0
 10  8  1  0
 11 10  1  0
 11 12  1  0
 12 20  1  0
 13 12  2  0
 15 16  2  0
 15 14  1  0
 17 15  1  0
 18 17  1  0
 19 21  1  0
 19 18  1  6
 20 19  1  0
 21 23  1  0
 22 21  2  0
M  END
$$$$
