QGQ.pdb
     RDKit          3D

 23 22  0  0  1  0  0  0  0  0999 V2000
    9.7351  -13.4356   17.5390 N   0  0  0  0  0  0  0  0  0  0  0  0
    8.4597  -13.3084   16.8896 C   0  0  0  0  0  0  0  0  0  0  0  0
    8.4336  -13.0798   15.6548 O   0  0  0  0  0  0  0  0  0  0  0  0
    7.1914  -13.4405   17.6414 C   0  0  0  0  0  0  0  0  0  0  0  0
    7.4863  -13.9260   19.0185 C   0  0  0  0  0  0  0  0  0  0  0  0
    8.0543  -15.3474   19.0160 C   0  0  2  0  0  0  0  0  0  0  0  0
    7.5255  -16.1287   17.9400 N   0  0  0  0  0  0  0  0  0  0  0  0
    7.6994  -15.9194   20.3544 C   0  0  0  0  0  0  0  0  0  0  0  0
    6.6091  -16.5300   20.4843 O   0  0  0  0  0  0  0  0  0  0  0  0
    8.5583  -15.7916   21.4779 N   0  0  0  0  0  0  0  0  0  0  0  0
    8.3523  -16.3948   22.7459 C   0  0  0  0  0  0  0  0  0  0  0  0
    9.3924  -16.1437   23.7592 C   0  0  0  0  0  0  0  0  0  0  0  0
   10.5462  -15.7184   23.3936 O   0  0  0  0  0  0  0  0  0  0  0  0
    8.9849  -13.6883   28.6507 N   0  0  0  0  0  0  0  0  0  0  0  0
   10.1327  -14.3500   29.1548 C   0  0  0  0  0  0  0  0  0  0  0  0
   10.7522  -13.8745   30.1147 O   0  0  0  0  0  0  0  0  0  0  0  0
   10.6127  -15.6382   28.5300 C   0  0  0  0  0  0  0  0  0  0  0  0
    9.6252  -16.0720   27.4823 C   0  0  0  0  0  0  0  0  0  0  0  0
   10.2540  -16.0023   26.1205 C   0  0  2  0  0  0  0  0  0  0  0  0
    9.2102  -16.3433   25.1338 N   0  0  0  0  0  0  0  0  0  0  0  0
   11.3581  -16.9742   26.0336 C   0  0  0  0  0  0  0  0  0  0  0  0
   12.5698  -16.7323   26.2422 O   0  0  0  0  0  0  0  0  0  0  0  0
   10.9984  -18.2997   25.6807 O   0  0  0  0  0  0  0  0  0  0  0  0
  2  1  1  0
  2  4  1  0
  3  2  2  0
  5  4  1  0
  5  6  1  0
  6  7  1  6
  8  9  2  0
  8  6  1  0
 10  8  1  0
 11 10  1  0
 11 12  1  0
 12 20  1  0
 13 12  2  0
 15 16  2  0
 15 14  1  0
 17 15  1  0
 18 17  1  0
 19 21  1  0
 19 18  1  1
 20 19  1  0
 21 23  1  0
 22 21  2  0
M  END
$$$$
