QGQ.pdb
     RDKit          3D

 23 22  0  0  1  0  0  0  0  0999 V2000
    7.4372  -12.6228   18.1548 N   0  0  0  0  0  0  0  0  0  0  0  0
    6.9624  -13.7450   17.3933 C   0  0  0  0  0  0  0  0  0  0  0  0
    5.7882  -13.7161   16.9480 O   0  0  0  0  0  0  0  0  0  0  0  0
    7.8224  -14.9202   17.1277 C   0  0  0  0  0  0  0  0  0  0  0  0
    9.1932  -14.6512   17.6450 C   0  0  0  0  0  0  0  0  0  0  0  0
    9.7180  -15.8038   18.5047 C   0  0  2  0  0  0  0  0  0  0  0  0
    8.7819  -16.8840   18.5733 N   0  0  0  0  0  0  0  0  0  0  0  0
    9.9859  -15.2048   19.8515 C   0  0  0  0  0  0  0  0  0  0  0  0
   10.7230  -14.1903   19.9294 O   0  0  0  0  0  0  0  0  0  0  0  0
    9.4316  -15.7495   21.0399 N   0  0  0  0  0  0  0  0  0  0  0  0
    9.5178  -15.1681   22.3317 C   0  0  0  0  0  0  0  0  0  0  0  0
    9.7012  -16.1061   23.4533 C   0  0  0  0  0  0  0  0  0  0  0  0
    9.5985  -17.3684   23.2491 O   0  0  0  0  0  0  0  0  0  0  0  0
   11.4319  -14.7104   29.3696 N   0  0  0  0  0  0  0  0  0  0  0  0
   10.2092  -14.2848   28.7927 C   0  0  0  0  0  0  0  0  0  0  0  0
    9.5687  -13.3592   29.3069 O   0  0  0  0  0  0  0  0  0  0  0  0
    9.6739  -14.9521   27.5482 C   0  0  0  0  0  0  0  0  0  0  0  0
   10.6882  -15.9439   27.0497 C   0  0  0  0  0  0  0  0  0  0  0  0
   10.1442  -16.6856   25.8628 C   0  0  2  0  0  0  0  0  0  0  0  0
    9.9857  -15.7098   24.7664 N   0  0  0  0  0  0  0  0  0  0  0  0
    8.8351  -17.2713   26.2015 C   0  0  0  0  0  0  0  0  0  0  0  0
    8.6408  -18.2522   26.9567 O   0  0  0  0  0  0  0  0  0  0  0  0
    7.7027  -16.6561   25.6099 O   0  0  0  0  0  0  0  0  0  0  0  0
  2  1  1  0
  2  4  1  0
  3  2  2  0
  5  4  1  0
  5  6  1  0
  6  7  1  1
  8  9  2  0
  8  6  1  0
 10  8  1  0
 11 10  1  0
 11 12  1  0
 12 20  1  0
 13 12  2  0
 15 16  2  0
 15 14  1  0
 17 15  1  0
 18 17  1  0
 19 21  1  0
 19 18  1  1
 20 19  1  0
 21 23  1  0
 22 21  2  0
M  END
$$$$
