IWP.pdb
     RDKit          3D

 30 32  0  0  1  0  0  0  0  0999 V2000
   19.4729  -22.2374  -14.8775 C   0  0  0  0  0  0  0  0  0  0  0  0
   20.1173  -22.0819  -13.5400 C   0  0  0  0  0  0  0  0  0  0  0  0
   21.5052  -21.4617  -13.6410 C   0  0  2  0  0  0  0  0  0  0  0  0
   22.3129  -22.3278  -14.5737 C   0  0  0  0  0  0  0  0  0  0  0  0
   22.1205  -21.4075  -12.2517 C   0  0  2  0  0  0  0  0  0  0  0  0
   21.3077  -20.5005  -11.4180 N   0  0  0  0  0  0  0  0  0  0  0  0
   23.4901  -20.8613  -12.2309 C   0  0  0  0  0  0  0  0  0  0  0  0
   23.6647  -19.6133  -12.4062 O   0  0  0  0  0  0  0  0  0  0  0  0
   24.6281  -21.6350  -12.0258 N   0  0  0  0  0  0  0  0  0  0  0  0
   25.9844  -21.0407  -12.1967 C   0  0  1  0  0  0  0  0  0  0  0  0
   26.7975  -21.5918  -11.0673 C   0  0  0  0  0  0  0  0  0  0  0  0
   26.7185  -20.9218   -9.7741 C   0  0  0  0  0  0  0  0  0  0  0  0
   25.6344  -20.2396   -9.2298 C   0  0  0  0  0  0  0  0  0  0  0  0
   25.9770  -19.7447   -8.0282 N   0  0  0  0  0  0  0  0  0  0  0  0
   27.2599  -20.0765   -7.7533 C   0  0  0  0  0  0  0  0  0  0  0  0
   28.1110  -19.8427   -6.6924 C   0  0  0  0  0  0  0  0  0  0  0  0
   29.4048  -20.3136   -6.6768 C   0  0  0  0  0  0  0  0  0  0  0  0
   29.8642  -21.0409   -7.7543 C   0  0  0  0  0  0  0  0  0  0  0  0
   29.0315  -21.2852   -8.8234 C   0  0  0  0  0  0  0  0  0  0  0  0
   27.7226  -20.7987   -8.8195 C   0  0  0  0  0  0  0  0  0  0  0  0
   26.4700  -21.3157  -13.5445 C   0  0  0  0  0  0  0  0  0  0  0  0
   26.0665  -22.4168  -14.0777 O   0  0  0  0  0  0  0  0  0  0  0  0
   27.3155  -20.5409  -14.3543 N   0  0  0  0  0  0  0  0  0  0  0  0
   28.3078  -19.5735  -13.9571 C   0  0  0  0  0  0  0  0  0  0  0  0
   28.2901  -18.4999  -15.0344 C   0  0  0  0  0  0  0  0  0  0  0  0
   27.3319  -19.0252  -16.0540 C   0  0  0  0  0  0  0  0  0  0  0  0
   27.3376  -20.5163  -15.8362 C   0  0  1  0  0  0  0  0  0  0  0  0
   28.5969  -21.0721  -16.3674 C   0  0  0  0  0  0  0  0  0  0  0  0
   29.4156  -21.5131  -15.5149 O   0  0  0  0  0  0  0  0  0  0  0  0
   28.9481  -21.1484  -17.6945 O   0  0  0  0  0  0  0  0  0  0  0  0
  2  1  1  0
  3  2  1  0
  3  4  1  6
  5  6  1  1
  5  3  1  0
  7  5  1  0
  8  7  2  0
  9  7  1  0
 10 21  1  0
 10  9  1  0
 10 11  1  1
 12 11  1  0
 13 12  2  0
 14 13  1  0
 15 14  1  0
 15 20  2  0
 16 15  1  0
 17 16  2  0
 17 18  1  0
 18 19  2  0
 19 20  1  0
 20 12  1  0
 21 22  2  0
 23 27  1  0
 23 21  1  0
 24 25  1  0
 24 23  1  0
 25 26  1  0
 27 26  1  0
 28 30  1  0
 27 28  1  1
 29 28  2  0
M  END
$$$$
