IWP.pdb
     RDKit          3D

 30 32  0  0  1  0  0  0  0  0999 V2000
   28.4637  -17.2799  -19.5259 C   0  0  0  0  0  0  0  0  0  0  0  0
   27.4251  -16.9747  -18.4981 C   0  0  0  0  0  0  0  0  0  0  0  0
   26.0175  -17.2722  -18.9997 C   0  0  2  0  0  0  0  0  0  0  0  0
   25.5943  -16.1056  -19.8555 C   0  0  0  0  0  0  0  0  0  0  0  0
   25.0980  -17.4522  -17.8023 C   0  0  2  0  0  0  0  0  0  0  0  0
   25.1163  -16.2070  -17.0102 N   0  0  0  0  0  0  0  0  0  0  0  0
   25.5236  -18.5247  -16.8840 C   0  0  0  0  0  0  0  0  0  0  0  0
   25.5257  -19.7294  -17.2932 O   0  0  0  0  0  0  0  0  0  0  0  0
   25.9338  -18.3029  -15.5732 N   0  0  0  0  0  0  0  0  0  0  0  0
   26.2014  -19.4522  -14.6624 C   0  0  1  0  0  0  0  0  0  0  0  0
   27.2933  -18.9834  -13.7524 C   0  0  0  0  0  0  0  0  0  0  0  0
   27.7036  -19.8627  -12.6632 C   0  0  0  0  0  0  0  0  0  0  0  0
   28.7077  -20.8262  -12.6747 C   0  0  0  0  0  0  0  0  0  0  0  0
   28.7521  -21.4380  -11.4789 N   0  0  0  0  0  0  0  0  0  0  0  0
   27.8056  -20.9110  -10.6677 C   0  0  0  0  0  0  0  0  0  0  0  0
   27.4093  -21.1468   -9.3670 C   0  0  0  0  0  0  0  0  0  0  0  0
   26.3862  -20.4399   -8.7759 C   0  0  0  0  0  0  0  0  0  0  0  0
   25.7378  -19.4664   -9.5060 C   0  0  0  0  0  0  0  0  0  0  0  0
   26.1173  -19.2154  -10.8057 C   0  0  0  0  0  0  0  0  0  0  0  0
   27.1575  -19.9438  -11.3866 C   0  0  0  0  0  0  0  0  0  0  0  0
   24.9566  -19.8691  -14.0263 C   0  0  0  0  0  0  0  0  0  0  0  0
   24.0900  -18.9396  -13.8150 O   0  0  0  0  0  0  0  0  0  0  0  0
   24.5609  -21.1518  -13.6150 N   0  0  0  0  0  0  0  0  0  0  0  0
   25.2984  -22.3887  -13.6826 C   0  0  0  0  0  0  0  0  0  0  0  0
   24.2630  -23.4711  -13.9472 C   0  0  0  0  0  0  0  0  0  0  0  0
   22.9576  -22.7454  -13.8916 C   0  0  0  0  0  0  0  0  0  0  0  0
   23.2439  -21.5291  -13.0492 C   0  0  1  0  0  0  0  0  0  0  0  0
   23.3602  -21.9420  -11.6375 C   0  0  0  0  0  0  0  0  0  0  0  0
   24.4968  -22.3434  -11.2653 O   0  0  0  0  0  0  0  0  0  0  0  0
   22.3482  -21.9267  -10.7069 O   0  0  0  0  0  0  0  0  0  0  0  0
  2  1  1  0
  3  2  1  0
  3  4  1  6
  5  6  1  1
  5  3  1  0
  7  5  1  0
  8  7  2  0
  9  7  1  0
 10 21  1  0
 10  9  1  0
 10 11  1  1
 12 11  1  0
 13 12  2  0
 14 13  1  0
 15 14  1  0
 15 20  2  0
 16 15  1  0
 17 16  2  0
 17 18  1  0
 18 19  2  0
 19 20  1  0
 20 12  1  0
 21 22  2  0
 23 27  1  0
 23 21  1  0
 24 25  1  0
 24 23  1  0
 25 26  1  0
 27 26  1  0
 28 30  1  0
 27 28  1  1
 29 28  2  0
M  END
$$$$
