IWP.pdb
     RDKit          3D

 30 32  0  0  1  0  0  0  0  0999 V2000
   19.5669  -22.0019  -13.7746 C   0  0  0  0  0  0  0  0  0  0  0  0
   20.2745  -21.8084  -12.4746 C   0  0  0  0  0  0  0  0  0  0  0  0
   21.7054  -21.3220  -12.6676 C   0  0  2  0  0  0  0  0  0  0  0  0
   22.4117  -22.3444  -13.5210 C   0  0  0  0  0  0  0  0  0  0  0  0
   22.3628  -21.1787  -11.3042 C   0  0  2  0  0  0  0  0  0  0  0  0
   21.5823  -20.2092  -10.5109 N   0  0  0  0  0  0  0  0  0  0  0  0
   23.7364  -20.6452  -11.3615 C   0  0  0  0  0  0  0  0  0  0  0  0
   23.9279  -19.4663  -11.8000 O   0  0  0  0  0  0  0  0  0  0  0  0
   24.8605  -21.3586  -10.9578 N   0  0  0  0  0  0  0  0  0  0  0  0
   26.2272  -20.8472  -11.2621 C   0  0  1  0  0  0  0  0  0  0  0  0
   27.0865  -21.3361  -10.1383 C   0  0  0  0  0  0  0  0  0  0  0  0
   26.9986  -20.6452   -8.8566 C   0  0  0  0  0  0  0  0  0  0  0  0
   26.0372  -19.7271   -8.4448 C   0  0  0  0  0  0  0  0  0  0  0  0
   26.3285  -19.3036   -7.2031 N   0  0  0  0  0  0  0  0  0  0  0  0
   27.4580  -19.9123   -6.7727 C   0  0  0  0  0  0  0  0  0  0  0  0
   28.1991  -19.8603   -5.6096 C   0  0  0  0  0  0  0  0  0  0  0  0
   29.3402  -20.6111   -5.4369 C   0  0  0  0  0  0  0  0  0  0  0  0
   29.7553  -21.4404   -6.4572 C   0  0  0  0  0  0  0  0  0  0  0  0
   29.0306  -21.5070   -7.6261 C   0  0  0  0  0  0  0  0  0  0  0  0
   27.8759  -20.7372   -7.7813 C   0  0  0  0  0  0  0  0  0  0  0  0
   26.6138  -21.2615  -12.6063 C   0  0  0  0  0  0  0  0  0  0  0  0
   26.0962  -22.3625  -13.0299 O   0  0  0  0  0  0  0  0  0  0  0  0
   27.4710  -20.6221  -13.5158 N   0  0  0  0  0  0  0  0  0  0  0  0
   28.4898  -19.6359  -13.2552 C   0  0  0  0  0  0  0  0  0  0  0  0
   28.4889  -18.7139  -14.4649 C   0  0  0  0  0  0  0  0  0  0  0  0
   27.5097  -19.3451  -15.4012 C   0  0  0  0  0  0  0  0  0  0  0  0
   27.4812  -20.7940  -14.9880 C   0  0  1  0  0  0  0  0  0  0  0  0
   28.7221  -21.4466  -15.4475 C   0  0  0  0  0  0  0  0  0  0  0  0
   29.5894  -21.6823  -14.5622 O   0  0  0  0  0  0  0  0  0  0  0  0
   29.0088  -21.8138  -16.7411 O   0  0  0  0  0  0  0  0  0  0  0  0
  2  1  1  0
  3  2  1  0
  3  4  1  6
  5  6  1  1
  5  3  1  0
  7  5  1  0
  8  7  2  0
  9  7  1  0
 10 21  1  0
 10  9  1  0
 10 11  1  1
 12 11  1  0
 13 12  2  0
 14 13  1  0
 15 14  1  0
 15 20  2  0
 16 15  1  0
 17 16  2  0
 17 18  1  0
 18 19  2  0
 19 20  1  0
 20 12  1  0
 21 22  2  0
 23 27  1  0
 23 21  1  0
 24 25  1  0
 24 23  1  0
 25 26  1  0
 27 26  1  0
 28 30  1  0
 27 28  1  1
 29 28  2  0
M  END
$$$$
