IWP.pdb
     RDKit          3D

 30 32  0  0  1  0  0  0  0  0999 V2000
   30.1588  -21.2134   -9.6651 C   0  0  0  0  0  0  0  0  0  0  0  0
   29.6698  -21.3348  -11.0702 C   0  0  0  0  0  0  0  0  0  0  0  0
   28.2854  -20.7248  -11.2501 C   0  0  2  0  0  0  0  0  0  0  0  0
   27.3311  -21.5300  -10.4055 C   0  0  0  0  0  0  0  0  0  0  0  0
   27.9132  -20.7789  -12.7233 C   0  0  2  0  0  0  0  0  0  0  0  0
   28.9129  -20.0044  -13.4844 N   0  0  0  0  0  0  0  0  0  0  0  0
   26.6066  -20.1665  -13.0276 C   0  0  0  0  0  0  0  0  0  0  0  0
   26.3964  -18.9550  -12.7008 O   0  0  0  0  0  0  0  0  0  0  0  0
   25.5672  -20.8381  -13.6632 N   0  0  0  0  0  0  0  0  0  0  0  0
   24.2546  -20.1649  -13.8775 C   0  0  1  0  0  0  0  0  0  0  0  0
   24.2904  -19.6806  -15.2933 C   0  0  0  0  0  0  0  0  0  0  0  0
   23.0882  -19.0581  -15.8362 C   0  0  0  0  0  0  0  0  0  0  0  0
   22.6100  -17.7727  -15.5995 C   0  0  0  0  0  0  0  0  0  0  0  0
   21.4582  -17.5955  -16.2689 N   0  0  0  0  0  0  0  0  0  0  0  0
   21.1523  -18.7262  -16.9467 C   0  0  0  0  0  0  0  0  0  0  0  0
   20.1164  -19.1032  -17.7770 C   0  0  0  0  0  0  0  0  0  0  0  0
   20.0568  -20.3547  -18.3480 C   0  0  0  0  0  0  0  0  0  0  0  0
   21.0629  -21.2591  -18.0818 C   0  0  0  0  0  0  0  0  0  0  0  0
   22.1055  -20.9034  -17.2557 C   0  0  0  0  0  0  0  0  0  0  0  0
   22.1472  -19.6289  -16.6866 C   0  0  0  0  0  0  0  0  0  0  0  0
   23.1748  -21.0819  -13.5293 C   0  0  0  0  0  0  0  0  0  0  0  0
   23.4216  -22.3355  -13.6942 O   0  0  0  0  0  0  0  0  0  0  0  0
   21.8960  -20.7914  -13.0279 N   0  0  0  0  0  0  0  0  0  0  0  0
   21.2888  -19.5047  -12.7953 C   0  0  0  0  0  0  0  0  0  0  0  0
   20.4096  -19.6808  -11.5667 C   0  0  0  0  0  0  0  0  0  0  0  0
   20.5048  -21.1403  -11.2589 C   0  0  0  0  0  0  0  0  0  0  0  0
   20.8834  -21.7734  -12.5729 C   0  0  1  0  0  0  0  0  0  0  0  0
   19.7024  -21.7815  -13.4574 C   0  0  0  0  0  0  0  0  0  0  0  0
   19.6578  -20.8782  -14.3369 O   0  0  0  0  0  0  0  0  0  0  0  0
   18.6612  -22.6777  -13.4041 O   0  0  0  0  0  0  0  0  0  0  0  0
  2  1  1  0
  3  2  1  0
  3  4  1  1
  5  6  1  6
  5  3  1  0
  7  5  1  0
  8  7  2  0
  9  7  1  0
 10 21  1  0
 10  9  1  0
 10 11  1  6
 12 11  1  0
 13 12  2  0
 14 13  1  0
 15 14  1  0
 15 20  2  0
 16 15  1  0
 17 16  2  0
 17 18  1  0
 18 19  2  0
 19 20  1  0
 20 12  1  0
 21 22  2  0
 23 27  1  0
 23 21  1  0
 24 25  1  0
 24 23  1  0
 25 26  1  0
 27 26  1  0
 28 30  1  0
 27 28  1  6
 29 28  2  0
M  END
$$$$
