IWP.pdb
     RDKit          3D

 30 32  0  0  1  0  0  0  0  0999 V2000
   20.0016  -17.7067  -17.0024 C   0  0  0  0  0  0  0  0  0  0  0  0
   18.9884  -17.0092  -17.8480 C   0  0  0  0  0  0  0  0  0  0  0  0
   19.3946  -15.5752  -18.1640 C   0  0  2  0  0  0  0  0  0  0  0  0
   20.8483  -15.6020  -18.5622 C   0  0  0  0  0  0  0  0  0  0  0  0
   19.1668  -14.7175  -16.9294 C   0  0  2  0  0  0  0  0  0  0  0  0
   17.7492  -14.8358  -16.5358 N   0  0  0  0  0  0  0  0  0  0  0  0
   19.4081  -13.2801  -17.1535 C   0  0  0  0  0  0  0  0  0  0  0  0
   20.5916  -12.8778  -17.3907 O   0  0  0  0  0  0  0  0  0  0  0  0
   18.4073  -12.3142  -17.1244 N   0  0  0  0  0  0  0  0  0  0  0  0
   18.7331  -10.8831  -17.3846 C   0  0  1  0  0  0  0  0  0  0  0  0
   17.4668  -10.2837  -17.9114 C   0  0  0  0  0  0  0  0  0  0  0  0
   17.4399   -8.8468  -18.1611 C   0  0  0  0  0  0  0  0  0  0  0  0
   18.3069   -8.1006  -18.9538 C   0  0  0  0  0  0  0  0  0  0  0  0
   17.9558   -6.8045  -18.9001 N   0  0  0  0  0  0  0  0  0  0  0  0
   16.8784   -6.6624  -18.0936 C   0  0  0  0  0  0  0  0  0  0  0  0
   16.1140   -5.5887  -17.6847 C   0  0  0  0  0  0  0  0  0  0  0  0
   15.0413   -5.7377  -16.8344 C   0  0  0  0  0  0  0  0  0  0  0  0
   14.7212   -6.9985  -16.3773 C   0  0  0  0  0  0  0  0  0  0  0  0
   15.4713   -8.0835  -16.7726 C   0  0  0  0  0  0  0  0  0  0  0  0
   16.5553   -7.9108  -17.6357 C   0  0  0  0  0  0  0  0  0  0  0  0
   19.2853  -10.2821  -16.1756 C   0  0  0  0  0  0  0  0  0  0  0  0
   18.8655  -10.7687  -15.0591 O   0  0  0  0  0  0  0  0  0  0  0  0
   20.2235   -9.2449  -16.0535 N   0  0  0  0  0  0  0  0  0  0  0  0
   20.9337   -8.5435  -17.0938 C   0  0  0  0  0  0  0  0  0  0  0  0
   22.3017   -8.2208  -16.5124 C   0  0  0  0  0  0  0  0  0  0  0  0
   22.2110   -8.6830  -15.0940 C   0  0  0  0  0  0  0  0  0  0  0  0
   20.7353   -8.6630  -14.7900 C   0  0  1  0  0  0  0  0  0  0  0  0
   20.3003   -7.2629  -14.6245 C   0  0  0  0  0  0  0  0  0  0  0  0
   20.5902   -6.7147  -13.5258 O   0  0  0  0  0  0  0  0  0  0  0  0
   19.6150   -6.5162  -15.5535 O   0  0  0  0  0  0  0  0  0  0  0  0
  2  1  1  0
  3  2  1  0
  3  4  1  1
  5  6  1  6
  5  3  1  0
  7  5  1  0
  8  7  2  0
  9  7  1  0
 10 21  1  0
 10  9  1  0
 10 11  1  1
 12 11  1  0
 13 12  2  0
 14 13  1  0
 15 14  1  0
 15 20  2  0
 16 15  1  0
 17 16  2  0
 17 18  1  0
 18 19  2  0
 19 20  1  0
 20 12  1  0
 21 22  2  0
 23 27  1  0
 23 21  1  0
 24 25  1  0
 24 23  1  0
 25 26  1  0
 27 26  1  0
 28 30  1  0
 27 28  1  6
 29 28  2  0
M  END
$$$$
