IWP.pdb
     RDKit          3D

 30 32  0  0  1  0  0  0  0  0999 V2000
   21.6434  -16.1411  -20.1842 C   0  0  0  0  0  0  0  0  0  0  0  0
   22.5626  -15.6416  -19.1195 C   0  0  0  0  0  0  0  0  0  0  0  0
   23.6293  -16.6668  -18.7557 C   0  0  2  0  0  0  0  0  0  0  0  0
   22.9139  -17.9403  -18.3831 C   0  0  0  0  0  0  0  0  0  0  0  0
   24.4537  -16.1271  -17.5979 C   0  0  2  0  0  0  0  0  0  0  0  0
   25.3161  -15.0427  -18.1065 N   0  0  0  0  0  0  0  0  0  0  0  0
   25.3624  -17.1239  -17.0018 C   0  0  0  0  0  0  0  0  0  0  0  0
   26.2122  -17.7127  -17.7435 O   0  0  0  0  0  0  0  0  0  0  0  0
   25.3544  -17.4695  -15.6542 N   0  0  0  0  0  0  0  0  0  0  0  0
   26.1607  -18.6249  -15.1676 C   0  0  1  0  0  0  0  0  0  0  0  0
   26.6841  -18.2007  -13.8310 C   0  0  0  0  0  0  0  0  0  0  0  0
   27.2447  -19.2252  -12.9570 C   0  0  0  0  0  0  0  0  0  0  0  0
   28.4607  -19.8891  -13.0888 C   0  0  0  0  0  0  0  0  0  0  0  0
   28.5939  -20.7777  -12.0895 N   0  0  0  0  0  0  0  0  0  0  0  0
   27.5011  -20.7271  -11.2928 C   0  0  0  0  0  0  0  0  0  0  0  0
   27.1072  -21.3956  -10.1516 C   0  0  0  0  0  0  0  0  0  0  0  0
   25.9066  -21.1345   -9.5302 C   0  0  0  0  0  0  0  0  0  0  0  0
   25.0722  -20.1757  -10.0646 C   0  0  0  0  0  0  0  0  0  0  0  0
   25.4460  -19.4972  -11.2031 C   0  0  0  0  0  0  0  0  0  0  0  0
   26.6680  -19.7772  -11.8180 C   0  0  0  0  0  0  0  0  0  0  0  0
   25.3446  -19.8337  -15.1945 C   0  0  0  0  0  0  0  0  0  0  0  0
   24.0689  -19.6557  -15.1747 O   0  0  0  0  0  0  0  0  0  0  0  0
   25.7542  -21.1754  -15.2475 N   0  0  0  0  0  0  0  0  0  0  0  0
   27.0919  -21.7123  -15.2199 C   0  0  0  0  0  0  0  0  0  0  0  0
   27.0584  -22.9463  -16.1085 C   0  0  0  0  0  0  0  0  0  0  0  0
   25.6196  -23.0788  -16.4908 C   0  0  0  0  0  0  0  0  0  0  0  0
   24.8760  -22.3603  -15.3946 C   0  0  1  0  0  0  0  0  0  0  0  0
   24.8894  -23.1974  -14.1797 C   0  0  0  0  0  0  0  0  0  0  0  0
   25.7216  -22.8740  -13.2884 O   0  0  0  0  0  0  0  0  0  0  0  0
   24.0830  -24.2851  -13.9410 O   0  0  0  0  0  0  0  0  0  0  0  0
  2  1  1  0
  3  2  1  0
  3  4  1  1
  5  6  1  6
  5  3  1  0
  7  5  1  0
  8  7  2  0
  9  7  1  0
 10 21  1  0
 10  9  1  0
 10 11  1  1
 12 11  1  0
 13 12  2  0
 14 13  1  0
 15 14  1  0
 15 20  2  0
 16 15  1  0
 17 16  2  0
 17 18  1  0
 18 19  2  0
 19 20  1  0
 20 12  1  0
 21 22  2  0
 23 27  1  0
 23 21  1  0
 24 25  1  0
 24 23  1  0
 25 26  1  0
 27 26  1  0
 28 30  1  0
 27 28  1  1
 29 28  2  0
M  END
$$$$
