IWP.pdb
     RDKit          3D

 30 32  0  0  1  0  0  0  0  0999 V2000
   21.5348  -21.2019  -15.6220 C   0  0  0  0  0  0  0  0  0  0  0  0
   21.4278  -21.5465  -14.1736 C   0  0  0  0  0  0  0  0  0  0  0  0
   22.7692  -21.4418  -13.4588 C   0  0  2  0  0  0  0  0  0  0  0  0
   23.3176  -22.8404  -13.3344 C   0  0  0  0  0  0  0  0  0  0  0  0
   22.5507  -20.8016  -12.0971 C   0  0  2  0  0  0  0  0  0  0  0  0
   21.6372  -19.6543  -12.2636 N   0  0  0  0  0  0  0  0  0  0  0  0
   23.7813  -20.2576  -11.4935 C   0  0  0  0  0  0  0  0  0  0  0  0
   24.3711  -19.2811  -12.0568 O   0  0  0  0  0  0  0  0  0  0  0  0
   24.3514  -20.7493  -10.3236 N   0  0  0  0  0  0  0  0  0  0  0  0
   25.6866  -20.2628   -9.8735 C   0  0  1  0  0  0  0  0  0  0  0  0
   25.5990  -20.2068   -8.3803 C   0  0  0  0  0  0  0  0  0  0  0  0
   26.6527  -19.5037   -7.6571 C   0  0  0  0  0  0  0  0  0  0  0  0
   27.1685  -18.2373   -7.9161 C   0  0  0  0  0  0  0  0  0  0  0  0
   28.1462  -17.9656   -7.0349 N   0  0  0  0  0  0  0  0  0  0  0  0
   28.2990  -19.0147   -6.1937 C   0  0  0  0  0  0  0  0  0  0  0  0
   29.1295  -19.2809   -5.1241 C   0  0  0  0  0  0  0  0  0  0  0  0
   29.0655  -20.4669   -4.4276 C   0  0  0  0  0  0  0  0  0  0  0  0
   28.1435  -21.4178   -4.8105 C   0  0  0  0  0  0  0  0  0  0  0  0
   27.3055  -21.1725   -5.8753 C   0  0  0  0  0  0  0  0  0  0  0  0
   27.3866  -19.9630   -6.5686 C   0  0  0  0  0  0  0  0  0  0  0  0
   26.7294  -21.1151  -10.4339 C   0  0  0  0  0  0  0  0  0  0  0  0
   26.4589  -22.3730  -10.4973 O   0  0  0  0  0  0  0  0  0  0  0  0
   27.9943  -20.7562  -10.9261 N   0  0  0  0  0  0  0  0  0  0  0  0
   28.6249  -19.4598  -10.9342 C   0  0  0  0  0  0  0  0  0  0  0  0
   29.4497  -19.4115  -12.2113 C   0  0  0  0  0  0  0  0  0  0  0  0
   29.3045  -20.7824  -12.7887 C   0  0  0  0  0  0  0  0  0  0  0  0
   28.9623  -21.6500  -11.6051 C   0  0  1  0  0  0  0  0  0  0  0  0
   30.1769  -21.8493  -10.7915 C   0  0  0  0  0  0  0  0  0  0  0  0
   30.2761  -21.1389   -9.7537 O   0  0  0  0  0  0  0  0  0  0  0  0
   31.1953  -22.7313  -11.0656 O   0  0  0  0  0  0  0  0  0  0  0  0
  2  1  1  0
  3  2  1  0
  3  4  1  1
  5  6  1  6
  5  3  1  0
  7  5  1  0
  8  7  2  0
  9  7  1  0
 10 21  1  0
 10  9  1  0
 10 11  1  1
 12 11  1  0
 13 12  2  0
 14 13  1  0
 15 14  1  0
 15 20  2  0
 16 15  1  0
 17 16  2  0
 17 18  1  0
 18 19  2  0
 19 20  1  0
 20 12  1  0
 21 22  2  0
 23 27  1  0
 23 21  1  0
 24 25  1  0
 24 23  1  0
 25 26  1  0
 27 26  1  0
 28 30  1  0
 27 28  1  1
 29 28  2  0
M  END
$$$$
