IWP.pdb
     RDKit          3D

 30 32  0  0  1  0  0  0  0  0999 V2000
   25.6271  -17.3048  -16.5313 C   0  0  0  0  0  0  0  0  0  0  0  0
   26.6048  -18.2840  -17.0912 C   0  0  0  0  0  0  0  0  0  0  0  0
   27.9702  -18.1761  -16.4240 C   0  0  2  0  0  0  0  0  0  0  0  0
   28.8557  -17.3800  -17.3484 C   0  0  0  0  0  0  0  0  0  0  0  0
   28.5153  -19.5765  -16.1931 C   0  0  2  0  0  0  0  0  0  0  0  0
   28.3668  -20.3457  -17.4440 N   0  0  0  0  0  0  0  0  0  0  0  0
   27.7845  -20.3343  -15.1604 C   0  0  0  0  0  0  0  0  0  0  0  0
   26.8568  -21.1304  -15.5130 O   0  0  0  0  0  0  0  0  0  0  0  0
   28.0484  -20.2369  -13.7979 N   0  0  0  0  0  0  0  0  0  0  0  0
   27.2047  -20.9710  -12.8124 C   0  0  1  0  0  0  0  0  0  0  0  0
   27.9196  -20.8306  -11.5049 C   0  0  0  0  0  0  0  0  0  0  0  0
   27.1170  -20.7410  -10.2902 C   0  0  0  0  0  0  0  0  0  0  0  0
   25.7628  -21.0236  -10.1378 C   0  0  0  0  0  0  0  0  0  0  0  0
   25.3994  -20.7903   -8.8652 N   0  0  0  0  0  0  0  0  0  0  0  0
   26.4723  -20.3594   -8.1618 C   0  0  0  0  0  0  0  0  0  0  0  0
   26.6782  -19.9819   -6.8505 C   0  0  0  0  0  0  0  0  0  0  0  0
   27.9116  -19.5756   -6.3928 C   0  0  0  0  0  0  0  0  0  0  0  0
   28.9736  -19.5448   -7.2717 C   0  0  0  0  0  0  0  0  0  0  0  0
   28.7896  -19.9171   -8.5846 C   0  0  0  0  0  0  0  0  0  0  0  0
   27.5305  -20.3260   -9.0287 C   0  0  0  0  0  0  0  0  0  0  0  0
   25.8387  -20.4620  -12.8665 C   0  0  0  0  0  0  0  0  0  0  0  0
   25.7128  -19.1800  -12.8855 O   0  0  0  0  0  0  0  0  0  0  0  0
   24.6307  -21.1760  -12.9093 N   0  0  0  0  0  0  0  0  0  0  0  0
   24.4072  -22.5847  -12.7000 C   0  0  0  0  0  0  0  0  0  0  0  0
   23.2654  -22.9629  -13.6311 C   0  0  0  0  0  0  0  0  0  0  0  0
   22.8417  -21.6618  -14.2322 C   0  0  0  0  0  0  0  0  0  0  0  0
   23.2929  -20.6268  -13.2343 C   0  0  1  0  0  0  0  0  0  0  0  0
   22.3937  -20.6660  -12.0652 C   0  0  0  0  0  0  0  0  0  0  0  0
   22.7657  -21.3870  -11.0991 O   0  0  0  0  0  0  0  0  0  0  0  0
   21.2012  -19.9929  -11.9422 O   0  0  0  0  0  0  0  0  0  0  0  0
  2  1  1  0
  3  2  1  0
  3  4  1  6
  5  6  1  6
  5  3  1  0
  7  5  1  0
  8  7  2  0
  9  7  1  0
 10 21  1  0
 10  9  1  0
 10 11  1  1
 12 11  1  0
 13 12  2  0
 14 13  1  0
 15 14  1  0
 15 20  2  0
 16 15  1  0
 17 16  2  0
 17 18  1  0
 18 19  2  0
 19 20  1  0
 20 12  1  0
 21 22  2  0
 23 27  1  0
 23 21  1  0
 24 25  1  0
 24 23  1  0
 25 26  1  0
 27 26  1  0
 28 30  1  0
 27 28  1  1
 29 28  2  0
M  END
$$$$
