IWP.pdb
     RDKit          3D

 30 32  0  0  1  0  0  0  0  0999 V2000
   25.6919  -26.3780  -17.3058 C   0  0  0  0  0  0  0  0  0  0  0  0
   26.6515  -25.3839  -17.8706 C   0  0  0  0  0  0  0  0  0  0  0  0
   26.0896  -23.9679  -17.8483 C   0  0  2  0  0  0  0  0  0  0  0  0
   26.0268  -23.4915  -19.2771 C   0  0  0  0  0  0  0  0  0  0  0  0
   27.0014  -23.0916  -17.0043 C   0  0  2  0  0  0  0  0  0  0  0  0
   28.1422  -23.9099  -16.5490 N   0  0  0  0  0  0  0  0  0  0  0  0
   26.3597  -22.5725  -15.7822 C   0  0  0  0  0  0  0  0  0  0  0  0
   26.1557  -23.3603  -14.8042 O   0  0  0  0  0  0  0  0  0  0  0  0
   25.9559  -21.2508  -15.6226 N   0  0  0  0  0  0  0  0  0  0  0  0
   25.2584  -20.8209  -14.3773 C   0  0  1  0  0  0  0  0  0  0  0  0
   26.0589  -19.6671  -13.8595 C   0  0  0  0  0  0  0  0  0  0  0  0
   27.2177  -19.9567  -13.0222 C   0  0  0  0  0  0  0  0  0  0  0  0
   28.5593  -19.9627  -13.3920 C   0  0  0  0  0  0  0  0  0  0  0  0
   29.3121  -20.3045  -12.3326 N   0  0  0  0  0  0  0  0  0  0  0  0
   28.5118  -20.5276  -11.2642 C   0  0  0  0  0  0  0  0  0  0  0  0
   28.7334  -20.8949   -9.9526 C   0  0  0  0  0  0  0  0  0  0  0  0
   27.7017  -21.0535   -9.0546 C   0  0  0  0  0  0  0  0  0  0  0  0
   26.4076  -20.8388   -9.4789 C   0  0  0  0  0  0  0  0  0  0  0  0
   26.1644  -20.4721  -10.7837 C   0  0  0  0  0  0  0  0  0  0  0  0
   27.2249  -20.3166  -11.6787 C   0  0  0  0  0  0  0  0  0  0  0  0
   23.8537  -20.5599  -14.6716 C   0  0  0  0  0  0  0  0  0  0  0  0
   23.5699  -20.3136  -15.9039 O   0  0  0  0  0  0  0  0  0  0  0  0
   22.7553  -20.5466  -13.7974 N   0  0  0  0  0  0  0  0  0  0  0  0
   22.7414  -20.6962  -12.3636 C   0  0  0  0  0  0  0  0  0  0  0  0
   21.4524  -21.4358  -12.0396 C   0  0  0  0  0  0  0  0  0  0  0  0
   20.7578  -21.5483  -13.3582 C   0  0  0  0  0  0  0  0  0  0  0  0
   21.3281  -20.4188  -14.1764 C   0  0  1  0  0  0  0  0  0  0  0  0
   20.7540  -19.1459  -13.6998 C   0  0  0  0  0  0  0  0  0  0  0  0
   21.5170  -18.4118  -13.0140 O   0  0  0  0  0  0  0  0  0  0  0  0
   19.4754  -18.6993  -13.9365 O   0  0  0  0  0  0  0  0  0  0  0  0
  2  1  1  0
  3  2  1  0
  3  4  1  6
  5  6  1  1
  5  3  1  0
  7  5  1  0
  8  7  2  0
  9  7  1  0
 10 21  1  0
 10  9  1  0
 10 11  1  6
 12 11  1  0
 13 12  2  0
 14 13  1  0
 15 14  1  0
 15 20  2  0
 16 15  1  0
 17 16  2  0
 17 18  1  0
 18 19  2  0
 19 20  1  0
 20 12  1  0
 21 22  2  0
 23 27  1  0
 23 21  1  0
 24 25  1  0
 24 23  1  0
 25 26  1  0
 27 26  1  0
 28 30  1  0
 27 28  1  1
 29 28  2  0
M  END
$$$$
