IWP.pdb
     RDKit          3D

 30 32  0  0  1  0  0  0  0  0999 V2000
   20.0209  -22.6967  -14.3962 C   0  0  0  0  0  0  0  0  0  0  0  0
   19.8679  -21.2469  -14.0755 C   0  0  0  0  0  0  0  0  0  0  0  0
   21.2050  -20.5828  -13.7716 C   0  0  2  0  0  0  0  0  0  0  0  0
   22.0973  -20.8123  -14.9647 C   0  0  0  0  0  0  0  0  0  0  0  0
   21.7848  -21.2022  -12.5099 C   0  0  2  0  0  0  0  0  0  0  0  0
   20.8985  -20.8682  -11.3780 N   0  0  0  0  0  0  0  0  0  0  0  0
   23.1167  -20.6805  -12.1515 C   0  0  0  0  0  0  0  0  0  0  0  0
   23.3807  -19.4534  -12.3597 O   0  0  0  0  0  0  0  0  0  0  0  0
   24.1246  -21.4557  -11.5869 N   0  0  0  0  0  0  0  0  0  0  0  0
   25.5206  -20.9386  -11.5118 C   0  0  1  0  0  0  0  0  0  0  0  0
   26.0737  -21.4910  -10.2353 C   0  0  0  0  0  0  0  0  0  0  0  0
   26.5746  -20.5494   -9.2403 C   0  0  0  0  0  0  0  0  0  0  0  0
   26.0268  -19.3245   -8.8708 C   0  0  0  0  0  0  0  0  0  0  0  0
   26.8053  -18.7517   -7.9371 N   0  0  0  0  0  0  0  0  0  0  0  0
   27.8588  -19.5587   -7.6717 C   0  0  0  0  0  0  0  0  0  0  0  0
   28.9446  -19.4806   -6.8235 C   0  0  0  0  0  0  0  0  0  0  0  0
   29.8912  -20.4782   -6.7555 C   0  0  0  0  0  0  0  0  0  0  0  0
   29.7500  -21.5893   -7.5596 C   0  0  0  0  0  0  0  0  0  0  0  0
   28.6741  -21.6870   -8.4134 C   0  0  0  0  0  0  0  0  0  0  0  0
   27.7251  -20.6640   -8.4672 C   0  0  0  0  0  0  0  0  0  0  0  0
   26.2346  -21.2855  -12.7357 C   0  0  0  0  0  0  0  0  0  0  0  0
   25.9324  -22.4205  -13.2649 O   0  0  0  0  0  0  0  0  0  0  0  0
   27.2072  -20.5489  -13.4303 N   0  0  0  0  0  0  0  0  0  0  0  0
   27.9930  -19.4317  -12.9690 C   0  0  0  0  0  0  0  0  0  0  0  0
   28.1837  -18.5341  -14.1821 C   0  0  0  0  0  0  0  0  0  0  0  0
   27.5630  -19.3032  -15.3033 C   0  0  0  0  0  0  0  0  0  0  0  0
   27.6135  -20.7372  -14.8432 C   0  0  1  0  0  0  0  0  0  0  0  0
   29.0027  -21.2235  -14.9461 C   0  0  0  0  0  0  0  0  0  0  0  0
   29.6771  -21.2154  -13.8799 O   0  0  0  0  0  0  0  0  0  0  0  0
   29.6153  -21.6780  -16.0900 O   0  0  0  0  0  0  0  0  0  0  0  0
  2  1  1  0
  3  2  1  0
  3  4  1  6
  5  6  1  1
  5  3  1  0
  7  5  1  0
  8  7  2  0
  9  7  1  0
 10 21  1  0
 10  9  1  0
 10 11  1  1
 12 11  1  0
 13 12  2  0
 14 13  1  0
 15 14  1  0
 15 20  2  0
 16 15  1  0
 17 16  2  0
 17 18  1  0
 18 19  2  0
 19 20  1  0
 20 12  1  0
 21 22  2  0
 23 27  1  0
 23 21  1  0
 24 25  1  0
 24 23  1  0
 25 26  1  0
 27 26  1  0
 28 30  1  0
 27 28  1  1
 29 28  2  0
M  END
$$$$
