IWP.pdb
     RDKit          3D

 30 32  0  0  1  0  0  0  0  0999 V2000
   22.0779  -15.5572  -21.2222 C   0  0  0  0  0  0  0  0  0  0  0  0
   21.7573  -16.5583  -20.1624 C   0  0  0  0  0  0  0  0  0  0  0  0
   23.0061  -17.2512  -19.6317 C   0  0  2  0  0  0  0  0  0  0  0  0
   22.5932  -18.6294  -19.1817 C   0  0  0  0  0  0  0  0  0  0  0  0
   23.5709  -16.4315  -18.4824 C   0  0  2  0  0  0  0  0  0  0  0  0
   24.1729  -15.2039  -19.0382 N   0  0  0  0  0  0  0  0  0  0  0  0
   24.6481  -17.1133  -17.7413 C   0  0  0  0  0  0  0  0  0  0  0  0
   25.7955  -17.2298  -18.2787 O   0  0  0  0  0  0  0  0  0  0  0  0
   24.4915  -17.6472  -16.4661 N   0  0  0  0  0  0  0  0  0  0  0  0
   25.5822  -18.4530  -15.8472 C   0  0  1  0  0  0  0  0  0  0  0  0
   25.6207  -18.0229  -14.4141 C   0  0  0  0  0  0  0  0  0  0  0  0
   26.4323  -18.8018  -13.4855 C   0  0  0  0  0  0  0  0  0  0  0  0
   27.8119  -18.9838  -13.5014 C   0  0  0  0  0  0  0  0  0  0  0  0
   28.1666  -19.7919  -12.4879 N   0  0  0  0  0  0  0  0  0  0  0  0
   27.0629  -20.1558  -11.7943 C   0  0  0  0  0  0  0  0  0  0  0  0
   26.8363  -20.9503  -10.6889 C   0  0  0  0  0  0  0  0  0  0  0  0
   25.5724  -21.1516  -10.1811 C   0  0  0  0  0  0  0  0  0  0  0  0
   24.5002  -20.5406  -10.7960 C   0  0  0  0  0  0  0  0  0  0  0  0
   24.7042  -19.7440  -11.9006 C   0  0  0  0  0  0  0  0  0  0  0  0
   25.9942  -19.5528  -12.3998 C   0  0  0  0  0  0  0  0  0  0  0  0
   25.3417  -19.8701  -16.0963 C   0  0  0  0  0  0  0  0  0  0  0  0
   24.1185  -20.2054  -16.3223 O   0  0  0  0  0  0  0  0  0  0  0  0
   26.2622  -20.9294  -16.1334 N   0  0  0  0  0  0  0  0  0  0  0  0
   27.6700  -20.9128  -15.8235 C   0  0  0  0  0  0  0  0  0  0  0  0
   28.3113  -21.9170  -16.7690 C   0  0  0  0  0  0  0  0  0  0  0  0
   27.1528  -22.5291  -17.4879 C   0  0  0  0  0  0  0  0  0  0  0  0
   25.9863  -22.3229  -16.5565 C   0  0  1  0  0  0  0  0  0  0  0  0
   26.1045  -23.2644  -15.4267 C   0  0  0  0  0  0  0  0  0  0  0  0
   26.4794  -22.7724  -14.3272 O   0  0  0  0  0  0  0  0  0  0  0  0
   25.8445  -24.6138  -15.4709 O   0  0  0  0  0  0  0  0  0  0  0  0
  2  1  1  0
  3  2  1  0
  3  4  1  1
  5  6  1  6
  5  3  1  0
  7  5  1  0
  8  7  2  0
  9  7  1  0
 10 21  1  0
 10  9  1  0
 10 11  1  1
 12 11  1  0
 13 12  2  0
 14 13  1  0
 15 14  1  0
 15 20  2  0
 16 15  1  0
 17 16  2  0
 17 18  1  0
 18 19  2  0
 19 20  1  0
 20 12  1  0
 21 22  2  0
 23 27  1  0
 23 21  1  0
 24 25  1  0
 24 23  1  0
 25 26  1  0
 27 26  1  0
 28 30  1  0
 27 28  1  1
 29 28  2  0
M  END
$$$$
