IWP.pdb
     RDKit          3D

 30 32  0  0  1  0  0  0  0  0999 V2000
   22.4413  -16.0048  -20.2330 C   0  0  0  0  0  0  0  0  0  0  0  0
   23.1475  -15.7760  -18.9381 C   0  0  0  0  0  0  0  0  0  0  0  0
   23.5646  -17.0821  -18.2739 C   0  0  2  0  0  0  0  0  0  0  0  0
   22.5624  -17.3673  -17.1845 C   0  0  0  0  0  0  0  0  0  0  0  0
   24.9696  -16.9216  -17.7155 C   0  0  2  0  0  0  0  0  0  0  0  0
   25.9129  -16.8345  -18.8474 N   0  0  0  0  0  0  0  0  0  0  0  0
   25.4176  -18.0656  -16.8998 C   0  0  0  0  0  0  0  0  0  0  0  0
   25.4473  -19.2264  -17.4197 O   0  0  0  0  0  0  0  0  0  0  0  0
   25.8206  -17.9581  -15.5725 N   0  0  0  0  0  0  0  0  0  0  0  0
   26.0439  -19.1819  -14.7513 C   0  0  1  0  0  0  0  0  0  0  0  0
   26.9895  -18.7598  -13.6705 C   0  0  0  0  0  0  0  0  0  0  0  0
   27.3997  -19.7582  -12.6893 C   0  0  0  0  0  0  0  0  0  0  0  0
   28.4458  -20.6711  -12.7850 C   0  0  0  0  0  0  0  0  0  0  0  0
   28.4749  -21.4330  -11.6783 N   0  0  0  0  0  0  0  0  0  0  0  0
   27.4776  -21.0557  -10.8450 C   0  0  0  0  0  0  0  0  0  0  0  0
   27.0462  -21.4767   -9.6035 C   0  0  0  0  0  0  0  0  0  0  0  0
   25.9721  -20.8951   -8.9679 C   0  0  0  0  0  0  0  0  0  0  0  0
   25.3072  -19.8604   -9.5909 C   0  0  0  0  0  0  0  0  0  0  0  0
   25.7210  -19.4252  -10.8301 C   0  0  0  0  0  0  0  0  0  0  0  0
   26.8128  -20.0286  -11.4577 C   0  0  0  0  0  0  0  0  0  0  0  0
   24.7584  -19.7195  -14.3195 C   0  0  0  0  0  0  0  0  0  0  0  0
   23.7905  -18.8736  -14.2359 O   0  0  0  0  0  0  0  0  0  0  0  0
   24.4201  -21.0408  -13.9867 N   0  0  0  0  0  0  0  0  0  0  0  0
   25.2816  -22.1908  -13.8700 C   0  0  0  0  0  0  0  0  0  0  0  0
   24.4522  -23.3756  -14.3412 C   0  0  0  0  0  0  0  0  0  0  0  0
   23.0974  -22.7946  -14.5878 C   0  0  0  0  0  0  0  0  0  0  0  0
   23.0582  -21.5621  -13.7216 C   0  0  1  0  0  0  0  0  0  0  0  0
   22.9010  -21.9726  -12.3131 C   0  0  0  0  0  0  0  0  0  0  0  0
   23.9666  -22.1657  -11.6659 O   0  0  0  0  0  0  0  0  0  0  0  0
   21.7078  -22.1601  -11.6562 O   0  0  0  0  0  0  0  0  0  0  0  0
  2  1  1  0
  3  2  1  0
  3  4  1  1
  5  6  1  6
  5  3  1  0
  7  5  1  0
  8  7  2  0
  9  7  1  0
 10 21  1  0
 10  9  1  0
 10 11  1  1
 12 11  1  0
 13 12  2  0
 14 13  1  0
 15 14  1  0
 15 20  2  0
 16 15  1  0
 17 16  2  0
 17 18  1  0
 18 19  2  0
 19 20  1  0
 20 12  1  0
 21 22  2  0
 23 27  1  0
 23 21  1  0
 24 25  1  0
 24 23  1  0
 25 26  1  0
 27 26  1  0
 28 30  1  0
 27 28  1  1
 29 28  2  0
M  END
$$$$
