IWP.pdb
     RDKit          3D

 30 32  0  0  1  0  0  0  0  0999 V2000
   23.6989  -16.5406  -17.7688 C   0  0  0  0  0  0  0  0  0  0  0  0
   25.0998  -16.4551  -18.2768 C   0  0  0  0  0  0  0  0  0  0  0  0
   26.0363  -15.8009  -17.2688 C   0  0  2  0  0  0  0  0  0  0  0  0
   26.5107  -14.5059  -17.8774 C   0  0  0  0  0  0  0  0  0  0  0  0
   27.1937  -16.7464  -16.9890 C   0  0  2  0  0  0  0  0  0  0  0  0
   27.7169  -17.2359  -18.2794 N   0  0  0  0  0  0  0  0  0  0  0  0
   26.8069  -17.9470  -16.2251 C   0  0  0  0  0  0  0  0  0  0  0  0
   26.3913  -18.9745  -16.8499 O   0  0  0  0  0  0  0  0  0  0  0  0
   26.8694  -18.0343  -14.8380 N   0  0  0  0  0  0  0  0  0  0  0  0
   26.4661  -19.2898  -14.1429 C   0  0  1  0  0  0  0  0  0  0  0  0
   27.2553  -19.3030  -12.8712 C   0  0  0  0  0  0  0  0  0  0  0  0
   27.0357  -20.4031  -11.9388 C   0  0  0  0  0  0  0  0  0  0  0  0
   27.1135  -21.7688  -12.1947 C   0  0  0  0  0  0  0  0  0  0  0  0
   26.8162  -22.4497  -11.0749 N   0  0  0  0  0  0  0  0  0  0  0  0
   26.5412  -21.5779  -10.0769 C   0  0  0  0  0  0  0  0  0  0  0  0
   26.1849  -21.7109   -8.7503 C   0  0  0  0  0  0  0  0  0  0  0  0
   25.9605  -20.6193   -7.9417 C   0  0  0  0  0  0  0  0  0  0  0  0
   26.0959  -19.3545   -8.4737 C   0  0  0  0  0  0  0  0  0  0  0  0
   26.4504  -19.1995   -9.7953 C   0  0  0  0  0  0  0  0  0  0  0  0
   26.6734  -20.3198  -10.5985 C   0  0  0  0  0  0  0  0  0  0  0  0
   25.0139  -19.3273  -14.0095 C   0  0  0  0  0  0  0  0  0  0  0  0
   24.4251  -18.1859  -13.9099 O   0  0  0  0  0  0  0  0  0  0  0  0
   24.1576  -20.4394  -13.9819 N   0  0  0  0  0  0  0  0  0  0  0  0
   24.4908  -21.8379  -14.0904 C   0  0  0  0  0  0  0  0  0  0  0  0
   23.3296  -22.4810  -14.8331 C   0  0  0  0  0  0  0  0  0  0  0  0
   22.3407  -21.3715  -14.9903 C   0  0  0  0  0  0  0  0  0  0  0  0
   22.6792  -20.4116  -13.8792 C   0  0  1  0  0  0  0  0  0  0  0  0
   22.2154  -20.9796  -12.5989 C   0  0  0  0  0  0  0  0  0  0  0  0
   23.0567  -21.6644  -11.9548 O   0  0  0  0  0  0  0  0  0  0  0  0
   20.9610  -20.8279  -12.0567 O   0  0  0  0  0  0  0  0  0  0  0  0
  2  1  1  0
  3  2  1  0
  3  4  1  6
  5  6  1  6
  5  3  1  0
  7  5  1  0
  8  7  2  0
  9  7  1  0
 10 21  1  0
 10  9  1  0
 10 11  1  1
 12 11  1  0
 13 12  2  0
 14 13  1  0
 15 14  1  0
 15 20  2  0
 16 15  1  0
 17 16  2  0
 17 18  1  0
 18 19  2  0
 19 20  1  0
 20 12  1  0
 21 22  2  0
 23 27  1  0
 23 21  1  0
 24 25  1  0
 24 23  1  0
 25 26  1  0
 27 26  1  0
 28 30  1  0
 27 28  1  1
 29 28  2  0
M  END
$$$$
