IWP.pdb
     RDKit          3D

 30 32  0  0  1  0  0  0  0  0999 V2000
   24.4897  -22.6589  -14.8065 C   0  0  0  0  0  0  0  0  0  0  0  0
   24.2437  -21.4923  -13.9084 C   0  0  0  0  0  0  0  0  0  0  0  0
   23.2550  -21.8226  -12.7973 C   0  0  2  0  0  0  0  0  0  0  0  0
   21.9577  -22.2140  -13.4579 C   0  0  0  0  0  0  0  0  0  0  0  0
   23.0863  -20.5989  -11.9110 C   0  0  2  0  0  0  0  0  0  0  0  0
   22.6714  -19.4641  -12.7586 N   0  0  0  0  0  0  0  0  0  0  0  0
   24.3309  -20.1743  -11.2435 C   0  0  0  0  0  0  0  0  0  0  0  0
   25.0591  -19.2867  -11.7919 O   0  0  0  0  0  0  0  0  0  0  0  0
   24.7704  -20.6883  -10.0277 N   0  0  0  0  0  0  0  0  0  0  0  0
   26.0898  -20.2776   -9.4686 C   0  0  1  0  0  0  0  0  0  0  0  0
   25.8557  -20.1066   -8.0002 C   0  0  0  0  0  0  0  0  0  0  0  0
   26.8974  -19.4601   -7.2100 C   0  0  0  0  0  0  0  0  0  0  0  0
   27.4387  -18.1900   -7.3851 C   0  0  0  0  0  0  0  0  0  0  0  0
   28.3937  -17.9815   -6.4628 N   0  0  0  0  0  0  0  0  0  0  0  0
   28.5067  -19.0765   -5.6756 C   0  0  0  0  0  0  0  0  0  0  0  0
   29.3014  -19.4129   -4.5986 C   0  0  0  0  0  0  0  0  0  0  0  0
   29.1999  -20.6334   -3.9694 C   0  0  0  0  0  0  0  0  0  0  0  0
   28.2761  -21.5476   -4.4295 C   0  0  0  0  0  0  0  0  0  0  0  0
   27.4735  -21.2322   -5.5031 C   0  0  0  0  0  0  0  0  0  0  0  0
   27.5923  -19.9888   -6.1273 C   0  0  0  0  0  0  0  0  0  0  0  0
   27.1068  -21.2483   -9.8579 C   0  0  0  0  0  0  0  0  0  0  0  0
   26.6952  -22.4544  -10.0463 O   0  0  0  0  0  0  0  0  0  0  0  0
   28.4812  -21.0525  -10.0666 N   0  0  0  0  0  0  0  0  0  0  0  0
   29.2554  -19.8469   -9.9073 C   0  0  0  0  0  0  0  0  0  0  0  0
   30.3289  -19.9020  -10.9834 C   0  0  0  0  0  0  0  0  0  0  0  0
   30.1389  -21.2425  -11.6166 C   0  0  0  0  0  0  0  0  0  0  0  0
   29.4514  -22.0612  -10.5546 C   0  0  1  0  0  0  0  0  0  0  0  0
   30.4342  -22.4146   -9.5125 C   0  0  0  0  0  0  0  0  0  0  0  0
   31.2522  -23.3296   -9.8042 O   0  0  0  0  0  0  0  0  0  0  0  0
   30.5319  -21.8389   -8.2677 O   0  0  0  0  0  0  0  0  0  0  0  0
  2  1  1  0
  3  2  1  0
  3  4  1  6
  5  6  1  6
  5  3  1  0
  7  5  1  0
  8  7  2  0
  9  7  1  0
 10 21  1  0
 10  9  1  0
 10 11  1  1
 12 11  1  0
 13 12  2  0
 14 13  1  0
 15 14  1  0
 15 20  2  0
 16 15  1  0
 17 16  2  0
 17 18  1  0
 18 19  2  0
 19 20  1  0
 20 12  1  0
 21 22  2  0
 23 27  1  0
 23 21  1  0
 24 25  1  0
 24 23  1  0
 25 26  1  0
 27 26  1  0
 28 30  1  0
 27 28  1  1
 29 28  2  0
M  END
$$$$
