IWP.pdb
     RDKit          3D

 30 32  0  0  1  0  0  0  0  0999 V2000
   25.0366  -21.0858  -21.6338 C   0  0  0  0  0  0  0  0  0  0  0  0
   25.4505  -20.8867  -20.2135 C   0  0  0  0  0  0  0  0  0  0  0  0
   24.5021  -21.5730  -19.2384 C   0  0  2  0  0  0  0  0  0  0  0  0
   23.5178  -22.3667  -20.0591 C   0  0  0  0  0  0  0  0  0  0  0  0
   23.8070  -20.5113  -18.4009 C   0  0  2  0  0  0  0  0  0  0  0  0
   23.7347  -19.2678  -19.1926 N   0  0  0  0  0  0  0  0  0  0  0  0
   24.5306  -20.1644  -17.1637 C   0  0  0  0  0  0  0  0  0  0  0  0
   25.8007  -20.2380  -17.1447 O   0  0  0  0  0  0  0  0  0  0  0  0
   23.9049  -19.7513  -15.9918 N   0  0  0  0  0  0  0  0  0  0  0  0
   24.7129  -19.3981  -14.7901 C   0  0  1  0  0  0  0  0  0  0  0  0
   24.4132  -17.9553  -14.5281 C   0  0  0  0  0  0  0  0  0  0  0  0
   25.2762  -16.9525  -15.1424 C   0  0  0  0  0  0  0  0  0  0  0  0
   26.5236  -16.5159  -14.7064 C   0  0  0  0  0  0  0  0  0  0  0  0
   26.9778  -15.5629  -15.5380 N   0  0  0  0  0  0  0  0  0  0  0  0
   26.0692  -15.3494  -16.5180 C   0  0  0  0  0  0  0  0  0  0  0  0
   26.0090  -14.5105  -17.6121 C   0  0  0  0  0  0  0  0  0  0  0  0
   24.9311  -14.5040  -18.4688 C   0  0  0  0  0  0  0  0  0  0  0  0
   23.8794  -15.3619  -18.2259 C   0  0  0  0  0  0  0  0  0  0  0  0
   23.9191  -16.2070  -17.1394 C   0  0  0  0  0  0  0  0  0  0  0  0
   25.0218  -16.1979  -16.2827 C   0  0  0  0  0  0  0  0  0  0  0  0
   24.4139  -20.3326  -13.7106 C   0  0  0  0  0  0  0  0  0  0  0  0
   23.3630  -21.0610  -13.8676 O   0  0  0  0  0  0  0  0  0  0  0  0
   25.1185  -20.5595  -12.5177 N   0  0  0  0  0  0  0  0  0  0  0  0
   26.3538  -19.9645  -12.0722 C   0  0  0  0  0  0  0  0  0  0  0  0
   27.0745  -21.0508  -11.2885 C   0  0  0  0  0  0  0  0  0  0  0  0
   26.0982  -22.1820  -11.2552 C   0  0  0  0  0  0  0  0  0  0  0  0
   24.7576  -21.5221  -11.4500 C   0  0  1  0  0  0  0  0  0  0  0  0
   24.3799  -20.8298  -10.2030 C   0  0  0  0  0  0  0  0  0  0  0  0
   24.5724  -19.5832  -10.1765 O   0  0  0  0  0  0  0  0  0  0  0  0
   23.8439  -21.4206   -9.0832 O   0  0  0  0  0  0  0  0  0  0  0  0
  2  1  1  0
  3  2  1  0
  3  4  1  6
  5  6  1  6
  5  3  1  0
  7  5  1  0
  8  7  2  0
  9  7  1  0
 10 21  1  0
 10  9  1  0
 10 11  1  1
 12 11  1  0
 13 12  2  0
 14 13  1  0
 15 14  1  0
 15 20  2  0
 16 15  1  0
 17 16  2  0
 17 18  1  0
 18 19  2  0
 19 20  1  0
 20 12  1  0
 21 22  2  0
 23 27  1  0
 23 21  1  0
 24 25  1  0
 24 23  1  0
 25 26  1  0
 27 26  1  0
 28 30  1  0
 27 28  1  1
 29 28  2  0
M  END
$$$$
