LKP.pdb
     RDKit          3D

 25 25  0  0  1  0  0  0  0  0999 V2000
   25.5720  -21.3608   -7.9433 C   0  0  0  0  0  0  0  0  0  0  0  0
   26.6533  -20.3353   -8.2106 C   0  0  2  0  0  0  0  0  0  0  0  0
   26.3914  -19.0816   -7.4222 C   0  0  0  0  0  0  0  0  0  0  0  0
   26.8656  -20.0888   -9.6689 C   0  0  0  0  0  0  0  0  0  0  0  0
   27.1201  -21.3163  -10.4690 C   0  0  2  0  0  0  0  0  0  0  0  0
   28.5370  -21.5448  -10.6429 N   0  0  0  0  0  0  0  0  0  0  0  0
   26.4998  -21.1067  -11.8217 C   0  0  0  0  0  0  0  0  0  0  0  0
   26.9713  -20.2033  -12.5417 O   0  0  0  0  0  0  0  0  0  0  0  0
   25.4251  -21.9040  -12.2567 N   0  0  0  0  0  0  0  0  0  0  0  0
   24.9965  -21.9190  -13.6476 C   0  0  1  0  0  0  0  0  0  0  0  0
   24.8116  -23.3664  -14.1049 C   0  0  0  0  0  0  0  0  0  0  0  0
   24.4745  -23.2843  -15.5753 C   0  0  0  0  0  0  0  0  0  0  0  0
   24.2497  -24.5958  -16.2417 C   0  0  0  0  0  0  0  0  0  0  0  0
   23.9443  -24.3754  -17.7044 C   0  0  0  0  0  0  0  0  0  0  0  0
   23.6898  -25.6971  -18.2880 N   0  0  0  0  0  0  0  0  0  0  0  0
   23.7010  -21.2055  -13.7261 C   0  0  0  0  0  0  0  0  0  0  0  0
   22.8881  -21.3006  -12.7336 O   0  0  0  0  0  0  0  0  0  0  0  0
   23.3158  -20.4219  -14.8396 N   0  0  0  0  0  0  0  0  0  0  0  0
   24.1092  -20.2331  -16.0385 C   0  0  0  0  0  0  0  0  0  0  0  0
   23.7639  -18.8129  -16.4835 C   0  0  0  0  0  0  0  0  0  0  0  0
   22.4240  -18.5172  -15.8812 C   0  0  0  0  0  0  0  0  0  0  0  0
   22.0756  -19.6627  -14.9834 C   0  0  1  0  0  0  0  0  0  0  0  0
   21.0496  -20.5680  -15.5530 C   0  0  0  0  0  0  0  0  0  0  0  0
   19.7205  -20.2263  -15.4818 O   0  0  0  0  0  0  0  0  0  0  0  0
   21.3661  -21.6642  -16.1122 O   0  0  0  0  0  0  0  0  0  0  0  0
  2  1  1  6
  2  3  1  0
  4  2  1  0
  5  6  1  6
  5  4  1  0
  7  5  1  0
  8  7  2  0
  9  7  1  0
 10 11  1  1
 10  9  1  0
 11 12  1  0
 12 13  1  0
 13 14  1  0
 15 14  1  0
 16 17  2  0
 16 10  1  0
 18 16  1  0
 19 18  1  0
 20 21  1  0
 20 19  1  0
 21 22  1  0
 22 18  1  0
 22 23  1  6
 24 23  1  0
 25 23  2  0
M  END
$$$$
