LKP.pdb
     RDKit          3D

 25 25  0  0  1  0  0  0  0  0999 V2000
   19.0838  -20.6301  -17.7017 C   0  0  0  0  0  0  0  0  0  0  0  0
   20.0848  -19.7001  -18.3538 C   0  0  2  0  0  0  0  0  0  0  0  0
   20.1534  -19.9598  -19.8336 C   0  0  0  0  0  0  0  0  0  0  0  0
   21.4190  -19.7272  -17.6817 C   0  0  0  0  0  0  0  0  0  0  0  0
   21.3639  -19.6005  -16.2009 C   0  0  2  0  0  0  0  0  0  0  0  0
   20.8654  -18.3030  -15.8036 N   0  0  0  0  0  0  0  0  0  0  0  0
   22.7671  -19.7524  -15.6850 C   0  0  0  0  0  0  0  0  0  0  0  0
   23.3771  -20.8042  -15.9657 O   0  0  0  0  0  0  0  0  0  0  0  0
   23.3680  -18.7412  -14.9129 N   0  0  0  0  0  0  0  0  0  0  0  0
   24.6964  -18.9023  -14.3401 C   0  0  1  0  0  0  0  0  0  0  0  0
   25.3718  -17.5344  -14.2349 C   0  0  0  0  0  0  0  0  0  0  0  0
   26.1525  -17.3709  -15.5180 C   0  0  0  0  0  0  0  0  0  0  0  0
   26.8692  -16.0740  -15.6555 C   0  0  0  0  0  0  0  0  0  0  0  0
   27.5875  -16.0301  -16.9835 C   0  0  0  0  0  0  0  0  0  0  0  0
   28.1847  -14.6950  -17.0983 N   0  0  0  0  0  0  0  0  0  0  0  0
   24.5345  -19.4802  -12.9860 C   0  0  0  0  0  0  0  0  0  0  0  0
   23.4539  -19.2252  -12.3363 O   0  0  0  0  0  0  0  0  0  0  0  0
   25.5108  -20.3015  -12.3739 N   0  0  0  0  0  0  0  0  0  0  0  0
   26.8029  -20.6256  -12.9462 C   0  0  0  0  0  0  0  0  0  0  0  0
   27.0797  -22.0411  -12.4420 C   0  0  0  0  0  0  0  0  0  0  0  0
   26.2516  -22.1957  -11.2028 C   0  0  0  0  0  0  0  0  0  0  0  0
   25.3982  -20.9723  -11.0807 C   0  0  1  0  0  0  0  0  0  0  0  0
   25.8636  -20.0301  -10.0356 C   0  0  0  0  0  0  0  0  0  0  0  0
   25.5048  -20.2311   -8.7244 O   0  0  0  0  0  0  0  0  0  0  0  0
   26.5937  -19.0295  -10.3192 O   0  0  0  0  0  0  0  0  0  0  0  0
  2  1  1  1
  2  3  1  0
  4  2  1  0
  5  6  1  6
  5  4  1  0
  7  5  1  0
  8  7  2  0
  9  7  1  0
 10 11  1  1
 10  9  1  0
 11 12  1  0
 12 13  1  0
 13 14  1  0
 15 14  1  0
 16 17  2  0
 16 10  1  0
 18 16  1  0
 19 18  1  0
 20 21  1  0
 20 19  1  0
 21 22  1  0
 22 18  1  0
 22 23  1  1
 24 23  1  0
 25 23  2  0
M  END
$$$$
