LKP.pdb
     RDKit          3D

 25 25  0  0  1  0  0  0  0  0999 V2000
   26.7188  -26.1429  -17.9114 C   0  0  0  0  0  0  0  0  0  0  0  0
   28.1029  -26.1843  -17.2992 C   0  0  2  0  0  0  0  0  0  0  0  0
   28.3073  -27.4752  -16.5550 C   0  0  0  0  0  0  0  0  0  0  0  0
   28.4080  -24.9709  -16.4824 C   0  0  0  0  0  0  0  0  0  0  0  0
   28.2161  -23.6827  -17.2003 C   0  0  2  0  0  0  0  0  0  0  0  0
   29.3414  -23.3877  -18.0586 N   0  0  0  0  0  0  0  0  0  0  0  0
   28.1105  -22.6017  -16.1617 C   0  0  0  0  0  0  0  0  0  0  0  0
   29.1615  -22.2352  -15.5978 O   0  0  0  0  0  0  0  0  0  0  0  0
   26.8675  -22.0261  -15.8398 N   0  0  0  0  0  0  0  0  0  0  0  0
   26.7395  -21.0080  -14.8074 C   0  0  1  0  0  0  0  0  0  0  0  0
   26.4441  -19.6578  -15.4617 C   0  0  0  0  0  0  0  0  0  0  0  0
   25.2338  -19.8899  -16.3356 C   0  0  0  0  0  0  0  0  0  0  0  0
   24.7684  -18.6963  -17.0929 C   0  0  0  0  0  0  0  0  0  0  0  0
   23.5536  -19.0588  -17.9139 C   0  0  0  0  0  0  0  0  0  0  0  0
   23.1680  -17.8530  -18.6553 N   0  0  0  0  0  0  0  0  0  0  0  0
   25.6069  -21.3936  -13.9344 C   0  0  0  0  0  0  0  0  0  0  0  0
   24.7234  -22.2049  -14.3996 O   0  0  0  0  0  0  0  0  0  0  0  0
   25.4515  -20.9143  -12.6122 N   0  0  0  0  0  0  0  0  0  0  0  0
   26.3248  -19.9529  -11.9677 C   0  0  0  0  0  0  0  0  0  0  0  0
   26.3104  -20.3751  -10.4994 C   0  0  0  0  0  0  0  0  0  0  0  0
   25.0355  -21.1404  -10.3135 C   0  0  0  0  0  0  0  0  0  0  0  0
   24.4087  -21.2983  -11.6633 C   0  0  1  0  0  0  0  0  0  0  0  0
   23.2436  -20.4084  -11.8806 C   0  0  0  0  0  0  0  0  0  0  0  0
   23.3641  -19.3115  -12.6995 O   0  0  0  0  0  0  0  0  0  0  0  0
   22.1228  -20.6321  -11.3255 O   0  0  0  0  0  0  0  0  0  0  0  0
  2  1  1  1
  2  3  1  0
  4  2  1  0
  5  6  1  6
  5  4  1  0
  7  5  1  0
  8  7  2  0
  9  7  1  0
 10 11  1  6
 10  9  1  0
 11 12  1  0
 12 13  1  0
 13 14  1  0
 15 14  1  0
 16 17  2  0
 16 10  1  0
 18 16  1  0
 19 18  1  0
 20 21  1  0
 20 19  1  0
 21 22  1  0
 22 18  1  0
 22 23  1  1
 24 23  1  0
 25 23  2  0
M  END
$$$$
