LKP.pdb
     RDKit          3D

 25 25  0  0  1  0  0  0  0  0999 V2000
   28.2079  -15.4818  -16.6325 C   0  0  0  0  0  0  0  0  0  0  0  0
   27.0643  -14.5032  -16.4689 C   0  0  2  0  0  0  0  0  0  0  0  0
   27.5199  -13.2889  -15.7074 C   0  0  0  0  0  0  0  0  0  0  0  0
   25.8389  -15.1394  -15.8979 C   0  0  0  0  0  0  0  0  0  0  0  0
   25.4624  -16.4293  -16.5352 C   0  0  2  0  0  0  0  0  0  0  0  0
   24.6381  -16.2163  -17.7036 N   0  0  0  0  0  0  0  0  0  0  0  0
   24.6701  -17.2133  -15.5273 C   0  0  0  0  0  0  0  0  0  0  0  0
   24.4042  -16.6593  -14.4413 O   0  0  0  0  0  0  0  0  0  0  0  0
   24.2450  -18.5260  -15.8031 N   0  0  0  0  0  0  0  0  0  0  0  0
   23.5335  -19.3240  -14.8154 C   0  0  1  0  0  0  0  0  0  0  0  0
   22.2670  -19.9016  -15.4484 C   0  0  0  0  0  0  0  0  0  0  0  0
   21.6992  -20.8508  -14.4192 C   0  0  0  0  0  0  0  0  0  0  0  0
   20.4700  -21.5745  -14.8435 C   0  0  0  0  0  0  0  0  0  0  0  0
   19.9703  -22.4346  -13.7069 C   0  0  0  0  0  0  0  0  0  0  0  0
   18.7639  -23.1157  -14.1896 N   0  0  0  0  0  0  0  0  0  0  0  0
   24.4286  -20.4291  -14.4016 C   0  0  0  0  0  0  0  0  0  0  0  0
   25.1313  -21.0188  -15.3035 O   0  0  0  0  0  0  0  0  0  0  0  0
   24.5497  -20.8655  -13.0610 N   0  0  0  0  0  0  0  0  0  0  0  0
   23.7957  -20.3350  -11.9420 C   0  0  0  0  0  0  0  0  0  0  0  0
   24.7649  -20.4433  -10.7659 C   0  0  0  0  0  0  0  0  0  0  0  0
   25.7399  -21.5160  -11.1457 C   0  0  0  0  0  0  0  0  0  0  0  0
   25.4470  -21.9047  -12.5609 C   0  0  1  0  0  0  0  0  0  0  0  0
   24.7501  -23.2070  -12.6830 C   0  0  0  0  0  0  0  0  0  0  0  0
   25.4639  -24.3769  -12.5814 O   0  0  0  0  0  0  0  0  0  0  0  0
   23.4970  -23.2751  -12.8813 O   0  0  0  0  0  0  0  0  0  0  0  0
  2  1  1  1
  2  3  1  0
  4  2  1  0
  5  6  1  6
  5  4  1  0
  7  5  1  0
  8  7  2  0
  9  7  1  0
 10 11  1  6
 10  9  1  0
 11 12  1  0
 12 13  1  0
 13 14  1  0
 15 14  1  0
 16 17  2  0
 16 10  1  0
 18 16  1  0
 19 18  1  0
 20 21  1  0
 20 19  1  0
 21 22  1  0
 22 18  1  0
 22 23  1  1
 24 23  1  0
 25 23  2  0
M  END
$$$$
