LKP.pdb
     RDKit          3D

 25 25  0  0  1  0  0  0  0  0999 V2000
   16.0438   -9.3508  -19.9516 C   0  0  0  0  0  0  0  0  0  0  0  0
   16.4554  -10.5953  -19.1939 C   0  0  2  0  0  0  0  0  0  0  0  0
   15.2490  -11.4319  -18.8674 C   0  0  0  0  0  0  0  0  0  0  0  0
   17.3084  -10.2905  -18.0056 C   0  0  0  0  0  0  0  0  0  0  0  0
   18.3773  -11.2907  -17.7436 C   0  0  2  0  0  0  0  0  0  0  0  0
   17.8685  -12.4184  -16.9956 N   0  0  0  0  0  0  0  0  0  0  0  0
   19.4366  -10.6108  -16.9226 C   0  0  0  0  0  0  0  0  0  0  0  0
   19.1764  -10.3691  -15.7264 O   0  0  0  0  0  0  0  0  0  0  0  0
   20.6769  -10.2610  -17.4875 N   0  0  0  0  0  0  0  0  0  0  0  0
   21.7188   -9.6118  -16.7054 C   0  0  1  0  0  0  0  0  0  0  0  0
   23.0732   -9.8412  -17.3770 C   0  0  0  0  0  0  0  0  0  0  0  0
   23.4957  -11.2325  -16.9668 C   0  0  0  0  0  0  0  0  0  0  0  0
   24.8682  -11.6220  -17.3903 C   0  0  0  0  0  0  0  0  0  0  0  0
   25.0613  -13.1054  -17.1814 C   0  0  0  0  0  0  0  0  0  0  0  0
   26.4116  -13.4279  -17.6557 N   0  0  0  0  0  0  0  0  0  0  0  0
   21.4200   -8.1615  -16.6755 C   0  0  0  0  0  0  0  0  0  0  0  0
   20.8217   -7.6382  -17.6870 O   0  0  0  0  0  0  0  0  0  0  0  0
   21.7592   -7.3242  -15.5863 N   0  0  0  0  0  0  0  0  0  0  0  0
   22.4551   -7.7564  -14.3900 C   0  0  0  0  0  0  0  0  0  0  0  0
   21.8714   -6.8715  -13.2896 C   0  0  0  0  0  0  0  0  0  0  0  0
   21.3435   -5.6559  -13.9889 C   0  0  0  0  0  0  0  0  0  0  0  0
   21.4683   -5.8978  -15.4605 C   0  0  1  0  0  0  0  0  0  0  0  0
   22.5812   -5.1479  -16.0894 C   0  0  0  0  0  0  0  0  0  0  0  0
   22.4089   -3.8285  -16.4329 O   0  0  0  0  0  0  0  0  0  0  0  0
   23.7039   -5.6950  -16.3236 O   0  0  0  0  0  0  0  0  0  0  0  0
  2  1  1  1
  2  3  1  0
  4  2  1  0
  5  6  1  1
  5  4  1  0
  7  5  1  0
  8  7  2  0
  9  7  1  0
 10 11  1  6
 10  9  1  0
 11 12  1  0
 12 13  1  0
 13 14  1  0
 15 14  1  0
 16 17  2  0
 16 10  1  0
 18 16  1  0
 19 18  1  0
 20 21  1  0
 20 19  1  0
 21 22  1  0
 22 18  1  0
 22 23  1  1
 24 23  1  0
 25 23  2  0
M  END
$$$$
