LKP.pdb
     RDKit          3D

 25 25  0  0  1  0  0  0  0  0999 V2000
   30.2141  -32.8957  -16.3834 C   0  0  0  0  0  0  0  0  0  0  0  0
   29.0588  -32.0319  -16.8432 C   0  0  2  0  0  0  0  0  0  0  0  0
   29.5296  -30.6293  -17.1133 C   0  0  0  0  0  0  0  0  0  0  0  0
   27.8861  -32.0993  -15.9198 C   0  0  0  0  0  0  0  0  0  0  0  0
   27.3563  -33.4711  -15.6984 C   0  0  2  0  0  0  0  0  0  0  0  0
   26.7874  -34.0158  -16.9107 N   0  0  0  0  0  0  0  0  0  0  0  0
   26.2711  -33.3714  -14.6636 C   0  0  0  0  0  0  0  0  0  0  0  0
   25.1031  -33.1914  -15.0641 O   0  0  0  0  0  0  0  0  0  0  0  0
   26.5666  -33.4780  -13.2920 N   0  0  0  0  0  0  0  0  0  0  0  0
   25.5467  -33.8263  -12.3137 C   0  0  1  0  0  0  0  0  0  0  0  0
   24.9289  -35.1750  -12.6846 C   0  0  0  0  0  0  0  0  0  0  0  0
   23.6798  -34.8442  -13.4674 C   0  0  0  0  0  0  0  0  0  0  0  0
   22.9824  -36.0170  -14.0613 C   0  0  0  0  0  0  0  0  0  0  0  0
   21.7367  -35.5556  -14.7802 C   0  0  0  0  0  0  0  0  0  0  0  0
   21.0954  -36.7553  -15.3293 N   0  0  0  0  0  0  0  0  0  0  0  0
   26.2086  -33.9313  -10.9929 C   0  0  0  0  0  0  0  0  0  0  0  0
   27.3004  -34.6063  -10.9066 O   0  0  0  0  0  0  0  0  0  0  0  0
   25.6989  -33.3222   -9.8217 N   0  0  0  0  0  0  0  0  0  0  0  0
   24.4660  -32.5628   -9.7481 C   0  0  0  0  0  0  0  0  0  0  0  0
   24.7547  -31.5019   -8.6872 C   0  0  0  0  0  0  0  0  0  0  0  0
   25.8614  -32.0637   -7.8475 C   0  0  0  0  0  0  0  0  0  0  0  0
   26.3122  -33.3351   -8.4956 C   0  0  1  0  0  0  0  0  0  0  0  0
   25.8489  -34.5535   -7.7902 C   0  0  0  0  0  0  0  0  0  0  0  0
   26.4789  -34.9581   -6.6379 O   0  0  0  0  0  0  0  0  0  0  0  0
   24.8744  -35.2437   -8.2243 O   0  0  0  0  0  0  0  0  0  0  0  0
  2  1  1  1
  2  3  1  0
  4  2  1  0
  5  6  1  6
  5  4  1  0
  7  5  1  0
  8  7  2  0
  9  7  1  0
 10 11  1  6
 10  9  1  0
 11 12  1  0
 12 13  1  0
 13 14  1  0
 15 14  1  0
 16 17  2  0
 16 10  1  0
 18 16  1  0
 19 18  1  0
 20 21  1  0
 20 19  1  0
 21 22  1  0
 22 18  1  0
 22 23  1  1
 24 23  1  0
 25 23  2  0
M  END
$$$$
