LKP.pdb
     RDKit          3D

 25 25  0  0  1  0  0  0  0  0999 V2000
   26.7873  -14.7577  -14.9112 C   0  0  0  0  0  0  0  0  0  0  0  0
   26.0895  -15.0271  -16.2275 C   0  0  2  0  0  0  0  0  0  0  0  0
   27.0315  -15.6934  -17.1922 C   0  0  0  0  0  0  0  0  0  0  0  0
   25.4257  -13.8109  -16.7870 C   0  0  0  0  0  0  0  0  0  0  0  0
   24.4342  -13.1784  -15.8768 C   0  0  2  0  0  0  0  0  0  0  0  0
   23.3888  -14.1081  -15.5124 N   0  0  0  0  0  0  0  0  0  0  0  0
   23.8140  -12.0281  -16.6187 C   0  0  0  0  0  0  0  0  0  0  0  0
   24.5776  -11.2550  -17.2321 O   0  0  0  0  0  0  0  0  0  0  0  0
   22.4204  -11.8336  -16.6187 N   0  0  0  0  0  0  0  0  0  0  0  0
   21.8136  -10.6409  -17.1914 C   0  0  1  0  0  0  0  0  0  0  0  0
   20.3430  -10.9210  -17.5032 C   0  0  0  0  0  0  0  0  0  0  0  0
   19.7308  -11.3627  -16.1946 C   0  0  0  0  0  0  0  0  0  0  0  0
   18.2489  -11.4981  -16.2091 C   0  0  0  0  0  0  0  0  0  0  0  0
   17.7625  -11.8936  -14.8349 C   0  0  0  0  0  0  0  0  0  0  0  0
   16.3123  -12.0893  -14.9388 N   0  0  0  0  0  0  0  0  0  0  0  0
   21.9090   -9.5602  -16.1832 C   0  0  0  0  0  0  0  0  0  0  0  0
   22.0902   -9.8854  -14.9518 O   0  0  0  0  0  0  0  0  0  0  0  0
   21.8130   -8.1868  -16.5102 N   0  0  0  0  0  0  0  0  0  0  0  0
   21.5930   -7.6625  -17.8440 C   0  0  0  0  0  0  0  0  0  0  0  0
   22.3609   -6.3416  -17.8471 C   0  0  0  0  0  0  0  0  0  0  0  0
   22.4684   -5.9355  -16.4087 C   0  0  0  0  0  0  0  0  0  0  0  0
   21.9257   -7.0612  -15.5853 C   0  0  1  0  0  0  0  0  0  0  0  0
   20.5786   -6.7900  -15.0301 C   0  0  0  0  0  0  0  0  0  0  0  0
   20.4489   -6.0451  -13.8825 O   0  0  0  0  0  0  0  0  0  0  0  0
   19.5268   -7.2311  -15.5902 O   0  0  0  0  0  0  0  0  0  0  0  0
  2  1  1  1
  2  3  1  0
  4  2  1  0
  5  6  1  6
  5  4  1  0
  7  5  1  0
  8  7  2  0
  9  7  1  0
 10 11  1  1
 10  9  1  0
 11 12  1  0
 12 13  1  0
 13 14  1  0
 15 14  1  0
 16 17  2  0
 16 10  1  0
 18 16  1  0
 19 18  1  0
 20 21  1  0
 20 19  1  0
 21 22  1  0
 22 18  1  0
 22 23  1  6
 24 23  1  0
 25 23  2  0
M  END
$$$$
