LKP.pdb
     RDKit          3D

 25 25  0  0  1  0  0  0  0  0999 V2000
   17.8728  -17.4337  -17.6310 C   0  0  0  0  0  0  0  0  0  0  0  0
   18.0522  -18.0009  -16.2387 C   0  0  2  0  0  0  0  0  0  0  0  0
   16.9805  -17.4816  -15.3202 C   0  0  0  0  0  0  0  0  0  0  0  0
   19.4361  -17.8045  -15.7107 C   0  0  0  0  0  0  0  0  0  0  0  0
   20.5155  -18.2080  -16.6507 C   0  0  2  0  0  0  0  0  0  0  0  0
   20.4209  -19.6108  -16.9871 N   0  0  0  0  0  0  0  0  0  0  0  0
   21.8270  -17.9701  -15.9566 C   0  0  0  0  0  0  0  0  0  0  0  0
   22.0170  -16.8476  -15.4457 O   0  0  0  0  0  0  0  0  0  0  0  0
   22.8036  -18.9807  -15.8878 N   0  0  0  0  0  0  0  0  0  0  0  0
   24.1003  -18.7517  -15.2676 C   0  0  1  0  0  0  0  0  0  0  0  0
   24.4571  -19.9474  -14.3837 C   0  0  0  0  0  0  0  0  0  0  0  0
   24.5613  -21.1259  -15.3232 C   0  0  0  0  0  0  0  0  0  0  0  0
   24.8174  -22.4345  -14.6623 C   0  0  0  0  0  0  0  0  0  0  0  0
   25.0136  -23.5028  -15.7120 C   0  0  0  0  0  0  0  0  0  0  0  0
   25.1912  -24.7716  -14.9973 N   0  0  0  0  0  0  0  0  0  0  0  0
   25.1003  -18.6219  -16.3525 C   0  0  0  0  0  0  0  0  0  0  0  0
   24.8483  -19.1731  -17.4872 O   0  0  0  0  0  0  0  0  0  0  0  0
   26.3187  -17.9183  -16.2012 N   0  0  0  0  0  0  0  0  0  0  0  0
   26.8074  -17.3591  -14.9558 C   0  0  0  0  0  0  0  0  0  0  0  0
   27.5686  -16.1084  -15.3924 C   0  0  0  0  0  0  0  0  0  0  0  0
   27.9470  -16.3466  -16.8226 C   0  0  0  0  0  0  0  0  0  0  0  0
   27.2887  -17.6200  -17.2524 C   0  0  1  0  0  0  0  0  0  0  0  0
   28.2247  -18.7651  -17.3481 C   0  0  0  0  0  0  0  0  0  0  0  0
   29.1175  -18.8335  -18.3906 O   0  0  0  0  0  0  0  0  0  0  0  0
   28.2266  -19.6971  -16.4845 O   0  0  0  0  0  0  0  0  0  0  0  0
  2  1  1  6
  2  3  1  0
  4  2  1  0
  5  6  1  1
  5  4  1  0
  7  5  1  0
  8  7  2  0
  9  7  1  0
 10 11  1  1
 10  9  1  0
 11 12  1  0
 12 13  1  0
 13 14  1  0
 15 14  1  0
 16 17  2  0
 16 10  1  0
 18 16  1  0
 19 18  1  0
 20 21  1  0
 20 19  1  0
 21 22  1  0
 22 18  1  0
 22 23  1  1
 24 23  1  0
 25 23  2  0
M  END
$$$$
