LKP.pdb
     RDKit          3D

 25 25  0  0  1  0  0  0  0  0999 V2000
   27.4974  -23.7107  -17.5280 C   0  0  0  0  0  0  0  0  0  0  0  0
   28.0200  -22.4777  -16.8217 C   0  0  2  0  0  0  0  0  0  0  0  0
   29.0966  -22.8535  -15.8410 C   0  0  0  0  0  0  0  0  0  0  0  0
   26.9291  -21.6519  -16.2213 C   0  0  0  0  0  0  0  0  0  0  0  0
   25.8750  -21.2332  -17.1833 C   0  0  2  0  0  0  0  0  0  0  0  0
   26.3956  -20.3034  -18.1602 N   0  0  0  0  0  0  0  0  0  0  0  0
   24.7962  -20.5450  -16.3953 C   0  0  0  0  0  0  0  0  0  0  0  0
   25.1142  -19.5325  -15.7391 O   0  0  0  0  0  0  0  0  0  0  0  0
   23.4750  -21.0292  -16.4004 N   0  0  0  0  0  0  0  0  0  0  0  0
   22.3945  -20.3134  -15.7381 C   0  0  1  0  0  0  0  0  0  0  0  0
   21.4870  -19.6782  -16.7923 C   0  0  0  0  0  0  0  0  0  0  0  0
   20.4269  -18.9334  -16.0152 C   0  0  0  0  0  0  0  0  0  0  0  0
   19.3217  -18.3735  -16.8396 C   0  0  0  0  0  0  0  0  0  0  0  0
   19.8693  -17.3196  -17.7728 C   0  0  0  0  0  0  0  0  0  0  0  0
   18.7273  -16.7797  -18.5190 N   0  0  0  0  0  0  0  0  0  0  0  0
   21.6213  -21.2988  -14.9477 C   0  0  0  0  0  0  0  0  0  0  0  0
   21.3811  -22.4498  -15.4697 O   0  0  0  0  0  0  0  0  0  0  0  0
   21.1362  -21.0355  -13.6448 N   0  0  0  0  0  0  0  0  0  0  0  0
   21.2154  -19.7543  -12.9706 C   0  0  0  0  0  0  0  0  0  0  0  0
   21.3786  -20.1274  -11.4980 C   0  0  0  0  0  0  0  0  0  0  0  0
   20.8163  -21.5104  -11.3687 C   0  0  0  0  0  0  0  0  0  0  0  0
   20.4868  -21.9889  -12.7479 C   0  0  1  0  0  0  0  0  0  0  0  0
   19.0347  -21.9787  -13.0447 C   0  0  0  0  0  0  0  0  0  0  0  0
   18.2249  -22.9639  -12.5327 O   0  0  0  0  0  0  0  0  0  0  0  0
   18.5096  -21.0751  -13.7674 O   0  0  0  0  0  0  0  0  0  0  0  0
  2  1  1  1
  2  3  1  0
  4  2  1  0
  5  6  1  6
  5  4  1  0
  7  5  1  0
  8  7  2  0
  9  7  1  0
 10 11  1  6
 10  9  1  0
 11 12  1  0
 12 13  1  0
 13 14  1  0
 15 14  1  0
 16 17  2  0
 16 10  1  0
 18 16  1  0
 19 18  1  0
 20 21  1  0
 20 19  1  0
 21 22  1  0
 22 18  1  0
 22 23  1  1
 24 23  1  0
 25 23  2  0
M  END
$$$$
