LKP.pdb
     RDKit          3D

 25 25  0  0  1  0  0  0  0  0999 V2000
   18.5974  -19.4661  -16.9803 C   0  0  0  0  0  0  0  0  0  0  0  0
   18.5321  -18.6601  -15.7004 C   0  0  2  0  0  0  0  0  0  0  0  0
   17.9092  -17.3160  -15.9599 C   0  0  0  0  0  0  0  0  0  0  0  0
   19.8505  -18.5808  -15.0017 C   0  0  0  0  0  0  0  0  0  0  0  0
   20.4900  -19.8987  -14.7448 C   0  0  2  0  0  0  0  0  0  0  0  0
   20.0329  -20.4694  -13.4976 N   0  0  0  0  0  0  0  0  0  0  0  0
   21.9719  -19.6675  -14.6503 C   0  0  0  0  0  0  0  0  0  0  0  0
   22.4161  -19.1806  -13.5908 O   0  0  0  0  0  0  0  0  0  0  0  0
   22.8247  -19.9903  -15.7219 N   0  0  0  0  0  0  0  0  0  0  0  0
   24.2633  -19.7828  -15.6451 C   0  0  1  0  0  0  0  0  0  0  0  0
   24.9832  -21.0470  -16.1160 C   0  0  0  0  0  0  0  0  0  0  0  0
   26.4570  -20.7246  -16.0365 C   0  0  0  0  0  0  0  0  0  0  0  0
   27.3622  -21.8041  -16.5160 C   0  0  0  0  0  0  0  0  0  0  0  0
   28.7949  -21.3300  -16.4521 C   0  0  0  0  0  0  0  0  0  0  0  0
   29.6372  -22.4772  -16.8080 N   0  0  0  0  0  0  0  0  0  0  0  0
   24.6030  -18.6555  -16.5438 C   0  0  0  0  0  0  0  0  0  0  0  0
   24.0121  -18.5816  -17.6841 O   0  0  0  0  0  0  0  0  0  0  0  0
   25.5448  -17.6545  -16.2069 N   0  0  0  0  0  0  0  0  0  0  0  0
   26.3302  -17.6274  -14.9884 C   0  0  0  0  0  0  0  0  0  0  0  0
   26.4889  -16.1373  -14.6907 C   0  0  0  0  0  0  0  0  0  0  0  0
   26.3025  -15.4425  -16.0052 C   0  0  0  0  0  0  0  0  0  0  0  0
   25.8881  -16.4783  -17.0028 C   0  0  1  0  0  0  0  0  0  0  0  0
   26.9706  -16.8613  -17.9399 C   0  0  0  0  0  0  0  0  0  0  0  0
   27.6263  -18.0577  -17.7752 O   0  0  0  0  0  0  0  0  0  0  0  0
   27.3148  -16.1073  -18.9030 O   0  0  0  0  0  0  0  0  0  0  0  0
  2  1  1  6
  2  3  1  0
  4  2  1  0
  5  6  1  1
  5  4  1  0
  7  5  1  0
  8  7  2  0
  9  7  1  0
 10 11  1  6
 10  9  1  0
 11 12  1  0
 12 13  1  0
 13 14  1  0
 15 14  1  0
 16 17  2  0
 16 10  1  0
 18 16  1  0
 19 18  1  0
 20 21  1  0
 20 19  1  0
 21 22  1  0
 22 18  1  0
 22 23  1  6
 24 23  1  0
 25 23  2  0
M  END
$$$$
