LKP.pdb
     RDKit          3D

 25 25  0  0  1  0  0  0  0  0999 V2000
   29.7813  -19.5285  -18.4793 C   0  0  0  0  0  0  0  0  0  0  0  0
   28.7788  -20.3488  -19.2631 C   0  0  2  0  0  0  0  0  0  0  0  0
   28.1505  -19.5133  -20.3443 C   0  0  0  0  0  0  0  0  0  0  0  0
   27.7828  -21.0338  -18.3849 C   0  0  0  0  0  0  0  0  0  0  0  0
   28.3726  -21.7149  -17.2016 C   0  0  2  0  0  0  0  0  0  0  0  0
   28.9553  -22.9870  -17.5649 N   0  0  0  0  0  0  0  0  0  0  0  0
   27.2582  -21.9609  -16.2239 C   0  0  0  0  0  0  0  0  0  0  0  0
   26.4122  -22.8303  -16.5163 O   0  0  0  0  0  0  0  0  0  0  0  0
   27.1758  -21.2339  -15.0220 N   0  0  0  0  0  0  0  0  0  0  0  0
   26.1192  -21.4768  -14.0509 C   0  0  1  0  0  0  0  0  0  0  0  0
   26.5667  -20.9717  -12.6787 C   0  0  0  0  0  0  0  0  0  0  0  0
   25.3828  -21.1858  -11.7649 C   0  0  0  0  0  0  0  0  0  0  0  0
   25.5822  -20.7298  -10.3624 C   0  0  0  0  0  0  0  0  0  0  0  0
   24.3111  -20.9426   -9.5747 C   0  0  0  0  0  0  0  0  0  0  0  0
   24.5811  -20.4923   -8.2048 N   0  0  0  0  0  0  0  0  0  0  0  0
   24.9230  -20.7222  -14.4905 C   0  0  0  0  0  0  0  0  0  0  0  0
   25.0699  -19.4952  -14.8480 O   0  0  0  0  0  0  0  0  0  0  0  0
   23.6266  -21.2873  -14.5385 N   0  0  0  0  0  0  0  0  0  0  0  0
   23.2895  -22.6331  -14.1173 C   0  0  0  0  0  0  0  0  0  0  0  0
   22.1571  -23.0368  -15.0603 C   0  0  0  0  0  0  0  0  0  0  0  0
   21.5549  -21.7509  -15.5391 C   0  0  0  0  0  0  0  0  0  0  0  0
   22.4104  -20.6373  -15.0216 C   0  0  1  0  0  0  0  0  0  0  0  0
   21.8021  -19.9050  -13.8856 C   0  0  0  0  0  0  0  0  0  0  0  0
   22.2225  -20.1616  -12.6027 O   0  0  0  0  0  0  0  0  0  0  0  0
   20.8923  -19.0363  -14.0645 O   0  0  0  0  0  0  0  0  0  0  0  0
  2  1  1  1
  2  3  1  0
  4  2  1  0
  5  6  1  6
  5  4  1  0
  7  5  1  0
  8  7  2  0
  9  7  1  0
 10 11  1  1
 10  9  1  0
 11 12  1  0
 12 13  1  0
 13 14  1  0
 15 14  1  0
 16 17  2  0
 16 10  1  0
 18 16  1  0
 19 18  1  0
 20 21  1  0
 20 19  1  0
 21 22  1  0
 22 18  1  0
 22 23  1  1
 24 23  1  0
 25 23  2  0
M  END
$$$$
