LKP.pdb
     RDKit          3D

 25 25  0  0  1  0  0  0  0  0999 V2000
   28.7741  -21.1739  -13.5650 C   0  0  0  0  0  0  0  0  0  0  0  0
   27.7606  -20.1715  -14.0751 C   0  0  2  0  0  0  0  0  0  0  0  0
   28.4573  -18.9616  -14.6343 C   0  0  0  0  0  0  0  0  0  0  0  0
   26.7158  -19.8409  -13.0594 C   0  0  0  0  0  0  0  0  0  0  0  0
   25.9992  -21.0218  -12.5083 C   0  0  2  0  0  0  0  0  0  0  0  0
   25.8995  -22.0796  -13.4887 N   0  0  0  0  0  0  0  0  0  0  0  0
   24.6114  -20.5748  -12.1441 C   0  0  0  0  0  0  0  0  0  0  0  0
   24.5002  -19.6176  -11.3513 O   0  0  0  0  0  0  0  0  0  0  0  0
   23.4799  -21.2162  -12.6810 N   0  0  0  0  0  0  0  0  0  0  0  0
   22.1283  -20.8053  -12.3304 C   0  0  1  0  0  0  0  0  0  0  0  0
   21.3385  -20.5196  -13.6083 C   0  0  0  0  0  0  0  0  0  0  0  0
   21.8248  -19.1727  -14.0897 C   0  0  0  0  0  0  0  0  0  0  0  0
   21.1997  -18.6946  -15.3527 C   0  0  0  0  0  0  0  0  0  0  0  0
   21.8032  -17.3670  -15.7462 C   0  0  0  0  0  0  0  0  0  0  0  0
   21.1374  -16.9493  -16.9849 N   0  0  0  0  0  0  0  0  0  0  0  0
   21.4947  -21.9250  -11.5965 C   0  0  0  0  0  0  0  0  0  0  0  0
   21.4971  -23.0918  -12.1381 O   0  0  0  0  0  0  0  0  0  0  0  0
   20.8891  -21.7730  -10.3267 N   0  0  0  0  0  0  0  0  0  0  0  0
   20.9840  -20.5883   -9.4961 C   0  0  0  0  0  0  0  0  0  0  0  0
   20.9575  -21.1395   -8.0714 C   0  0  0  0  0  0  0  0  0  0  0  0
   20.2882  -22.4766   -8.1698 C   0  0  0  0  0  0  0  0  0  0  0  0
   20.0793  -22.7653   -9.6234 C   0  0  1  0  0  0  0  0  0  0  0  0
   18.6731  -22.6004  -10.0616 C   0  0  0  0  0  0  0  0  0  0  0  0
   17.7560  -23.5911   -9.8048 O   0  0  0  0  0  0  0  0  0  0  0  0
   18.2852  -21.5576  -10.6752 O   0  0  0  0  0  0  0  0  0  0  0  0
  2  1  1  1
  2  3  1  0
  4  2  1  0
  5  6  1  6
  5  4  1  0
  7  5  1  0
  8  7  2  0
  9  7  1  0
 10 11  1  6
 10  9  1  0
 11 12  1  0
 12 13  1  0
 13 14  1  0
 15 14  1  0
 16 17  2  0
 16 10  1  0
 18 16  1  0
 19 18  1  0
 20 21  1  0
 20 19  1  0
 21 22  1  0
 22 18  1  0
 22 23  1  6
 24 23  1  0
 25 23  2  0
M  END
$$$$
