WFM.pdb
     RDKit          3D

 34 36  0  0  1  0  0  0  0  0999 V2000
   10.5508  -14.4930   17.9235 N   0  0  0  0  0  0  0  0  0  0  0  0
   10.9505  -14.8350   19.2952 C   0  0  1  0  0  0  0  0  0  0  0  0
   12.0196  -13.8532   19.6729 C   0  0  0  0  0  0  0  0  0  0  0  0
   13.3302  -14.1134   19.0553 C   0  0  0  0  0  0  0  0  0  0  0  0
   13.5815  -14.0633   17.6799 C   0  0  0  0  0  0  0  0  0  0  0  0
   14.8564  -14.3102   17.4516 N   0  0  0  0  0  0  0  0  0  0  0  0
   15.4714  -14.5246   18.6227 C   0  0  0  0  0  0  0  0  0  0  0  0
   16.8005  -14.8292   18.9116 C   0  0  0  0  0  0  0  0  0  0  0  0
   17.1717  -15.0127   20.2216 C   0  0  0  0  0  0  0  0  0  0  0  0
   16.2398  -14.8963   21.2268 C   0  0  0  0  0  0  0  0  0  0  0  0
   14.9251  -14.5941   20.9305 C   0  0  0  0  0  0  0  0  0  0  0  0
   14.5355  -14.4058   19.6250 C   0  0  0  0  0  0  0  0  0  0  0  0
    9.7623  -14.7853   20.1527 C   0  0  0  0  0  0  0  0  0  0  0  0
    8.8882  -13.9089   19.9373 O   0  0  0  0  0  0  0  0  0  0  0  0
    9.5546  -15.7147   21.2385 N   0  0  0  0  0  0  0  0  0  0  0  0
    9.1910  -15.1810   22.5176 C   0  0  1  0  0  0  0  0  0  0  0  0
    7.6906  -15.2750   22.7521 C   0  0  0  0  0  0  0  0  0  0  0  0
    7.2389  -14.6921   24.0098 C   0  0  0  0  0  0  0  0  0  0  0  0
    7.2509  -13.3274   24.1733 C   0  0  0  0  0  0  0  0  0  0  0  0
    6.8136  -12.8139   25.3964 C   0  0  0  0  0  0  0  0  0  0  0  0
    6.3811  -13.6390   26.4151 C   0  0  0  0  0  0  0  0  0  0  0  0
    6.3709  -14.9920   26.2481 C   0  0  0  0  0  0  0  0  0  0  0  0
    6.8058  -15.4893   25.0346 C   0  0  0  0  0  0  0  0  0  0  0  0
    9.8967  -15.7612   23.6717 C   0  0  0  0  0  0  0  0  0  0  0  0
    9.9793  -16.9820   23.8907 O   0  0  0  0  0  0  0  0  0  0  0  0
   10.5258  -14.3283   31.2831 C   0  0  0  0  0  0  0  0  0  0  0  0
    9.9345  -13.8815   29.6342 S   0  0  0  0  0  0  0  0  0  0  0  0
   10.6499  -14.8838   28.3446 C   0  0  0  0  0  0  0  0  0  0  0  0
   10.4071  -14.4337   26.9628 C   0  0  0  0  0  0  0  0  0  0  0  0
   10.9779  -15.3244   25.8863 C   0  0  2  0  0  0  0  0  0  0  0  0
   10.5244  -14.8612   24.5878 N   0  0  0  0  0  0  0  0  0  0  0  0
   10.6404  -16.7269   26.0417 C   0  0  0  0  0  0  0  0  0  0  0  0
    9.4177  -17.2662   25.5927 O   0  0  0  0  0  0  0  0  0  0  0  0
   11.4194  -17.5367   26.5848 O   0  0  0  0  0  0  0  0  0  0  0  0
  2  1  1  6
  2  3  1  0
  3  4  1  0
  4 12  1  0
  4  5  2  0
  5  6  1  0
  7  8  2  0
  7  6  1  0
  9  8  1  0
 10  9  2  0
 11 10  1  0
 11 12  2  0
 12  7  1  0
 13 14  2  0
 13  2  1  0
 15 13  1  0
 16 15  1  0
 16 17  1  1
 18 17  1  0
 18 23  1  0
 19 18  2  0
 20 19  1  0
 20 21  2  0
 21 22  1  0
 22 23  2  0
 24 16  1  0
 25 24  2  0
 27 26  1  0
 27 28  1  0
 29 28  1  0
 30 29  1  1
 30 31  1  0
 31 24  1  0
 32 30  1  0
 32 33  1  0
 34 32  2  0
M  END
$$$$
