WFM.pdb
     RDKit          3D

 34 36  0  0  1  0  0  0  0  0999 V2000
    6.6755  -17.9936   20.9326 N   0  0  0  0  0  0  0  0  0  0  0  0
    8.1131  -17.6934   20.8940 C   0  0  1  0  0  0  0  0  0  0  0  0
    8.3305  -16.8624   19.6646 C   0  0  0  0  0  0  0  0  0  0  0  0
    7.6396  -15.5627   19.6786 C   0  0  0  0  0  0  0  0  0  0  0  0
    6.2789  -15.3862   19.4048 C   0  0  0  0  0  0  0  0  0  0  0  0
    5.9612  -14.1130   19.5325 N   0  0  0  0  0  0  0  0  0  0  0  0
    7.0581  -13.4270   19.8817 C   0  0  0  0  0  0  0  0  0  0  0  0
    7.2431  -12.0673   20.1259 C   0  0  0  0  0  0  0  0  0  0  0  0
    8.4961  -11.6161   20.4638 C   0  0  0  0  0  0  0  0  0  0  0  0
    9.5466  -12.4992   20.5572 C   0  0  0  0  0  0  0  0  0  0  0  0
    9.3534  -13.8449   20.3134 C   0  0  0  0  0  0  0  0  0  0  0  0
    8.1058  -14.3147   19.9751 C   0  0  0  0  0  0  0  0  0  0  0  0
    8.4823  -17.0215   22.1437 C   0  0  0  0  0  0  0  0  0  0  0  0
    8.1184  -15.8335   22.3306 O   0  0  0  0  0  0  0  0  0  0  0  0
    9.2481  -17.6791   23.1766 N   0  0  0  0  0  0  0  0  0  0  0  0
    9.3145  -17.0527   24.4637 C   0  0  1  0  0  0  0  0  0  0  0  0
    7.9297  -16.8853   25.0715 C   0  0  0  0  0  0  0  0  0  0  0  0
    7.5320  -15.5005   25.2941 C   0  0  0  0  0  0  0  0  0  0  0  0
    8.4754  -14.5689   25.6566 C   0  0  0  0  0  0  0  0  0  0  0  0
    8.0481  -13.2553   25.8636 C   0  0  0  0  0  0  0  0  0  0  0  0
    6.7249  -12.8919   25.7123 C   0  0  0  0  0  0  0  0  0  0  0  0
    5.7929  -13.8195   25.3525 C   0  0  0  0  0  0  0  0  0  0  0  0
    6.2264  -15.1158   25.1505 C   0  0  0  0  0  0  0  0  0  0  0  0
   10.1954  -17.7079   25.4441 C   0  0  0  0  0  0  0  0  0  0  0  0
   10.6920  -18.8360   25.2837 O   0  0  0  0  0  0  0  0  0  0  0  0
    9.9090  -12.5781   28.5755 C   0  0  0  0  0  0  0  0  0  0  0  0
   10.5294  -14.0920   29.3445 S   0  0  0  0  0  0  0  0  0  0  0  0
   11.5066  -15.0859   28.2323 C   0  0  0  0  0  0  0  0  0  0  0  0
   11.7471  -16.4788   28.6479 C   0  0  0  0  0  0  0  0  0  0  0  0
   11.4586  -17.5228   27.5968 C   0  0  2  0  0  0  0  0  0  0  0  0
   10.4957  -16.9966   26.6471 N   0  0  0  0  0  0  0  0  0  0  0  0
   10.9687  -18.7790   28.1329 C   0  0  0  0  0  0  0  0  0  0  0  0
    9.6856  -19.2809   27.8346 O   0  0  0  0  0  0  0  0  0  0  0  0
   11.6613  -19.4872   28.8920 O   0  0  0  0  0  0  0  0  0  0  0  0
  2  1  1  1
  2  3  1  0
  3  4  1  0
  4 12  1  0
  4  5  2  0
  5  6  1  0
  7  8  2  0
  7  6  1  0
  9  8  1  0
 10  9  2  0
 11 10  1  0
 11 12  2  0
 12  7  1  0
 13 14  2  0
 13  2  1  0
 15 13  1  0
 16 15  1  0
 16 17  1  1
 18 17  1  0
 18 23  1  0
 19 18  2  0
 20 19  1  0
 20 21  2  0
 21 22  1  0
 22 23  2  0
 24 16  1  0
 25 24  2  0
 27 26  1  0
 27 28  1  0
 29 28  1  0
 30 29  1  1
 30 31  1  0
 31 24  1  0
 32 30  1  0
 32 33  1  0
 34 32  2  0
M  END
$$$$
