WFM.pdb
     RDKit          3D

 34 36  0  0  1  0  0  0  0  0999 V2000
    7.3773  -19.2652   21.1027 N   0  0  0  0  0  0  0  0  0  0  0  0
    7.8983  -17.9039   20.9187 C   0  0  1  0  0  0  0  0  0  0  0  0
    7.3421  -17.4197   19.6127 C   0  0  0  0  0  0  0  0  0  0  0  0
    7.9054  -16.1417   19.1478 C   0  0  0  0  0  0  0  0  0  0  0  0
    8.6432  -15.9833   17.9697 C   0  0  0  0  0  0  0  0  0  0  0  0
    8.9751  -14.7161   17.8199 N   0  0  0  0  0  0  0  0  0  0  0  0
    8.4879  -14.0168   18.8540 C   0  0  0  0  0  0  0  0  0  0  0  0
    8.5743  -12.6592   19.1574 C   0  0  0  0  0  0  0  0  0  0  0  0
    7.9831  -12.1952   20.3076 C   0  0  0  0  0  0  0  0  0  0  0  0
    7.3184  -13.0638   21.1418 C   0  0  0  0  0  0  0  0  0  0  0  0
    7.2381  -14.4075   20.8326 C   0  0  0  0  0  0  0  0  0  0  0  0
    7.8228  -14.8897   19.6849 C   0  0  0  0  0  0  0  0  0  0  0  0
    7.5030  -17.0936   22.0748 C   0  0  0  0  0  0  0  0  0  0  0  0
    6.4072  -16.4795   22.0460 O   0  0  0  0  0  0  0  0  0  0  0  0
    8.3275  -16.9785   23.2549 N   0  0  0  0  0  0  0  0  0  0  0  0
    8.4229  -15.6944   23.8836 C   0  0  1  0  0  0  0  0  0  0  0  0
    7.0513  -15.1654   24.2762 C   0  0  0  0  0  0  0  0  0  0  0  0
    7.0819  -13.9693   25.1091 C   0  0  0  0  0  0  0  0  0  0  0  0
    5.9097  -13.4577   25.6128 C   0  0  0  0  0  0  0  0  0  0  0  0
    5.9867  -12.3078   26.4020 C   0  0  0  0  0  0  0  0  0  0  0  0
    7.1938  -11.6960   26.6746 C   0  0  0  0  0  0  0  0  0  0  0  0
    8.3537  -12.2072   26.1728 C   0  0  0  0  0  0  0  0  0  0  0  0
    8.2661  -13.3446   25.3933 C   0  0  0  0  0  0  0  0  0  0  0  0
    9.3190  -15.6228   25.0490 C   0  0  0  0  0  0  0  0  0  0  0  0
    9.7091  -14.5582   25.5584 O   0  0  0  0  0  0  0  0  0  0  0  0
   10.6418  -14.1585   29.9518 C   0  0  0  0  0  0  0  0  0  0  0  0
    9.8453  -14.7443   28.4383 S   0  0  0  0  0  0  0  0  0  0  0  0
    9.9199  -16.5164   28.2553 C   0  0  0  0  0  0  0  0  0  0  0  0
   11.1293  -17.0513   27.6057 C   0  0  0  0  0  0  0  0  0  0  0  0
   11.1233  -17.0051   26.0971 C   0  0  2  0  0  0  0  0  0  0  0  0
    9.7591  -16.8547   25.6255 N   0  0  0  0  0  0  0  0  0  0  0  0
   11.7240  -18.1672   25.4695 C   0  0  0  0  0  0  0  0  0  0  0  0
   13.0796  -18.5096   25.6498 O   0  0  0  0  0  0  0  0  0  0  0  0
   11.0688  -18.9311   24.7315 O   0  0  0  0  0  0  0  0  0  0  0  0
  2  1  1  1
  2  3  1  0
  3  4  1  0
  4 12  1  0
  4  5  2  0
  5  6  1  0
  7  8  2  0
  7  6  1  0
  9  8  1  0
 10  9  2  0
 11 10  1  0
 11 12  2  0
 12  7  1  0
 13 14  2  0
 13  2  1  0
 15 13  1  0
 16 15  1  0
 16 17  1  1
 18 17  1  0
 18 23  1  0
 19 18  2  0
 20 19  1  0
 20 21  2  0
 21 22  1  0
 22 23  2  0
 24 16  1  0
 25 24  2  0
 27 26  1  0
 27 28  1  0
 29 28  1  0
 30 29  1  1
 30 31  1  0
 31 24  1  0
 32 30  1  0
 32 33  1  0
 34 32  2  0
M  END
$$$$
