WFM.pdb
     RDKit          3D

 34 36  0  0  1  0  0  0  0  0999 V2000
    5.5927  -20.1000   23.3602 N   0  0  0  0  0  0  0  0  0  0  0  0
    6.3899  -19.1042   24.0891 C   0  0  1  0  0  0  0  0  0  0  0  0
    7.5205  -19.8600   24.7214 C   0  0  0  0  0  0  0  0  0  0  0  0
    7.4605  -19.9280   26.1906 C   0  0  0  0  0  0  0  0  0  0  0  0
    6.8269  -20.9464   26.9110 C   0  0  0  0  0  0  0  0  0  0  0  0
    6.9795  -20.7377   28.2038 N   0  0  0  0  0  0  0  0  0  0  0  0
    7.6921  -19.6164   28.3792 C   0  0  0  0  0  0  0  0  0  0  0  0
    8.1080  -18.9740   29.5441 C   0  0  0  0  0  0  0  0  0  0  0  0
    8.8320  -17.8109   29.4405 C   0  0  0  0  0  0  0  0  0  0  0  0
    9.1372  -17.2947   28.2025 C   0  0  0  0  0  0  0  0  0  0  0  0
    8.7207  -17.9386   27.0539 C   0  0  0  0  0  0  0  0  0  0  0  0
    7.9961  -19.1046   27.1382 C   0  0  0  0  0  0  0  0  0  0  0  0
    6.8171  -18.0676   23.1444 C   0  0  0  0  0  0  0  0  0  0  0  0
    7.2905  -18.4106   22.0322 O   0  0  0  0  0  0  0  0  0  0  0  0
    6.7085  -16.6588   23.4432 N   0  0  0  0  0  0  0  0  0  0  0  0
    7.5219  -15.7494   22.6917 C   0  0  1  0  0  0  0  0  0  0  0  0
    6.8829  -14.3709   22.6100 C   0  0  0  0  0  0  0  0  0  0  0  0
    6.8384  -13.6506   23.8768 C   0  0  0  0  0  0  0  0  0  0  0  0
    7.6315  -12.5431   24.0608 C   0  0  0  0  0  0  0  0  0  0  0  0
    7.5591  -11.8873   25.2919 C   0  0  0  0  0  0  0  0  0  0  0  0
    6.7229  -12.3268   26.2985 C   0  0  0  0  0  0  0  0  0  0  0  0
    5.9381  -13.4257   26.1111 C   0  0  0  0  0  0  0  0  0  0  0  0
    6.0177  -14.0669   24.8899 C   0  0  0  0  0  0  0  0  0  0  0  0
    8.9121  -15.6098   23.1545 C   0  0  0  0  0  0  0  0  0  0  0  0
    9.7986  -15.0173   22.5156 O   0  0  0  0  0  0  0  0  0  0  0  0
    9.5435  -14.2763   29.3529 C   0  0  0  0  0  0  0  0  0  0  0  0
   11.1704  -15.0158   29.0793 S   0  0  0  0  0  0  0  0  0  0  0  0
   11.4573  -15.4518   27.3743 C   0  0  0  0  0  0  0  0  0  0  0  0
   10.2578  -15.7269   26.5642 C   0  0  0  0  0  0  0  0  0  0  0  0
   10.4969  -15.8393   25.0782 C   0  0  2  0  0  0  0  0  0  0  0  0
    9.2539  -16.1894   24.4157 N   0  0  0  0  0  0  0  0  0  0  0  0
   11.5219  -16.8008   24.7173 C   0  0  0  0  0  0  0  0  0  0  0  0
   11.2422  -17.9600   23.9654 O   0  0  0  0  0  0  0  0  0  0  0  0
   12.7140  -16.6524   25.0555 O   0  0  0  0  0  0  0  0  0  0  0  0
  2  1  1  6
  2  3  1  0
  3  4  1  0
  4 12  1  0
  4  5  2  0
  5  6  1  0
  7  8  2  0
  7  6  1  0
  9  8  1  0
 10  9  2  0
 11 10  1  0
 11 12  2  0
 12  7  1  0
 13 14  2  0
 13  2  1  0
 15 13  1  0
 16 15  1  0
 16 17  1  1
 18 17  1  0
 18 23  1  0
 19 18  2  0
 20 19  1  0
 20 21  2  0
 21 22  1  0
 22 23  2  0
 24 16  1  0
 25 24  2  0
 27 26  1  0
 27 28  1  0
 29 28  1  0
 30 29  1  1
 30 31  1  0
 31 24  1  0
 32 30  1  0
 32 33  1  0
 34 32  2  0
M  END
$$$$
