WFM.pdb
     RDKit          3D

 34 36  0  0  1  0  0  0  0  0999 V2000
    7.3937  -16.3469   19.9622 N   0  0  0  0  0  0  0  0  0  0  0  0
    7.3827  -16.6975   21.3889 C   0  0  1  0  0  0  0  0  0  0  0  0
    6.8709  -18.1052   21.4663 C   0  0  0  0  0  0  0  0  0  0  0  0
    5.5942  -18.3277   20.7685 C   0  0  0  0  0  0  0  0  0  0  0  0
    5.4409  -18.3258   19.3778 C   0  0  0  0  0  0  0  0  0  0  0  0
    4.1864  -18.5879   19.0683 N   0  0  0  0  0  0  0  0  0  0  0  0
    3.4905  -18.7657   20.1996 C   0  0  0  0  0  0  0  0  0  0  0  0
    2.1420  -19.0529   20.4043 C   0  0  0  0  0  0  0  0  0  0  0  0
    1.6755  -19.1760   21.6907 C   0  0  0  0  0  0  0  0  0  0  0  0
    2.5325  -19.0164   22.7548 C   0  0  0  0  0  0  0  0  0  0  0  0
    3.8672  -18.7321   22.5419 C   0  0  0  0  0  0  0  0  0  0  0  0
    4.3522  -18.6065   21.2610 C   0  0  0  0  0  0  0  0  0  0  0  0
    8.7373  -16.5230   21.9218 C   0  0  0  0  0  0  0  0  0  0  0  0
    9.6233  -16.0172   21.1883 O   0  0  0  0  0  0  0  0  0  0  0  0
    9.0927  -16.9074   23.2679 N   0  0  0  0  0  0  0  0  0  0  0  0
    8.9244  -15.9371   24.3088 C   0  0  1  0  0  0  0  0  0  0  0  0
    7.7161  -15.0493   24.0499 C   0  0  0  0  0  0  0  0  0  0  0  0
    7.4291  -14.0956   25.1146 C   0  0  0  0  0  0  0  0  0  0  0  0
    6.4232  -13.1730   24.9522 C   0  0  0  0  0  0  0  0  0  0  0  0
    6.1867  -12.2763   25.9967 C   0  0  0  0  0  0  0  0  0  0  0  0
    6.9314  -12.3055   27.1587 C   0  0  0  0  0  0  0  0  0  0  0  0
    7.9279  -13.2225   27.3151 C   0  0  0  0  0  0  0  0  0  0  0  0
    8.1535  -14.1045   26.2758 C   0  0  0  0  0  0  0  0  0  0  0  0
    8.8407  -16.4792   25.6747 C   0  0  0  0  0  0  0  0  0  0  0  0
    7.7761  -16.6156   26.3016 O   0  0  0  0  0  0  0  0  0  0  0  0
   12.2350  -21.9551   26.1327 C   0  0  0  0  0  0  0  0  0  0  0  0
   11.5803  -20.9094   24.8112 S   0  0  0  0  0  0  0  0  0  0  0  0
   10.6065  -19.5463   25.4220 C   0  0  0  0  0  0  0  0  0  0  0  0
   10.9267  -19.0780   26.7817 C   0  0  0  0  0  0  0  0  0  0  0  0
   10.0711  -17.9429   27.2895 C   0  0  2  0  0  0  0  0  0  0  0  0
   10.0596  -16.8729   26.3091 N   0  0  0  0  0  0  0  0  0  0  0  0
   10.4940  -17.4149   28.5731 C   0  0  0  0  0  0  0  0  0  0  0  0
   10.3815  -18.1518   29.7696 O   0  0  0  0  0  0  0  0  0  0  0  0
   10.9831  -16.2725   28.6878 O   0  0  0  0  0  0  0  0  0  0  0  0
  2  1  1  6
  2  3  1  0
  3  4  1  0
  4 12  1  0
  4  5  2  0
  5  6  1  0
  7  8  2  0
  7  6  1  0
  9  8  1  0
 10  9  2  0
 11 10  1  0
 11 12  2  0
 12  7  1  0
 13 14  2  0
 13  2  1  0
 15 13  1  0
 16 15  1  0
 16 17  1  6
 18 17  1  0
 18 23  1  0
 19 18  2  0
 20 19  1  0
 20 21  2  0
 21 22  1  0
 22 23  2  0
 24 16  1  0
 25 24  2  0
 27 26  1  0
 27 28  1  0
 29 28  1  0
 30 29  1  6
 30 31  1  0
 31 24  1  0
 32 30  1  0
 32 33  1  0
 34 32  2  0
M  END
$$$$
