WFM.pdb
     RDKit          3D

 34 36  0  0  1  0  0  0  0  0999 V2000
    7.5874  -20.3697   21.3652 N   0  0  0  0  0  0  0  0  0  0  0  0
    7.3489  -19.8824   22.7305 C   0  0  1  0  0  0  0  0  0  0  0  0
    8.2765  -20.6595   23.6164 C   0  0  0  0  0  0  0  0  0  0  0  0
    7.8303  -20.7726   25.0145 C   0  0  0  0  0  0  0  0  0  0  0  0
    6.7660  -21.5728   25.4439 C   0  0  0  0  0  0  0  0  0  0  0  0
    6.6414  -21.4820   26.7533 N   0  0  0  0  0  0  0  0  0  0  0  0
    7.5825  -20.6500   27.2201 C   0  0  0  0  0  0  0  0  0  0  0  0
    7.8600  -20.2245   28.5180 C   0  0  0  0  0  0  0  0  0  0  0  0
    8.8943  -19.3436   28.7229 C   0  0  0  0  0  0  0  0  0  0  0  0
    9.6394  -18.8930   27.6580 C   0  0  0  0  0  0  0  0  0  0  0  0
    9.3569  -19.3205   26.3754 C   0  0  0  0  0  0  0  0  0  0  0  0
    8.3260  -20.2030   26.1515 C   0  0  0  0  0  0  0  0  0  0  0  0
    7.5726  -18.4337   22.7537 C   0  0  0  0  0  0  0  0  0  0  0  0
    8.5396  -17.9532   22.1111 O   0  0  0  0  0  0  0  0  0  0  0  0
    6.7152  -17.5319   23.4868 N   0  0  0  0  0  0  0  0  0  0  0  0
    7.2246  -16.2302   23.8023 C   0  0  1  0  0  0  0  0  0  0  0  0
    6.1171  -15.1869   23.8069 C   0  0  0  0  0  0  0  0  0  0  0  0
    6.5306  -13.8703   24.2772 C   0  0  0  0  0  0  0  0  0  0  0  0
    7.3769  -13.1058   23.5100 C   0  0  0  0  0  0  0  0  0  0  0  0
    7.7499  -11.8531   24.0025 C   0  0  0  0  0  0  0  0  0  0  0  0
    7.2906  -11.3867   25.2179 C   0  0  0  0  0  0  0  0  0  0  0  0
    6.4512  -12.1487   25.9752 C   0  0  0  0  0  0  0  0  0  0  0  0
    6.0889  -13.3861   25.4788 C   0  0  0  0  0  0  0  0  0  0  0  0
    7.9839  -16.1330   25.0594 C   0  0  0  0  0  0  0  0  0  0  0  0
    7.5736  -15.5407   26.0723 O   0  0  0  0  0  0  0  0  0  0  0  0
   10.1006  -13.5528   29.4086 C   0  0  0  0  0  0  0  0  0  0  0  0
    9.7942  -15.3338   29.3588 S   0  0  0  0  0  0  0  0  0  0  0  0
   10.3626  -16.0944   27.8495 C   0  0  0  0  0  0  0  0  0  0  0  0
   10.3466  -15.2425   26.6475 C   0  0  0  0  0  0  0  0  0  0  0  0
   10.4667  -15.9787   25.3354 C   0  0  2  0  0  0  0  0  0  0  0  0
    9.2661  -16.7627   25.1116 N   0  0  0  0  0  0  0  0  0  0  0  0
   11.6289  -16.8431   25.2490 C   0  0  0  0  0  0  0  0  0  0  0  0
   11.5244  -18.2374   25.0690 O   0  0  0  0  0  0  0  0  0  0  0  0
   12.7913  -16.3958   25.3300 O   0  0  0  0  0  0  0  0  0  0  0  0
  2  1  1  6
  2  3  1  0
  3  4  1  0
  4 12  1  0
  4  5  2  0
  5  6  1  0
  7  8  2  0
  7  6  1  0
  9  8  1  0
 10  9  2  0
 11 10  1  0
 11 12  2  0
 12  7  1  0
 13 14  2  0
 13  2  1  0
 15 13  1  0
 16 15  1  0
 16 17  1  1
 18 17  1  0
 18 23  1  0
 19 18  2  0
 20 19  1  0
 20 21  2  0
 21 22  1  0
 22 23  2  0
 24 16  1  0
 25 24  2  0
 27 26  1  0
 27 28  1  0
 29 28  1  0
 30 29  1  1
 30 31  1  0
 31 24  1  0
 32 30  1  0
 32 33  1  0
 34 32  2  0
M  END
$$$$
