WFM.pdb
     RDKit          3D

 34 36  0  0  1  0  0  0  0  0999 V2000
    6.3624  -18.8436   23.4766 N   0  0  0  0  0  0  0  0  0  0  0  0
    6.8763  -17.4766   23.6370 C   0  0  1  0  0  0  0  0  0  0  0  0
    6.9058  -17.2149   25.1134 C   0  0  0  0  0  0  0  0  0  0  0  0
    6.4611  -15.8665   25.5014 C   0  0  0  0  0  0  0  0  0  0  0  0
    5.2002  -15.5700   26.0302 C   0  0  0  0  0  0  0  0  0  0  0  0
    5.1247  -14.2828   26.3051 N   0  0  0  0  0  0  0  0  0  0  0  0
    6.2883  -13.7028   25.9803 C   0  0  0  0  0  0  0  0  0  0  0  0
    6.7011  -12.3746   26.0716 C   0  0  0  0  0  0  0  0  0  0  0  0
    7.9660  -12.0405   25.6519 C   0  0  0  0  0  0  0  0  0  0  0  0
    8.8057  -13.0076   25.1503 C   0  0  0  0  0  0  0  0  0  0  0  0
    8.3876  -14.3211   25.0639 C   0  0  0  0  0  0  0  0  0  0  0  0
    7.1253  -14.6743   25.4803 C   0  0  0  0  0  0  0  0  0  0  0  0
    8.1882  -17.3930   22.9879 C   0  0  0  0  0  0  0  0  0  0  0  0
    8.8404  -18.4481   22.7876 O   0  0  0  0  0  0  0  0  0  0  0  0
    8.7602  -16.1370   22.5622 N   0  0  0  0  0  0  0  0  0  0  0  0
   10.0787  -16.1566   22.0014 C   0  0  1  0  0  0  0  0  0  0  0  0
   10.3538  -14.9016   21.1863 C   0  0  0  0  0  0  0  0  0  0  0  0
    9.1903  -14.3690   20.4875 C   0  0  0  0  0  0  0  0  0  0  0  0
    8.6808  -15.0386   19.4006 C   0  0  0  0  0  0  0  0  0  0  0  0
    7.5681  -14.4890   18.7597 C   0  0  0  0  0  0  0  0  0  0  0  0
    6.9899  -13.3131   19.1937 C   0  0  0  0  0  0  0  0  0  0  0  0
    7.4988  -12.6526   20.2723 C   0  0  0  0  0  0  0  0  0  0  0  0
    8.5996  -13.2048   20.8987 C   0  0  0  0  0  0  0  0  0  0  0  0
   11.1749  -16.3569   22.9630 C   0  0  0  0  0  0  0  0  0  0  0  0
   12.3750  -16.1808   22.6916 O   0  0  0  0  0  0  0  0  0  0  0  0
    9.4962  -13.8103   28.9785 C   0  0  0  0  0  0  0  0  0  0  0  0
    9.4976  -15.3622   28.0511 S   0  0  0  0  0  0  0  0  0  0  0  0
   11.1152  -15.8098   27.4487 C   0  0  0  0  0  0  0  0  0  0  0  0
   11.1928  -17.0508   26.6585 C   0  0  0  0  0  0  0  0  0  0  0  0
   11.8516  -16.9133   25.3075 C   0  0  2  0  0  0  0  0  0  0  0  0
   10.8303  -16.7751   24.2857 N   0  0  0  0  0  0  0  0  0  0  0  0
   12.7291  -18.0168   24.9647 C   0  0  0  0  0  0  0  0  0  0  0  0
   12.5341  -18.8113   23.8167 O   0  0  0  0  0  0  0  0  0  0  0  0
   13.7100  -18.3241   25.6725 O   0  0  0  0  0  0  0  0  0  0  0  0
  2  1  1  1
  2  3  1  0
  3  4  1  0
  4 12  1  0
  4  5  2  0
  5  6  1  0
  7  8  2  0
  7  6  1  0
  9  8  1  0
 10  9  2  0
 11 10  1  0
 11 12  2  0
 12  7  1  0
 13 14  2  0
 13  2  1  0
 15 13  1  0
 16 15  1  0
 16 17  1  1
 18 17  1  0
 18 23  1  0
 19 18  2  0
 20 19  1  0
 20 21  2  0
 21 22  1  0
 22 23  2  0
 24 16  1  0
 25 24  2  0
 27 26  1  0
 27 28  1  0
 29 28  1  0
 30 29  1  1
 30 31  1  0
 31 24  1  0
 32 30  1  0
 32 33  1  0
 34 32  2  0
M  END
$$$$
