WFM.pdb
     RDKit          3D

 34 36  0  0  1  0  0  0  0  0999 V2000
    6.4819  -18.8918   24.3663 N   0  0  0  0  0  0  0  0  0  0  0  0
    6.9689  -17.5153   24.2036 C   0  0  1  0  0  0  0  0  0  0  0  0
    7.1683  -16.9791   25.5900 C   0  0  0  0  0  0  0  0  0  0  0  0
    6.5924  -15.6432   25.8144 C   0  0  0  0  0  0  0  0  0  0  0  0
    5.3110  -15.4088   26.3248 C   0  0  0  0  0  0  0  0  0  0  0  0
    5.1080  -14.1110   26.4379 N   0  0  0  0  0  0  0  0  0  0  0  0
    6.2056  -13.4642   26.0220 C   0  0  0  0  0  0  0  0  0  0  0  0
    6.4832  -12.1009   25.9390 C   0  0  0  0  0  0  0  0  0  0  0  0
    7.7057  -11.6987   25.4580 C   0  0  0  0  0  0  0  0  0  0  0  0
    8.6357  -12.6335   25.0660 C   0  0  0  0  0  0  0  0  0  0  0  0
    8.3513  -13.9823   25.1521 C   0  0  0  0  0  0  0  0  0  0  0  0
    7.1332  -14.4034   25.6323 C   0  0  0  0  0  0  0  0  0  0  0  0
    8.1898  -17.5460   23.3924 C   0  0  0  0  0  0  0  0  0  0  0  0
    8.9790  -18.5165   23.5105 O   0  0  0  0  0  0  0  0  0  0  0  0
    8.5188  -16.4997   22.4529 N   0  0  0  0  0  0  0  0  0  0  0  0
    9.7830  -16.5738   21.7824 C   0  0  1  0  0  0  0  0  0  0  0  0
    9.7358  -15.8777   20.4302 C   0  0  0  0  0  0  0  0  0  0  0  0
    8.8474  -14.7230   20.3768 C   0  0  0  0  0  0  0  0  0  0  0  0
    9.3718  -13.4542   20.4439 C   0  0  0  0  0  0  0  0  0  0  0  0
    8.4826  -12.3782   20.3936 C   0  0  0  0  0  0  0  0  0  0  0  0
    7.1201  -12.5694   20.2802 C   0  0  0  0  0  0  0  0  0  0  0  0
    6.6048  -13.8298   20.2139 C   0  0  0  0  0  0  0  0  0  0  0  0
    7.4931  -14.8868   20.2648 C   0  0  0  0  0  0  0  0  0  0  0  0
   10.9366  -16.0690   22.5446 C   0  0  0  0  0  0  0  0  0  0  0  0
   11.2833  -14.8755   22.5668 O   0  0  0  0  0  0  0  0  0  0  0  0
   11.0510  -14.1852   29.0531 C   0  0  0  0  0  0  0  0  0  0  0  0
   11.0877  -14.5007   27.2734 S   0  0  0  0  0  0  0  0  0  0  0  0
   10.7818  -16.2091   26.8644 C   0  0  0  0  0  0  0  0  0  0  0  0
   10.6571  -16.5206   25.4298 C   0  0  0  0  0  0  0  0  0  0  0  0
   11.9587  -16.7867   24.7135 C   0  0  2  0  0  0  0  0  0  0  0  0
   11.6953  -17.0126   23.3043 N   0  0  0  0  0  0  0  0  0  0  0  0
   12.7072  -17.9085   25.2490 C   0  0  0  0  0  0  0  0  0  0  0  0
   12.4609  -19.2400   24.8568 O   0  0  0  0  0  0  0  0  0  0  0  0
   13.6152  -17.7540   26.0911 O   0  0  0  0  0  0  0  0  0  0  0  0
  2  1  1  1
  2  3  1  0
  3  4  1  0
  4 12  1  0
  4  5  2  0
  5  6  1  0
  7  8  2  0
  7  6  1  0
  9  8  1  0
 10  9  2  0
 11 10  1  0
 11 12  2  0
 12  7  1  0
 13 14  2  0
 13  2  1  0
 15 13  1  0
 16 15  1  0
 16 17  1  6
 18 17  1  0
 18 23  1  0
 19 18  2  0
 20 19  1  0
 20 21  2  0
 21 22  1  0
 22 23  2  0
 24 16  1  0
 25 24  2  0
 27 26  1  0
 27 28  1  0
 29 28  1  0
 30 29  1  1
 30 31  1  0
 31 24  1  0
 32 30  1  0
 32 33  1  0
 34 32  2  0
M  END
$$$$
