WFM.pdb
     RDKit          3D

 34 36  0  0  1  0  0  0  0  0999 V2000
    7.8191  -18.4202   21.7141 N   0  0  0  0  0  0  0  0  0  0  0  0
    8.2718  -17.0443   21.4686 C   0  0  1  0  0  0  0  0  0  0  0  0
    7.0676  -16.2910   20.9871 C   0  0  0  0  0  0  0  0  0  0  0  0
    7.3057  -15.4609   19.7951 C   0  0  0  0  0  0  0  0  0  0  0  0
    7.2097  -15.9212   18.4774 C   0  0  0  0  0  0  0  0  0  0  0  0
    7.4475  -14.9297   17.6416 N   0  0  0  0  0  0  0  0  0  0  0  0
    7.7001  -13.8198   18.3487 C   0  0  0  0  0  0  0  0  0  0  0  0
    8.0128  -12.5264   17.9338 C   0  0  0  0  0  0  0  0  0  0  0  0
    8.2394  -11.5593   18.8830 C   0  0  0  0  0  0  0  0  0  0  0  0
    8.1575  -11.8710   20.2203 C   0  0  0  0  0  0  0  0  0  0  0  0
    7.8469  -13.1555   20.6217 C   0  0  0  0  0  0  0  0  0  0  0  0
    7.6157  -14.1362   19.6856 C   0  0  0  0  0  0  0  0  0  0  0  0
    8.8520  -16.5168   22.7074 C   0  0  0  0  0  0  0  0  0  0  0  0
    9.6070  -15.5141   22.6513 O   0  0  0  0  0  0  0  0  0  0  0  0
    8.5824  -17.1061   23.9981 N   0  0  0  0  0  0  0  0  0  0  0  0
    9.2973  -16.5962   25.1304 C   0  0  1  0  0  0  0  0  0  0  0  0
    8.3465  -16.1206   26.2189 C   0  0  0  0  0  0  0  0  0  0  0  0
    8.9846  -15.3624   27.2883 C   0  0  0  0  0  0  0  0  0  0  0  0
    9.0649  -13.9931   27.2005 C   0  0  0  0  0  0  0  0  0  0  0  0
    9.6887  -13.3087   28.2462 C   0  0  0  0  0  0  0  0  0  0  0  0
   10.2112  -13.9738   29.3371 C   0  0  0  0  0  0  0  0  0  0  0  0
   10.1290  -15.3321   29.4197 C   0  0  0  0  0  0  0  0  0  0  0  0
    9.5102  -15.9991   28.3799 C   0  0  0  0  0  0  0  0  0  0  0  0
   10.2874  -17.5113   25.7211 C   0  0  0  0  0  0  0  0  0  0  0  0
   10.0068  -18.3931   26.5511 O   0  0  0  0  0  0  0  0  0  0  0  0
   14.8091  -15.2841   23.1500 C   0  0  0  0  0  0  0  0  0  0  0  0
   14.8903  -17.0298   22.6872 S   0  0  0  0  0  0  0  0  0  0  0  0
   13.7540  -18.0469   23.6114 C   0  0  0  0  0  0  0  0  0  0  0  0
   13.9488  -18.0753   25.0716 C   0  0  0  0  0  0  0  0  0  0  0  0
   12.6855  -18.2084   25.8867 C   0  0  2  0  0  0  0  0  0  0  0  0
   11.6488  -17.3739   25.3078 N   0  0  0  0  0  0  0  0  0  0  0  0
   12.8499  -17.8690   27.2878 C   0  0  0  0  0  0  0  0  0  0  0  0
   13.7571  -16.8836   27.7273 O   0  0  0  0  0  0  0  0  0  0  0  0
   12.1927  -18.4350   28.1852 O   0  0  0  0  0  0  0  0  0  0  0  0
  2  1  1  1
  2  3  1  0
  3  4  1  0
  4 12  1  0
  4  5  2  0
  5  6  1  0
  7  8  2  0
  7  6  1  0
  9  8  1  0
 10  9  2  0
 11 10  1  0
 11 12  2  0
 12  7  1  0
 13 14  2  0
 13  2  1  0
 15 13  1  0
 16 15  1  0
 16 17  1  1
 18 17  1  0
 18 23  1  0
 19 18  2  0
 20 19  1  0
 20 21  2  0
 21 22  1  0
 22 23  2  0
 24 16  1  0
 25 24  2  0
 27 26  1  0
 27 28  1  0
 29 28  1  0
 30 29  1  6
 30 31  1  0
 31 24  1  0
 32 30  1  0
 32 33  1  0
 34 32  2  0
M  END
$$$$
