WFM.pdb
     RDKit          3D

 34 36  0  0  1  0  0  0  0  0999 V2000
    6.3561  -21.3360   22.6230 N   0  0  0  0  0  0  0  0  0  0  0  0
    5.6091  -20.0795   22.7693 C   0  0  1  0  0  0  0  0  0  0  0  0
    5.0643  -20.0809   24.1667 C   0  0  0  0  0  0  0  0  0  0  0  0
    3.7628  -20.7530   24.3117 C   0  0  0  0  0  0  0  0  0  0  0  0
    3.5077  -21.8012   25.2024 C   0  0  0  0  0  0  0  0  0  0  0  0
    2.2420  -22.1603   25.1158 N   0  0  0  0  0  0  0  0  0  0  0  0
    1.6369  -21.3923   24.1994 C   0  0  0  0  0  0  0  0  0  0  0  0
    0.3199  -21.3846   23.7431 C   0  0  0  0  0  0  0  0  0  0  0  0
   -0.0424  -20.4837   22.7710 C   0  0  0  0  0  0  0  0  0  0  0  0
    0.8863  -19.6066   22.2609 C   0  0  0  0  0  0  0  0  0  0  0  0
    2.1890  -19.6218   22.7196 C   0  0  0  0  0  0  0  0  0  0  0  0
    2.5695  -20.5158   23.6930 C   0  0  0  0  0  0  0  0  0  0  0  0
    6.5145  -18.9630   22.4810 C   0  0  0  0  0  0  0  0  0  0  0  0
    7.7333  -19.0740   22.7657 O   0  0  0  0  0  0  0  0  0  0  0  0
    6.0571  -17.7352   21.8734 N   0  0  0  0  0  0  0  0  0  0  0  0
    6.9623  -16.6249   21.8417 C   0  0  1  0  0  0  0  0  0  0  0  0
    6.3248  -15.4075   21.1885 C   0  0  0  0  0  0  0  0  0  0  0  0
    7.2429  -14.3001   20.9513 C   0  0  0  0  0  0  0  0  0  0  0  0
    7.2434  -13.2195   21.8008 C   0  0  0  0  0  0  0  0  0  0  0  0
    8.1368  -12.1800   21.5320 C   0  0  0  0  0  0  0  0  0  0  0  0
    8.9959  -12.2243   20.4524 C   0  0  0  0  0  0  0  0  0  0  0  0
    8.9916  -13.2983   19.6127 C   0  0  0  0  0  0  0  0  0  0  0  0
    8.1039  -14.3208   19.8876 C   0  0  0  0  0  0  0  0  0  0  0  0
    7.5315  -16.2324   23.1411 C   0  0  0  0  0  0  0  0  0  0  0  0
    6.8978  -15.6211   24.0185 O   0  0  0  0  0  0  0  0  0  0  0  0
    8.5627  -12.7403   27.9148 C   0  0  0  0  0  0  0  0  0  0  0  0
    9.3729  -14.3503   28.0553 S   0  0  0  0  0  0  0  0  0  0  0  0
   10.1064  -14.8948   26.5238 C   0  0  0  0  0  0  0  0  0  0  0  0
    9.1909  -15.5152   25.5504 C   0  0  0  0  0  0  0  0  0  0  0  0
    9.7523  -15.6908   24.1604 C   0  0  2  0  0  0  0  0  0  0  0  0
    8.8927  -16.5816   23.4030 N   0  0  0  0  0  0  0  0  0  0  0  0
   11.1121  -16.1964   24.1337 C   0  0  0  0  0  0  0  0  0  0  0  0
   11.4809  -17.3399   23.3962 O   0  0  0  0  0  0  0  0  0  0  0  0
   12.0344  -15.6427   24.7664 O   0  0  0  0  0  0  0  0  0  0  0  0
  2  1  1  1
  2  3  1  0
  3  4  1  0
  4 12  1  0
  4  5  2  0
  5  6  1  0
  7  8  2  0
  7  6  1  0
  9  8  1  0
 10  9  2  0
 11 10  1  0
 11 12  2  0
 12  7  1  0
 13 14  2  0
 13  2  1  0
 15 13  1  0
 16 15  1  0
 16 17  1  1
 18 17  1  0
 18 23  1  0
 19 18  2  0
 20 19  1  0
 20 21  2  0
 21 22  1  0
 22 23  2  0
 24 16  1  0
 25 24  2  0
 27 26  1  0
 27 28  1  0
 29 28  1  0
 30 29  1  1
 30 31  1  0
 31 24  1  0
 32 30  1  0
 32 33  1  0
 34 32  2  0
M  END
$$$$
