WFM.pdb
     RDKit          3D

 34 36  0  0  1  0  0  0  0  0999 V2000
    9.0857  -17.4938   19.5166 N   0  0  0  0  0  0  0  0  0  0  0  0
   10.2226  -16.6521   19.9132 C   0  0  1  0  0  0  0  0  0  0  0  0
   10.2245  -15.4861   18.9699 C   0  0  0  0  0  0  0  0  0  0  0  0
    9.4386  -15.6948   17.7429 C   0  0  0  0  0  0  0  0  0  0  0  0
    9.1715  -16.9460   17.1767 C   0  0  0  0  0  0  0  0  0  0  0  0
    8.4167  -16.7976   16.1059 N   0  0  0  0  0  0  0  0  0  0  0  0
    8.1668  -15.4927   15.9311 C   0  0  0  0  0  0  0  0  0  0  0  0
    7.4325  -14.8290   14.9498 C   0  0  0  0  0  0  0  0  0  0  0  0
    7.3418  -13.4590   14.9987 C   0  0  0  0  0  0  0  0  0  0  0  0
    7.9694  -12.7604   16.0038 C   0  0  0  0  0  0  0  0  0  0  0  0
    8.6947  -13.4269   16.9720 C   0  0  0  0  0  0  0  0  0  0  0  0
    8.7955  -14.7982   16.9396 C   0  0  0  0  0  0  0  0  0  0  0  0
   10.0589  -16.2818   21.3223 C   0  0  0  0  0  0  0  0  0  0  0  0
   11.0048  -15.7088   21.9185 O   0  0  0  0  0  0  0  0  0  0  0  0
    8.8421  -16.5471   22.0537 N   0  0  0  0  0  0  0  0  0  0  0  0
    8.6457  -15.8648   23.2984 C   0  0  1  0  0  0  0  0  0  0  0  0
    7.1832  -15.5008   23.5070 C   0  0  0  0  0  0  0  0  0  0  0  0
    6.9436  -14.5706   24.6037 C   0  0  0  0  0  0  0  0  0  0  0  0
    6.3410  -15.0146   25.7566 C   0  0  0  0  0  0  0  0  0  0  0  0
    6.1274  -14.0872   26.7790 C   0  0  0  0  0  0  0  0  0  0  0  0
    6.5046  -12.7658   26.6484 C   0  0  0  0  0  0  0  0  0  0  0  0
    7.1020  -12.3301   25.5030 C   0  0  0  0  0  0  0  0  0  0  0  0
    7.3082  -13.2556   24.4981 C   0  0  0  0  0  0  0  0  0  0  0  0
    9.1430  -16.5667   24.4927 C   0  0  0  0  0  0  0  0  0  0  0  0
    9.1967  -17.8042   24.5966 O   0  0  0  0  0  0  0  0  0  0  0  0
   10.3438  -13.1173   30.0602 C   0  0  0  0  0  0  0  0  0  0  0  0
   11.1301  -14.7047   30.4214 S   0  0  0  0  0  0  0  0  0  0  0  0
   10.9453  -15.8878   29.1002 C   0  0  0  0  0  0  0  0  0  0  0  0
   10.3689  -15.3745   27.8453 C   0  0  0  0  0  0  0  0  0  0  0  0
   10.2455  -16.3867   26.7325 C   0  0  2  0  0  0  0  0  0  0  0  0
    9.5924  -15.7711   25.5920 N   0  0  0  0  0  0  0  0  0  0  0  0
    9.5263  -17.5898   27.1074 C   0  0  0  0  0  0  0  0  0  0  0  0
    8.1182  -17.6536   27.1332 O   0  0  0  0  0  0  0  0  0  0  0  0
   10.1193  -18.6397   27.4293 O   0  0  0  0  0  0  0  0  0  0  0  0
  2  1  1  6
  2  3  1  0
  3  4  1  0
  4 12  1  0
  4  5  2  0
  5  6  1  0
  7  8  2  0
  7  6  1  0
  9  8  1  0
 10  9  2  0
 11 10  1  0
 11 12  2  0
 12  7  1  0
 13 14  2  0
 13  2  1  0
 15 13  1  0
 16 15  1  0
 16 17  1  1
 18 17  1  0
 18 23  1  0
 19 18  2  0
 20 19  1  0
 20 21  2  0
 21 22  1  0
 22 23  2  0
 24 16  1  0
 25 24  2  0
 27 26  1  0
 27 28  1  0
 29 28  1  0
 30 29  1  1
 30 31  1  0
 31 24  1  0
 32 30  1  0
 32 33  1  0
 34 32  2  0
M  END
$$$$
