WFM.pdb
     RDKit          3D

 34 36  0  0  1  0  0  0  0  0999 V2000
    7.1144  -18.7116   21.1402 N   0  0  0  0  0  0  0  0  0  0  0  0
    7.8441  -17.4729   20.8379 C   0  0  1  0  0  0  0  0  0  0  0  0
    6.8725  -16.5832   20.1212 C   0  0  0  0  0  0  0  0  0  0  0  0
    7.4668  -15.3570   19.5645 C   0  0  0  0  0  0  0  0  0  0  0  0
    7.8562  -15.2010   18.2298 C   0  0  0  0  0  0  0  0  0  0  0  0
    8.3188  -13.9808   18.0413 N   0  0  0  0  0  0  0  0  0  0  0  0
    8.2550  -13.3108   19.2001 C   0  0  0  0  0  0  0  0  0  0  0  0
    8.6268  -12.0061   19.5199 C   0  0  0  0  0  0  0  0  0  0  0  0
    8.4620  -11.5645   20.8104 C   0  0  0  0  0  0  0  0  0  0  0  0
    7.9377  -12.4033   21.7663 C   0  0  0  0  0  0  0  0  0  0  0  0
    7.5721  -13.6945   21.4396 C   0  0  0  0  0  0  0  0  0  0  0  0
    7.7288  -14.1535   20.1526 C   0  0  0  0  0  0  0  0  0  0  0  0
    8.3532  -16.9138   22.0941 C   0  0  0  0  0  0  0  0  0  0  0  0
    9.2442  -16.0289   22.0536 O   0  0  0  0  0  0  0  0  0  0  0  0
    7.8624  -17.3403   23.3837 N   0  0  0  0  0  0  0  0  0  0  0  0
    8.4534  -16.7580   24.5520 C   0  0  1  0  0  0  0  0  0  0  0  0
    7.3955  -16.3701   25.5746 C   0  0  0  0  0  0  0  0  0  0  0  0
    7.1443  -14.9372   25.6688 C   0  0  0  0  0  0  0  0  0  0  0  0
    8.2016  -14.0609   25.7289 C   0  0  0  0  0  0  0  0  0  0  0  0
    7.9133  -12.6975   25.8230 C   0  0  0  0  0  0  0  0  0  0  0  0
    6.6139  -12.2326   25.8552 C   0  0  0  0  0  0  0  0  0  0  0  0
    5.5685  -13.1056   25.7952 C   0  0  0  0  0  0  0  0  0  0  0  0
    5.8649  -14.4519   25.7026 C   0  0  0  0  0  0  0  0  0  0  0  0
    9.4877  -17.5705   25.2127 C   0  0  0  0  0  0  0  0  0  0  0  0
    9.7234  -18.7571   24.9273 O   0  0  0  0  0  0  0  0  0  0  0  0
   10.8459  -13.2640   28.0718 C   0  0  0  0  0  0  0  0  0  0  0  0
   11.8752  -14.3468   29.0898 S   0  0  0  0  0  0  0  0  0  0  0  0
   11.5243  -16.0768   28.8377 C   0  0  0  0  0  0  0  0  0  0  0  0
   12.1863  -16.7120   27.6849 C   0  0  0  0  0  0  0  0  0  0  0  0
   11.3300  -17.6786   26.9034 C   0  0  2  0  0  0  0  0  0  0  0  0
   10.2650  -16.9499   26.2393 N   0  0  0  0  0  0  0  0  0  0  0  0
   10.7569  -18.7414   27.7079 C   0  0  0  0  0  0  0  0  0  0  0  0
    9.3721  -18.8453   27.9506 O   0  0  0  0  0  0  0  0  0  0  0  0
   11.4637  -19.6266   28.2318 O   0  0  0  0  0  0  0  0  0  0  0  0
  2  1  1  1
  2  3  1  0
  3  4  1  0
  4 12  1  0
  4  5  2  0
  5  6  1  0
  7  8  2  0
  7  6  1  0
  9  8  1  0
 10  9  2  0
 11 10  1  0
 11 12  2  0
 12  7  1  0
 13 14  2  0
 13  2  1  0
 15 13  1  0
 16 15  1  0
 16 17  1  1
 18 17  1  0
 18 23  1  0
 19 18  2  0
 20 19  1  0
 20 21  2  0
 21 22  1  0
 22 23  2  0
 24 16  1  0
 25 24  2  0
 27 26  1  0
 27 28  1  0
 29 28  1  0
 30 29  1  1
 30 31  1  0
 31 24  1  0
 32 30  1  0
 32 33  1  0
 34 32  2  0
M  END
$$$$
