WFM.pdb
     RDKit          3D

 34 36  0  0  1  0  0  0  0  0999 V2000
    9.4485  -18.5482   19.6353 N   0  0  0  0  0  0  0  0  0  0  0  0
   10.6528  -18.1109   20.3541 C   0  0  1  0  0  0  0  0  0  0  0  0
   11.6811  -17.8196   19.3019 C   0  0  0  0  0  0  0  0  0  0  0  0
   11.8991  -18.9158   18.3441 C   0  0  0  0  0  0  0  0  0  0  0  0
   12.1386  -18.7373   16.9773 C   0  0  0  0  0  0  0  0  0  0  0  0
   12.3259  -19.9088   16.4020 N   0  0  0  0  0  0  0  0  0  0  0  0
   12.2209  -20.8683   17.3315 C   0  0  0  0  0  0  0  0  0  0  0  0
   12.3282  -22.2540   17.2269 C   0  0  0  0  0  0  0  0  0  0  0  0
   12.1641  -23.0214   18.3546 C   0  0  0  0  0  0  0  0  0  0  0  0
   11.8978  -22.4236   19.5645 C   0  0  0  0  0  0  0  0  0  0  0  0
   11.7934  -21.0496   19.6583 C   0  0  0  0  0  0  0  0  0  0  0  0
   11.9558  -20.2654   18.5401 C   0  0  0  0  0  0  0  0  0  0  0  0
   10.3045  -16.9555   21.1867 C   0  0  0  0  0  0  0  0  0  0  0  0
   11.1896  -16.1049   21.4546 O   0  0  0  0  0  0  0  0  0  0  0  0
    8.9733  -16.7539   21.7092 N   0  0  0  0  0  0  0  0  0  0  0  0
    8.8221  -15.8942   22.8456 C   0  0  1  0  0  0  0  0  0  0  0  0
    7.4497  -15.2376   22.8662 C   0  0  0  0  0  0  0  0  0  0  0  0
    7.2300  -14.3340   23.9891 C   0  0  0  0  0  0  0  0  0  0  0  0
    6.6273  -14.8003   25.1330 C   0  0  0  0  0  0  0  0  0  0  0  0
    6.4332  -13.8979   26.1813 C   0  0  0  0  0  0  0  0  0  0  0  0
    6.8292  -12.5790   26.0843 C   0  0  0  0  0  0  0  0  0  0  0  0
    7.4267  -12.1213   24.9476 C   0  0  0  0  0  0  0  0  0  0  0  0
    7.6136  -13.0222   23.9168 C   0  0  0  0  0  0  0  0  0  0  0  0
    9.0771  -16.5197   24.1534 C   0  0  0  0  0  0  0  0  0  0  0  0
    8.7450  -17.6823   24.4416 O   0  0  0  0  0  0  0  0  0  0  0  0
    9.6793  -12.5420   29.9491 C   0  0  0  0  0  0  0  0  0  0  0  0
   10.9450  -13.3943   28.9796 S   0  0  0  0  0  0  0  0  0  0  0  0
   10.2624  -14.5779   27.8339 C   0  0  0  0  0  0  0  0  0  0  0  0
   11.2332  -15.3103   27.0021 C   0  0  0  0  0  0  0  0  0  0  0  0
   10.6411  -16.3668   26.1015 C   0  0  2  0  0  0  0  0  0  0  0  0
    9.7500  -15.7386   25.1436 N   0  0  0  0  0  0  0  0  0  0  0  0
    9.9262  -17.4120   26.8100 C   0  0  0  0  0  0  0  0  0  0  0  0
    8.5249  -17.5507   26.7430 O   0  0  0  0  0  0  0  0  0  0  0  0
   10.5173  -18.2497   27.5216 O   0  0  0  0  0  0  0  0  0  0  0  0
  2  1  1  6
  2  3  1  0
  3  4  1  0
  4 12  1  0
  4  5  2  0
  5  6  1  0
  7  8  2  0
  7  6  1  0
  9  8  1  0
 10  9  2  0
 11 10  1  0
 11 12  2  0
 12  7  1  0
 13 14  2  0
 13  2  1  0
 15 13  1  0
 16 15  1  0
 16 17  1  1
 18 17  1  0
 18 23  1  0
 19 18  2  0
 20 19  1  0
 20 21  2  0
 21 22  1  0
 22 23  2  0
 24 16  1  0
 25 24  2  0
 27 26  1  0
 27 28  1  0
 29 28  1  0
 30 29  1  1
 30 31  1  0
 31 24  1  0
 32 30  1  0
 32 33  1  0
 34 32  2  0
M  END
$$$$
