WFM.pdb
     RDKit          3D

 34 36  0  0  1  0  0  0  0  0999 V2000
   11.4869  -16.6009   20.8834 N   0  0  0  0  0  0  0  0  0  0  0  0
   10.1897  -16.0679   21.3207 C   0  0  1  0  0  0  0  0  0  0  0  0
    9.1478  -16.8498   20.5775 C   0  0  0  0  0  0  0  0  0  0  0  0
    8.0974  -16.0268   19.9562 C   0  0  0  0  0  0  0  0  0  0  0  0
    7.0306  -16.5366   19.2083 C   0  0  0  0  0  0  0  0  0  0  0  0
    6.2481  -15.5493   18.8197 N   0  0  0  0  0  0  0  0  0  0  0  0
    6.7497  -14.3944   19.2784 C   0  0  0  0  0  0  0  0  0  0  0  0
    6.2992  -13.0835   19.1324 C   0  0  0  0  0  0  0  0  0  0  0  0
    7.0202  -12.0642   19.7058 C   0  0  0  0  0  0  0  0  0  0  0  0
    8.1681  -12.3415   20.4113 C   0  0  0  0  0  0  0  0  0  0  0  0
    8.6064  -13.6438   20.5506 C   0  0  0  0  0  0  0  0  0  0  0  0
    7.8968  -14.6771   19.9844 C   0  0  0  0  0  0  0  0  0  0  0  0
   10.1033  -16.1909   22.7791 C   0  0  0  0  0  0  0  0  0  0  0  0
   11.1483  -16.4233   23.4368 O   0  0  0  0  0  0  0  0  0  0  0  0
    8.8560  -16.0486   23.4932 N   0  0  0  0  0  0  0  0  0  0  0  0
    8.9007  -16.0394   24.9254 C   0  0  1  0  0  0  0  0  0  0  0  0
    7.5295  -15.7574   25.5217 C   0  0  0  0  0  0  0  0  0  0  0  0
    7.2332  -14.3424   25.7103 C   0  0  0  0  0  0  0  0  0  0  0  0
    5.9734  -13.9546   26.0999 C   0  0  0  0  0  0  0  0  0  0  0  0
    5.7339  -12.5883   26.2639 C   0  0  0  0  0  0  0  0  0  0  0  0
    6.7212  -11.6487   26.0452 C   0  0  0  0  0  0  0  0  0  0  0  0
    7.9692  -12.0383   25.6590 C   0  0  0  0  0  0  0  0  0  0  0  0
    8.1952  -13.3920   25.4995 C   0  0  0  0  0  0  0  0  0  0  0  0
    9.4591  -17.2489   25.5512 C   0  0  0  0  0  0  0  0  0  0  0  0
    9.1540  -18.4062   25.2155 O   0  0  0  0  0  0  0  0  0  0  0  0
   11.0622  -14.0480   30.0545 C   0  0  0  0  0  0  0  0  0  0  0  0
   11.4320  -15.1531   28.6723 S   0  0  0  0  0  0  0  0  0  0  0  0
   11.8119  -16.8152   29.1945 C   0  0  0  0  0  0  0  0  0  0  0  0
   12.1538  -17.7692   28.1250 C   0  0  0  0  0  0  0  0  0  0  0  0
   10.9940  -18.2222   27.2719 C   0  0  2  0  0  0  0  0  0  0  0  0
   10.4105  -17.0738   26.6036 N   0  0  0  0  0  0  0  0  0  0  0  0
    9.9611  -18.9268   28.0080 C   0  0  0  0  0  0  0  0  0  0  0  0
    8.7829  -18.2940   28.4538 O   0  0  0  0  0  0  0  0  0  0  0  0
   10.0607  -20.1390   28.2879 O   0  0  0  0  0  0  0  0  0  0  0  0
  2  1  1  6
  2  3  1  0
  3  4  1  0
  4 12  1  0
  4  5  2  0
  5  6  1  0
  7  8  2  0
  7  6  1  0
  9  8  1  0
 10  9  2  0
 11 10  1  0
 11 12  2  0
 12  7  1  0
 13 14  2  0
 13  2  1  0
 15 13  1  0
 16 15  1  0
 16 17  1  1
 18 17  1  0
 18 23  1  0
 19 18  2  0
 20 19  1  0
 20 21  2  0
 21 22  1  0
 22 23  2  0
 24 16  1  0
 25 24  2  0
 27 26  1  0
 27 28  1  0
 29 28  1  0
 30 29  1  1
 30 31  1  0
 31 24  1  0
 32 30  1  0
 32 33  1  0
 34 32  2  0
M  END
$$$$
