WFM.pdb
     RDKit          3D

 34 36  0  0  1  0  0  0  0  0999 V2000
    6.4891  -16.6138   20.7266 N   0  0  0  0  0  0  0  0  0  0  0  0
    6.0082  -17.1534   22.0056 C   0  0  1  0  0  0  0  0  0  0  0  0
    5.9277  -18.6400   21.8248 C   0  0  0  0  0  0  0  0  0  0  0  0
    4.7439  -19.0991   21.0800 C   0  0  0  0  0  0  0  0  0  0  0  0
    4.7715  -19.5767   19.7653 C   0  0  0  0  0  0  0  0  0  0  0  0
    3.5582  -19.9393   19.3984 N   0  0  0  0  0  0  0  0  0  0  0  0
    2.7158  -19.7229   20.4178 C   0  0  0  0  0  0  0  0  0  0  0  0
    1.3421  -19.9330   20.5251 C   0  0  0  0  0  0  0  0  0  0  0  0
    0.7091  -19.6100   21.7010 C   0  0  0  0  0  0  0  0  0  0  0  0
    1.4273  -19.0874   22.7514 C   0  0  0  0  0  0  0  0  0  0  0  0
    2.7883  -18.8830   22.6356 C   0  0  0  0  0  0  0  0  0  0  0  0
    3.4389  -19.2015   21.4665 C   0  0  0  0  0  0  0  0  0  0  0  0
    6.9277  -16.7283   23.0656 C   0  0  0  0  0  0  0  0  0  0  0  0
    8.1596  -16.6782   22.8237 O   0  0  0  0  0  0  0  0  0  0  0  0
    6.4677  -16.3574   24.3835 N   0  0  0  0  0  0  0  0  0  0  0  0
    7.4518  -16.1600   25.4061 C   0  0  1  0  0  0  0  0  0  0  0  0
    6.8819  -15.3799   26.5817 C   0  0  0  0  0  0  0  0  0  0  0  0
    7.0836  -13.9381   26.5035 C   0  0  0  0  0  0  0  0  0  0  0  0
    8.3459  -13.4159   26.6556 C   0  0  0  0  0  0  0  0  0  0  0  0
    8.4909  -12.0289   26.5775 C   0  0  0  0  0  0  0  0  0  0  0  0
    7.4102  -11.1991   26.3552 C   0  0  0  0  0  0  0  0  0  0  0  0
    6.1601  -11.7219   26.2049 C   0  0  0  0  0  0  0  0  0  0  0  0
    6.0280  -13.0949   26.2842 C   0  0  0  0  0  0  0  0  0  0  0  0
    8.1005  -17.3823   25.9077 C   0  0  0  0  0  0  0  0  0  0  0  0
    7.5235  -18.4779   26.0163 O   0  0  0  0  0  0  0  0  0  0  0  0
   13.1860  -17.3172   22.3470 C   0  0  0  0  0  0  0  0  0  0  0  0
   13.1487  -18.5502   23.6686 S   0  0  0  0  0  0  0  0  0  0  0  0
   12.1600  -18.0435   25.0634 C   0  0  0  0  0  0  0  0  0  0  0  0
   11.0336  -18.9257   25.4150 C   0  0  0  0  0  0  0  0  0  0  0  0
   10.2284  -18.4934   26.6162 C   0  0  2  0  0  0  0  0  0  0  0  0
    9.4763  -17.2969   26.2864 N   0  0  0  0  0  0  0  0  0  0  0  0
   11.0261  -18.2485   27.8032 C   0  0  0  0  0  0  0  0  0  0  0  0
   11.7604  -19.2660   28.4457 O   0  0  0  0  0  0  0  0  0  0  0  0
   11.1057  -17.1165   28.3226 O   0  0  0  0  0  0  0  0  0  0  0  0
  2  1  1  6
  2  3  1  0
  3  4  1  0
  4 12  1  0
  4  5  2  0
  5  6  1  0
  7  8  2  0
  7  6  1  0
  9  8  1  0
 10  9  2  0
 11 10  1  0
 11 12  2  0
 12  7  1  0
 13 14  2  0
 13  2  1  0
 15 13  1  0
 16 15  1  0
 16 17  1  1
 18 17  1  0
 18 23  1  0
 19 18  2  0
 20 19  1  0
 20 21  2  0
 21 22  1  0
 22 23  2  0
 24 16  1  0
 25 24  2  0
 27 26  1  0
 27 28  1  0
 29 28  1  0
 30 29  1  6
 30 31  1  0
 31 24  1  0
 32 30  1  0
 32 33  1  0
 34 32  2  0
M  END
$$$$
