GWK.pdb
     RDKit          3D

 28 29  0  0  1  0  0  0  0  0999 V2000
    4.6897  -19.6431   23.3299 N   0  0  0  0  0  0  0  0  0  0  0  0
    5.8990  -19.7809   24.0910 C   0  0  0  0  0  0  0  0  0  0  0  0
    6.7781  -18.6078   23.7590 C   0  0  0  0  0  0  0  0  0  0  0  0
    6.7613  -18.0872   22.6112 O   0  0  0  0  0  0  0  0  0  0  0  0
    7.6561  -18.0360   24.7022 N   0  0  0  0  0  0  0  0  0  0  0  0
    8.5505  -16.9547   24.4364 C   0  0  1  0  0  0  0  0  0  0  0  0
    8.7110  -15.9475   25.5111 C   0  0  0  0  0  0  0  0  0  0  0  0
    7.5291  -15.1234   25.8158 C   0  0  0  0  0  0  0  0  0  0  0  0
    6.2771  -15.4854   26.2488 C   0  0  0  0  0  0  0  0  0  0  0  0
    5.5405  -14.3451   26.3725 N   0  0  0  0  0  0  0  0  0  0  0  0
    6.2830  -13.2836   26.0336 C   0  0  0  0  0  0  0  0  0  0  0  0
    6.0186  -11.9275   25.9848 C   0  0  0  0  0  0  0  0  0  0  0  0
    6.9773  -11.0099   25.5898 C   0  0  0  0  0  0  0  0  0  0  0  0
    8.2177  -11.4604   25.2390 C   0  0  0  0  0  0  0  0  0  0  0  0
    8.4804  -12.8074   25.2874 C   0  0  0  0  0  0  0  0  0  0  0  0
    7.5400  -13.7511   25.6793 C   0  0  0  0  0  0  0  0  0  0  0  0
    9.9350  -17.4801   24.1559 C   0  0  0  0  0  0  0  0  0  0  0  0
   10.3095  -18.4832   24.7910 O   0  0  0  0  0  0  0  0  0  0  0  0
   10.7442  -16.8480   23.2167 N   0  0  0  0  0  0  0  0  0  0  0  0
   11.9635  -17.5398   22.7558 C   0  0  1  0  0  0  0  0  0  0  0  0
   12.3275  -16.9794   21.3940 C   0  0  0  0  0  0  0  0  0  0  0  0
   13.6181  -17.5119   20.8597 C   0  0  0  0  0  0  0  0  0  0  0  0
   13.9286  -16.8899   19.5199 C   0  0  0  0  0  0  0  0  0  0  0  0
   15.2044  -17.3733   18.9016 C   0  0  0  0  0  0  0  0  0  0  0  0
   15.4149  -16.6277   17.6502 N   0  0  0  0  0  0  0  0  0  0  0  0
   12.9805  -17.2570   23.7891 C   0  0  0  0  0  0  0  0  0  0  0  0
   14.1312  -18.0081   23.9557 O   0  0  0  0  0  0  0  0  0  0  0  0
   12.8100  -16.2904   24.5650 O   0  0  0  0  0  0  0  0  0  0  0  0
  1  2  1  0
  3  4  2  0
  3  2  1  0
  5  3  1  0
  6  5  1  0
  6  7  1  1
  8 16  1  0
  8  7  1  0
  9  8  2  0
 10  9  1  0
 10 11  1  0
 11 16  2  0
 12 11  1  0
 12 13  2  0
 13 14  1  0
 14 15  2  0
 16 15  1  0
 17 18  2  0
 17  6  1  0
 19 17  1  0
 20 21  1  6
 20 19  1  0
 22 23  1  0
 22 21  1  0
 24 23  1  0
 24 25  1  0
 26 20  1  0
 27 26  1  0
 28 26  2  0
M  END
$$$$
