GWK.pdb
     RDKit          3D

 28 29  0  0  1  0  0  0  0  0999 V2000
    5.7495  -20.8295   24.7842 N   0  0  0  0  0  0  0  0  0  0  0  0
    6.8876  -20.2651   25.4527 C   0  0  0  0  0  0  0  0  0  0  0  0
    7.3539  -19.0911   24.6382 C   0  0  0  0  0  0  0  0  0  0  0  0
    7.0397  -18.9772   23.4228 O   0  0  0  0  0  0  0  0  0  0  0  0
    8.1568  -18.0691   25.1843 N   0  0  0  0  0  0  0  0  0  0  0  0
    8.7048  -16.9767   24.4454 C   0  0  1  0  0  0  0  0  0  0  0  0
    8.7870  -15.6752   25.1487 C   0  0  0  0  0  0  0  0  0  0  0  0
    7.5061  -15.0569   25.5305 C   0  0  0  0  0  0  0  0  0  0  0  0
    6.2878  -15.6274   25.8065 C   0  0  0  0  0  0  0  0  0  0  0  0
    5.4195  -14.6184   26.0996 N   0  0  0  0  0  0  0  0  0  0  0  0
    6.0473  -13.4384   26.0176 C   0  0  0  0  0  0  0  0  0  0  0  0
    5.6297  -12.1350   26.2127 C   0  0  0  0  0  0  0  0  0  0  0  0
    6.4910  -11.0615   26.0617 C   0  0  0  0  0  0  0  0  0  0  0  0
    7.7886  -11.3003   25.7099 C   0  0  0  0  0  0  0  0  0  0  0  0
    8.2035  -12.5950   25.5161 C   0  0  0  0  0  0  0  0  0  0  0  0
    7.3635  -13.6914   25.6601 C   0  0  0  0  0  0  0  0  0  0  0  0
   10.1111  -17.2964   24.0077 C   0  0  0  0  0  0  0  0  0  0  0  0
   10.8260  -17.9431   24.7955 O   0  0  0  0  0  0  0  0  0  0  0  0
   10.5683  -16.8723   22.7636 N   0  0  0  0  0  0  0  0  0  0  0  0
   11.8250  -17.4429   22.2413 C   0  0  1  0  0  0  0  0  0  0  0  0
   11.9434  -17.0449   20.7823 C   0  0  0  0  0  0  0  0  0  0  0  0
   13.2399  -17.4531   20.1600 C   0  0  0  0  0  0  0  0  0  0  0  0
   13.2639  -17.0737   18.6993 C   0  0  0  0  0  0  0  0  0  0  0  0
   14.4521  -17.5951   17.9509 C   0  0  0  0  0  0  0  0  0  0  0  0
   14.2249  -17.3606   16.5157 N   0  0  0  0  0  0  0  0  0  0  0  0
   12.8902  -16.8668   23.0870 C   0  0  0  0  0  0  0  0  0  0  0  0
   12.8838  -15.5588   23.5401 O   0  0  0  0  0  0  0  0  0  0  0  0
   13.8587  -17.5844   23.4221 O   0  0  0  0  0  0  0  0  0  0  0  0
  1  2  1  0
  3  4  2  0
  3  2  1  0
  5  3  1  0
  6  5  1  0
  6  7  1  1
  8 16  1  0
  8  7  1  0
  9  8  2  0
 10  9  1  0
 10 11  1  0
 11 16  2  0
 12 11  1  0
 12 13  2  0
 13 14  1  0
 14 15  2  0
 16 15  1  0
 17 18  2  0
 17  6  1  0
 19 17  1  0
 20 21  1  6
 20 19  1  0
 22 23  1  0
 22 21  1  0
 24 23  1  0
 24 25  1  0
 26 20  1  0
 27 26  1  0
 28 26  2  0
M  END
$$$$
