GWK.pdb
     RDKit          3D

 28 29  0  0  1  0  0  0  0  0999 V2000
    5.1179  -19.8576   22.4486 N   0  0  0  0  0  0  0  0  0  0  0  0
    6.0319  -19.7034   23.5447 C   0  0  0  0  0  0  0  0  0  0  0  0
    6.7535  -18.3991   23.3515 C   0  0  0  0  0  0  0  0  0  0  0  0
    6.5360  -17.6795   22.3396 O   0  0  0  0  0  0  0  0  0  0  0  0
    7.6989  -17.9186   24.2803 N   0  0  0  0  0  0  0  0  0  0  0  0
    8.4587  -16.7190   24.1275 C   0  0  1  0  0  0  0  0  0  0  0  0
    8.6586  -15.9008   25.3465 C   0  0  0  0  0  0  0  0  0  0  0  0
    7.4868  -15.1507   25.8292 C   0  0  0  0  0  0  0  0  0  0  0  0
    6.2554  -15.5923   26.2469 C   0  0  0  0  0  0  0  0  0  0  0  0
    5.5196  -14.4959   26.5851 N   0  0  0  0  0  0  0  0  0  0  0  0
    6.2429  -13.3850   26.3951 C   0  0  0  0  0  0  0  0  0  0  0  0
    5.9709  -12.0422   26.5796 C   0  0  0  0  0  0  0  0  0  0  0  0
    6.9084  -11.0619   26.3019 C   0  0  0  0  0  0  0  0  0  0  0  0
    8.1351  -11.4353   25.8326 C   0  0  0  0  0  0  0  0  0  0  0  0
    8.4055  -12.7692   25.6493 C   0  0  0  0  0  0  0  0  0  0  0  0
    7.4862  -13.7745   25.9188 C   0  0  0  0  0  0  0  0  0  0  0  0
    9.8401  -17.0381   23.6161 C   0  0  0  0  0  0  0  0  0  0  0  0
   10.3481  -18.1192   23.9670 O   0  0  0  0  0  0  0  0  0  0  0  0
   10.5009  -16.1398   22.7837 N   0  0  0  0  0  0  0  0  0  0  0  0
   11.7866  -16.5472   22.1847 C   0  0  1  0  0  0  0  0  0  0  0  0
   12.0819  -15.6029   21.0348 C   0  0  0  0  0  0  0  0  0  0  0  0
   13.3115  -15.9695   20.2677 C   0  0  0  0  0  0  0  0  0  0  0  0
   13.4936  -15.0405   19.0921 C   0  0  0  0  0  0  0  0  0  0  0  0
   14.6091  -15.4300   18.1714 C   0  0  0  0  0  0  0  0  0  0  0  0
   14.5462  -14.5594   16.9863 N   0  0  0  0  0  0  0  0  0  0  0  0
   12.7707  -16.4491   23.2818 C   0  0  0  0  0  0  0  0  0  0  0  0
   13.9449  -17.1810   23.3239 O   0  0  0  0  0  0  0  0  0  0  0  0
   12.5484  -15.6677   24.2333 O   0  0  0  0  0  0  0  0  0  0  0  0
  1  2  1  0
  3  4  2  0
  3  2  1  0
  5  3  1  0
  6  5  1  0
  6  7  1  1
  8 16  1  0
  8  7  1  0
  9  8  2  0
 10  9  1  0
 10 11  1  0
 11 16  2  0
 12 11  1  0
 12 13  2  0
 13 14  1  0
 14 15  2  0
 16 15  1  0
 17 18  2  0
 17  6  1  0
 19 17  1  0
 20 21  1  6
 20 19  1  0
 22 23  1  0
 22 21  1  0
 24 23  1  0
 24 25  1  0
 26 20  1  0
 27 26  1  0
 28 26  2  0
M  END
$$$$
