GWK.pdb
     RDKit          3D

 28 29  0  0  1  0  0  0  0  0999 V2000
    4.8461  -20.1698   23.8206 N   0  0  0  0  0  0  0  0  0  0  0  0
    6.2092  -19.9980   24.2366 C   0  0  0  0  0  0  0  0  0  0  0  0
    6.6650  -18.6520   23.7470 C   0  0  0  0  0  0  0  0  0  0  0  0
    6.1535  -18.1256   22.7223 O   0  0  0  0  0  0  0  0  0  0  0  0
    7.6754  -17.9174   24.4004 N   0  0  0  0  0  0  0  0  0  0  0  0
    8.1720  -16.6491   23.9710 C   0  0  1  0  0  0  0  0  0  0  0  0
    8.6071  -15.7129   25.0337 C   0  0  0  0  0  0  0  0  0  0  0  0
    7.5377  -15.0682   25.8144 C   0  0  0  0  0  0  0  0  0  0  0  0
    6.5333  -15.6166   26.5736 C   0  0  0  0  0  0  0  0  0  0  0  0
    5.7981  -14.5890   27.0850 N   0  0  0  0  0  0  0  0  0  0  0  0
    6.3034  -13.4187   26.6751 C   0  0  0  0  0  0  0  0  0  0  0  0
    5.9381  -12.1049   26.9025 C   0  0  0  0  0  0  0  0  0  0  0  0
    6.6384  -11.0458   26.3503 C   0  0  0  0  0  0  0  0  0  0  0  0
    7.7197  -11.3098   25.5593 C   0  0  0  0  0  0  0  0  0  0  0  0
    8.0827  -12.6148   25.3334 C   0  0  0  0  0  0  0  0  0  0  0  0
    7.4004  -13.6972   25.8731 C   0  0  0  0  0  0  0  0  0  0  0  0
    9.3675  -16.8342   23.0721 C   0  0  0  0  0  0  0  0  0  0  0  0
   10.1376  -17.7789   23.3260 O   0  0  0  0  0  0  0  0  0  0  0  0
    9.5792  -15.9667   22.0048 N   0  0  0  0  0  0  0  0  0  0  0  0
   10.5441  -16.3569   20.9587 C   0  0  1  0  0  0  0  0  0  0  0  0
   10.0331  -15.8223   19.6343 C   0  0  0  0  0  0  0  0  0  0  0  0
    9.6326  -14.3832   19.6909 C   0  0  0  0  0  0  0  0  0  0  0  0
    9.1473  -13.9193   18.3390 C   0  0  0  0  0  0  0  0  0  0  0  0
    8.7456  -12.4770   18.2947 C   0  0  0  0  0  0  0  0  0  0  0  0
    8.3509  -12.1566   16.9135 N   0  0  0  0  0  0  0  0  0  0  0  0
   11.8261  -15.7507   21.3719 C   0  0  0  0  0  0  0  0  0  0  0  0
   12.0078  -15.0913   22.5753 O   0  0  0  0  0  0  0  0  0  0  0  0
   12.8125  -15.8273   20.6061 O   0  0  0  0  0  0  0  0  0  0  0  0
  1  2  1  0
  3  4  2  0
  3  2  1  0
  5  3  1  0
  6  5  1  0
  6  7  1  1
  8 16  1  0
  8  7  1  0
  9  8  2  0
 10  9  1  0
 10 11  1  0
 11 16  2  0
 12 11  1  0
 12 13  2  0
 13 14  1  0
 14 15  2  0
 16 15  1  0
 17 18  2  0
 17  6  1  0
 19 17  1  0
 20 21  1  6
 20 19  1  0
 22 23  1  0
 22 21  1  0
 24 23  1  0
 24 25  1  0
 26 20  1  0
 27 26  1  0
 28 26  2  0
M  END
$$$$
