GWK.pdb
     RDKit          3D

 28 29  0  0  1  0  0  0  0  0999 V2000
    5.4190  -19.0408   20.8915 N   0  0  0  0  0  0  0  0  0  0  0  0
    5.8407  -18.9672   22.2617 C   0  0  0  0  0  0  0  0  0  0  0  0
    6.7429  -17.7722   22.3933 C   0  0  0  0  0  0  0  0  0  0  0  0
    6.8032  -16.9000   21.4853 O   0  0  0  0  0  0  0  0  0  0  0  0
    7.5582  -17.5672   23.5250 N   0  0  0  0  0  0  0  0  0  0  0  0
    8.4830  -16.4903   23.6824 C   0  0  1  0  0  0  0  0  0  0  0  0
    8.6524  -15.9569   25.0543 C   0  0  0  0  0  0  0  0  0  0  0  0
    7.5092  -15.2152   25.6126 C   0  0  0  0  0  0  0  0  0  0  0  0
    6.2972  -15.6629   26.0778 C   0  0  0  0  0  0  0  0  0  0  0  0
    5.5842  -14.5728   26.4798 N   0  0  0  0  0  0  0  0  0  0  0  0
    6.3032  -13.4602   26.2840 C   0  0  0  0  0  0  0  0  0  0  0  0
    6.0474  -12.1217   26.5165 C   0  0  0  0  0  0  0  0  0  0  0  0
    6.9754  -11.1381   26.2194 C   0  0  0  0  0  0  0  0  0  0  0  0
    8.1761  -11.5038   25.6816 C   0  0  0  0  0  0  0  0  0  0  0  0
    8.4304  -12.8334   25.4507 C   0  0  0  0  0  0  0  0  0  0  0  0
    7.5200  -13.8418   25.7381 C   0  0  0  0  0  0  0  0  0  0  0  0
    9.8580  -16.9139   23.2338 C   0  0  0  0  0  0  0  0  0  0  0  0
   10.1890  -18.0976   23.4325 O   0  0  0  0  0  0  0  0  0  0  0  0
   10.7065  -15.9957   22.6226 N   0  0  0  0  0  0  0  0  0  0  0  0
   11.9160  -16.4967   21.9417 C   0  0  1  0  0  0  0  0  0  0  0  0
   12.2942  -15.4919   20.8700 C   0  0  0  0  0  0  0  0  0  0  0  0
   13.4397  -15.9364   20.0186 C   0  0  0  0  0  0  0  0  0  0  0  0
   13.7500  -14.8957   18.9703 C   0  0  0  0  0  0  0  0  0  0  0  0
   14.7759  -15.3247   17.9667 C   0  0  0  0  0  0  0  0  0  0  0  0
   14.7908  -14.3334   16.8789 N   0  0  0  0  0  0  0  0  0  0  0  0
   12.9336  -16.6194   23.0053 C   0  0  0  0  0  0  0  0  0  0  0  0
   14.0375  -17.4498   22.9156 O   0  0  0  0  0  0  0  0  0  0  0  0
   12.8081  -15.9444   24.0511 O   0  0  0  0  0  0  0  0  0  0  0  0
  1  2  1  0
  3  4  2  0
  3  2  1  0
  5  3  1  0
  6  5  1  0
  6  7  1  1
  8 16  1  0
  8  7  1  0
  9  8  2  0
 10  9  1  0
 10 11  1  0
 11 16  2  0
 12 11  1  0
 12 13  2  0
 13 14  1  0
 14 15  2  0
 16 15  1  0
 17 18  2  0
 17  6  1  0
 19 17  1  0
 20 21  1  6
 20 19  1  0
 22 23  1  0
 22 21  1  0
 24 23  1  0
 24 25  1  0
 26 20  1  0
 27 26  1  0
 28 26  2  0
M  END
$$$$
