GWK.pdb
     RDKit          3D

 28 29  0  0  1  0  0  0  0  0999 V2000
    5.5862  -16.4550   20.2574 N   0  0  0  0  0  0  0  0  0  0  0  0
    5.8739  -17.1332   21.4895 C   0  0  0  0  0  0  0  0  0  0  0  0
    7.0960  -16.4913   22.0840 C   0  0  0  0  0  0  0  0  0  0  0  0
    7.7390  -15.6093   21.4536 O   0  0  0  0  0  0  0  0  0  0  0  0
    7.5805  -16.8377   23.3618 N   0  0  0  0  0  0  0  0  0  0  0  0
    8.7133  -16.2424   23.9959 C   0  0  1  0  0  0  0  0  0  0  0  0
    8.5687  -15.9055   25.4315 C   0  0  0  0  0  0  0  0  0  0  0  0
    7.4250  -15.0496   25.7896 C   0  0  0  0  0  0  0  0  0  0  0  0
    6.1118  -15.3709   26.0309 C   0  0  0  0  0  0  0  0  0  0  0  0
    5.4517  -14.2124   26.3142 N   0  0  0  0  0  0  0  0  0  0  0  0
    6.3010  -13.1785   26.2593 C   0  0  0  0  0  0  0  0  0  0  0  0
    6.1429  -11.8196   26.4583 C   0  0  0  0  0  0  0  0  0  0  0  0
    7.2019  -10.9357   26.3389 C   0  0  0  0  0  0  0  0  0  0  0  0
    8.4357  -11.4231   26.0152 C   0  0  0  0  0  0  0  0  0  0  0  0
    8.5928  -12.7729   25.8175 C   0  0  0  0  0  0  0  0  0  0  0  0
    7.5504  -13.6834   25.9302 C   0  0  0  0  0  0  0  0  0  0  0  0
    9.9036  -17.1627   23.9080 C   0  0  0  0  0  0  0  0  0  0  0  0
    9.7048  -18.3791   24.0836 O   0  0  0  0  0  0  0  0  0  0  0  0
   11.1673  -16.6456   23.6393 N   0  0  0  0  0  0  0  0  0  0  0  0
   12.2919  -17.5849   23.4643 C   0  0  1  0  0  0  0  0  0  0  0  0
   13.3467  -16.8930   22.6219 C   0  0  0  0  0  0  0  0  0  0  0  0
   14.5709  -17.7233   22.4056 C   0  0  0  0  0  0  0  0  0  0  0  0
   15.5628  -16.9819   21.5426 C   0  0  0  0  0  0  0  0  0  0  0  0
   16.8363  -17.7300   21.2931 C   0  0  0  0  0  0  0  0  0  0  0  0
   17.6812  -16.9088   20.4111 N   0  0  0  0  0  0  0  0  0  0  0  0
   12.7538  -17.8918   24.8333 C   0  0  0  0  0  0  0  0  0  0  0  0
   12.4172  -17.1345   25.9421 O   0  0  0  0  0  0  0  0  0  0  0  0
   13.4898  -18.8860   25.0207 O   0  0  0  0  0  0  0  0  0  0  0  0
  1  2  1  0
  3  4  2  0
  3  2  1  0
  5  3  1  0
  6  5  1  0
  6  7  1  1
  8 16  1  0
  8  7  1  0
  9  8  2  0
 10  9  1  0
 10 11  1  0
 11 16  2  0
 12 11  1  0
 12 13  2  0
 13 14  1  0
 14 15  2  0
 16 15  1  0
 17 18  2  0
 17  6  1  0
 19 17  1  0
 20 21  1  6
 20 19  1  0
 22 23  1  0
 22 21  1  0
 24 23  1  0
 24 25  1  0
 26 20  1  0
 27 26  1  0
 28 26  2  0
M  END
$$$$
