GWK.pdb
     RDKit          3D

 28 29  0  0  1  0  0  0  0  0999 V2000
    4.5000  -19.9770   22.6806 N   0  0  0  0  0  0  0  0  0  0  0  0
    5.7461  -19.8395   23.3799 C   0  0  0  0  0  0  0  0  0  0  0  0
    6.1964  -18.4138   23.2251 C   0  0  0  0  0  0  0  0  0  0  0  0
    5.5590  -17.6062   22.4968 O   0  0  0  0  0  0  0  0  0  0  0  0
    7.3405  -17.9120   23.8783 N   0  0  0  0  0  0  0  0  0  0  0  0
    7.8529  -16.5875   23.7280 C   0  0  1  0  0  0  0  0  0  0  0  0
    8.3804  -15.9378   24.9507 C   0  0  0  0  0  0  0  0  0  0  0  0
    7.4074  -15.1892   25.7642 C   0  0  0  0  0  0  0  0  0  0  0  0
    6.3084  -15.6235   26.4637 C   0  0  0  0  0  0  0  0  0  0  0  0
    5.7337  -14.5318   27.0435 N   0  0  0  0  0  0  0  0  0  0  0  0
    6.4305  -13.4311   26.7337 C   0  0  0  0  0  0  0  0  0  0  0  0
    6.2742  -12.0964   27.0580 C   0  0  0  0  0  0  0  0  0  0  0  0
    7.1494  -11.1259   26.6005 C   0  0  0  0  0  0  0  0  0  0  0  0
    8.1952  -11.5011   25.8067 C   0  0  0  0  0  0  0  0  0  0  0  0
    8.3506  -12.8270   25.4845 C   0  0  0  0  0  0  0  0  0  0  0  0
    7.4898  -13.8223   25.9280 C   0  0  0  0  0  0  0  0  0  0  0  0
    8.9871  -16.5766   22.7354 C   0  0  0  0  0  0  0  0  0  0  0  0
    9.7017  -17.5938   22.6670 O   0  0  0  0  0  0  0  0  0  0  0  0
    9.2052  -15.4578   21.9372 N   0  0  0  0  0  0  0  0  0  0  0  0
   10.3107  -15.4923   20.9603 C   0  0  1  0  0  0  0  0  0  0  0  0
   10.1474  -14.3025   20.0336 C   0  0  0  0  0  0  0  0  0  0  0  0
    9.0365  -14.4677   19.0470 C   0  0  0  0  0  0  0  0  0  0  0  0
    8.8125  -13.1824   18.2880 C   0  0  0  0  0  0  0  0  0  0  0  0
    7.7678  -13.2772   17.2187 C   0  0  0  0  0  0  0  0  0  0  0  0
    8.0705  -14.4550   16.3897 N   0  0  0  0  0  0  0  0  0  0  0  0
   11.5435  -15.4296   21.7715 C   0  0  0  0  0  0  0  0  0  0  0  0
   12.8063  -15.6841   21.2649 O   0  0  0  0  0  0  0  0  0  0  0  0
   11.4620  -15.1321   22.9840 O   0  0  0  0  0  0  0  0  0  0  0  0
  1  2  1  0
  3  4  2  0
  3  2  1  0
  5  3  1  0
  6  5  1  0
  6  7  1  1
  8 16  1  0
  8  7  1  0
  9  8  2  0
 10  9  1  0
 10 11  1  0
 11 16  2  0
 12 11  1  0
 12 13  2  0
 13 14  1  0
 14 15  2  0
 16 15  1  0
 17 18  2  0
 17  6  1  0
 19 17  1  0
 20 21  1  6
 20 19  1  0
 22 23  1  0
 22 21  1  0
 24 23  1  0
 24 25  1  0
 26 20  1  0
 27 26  1  0
 28 26  2  0
M  END
$$$$
