GWK.pdb
     RDKit          3D

 28 29  0  0  1  0  0  0  0  0999 V2000
    5.3181  -17.4061   20.4662 N   0  0  0  0  0  0  0  0  0  0  0  0
    5.7018  -17.8400   21.7797 C   0  0  0  0  0  0  0  0  0  0  0  0
    6.9308  -17.0678   22.1698 C   0  0  0  0  0  0  0  0  0  0  0  0
    7.5476  -16.3594   21.3291 O   0  0  0  0  0  0  0  0  0  0  0  0
    7.4511  -17.0950   23.4798 N   0  0  0  0  0  0  0  0  0  0  0  0
    8.5909  -16.3570   23.9225 C   0  0  1  0  0  0  0  0  0  0  0  0
    8.5901  -15.9221   25.3389 C   0  0  0  0  0  0  0  0  0  0  0  0
    7.4530  -15.0893   25.7658 C   0  0  0  0  0  0  0  0  0  0  0  0
    6.1796  -15.4425   26.1394 C   0  0  0  0  0  0  0  0  0  0  0  0
    5.5059  -14.2950   26.4353 N   0  0  0  0  0  0  0  0  0  0  0  0
    6.3085  -13.2373   26.2612 C   0  0  0  0  0  0  0  0  0  0  0  0
    6.1196  -11.8769   26.4190 C   0  0  0  0  0  0  0  0  0  0  0  0
    7.1305  -10.9649   26.1674 C   0  0  0  0  0  0  0  0  0  0  0  0
    8.3469  -11.4253   25.7517 C   0  0  0  0  0  0  0  0  0  0  0  0
    8.5347  -12.7766   25.5948 C   0  0  0  0  0  0  0  0  0  0  0  0
    7.5406  -13.7149   25.8393 C   0  0  0  0  0  0  0  0  0  0  0  0
    9.8435  -17.1762   23.7452 C   0  0  0  0  0  0  0  0  0  0  0  0
    9.7842  -18.3871   24.0286 O   0  0  0  0  0  0  0  0  0  0  0  0
   11.0098  -16.5761   23.2804 N   0  0  0  0  0  0  0  0  0  0  0  0
   12.1869  -17.4276   23.0214 C   0  0  1  0  0  0  0  0  0  0  0  0
   13.0667  -16.7088   22.0162 C   0  0  0  0  0  0  0  0  0  0  0  0
   14.3737  -17.3935   21.7761 C   0  0  0  0  0  0  0  0  0  0  0  0
   15.1768  -16.6443   20.7408 C   0  0  0  0  0  0  0  0  0  0  0  0
   16.5424  -17.2101   20.4983 C   0  0  0  0  0  0  0  0  0  0  0  0
   17.1681  -16.4394   19.4117 N   0  0  0  0  0  0  0  0  0  0  0  0
   12.8341  -17.6006   24.3379 C   0  0  0  0  0  0  0  0  0  0  0  0
   13.6073  -18.6991   24.6718 O   0  0  0  0  0  0  0  0  0  0  0  0
   12.6868  -16.7170   25.2114 O   0  0  0  0  0  0  0  0  0  0  0  0
  1  2  1  0
  3  4  2  0
  3  2  1  0
  5  3  1  0
  6  5  1  0
  6  7  1  1
  8 16  1  0
  8  7  1  0
  9  8  2  0
 10  9  1  0
 10 11  1  0
 11 16  2  0
 12 11  1  0
 12 13  2  0
 13 14  1  0
 14 15  2  0
 16 15  1  0
 17 18  2  0
 17  6  1  0
 19 17  1  0
 20 21  1  6
 20 19  1  0
 22 23  1  0
 22 21  1  0
 24 23  1  0
 24 25  1  0
 26 20  1  0
 27 26  1  0
 28 26  2  0
M  END
$$$$
