GWK.pdb
     RDKit          3D

 28 29  0  0  1  0  0  0  0  0999 V2000
    5.6078  -16.5583   20.2005 N   0  0  0  0  0  0  0  0  0  0  0  0
    6.2725  -17.3749   21.1763 C   0  0  0  0  0  0  0  0  0  0  0  0
    7.4142  -16.5726   21.7350 C   0  0  0  0  0  0  0  0  0  0  0  0
    8.0259  -15.7303   21.0242 O   0  0  0  0  0  0  0  0  0  0  0  0
    7.8546  -16.7185   23.0662 N   0  0  0  0  0  0  0  0  0  0  0  0
    8.9748  -16.0402   23.6360 C   0  0  1  0  0  0  0  0  0  0  0  0
    8.8669  -15.6668   25.0657 C   0  0  0  0  0  0  0  0  0  0  0  0
    7.6034  -15.0354   25.4825 C   0  0  0  0  0  0  0  0  0  0  0  0
    6.3531  -15.5749   25.6604 C   0  0  0  0  0  0  0  0  0  0  0  0
    5.5217  -14.5652   26.0441 N   0  0  0  0  0  0  0  0  0  0  0  0
    6.2033  -13.4146   26.1131 C   0  0  0  0  0  0  0  0  0  0  0  0
    5.8379  -12.1231   26.4445 C   0  0  0  0  0  0  0  0  0  0  0  0
    6.7501  -11.0815   26.4388 C   0  0  0  0  0  0  0  0  0  0  0  0
    8.0461  -11.3405   26.0956 C   0  0  0  0  0  0  0  0  0  0  0  0
    8.4092  -12.6233   25.7663 C   0  0  0  0  0  0  0  0  0  0  0  0
    7.5174  -13.6879   25.7630 C   0  0  0  0  0  0  0  0  0  0  0  0
   10.2121  -16.8938   23.5267 C   0  0  0  0  0  0  0  0  0  0  0  0
   10.1784  -18.0251   24.0454 O   0  0  0  0  0  0  0  0  0  0  0  0
   11.3370  -16.4107   22.8651 N   0  0  0  0  0  0  0  0  0  0  0  0
   12.4850  -17.3172   22.6705 C   0  0  1  0  0  0  0  0  0  0  0  0
   13.0630  -17.0442   21.2948 C   0  0  0  0  0  0  0  0  0  0  0  0
   13.4337  -15.6118   21.0813 C   0  0  0  0  0  0  0  0  0  0  0  0
   13.9735  -15.4112   19.6861 C   0  0  0  0  0  0  0  0  0  0  0  0
   14.5133  -14.0375   19.4303 C   0  0  0  0  0  0  0  0  0  0  0  0
   15.0682  -14.0130   18.0673 N   0  0  0  0  0  0  0  0  0  0  0  0
   13.4211  -16.9939   23.7664 C   0  0  0  0  0  0  0  0  0  0  0  0
   13.1491  -16.0645   24.7555 O   0  0  0  0  0  0  0  0  0  0  0  0
   14.5243  -17.5816   23.8203 O   0  0  0  0  0  0  0  0  0  0  0  0
  1  2  1  0
  3  4  2  0
  3  2  1  0
  5  3  1  0
  6  5  1  0
  6  7  1  1
  8 16  1  0
  8  7  1  0
  9  8  2  0
 10  9  1  0
 10 11  1  0
 11 16  2  0
 12 11  1  0
 12 13  2  0
 13 14  1  0
 14 15  2  0
 16 15  1  0
 17 18  2  0
 17  6  1  0
 19 17  1  0
 20 21  1  6
 20 19  1  0
 22 23  1  0
 22 21  1  0
 24 23  1  0
 24 25  1  0
 26 20  1  0
 27 26  1  0
 28 26  2  0
M  END
$$$$
