GWK.pdb
     RDKit          3D

 28 29  0  0  1  0  0  0  0  0999 V2000
    4.7613  -19.9130   23.1749 N   0  0  0  0  0  0  0  0  0  0  0  0
    5.8627  -19.8740   24.0947 C   0  0  0  0  0  0  0  0  0  0  0  0
    6.7100  -18.6858   23.7350 C   0  0  0  0  0  0  0  0  0  0  0  0
    6.6971  -18.2072   22.5690 O   0  0  0  0  0  0  0  0  0  0  0  0
    7.5526  -18.0527   24.6714 N   0  0  0  0  0  0  0  0  0  0  0  0
    8.4163  -16.9528   24.3817 C   0  0  1  0  0  0  0  0  0  0  0  0
    8.6419  -15.9805   25.4767 C   0  0  0  0  0  0  0  0  0  0  0  0
    7.4807  -15.1690   25.8793 C   0  0  0  0  0  0  0  0  0  0  0  0
    6.2760  -15.5436   26.4217 C   0  0  0  0  0  0  0  0  0  0  0  0
    5.5385  -14.4118   26.6036 N   0  0  0  0  0  0  0  0  0  0  0  0
    6.2352  -13.3433   26.1959 C   0  0  0  0  0  0  0  0  0  0  0  0
    5.9503  -11.9909   26.1636 C   0  0  0  0  0  0  0  0  0  0  0  0
    6.8592  -11.0641   25.6818 C   0  0  0  0  0  0  0  0  0  0  0  0
    8.0699  -11.5015   25.2263 C   0  0  0  0  0  0  0  0  0  0  0  0
    8.3529  -12.8449   25.2584 C   0  0  0  0  0  0  0  0  0  0  0  0
    7.4623  -13.7976   25.7355 C   0  0  0  0  0  0  0  0  0  0  0  0
    9.7827  -17.4523   23.9881 C   0  0  0  0  0  0  0  0  0  0  0  0
   10.2007  -18.4842   24.5453 O   0  0  0  0  0  0  0  0  0  0  0  0
   10.5286  -16.7662   23.0345 N   0  0  0  0  0  0  0  0  0  0  0  0
   11.7990  -17.3578   22.5724 C   0  0  1  0  0  0  0  0  0  0  0  0
   11.9623  -17.0159   21.1036 C   0  0  0  0  0  0  0  0  0  0  0  0
   11.1854  -17.9145   20.1960 C   0  0  0  0  0  0  0  0  0  0  0  0
   11.4530  -17.5622   18.7529 C   0  0  0  0  0  0  0  0  0  0  0  0
   10.6238  -18.3316   17.7711 C   0  0  0  0  0  0  0  0  0  0  0  0
   10.9457  -17.8419   16.4209 N   0  0  0  0  0  0  0  0  0  0  0  0
   12.8397  -16.7512   23.4274 C   0  0  0  0  0  0  0  0  0  0  0  0
   14.1423  -17.2149   23.4925 O   0  0  0  0  0  0  0  0  0  0  0  0
   12.5468  -15.7641   24.1382 O   0  0  0  0  0  0  0  0  0  0  0  0
  1  2  1  0
  3  4  2  0
  3  2  1  0
  5  3  1  0
  6  5  1  0
  6  7  1  1
  8 16  1  0
  8  7  1  0
  9  8  2  0
 10  9  1  0
 10 11  1  0
 11 16  2  0
 12 11  1  0
 12 13  2  0
 13 14  1  0
 14 15  2  0
 16 15  1  0
 17 18  2  0
 17  6  1  0
 19 17  1  0
 20 21  1  6
 20 19  1  0
 22 23  1  0
 22 21  1  0
 24 23  1  0
 24 25  1  0
 26 20  1  0
 27 26  1  0
 28 26  2  0
M  END
$$$$
