GWK.pdb
     RDKit          3D

 28 29  0  0  1  0  0  0  0  0999 V2000
    5.4442  -21.1451   24.2875 N   0  0  0  0  0  0  0  0  0  0  0  0
    6.7793  -20.6606   24.4963 C   0  0  0  0  0  0  0  0  0  0  0  0
    6.7789  -19.1888   24.1914 C   0  0  0  0  0  0  0  0  0  0  0  0
    5.8676  -18.6701   23.4919 O   0  0  0  0  0  0  0  0  0  0  0  0
    7.7849  -18.3228   24.6663 N   0  0  0  0  0  0  0  0  0  0  0  0
    7.8544  -16.9226   24.3933 C   0  0  1  0  0  0  0  0  0  0  0  0
    8.2823  -16.0495   25.5112 C   0  0  0  0  0  0  0  0  0  0  0  0
    7.2470  -15.1786   26.0931 C   0  0  0  0  0  0  0  0  0  0  0  0
    6.0194  -15.4862   26.6261 C   0  0  0  0  0  0  0  0  0  0  0  0
    5.4394  -14.3176   27.0210 N   0  0  0  0  0  0  0  0  0  0  0  0
    6.2566  -13.2905   26.7557 C   0  0  0  0  0  0  0  0  0  0  0  0
    6.1478  -11.9265   26.9529 C   0  0  0  0  0  0  0  0  0  0  0  0
    7.1551  -11.0521   26.5818 C   0  0  0  0  0  0  0  0  0  0  0  0
    8.2863  -11.5542   26.0049 C   0  0  0  0  0  0  0  0  0  0  0  0
    8.3944  -12.9092   25.8090 C   0  0  0  0  0  0  0  0  0  0  0  0
    7.4018  -13.8104   26.1705 C   0  0  0  0  0  0  0  0  0  0  0  0
    8.8246  -16.6577   23.2707 C   0  0  0  0  0  0  0  0  0  0  0  0
    9.7759  -17.4491   23.1335 O   0  0  0  0  0  0  0  0  0  0  0  0
    8.6404  -15.5618   22.4332 N   0  0  0  0  0  0  0  0  0  0  0  0
    9.1964  -15.6158   21.0673 C   0  0  1  0  0  0  0  0  0  0  0  0
    8.4869  -14.5637   20.2363 C   0  0  0  0  0  0  0  0  0  0  0  0
    8.9559  -14.5134   18.8177 C   0  0  0  0  0  0  0  0  0  0  0  0
    8.0705  -13.6014   18.0037 C   0  0  0  0  0  0  0  0  0  0  0  0
    8.3326  -13.6496   16.5297 C   0  0  0  0  0  0  0  0  0  0  0  0
    7.2820  -12.8704   15.8549 N   0  0  0  0  0  0  0  0  0  0  0  0
   10.6403  -15.3497   21.2285 C   0  0  0  0  0  0  0  0  0  0  0  0
   11.2005  -14.8465   22.3900 O   0  0  0  0  0  0  0  0  0  0  0  0
   11.4148  -15.5856   20.2746 O   0  0  0  0  0  0  0  0  0  0  0  0
  1  2  1  0
  3  4  2  0
  3  2  1  0
  5  3  1  0
  6  5  1  0
  6  7  1  1
  8 16  1  0
  8  7  1  0
  9  8  2  0
 10  9  1  0
 10 11  1  0
 11 16  2  0
 12 11  1  0
 12 13  2  0
 13 14  1  0
 14 15  2  0
 16 15  1  0
 17 18  2  0
 17  6  1  0
 19 17  1  0
 20 21  1  6
 20 19  1  0
 22 23  1  0
 22 21  1  0
 24 23  1  0
 24 25  1  0
 26 20  1  0
 27 26  1  0
 28 26  2  0
M  END
$$$$
