GWK.pdb
     RDKit          3D

 28 29  0  0  1  0  0  0  0  0999 V2000
    4.4472  -19.7756   23.1105 N   0  0  0  0  0  0  0  0  0  0  0  0
    5.7225  -19.6848   23.7632 C   0  0  0  0  0  0  0  0  0  0  0  0
    6.3102  -18.3440   23.4224 C   0  0  0  0  0  0  0  0  0  0  0  0
    5.7584  -17.5880   22.5781 O   0  0  0  0  0  0  0  0  0  0  0  0
    7.4941  -17.8682   24.0218 N   0  0  0  0  0  0  0  0  0  0  0  0
    8.0709  -16.5832   23.7858 C   0  0  1  0  0  0  0  0  0  0  0  0
    8.5247  -15.8308   24.9789 C   0  0  0  0  0  0  0  0  0  0  0  0
    7.4813  -15.1255   25.7422 C   0  0  0  0  0  0  0  0  0  0  0  0
    6.4064  -15.6132   26.4440 C   0  0  0  0  0  0  0  0  0  0  0  0
    5.7377  -14.5454   26.9643 N   0  0  0  0  0  0  0  0  0  0  0  0
    6.3526  -13.4082   26.6151 C   0  0  0  0  0  0  0  0  0  0  0  0
    6.0869  -12.0767   26.8755 C   0  0  0  0  0  0  0  0  0  0  0  0
    6.8925  -11.0619   26.3875 C   0  0  0  0  0  0  0  0  0  0  0  0
    7.9791  -11.3887   25.6279 C   0  0  0  0  0  0  0  0  0  0  0  0
    8.2431  -12.7113   25.3691 C   0  0  0  0  0  0  0  0  0  0  0  0
    7.4541  -13.7504   25.8445 C   0  0  0  0  0  0  0  0  0  0  0  0
    9.2805  -16.7099   22.8957 C   0  0  0  0  0  0  0  0  0  0  0  0
    9.9657  -17.7442   22.9998 O   0  0  0  0  0  0  0  0  0  0  0  0
    9.5971  -15.6936   21.9995 N   0  0  0  0  0  0  0  0  0  0  0  0
   10.7312  -15.8939   21.0769 C   0  0  1  0  0  0  0  0  0  0  0  0
   10.6515  -14.8232   20.0053 C   0  0  0  0  0  0  0  0  0  0  0  0
    9.4243  -14.9234   19.1575 C   0  0  0  0  0  0  0  0  0  0  0  0
    9.2395  -13.6618   18.3497 C   0  0  0  0  0  0  0  0  0  0  0  0
    8.0084  -13.6563   17.4964 C   0  0  0  0  0  0  0  0  0  0  0  0
    8.0408  -12.4467   16.6584 N   0  0  0  0  0  0  0  0  0  0  0  0
   11.9385  -15.7802   21.9204 C   0  0  0  0  0  0  0  0  0  0  0  0
   13.2137  -16.0837   21.4758 O   0  0  0  0  0  0  0  0  0  0  0  0
   11.8221  -15.3901   23.1035 O   0  0  0  0  0  0  0  0  0  0  0  0
  1  2  1  0
  3  4  2  0
  3  2  1  0
  5  3  1  0
  6  5  1  0
  6  7  1  1
  8 16  1  0
  8  7  1  0
  9  8  2  0
 10  9  1  0
 10 11  1  0
 11 16  2  0
 12 11  1  0
 12 13  2  0
 13 14  1  0
 14 15  2  0
 16 15  1  0
 17 18  2  0
 17  6  1  0
 19 17  1  0
 20 21  1  6
 20 19  1  0
 22 23  1  0
 22 21  1  0
 24 23  1  0
 24 25  1  0
 26 20  1  0
 27 26  1  0
 28 26  2  0
M  END
$$$$
