KNN.pdb
     RDKit          3D

 26 25  0  0  1  0  0  0  0  0999 V2000
    8.1587  -16.9371   16.2578 N   0  0  0  0  0  0  0  0  0  0  0  0
    9.3894  -17.3309   16.9130 C   0  0  1  0  0  0  0  0  0  0  0  0
   10.5098  -17.6100   15.9643 C   0  0  0  0  0  0  0  0  0  0  0  0
   10.1343  -17.5268   14.5136 C   0  0  0  0  0  0  0  0  0  0  0  0
   11.2370  -17.8921   13.5671 C   0  0  0  0  0  0  0  0  0  0  0  0
   10.8106  -17.6872   12.1167 C   0  0  0  0  0  0  0  0  0  0  0  0
   11.9710  -17.9649   11.2895 N   0  0  0  0  0  0  0  0  0  0  0  0
    9.7372  -16.5188   18.0847 C   0  0  0  0  0  0  0  0  0  0  0  0
   10.8957  -16.0832   18.1795 O   0  0  0  0  0  0  0  0  0  0  0  0
    8.2855  -12.2078   19.4126 N   0  0  0  0  0  0  0  0  0  0  0  0
    7.7287  -13.5359   19.4688 C   0  0  0  0  0  0  0  0  0  0  0  0
    6.9640  -13.8301   18.5252 O   0  0  0  0  0  0  0  0  0  0  0  0
    8.0849  -14.4332   20.5985 C   0  0  0  0  0  0  0  0  0  0  0  0
    9.1982  -15.3889   20.2290 C   0  0  2  0  0  0  0  0  0  0  0  0
    8.8226  -16.2006   19.1239 N   0  0  0  0  0  0  0  0  0  0  0  0
    9.5079  -16.1854   21.4542 C   0  0  0  0  0  0  0  0  0  0  0  0
    8.7344  -17.0460   21.9006 O   0  0  0  0  0  0  0  0  0  0  0  0
   12.1035  -19.8104   23.9173 N   0  0  0  0  0  0  0  0  0  0  0  0
   12.7436  -19.0111   22.9368 C   0  0  0  0  0  0  0  0  0  0  0  0
   13.9750  -19.1267   22.8132 O   0  0  0  0  0  0  0  0  0  0  0  0
   11.9172  -18.0923   22.1233 C   0  0  0  0  0  0  0  0  0  0  0  0
   11.5851  -16.8082   22.7900 C   0  0  2  0  0  0  0  0  0  0  0  0
   10.7427  -15.9118   22.0936 N   0  0  0  0  0  0  0  0  0  0  0  0
   12.7656  -16.1805   23.4537 C   0  0  0  0  0  0  0  0  0  0  0  0
   13.3466  -15.1881   22.8756 O   0  0  0  0  0  0  0  0  0  0  0  0
   13.3264  -16.5493   24.6423 O   0  0  0  0  0  0  0  0  0  0  0  0
  2  1  1  6
  3  2  1  0
  4  3  1  0
  4  5  1  0
  6  5  1  0
  7  6  1  0
  8  9  2  0
  8  2  1  0
 10 11  1  0
 11 12  2  0
 11 13  1  0
 14 13  1  1
 14 15  1  0
 15  8  1  0
 16 23  1  0
 16 14  1  0
 17 16  2  0
 19 18  1  0
 20 19  2  0
 21 19  1  0
 22 21  1  6
 22 23  1  0
 24 26  1  0
 24 22  1  0
 25 24  2  0
M  END
$$$$
