KNN.pdb
     RDKit          3D

 26 25  0  0  1  0  0  0  0  0999 V2000
    7.7262  -13.8972   24.2266 N   0  0  0  0  0  0  0  0  0  0  0  0
    7.2906  -14.2135   22.8815 C   0  0  1  0  0  0  0  0  0  0  0  0
    7.5305  -13.1124   21.9001 C   0  0  0  0  0  0  0  0  0  0  0  0
    7.2327  -13.4722   20.4738 C   0  0  0  0  0  0  0  0  0  0  0  0
    8.3158  -13.1078   19.5046 C   0  0  0  0  0  0  0  0  0  0  0  0
    7.9599  -13.5470   18.0875 C   0  0  0  0  0  0  0  0  0  0  0  0
    8.9833  -13.0120   17.2074 N   0  0  0  0  0  0  0  0  0  0  0  0
    7.6586  -15.5596   22.4277 C   0  0  0  0  0  0  0  0  0  0  0  0
    6.8764  -16.4957   22.6575 O   0  0  0  0  0  0  0  0  0  0  0  0
    8.4783  -19.7988   19.7715 N   0  0  0  0  0  0  0  0  0  0  0  0
    9.3294  -18.7075   19.3695 C   0  0  0  0  0  0  0  0  0  0  0  0
   10.2943  -19.0281   18.6429 O   0  0  0  0  0  0  0  0  0  0  0  0
    9.0179  -17.3281   19.8260 C   0  0  0  0  0  0  0  0  0  0  0  0
    9.1816  -17.1799   21.3229 C   0  0  2  0  0  0  0  0  0  0  0  0
    8.8642  -15.8578   21.7384 N   0  0  0  0  0  0  0  0  0  0  0  0
   10.5884  -17.5662   21.6437 C   0  0  0  0  0  0  0  0  0  0  0  0
   11.0120  -18.7216   21.4901 O   0  0  0  0  0  0  0  0  0  0  0  0
   14.9976  -14.6565   19.7341 N   0  0  0  0  0  0  0  0  0  0  0  0
   14.5943  -14.7439   21.0904 C   0  0  0  0  0  0  0  0  0  0  0  0
   15.4777  -14.6609   21.9609 O   0  0  0  0  0  0  0  0  0  0  0  0
   13.1573  -14.9276   21.3908 C   0  0  0  0  0  0  0  0  0  0  0  0
   12.7893  -16.2975   21.8283 C   0  0  2  0  0  0  0  0  0  0  0  0
   11.4314  -16.5395   22.1376 N   0  0  0  0  0  0  0  0  0  0  0  0
   13.7706  -16.8788   22.7912 C   0  0  0  0  0  0  0  0  0  0  0  0
   13.4298  -16.9993   24.0265 O   0  0  0  0  0  0  0  0  0  0  0  0
   15.0347  -17.3100   22.5091 O   0  0  0  0  0  0  0  0  0  0  0  0
  2  1  1  1
  3  2  1  0
  4  3  1  0
  4  5  1  0
  6  5  1  0
  7  6  1  0
  8  9  2  0
  8  2  1  0
 10 11  1  0
 11 12  2  0
 11 13  1  0
 14 13  1  6
 14 15  1  0
 15  8  1  0
 16 23  1  0
 16 14  1  0
 17 16  2  0
 19 18  1  0
 20 19  2  0
 21 19  1  0
 22 21  1  1
 22 23  1  0
 24 26  1  0
 24 22  1  0
 25 24  2  0
M  END
$$$$
