KNN.pdb
     RDKit          3D

 26 25  0  0  1  0  0  0  0  0999 V2000
    8.3416  -17.6849   14.9823 N   0  0  0  0  0  0  0  0  0  0  0  0
    7.5322  -17.5872   16.1800 C   0  0  1  0  0  0  0  0  0  0  0  0
    6.9286  -18.8874   16.6023 C   0  0  0  0  0  0  0  0  0  0  0  0
    6.6226  -19.8288   15.4742 C   0  0  0  0  0  0  0  0  0  0  0  0
    5.1644  -19.9581   15.1545 C   0  0  0  0  0  0  0  0  0  0  0  0
    4.9236  -21.0315   14.0974 C   0  0  0  0  0  0  0  0  0  0  0  0
    3.4875  -21.1237   13.9051 N   0  0  0  0  0  0  0  0  0  0  0  0
    8.1350  -16.7889   17.2536 C   0  0  0  0  0  0  0  0  0  0  0  0
    9.3446  -16.9350   17.4915 O   0  0  0  0  0  0  0  0  0  0  0  0
    8.3314  -12.0453   20.4911 N   0  0  0  0  0  0  0  0  0  0  0  0
    7.7545  -13.3350   20.7756 C   0  0  0  0  0  0  0  0  0  0  0  0
    7.8532  -13.7089   21.9639 O   0  0  0  0  0  0  0  0  0  0  0  0
    7.1062  -14.1054   19.6828 C   0  0  0  0  0  0  0  0  0  0  0  0
    8.0005  -15.2112   19.1663 C   0  0  2  0  0  0  0  0  0  0  0  0
    7.4129  -15.8543   18.0427 N   0  0  0  0  0  0  0  0  0  0  0  0
    8.2381  -16.1436   20.3089 C   0  0  0  0  0  0  0  0  0  0  0  0
    7.4883  -17.1010   20.5525 O   0  0  0  0  0  0  0  0  0  0  0  0
   11.6444  -19.8494   22.7297 N   0  0  0  0  0  0  0  0  0  0  0  0
   10.5574  -18.9683   22.9580 C   0  0  0  0  0  0  0  0  0  0  0  0
   10.0804  -18.9267   24.1051 O   0  0  0  0  0  0  0  0  0  0  0  0
   10.0562  -18.1554   21.8280 C   0  0  0  0  0  0  0  0  0  0  0  0
    9.9443  -16.7034   22.1152 C   0  0  2  0  0  0  0  0  0  0  0  0
    9.3749  -15.8836   21.1142 N   0  0  0  0  0  0  0  0  0  0  0  0
   11.1668  -16.1483   22.7674 C   0  0  0  0  0  0  0  0  0  0  0  0
   11.6653  -15.0504   22.3172 O   0  0  0  0  0  0  0  0  0  0  0  0
   11.8474  -16.6878   23.8206 O   0  0  0  0  0  0  0  0  0  0  0  0
  2  1  1  6
  3  2  1  0
  4  3  1  0
  4  5  1  0
  6  5  1  0
  7  6  1  0
  8  9  2  0
  8  2  1  0
 10 11  1  0
 11 12  2  0
 11 13  1  0
 14 13  1  1
 14 15  1  0
 15  8  1  0
 16 23  1  0
 16 14  1  0
 17 16  2  0
 19 18  1  0
 20 19  2  0
 21 19  1  0
 22 21  1  6
 22 23  1  0
 24 26  1  0
 24 22  1  0
 25 24  2  0
M  END
$$$$
