KNN.pdb
     RDKit          3D

 26 25  0  0  1  0  0  0  0  0999 V2000
    8.7662  -18.1016   18.0077 N   0  0  0  0  0  0  0  0  0  0  0  0
    9.8735  -17.1682   18.0483 C   0  0  1  0  0  0  0  0  0  0  0  0
    9.9623  -16.2919   16.8410 C   0  0  0  0  0  0  0  0  0  0  0  0
    8.7658  -15.4137   16.6183 C   0  0  0  0  0  0  0  0  0  0  0  0
    8.8369  -14.5736   15.3795 C   0  0  0  0  0  0  0  0  0  0  0  0
    7.6099  -13.6763   15.2493 C   0  0  0  0  0  0  0  0  0  0  0  0
    7.7589  -12.9296   14.0131 N   0  0  0  0  0  0  0  0  0  0  0  0
   10.0461  -16.4906   19.3384 C   0  0  0  0  0  0  0  0  0  0  0  0
   11.1271  -15.9260   19.5700 O   0  0  0  0  0  0  0  0  0  0  0  0
    7.4293  -13.2075   21.3375 N   0  0  0  0  0  0  0  0  0  0  0  0
    7.1153  -14.6096   21.4486 C   0  0  0  0  0  0  0  0  0  0  0  0
    6.1111  -14.9804   20.8037 O   0  0  0  0  0  0  0  0  0  0  0  0
    7.9704  -15.4883   22.2883 C   0  0  0  0  0  0  0  0  0  0  0  0
    9.2773  -15.8232   21.6031 C   0  0  2  0  0  0  0  0  0  0  0  0
    9.0449  -16.4429   20.3448 N   0  0  0  0  0  0  0  0  0  0  0  0
   10.0474  -16.6918   22.5433 C   0  0  0  0  0  0  0  0  0  0  0  0
    9.6317  -17.7989   22.9171 O   0  0  0  0  0  0  0  0  0  0  0  0
   15.6248  -17.3433   24.9802 N   0  0  0  0  0  0  0  0  0  0  0  0
   14.5133  -17.6387   24.1512 C   0  0  0  0  0  0  0  0  0  0  0  0
   14.3343  -18.8256   23.8285 O   0  0  0  0  0  0  0  0  0  0  0  0
   13.6370  -16.5272   23.7203 C   0  0  0  0  0  0  0  0  0  0  0  0
   12.1869  -16.7714   23.9229 C   0  0  2  0  0  0  0  0  0  0  0  0
   11.2928  -16.1891   22.9957 N   0  0  0  0  0  0  0  0  0  0  0  0
   11.7771  -16.6580   25.3537 C   0  0  0  0  0  0  0  0  0  0  0  0
   11.1087  -17.6210   25.8851 O   0  0  0  0  0  0  0  0  0  0  0  0
   12.0319  -15.6146   26.1962 O   0  0  0  0  0  0  0  0  0  0  0  0
  2  1  1  1
  3  2  1  0
  4  3  1  0
  4  5  1  0
  6  5  1  0
  7  6  1  0
  8  9  2  0
  8  2  1  0
 10 11  1  0
 11 12  2  0
 11 13  1  0
 14 13  1  1
 14 15  1  0
 15  8  1  0
 16 23  1  0
 16 14  1  0
 17 16  2  0
 19 18  1  0
 20 19  2  0
 21 19  1  0
 22 21  1  1
 22 23  1  0
 24 26  1  0
 24 22  1  0
 25 24  2  0
M  END
$$$$
