KNN.pdb
     RDKit          3D

 26 25  0  0  1  0  0  0  0  0999 V2000
    8.7622  -16.1847   20.0647 N   0  0  0  0  0  0  0  0  0  0  0  0
    8.1447  -15.0556   20.7303 C   0  0  1  0  0  0  0  0  0  0  0  0
    7.6570  -14.0006   19.7910 C   0  0  0  0  0  0  0  0  0  0  0  0
    8.4320  -13.8991   18.5099 C   0  0  0  0  0  0  0  0  0  0  0  0
    7.6609  -13.3168   17.3646 C   0  0  0  0  0  0  0  0  0  0  0  0
    8.5154  -13.2455   16.1027 C   0  0  0  0  0  0  0  0  0  0  0  0
    7.6611  -12.7493   15.0388 N   0  0  0  0  0  0  0  0  0  0  0  0
    7.2199  -15.4216   21.8093 C   0  0  0  0  0  0  0  0  0  0  0  0
    6.6635  -14.5122   22.4452 O   0  0  0  0  0  0  0  0  0  0  0  0
    4.8689  -16.2896   21.0580 N   0  0  0  0  0  0  0  0  0  0  0  0
    4.3030  -17.4028   21.7774 C   0  0  0  0  0  0  0  0  0  0  0  0
    3.2721  -17.8932   21.2689 O   0  0  0  0  0  0  0  0  0  0  0  0
    4.9547  -17.8766   23.0260 C   0  0  0  0  0  0  0  0  0  0  0  0
    6.1945  -17.0734   23.3537 C   0  0  2  0  0  0  0  0  0  0  0  0
    6.9226  -16.7621   22.1729 N   0  0  0  0  0  0  0  0  0  0  0  0
    6.9878  -17.8820   24.3274 C   0  0  0  0  0  0  0  0  0  0  0  0
    6.5888  -18.1155   25.4783 O   0  0  0  0  0  0  0  0  0  0  0  0
   12.5758  -19.5260   24.7971 N   0  0  0  0  0  0  0  0  0  0  0  0
   11.8545  -18.3185   24.9743 C   0  0  0  0  0  0  0  0  0  0  0  0
   12.2519  -17.5332   25.8520 O   0  0  0  0  0  0  0  0  0  0  0  0
   10.6793  -18.0634   24.1124 C   0  0  0  0  0  0  0  0  0  0  0  0
    9.4052  -18.6270   24.6246 C   0  0  2  0  0  0  0  0  0  0  0  0
    8.2344  -18.3792   23.8723 N   0  0  0  0  0  0  0  0  0  0  0  0
    9.2546  -18.4646   26.1008 C   0  0  0  0  0  0  0  0  0  0  0  0
    8.4698  -17.5469   26.5464 O   0  0  0  0  0  0  0  0  0  0  0  0
    9.8757  -19.1970   27.0709 O   0  0  0  0  0  0  0  0  0  0  0  0
  2  1  1  6
  3  2  1  0
  4  3  1  0
  4  5  1  0
  6  5  1  0
  7  6  1  0
  8  9  2  0
  8  2  1  0
 10 11  1  0
 11 12  2  0
 11 13  1  0
 14 13  1  6
 14 15  1  0
 15  8  1  0
 16 23  1  0
 16 14  1  0
 17 16  2  0
 19 18  1  0
 20 19  2  0
 21 19  1  0
 22 21  1  6
 22 23  1  0
 24 26  1  0
 24 22  1  0
 25 24  2  0
M  END
$$$$
