KNN.pdb
     RDKit          3D

 26 25  0  0  1  0  0  0  0  0999 V2000
    7.7365  -17.5037   17.3092 N   0  0  0  0  0  0  0  0  0  0  0  0
    8.8242  -16.5992   16.9964 C   0  0  1  0  0  0  0  0  0  0  0  0
    8.8438  -16.1576   15.5688 C   0  0  0  0  0  0  0  0  0  0  0  0
    7.5804  -16.4423   14.8104 C   0  0  0  0  0  0  0  0  0  0  0  0
    7.7870  -17.1602   13.5114 C   0  0  0  0  0  0  0  0  0  0  0  0
    6.5174  -17.1479   12.6654 C   0  0  0  0  0  0  0  0  0  0  0  0
    6.7874  -17.9455   11.4827 N   0  0  0  0  0  0  0  0  0  0  0  0
    9.0356  -15.5411   17.9909 C   0  0  0  0  0  0  0  0  0  0  0  0
    9.9834  -14.7564   17.8273 O   0  0  0  0  0  0  0  0  0  0  0  0
    7.8579  -11.4433   21.1767 N   0  0  0  0  0  0  0  0  0  0  0  0
    7.2785  -12.6990   21.5823 C   0  0  0  0  0  0  0  0  0  0  0  0
    6.9701  -12.7744   22.7909 O   0  0  0  0  0  0  0  0  0  0  0  0
    7.0925  -13.7789   20.5786 C   0  0  0  0  0  0  0  0  0  0  0  0
    8.4143  -14.2764   20.0354 C   0  0  2  0  0  0  0  0  0  0  0  0
    8.2166  -15.3607   19.1374 N   0  0  0  0  0  0  0  0  0  0  0  0
    9.2538  -14.6460   21.2143 C   0  0  0  0  0  0  0  0  0  0  0  0
    9.6222  -13.8125   22.0556 O   0  0  0  0  0  0  0  0  0  0  0  0
   10.4098  -19.0965   24.8843 N   0  0  0  0  0  0  0  0  0  0  0  0
   10.9660  -18.6805   23.6484 C   0  0  0  0  0  0  0  0  0  0  0  0
   12.1838  -18.8593   23.4752 O   0  0  0  0  0  0  0  0  0  0  0  0
   10.0736  -18.0622   22.6433 C   0  0  0  0  0  0  0  0  0  0  0  0
   10.3600  -16.6334   22.3607 C   0  0  2  0  0  0  0  0  0  0  0  0
    9.6158  -16.0111   21.3325 N   0  0  0  0  0  0  0  0  0  0  0  0
   11.8210  -16.3273   22.3580 C   0  0  0  0  0  0  0  0  0  0  0  0
   12.4063  -16.1087   21.2327 O   0  0  0  0  0  0  0  0  0  0  0  0
   12.6421  -16.2531   23.4459 O   0  0  0  0  0  0  0  0  0  0  0  0
  2  1  1  1
  3  2  1  0
  4  3  1  0
  4  5  1  0
  6  5  1  0
  7  6  1  0
  8  9  2  0
  8  2  1  0
 10 11  1  0
 11 12  2  0
 11 13  1  0
 14 13  1  1
 14 15  1  0
 15  8  1  0
 16 23  1  0
 16 14  1  0
 17 16  2  0
 19 18  1  0
 20 19  2  0
 21 19  1  0
 22 21  1  6
 22 23  1  0
 24 26  1  0
 24 22  1  0
 25 24  2  0
M  END
$$$$
