KNN.pdb
     RDKit          3D

 26 25  0  0  1  0  0  0  0  0999 V2000
    7.1164  -20.0153   19.6676 N   0  0  0  0  0  0  0  0  0  0  0  0
    7.4403  -18.6095   19.8010 C   0  0  1  0  0  0  0  0  0  0  0  0
    6.7039  -17.7319   18.8416 C   0  0  0  0  0  0  0  0  0  0  0  0
    6.4090  -18.3677   17.5145 C   0  0  0  0  0  0  0  0  0  0  0  0
    7.5085  -18.2322   16.5055 C   0  0  0  0  0  0  0  0  0  0  0  0
    7.1163  -18.8631   15.1729 C   0  0  0  0  0  0  0  0  0  0  0  0
    8.2698  -18.7582   14.2974 N   0  0  0  0  0  0  0  0  0  0  0  0
    7.4938  -18.1302   21.1869 C   0  0  0  0  0  0  0  0  0  0  0  0
    7.6644  -16.9171   21.3870 O   0  0  0  0  0  0  0  0  0  0  0  0
    6.9306  -19.3089   27.0030 N   0  0  0  0  0  0  0  0  0  0  0  0
    6.4298  -18.5193   25.9064 C   0  0  0  0  0  0  0  0  0  0  0  0
    6.0421  -17.3717   26.2136 O   0  0  0  0  0  0  0  0  0  0  0  0
    6.4075  -19.0965   24.5373 C   0  0  0  0  0  0  0  0  0  0  0  0
    7.4590  -18.4725   23.6460 C   0  0  2  0  0  0  0  0  0  0  0  0
    7.3628  -18.9766   22.3202 N   0  0  0  0  0  0  0  0  0  0  0  0
    8.7829  -18.7536   24.2781 C   0  0  0  0  0  0  0  0  0  0  0  0
    9.0470  -18.4215   25.4435 O   0  0  0  0  0  0  0  0  0  0  0  0
   13.6635  -20.9026   23.8018 N   0  0  0  0  0  0  0  0  0  0  0  0
   13.5083  -19.4937   23.7749 C   0  0  0  0  0  0  0  0  0  0  0  0
   14.5175  -18.7986   23.9830 O   0  0  0  0  0  0  0  0  0  0  0  0
   12.1655  -18.9349   23.5034 C   0  0  0  0  0  0  0  0  0  0  0  0
   11.0407  -19.8455   23.8336 C   0  0  2  0  0  0  0  0  0  0  0  0
    9.7383  -19.4274   23.4770 N   0  0  0  0  0  0  0  0  0  0  0  0
   11.1624  -20.4423   25.1963 C   0  0  0  0  0  0  0  0  0  0  0  0
   10.4334  -19.9712   26.1466 O   0  0  0  0  0  0  0  0  0  0  0  0
   11.9881  -21.4629   25.5704 O   0  0  0  0  0  0  0  0  0  0  0  0
  2  1  1  1
  3  2  1  0
  4  3  1  0
  4  5  1  0
  6  5  1  0
  7  6  1  0
  8  9  2  0
  8  2  1  0
 10 11  1  0
 11 12  2  0
 11 13  1  0
 14 13  1  1
 14 15  1  0
 15  8  1  0
 16 23  1  0
 16 14  1  0
 17 16  2  0
 19 18  1  0
 20 19  2  0
 21 19  1  0
 22 21  1  1
 22 23  1  0
 24 26  1  0
 24 22  1  0
 25 24  2  0
M  END
$$$$
