KNN.pdb
     RDKit          3D

 26 25  0  0  1  0  0  0  0  0999 V2000
   12.6248  -17.9204   18.2448 N   0  0  0  0  0  0  0  0  0  0  0  0
   11.7208  -18.3271   19.3014 C   0  0  1  0  0  0  0  0  0  0  0  0
   10.6609  -19.2786   18.8492 C   0  0  0  0  0  0  0  0  0  0  0  0
   10.7106  -19.6195   17.3885 C   0  0  0  0  0  0  0  0  0  0  0  0
    9.3905  -20.0146   16.8000 C   0  0  0  0  0  0  0  0  0  0  0  0
    9.5395  -20.4342   15.3408 C   0  0  0  0  0  0  0  0  0  0  0  0
    8.2163  -20.7970   14.8659 N   0  0  0  0  0  0  0  0  0  0  0  0
   12.3832  -18.6690   20.5655 C   0  0  0  0  0  0  0  0  0  0  0  0
   11.7661  -19.3654   21.3871 O   0  0  0  0  0  0  0  0  0  0  0  0
   17.3004  -16.5100   22.5446 N   0  0  0  0  0  0  0  0  0  0  0  0
   16.2365  -17.0994   21.7715 C   0  0  0  0  0  0  0  0  0  0  0  0
   15.7469  -16.3582   20.8926 O   0  0  0  0  0  0  0  0  0  0  0  0
   15.8076  -18.4932   22.0574 C   0  0  0  0  0  0  0  0  0  0  0  0
   14.3016  -18.6129   22.1409 C   0  0  2  0  0  0  0  0  0  0  0  0
   13.6956  -18.2471   20.9080 N   0  0  0  0  0  0  0  0  0  0  0  0
   13.8626  -17.7523   23.2802 C   0  0  0  0  0  0  0  0  0  0  0  0
   14.6622  -17.2761   24.1000 O   0  0  0  0  0  0  0  0  0  0  0  0
    9.0123  -15.2782   22.6036 N   0  0  0  0  0  0  0  0  0  0  0  0
   10.3652  -15.6817   22.7320 C   0  0  0  0  0  0  0  0  0  0  0  0
   10.9546  -16.0576   21.7042 O   0  0  0  0  0  0  0  0  0  0  0  0
   10.9939  -15.6336   24.0705 C   0  0  0  0  0  0  0  0  0  0  0  0
   11.7784  -16.8422   24.4269 C   0  0  2  0  0  0  0  0  0  0  0  0
   12.4722  -17.4988   23.3850 N   0  0  0  0  0  0  0  0  0  0  0  0
   11.0528  -17.7437   25.3698 C   0  0  0  0  0  0  0  0  0  0  0  0
   10.0236  -18.3879   24.9430 O   0  0  0  0  0  0  0  0  0  0  0  0
   11.3589  -17.9720   26.6804 O   0  0  0  0  0  0  0  0  0  0  0  0
  2  1  1  6
  3  2  1  0
  4  3  1  0
  4  5  1  0
  6  5  1  0
  7  6  1  0
  8  9  2  0
  8  2  1  0
 10 11  1  0
 11 12  2  0
 11 13  1  0
 14 13  1  6
 14 15  1  0
 15  8  1  0
 16 23  1  0
 16 14  1  0
 17 16  2  0
 19 18  1  0
 20 19  2  0
 21 19  1  0
 22 21  1  6
 22 23  1  0
 24 26  1  0
 24 22  1  0
 25 24  2  0
M  END
$$$$
