KNN.pdb
     RDKit          3D

 26 25  0  0  1  0  0  0  0  0999 V2000
    9.4328  -14.3865   21.7752 N   0  0  0  0  0  0  0  0  0  0  0  0
    8.0582  -14.6534   21.4032 C   0  0  1  0  0  0  0  0  0  0  0  0
    7.5642  -13.7968   20.2827 C   0  0  0  0  0  0  0  0  0  0  0  0
    8.2056  -14.0756   18.9548 C   0  0  0  0  0  0  0  0  0  0  0  0
    7.7543  -13.1722   17.8478 C   0  0  0  0  0  0  0  0  0  0  0  0
    8.2764  -13.6508   16.4966 C   0  0  0  0  0  0  0  0  0  0  0  0
    7.8032  -12.7070   15.4999 N   0  0  0  0  0  0  0  0  0  0  0  0
    7.7237  -16.0790   21.3074 C   0  0  0  0  0  0  0  0  0  0  0  0
    6.6352  -16.3985   20.8034 O   0  0  0  0  0  0  0  0  0  0  0  0
    8.2119  -17.4797   17.3148 N   0  0  0  0  0  0  0  0  0  0  0  0
    8.5625  -17.9775   18.6211 C   0  0  0  0  0  0  0  0  0  0  0  0
    8.0793  -19.0931   18.9101 O   0  0  0  0  0  0  0  0  0  0  0  0
    9.4399  -17.1657   19.5039 C   0  0  0  0  0  0  0  0  0  0  0  0
    9.5217  -17.7424   20.9004 C   0  0  2  0  0  0  0  0  0  0  0  0
    8.5753  -17.1215   21.7607 N   0  0  0  0  0  0  0  0  0  0  0  0
   10.9309  -17.5596   21.3611 C   0  0  0  0  0  0  0  0  0  0  0  0
   11.9000  -18.0068   20.7295 O   0  0  0  0  0  0  0  0  0  0  0  0
   14.0840  -16.9283   26.1364 N   0  0  0  0  0  0  0  0  0  0  0  0
   14.1332  -17.3716   24.7907 C   0  0  0  0  0  0  0  0  0  0  0  0
   15.2512  -17.4671   24.2559 O   0  0  0  0  0  0  0  0  0  0  0  0
   12.8623  -17.6926   24.1046 C   0  0  0  0  0  0  0  0  0  0  0  0
   12.3208  -16.5948   23.2650 C   0  0  2  0  0  0  0  0  0  0  0  0
   11.1155  -16.8413   22.5688 N   0  0  0  0  0  0  0  0  0  0  0  0
   13.3776  -15.8990   22.4730 C   0  0  0  0  0  0  0  0  0  0  0  0
   14.4588  -15.5342   23.0682 O   0  0  0  0  0  0  0  0  0  0  0  0
   13.3312  -15.5880   21.1447 O   0  0  0  0  0  0  0  0  0  0  0  0
  2  1  1  6
  3  2  1  0
  4  3  1  0
  4  5  1  0
  6  5  1  0
  7  6  1  0
  8  9  2  0
  8  2  1  0
 10 11  1  0
 11 12  2  0
 11 13  1  0
 14 13  1  6
 14 15  1  0
 15  8  1  0
 16 23  1  0
 16 14  1  0
 17 16  2  0
 19 18  1  0
 20 19  2  0
 21 19  1  0
 22 21  1  6
 22 23  1  0
 24 26  1  0
 24 22  1  0
 25 24  2  0
M  END
$$$$
