KNN.pdb
     RDKit          3D

 26 25  0  0  1  0  0  0  0  0999 V2000
    9.4070  -17.2463   19.3173 N   0  0  0  0  0  0  0  0  0  0  0  0
    9.8124  -16.4593   20.4642 C   0  0  1  0  0  0  0  0  0  0  0  0
    8.8697  -15.3466   20.7901 C   0  0  0  0  0  0  0  0  0  0  0  0
    8.7252  -14.3149   19.7098 C   0  0  0  0  0  0  0  0  0  0  0  0
    7.7878  -13.1949   20.0452 C   0  0  0  0  0  0  0  0  0  0  0  0
    7.6527  -12.2199   18.8796 C   0  0  0  0  0  0  0  0  0  0  0  0
    7.1060  -12.9675   17.7616 N   0  0  0  0  0  0  0  0  0  0  0  0
   10.2775  -17.2526   21.6079 C   0  0  0  0  0  0  0  0  0  0  0  0
    9.7781  -18.3741   21.7919 O   0  0  0  0  0  0  0  0  0  0  0  0
   14.6332  -18.9469   25.3097 N   0  0  0  0  0  0  0  0  0  0  0  0
   13.7946  -18.7856   24.1488 C   0  0  0  0  0  0  0  0  0  0  0  0
   13.6705  -19.8064   23.4388 O   0  0  0  0  0  0  0  0  0  0  0  0
   13.1574  -17.4699   23.8816 C   0  0  0  0  0  0  0  0  0  0  0  0
   11.6710  -17.6044   23.6326 C   0  0  2  0  0  0  0  0  0  0  0  0
   11.2698  -16.8110   22.5233 N   0  0  0  0  0  0  0  0  0  0  0  0
   10.9840  -17.2166   24.9011 C   0  0  0  0  0  0  0  0  0  0  0  0
   11.0730  -16.0777   25.3839 O   0  0  0  0  0  0  0  0  0  0  0  0
    6.3969  -18.2966   24.9810 N   0  0  0  0  0  0  0  0  0  0  0  0
    7.3310  -17.6178   25.8034 C   0  0  0  0  0  0  0  0  0  0  0  0
    7.4614  -16.3928   25.6379 O   0  0  0  0  0  0  0  0  0  0  0  0
    8.0918  -18.3988   26.8035 C   0  0  0  0  0  0  0  0  0  0  0  0
    9.5566  -18.1592   26.7883 C   0  0  2  0  0  0  0  0  0  0  0  0
   10.2136  -18.2211   25.5382 N   0  0  0  0  0  0  0  0  0  0  0  0
   10.2650  -18.8439   27.9096 C   0  0  0  0  0  0  0  0  0  0  0  0
   11.2752  -19.5939   27.6385 O   0  0  0  0  0  0  0  0  0  0  0  0
    9.9558  -18.7706   29.2372 O   0  0  0  0  0  0  0  0  0  0  0  0
  2  1  1  6
  3  2  1  0
  4  3  1  0
  4  5  1  0
  6  5  1  0
  7  6  1  0
  8  9  2  0
  8  2  1  0
 10 11  1  0
 11 12  2  0
 11 13  1  0
 14 13  1  1
 14 15  1  0
 15  8  1  0
 16 23  1  0
 16 14  1  0
 17 16  2  0
 19 18  1  0
 20 19  2  0
 21 19  1  0
 22 21  1  6
 22 23  1  0
 24 26  1  0
 24 22  1  0
 25 24  2  0
M  END
$$$$
