KNN.pdb
     RDKit          3D

 26 25  0  0  1  0  0  0  0  0999 V2000
    7.2059  -13.7886    9.7490 N   0  0  0  0  0  0  0  0  0  0  0  0
    8.3580  -14.4844   10.2853 C   0  0  1  0  0  0  0  0  0  0  0  0
    9.6396  -13.7330   10.1240 C   0  0  0  0  0  0  0  0  0  0  0  0
    9.9507  -13.3258    8.7134 C   0  0  0  0  0  0  0  0  0  0  0  0
   11.2534  -12.6034    8.5508 C   0  0  0  0  0  0  0  0  0  0  0  0
   11.4812  -12.1948    7.0987 C   0  0  0  0  0  0  0  0  0  0  0  0
   12.7661  -11.5211    7.0435 N   0  0  0  0  0  0  0  0  0  0  0  0
    8.1388  -15.0896   11.6040 C   0  0  0  0  0  0  0  0  0  0  0  0
    8.0224  -14.3402   12.5868 O   0  0  0  0  0  0  0  0  0  0  0  0
    7.1606  -18.0120   15.6192 N   0  0  0  0  0  0  0  0  0  0  0  0
    6.3173  -18.4002   14.5169 C   0  0  0  0  0  0  0  0  0  0  0  0
    5.3175  -19.0817   14.8291 O   0  0  0  0  0  0  0  0  0  0  0  0
    6.6761  -17.9824   13.1367 C   0  0  0  0  0  0  0  0  0  0  0  0
    7.8534  -17.0321   13.1242 C   0  0  2  0  0  0  0  0  0  0  0  0
    8.0528  -16.4901   11.8250 N   0  0  0  0  0  0  0  0  0  0  0  0
    9.0345  -17.8015   13.6186 C   0  0  0  0  0  0  0  0  0  0  0  0
    9.4673  -18.8047   13.0317 O   0  0  0  0  0  0  0  0  0  0  0  0
   12.8974  -16.9391   14.0958 N   0  0  0  0  0  0  0  0  0  0  0  0
   12.7376  -16.4454   15.4151 C   0  0  0  0  0  0  0  0  0  0  0  0
   13.5392  -15.5804   15.8079 O   0  0  0  0  0  0  0  0  0  0  0  0
   11.6356  -16.9831   16.2431 C   0  0  0  0  0  0  0  0  0  0  0  0
   10.7190  -17.9047   15.5262 C   0  0  2  0  0  0  0  0  0  0  0  0
    9.6491  -17.3279   14.8046 N   0  0  0  0  0  0  0  0  0  0  0  0
   10.3610  -19.1070   16.3350 C   0  0  0  0  0  0  0  0  0  0  0  0
   11.3002  -19.7576   16.9275 O   0  0  0  0  0  0  0  0  0  0  0  0
    9.1107  -19.6209   16.5253 O   0  0  0  0  0  0  0  0  0  0  0  0
  2  1  1  1
  3  2  1  0
  4  3  1  0
  4  5  1  0
  6  5  1  0
  7  6  1  0
  8  9  2  0
  8  2  1  0
 10 11  1  0
 11 12  2  0
 11 13  1  0
 14 13  1  6
 14 15  1  0
 15  8  1  0
 16 23  1  0
 16 14  1  0
 17 16  2  0
 19 18  1  0
 20 19  2  0
 21 19  1  0
 22 21  1  1
 22 23  1  0
 24 26  1  0
 24 22  1  0
 25 24  2  0
M  END
$$$$
