KNN.pdb
     RDKit          3D

 26 25  0  0  1  0  0  0  0  0999 V2000
   11.8619  -17.4025   16.8384 N   0  0  0  0  0  0  0  0  0  0  0  0
   10.6214  -16.6679   16.9819 C   0  0  1  0  0  0  0  0  0  0  0  0
    9.4037  -17.4914   16.7132 C   0  0  0  0  0  0  0  0  0  0  0  0
    9.4015  -18.1862   15.3829 C   0  0  0  0  0  0  0  0  0  0  0  0
    9.0029  -17.3153   14.2305 C   0  0  0  0  0  0  0  0  0  0  0  0
    8.9594  -18.1082   12.9279 C   0  0  0  0  0  0  0  0  0  0  0  0
    8.6925  -17.1595   11.8618 N   0  0  0  0  0  0  0  0  0  0  0  0
   10.5593  -15.8130   18.1729 C   0  0  0  0  0  0  0  0  0  0  0  0
   11.5840  -15.2025   18.5169 O   0  0  0  0  0  0  0  0  0  0  0  0
    7.7061  -11.9007   18.9103 N   0  0  0  0  0  0  0  0  0  0  0  0
    7.6127  -13.3388   18.9231 C   0  0  0  0  0  0  0  0  0  0  0  0
    7.2181  -13.8536   17.8550 O   0  0  0  0  0  0  0  0  0  0  0  0
    7.9768  -14.0863   20.1548 C   0  0  0  0  0  0  0  0  0  0  0  0
    9.3456  -14.7214   20.0440 C   0  0  2  0  0  0  0  0  0  0  0  0
    9.3903  -15.6421   18.9616 N   0  0  0  0  0  0  0  0  0  0  0  0
    9.6319  -15.3628   21.3624 C   0  0  0  0  0  0  0  0  0  0  0  0
    9.6656  -14.7185   22.4216 O   0  0  0  0  0  0  0  0  0  0  0  0
   13.4363  -19.8033   22.7250 N   0  0  0  0  0  0  0  0  0  0  0  0
   12.0686  -19.4497   22.8437 C   0  0  0  0  0  0  0  0  0  0  0  0
   11.4466  -19.8765   23.8316 O   0  0  0  0  0  0  0  0  0  0  0  0
   11.4638  -18.6003   21.7941 C   0  0  0  0  0  0  0  0  0  0  0  0
   10.5592  -17.5398   22.3046 C   0  0  2  0  0  0  0  0  0  0  0  0
    9.8660  -16.7605   21.3505 N   0  0  0  0  0  0  0  0  0  0  0  0
   11.1531  -16.7712   23.4380 C   0  0  0  0  0  0  0  0  0  0  0  0
   10.5031  -16.7001   24.5466 O   0  0  0  0  0  0  0  0  0  0  0  0
   12.3453  -16.1064   23.4383 O   0  0  0  0  0  0  0  0  0  0  0  0
  2  1  1  1
  3  2  1  0
  4  3  1  0
  4  5  1  0
  6  5  1  0
  7  6  1  0
  8  9  2  0
  8  2  1  0
 10 11  1  0
 11 12  2  0
 11 13  1  0
 14 13  1  1
 14 15  1  0
 15  8  1  0
 16 23  1  0
 16 14  1  0
 17 16  2  0
 19 18  1  0
 20 19  2  0
 21 19  1  0
 22 21  1  6
 22 23  1  0
 24 26  1  0
 24 22  1  0
 25 24  2  0
M  END
$$$$
