KNN.pdb
     RDKit          3D

 26 25  0  0  1  0  0  0  0  0999 V2000
    9.0581  -19.1857   18.4098 N   0  0  0  0  0  0  0  0  0  0  0  0
    9.5446  -18.0073   17.7216 C   0  0  1  0  0  0  0  0  0  0  0  0
    9.2569  -18.0090   16.2551 C   0  0  0  0  0  0  0  0  0  0  0  0
   10.4758  -18.0467   15.3803 C   0  0  0  0  0  0  0  0  0  0  0  0
   10.5866  -19.2727   14.5260 C   0  0  0  0  0  0  0  0  0  0  0  0
   11.7999  -19.1960   13.6043 C   0  0  0  0  0  0  0  0  0  0  0  0
   11.7345  -20.3451   12.7193 N   0  0  0  0  0  0  0  0  0  0  0  0
    9.2752  -16.7450   18.4197 C   0  0  0  0  0  0  0  0  0  0  0  0
    8.6909  -15.8406   17.8021 O   0  0  0  0  0  0  0  0  0  0  0  0
    7.1297  -14.0667   22.0594 N   0  0  0  0  0  0  0  0  0  0  0  0
    6.5627  -15.2512   21.4658 C   0  0  0  0  0  0  0  0  0  0  0  0
    5.3449  -15.4237   21.6869 O   0  0  0  0  0  0  0  0  0  0  0  0
    7.4269  -16.1542   20.6620 C   0  0  0  0  0  0  0  0  0  0  0  0
    8.8602  -15.6713   20.6198 C   0  0  2  0  0  0  0  0  0  0  0  0
    9.6466  -16.4939   19.7676 N   0  0  0  0  0  0  0  0  0  0  0  0
    9.3534  -15.6592   22.0297 C   0  0  0  0  0  0  0  0  0  0  0  0
    8.5969  -15.4860   22.9971 O   0  0  0  0  0  0  0  0  0  0  0  0
   11.3957  -18.9875   25.2830 N   0  0  0  0  0  0  0  0  0  0  0  0
   11.5642  -19.1546   23.8853 C   0  0  0  0  0  0  0  0  0  0  0  0
   12.2848  -20.0910   23.4995 O   0  0  0  0  0  0  0  0  0  0  0  0
   10.8791  -18.2130   22.9726 C   0  0  0  0  0  0  0  0  0  0  0  0
   11.3891  -16.8201   23.0276 C   0  0  2  0  0  0  0  0  0  0  0  0
   10.7440  -15.8581   22.2173 N   0  0  0  0  0  0  0  0  0  0  0  0
   12.8801  -16.7510   23.0259 C   0  0  0  0  0  0  0  0  0  0  0  0
   13.5504  -17.8325   22.8316 O   0  0  0  0  0  0  0  0  0  0  0  0
   13.6466  -15.6378   23.2171 O   0  0  0  0  0  0  0  0  0  0  0  0
  2  1  1  1
  3  2  1  0
  4  3  1  0
  4  5  1  0
  6  5  1  0
  7  6  1  0
  8  9  2  0
  8  2  1  0
 10 11  1  0
 11 12  2  0
 11 13  1  0
 14 13  1  1
 14 15  1  0
 15  8  1  0
 16 23  1  0
 16 14  1  0
 17 16  2  0
 19 18  1  0
 20 19  2  0
 21 19  1  0
 22 21  1  6
 22 23  1  0
 24 26  1  0
 24 22  1  0
 25 24  2  0
M  END
$$$$
