KNN.pdb
     RDKit          3D

 26 25  0  0  1  0  0  0  0  0999 V2000
    7.7106  -17.0154   17.9460 N   0  0  0  0  0  0  0  0  0  0  0  0
    6.8479  -16.8520   19.0984 C   0  0  1  0  0  0  0  0  0  0  0  0
    5.9398  -18.0147   19.3361 C   0  0  0  0  0  0  0  0  0  0  0  0
    6.6396  -19.2822   19.7312 C   0  0  0  0  0  0  0  0  0  0  0  0
    5.7224  -20.4321   20.0172 C   0  0  0  0  0  0  0  0  0  0  0  0
    6.5048  -21.6689   20.4482 C   0  0  0  0  0  0  0  0  0  0  0  0
    5.5355  -22.7238   20.6844 N   0  0  0  0  0  0  0  0  0  0  0  0
    7.5226  -16.3200   20.2881 C   0  0  0  0  0  0  0  0  0  0  0  0
    8.7513  -16.4667   20.3865 O   0  0  0  0  0  0  0  0  0  0  0  0
    6.6953  -13.0100   25.5069 N   0  0  0  0  0  0  0  0  0  0  0  0
    7.4059  -13.5398   24.3706 C   0  0  0  0  0  0  0  0  0  0  0  0
    8.6431  -13.3651   24.3909 O   0  0  0  0  0  0  0  0  0  0  0  0
    6.6529  -14.2314   23.2922 C   0  0  0  0  0  0  0  0  0  0  0  0
    7.5484  -15.1294   22.4669 C   0  0  2  0  0  0  0  0  0  0  0  0
    6.8497  -15.6443   21.3409 N   0  0  0  0  0  0  0  0  0  0  0  0
    8.0448  -16.2017   23.3808 C   0  0  0  0  0  0  0  0  0  0  0  0
    7.3095  -17.1048   23.8070 O   0  0  0  0  0  0  0  0  0  0  0  0
   11.8168  -18.0149   27.0314 N   0  0  0  0  0  0  0  0  0  0  0  0
   10.4583  -18.2542   26.7045 C   0  0  0  0  0  0  0  0  0  0  0  0
    9.9596  -19.3334   27.0673 O   0  0  0  0  0  0  0  0  0  0  0  0
    9.7171  -17.2152   25.9561 C   0  0  0  0  0  0  0  0  0  0  0  0
   10.1463  -17.0477   24.5450 C   0  0  2  0  0  0  0  0  0  0  0  0
    9.4133  -16.1421   23.7446 N   0  0  0  0  0  0  0  0  0  0  0  0
   10.4830  -18.3443   23.8866 C   0  0  0  0  0  0  0  0  0  0  0  0
   11.2022  -19.1970   24.5285 O   0  0  0  0  0  0  0  0  0  0  0  0
   10.1093  -18.7473   22.6371 O   0  0  0  0  0  0  0  0  0  0  0  0
  2  1  1  6
  3  2  1  0
  4  3  1  0
  4  5  1  0
  6  5  1  0
  7  6  1  0
  8  9  2  0
  8  2  1  0
 10 11  1  0
 11 12  2  0
 11 13  1  0
 14 13  1  1
 14 15  1  0
 15  8  1  0
 16 23  1  0
 16 14  1  0
 17 16  2  0
 19 18  1  0
 20 19  2  0
 21 19  1  0
 22 21  1  1
 22 23  1  0
 24 26  1  0
 24 22  1  0
 25 24  2  0
M  END
$$$$
