QDI.pdb
     RDKit          3D

 26 25  0  0  1  0  0  0  0  0999 V2000
   29.3664  -20.2517  -16.2743 N   0  0  0  0  0  0  0  0  0  0  0  0
   29.5047  -19.0337  -17.0129 C   0  0  0  0  0  0  0  0  0  0  0  0
   30.1061  -19.0724  -18.1110 O   0  0  0  0  0  0  0  0  0  0  0  0
   28.9668  -17.7579  -16.5253 C   0  0  0  0  0  0  0  0  0  0  0  0
   28.1915  -17.8809  -15.2650 C   0  0  0  0  0  0  0  0  0  0  0  0
   27.2998  -19.0718  -15.1983 C   0  0  2  0  0  0  0  0  0  0  0  0
   26.2507  -18.8675  -16.1901 N   0  0  0  0  0  0  0  0  0  0  0  0
   26.6000  -19.0783  -13.8529 C   0  0  0  0  0  0  0  0  0  0  0  0
   26.7252  -18.1046  -13.0933 O   0  0  0  0  0  0  0  0  0  0  0  0
   25.8086  -20.1778  -13.4551 N   0  0  0  0  0  0  0  0  0  0  0  0
   24.9551  -20.3320  -12.3297 C   0  0  1  0  0  0  0  0  0  0  0  0
   23.6027  -20.9769  -12.6065 C   0  0  0  0  0  0  0  0  0  0  0  0
   22.7417  -20.8310  -11.4240 C   0  0  0  0  0  0  0  0  0  0  0  0
   22.5622  -21.7875  -10.6470 O   0  0  0  0  0  0  0  0  0  0  0  0
   25.5323  -20.9247  -11.1357 C   0  0  0  0  0  0  0  0  0  0  0  0
   26.0837  -22.0853  -11.2022 O   0  0  0  0  0  0  0  0  0  0  0  0
   22.1448  -19.5782  -11.2239 O   0  0  0  0  0  0  0  0  0  0  0  0
   28.4074  -19.7767   -5.8359 C   0  0  0  0  0  0  0  0  0  0  0  0
   27.5725  -20.6997   -6.6703 C   0  0  0  0  0  0  0  0  0  0  0  0
   26.9066  -20.0425   -7.8368 C   0  0  2  0  0  0  0  0  0  0  0  0
   26.0669  -18.8891   -7.3982 C   0  0  0  0  0  0  0  0  0  0  0  0
   26.0887  -20.9989   -8.6797 C   0  0  2  0  0  0  0  0  0  0  0  0
   25.5488  -20.3237   -9.8501 N   0  0  0  0  0  0  0  0  0  0  0  0
   24.9787  -21.4806   -7.8244 C   0  0  0  0  0  0  0  0  0  0  0  0
   25.1016  -22.4951   -6.8876 O   0  0  0  0  0  0  0  0  0  0  0  0
   23.8529  -20.9411   -7.9499 O   0  0  0  0  0  0  0  0  0  0  0  0
  2  1  1  0
  3  2  2  0
  4  2  1  0
  5  4  1  0
  6  5  1  0
  6  8  1  0
  6  7  1  6
  8  9  2  0
 10  8  1  0
 10 11  1  0
 11 15  1  0
 11 12  1  6
 13 12  1  0
 14 13  2  0
 15 16  2  0
 17 13  1  0
 19 18  1  0
 19 20  1  0
 20 22  1  0
 20 21  1  1
 22 24  1  0
 22 23  1  6
 23 15  1  0
 24 26  2  0
 24 25  1  0
M  END
$$$$
