QDI.pdb
     RDKit          3D

 26 25  0  0  1  0  0  0  0  0999 V2000
   17.9223  -17.4348  -12.4580 N   0  0  0  0  0  0  0  0  0  0  0  0
   17.0745  -18.2083  -13.3131 C   0  0  0  0  0  0  0  0  0  0  0  0
   16.0812  -17.6453  -13.8282 O   0  0  0  0  0  0  0  0  0  0  0  0
   17.3351  -19.6242  -13.5998 C   0  0  0  0  0  0  0  0  0  0  0  0
   18.5220  -20.1668  -12.8918 C   0  0  0  0  0  0  0  0  0  0  0  0
   19.8067  -19.4913  -13.2256 C   0  0  2  0  0  0  0  0  0  0  0  0
   19.9295  -19.5159  -14.6782 N   0  0  0  0  0  0  0  0  0  0  0  0
   20.9500  -20.3380  -12.7005 C   0  0  0  0  0  0  0  0  0  0  0  0
   20.9089  -20.7678  -11.5368 O   0  0  0  0  0  0  0  0  0  0  0  0
   22.0592  -20.6427  -13.5193 N   0  0  0  0  0  0  0  0  0  0  0  0
   23.2364  -21.3828  -13.2278 C   0  0  1  0  0  0  0  0  0  0  0  0
   23.8551  -22.1337  -14.4004 C   0  0  0  0  0  0  0  0  0  0  0  0
   22.8817  -23.1002  -14.9288 C   0  0  0  0  0  0  0  0  0  0  0  0
   22.2154  -23.8165  -14.1582 O   0  0  0  0  0  0  0  0  0  0  0  0
   24.2850  -20.6982  -12.4914 C   0  0  0  0  0  0  0  0  0  0  0  0
   24.4243  -19.4251  -12.6149 O   0  0  0  0  0  0  0  0  0  0  0  0
   22.7481  -23.1693  -16.3228 O   0  0  0  0  0  0  0  0  0  0  0  0
   26.9111  -19.7469   -7.2324 C   0  0  0  0  0  0  0  0  0  0  0  0
   27.1138  -19.7963   -8.7162 C   0  0  0  0  0  0  0  0  0  0  0  0
   26.1037  -20.6203   -9.4486 C   0  0  2  0  0  0  0  0  0  0  0  0
   26.1003  -22.0300   -8.9579 C   0  0  0  0  0  0  0  0  0  0  0  0
   26.2768  -20.5869  -10.9530 C   0  0  2  0  0  0  0  0  0  0  0  0
   25.2082  -21.3220  -11.6124 N   0  0  0  0  0  0  0  0  0  0  0  0
   27.5800  -21.2278  -11.2477 C   0  0  0  0  0  0  0  0  0  0  0  0
   28.8070  -20.5993  -11.1024 O   0  0  0  0  0  0  0  0  0  0  0  0
   27.5813  -22.4145  -11.6550 O   0  0  0  0  0  0  0  0  0  0  0  0
  2  1  1  0
  3  2  2  0
  4  2  1  0
  5  4  1  0
  6  5  1  0
  6  8  1  0
  6  7  1  6
  8  9  2  0
 10  8  1  0
 10 11  1  0
 11 15  1  0
 11 12  1  6
 13 12  1  0
 14 13  2  0
 15 16  2  0
 17 13  1  0
 19 18  1  0
 19 20  1  0
 20 22  1  0
 20 21  1  1
 22 24  1  0
 22 23  1  6
 23 15  1  0
 24 26  2  0
 24 25  1  0
M  END
$$$$
