QDI.pdb
     RDKit          3D

 26 25  0  0  1  0  0  0  0  0999 V2000
   22.0802  -16.6520  -22.3485 N   0  0  0  0  0  0  0  0  0  0  0  0
   20.8420  -17.0452  -21.7482 C   0  0  0  0  0  0  0  0  0  0  0  0
   20.1880  -16.1811  -21.1200 O   0  0  0  0  0  0  0  0  0  0  0  0
   20.3242  -18.4151  -21.8489 C   0  0  0  0  0  0  0  0  0  0  0  0
   20.5889  -19.2421  -20.6445 C   0  0  0  0  0  0  0  0  0  0  0  0
   22.0010  -19.6920  -20.4983 C   0  0  2  0  0  0  0  0  0  0  0  0
   22.0993  -20.9891  -21.1570 N   0  0  0  0  0  0  0  0  0  0  0  0
   22.2769  -19.9529  -19.0302 C   0  0  0  0  0  0  0  0  0  0  0  0
   21.8988  -21.0175  -18.5162 O   0  0  0  0  0  0  0  0  0  0  0  0
   22.9583  -18.9997  -18.2423 N   0  0  0  0  0  0  0  0  0  0  0  0
   23.2756  -19.0151  -16.8574 C   0  0  1  0  0  0  0  0  0  0  0  0
   24.3620  -18.0427  -16.4152 C   0  0  0  0  0  0  0  0  0  0  0  0
   25.6259  -18.3871  -17.0822 C   0  0  0  0  0  0  0  0  0  0  0  0
   25.9886  -19.5743  -17.1819 O   0  0  0  0  0  0  0  0  0  0  0  0
   22.1662  -18.9505  -15.9219 C   0  0  0  0  0  0  0  0  0  0  0  0
   21.4584  -17.8788  -15.8446 O   0  0  0  0  0  0  0  0  0  0  0  0
   26.3860  -17.3241  -17.5903 O   0  0  0  0  0  0  0  0  0  0  0  0
   18.2478  -22.3988  -15.7805 C   0  0  0  0  0  0  0  0  0  0  0  0
   19.1569  -21.2176  -15.6268 C   0  0  0  0  0  0  0  0  0  0  0  0
   19.7093  -21.0408  -14.2487 C   0  0  2  0  0  0  0  0  0  0  0  0
   18.6150  -20.9361  -13.2390 C   0  0  0  0  0  0  0  0  0  0  0  0
   20.6537  -19.8631  -14.1257 C   0  0  2  0  0  0  0  0  0  0  0  0
   21.7699  -19.9974  -15.0494 N   0  0  0  0  0  0  0  0  0  0  0  0
   21.1562  -19.8617  -12.7316 C   0  0  0  0  0  0  0  0  0  0  0  0
   20.5562  -19.1734  -11.6886 O   0  0  0  0  0  0  0  0  0  0  0  0
   22.1898  -20.5233  -12.4706 O   0  0  0  0  0  0  0  0  0  0  0  0
  2  1  1  0
  3  2  2  0
  4  2  1  0
  5  4  1  0
  6  5  1  0
  6  8  1  0
  6  7  1  6
  8  9  2  0
 10  8  1  0
 10 11  1  0
 11 15  1  0
 11 12  1  6
 13 12  1  0
 14 13  2  0
 15 16  2  0
 17 13  1  0
 19 18  1  0
 19 20  1  0
 20 22  1  0
 20 21  1  1
 22 24  1  0
 22 23  1  6
 23 15  1  0
 24 26  2  0
 24 25  1  0
M  END
$$$$
