QDI.pdb
     RDKit          3D

 26 25  0  0  1  0  0  0  0  0999 V2000
   18.4042  -13.9033  -17.0248 N   0  0  0  0  0  0  0  0  0  0  0  0
   17.3910  -14.2324  -16.0692 C   0  0  0  0  0  0  0  0  0  0  0  0
   17.3070  -15.4204  -15.6810 O   0  0  0  0  0  0  0  0  0  0  0  0
   16.4611  -13.2285  -15.5379 C   0  0  0  0  0  0  0  0  0  0  0  0
   16.6892  -11.8626  -16.0735 C   0  0  0  0  0  0  0  0  0  0  0  0
   15.8247  -10.8083  -15.4742 C   0  0  2  0  0  0  0  0  0  0  0  0
   14.5476  -10.8631  -16.1755 N   0  0  0  0  0  0  0  0  0  0  0  0
   16.4175   -9.4515  -15.8021 C   0  0  0  0  0  0  0  0  0  0  0  0
   16.4696   -9.0759  -16.9840 O   0  0  0  0  0  0  0  0  0  0  0  0
   16.9102   -8.6117  -14.7795 N   0  0  0  0  0  0  0  0  0  0  0  0
   17.4795   -7.3123  -14.8569 C   0  0  1  0  0  0  0  0  0  0  0  0
   16.4913   -6.1528  -14.8335 C   0  0  0  0  0  0  0  0  0  0  0  0
   17.2225   -4.8857  -14.9773 C   0  0  0  0  0  0  0  0  0  0  0  0
   17.2779   -4.0738  -14.0346 O   0  0  0  0  0  0  0  0  0  0  0  0
   18.5839   -7.0175  -13.9605 C   0  0  0  0  0  0  0  0  0  0  0  0
   18.4707   -7.2703  -12.7040 O   0  0  0  0  0  0  0  0  0  0  0  0
   17.8423   -4.6468  -16.2121 O   0  0  0  0  0  0  0  0  0  0  0  0
   23.7031   -9.4144  -13.5298 C   0  0  0  0  0  0  0  0  0  0  0  0
   23.0271   -8.1187  -13.1989 C   0  0  0  0  0  0  0  0  0  0  0  0
   21.8459   -7.8030  -14.0595 C   0  0  2  0  0  0  0  0  0  0  0  0
   22.2546   -7.5944  -15.4799 C   0  0  0  0  0  0  0  0  0  0  0  0
   21.0399   -6.6200  -13.5644 C   0  0  2  0  0  0  0  0  0  0  0  0
   19.8271   -6.4556  -14.3514 N   0  0  0  0  0  0  0  0  0  0  0  0
   21.9002   -5.4230  -13.7160 C   0  0  0  0  0  0  0  0  0  0  0  0
   21.7168   -4.4506  -14.6869 O   0  0  0  0  0  0  0  0  0  0  0  0
   22.8573   -5.2728  -12.9189 O   0  0  0  0  0  0  0  0  0  0  0  0
  2  1  1  0
  3  2  2  0
  4  2  1  0
  5  4  1  0
  6  5  1  0
  6  8  1  0
  6  7  1  6
  8  9  2  0
 10  8  1  0
 10 11  1  0
 11 15  1  0
 11 12  1  1
 13 12  1  0
 14 13  2  0
 15 16  2  0
 17 13  1  0
 19 18  1  0
 19 20  1  0
 20 22  1  0
 20 21  1  6
 22 24  1  0
 22 23  1  6
 23 15  1  0
 24 26  2  0
 24 25  1  0
M  END
$$$$
