QDI.pdb
     RDKit          3D

 26 25  0  0  1  0  0  0  0  0999 V2000
   19.4858  -10.9443  -20.6154 N   0  0  0  0  0  0  0  0  0  0  0  0
   18.7830  -12.1636  -20.8753 C   0  0  0  0  0  0  0  0  0  0  0  0
   18.9084  -12.6899  -22.0050 O   0  0  0  0  0  0  0  0  0  0  0  0
   17.9319  -12.8060  -19.8665 C   0  0  0  0  0  0  0  0  0  0  0  0
   17.8332  -12.0429  -18.5967 C   0  0  0  0  0  0  0  0  0  0  0  0
   19.0058  -12.1911  -17.6905 C   0  0  2  0  0  0  0  0  0  0  0  0
   18.8152  -13.4365  -16.9567 N   0  0  0  0  0  0  0  0  0  0  0  0
   18.9571  -11.0881  -16.6509 C   0  0  0  0  0  0  0  0  0  0  0  0
   18.1894  -11.1944  -15.6814 O   0  0  0  0  0  0  0  0  0  0  0  0
   19.7741   -9.9431  -16.7731 N   0  0  0  0  0  0  0  0  0  0  0  0
   19.8768   -8.7983  -15.9378 C   0  0  1  0  0  0  0  0  0  0  0  0
   21.2862   -8.4234  -15.4969 C   0  0  0  0  0  0  0  0  0  0  0  0
   21.2176   -7.3116  -14.5376 C   0  0  0  0  0  0  0  0  0  0  0  0
   20.5799   -7.4285  -13.4743 O   0  0  0  0  0  0  0  0  0  0  0  0
   19.1747   -7.6004  -16.3649 C   0  0  0  0  0  0  0  0  0  0  0  0
   19.4028   -7.1092  -17.5320 O   0  0  0  0  0  0  0  0  0  0  0  0
   21.8975   -6.1343  -14.8804 O   0  0  0  0  0  0  0  0  0  0  0  0
   13.9556   -7.1143  -16.4175 C   0  0  0  0  0  0  0  0  0  0  0  0
   15.3876   -6.8310  -16.7559 C   0  0  0  0  0  0  0  0  0  0  0  0
   16.0417   -5.8205  -15.8688 C   0  0  2  0  0  0  0  0  0  0  0  0
   15.3942   -4.4828  -16.0072 C   0  0  0  0  0  0  0  0  0  0  0  0
   17.5364   -5.7070  -16.0863 C   0  0  2  0  0  0  0  0  0  0  0  0
   18.2220   -6.8902  -15.5890 N   0  0  0  0  0  0  0  0  0  0  0  0
   17.9886   -4.5138  -15.3330 C   0  0  0  0  0  0  0  0  0  0  0  0
   18.0904   -3.2426  -15.8766 O   0  0  0  0  0  0  0  0  0  0  0  0
   18.3010   -4.6547  -14.1261 O   0  0  0  0  0  0  0  0  0  0  0  0
  2  1  1  0
  3  2  2  0
  4  2  1  0
  5  4  1  0
  6  5  1  0
  6  8  1  0
  6  7  1  1
  8  9  2  0
 10  8  1  0
 10 11  1  0
 11 15  1  0
 11 12  1  6
 13 12  1  0
 14 13  2  0
 15 16  2  0
 17 13  1  0
 19 18  1  0
 19 20  1  0
 20 22  1  0
 20 21  1  6
 22 24  1  0
 22 23  1  1
 23 15  1  0
 24 26  2  0
 24 25  1  0
M  END
$$$$
