QDI.pdb
     RDKit          3D

 26 25  0  0  1  0  0  0  0  0999 V2000
   16.8189  -11.3034  -12.0039 N   0  0  0  0  0  0  0  0  0  0  0  0
   15.9015  -12.3997  -11.9343 C   0  0  0  0  0  0  0  0  0  0  0  0
   16.3324  -13.5488  -12.1850 O   0  0  0  0  0  0  0  0  0  0  0  0
   14.4888  -12.2161  -11.5803 C   0  0  0  0  0  0  0  0  0  0  0  0
   14.1240  -10.8051  -11.2967 C   0  0  0  0  0  0  0  0  0  0  0  0
   14.0009  -10.4744   -9.8498 C   0  0  2  0  0  0  0  0  0  0  0  0
   12.7302  -11.0289   -9.3985 N   0  0  0  0  0  0  0  0  0  0  0  0
   13.8692   -8.9705   -9.7060 C   0  0  0  0  0  0  0  0  0  0  0  0
   12.7565   -8.4378   -9.8431 O   0  0  0  0  0  0  0  0  0  0  0  0
   14.9964   -8.1704   -9.4184 N   0  0  0  0  0  0  0  0  0  0  0  0
   15.1152   -6.7581   -9.3187 C   0  0  1  0  0  0  0  0  0  0  0  0
   15.8821   -6.2409   -8.1080 C   0  0  0  0  0  0  0  0  0  0  0  0
   15.8325   -4.7718   -8.0903 C   0  0  0  0  0  0  0  0  0  0  0  0
   16.7991   -4.0986   -8.4945 O   0  0  0  0  0  0  0  0  0  0  0  0
   15.5557   -6.0441  -10.5046 C   0  0  0  0  0  0  0  0  0  0  0  0
   16.7527   -6.2151  -10.9444 O   0  0  0  0  0  0  0  0  0  0  0  0
   14.6580   -4.1820   -7.6018 O   0  0  0  0  0  0  0  0  0  0  0  0
   11.9910   -4.8288  -14.5283 C   0  0  0  0  0  0  0  0  0  0  0  0
   13.2155   -5.2299  -13.7635 C   0  0  0  0  0  0  0  0  0  0  0  0
   14.0907   -4.0870  -13.3588 C   0  0  2  0  0  0  0  0  0  0  0  0
   14.5930   -3.3443  -14.5522 C   0  0  0  0  0  0  0  0  0  0  0  0
   15.2462   -4.4994  -12.4705 C   0  0  2  0  0  0  0  0  0  0  0  0
   14.7618   -5.1398  -11.2570 N   0  0  0  0  0  0  0  0  0  0  0  0
   15.9812   -3.2606  -12.1226 C   0  0  0  0  0  0  0  0  0  0  0  0
   15.7852   -2.5414  -10.9539 O   0  0  0  0  0  0  0  0  0  0  0  0
   16.8371   -2.8289  -12.9321 O   0  0  0  0  0  0  0  0  0  0  0  0
  2  1  1  0
  3  2  2  0
  4  2  1  0
  5  4  1  0
  6  5  1  0
  6  8  1  0
  6  7  1  6
  8  9  2  0
 10  8  1  0
 10 11  1  0
 11 15  1  0
 11 12  1  1
 13 12  1  0
 14 13  2  0
 15 16  2  0
 17 13  1  0
 19 18  1  0
 19 20  1  0
 20 22  1  0
 20 21  1  6
 22 24  1  0
 22 23  1  1
 23 15  1  0
 24 26  2  0
 24 25  1  0
M  END
$$$$
