QDI.pdb
     RDKit          3D

 26 25  0  0  1  0  0  0  0  0999 V2000
   15.2979   -7.6098   -8.3070 N   0  0  0  0  0  0  0  0  0  0  0  0
   13.9347   -7.8212   -8.6880 C   0  0  0  0  0  0  0  0  0  0  0  0
   13.0650   -7.8439   -7.7869 O   0  0  0  0  0  0  0  0  0  0  0  0
   13.5337   -8.0081  -10.0876 C   0  0  0  0  0  0  0  0  0  0  0  0
   14.6739   -8.0124  -11.0386 C   0  0  0  0  0  0  0  0  0  0  0  0
   14.2933   -8.2204  -12.4634 C   0  0  2  0  0  0  0  0  0  0  0  0
   14.1378   -9.6579  -12.6514 N   0  0  0  0  0  0  0  0  0  0  0  0
   15.4611   -7.8135  -13.3412 C   0  0  0  0  0  0  0  0  0  0  0  0
   16.1363   -8.6886  -13.9058 O   0  0  0  0  0  0  0  0  0  0  0  0
   15.7887   -6.4522  -13.5232 N   0  0  0  0  0  0  0  0  0  0  0  0
   16.8202   -5.8541  -14.2958 C   0  0  1  0  0  0  0  0  0  0  0  0
   16.4400   -4.5767  -15.0341 C   0  0  0  0  0  0  0  0  0  0  0  0
   17.5431   -4.1791  -15.9207 C   0  0  0  0  0  0  0  0  0  0  0  0
   17.9903   -4.9702  -16.7723 O   0  0  0  0  0  0  0  0  0  0  0  0
   18.1089   -5.6687  -13.6515 C   0  0  0  0  0  0  0  0  0  0  0  0
   18.1701   -5.0989  -12.4995 O   0  0  0  0  0  0  0  0  0  0  0  0
   18.0541   -2.8837  -15.7569 O   0  0  0  0  0  0  0  0  0  0  0  0
   21.6330   -9.6911  -14.0996 C   0  0  0  0  0  0  0  0  0  0  0  0
   20.7891   -8.5234  -13.6877 C   0  0  0  0  0  0  0  0  0  0  0  0
   21.4845   -7.2022  -13.7682 C   0  0  2  0  0  0  0  0  0  0  0  0
   22.7141   -7.1882  -12.9220 C   0  0  0  0  0  0  0  0  0  0  0  0
   20.5913   -6.0300  -13.4186 C   0  0  2  0  0  0  0  0  0  0  0  0
   19.3584   -6.0719  -14.1904 N   0  0  0  0  0  0  0  0  0  0  0  0
   21.3485   -4.8009  -13.7527 C   0  0  0  0  0  0  0  0  0  0  0  0
   22.2800   -4.2084  -12.9143 O   0  0  0  0  0  0  0  0  0  0  0  0
   21.1390   -4.2558  -14.8632 O   0  0  0  0  0  0  0  0  0  0  0  0
  2  1  1  0
  3  2  2  0
  4  2  1  0
  5  4  1  0
  6  5  1  0
  6  8  1  0
  6  7  1  1
  8  9  2  0
 10  8  1  0
 10 11  1  0
 11 15  1  0
 11 12  1  1
 13 12  1  0
 14 13  2  0
 15 16  2  0
 17 13  1  0
 19 18  1  0
 19 20  1  0
 20 22  1  0
 20 21  1  1
 22 24  1  0
 22 23  1  6
 23 15  1  0
 24 26  2  0
 24 25  1  0
M  END
$$$$
