QDI.pdb
     RDKit          3D

 26 25  0  0  1  0  0  0  0  0999 V2000
   48.2320  -12.1022   -4.9272 N   0  0  0  0  0  0  0  0  0  0  0  0
   48.3750  -12.4402   -6.3105 C   0  0  0  0  0  0  0  0  0  0  0  0
   49.5302  -12.6230   -6.7589 O   0  0  0  0  0  0  0  0  0  0  0  0
   47.2196  -12.5779   -7.2055 C   0  0  0  0  0  0  0  0  0  0  0  0
   45.9158  -12.3404   -6.5362 C   0  0  0  0  0  0  0  0  0  0  0  0
   44.7267  -12.4993   -7.4187 C   0  0  2  0  0  0  0  0  0  0  0  0
   45.2051  -12.3918   -8.7919 N   0  0  0  0  0  0  0  0  0  0  0  0
   43.8055  -11.3131   -7.2087 C   0  0  0  0  0  0  0  0  0  0  0  0
   43.2751  -11.1390   -6.1001 O   0  0  0  0  0  0  0  0  0  0  0  0
   43.5447  -10.4056   -8.2585 N   0  0  0  0  0  0  0  0  0  0  0  0
   42.6877   -9.2731   -8.2979 C   0  0  1  0  0  0  0  0  0  0  0  0
   43.3814   -7.9190   -8.3799 C   0  0  0  0  0  0  0  0  0  0  0  0
   42.3777   -6.8498   -8.2793 C   0  0  0  0  0  0  0  0  0  0  0  0
   42.0240   -6.2134   -9.2897 O   0  0  0  0  0  0  0  0  0  0  0  0
   41.5886   -9.3057   -9.2472 C   0  0  0  0  0  0  0  0  0  0  0  0
   41.8194   -9.5886  -10.4810 O   0  0  0  0  0  0  0  0  0  0  0  0
   41.8506   -6.5913   -7.0060 O   0  0  0  0  0  0  0  0  0  0  0  0
   37.6157  -12.5141   -8.6451 C   0  0  0  0  0  0  0  0  0  0  0  0
   38.6287  -11.5517   -9.1864 C   0  0  0  0  0  0  0  0  0  0  0  0
   38.1080  -10.1670   -9.4036 C   0  0  2  0  0  0  0  0  0  0  0  0
   36.9275  -10.1725  -10.3171 C   0  0  0  0  0  0  0  0  0  0  0  0
   39.1600   -9.2012   -9.9085 C   0  0  2  0  0  0  0  0  0  0  0  0
   40.2290   -9.0460   -8.9338 N   0  0  0  0  0  0  0  0  0  0  0  0
   38.4812   -7.9006  -10.1172 C   0  0  0  0  0  0  0  0  0  0  0  0
   37.7629   -7.5714  -11.2562 O   0  0  0  0  0  0  0  0  0  0  0  0
   38.5568   -7.0372   -9.2100 O   0  0  0  0  0  0  0  0  0  0  0  0
  2  1  1  0
  3  2  2  0
  4  2  1  0
  5  4  1  0
  6  5  1  0
  6  8  1  0
  6  7  1  6
  8  9  2  0
 10  8  1  0
 10 11  1  0
 11 15  1  0
 11 12  1  6
 13 12  1  0
 14 13  2  0
 15 16  2  0
 17 13  1  0
 19 18  1  0
 19 20  1  0
 20 22  1  0
 20 21  1  6
 22 24  1  0
 22 23  1  1
 23 15  1  0
 24 26  2  0
 24 25  1  0
M  END
$$$$
