QDI.pdb
     RDKit          3D

 26 25  0  0  1  0  0  0  0  0999 V2000
   25.9345  -23.6335  -14.3027 N   0  0  0  0  0  0  0  0  0  0  0  0
   26.1164  -23.9079  -15.6955 C   0  0  0  0  0  0  0  0  0  0  0  0
   27.2076  -24.4002  -16.0642 O   0  0  0  0  0  0  0  0  0  0  0  0
   25.0722  -23.6329  -16.6898 C   0  0  0  0  0  0  0  0  0  0  0  0
   23.7451  -24.1939  -16.3309 C   0  0  0  0  0  0  0  0  0  0  0  0
   23.7634  -25.6311  -15.9410 C   0  0  2  0  0  0  0  0  0  0  0  0
   23.9772  -26.3957  -17.1640 N   0  0  0  0  0  0  0  0  0  0  0  0
   22.3819  -26.0173  -15.4492 C   0  0  0  0  0  0  0  0  0  0  0  0
   21.4244  -25.2542  -15.6528 O   0  0  0  0  0  0  0  0  0  0  0  0
   22.1727  -27.2336  -14.7632 N   0  0  0  0  0  0  0  0  0  0  0  0
   20.9786  -27.7920  -14.2332 C   0  0  1  0  0  0  0  0  0  0  0  0
   20.7827  -29.2844  -14.4695 C   0  0  0  0  0  0  0  0  0  0  0  0
   19.4477  -29.6816  -13.9993 C   0  0  0  0  0  0  0  0  0  0  0  0
   18.5314  -28.8433  -13.9068 O   0  0  0  0  0  0  0  0  0  0  0  0
   20.6568  -27.4802  -12.8514 C   0  0  0  0  0  0  0  0  0  0  0  0
   21.3998  -27.9358  -11.9049 O   0  0  0  0  0  0  0  0  0  0  0  0
   19.2673  -31.0317  -13.6667 O   0  0  0  0  0  0  0  0  0  0  0  0
   17.9439  -22.8470  -11.0690 C   0  0  0  0  0  0  0  0  0  0  0  0
   18.4990  -24.1004  -11.6741 C   0  0  0  0  0  0  0  0  0  0  0  0
   18.2273  -25.3392  -10.8821 C   0  0  2  0  0  0  0  0  0  0  0  0
   18.0005  -25.0191   -9.4420 C   0  0  0  0  0  0  0  0  0  0  0  0
   19.3066  -26.3925  -11.0237 C   0  0  2  0  0  0  0  0  0  0  0  0
   19.5581  -26.6891  -12.4259 N   0  0  0  0  0  0  0  0  0  0  0  0
   18.8103  -27.6082  -10.3370 C   0  0  0  0  0  0  0  0  0  0  0  0
   19.2849  -28.0607   -9.1156 O   0  0  0  0  0  0  0  0  0  0  0  0
   17.9031  -28.2757  -10.8896 O   0  0  0  0  0  0  0  0  0  0  0  0
  2  1  1  0
  3  2  2  0
  4  2  1  0
  5  4  1  0
  6  5  1  0
  6  8  1  0
  6  7  1  6
  8  9  2  0
 10  8  1  0
 10 11  1  0
 11 15  1  0
 11 12  1  1
 13 12  1  0
 14 13  2  0
 15 16  2  0
 17 13  1  0
 19 18  1  0
 19 20  1  0
 20 22  1  0
 20 21  1  1
 22 24  1  0
 22 23  1  6
 23 15  1  0
 24 26  2  0
 24 25  1  0
M  END
$$$$
