QDI.pdb
     RDKit          3D

 26 25  0  0  1  0  0  0  0  0999 V2000
   16.1527  -14.1443  -17.0158 N   0  0  0  0  0  0  0  0  0  0  0  0
   16.7897  -15.0881  -17.8828 C   0  0  0  0  0  0  0  0  0  0  0  0
   16.4224  -16.2843  -17.8276 O   0  0  0  0  0  0  0  0  0  0  0  0
   17.8466  -14.6967  -18.8233 C   0  0  0  0  0  0  0  0  0  0  0  0
   18.1196  -13.2374  -18.8393 C   0  0  0  0  0  0  0  0  0  0  0  0
   19.1036  -12.8010  -19.8685 C   0  0  2  0  0  0  0  0  0  0  0  0
   20.0576  -13.8921  -20.0273 N   0  0  0  0  0  0  0  0  0  0  0  0
   19.8991  -11.6348  -19.3145 C   0  0  0  0  0  0  0  0  0  0  0  0
   21.0436  -11.8285  -18.8751 O   0  0  0  0  0  0  0  0  0  0  0  0
   19.3533  -10.3328  -19.2930 N   0  0  0  0  0  0  0  0  0  0  0  0
   19.9391   -9.1010  -18.8952 C   0  0  1  0  0  0  0  0  0  0  0  0
   19.4764   -7.8684  -19.6621 C   0  0  0  0  0  0  0  0  0  0  0  0
   20.2705   -6.7053  -19.2408 C   0  0  0  0  0  0  0  0  0  0  0  0
   21.4866   -6.6386  -19.5006 O   0  0  0  0  0  0  0  0  0  0  0  0
   19.9542   -8.8022  -17.4737 C   0  0  0  0  0  0  0  0  0  0  0  0
   18.8787   -8.9408  -16.7812 O   0  0  0  0  0  0  0  0  0  0  0  0
   19.5948   -5.6942  -18.5429 O   0  0  0  0  0  0  0  0  0  0  0  0
   23.7736  -10.7704  -14.4913 C   0  0  0  0  0  0  0  0  0  0  0  0
   22.5269  -10.1705  -15.0668 C   0  0  0  0  0  0  0  0  0  0  0  0
   22.2708   -8.7593  -14.6442 C   0  0  2  0  0  0  0  0  0  0  0  0
   22.1650   -8.6523  -13.1591 C   0  0  0  0  0  0  0  0  0  0  0  0
   21.0537   -8.1452  -15.3043 C   0  0  2  0  0  0  0  0  0  0  0  0
   21.0861   -8.3546  -16.7439 N   0  0  0  0  0  0  0  0  0  0  0  0
   21.0941   -6.6935  -15.0095 C   0  0  0  0  0  0  0  0  0  0  0  0
   20.4783   -6.1038  -13.9164 O   0  0  0  0  0  0  0  0  0  0  0  0
   21.7238   -5.9439  -15.7941 O   0  0  0  0  0  0  0  0  0  0  0  0
  2  1  1  0
  3  2  2  0
  4  2  1  0
  5  4  1  0
  6  5  1  0
  6  8  1  0
  6  7  1  1
  8  9  2  0
 10  8  1  0
 10 11  1  0
 11 15  1  0
 11 12  1  6
 13 12  1  0
 14 13  2  0
 15 16  2  0
 17 13  1  0
 19 18  1  0
 19 20  1  0
 20 22  1  0
 20 21  1  1
 22 24  1  0
 22 23  1  6
 23 15  1  0
 24 26  2  0
 24 25  1  0
M  END
$$$$
