QDI.pdb
     RDKit          3D

 26 25  0  0  1  0  0  0  0  0999 V2000
   18.1297  -15.7405  -16.3128 N   0  0  0  0  0  0  0  0  0  0  0  0
   18.9617  -16.8332  -16.7152 C   0  0  0  0  0  0  0  0  0  0  0  0
   18.4334  -17.9608  -16.8508 O   0  0  0  0  0  0  0  0  0  0  0  0
   20.3979  -16.6699  -16.9711 C   0  0  0  0  0  0  0  0  0  0  0  0
   20.8432  -15.2536  -16.9855 C   0  0  0  0  0  0  0  0  0  0  0  0
   20.3720  -14.4664  -18.1587 C   0  0  2  0  0  0  0  0  0  0  0  0
   21.1804  -14.8848  -19.2977 N   0  0  0  0  0  0  0  0  0  0  0  0
   20.7082  -13.0056  -17.9286 C   0  0  0  0  0  0  0  0  0  0  0  0
   21.8597  -12.6001  -18.1526 O   0  0  0  0  0  0  0  0  0  0  0  0
   19.7274  -12.1028  -17.4632 N   0  0  0  0  0  0  0  0  0  0  0  0
   19.8250  -10.7159  -17.1707 C   0  0  1  0  0  0  0  0  0  0  0  0
   18.5095  -10.0065  -16.8747 C   0  0  0  0  0  0  0  0  0  0  0  0
   17.5547  -10.2770  -17.9592 C   0  0  0  0  0  0  0  0  0  0  0  0
   17.7427   -9.8162  -19.1008 O   0  0  0  0  0  0  0  0  0  0  0  0
   20.8170  -10.3133  -16.1888 C   0  0  0  0  0  0  0  0  0  0  0  0
   20.6615  -10.6397  -14.9540 O   0  0  0  0  0  0  0  0  0  0  0  0
   16.4412  -11.0680  -17.6423 O   0  0  0  0  0  0  0  0  0  0  0  0
   26.6291  -10.4994  -14.9927 C   0  0  0  0  0  0  0  0  0  0  0  0
   25.3701   -9.7192  -14.7655 C   0  0  0  0  0  0  0  0  0  0  0  0
   24.2987   -9.9707  -15.7778 C   0  0  2  0  0  0  0  0  0  0  0  0
   24.7575   -9.6047  -17.1502 C   0  0  0  0  0  0  0  0  0  0  0  0
   22.9922   -9.2748  -15.4564 C   0  0  2  0  0  0  0  0  0  0  0  0
   21.9895   -9.5648  -16.4701 N   0  0  0  0  0  0  0  0  0  0  0  0
   23.2762   -7.8206  -15.4360 C   0  0  0  0  0  0  0  0  0  0  0  0
   22.9430   -6.9480  -16.4604 O   0  0  0  0  0  0  0  0  0  0  0  0
   23.8546   -7.3408  -14.4313 O   0  0  0  0  0  0  0  0  0  0  0  0
  2  1  1  0
  3  2  2  0
  4  2  1  0
  5  4  1  0
  6  5  1  0
  6  8  1  0
  6  7  1  6
  8  9  2  0
 10  8  1  0
 10 11  1  0
 11 15  1  0
 11 12  1  1
 13 12  1  0
 14 13  2  0
 15 16  2  0
 17 13  1  0
 19 18  1  0
 19 20  1  0
 20 22  1  0
 20 21  1  6
 22 24  1  0
 22 23  1  6
 23 15  1  0
 24 26  2  0
 24 25  1  0
M  END
$$$$
