QDI.pdb
     RDKit          3D

 26 25  0  0  1  0  0  0  0  0999 V2000
   29.1449  -21.8038  -11.4294 N   0  0  0  0  0  0  0  0  0  0  0  0
   29.7477  -20.7121  -12.1316 C   0  0  0  0  0  0  0  0  0  0  0  0
   30.7643  -20.1766  -11.6328 O   0  0  0  0  0  0  0  0  0  0  0  0
   29.2147  -20.2110  -13.4042 C   0  0  0  0  0  0  0  0  0  0  0  0
   28.0451  -20.9774  -13.9034 C   0  0  0  0  0  0  0  0  0  0  0  0
   26.7833  -20.1921  -13.9994 C   0  0  2  0  0  0  0  0  0  0  0  0
   27.1089  -18.9578  -14.7040 N   0  0  0  0  0  0  0  0  0  0  0  0
   26.3664  -19.7724  -12.6031 C   0  0  0  0  0  0  0  0  0  0  0  0
   26.6092  -18.6195  -12.2125 O   0  0  0  0  0  0  0  0  0  0  0  0
   25.7059  -20.6769  -11.7434 N   0  0  0  0  0  0  0  0  0  0  0  0
   25.1735  -20.4794  -10.4410 C   0  0  1  0  0  0  0  0  0  0  0  0
   23.7375  -20.9449  -10.2339 C   0  0  0  0  0  0  0  0  0  0  0  0
   22.8523  -20.2218  -11.1583 C   0  0  0  0  0  0  0  0  0  0  0  0
   23.0027  -19.0018  -11.3581 O   0  0  0  0  0  0  0  0  0  0  0  0
   25.9851  -20.9184   -9.3190 C   0  0  0  0  0  0  0  0  0  0  0  0
   26.3605  -22.1469   -9.2452 O   0  0  0  0  0  0  0  0  0  0  0  0
   21.8479  -20.9685  -11.7904 O   0  0  0  0  0  0  0  0  0  0  0  0
   29.5400  -18.9085   -4.5803 C   0  0  0  0  0  0  0  0  0  0  0  0
   28.7892  -19.9900   -5.2957 C   0  0  0  0  0  0  0  0  0  0  0  0
   27.9497  -19.5069   -6.4348 C   0  0  2  0  0  0  0  0  0  0  0  0
   27.0328  -18.4116   -6.0017 C   0  0  0  0  0  0  0  0  0  0  0  0
   27.1669  -20.6106   -7.1156 C   0  0  2  0  0  0  0  0  0  0  0  0
   26.4231  -20.0904   -8.2528 N   0  0  0  0  0  0  0  0  0  0  0  0
   26.2251  -21.1512   -6.1074 C   0  0  0  0  0  0  0  0  0  0  0  0
   26.5760  -22.0640   -5.1249 O   0  0  0  0  0  0  0  0  0  0  0  0
   25.0324  -20.7629   -6.1382 O   0  0  0  0  0  0  0  0  0  0  0  0
  2  1  1  0
  3  2  2  0
  4  2  1  0
  5  4  1  0
  6  5  1  0
  6  8  1  0
  6  7  1  6
  8  9  2  0
 10  8  1  0
 10 11  1  0
 11 15  1  0
 11 12  1  6
 13 12  1  0
 14 13  2  0
 15 16  2  0
 17 13  1  0
 19 18  1  0
 19 20  1  0
 20 22  1  0
 20 21  1  1
 22 24  1  0
 22 23  1  6
 23 15  1  0
 24 26  2  0
 24 25  1  0
M  END
$$$$
