NMH.pdb
     RDKit          3D

 27 27  0  0  1  0  0  0  0  0999 V2000
    9.6872  -18.6306   18.0913 N   0  0  0  0  0  0  0  0  0  0  0  0
    8.6505  -17.8700   18.6875 C   0  0  0  0  0  0  0  0  0  0  0  0
    7.4474  -18.1593   18.4511 O   0  0  0  0  0  0  0  0  0  0  0  0
    8.9155  -16.7253   19.5956 C   0  0  0  0  0  0  0  0  0  0  0  0
    8.9754  -17.1554   21.0235 C   0  0  2  0  0  0  0  0  0  0  0  0
    7.8298  -17.9494   21.3604 N   0  0  0  0  0  0  0  0  0  0  0  0
    9.2008  -16.0377   21.9610 C   0  0  0  0  0  0  0  0  0  0  0  0
   10.2386  -15.2994   21.8755 O   0  0  0  0  0  0  0  0  0  0  0  0
    5.9236  -11.2568   27.3678 C   0  0  0  0  0  0  0  0  0  0  0  0
    5.7737  -12.6171   26.2032 S   0  0  0  0  0  0  0  0  0  0  0  0
    7.3377  -12.8607   25.2772 C   0  0  0  0  0  0  0  0  0  0  0  0
    7.1588  -13.9836   24.2967 C   0  0  0  0  0  0  0  0  0  0  0  0
    8.4751  -14.5271   23.8703 C   0  0  2  0  0  0  0  0  0  0  0  0
    8.3049  -15.7030   23.0054 N   0  0  0  0  0  0  0  0  0  0  0  0
    9.4065  -14.8727   24.9842 C   0  0  0  0  0  0  0  0  0  0  0  0
    9.6195  -14.1438   25.9762 O   0  0  0  0  0  0  0  0  0  0  0  0
   10.1289  -16.1151   24.9591 N   0  0  0  0  0  0  0  0  0  0  0  0
    9.8391  -17.1227   25.9871 C   0  0  1  0  0  0  0  0  0  0  0  0
    8.4360  -17.6116   25.8730 C   0  0  0  0  0  0  0  0  0  0  0  0
    8.1835  -18.6953   26.8423 C   0  0  0  0  0  0  0  0  0  0  0  0
    9.0240  -19.2239   27.7940 C   0  0  0  0  0  0  0  0  0  0  0  0
    8.4272  -20.2313   28.4680 N   0  0  0  0  0  0  0  0  0  0  0  0
    7.1994  -20.3369   27.9341 C   0  0  0  0  0  0  0  0  0  0  0  0
    7.0380  -19.4360   26.9708 N   0  0  0  0  0  0  0  0  0  0  0  0
   10.7856  -18.2395   25.8246 C   0  0  0  0  0  0  0  0  0  0  0  0
   10.9789  -18.8645   24.7400 O   0  0  0  0  0  0  0  0  0  0  0  0
   11.5256  -18.6375   26.9555 O   0  0  0  0  0  0  0  0  0  0  0  0
  2  1  1  0
  3  2  2  0
  4  2  1  0
  5  4  1  0
  5  6  1  1
  7  5  1  0
  7  8  2  0
  9 10  1  0
 10 11  1  0
 12 11  1  0
 13 12  1  1
 13 14  1  0
 14  7  1  0
 15 13  1  0
 16 15  2  0
 17 15  1  0
 18 17  1  0
 18 25  1  0
 19 20  1  0
 18 19  1  6
 20 21  2  0
 20 24  1  0
 21 22  1  0
 22 23  1  0
 24 23  2  0
 25 27  1  0
 26 25  2  0
M  END
$$$$
