NMH.pdb
     RDKit          3D

 27 27  0  0  1  0  0  0  0  0999 V2000
    8.6631  -16.8828   17.6844 N   0  0  0  0  0  0  0  0  0  0  0  0
    8.1984  -15.5611   17.8990 C   0  0  0  0  0  0  0  0  0  0  0  0
    7.9193  -14.8286   16.9128 O   0  0  0  0  0  0  0  0  0  0  0  0
    8.0200  -14.9835   19.2554 C   0  0  0  0  0  0  0  0  0  0  0  0
    8.3322  -15.9771   20.3244 C   0  0  2  0  0  0  0  0  0  0  0  0
    7.2669  -16.9279   20.4569 N   0  0  0  0  0  0  0  0  0  0  0  0
    8.7149  -15.3543   21.6067 C   0  0  0  0  0  0  0  0  0  0  0  0
    9.0365  -14.1208   21.6751 O   0  0  0  0  0  0  0  0  0  0  0  0
    6.9482  -11.6654   27.5590 C   0  0  0  0  0  0  0  0  0  0  0  0
    6.7243  -12.5315   26.0005 S   0  0  0  0  0  0  0  0  0  0  0  0
    8.0618  -13.7577   25.7355 C   0  0  0  0  0  0  0  0  0  0  0  0
    7.8570  -14.4298   24.4088 C   0  0  0  0  0  0  0  0  0  0  0  0
    8.9466  -15.4036   24.1361 C   0  0  2  0  0  0  0  0  0  0  0  0
    8.7549  -16.0587   22.8346 N   0  0  0  0  0  0  0  0  0  0  0  0
    9.1361  -16.4492   25.1843 C   0  0  0  0  0  0  0  0  0  0  0  0
    8.2428  -17.2354   25.5645 O   0  0  0  0  0  0  0  0  0  0  0  0
   10.4125  -16.6004   25.8276 N   0  0  0  0  0  0  0  0  0  0  0  0
   10.6045  -17.7143   26.7648 C   0  0  1  0  0  0  0  0  0  0  0  0
   12.0114  -18.2045   26.7284 C   0  0  0  0  0  0  0  0  0  0  0  0
   12.3007  -18.8566   25.4366 C   0  0  0  0  0  0  0  0  0  0  0  0
   11.4460  -19.1480   24.3991 C   0  0  0  0  0  0  0  0  0  0  0  0
   12.0932  -19.7798   23.3955 N   0  0  0  0  0  0  0  0  0  0  0  0
   13.3672  -19.8868   23.8068 C   0  0  0  0  0  0  0  0  0  0  0  0
   13.5080  -19.3460   25.0123 N   0  0  0  0  0  0  0  0  0  0  0  0
   10.2591  -17.2486   28.1188 C   0  0  0  0  0  0  0  0  0  0  0  0
    9.9154  -16.0634   28.4044 O   0  0  0  0  0  0  0  0  0  0  0  0
   10.3158  -18.1889   29.1665 O   0  0  0  0  0  0  0  0  0  0  0  0
  2  1  1  0
  3  2  2  0
  4  2  1  0
  5  4  1  0
  5  6  1  1
  7  5  1  0
  7  8  2  0
  9 10  1  0
 10 11  1  0
 12 11  1  0
 13 12  1  1
 13 14  1  0
 14  7  1  0
 15 13  1  0
 16 15  2  0
 17 15  1  0
 18 17  1  0
 18 25  1  0
 19 20  1  0
 18 19  1  1
 20 21  2  0
 20 24  1  0
 21 22  1  0
 22 23  1  0
 24 23  2  0
 25 27  1  0
 26 25  2  0
M  END
$$$$
