NMH.pdb
     RDKit          3D

 27 27  0  0  1  0  0  0  0  0999 V2000
   10.8002  -16.8426   17.9691 N   0  0  0  0  0  0  0  0  0  0  0  0
    9.8563  -16.1095   18.7309 C   0  0  0  0  0  0  0  0  0  0  0  0
    8.7416  -15.8107   18.2256 O   0  0  0  0  0  0  0  0  0  0  0  0
   10.1195  -15.6663   20.1236 C   0  0  0  0  0  0  0  0  0  0  0  0
    9.5451  -16.6144   21.1229 C   0  0  2  0  0  0  0  0  0  0  0  0
    8.1686  -16.8872   20.8274 N   0  0  0  0  0  0  0  0  0  0  0  0
    9.7646  -16.1934   22.5206 C   0  0  0  0  0  0  0  0  0  0  0  0
   10.9072  -15.7874   22.9193 O   0  0  0  0  0  0  0  0  0  0  0  0
    6.9656  -10.9123   25.6190 C   0  0  0  0  0  0  0  0  0  0  0  0
    6.7471  -12.6662   25.9441 S   0  0  0  0  0  0  0  0  0  0  0  0
    8.0483  -13.6530   25.1100 C   0  0  0  0  0  0  0  0  0  0  0  0
    7.8998  -15.0944   25.5027 C   0  0  0  0  0  0  0  0  0  0  0  0
    8.9974  -15.9147   24.9263 C   0  0  2  0  0  0  0  0  0  0  0  0
    8.7489  -16.2058   23.5074 N   0  0  0  0  0  0  0  0  0  0  0  0
    9.2742  -17.1936   25.6444 C   0  0  0  0  0  0  0  0  0  0  0  0
    8.4668  -18.1432   25.7284 O   0  0  0  0  0  0  0  0  0  0  0  0
   10.5386  -17.3930   26.2982 N   0  0  0  0  0  0  0  0  0  0  0  0
   10.7943  -18.6746   26.9676 C   0  0  1  0  0  0  0  0  0  0  0  0
   12.1823  -19.1471   26.7011 C   0  0  0  0  0  0  0  0  0  0  0  0
   12.3831  -19.3805   25.2579 C   0  0  0  0  0  0  0  0  0  0  0  0
   11.4455  -19.5355   24.2635 C   0  0  0  0  0  0  0  0  0  0  0  0
   12.0334  -19.7626   23.0685 N   0  0  0  0  0  0  0  0  0  0  0  0
   13.3536  -19.7506   23.3147 C   0  0  0  0  0  0  0  0  0  0  0  0
   13.5787  -19.5259   24.6048 N   0  0  0  0  0  0  0  0  0  0  0  0
   10.5833  -18.4946   28.4142 C   0  0  0  0  0  0  0  0  0  0  0  0
   10.2432  -17.4032   28.9597 O   0  0  0  0  0  0  0  0  0  0  0  0
   10.7737  -19.6158   29.2459 O   0  0  0  0  0  0  0  0  0  0  0  0
  2  1  1  0
  3  2  2  0
  4  2  1  0
  5  4  1  0
  5  6  1  6
  7  5  1  0
  7  8  2  0
  9 10  1  0
 10 11  1  0
 12 11  1  0
 13 12  1  1
 13 14  1  0
 14  7  1  0
 15 13  1  0
 16 15  2  0
 17 15  1  0
 18 17  1  0
 18 25  1  0
 19 20  1  0
 18 19  1  1
 20 21  2  0
 20 24  1  0
 21 22  1  0
 22 23  1  0
 24 23  2  0
 25 27  1  0
 26 25  2  0
M  END
$$$$
