NMH.pdb
     RDKit          3D

 27 27  0  0  1  0  0  0  0  0999 V2000
    6.4568  -18.4877   19.2128 N   0  0  0  0  0  0  0  0  0  0  0  0
    7.5688  -18.9522   19.9588 C   0  0  0  0  0  0  0  0  0  0  0  0
    8.1854  -19.9850   19.5846 O   0  0  0  0  0  0  0  0  0  0  0  0
    8.0543  -18.2693   21.1849 C   0  0  0  0  0  0  0  0  0  0  0  0
    8.4400  -16.8535   20.9126 C   0  0  2  0  0  0  0  0  0  0  0  0
    9.4689  -16.7930   19.9156 N   0  0  0  0  0  0  0  0  0  0  0  0
    8.7722  -16.0936   22.1338 C   0  0  0  0  0  0  0  0  0  0  0  0
    9.9410  -16.1377   22.6450 O   0  0  0  0  0  0  0  0  0  0  0  0
    6.4609  -10.8131   27.6225 C   0  0  0  0  0  0  0  0  0  0  0  0
    6.1141  -11.6796   26.0868 S   0  0  0  0  0  0  0  0  0  0  0  0
    7.3923  -12.9505   25.7499 C   0  0  0  0  0  0  0  0  0  0  0  0
    7.0883  -13.6186   24.4403 C   0  0  0  0  0  0  0  0  0  0  0  0
    8.1364  -14.6165   24.1004 C   0  0  2  0  0  0  0  0  0  0  0  0
    7.8426  -15.2745   22.8196 N   0  0  0  0  0  0  0  0  0  0  0  0
    8.3757  -15.6601   25.1403 C   0  0  0  0  0  0  0  0  0  0  0  0
    7.6173  -16.6299   25.3525 O   0  0  0  0  0  0  0  0  0  0  0  0
    9.5418  -15.5879   25.9775 N   0  0  0  0  0  0  0  0  0  0  0  0
    9.7856  -16.6652   26.9451 C   0  0  1  0  0  0  0  0  0  0  0  0
   10.7867  -17.6362   26.4201 C   0  0  0  0  0  0  0  0  0  0  0  0
   11.1007  -18.6588   27.4365 C   0  0  0  0  0  0  0  0  0  0  0  0
   10.8519  -18.6453   28.7892 C   0  0  0  0  0  0  0  0  0  0  0  0
   11.3227  -19.7632   29.3840 N   0  0  0  0  0  0  0  0  0  0  0  0
   11.8730  -20.4863   28.3951 C   0  0  0  0  0  0  0  0  0  0  0  0
   11.7509  -19.8481   27.2361 N   0  0  0  0  0  0  0  0  0  0  0  0
   10.2652  -16.0634   28.2010 C   0  0  0  0  0  0  0  0  0  0  0  0
   10.5236  -16.7147   29.2562 O   0  0  0  0  0  0  0  0  0  0  0  0
   10.4484  -14.6667   28.2271 O   0  0  0  0  0  0  0  0  0  0  0  0
  2  1  1  0
  3  2  2  0
  4  2  1  0
  5  4  1  0
  5  6  1  6
  7  5  1  0
  7  8  2  0
  9 10  1  0
 10 11  1  0
 12 11  1  0
 13 12  1  1
 13 14  1  0
 14  7  1  0
 15 13  1  0
 16 15  2  0
 17 15  1  0
 18 17  1  0
 18 25  1  0
 19 20  1  0
 18 19  1  6
 20 21  2  0
 20 24  1  0
 21 22  1  0
 22 23  1  0
 24 23  2  0
 25 27  1  0
 26 25  2  0
M  END
$$$$
