NMH.pdb
     RDKit          3D

 27 27  0  0  1  0  0  0  0  0999 V2000
    7.8083  -17.6048   17.6633 N   0  0  0  0  0  0  0  0  0  0  0  0
    8.5643  -16.4060   17.6627 C   0  0  0  0  0  0  0  0  0  0  0  0
    8.8919  -15.8738   16.5689 O   0  0  0  0  0  0  0  0  0  0  0  0
    8.9993  -15.7309   18.9119 C   0  0  0  0  0  0  0  0  0  0  0  0
    8.6232  -16.5164   20.1240 C   0  0  2  0  0  0  0  0  0  0  0  0
    7.2297  -16.8535   20.0952 N   0  0  0  0  0  0  0  0  0  0  0  0
    9.0374  -15.8748   21.3872 C   0  0  0  0  0  0  0  0  0  0  0  0
   10.2687  -15.6696   21.6542 O   0  0  0  0  0  0  0  0  0  0  0  0
    7.0716  -11.4638   27.6637 C   0  0  0  0  0  0  0  0  0  0  0  0
    6.6050  -12.2111   26.0974 S   0  0  0  0  0  0  0  0  0  0  0  0
    7.8938  -13.3818   25.5217 C   0  0  0  0  0  0  0  0  0  0  0  0
    7.5081  -13.9125   24.1713 C   0  0  0  0  0  0  0  0  0  0  0  0
    8.5394  -14.8526   23.6590 C   0  0  2  0  0  0  0  0  0  0  0  0
    8.1235  -15.4459   22.3803 N   0  0  0  0  0  0  0  0  0  0  0  0
    8.9217  -15.9453   24.6012 C   0  0  0  0  0  0  0  0  0  0  0  0
    8.1720  -16.8909   24.9246 O   0  0  0  0  0  0  0  0  0  0  0  0
   10.2275  -15.9539   25.2017 N   0  0  0  0  0  0  0  0  0  0  0  0
   10.7467  -17.2142   25.7476 C   0  0  1  0  0  0  0  0  0  0  0  0
   12.1426  -17.4592   25.2870 C   0  0  0  0  0  0  0  0  0  0  0  0
   12.6699  -18.7082   25.8697 C   0  0  0  0  0  0  0  0  0  0  0  0
   12.0457  -19.6135   26.6960 C   0  0  0  0  0  0  0  0  0  0  0  0
   12.8806  -20.6186   27.0391 N   0  0  0  0  0  0  0  0  0  0  0  0
   14.0412  -20.3419   26.4225 C   0  0  0  0  0  0  0  0  0  0  0  0
   13.9346  -19.2152   25.7262 N   0  0  0  0  0  0  0  0  0  0  0  0
   10.6979  -17.1401   27.2179 C   0  0  0  0  0  0  0  0  0  0  0  0
   10.3237  -16.1228   27.8733 O   0  0  0  0  0  0  0  0  0  0  0  0
   11.0954  -18.2812   27.9423 O   0  0  0  0  0  0  0  0  0  0  0  0
  2  1  1  0
  3  2  2  0
  4  2  1  0
  5  4  1  0
  5  6  1  1
  7  5  1  0
  7  8  2  0
  9 10  1  0
 10 11  1  0
 12 11  1  0
 13 12  1  1
 13 14  1  0
 14  7  1  0
 15 13  1  0
 16 15  2  0
 17 15  1  0
 18 17  1  0
 18 25  1  0
 19 20  1  0
 18 19  1  1
 20 21  2  0
 20 24  1  0
 21 22  1  0
 22 23  1  0
 24 23  2  0
 25 27  1  0
 26 25  2  0
M  END
$$$$
