NMH.pdb
     RDKit          3D

 27 27  0  0  1  0  0  0  0  0999 V2000
    9.0215  -17.0006   16.4226 N   0  0  0  0  0  0  0  0  0  0  0  0
    9.5447  -17.4369   17.6655 C   0  0  0  0  0  0  0  0  0  0  0  0
    9.8678  -18.6448   17.8187 O   0  0  0  0  0  0  0  0  0  0  0  0
    9.7354  -16.5236   18.8209 C   0  0  0  0  0  0  0  0  0  0  0  0
    9.3277  -17.1650   20.1053 C   0  0  2  0  0  0  0  0  0  0  0  0
    7.9767  -17.6394   20.0265 N   0  0  0  0  0  0  0  0  0  0  0  0
    9.5747  -16.3151   21.2866 C   0  0  0  0  0  0  0  0  0  0  0  0
   10.7416  -15.8702   21.5513 O   0  0  0  0  0  0  0  0  0  0  0  0
    6.7147  -11.6580   26.8590 C   0  0  0  0  0  0  0  0  0  0  0  0
    6.3338  -13.1389   25.9150 S   0  0  0  0  0  0  0  0  0  0  0  0
    7.8683  -13.9508   25.3244 C   0  0  0  0  0  0  0  0  0  0  0  0
    7.6102  -14.5733   23.9828 C   0  0  0  0  0  0  0  0  0  0  0  0
    8.8332  -15.2429   23.4671 C   0  0  2  0  0  0  0  0  0  0  0  0
    8.5609  -15.9343   22.1992 N   0  0  0  0  0  0  0  0  0  0  0  0
    9.4768  -16.1995   24.4149 C   0  0  0  0  0  0  0  0  0  0  0  0
    8.9225  -17.2239   24.8665 O   0  0  0  0  0  0  0  0  0  0  0  0
   10.8218  -15.9700   24.8667 N   0  0  0  0  0  0  0  0  0  0  0  0
   11.3429  -16.7784   25.9761 C   0  0  1  0  0  0  0  0  0  0  0  0
   10.3466  -16.8727   27.0803 C   0  0  0  0  0  0  0  0  0  0  0  0
   10.4043  -15.6715   27.9356 C   0  0  0  0  0  0  0  0  0  0  0  0
   11.1216  -14.5115   27.7581 C   0  0  0  0  0  0  0  0  0  0  0  0
   10.9282  -13.6552   28.7851 N   0  0  0  0  0  0  0  0  0  0  0  0
   10.0812  -14.2839   29.6164 C   0  0  0  0  0  0  0  0  0  0  0  0
    9.7608  -15.4780   29.1296 N   0  0  0  0  0  0  0  0  0  0  0  0
   11.6670  -18.1203   25.4625 C   0  0  0  0  0  0  0  0  0  0  0  0
   12.2565  -19.0213   26.1297 O   0  0  0  0  0  0  0  0  0  0  0  0
   11.2940  -18.4194   24.1372 O   0  0  0  0  0  0  0  0  0  0  0  0
  2  1  1  0
  3  2  2  0
  4  2  1  0
  5  4  1  0
  5  6  1  6
  7  5  1  0
  7  8  2  0
  9 10  1  0
 10 11  1  0
 12 11  1  0
 13 12  1  1
 13 14  1  0
 14  7  1  0
 15 13  1  0
 16 15  2  0
 17 15  1  0
 18 17  1  0
 18 25  1  0
 19 20  1  0
 18 19  1  1
 20 21  2  0
 20 24  1  0
 21 22  1  0
 22 23  1  0
 24 23  2  0
 25 27  1  0
 26 25  2  0
M  END
$$$$
