NMH.pdb
     RDKit          3D

 27 27  0  0  1  0  0  0  0  0999 V2000
    7.8504  -12.5785   17.1277 N   0  0  0  0  0  0  0  0  0  0  0  0
    7.8347  -13.5929   18.1175 C   0  0  0  0  0  0  0  0  0  0  0  0
    7.6294  -14.7899   17.7828 O   0  0  0  0  0  0  0  0  0  0  0  0
    8.0524  -13.3109   19.5591 C   0  0  0  0  0  0  0  0  0  0  0  0
    8.9539  -14.3197   20.1893 C   0  0  2  0  0  0  0  0  0  0  0  0
    8.6187  -15.6423   19.7478 N   0  0  0  0  0  0  0  0  0  0  0  0
    9.0259  -14.2011   21.6589 C   0  0  0  0  0  0  0  0  0  0  0  0
    9.3697  -13.1072   22.2199 O   0  0  0  0  0  0  0  0  0  0  0  0
    6.6911  -11.1130   26.6108 C   0  0  0  0  0  0  0  0  0  0  0  0
    5.9306  -12.6064   25.9623 S   0  0  0  0  0  0  0  0  0  0  0  0
    7.1843  -13.9194   25.7033 C   0  0  0  0  0  0  0  0  0  0  0  0
    7.4799  -14.0344   24.2359 C   0  0  0  0  0  0  0  0  0  0  0  0
    8.5040  -15.0820   23.9839 C   0  0  2  0  0  0  0  0  0  0  0  0
    8.7265  -15.2662   22.5429 N   0  0  0  0  0  0  0  0  0  0  0  0
    8.2171  -16.4083   24.6056 C   0  0  0  0  0  0  0  0  0  0  0  0
    7.0835  -16.7834   24.9731 O   0  0  0  0  0  0  0  0  0  0  0  0
    9.2822  -17.3501   24.8160 N   0  0  0  0  0  0  0  0  0  0  0  0
   10.1640  -17.1729   25.9766 C   0  0  1  0  0  0  0  0  0  0  0  0
   10.3863  -15.7271   26.2608 C   0  0  0  0  0  0  0  0  0  0  0  0
   10.7381  -15.5250   27.6796 C   0  0  0  0  0  0  0  0  0  0  0  0
   10.8249  -16.4496   28.6942 C   0  0  0  0  0  0  0  0  0  0  0  0
   11.1483  -15.8605   29.8661 N   0  0  0  0  0  0  0  0  0  0  0  0
   11.2654  -14.5525   29.5852 C   0  0  0  0  0  0  0  0  0  0  0  0
   11.0260  -14.3358   28.2963 N   0  0  0  0  0  0  0  0  0  0  0  0
    9.5440  -17.8339   27.1378 C   0  0  0  0  0  0  0  0  0  0  0  0
    8.3130  -17.7675   27.4289 O   0  0  0  0  0  0  0  0  0  0  0  0
   10.3806  -18.5916   27.9809 O   0  0  0  0  0  0  0  0  0  0  0  0
  2  1  1  0
  3  2  2  0
  4  2  1  0
  5  4  1  0
  5  6  1  1
  7  5  1  0
  7  8  2  0
  9 10  1  0
 10 11  1  0
 12 11  1  0
 13 12  1  6
 13 14  1  0
 14  7  1  0
 15 13  1  0
 16 15  2  0
 17 15  1  0
 18 17  1  0
 18 25  1  0
 19 20  1  0
 18 19  1  1
 20 21  2  0
 20 24  1  0
 21 22  1  0
 22 23  1  0
 24 23  2  0
 25 27  1  0
 26 25  2  0
M  END
$$$$
