NMH.pdb
     RDKit          3D

 27 27  0  0  1  0  0  0  0  0999 V2000
    8.2436  -18.1178   18.2539 N   0  0  0  0  0  0  0  0  0  0  0  0
    8.3289  -16.7046   18.1860 C   0  0  0  0  0  0  0  0  0  0  0  0
    8.2813  -16.1284   17.0668 O   0  0  0  0  0  0  0  0  0  0  0  0
    8.4745  -15.8506   19.3921 C   0  0  0  0  0  0  0  0  0  0  0  0
    8.6291  -16.6672   20.6318 C   0  0  2  0  0  0  0  0  0  0  0  0
    7.4299  -17.4051   20.9034 N   0  0  0  0  0  0  0  0  0  0  0  0
    9.1025  -15.8851   21.7908 C   0  0  0  0  0  0  0  0  0  0  0  0
   10.2530  -15.3322   21.7925 O   0  0  0  0  0  0  0  0  0  0  0  0
    5.9308  -12.6732   26.7132 C   0  0  0  0  0  0  0  0  0  0  0  0
    6.4107  -11.9491   25.1401 S   0  0  0  0  0  0  0  0  0  0  0  0
    7.1651  -13.2099   24.0428 C   0  0  0  0  0  0  0  0  0  0  0  0
    7.7508  -14.3068   24.8841 C   0  0  0  0  0  0  0  0  0  0  0  0
    8.8471  -15.0008   24.1586 C   0  0  2  0  0  0  0  0  0  0  0  0
    8.3362  -15.6905   22.9657 N   0  0  0  0  0  0  0  0  0  0  0  0
    9.6351  -15.9668   24.9794 C   0  0  0  0  0  0  0  0  0  0  0  0
    9.1435  -16.9457   25.5801 O   0  0  0  0  0  0  0  0  0  0  0  0
   11.0562  -15.8020   25.1180 N   0  0  0  0  0  0  0  0  0  0  0  0
   11.7610  -16.5767   26.1471 C   0  0  1  0  0  0  0  0  0  0  0  0
   10.8300  -16.9871   27.2358 C   0  0  0  0  0  0  0  0  0  0  0  0
   10.6409  -15.8859   28.1998 C   0  0  0  0  0  0  0  0  0  0  0  0
   10.8306  -14.5350   28.0247 C   0  0  0  0  0  0  0  0  0  0  0  0
   10.5778  -13.8542   29.1639 N   0  0  0  0  0  0  0  0  0  0  0  0
   10.2261  -14.7868   30.0639 C   0  0  0  0  0  0  0  0  0  0  0  0
   10.2581  -15.9946   29.5108 N   0  0  0  0  0  0  0  0  0  0  0  0
   12.3584  -17.7627   25.5096 C   0  0  0  0  0  0  0  0  0  0  0  0
   13.0922  -18.6053   26.1063 O   0  0  0  0  0  0  0  0  0  0  0  0
   12.0932  -17.9714   24.1418 O   0  0  0  0  0  0  0  0  0  0  0  0
  2  1  1  0
  3  2  2  0
  4  2  1  0
  5  4  1  0
  5  6  1  1
  7  5  1  0
  7  8  2  0
  9 10  1  0
 10 11  1  0
 12 11  1  0
 13 12  1  1
 13 14  1  0
 14  7  1  0
 15 13  1  0
 16 15  2  0
 17 15  1  0
 18 17  1  0
 18 25  1  0
 19 20  1  0
 18 19  1  1
 20 21  2  0
 20 24  1  0
 21 22  1  0
 22 23  1  0
 24 23  2  0
 25 27  1  0
 26 25  2  0
M  END
$$$$
