NMH.pdb
     RDKit          3D

 27 27  0  0  1  0  0  0  0  0999 V2000
    8.7714  -16.5199   17.4358 N   0  0  0  0  0  0  0  0  0  0  0  0
    7.9127  -16.5832   18.5616 C   0  0  0  0  0  0  0  0  0  0  0  0
    6.9284  -17.3694   18.5538 O   0  0  0  0  0  0  0  0  0  0  0  0
    8.1182  -15.7526   19.7753 C   0  0  0  0  0  0  0  0  0  0  0  0
    8.7494  -16.5341   20.8791 C   0  0  2  0  0  0  0  0  0  0  0  0
    8.0781  -17.7886   21.0578 N   0  0  0  0  0  0  0  0  0  0  0  0
    8.8866  -15.7673   22.1330 C   0  0  0  0  0  0  0  0  0  0  0  0
    9.9386  -15.0895   22.3841 O   0  0  0  0  0  0  0  0  0  0  0  0
    6.4296  -11.0910   27.4117 C   0  0  0  0  0  0  0  0  0  0  0  0
    6.1181  -12.1155   25.9686 S   0  0  0  0  0  0  0  0  0  0  0  0
    6.8299  -13.7909   26.1900 C   0  0  0  0  0  0  0  0  0  0  0  0
    6.6881  -14.5588   24.9077 C   0  0  0  0  0  0  0  0  0  0  0  0
    8.0199  -14.9527   24.3778 C   0  0  2  0  0  0  0  0  0  0  0  0
    7.8856  -15.7236   23.1338 N   0  0  0  0  0  0  0  0  0  0  0  0
    8.8794  -15.7137   25.3317 C   0  0  0  0  0  0  0  0  0  0  0  0
    9.1424  -15.3405   26.4946 O   0  0  0  0  0  0  0  0  0  0  0  0
    9.4657  -16.9638   24.9324 N   0  0  0  0  0  0  0  0  0  0  0  0
   10.2983  -17.6943   25.8962 C   0  0  1  0  0  0  0  0  0  0  0  0
    9.9603  -19.1457   25.8996 C   0  0  0  0  0  0  0  0  0  0  0  0
    8.7869  -19.4034   26.7566 C   0  0  0  0  0  0  0  0  0  0  0  0
    8.3702  -18.7349   27.8841 C   0  0  0  0  0  0  0  0  0  0  0  0
    7.2584  -19.2995   28.4041 N   0  0  0  0  0  0  0  0  0  0  0  0
    6.9741  -20.3334   27.5955 C   0  0  0  0  0  0  0  0  0  0  0  0
    7.8681  -20.4099   26.6154 N   0  0  0  0  0  0  0  0  0  0  0  0
   11.7122  -17.4985   25.5327 C   0  0  0  0  0  0  0  0  0  0  0  0
   12.6920  -17.9783   26.1765 O   0  0  0  0  0  0  0  0  0  0  0  0
   11.9908  -16.7236   24.3895 O   0  0  0  0  0  0  0  0  0  0  0  0
  2  1  1  0
  3  2  2  0
  4  2  1  0
  5  4  1  0
  5  6  1  1
  7  5  1  0
  7  8  2  0
  9 10  1  0
 10 11  1  0
 12 11  1  0
 13 12  1  1
 13 14  1  0
 14  7  1  0
 15 13  1  0
 16 15  2  0
 17 15  1  0
 18 17  1  0
 18 25  1  0
 19 20  1  0
 18 19  1  6
 20 21  2  0
 20 24  1  0
 21 22  1  0
 22 23  1  0
 24 23  2  0
 25 27  1  0
 26 25  2  0
M  END
$$$$
