NMH.pdb
     RDKit          3D

 27 27  0  0  1  0  0  0  0  0999 V2000
    7.4005  -12.5405   18.0126 N   0  0  0  0  0  0  0  0  0  0  0  0
    8.3137  -13.5377   18.4374 C   0  0  0  0  0  0  0  0  0  0  0  0
    8.6610  -14.4484   17.6393 O   0  0  0  0  0  0  0  0  0  0  0  0
    8.8943  -13.5644   19.8040 C   0  0  0  0  0  0  0  0  0  0  0  0
    8.5055  -14.8000   20.5453 C   0  0  2  0  0  0  0  0  0  0  0  0
    7.1051  -15.0649   20.3864 N   0  0  0  0  0  0  0  0  0  0  0  0
    8.9369  -14.7941   21.9570 C   0  0  0  0  0  0  0  0  0  0  0  0
   10.1619  -14.6290   22.2754 O   0  0  0  0  0  0  0  0  0  0  0  0
    6.0421  -10.6157   26.5435 C   0  0  0  0  0  0  0  0  0  0  0  0
    6.1050  -12.4112   26.5062 S   0  0  0  0  0  0  0  0  0  0  0  0
    7.3814  -12.9966   25.3269 C   0  0  0  0  0  0  0  0  0  0  0  0
    7.4242  -14.4971   25.3535 C   0  0  0  0  0  0  0  0  0  0  0  0
    8.4845  -15.0114   24.4474 C   0  0  2  0  0  0  0  0  0  0  0  0
    8.0471  -14.9669   23.0451 N   0  0  0  0  0  0  0  0  0  0  0  0
    8.9717  -16.3867   24.7620 C   0  0  0  0  0  0  0  0  0  0  0  0
    9.0843  -17.3036   23.9210 O   0  0  0  0  0  0  0  0  0  0  0  0
    9.3481  -16.7269   26.1068 N   0  0  0  0  0  0  0  0  0  0  0  0
   10.4922  -17.6233   26.3157 C   0  0  1  0  0  0  0  0  0  0  0  0
   11.7133  -17.0934   25.6456 C   0  0  0  0  0  0  0  0  0  0  0  0
   11.8476  -17.6585   24.2891 C   0  0  0  0  0  0  0  0  0  0  0  0
   11.0115  -18.5218   23.6201 C   0  0  0  0  0  0  0  0  0  0  0  0
   11.5024  -18.8304   22.3998 N   0  0  0  0  0  0  0  0  0  0  0  0
   12.6588  -18.1545   22.3013 C   0  0  0  0  0  0  0  0  0  0  0  0
   12.8788  -17.4559   23.4100 N   0  0  0  0  0  0  0  0  0  0  0  0
   10.7203  -17.7574   27.7647 C   0  0  0  0  0  0  0  0  0  0  0  0
   10.7540  -16.7876   28.5788 O   0  0  0  0  0  0  0  0  0  0  0  0
   10.9139  -19.0553   28.2774 O   0  0  0  0  0  0  0  0  0  0  0  0
  2  1  1  0
  3  2  2  0
  4  2  1  0
  5  4  1  0
  5  6  1  1
  7  5  1  0
  7  8  2  0
  9 10  1  0
 10 11  1  0
 12 11  1  0
 13 12  1  1
 13 14  1  0
 14  7  1  0
 15 13  1  0
 16 15  2  0
 17 15  1  0
 18 17  1  0
 18 25  1  0
 19 20  1  0
 18 19  1  6
 20 21  2  0
 20 24  1  0
 21 22  1  0
 22 23  1  0
 24 23  2  0
 25 27  1  0
 26 25  2  0
M  END
$$$$
