NMH.pdb
     RDKit          3D

 27 27  0  0  1  0  0  0  0  0999 V2000
    9.2546  -16.5240   17.0068 N   0  0  0  0  0  0  0  0  0  0  0  0
    8.6645  -16.0841   18.2179 C   0  0  0  0  0  0  0  0  0  0  0  0
    7.4100  -16.0635   18.3310 O   0  0  0  0  0  0  0  0  0  0  0  0
    9.4663  -15.6367   19.3851 C   0  0  0  0  0  0  0  0  0  0  0  0
    9.1430  -16.4234   20.6116 C   0  0  2  0  0  0  0  0  0  0  0  0
    7.7248  -16.5857   20.7483 N   0  0  0  0  0  0  0  0  0  0  0  0
    9.7852  -15.8942   21.8308 C   0  0  0  0  0  0  0  0  0  0  0  0
   11.0362  -15.6429   21.8657 O   0  0  0  0  0  0  0  0  0  0  0  0
    5.3485  -12.8523   26.3420 C   0  0  0  0  0  0  0  0  0  0  0  0
    7.1237  -12.7590   26.0790 S   0  0  0  0  0  0  0  0  0  0  0  0
    7.7082  -14.1648   25.0568 C   0  0  0  0  0  0  0  0  0  0  0  0
    9.1990  -14.0749   24.9036 C   0  0  0  0  0  0  0  0  0  0  0  0
    9.7447  -15.3217   24.3056 C   0  0  2  0  0  0  0  0  0  0  0  0
    9.0813  -15.6293   23.0307 N   0  0  0  0  0  0  0  0  0  0  0  0
    9.6850  -16.5241   25.1880 C   0  0  0  0  0  0  0  0  0  0  0  0
    8.6745  -17.2452   25.3285 O   0  0  0  0  0  0  0  0  0  0  0  0
   10.8406  -16.9186   25.9461 N   0  0  0  0  0  0  0  0  0  0  0  0
   10.7504  -18.1042   26.8076 C   0  0  1  0  0  0  0  0  0  0  0  0
   11.9320  -18.9921   26.6174 C   0  0  0  0  0  0  0  0  0  0  0  0
   12.0228  -19.4419   25.2149 C   0  0  0  0  0  0  0  0  0  0  0  0
   11.0504  -19.9942   24.4142 C   0  0  0  0  0  0  0  0  0  0  0  0
   11.5393  -20.3019   23.1929 N   0  0  0  0  0  0  0  0  0  0  0  0
   12.8321  -19.9396   23.2268 C   0  0  0  0  0  0  0  0  0  0  0  0
   13.1354  -19.4290   24.4154 N   0  0  0  0  0  0  0  0  0  0  0  0
   10.6660  -17.6566   28.2084 C   0  0  0  0  0  0  0  0  0  0  0  0
   10.7243  -16.4472   28.5803 O   0  0  0  0  0  0  0  0  0  0  0  0
   10.5098  -18.6445   29.2007 O   0  0  0  0  0  0  0  0  0  0  0  0
  2  1  1  0
  3  2  2  0
  4  2  1  0
  5  4  1  0
  5  6  1  1
  7  5  1  0
  7  8  2  0
  9 10  1  0
 10 11  1  0
 12 11  1  0
 13 12  1  1
 13 14  1  0
 14  7  1  0
 15 13  1  0
 16 15  2  0
 17 15  1  0
 18 17  1  0
 18 25  1  0
 19 20  1  0
 18 19  1  1
 20 21  2  0
 20 24  1  0
 21 22  1  0
 22 23  1  0
 24 23  2  0
 25 27  1  0
 26 25  2  0
M  END
$$$$
