NMH.pdb
     RDKit          3D

 27 27  0  0  1  0  0  0  0  0999 V2000
    8.6809  -18.5186   18.7919 N   0  0  0  0  0  0  0  0  0  0  0  0
    8.4215  -17.1451   18.5575 C   0  0  0  0  0  0  0  0  0  0  0  0
    8.1954  -16.7425   17.3854 O   0  0  0  0  0  0  0  0  0  0  0  0
    8.4020  -16.1350   19.6459 C   0  0  0  0  0  0  0  0  0  0  0  0
    8.7725  -16.7337   20.9619 C   0  0  2  0  0  0  0  0  0  0  0  0
    7.8095  -17.7199   21.3572 N   0  0  0  0  0  0  0  0  0  0  0  0
    9.0327  -15.7264   22.0091 C   0  0  0  0  0  0  0  0  0  0  0  0
   10.0614  -14.9721   21.9628 O   0  0  0  0  0  0  0  0  0  0  0  0
    6.2471  -11.0689   27.7311 C   0  0  0  0  0  0  0  0  0  0  0  0
    5.9370  -12.3377   26.4969 S   0  0  0  0  0  0  0  0  0  0  0  0
    7.5105  -13.0537   25.8852 C   0  0  0  0  0  0  0  0  0  0  0  0
    7.2236  -13.9339   24.7033 C   0  0  0  0  0  0  0  0  0  0  0  0
    8.4725  -14.5597   24.1952 C   0  0  2  0  0  0  0  0  0  0  0  0
    8.1820  -15.5214   23.1225 N   0  0  0  0  0  0  0  0  0  0  0  0
    9.3120  -15.2273   25.2332 C   0  0  0  0  0  0  0  0  0  0  0  0
    9.6850  -14.6833   26.2942 O   0  0  0  0  0  0  0  0  0  0  0  0
    9.7446  -16.5850   25.0452 N   0  0  0  0  0  0  0  0  0  0  0  0
   10.6783  -17.1706   26.0155 C   0  0  1  0  0  0  0  0  0  0  0  0
    9.9570  -17.6407   27.2318 C   0  0  0  0  0  0  0  0  0  0  0  0
    8.9030  -18.6076   26.8691 C   0  0  0  0  0  0  0  0  0  0  0  0
    8.4553  -18.9790   25.6227 C   0  0  0  0  0  0  0  0  0  0  0  0
    7.4486  -19.8756   25.7120 N   0  0  0  0  0  0  0  0  0  0  0  0
    7.2616  -20.0692   27.0278 C   0  0  0  0  0  0  0  0  0  0  0  0
    8.1134  -19.3269   27.7272 N   0  0  0  0  0  0  0  0  0  0  0  0
   11.3783  -18.2937   25.3688 C   0  0  0  0  0  0  0  0  0  0  0  0
   12.2219  -19.0417   25.9462 O   0  0  0  0  0  0  0  0  0  0  0  0
   11.0872  -18.5512   24.0146 O   0  0  0  0  0  0  0  0  0  0  0  0
  2  1  1  0
  3  2  2  0
  4  2  1  0
  5  4  1  0
  5  6  1  1
  7  5  1  0
  7  8  2  0
  9 10  1  0
 10 11  1  0
 12 11  1  0
 13 12  1  1
 13 14  1  0
 14  7  1  0
 15 13  1  0
 16 15  2  0
 17 15  1  0
 18 17  1  0
 18 25  1  0
 19 20  1  0
 18 19  1  1
 20 21  2  0
 20 24  1  0
 21 22  1  0
 22 23  1  0
 24 23  2  0
 25 27  1  0
 26 25  2  0
M  END
$$$$
