LQI.pdb
     RDKit          3D

 26 25  0  0  1  0  0  0  0  0999 V2000
   26.6394  -16.0456  -17.7834 C   0  0  0  0  0  0  0  0  0  0  0  0
   25.4777  -16.9775  -17.4239 C   0  0  2  0  0  0  0  0  0  0  0  0
   24.3284  -16.7276  -18.3954 C   0  0  0  0  0  0  0  0  0  0  0  0
   25.0605  -16.7749  -15.9916 C   0  0  0  0  0  0  0  0  0  0  0  0
   26.0354  -17.4292  -15.0774 C   0  0  2  0  0  0  0  0  0  0  0  0
   27.0232  -18.1880  -15.7965 N   0  0  0  0  0  0  0  0  0  0  0  0
   25.3097  -18.3051  -14.0951 C   0  0  0  0  0  0  0  0  0  0  0  0
   24.3626  -17.8421  -13.4356 O   0  0  0  0  0  0  0  0  0  0  0  0
   24.6514  -24.4168  -14.6708 N   0  0  0  0  0  0  0  0  0  0  0  0
   23.9835  -24.1838  -13.4349 C   0  0  0  0  0  0  0  0  0  0  0  0
   23.3303  -25.1132  -12.9152 O   0  0  0  0  0  0  0  0  0  0  0  0
   24.0923  -22.8279  -12.8064 C   0  0  0  0  0  0  0  0  0  0  0  0
   24.9162  -21.9224  -13.6975 C   0  0  0  0  0  0  0  0  0  0  0  0
   25.0353  -20.5614  -13.0451 C   0  0  2  0  0  0  0  0  0  0  0  0
   25.7181  -19.6555  -13.9333 N   0  0  0  0  0  0  0  0  0  0  0  0
   25.7826  -20.7161  -11.7522 C   0  0  0  0  0  0  0  0  0  0  0  0
   26.9686  -21.1307  -11.7568 O   0  0  0  0  0  0  0  0  0  0  0  0
   27.4077  -17.6019   -8.1495 C   0  0  0  0  0  0  0  0  0  0  0  0
   27.1559  -18.8605   -8.9467 C   0  0  0  0  0  0  0  0  0  0  0  0
   26.0864  -19.7255   -8.3673 C   0  0  2  0  0  0  0  0  0  0  0  0
   26.5100  -20.1425   -6.9777 C   0  0  0  0  0  0  0  0  0  0  0  0
   25.6570  -20.8644   -9.2215 C   0  0  2  0  0  0  0  0  0  0  0  0
   25.1549  -20.3956  -10.5202 N   0  0  0  0  0  0  0  0  0  0  0  0
   24.7209  -21.8129   -8.6359 C   0  0  0  0  0  0  0  0  0  0  0  0
   25.0458  -22.5472   -7.6784 O   0  0  0  0  0  0  0  0  0  0  0  0
   23.4346  -21.9201   -9.1362 O   0  0  0  0  0  0  0  0  0  0  0  0
  2  1  1  6
  2  4  1  0
  2  3  1  0
  5  7  1  0
  5  6  1  6
  5  4  1  0
  7  8  2  0
  9 10  1  0
 10 11  2  0
 10 12  1  0
 12 13  1  0
 14 13  1  6
 14 16  1  0
 15 14  1  0
 15  7  1  0
 16 17  2  0
 18 19  1  0
 19 20  1  0
 20 22  1  0
 20 21  1  1
 22 24  1  0
 23 16  1  0
 22 23  1  6
 24 25  2  0
 24 26  1  0
M  END
$$$$
