LQI.pdb
     RDKit          3D

 26 25  0  0  1  0  0  0  0  0999 V2000
   28.4401  -21.2136  -16.6840 C   0  0  0  0  0  0  0  0  0  0  0  0
   27.7470  -22.4840  -16.1813 C   0  0  2  0  0  0  0  0  0  0  0  0
   28.2531  -23.6735  -16.9912 C   0  0  0  0  0  0  0  0  0  0  0  0
   26.2508  -22.3392  -16.2655 C   0  0  0  0  0  0  0  0  0  0  0  0
   25.7985  -21.2016  -15.4196 C   0  0  2  0  0  0  0  0  0  0  0  0
   26.3314  -21.2765  -14.0857 N   0  0  0  0  0  0  0  0  0  0  0  0
   24.2968  -21.1526  -15.3856 C   0  0  0  0  0  0  0  0  0  0  0  0
   23.6456  -21.4336  -16.4070 O   0  0  0  0  0  0  0  0  0  0  0  0
   19.5596  -22.1120  -13.3771 N   0  0  0  0  0  0  0  0  0  0  0  0
   20.5295  -22.9213  -12.7196 C   0  0  0  0  0  0  0  0  0  0  0  0
   20.3170  -24.1468  -12.6035 O   0  0  0  0  0  0  0  0  0  0  0  0
   21.7699  -22.2667  -12.1922 C   0  0  0  0  0  0  0  0  0  0  0  0
   21.7963  -20.8146  -12.6204 C   0  0  0  0  0  0  0  0  0  0  0  0
   22.2038  -20.7354  -14.0763 C   0  0  2  0  0  0  0  0  0  0  0  0
   23.6399  -20.7843  -14.1817 N   0  0  0  0  0  0  0  0  0  0  0  0
   21.6629  -19.4596  -14.6542 C   0  0  0  0  0  0  0  0  0  0  0  0
   22.0312  -18.3523  -14.1886 O   0  0  0  0  0  0  0  0  0  0  0  0
   22.2272  -18.3144  -19.6474 C   0  0  0  0  0  0  0  0  0  0  0  0
   21.9616  -18.3118  -18.1600 C   0  0  0  0  0  0  0  0  0  0  0  0
   20.5099  -18.2584  -17.8169 C   0  0  2  0  0  0  0  0  0  0  0  0
   19.8906  -17.0860  -18.5422 C   0  0  0  0  0  0  0  0  0  0  0  0
   20.1985  -18.2862  -16.3631 C   0  0  2  0  0  0  0  0  0  0  0  0
   20.7346  -19.4972  -15.7272 N   0  0  0  0  0  0  0  0  0  0  0  0
   18.8066  -18.0953  -15.9823 C   0  0  0  0  0  0  0  0  0  0  0  0
   18.0142  -19.0575  -15.8933 O   0  0  0  0  0  0  0  0  0  0  0  0
   18.3282  -16.8255  -15.7076 O   0  0  0  0  0  0  0  0  0  0  0  0
  2  1  1  6
  2  4  1  0
  2  3  1  0
  5  7  1  0
  5  6  1  1
  5  4  1  0
  7  8  2  0
  9 10  1  0
 10 11  2  0
 10 12  1  0
 12 13  1  0
 14 13  1  1
 14 16  1  0
 15 14  1  0
 15  7  1  0
 16 17  2  0
 18 19  1  0
 19 20  1  0
 20 22  1  0
 20 21  1  1
 22 24  1  0
 23 16  1  0
 22 23  1  6
 24 25  2  0
 24 26  1  0
M  END
$$$$
