LQI.pdb
     RDKit          3D

 26 25  0  0  1  0  0  0  0  0999 V2000
   28.9487  -19.8667  -16.3432 C   0  0  0  0  0  0  0  0  0  0  0  0
   27.7846  -18.8922  -16.1373 C   0  0  2  0  0  0  0  0  0  0  0  0
   28.0169  -17.6587  -17.0042 C   0  0  0  0  0  0  0  0  0  0  0  0
   27.6409  -18.5397  -14.6806 C   0  0  0  0  0  0  0  0  0  0  0  0
   27.4987  -19.7771  -13.8665 C   0  0  2  0  0  0  0  0  0  0  0  0
   26.7424  -20.7900  -14.5528 N   0  0  0  0  0  0  0  0  0  0  0  0
   26.8644  -19.4510  -12.5437 C   0  0  0  0  0  0  0  0  0  0  0  0
   27.0887  -18.3534  -12.0041 O   0  0  0  0  0  0  0  0  0  0  0  0
   21.3249  -21.3937  -10.9898 N   0  0  0  0  0  0  0  0  0  0  0  0
   21.7090  -20.3129  -11.8337 C   0  0  0  0  0  0  0  0  0  0  0  0
   20.8565  -19.8047  -12.5924 O   0  0  0  0  0  0  0  0  0  0  0  0
   23.1256  -19.8278  -11.7764 C   0  0  0  0  0  0  0  0  0  0  0  0
   23.9037  -20.6569  -10.7763 C   0  0  0  0  0  0  0  0  0  0  0  0
   25.3207  -20.1304  -10.6931 C   0  0  2  0  0  0  0  0  0  0  0  0
   26.0139  -20.4057  -11.9258 N   0  0  0  0  0  0  0  0  0  0  0  0
   26.0058  -20.7870   -9.5297 C   0  0  0  0  0  0  0  0  0  0  0  0
   26.4185  -21.9696   -9.6284 O   0  0  0  0  0  0  0  0  0  0  0  0
   29.2749  -19.3550   -4.5155 C   0  0  0  0  0  0  0  0  0  0  0  0
   28.3721  -20.3436   -5.2159 C   0  0  0  0  0  0  0  0  0  0  0  0
   27.6460  -19.7604   -6.3823 C   0  0  2  0  0  0  0  0  0  0  0  0
   26.9598  -18.4914   -5.9318 C   0  0  0  0  0  0  0  0  0  0  0  0
   26.7435  -20.6971   -7.1029 C   0  0  2  0  0  0  0  0  0  0  0  0
   26.1908  -20.0771   -8.3147 N   0  0  0  0  0  0  0  0  0  0  0  0
   25.6786  -21.3160   -6.3271 C   0  0  0  0  0  0  0  0  0  0  0  0
   24.4747  -21.0703   -6.5551 O   0  0  0  0  0  0  0  0  0  0  0  0
   25.9845  -22.2011   -5.3076 O   0  0  0  0  0  0  0  0  0  0  0  0
  2  1  1  1
  2  4  1  0
  2  3  1  0
  5  7  1  0
  5  6  1  6
  5  4  1  0
  7  8  2  0
  9 10  1  0
 10 11  2  0
 10 12  1  0
 12 13  1  0
 14 13  1  6
 14 16  1  0
 15 14  1  0
 15  7  1  0
 16 17  2  0
 18 19  1  0
 19 20  1  0
 20 22  1  0
 20 21  1  1
 22 24  1  0
 23 16  1  0
 22 23  1  6
 24 25  2  0
 24 26  1  0
M  END
$$$$
