LQI.pdb
     RDKit          3D

 26 25  0  0  1  0  0  0  0  0999 V2000
   28.6272  -19.8510  -17.0459 C   0  0  0  0  0  0  0  0  0  0  0  0
   27.3745  -19.0429  -16.6925 C   0  0  2  0  0  0  0  0  0  0  0  0
   27.1845  -17.9484  -17.7378 C   0  0  0  0  0  0  0  0  0  0  0  0
   27.4827  -18.4811  -15.2999 C   0  0  0  0  0  0  0  0  0  0  0  0
   27.8016  -19.5668  -14.3336 C   0  0  2  0  0  0  0  0  0  0  0  0
   27.6634  -20.8713  -14.9236 N   0  0  0  0  0  0  0  0  0  0  0  0
   26.9286  -19.4434  -13.1165 C   0  0  0  0  0  0  0  0  0  0  0  0
   26.7637  -18.3319  -12.5838 O   0  0  0  0  0  0  0  0  0  0  0  0
   22.1806  -20.1780  -10.5372 N   0  0  0  0  0  0  0  0  0  0  0  0
   22.2539  -20.1417  -11.9589 C   0  0  0  0  0  0  0  0  0  0  0  0
   21.4055  -19.4783  -12.5920 O   0  0  0  0  0  0  0  0  0  0  0  0
   23.3500  -20.9038  -12.6393 C   0  0  0  0  0  0  0  0  0  0  0  0
   24.2827  -21.4859  -11.5981 C   0  0  0  0  0  0  0  0  0  0  0  0
   25.4644  -20.5569  -11.4179 C   0  0  2  0  0  0  0  0  0  0  0  0
   26.3014  -20.6035  -12.5897 N   0  0  0  0  0  0  0  0  0  0  0  0
   26.2235  -20.9828  -10.1946 C   0  0  0  0  0  0  0  0  0  0  0  0
   26.8367  -22.0794  -10.1848 O   0  0  0  0  0  0  0  0  0  0  0  0
   29.2973  -19.1479   -5.2810 C   0  0  0  0  0  0  0  0  0  0  0  0
   28.2906  -20.1264   -5.8393 C   0  0  0  0  0  0  0  0  0  0  0  0
   27.6585  -19.6663   -7.1108 C   0  0  2  0  0  0  0  0  0  0  0  0
   27.0719  -18.2923   -6.8827 C   0  0  0  0  0  0  0  0  0  0  0  0
   26.7018  -20.6229   -7.7281 C   0  0  2  0  0  0  0  0  0  0  0  0
   26.2526  -20.1510   -9.0449 N   0  0  0  0  0  0  0  0  0  0  0  0
   25.5572  -21.0240   -6.9231 C   0  0  0  0  0  0  0  0  0  0  0  0
   24.3936  -20.6798   -7.2220 O   0  0  0  0  0  0  0  0  0  0  0  0
   25.7395  -21.8057   -5.7952 O   0  0  0  0  0  0  0  0  0  0  0  0
  2  1  1  6
  2  4  1  0
  2  3  1  0
  5  7  1  0
  5  6  1  6
  5  4  1  0
  7  8  2  0
  9 10  1  0
 10 11  2  0
 10 12  1  0
 12 13  1  0
 14 13  1  6
 14 16  1  0
 15 14  1  0
 15  7  1  0
 16 17  2  0
 18 19  1  0
 19 20  1  0
 20 22  1  0
 20 21  1  1
 22 24  1  0
 23 16  1  0
 22 23  1  6
 24 25  2  0
 24 26  1  0
M  END
$$$$
