LQI.pdb
     RDKit          3D

 26 25  0  0  1  0  0  0  0  0999 V2000
   29.1477  -19.0535  -16.6656 C   0  0  0  0  0  0  0  0  0  0  0  0
   28.0262  -18.0520  -16.9596 C   0  0  2  0  0  0  0  0  0  0  0  0
   28.6407  -16.7823  -17.5402 C   0  0  0  0  0  0  0  0  0  0  0  0
   27.2256  -17.7738  -15.7152 C   0  0  0  0  0  0  0  0  0  0  0  0
   26.8402  -19.0522  -15.0585 C   0  0  2  0  0  0  0  0  0  0  0  0
   26.0512  -19.8867  -15.9245 N   0  0  0  0  0  0  0  0  0  0  0  0
   26.1009  -18.7703  -13.7808 C   0  0  0  0  0  0  0  0  0  0  0  0
   25.5036  -17.6891  -13.6375 O   0  0  0  0  0  0  0  0  0  0  0  0
   21.5065  -21.5825  -12.8037 N   0  0  0  0  0  0  0  0  0  0  0  0
   21.4768  -20.8079  -11.6090 C   0  0  0  0  0  0  0  0  0  0  0  0
   20.4084  -20.7262  -10.9669 O   0  0  0  0  0  0  0  0  0  0  0  0
   22.7336  -20.1201  -11.1699 C   0  0  0  0  0  0  0  0  0  0  0  0
   23.8209  -20.3488  -12.1988 C   0  0  0  0  0  0  0  0  0  0  0  0
   25.1137  -19.7428  -11.6954 C   0  0  2  0  0  0  0  0  0  0  0  0
   26.0949  -19.7474  -12.7503 N   0  0  0  0  0  0  0  0  0  0  0  0
   25.5862  -20.5405  -10.5146 C   0  0  0  0  0  0  0  0  0  0  0  0
   25.8172  -21.7694  -10.6373 O   0  0  0  0  0  0  0  0  0  0  0  0
   28.6704  -18.2365   -6.5470 C   0  0  0  0  0  0  0  0  0  0  0  0
   28.0339  -19.1789   -7.5418 C   0  0  0  0  0  0  0  0  0  0  0  0
   26.7835  -19.8185   -7.0366 C   0  0  2  0  0  0  0  0  0  0  0  0
   27.1038  -20.5422   -5.7490 C   0  0  0  0  0  0  0  0  0  0  0  0
   26.0563  -20.6605   -8.0232 C   0  0  2  0  0  0  0  0  0  0  0  0
   25.7742  -19.9123   -9.2558 N   0  0  0  0  0  0  0  0  0  0  0  0
   24.8510  -21.3309   -7.5579 C   0  0  0  0  0  0  0  0  0  0  0  0
   23.7232  -20.8051   -7.6733 O   0  0  0  0  0  0  0  0  0  0  0  0
   24.9331  -22.5817   -6.9704 O   0  0  0  0  0  0  0  0  0  0  0  0
  2  1  1  1
  2  4  1  0
  2  3  1  0
  5  7  1  0
  5  6  1  6
  5  4  1  0
  7  8  2  0
  9 10  1  0
 10 11  2  0
 10 12  1  0
 12 13  1  0
 14 13  1  6
 14 16  1  0
 15 14  1  0
 15  7  1  0
 16 17  2  0
 18 19  1  0
 19 20  1  0
 20 22  1  0
 20 21  1  1
 22 24  1  0
 23 16  1  0
 22 23  1  6
 24 25  2  0
 24 26  1  0
M  END
$$$$
