LQI.pdb
     RDKit          3D

 26 25  0  0  1  0  0  0  0  0999 V2000
   17.4493  -16.6241  -16.4702 C   0  0  0  0  0  0  0  0  0  0  0  0
   17.8817  -16.3089  -17.9058 C   0  0  2  0  0  0  0  0  0  0  0  0
   18.6383  -17.5092  -18.4660 C   0  0  0  0  0  0  0  0  0  0  0  0
   18.7087  -15.0515  -17.9455 C   0  0  0  0  0  0  0  0  0  0  0  0
   17.9360  -13.9130  -17.3789 C   0  0  2  0  0  0  0  0  0  0  0  0
   16.6521  -13.7657  -18.0102 N   0  0  0  0  0  0  0  0  0  0  0  0
   18.7311  -12.6433  -17.4983 C   0  0  0  0  0  0  0  0  0  0  0  0
   19.9203  -12.6217  -17.1354 O   0  0  0  0  0  0  0  0  0  0  0  0
   16.6038   -7.4330  -20.4049 N   0  0  0  0  0  0  0  0  0  0  0  0
   17.9371   -7.0605  -20.0705 C   0  0  0  0  0  0  0  0  0  0  0  0
   18.3670   -5.9490  -20.4449 O   0  0  0  0  0  0  0  0  0  0  0  0
   18.7724   -8.0213  -19.2802 C   0  0  0  0  0  0  0  0  0  0  0  0
   17.9623   -9.2640  -18.9764 C   0  0  0  0  0  0  0  0  0  0  0  0
   18.8306  -10.2484  -18.2221 C   0  0  2  0  0  0  0  0  0  0  0  0
   18.1100  -11.4805  -18.0264 N   0  0  0  0  0  0  0  0  0  0  0  0
   19.2169   -9.6339  -16.9079 C   0  0  0  0  0  0  0  0  0  0  0  0
   18.4101   -9.6495  -15.9449 O   0  0  0  0  0  0  0  0  0  0  0  0
   23.5521  -10.3379  -13.0863 C   0  0  0  0  0  0  0  0  0  0  0  0
   22.6097   -9.2736  -13.5981 C   0  0  0  0  0  0  0  0  0  0  0  0
   22.0475   -9.5781  -14.9468 C   0  0  2  0  0  0  0  0  0  0  0  0
   23.1958   -9.7771  -15.9091 C   0  0  0  0  0  0  0  0  0  0  0  0
   21.0221   -8.6204  -15.4395 C   0  0  2  0  0  0  0  0  0  0  0  0
   20.4928   -9.0334  -16.7463 N   0  0  0  0  0  0  0  0  0  0  0  0
   21.3942   -7.2135  -15.4723 C   0  0  0  0  0  0  0  0  0  0  0  0
   21.6055   -6.5675  -14.4236 O   0  0  0  0  0  0  0  0  0  0  0  0
   21.5230   -6.5559  -16.6837 O   0  0  0  0  0  0  0  0  0  0  0  0
  2  1  1  1
  2  4  1  0
  2  3  1  0
  5  7  1  0
  5  6  1  6
  5  4  1  0
  7  8  2  0
  9 10  1  0
 10 11  2  0
 10 12  1  0
 12 13  1  0
 14 13  1  1
 14 16  1  0
 15 14  1  0
 15  7  1  0
 16 17  2  0
 18 19  1  0
 19 20  1  0
 20 22  1  0
 20 21  1  6
 22 24  1  0
 23 16  1  0
 22 23  1  6
 24 25  2  0
 24 26  1  0
M  END
$$$$
