LQI.pdb
     RDKit          3D

 26 25  0  0  1  0  0  0  0  0999 V2000
   26.9887  -16.9852  -18.8039 C   0  0  0  0  0  0  0  0  0  0  0  0
   27.2413  -18.4954  -18.8541 C   0  0  2  0  0  0  0  0  0  0  0  0
   26.5389  -19.0709  -20.0798 C   0  0  0  0  0  0  0  0  0  0  0  0
   26.7810  -19.1515  -17.5795 C   0  0  0  0  0  0  0  0  0  0  0  0
   27.5100  -18.5773  -16.4164 C   0  0  2  0  0  0  0  0  0  0  0  0
   28.8896  -18.3101  -16.7233 N   0  0  0  0  0  0  0  0  0  0  0  0
   27.4018  -19.5012  -15.2360 C   0  0  0  0  0  0  0  0  0  0  0  0
   26.4305  -20.2718  -15.1406 O   0  0  0  0  0  0  0  0  0  0  0  0
   30.9626  -21.8161  -10.6065 N   0  0  0  0  0  0  0  0  0  0  0  0
   31.3256  -21.9206  -11.9796 C   0  0  0  0  0  0  0  0  0  0  0  0
   32.1534  -22.7912  -12.3224 O   0  0  0  0  0  0  0  0  0  0  0  0
   30.6970  -20.9782  -12.9604 C   0  0  0  0  0  0  0  0  0  0  0  0
   29.6242  -20.1665  -12.2652 C   0  0  0  0  0  0  0  0  0  0  0  0
   28.3326  -20.2814  -13.0465 C   0  0  2  0  0  0  0  0  0  0  0  0
   28.4153  -19.4808  -14.2414 N   0  0  0  0  0  0  0  0  0  0  0  0
   27.2024  -19.8269  -12.1688 C   0  0  0  0  0  0  0  0  0  0  0  0
   27.0051  -18.6002  -11.9821 O   0  0  0  0  0  0  0  0  0  0  0  0
   21.6632  -19.5057  -11.4273 C   0  0  0  0  0  0  0  0  0  0  0  0
   22.7417  -20.1176  -10.5641 C   0  0  0  0  0  0  0  0  0  0  0  0
   23.9296  -20.5819  -11.3394 C   0  0  2  0  0  0  0  0  0  0  0  0
   23.6787  -22.0016  -11.7931 C   0  0  0  0  0  0  0  0  0  0  0  0
   25.2413  -20.4002  -10.6630 C   0  0  2  0  0  0  0  0  0  0  0  0
   26.3525  -20.7783  -11.5467 N   0  0  0  0  0  0  0  0  0  0  0  0
   25.4040  -21.0258   -9.3588 C   0  0  0  0  0  0  0  0  0  0  0  0
   24.8786  -20.5451   -8.3318 O   0  0  0  0  0  0  0  0  0  0  0  0
   26.1546  -22.1819   -9.2304 O   0  0  0  0  0  0  0  0  0  0  0  0
  2  1  1  1
  2  4  1  0
  2  3  1  0
  5  7  1  0
  5  6  1  6
  5  4  1  0
  7  8  2  0
  9 10  1  0
 10 11  2  0
 10 12  1  0
 12 13  1  0
 14 13  1  1
 14 16  1  0
 15 14  1  0
 15  7  1  0
 16 17  2  0
 18 19  1  0
 19 20  1  0
 20 22  1  0
 20 21  1  1
 22 24  1  0
 23 16  1  0
 22 23  1  6
 24 25  2  0
 24 26  1  0
M  END
$$$$
