LQI.pdb
     RDKit          3D

 26 25  0  0  1  0  0  0  0  0999 V2000
   10.7891  -12.6090  -12.4258 C   0  0  0  0  0  0  0  0  0  0  0  0
   11.4516  -13.4253  -11.3115 C   0  0  2  0  0  0  0  0  0  0  0  0
   10.4750  -13.5500  -10.1463 C   0  0  0  0  0  0  0  0  0  0  0  0
   12.7519  -12.7921  -10.8931 C   0  0  0  0  0  0  0  0  0  0  0  0
   13.6824  -12.7207  -12.0521 C   0  0  2  0  0  0  0  0  0  0  0  0
   14.3046  -13.9890  -12.3227 N   0  0  0  0  0  0  0  0  0  0  0  0
   14.7230  -11.6637  -11.8105 C   0  0  0  0  0  0  0  0  0  0  0  0
   15.5471  -11.8060  -10.8902 O   0  0  0  0  0  0  0  0  0  0  0  0
   18.8281   -9.6796  -13.9251 N   0  0  0  0  0  0  0  0  0  0  0  0
   18.6084   -8.3033  -13.6327 C   0  0  0  0  0  0  0  0  0  0  0  0
   19.5943   -7.5480  -13.4986 O   0  0  0  0  0  0  0  0  0  0  0  0
   17.1978   -7.8161  -13.4975 C   0  0  0  0  0  0  0  0  0  0  0  0
   16.2410   -8.9634  -13.7442 C   0  0  0  0  0  0  0  0  0  0  0  0
   15.6755   -9.4297  -12.4195 C   0  0  2  0  0  0  0  0  0  0  0  0
   14.7504  -10.5118  -12.6405 N   0  0  0  0  0  0  0  0  0  0  0  0
   14.9977   -8.2668  -11.7546 C   0  0  0  0  0  0  0  0  0  0  0  0
   13.8289   -7.9465  -12.0860 O   0  0  0  0  0  0  0  0  0  0  0  0
   13.2670   -6.3007   -6.6067 C   0  0  0  0  0  0  0  0  0  0  0  0
   13.8410   -5.7888   -7.9072 C   0  0  0  0  0  0  0  0  0  0  0  0
   14.5644   -6.8348   -8.6886 C   0  0  2  0  0  0  0  0  0  0  0  0
   15.6509   -7.4177   -7.8147 C   0  0  0  0  0  0  0  0  0  0  0  0
   15.0484   -6.4071  -10.0280 C   0  0  2  0  0  0  0  0  0  0  0  0
   15.6719   -7.5244  -10.7502 N   0  0  0  0  0  0  0  0  0  0  0  0
   15.9125   -5.2366  -10.0751 C   0  0  0  0  0  0  0  0  0  0  0  0
   17.1278   -5.3305  -10.3502 O   0  0  0  0  0  0  0  0  0  0  0  0
   15.3959   -3.9794   -9.8121 O   0  0  0  0  0  0  0  0  0  0  0  0
  2  1  1  6
  2  4  1  0
  2  3  1  0
  5  7  1  0
  5  6  1  1
  5  4  1  0
  7  8  2  0
  9 10  1  0
 10 11  2  0
 10 12  1  0
 12 13  1  0
 14 13  1  6
 14 16  1  0
 15 14  1  0
 15  7  1  0
 16 17  2  0
 18 19  1  0
 19 20  1  0
 20 22  1  0
 20 21  1  1
 22 24  1  0
 23 16  1  0
 22 23  1  1
 24 25  2  0
 24 26  1  0
M  END
$$$$
