LQI.pdb
     RDKit          3D

 26 25  0  0  1  0  0  0  0  0999 V2000
   26.9976  -18.3890   -7.1868 C   0  0  0  0  0  0  0  0  0  0  0  0
   27.1865  -19.8626   -6.8125 C   0  0  2  0  0  0  0  0  0  0  0  0
   28.4951  -20.0104   -6.0427 C   0  0  0  0  0  0  0  0  0  0  0  0
   27.1541  -20.7294   -8.0430 C   0  0  0  0  0  0  0  0  0  0  0  0
   25.8609  -20.5549   -8.7579 C   0  0  2  0  0  0  0  0  0  0  0  0
   24.7963  -21.2944   -8.1345 N   0  0  0  0  0  0  0  0  0  0  0  0
   26.0115  -20.9595  -10.1974 C   0  0  0  0  0  0  0  0  0  0  0  0
   26.7385  -21.9231  -10.4962 O   0  0  0  0  0  0  0  0  0  0  0  0
   25.5223  -23.7655  -13.1680 N   0  0  0  0  0  0  0  0  0  0  0  0
   24.9608  -23.2470  -14.3696 C   0  0  0  0  0  0  0  0  0  0  0  0
   25.1485  -23.8625  -15.4404 O   0  0  0  0  0  0  0  0  0  0  0  0
   24.1647  -21.9795  -14.2996 C   0  0  0  0  0  0  0  0  0  0  0  0
   24.1073  -21.4973  -12.8653 C   0  0  0  0  0  0  0  0  0  0  0  0
   25.3219  -20.6388  -12.5829 C   0  0  2  0  0  0  0  0  0  0  0  0
   25.3181  -20.2321  -11.2008 N   0  0  0  0  0  0  0  0  0  0  0  0
   25.2869  -19.4479  -13.4965 C   0  0  0  0  0  0  0  0  0  0  0  0
   24.5437  -18.4710  -13.2283 O   0  0  0  0  0  0  0  0  0  0  0  0
   29.0133  -16.6622  -17.5550 C   0  0  0  0  0  0  0  0  0  0  0  0
   27.6069  -16.8686  -17.0426 C   0  0  0  0  0  0  0  0  0  0  0  0
   27.4814  -18.0214  -16.1028 C   0  0  2  0  0  0  0  0  0  0  0  0
   28.1270  -19.2299  -16.7406 C   0  0  0  0  0  0  0  0  0  0  0  0
   26.1079  -18.2825  -15.5965 C   0  0  2  0  0  0  0  0  0  0  0  0
   26.0912  -19.4191  -14.6656 N   0  0  0  0  0  0  0  0  0  0  0  0
   25.0555  -18.4345  -16.5906 C   0  0  0  0  0  0  0  0  0  0  0  0
   24.3626  -17.4639  -16.9641 O   0  0  0  0  0  0  0  0  0  0  0  0
   24.7993  -19.6753  -17.1486 O   0  0  0  0  0  0  0  0  0  0  0  0
  2  1  1  6
  2  4  1  0
  2  3  1  0
  5  7  1  0
  5  6  1  1
  5  4  1  0
  7  8  2  0
  9 10  1  0
 10 11  2  0
 10 12  1  0
 12 13  1  0
 14 13  1  1
 14 16  1  0
 15 14  1  0
 15  7  1  0
 16 17  2  0
 18 19  1  0
 19 20  1  0
 20 22  1  0
 20 21  1  6
 22 24  1  0
 23 16  1  0
 22 23  1  6
 24 25  2  0
 24 26  1  0
M  END
$$$$
