LQI.pdb
     RDKit          3D

 26 25  0  0  1  0  0  0  0  0999 V2000
   27.9729  -18.6756   -6.2537 C   0  0  0  0  0  0  0  0  0  0  0  0
   27.5812  -20.1548   -6.3292 C   0  0  2  0  0  0  0  0  0  0  0  0
   28.6135  -20.9764   -5.5634 C   0  0  0  0  0  0  0  0  0  0  0  0
   27.4584  -20.5972   -7.7631 C   0  0  0  0  0  0  0  0  0  0  0  0
   26.6211  -19.6324   -8.5262 C   0  0  2  0  0  0  0  0  0  0  0  0
   25.4849  -19.1856   -7.7657 N   0  0  0  0  0  0  0  0  0  0  0  0
   26.1781  -20.2505   -9.8224 C   0  0  0  0  0  0  0  0  0  0  0  0
   26.8643  -21.1448  -10.3476 O   0  0  0  0  0  0  0  0  0  0  0  0
   22.0809  -21.0797   -9.4058 N   0  0  0  0  0  0  0  0  0  0  0  0
   21.9824  -22.0327  -10.4596 C   0  0  0  0  0  0  0  0  0  0  0  0
   21.4998  -23.1585  -10.2144 O   0  0  0  0  0  0  0  0  0  0  0  0
   22.4636  -21.6438  -11.8243 C   0  0  0  0  0  0  0  0  0  0  0  0
   23.0201  -20.2362  -11.7819 C   0  0  0  0  0  0  0  0  0  0  0  0
   24.5307  -20.3034  -11.7072 C   0  0  2  0  0  0  0  0  0  0  0  0
   24.9763  -19.8024  -10.4319 N   0  0  0  0  0  0  0  0  0  0  0  0
   25.1005  -19.4928  -12.8351 C   0  0  0  0  0  0  0  0  0  0  0  0
   24.9518  -18.2453  -12.8509 O   0  0  0  0  0  0  0  0  0  0  0  0
   29.6489  -18.2452  -16.0558 C   0  0  0  0  0  0  0  0  0  0  0  0
   28.4630  -19.1117  -16.4102 C   0  0  0  0  0  0  0  0  0  0  0  0
   27.8129  -19.7415  -15.2233 C   0  0  2  0  0  0  0  0  0  0  0  0
   28.0715  -21.2298  -15.2707 C   0  0  0  0  0  0  0  0  0  0  0  0
   26.3803  -19.3961  -15.0248 C   0  0  2  0  0  0  0  0  0  0  0  0
   25.8088  -20.1297  -13.8874 N   0  0  0  0  0  0  0  0  0  0  0  0
   25.5068  -19.5103  -16.1837 C   0  0  0  0  0  0  0  0  0  0  0  0
   25.4958  -18.6430  -17.0833 O   0  0  0  0  0  0  0  0  0  0  0  0
   24.6601  -20.5980  -16.3123 O   0  0  0  0  0  0  0  0  0  0  0  0
  2  1  1  6
  2  4  1  0
  2  3  1  0
  5  7  1  0
  5  6  1  1
  5  4  1  0
  7  8  2  0
  9 10  1  0
 10 11  2  0
 10 12  1  0
 12 13  1  0
 14 13  1  1
 14 16  1  0
 15 14  1  0
 15  7  1  0
 16 17  2  0
 18 19  1  0
 19 20  1  0
 20 22  1  0
 20 21  1  6
 22 24  1  0
 23 16  1  0
 22 23  1  1
 24 25  2  0
 24 26  1  0
M  END
$$$$
