LQI.pdb
     RDKit          3D

 26 25  0  0  1  0  0  0  0  0999 V2000
   20.7137  -17.8667  -17.7890 C   0  0  0  0  0  0  0  0  0  0  0  0
   20.1658  -16.9885  -18.9185 C   0  0  2  0  0  0  0  0  0  0  0  0
   20.4217  -17.6852  -20.2512 C   0  0  0  0  0  0  0  0  0  0  0  0
   20.7850  -15.6170  -18.8702 C   0  0  0  0  0  0  0  0  0  0  0  0
   20.3211  -14.8886  -17.6584 C   0  0  2  0  0  0  0  0  0  0  0  0
   18.9755  -15.2458  -17.2969 N   0  0  0  0  0  0  0  0  0  0  0  0
   20.4325  -13.4059  -17.8768 C   0  0  0  0  0  0  0  0  0  0  0  0
   21.4917  -12.9230  -18.3141 O   0  0  0  0  0  0  0  0  0  0  0  0
   15.7988   -9.4000  -17.4176 N   0  0  0  0  0  0  0  0  0  0  0  0
   15.7307  -10.8198  -17.3305 C   0  0  0  0  0  0  0  0  0  0  0  0
   14.6829  -11.3507  -16.9050 O   0  0  0  0  0  0  0  0  0  0  0  0
   16.9235  -11.6215  -17.7545 C   0  0  0  0  0  0  0  0  0  0  0  0
   17.9870  -10.6936  -18.3030 C   0  0  0  0  0  0  0  0  0  0  0  0
   19.3441  -11.1519  -17.8129 C   0  0  2  0  0  0  0  0  0  0  0  0
   19.3212  -12.5734  -17.5793 N   0  0  0  0  0  0  0  0  0  0  0  0
   19.6744  -10.4029  -16.5544 C   0  0  0  0  0  0  0  0  0  0  0  0
   19.1403  -10.7344  -15.4665 O   0  0  0  0  0  0  0  0  0  0  0  0
   23.1384  -10.7658  -14.1588 C   0  0  0  0  0  0  0  0  0  0  0  0
   23.2376   -9.9588  -15.4323 C   0  0  0  0  0  0  0  0  0  0  0  0
   22.5715   -8.6261  -15.3433 C   0  0  2  0  0  0  0  0  0  0  0  0
   23.1350   -7.8893  -14.1501 C   0  0  0  0  0  0  0  0  0  0  0  0
   21.0850   -8.6546  -15.3729 C   0  0  2  0  0  0  0  0  0  0  0  0
   20.5897   -9.3186  -16.5863 N   0  0  0  0  0  0  0  0  0  0  0  0
   20.3963   -7.3869  -15.1796 C   0  0  0  0  0  0  0  0  0  0  0  0
   20.1613   -6.6170  -16.1355 O   0  0  0  0  0  0  0  0  0  0  0  0
   19.9828   -7.0055  -13.9147 O   0  0  0  0  0  0  0  0  0  0  0  0
  2  1  1  1
  2  4  1  0
  2  3  1  0
  5  7  1  0
  5  6  1  6
  5  4  1  0
  7  8  2  0
  9 10  1  0
 10 11  2  0
 10 12  1  0
 12 13  1  0
 14 13  1  1
 14 16  1  0
 15 14  1  0
 15  7  1  0
 16 17  2  0
 18 19  1  0
 19 20  1  0
 20 22  1  0
 20 21  1  1
 22 24  1  0
 23 16  1  0
 22 23  1  6
 24 25  2  0
 24 26  1  0
M  END
$$$$
