HHE.pdb
     RDKit          3D

 30 31  0  0  1  0  0  0  0  0999 V2000
   12.7323  -21.0085    3.7901 N   0  0  0  0  0  0  0  0  0  0  0  0
   13.9279  -20.2070    3.8551 C   0  0  1  0  0  0  0  0  0  0  0  0
   13.4976  -18.7626    3.9507 C   0  0  0  0  0  0  0  0  0  0  0  0
   12.8160  -18.4173    2.6701 C   0  0  0  0  0  0  0  0  0  0  0  0
   12.6957  -19.2133    1.5481 C   0  0  0  0  0  0  0  0  0  0  0  0
   12.0109  -18.5124    0.6253 N   0  0  0  0  0  0  0  0  0  0  0  0
   11.6940  -17.3134    1.1110 C   0  0  0  0  0  0  0  0  0  0  0  0
   12.1819  -17.2560    2.3503 N   0  0  0  0  0  0  0  0  0  0  0  0
   14.7765  -20.6281    4.9866 C   0  0  0  0  0  0  0  0  0  0  0  0
   14.3113  -21.4620    5.8289 O   0  0  0  0  0  0  0  0  0  0  0  0
   16.1125  -20.0994    5.1301 N   0  0  0  0  0  0  0  0  0  0  0  0
   16.8632  -20.4836    6.2759 C   0  0  1  0  0  0  0  0  0  0  0  0
   17.1779  -21.9452    6.3301 C   0  0  0  0  0  0  0  0  0  0  0  0
   17.6677  -22.5666    5.0990 C   0  0  0  0  0  0  0  0  0  0  0  0
   17.9431  -22.0955    3.8511 C   0  0  0  0  0  0  0  0  0  0  0  0
   18.3912  -23.1114    3.0944 N   0  0  0  0  0  0  0  0  0  0  0  0
   18.3995  -24.2096    3.8533 C   0  0  0  0  0  0  0  0  0  0  0  0
   17.9642  -23.9021    5.0738 N   0  0  0  0  0  0  0  0  0  0  0  0
   18.1559  -19.7351    6.4145 C   0  0  0  0  0  0  0  0  0  0  0  0
   18.6356  -19.1897    5.3944 O   0  0  0  0  0  0  0  0  0  0  0  0
   18.8533  -19.6181    7.6345 N   0  0  0  0  0  0  0  0  0  0  0  0
   19.8391  -18.6053    7.9286 C   0  0  1  0  0  0  0  0  0  0  0  0
   19.3108  -17.2116    7.9088 C   0  0  0  0  0  0  0  0  0  0  0  0
   20.3501  -16.1628    8.2414 C   0  0  0  0  0  0  0  0  0  0  0  0
   19.7008  -14.8487    8.1067 C   0  0  0  0  0  0  0  0  0  0  0  0
   18.4875  -14.7867    7.8380 O   0  0  0  0  0  0  0  0  0  0  0  0
   20.3735  -18.8838    9.2884 C   0  0  0  0  0  0  0  0  0  0  0  0
   19.7816  -19.6552   10.1049 O   0  0  0  0  0  0  0  0  0  0  0  0
   20.4267  -13.6935    8.2763 O   0  0  0  0  0  0  0  0  0  0  0  0
   21.5585  -18.3158    9.7547 O   0  0  0  0  0  0  0  0  0  0  0  0
  2  1  1  1
  2  9  1  0
  2  3  1  0
  4  3  1  0
  4  8  1  0
  5  6  1  0
  5  4  2  0
  6  7  1  0
  7  8  2  0
  9 11  1  0
 10  9  2  0
 11 12  1  0
 12 13  1  6
 13 14  1  0
 14 18  1  0
 15 14  2  0
 15 16  1  0
 16 17  1  0
 18 17  2  0
 19 21  1  0
 19 12  1  0
 20 19  2  0
 22 27  1  0
 22 23  1  1
 22 21  1  0
 24 23  1  0
 25 24  1  0
 26 25  2  0
 27 30  1  0
 28 27  2  0
 29 25  1  0
M  END
$$$$
