HHE.pdb
     RDKit          3D

 30 31  0  0  1  0  0  0  0  0999 V2000
   19.3879   -9.8202  -20.0588 N   0  0  0  0  0  0  0  0  0  0  0  0
   18.1763   -9.1482  -19.6633 C   0  0  1  0  0  0  0  0  0  0  0  0
   17.0249  -10.0744  -19.9744 C   0  0  0  0  0  0  0  0  0  0  0  0
   16.9696  -10.2308  -21.4564 C   0  0  0  0  0  0  0  0  0  0  0  0
   16.6901   -9.2512  -22.3888 C   0  0  0  0  0  0  0  0  0  0  0  0
   16.7431   -9.8232  -23.6060 N   0  0  0  0  0  0  0  0  0  0  0  0
   17.0424  -11.1155  -23.4863 C   0  0  0  0  0  0  0  0  0  0  0  0
   17.1798  -11.3623  -22.1834 N   0  0  0  0  0  0  0  0  0  0  0  0
   18.2344   -8.7645  -18.2394 C   0  0  0  0  0  0  0  0  0  0  0  0
   17.2297   -8.1827  -17.7166 O   0  0  0  0  0  0  0  0  0  0  0  0
   19.4145   -9.0480  -17.4572 N   0  0  0  0  0  0  0  0  0  0  0  0
   19.4107   -8.6757  -16.0841 C   0  0  1  0  0  0  0  0  0  0  0  0
   19.7092   -9.8060  -15.1505 C   0  0  0  0  0  0  0  0  0  0  0  0
   18.7207  -10.8822  -15.0711 C   0  0  0  0  0  0  0  0  0  0  0  0
   17.4890  -11.0724  -15.6205 C   0  0  0  0  0  0  0  0  0  0  0  0
   17.0175  -12.2661  -15.2228 N   0  0  0  0  0  0  0  0  0  0  0  0
   17.9384  -12.8233  -14.4331 C   0  0  0  0  0  0  0  0  0  0  0  0
   18.9805  -12.0008  -14.3271 N   0  0  0  0  0  0  0  0  0  0  0  0
   20.3665   -7.5628  -15.7703 C   0  0  0  0  0  0  0  0  0  0  0  0
   21.5143   -7.6110  -16.2688 O   0  0  0  0  0  0  0  0  0  0  0  0
   20.0344   -6.4701  -14.9431 N   0  0  0  0  0  0  0  0  0  0  0  0
   20.9340   -5.3973  -14.5909 C   0  0  1  0  0  0  0  0  0  0  0  0
   20.2934   -4.0523  -14.5386 C   0  0  0  0  0  0  0  0  0  0  0  0
   19.8308   -3.5465  -15.8880 C   0  0  0  0  0  0  0  0  0  0  0  0
   19.0998   -2.2904  -15.6545 C   0  0  0  0  0  0  0  0  0  0  0  0
   17.9123   -2.1939  -16.0131 O   0  0  0  0  0  0  0  0  0  0  0  0
   21.4893   -5.7037  -13.2457 C   0  0  0  0  0  0  0  0  0  0  0  0
   21.0301   -6.6381  -12.5190 O   0  0  0  0  0  0  0  0  0  0  0  0
   19.7215   -1.2271  -15.0437 O   0  0  0  0  0  0  0  0  0  0  0  0
   22.5497   -4.9848  -12.6952 O   0  0  0  0  0  0  0  0  0  0  0  0
  2  1  1  1
  2  9  1  0
  2  3  1  0
  4  3  1  0
  4  8  1  0
  5  6  1  0
  5  4  2  0
  6  7  1  0
  7  8  2  0
  9 11  1  0
 10  9  2  0
 11 12  1  0
 12 13  1  1
 13 14  1  0
 14 18  1  0
 15 14  2  0
 15 16  1  0
 16 17  1  0
 18 17  2  0
 19 21  1  0
 19 12  1  0
 20 19  2  0
 22 27  1  0
 22 23  1  1
 22 21  1  0
 24 23  1  0
 25 24  1  0
 26 25  2  0
 27 30  1  0
 28 27  2  0
 29 25  1  0
M  END
$$$$
