HHE.pdb
     RDKit          3D

 30 31  0  0  1  0  0  0  0  0999 V2000
   26.3735  -21.6809   -9.6163 N   0  0  0  0  0  0  0  0  0  0  0  0
   26.0728  -20.2815   -9.7817 C   0  0  1  0  0  0  0  0  0  0  0  0
   27.3720  -19.5229   -9.6519 C   0  0  0  0  0  0  0  0  0  0  0  0
   27.8115  -19.6358   -8.2313 C   0  0  0  0  0  0  0  0  0  0  0  0
   27.1842  -20.3318   -7.2169 C   0  0  0  0  0  0  0  0  0  0  0  0
   27.9154  -20.1660   -6.0991 N   0  0  0  0  0  0  0  0  0  0  0  0
   28.9729  -19.3993   -6.3596 C   0  0  0  0  0  0  0  0  0  0  0  0
   28.9099  -19.0782   -7.6519 N   0  0  0  0  0  0  0  0  0  0  0  0
   25.3963  -20.0428  -11.0713 C   0  0  0  0  0  0  0  0  0  0  0  0
   25.1791  -18.8437  -11.4405 O   0  0  0  0  0  0  0  0  0  0  0  0
   24.9903  -21.1558  -11.8968 N   0  0  0  0  0  0  0  0  0  0  0  0
   24.3366  -20.8705  -13.1278 C   0  0  1  0  0  0  0  0  0  0  0  0
   24.9460  -21.5571  -14.3091 C   0  0  0  0  0  0  0  0  0  0  0  0
   26.2543  -21.0771  -14.7560 C   0  0  0  0  0  0  0  0  0  0  0  0
   26.6654  -19.9976  -15.4777 C   0  0  0  0  0  0  0  0  0  0  0  0
   28.0044  -20.0326  -15.5836 N   0  0  0  0  0  0  0  0  0  0  0  0
   28.4342  -21.1189  -14.9375 C   0  0  0  0  0  0  0  0  0  0  0  0
   27.3889  -21.7677  -14.4274 N   0  0  0  0  0  0  0  0  0  0  0  0
   22.8743  -21.2049  -13.1125 C   0  0  0  0  0  0  0  0  0  0  0  0
   22.5193  -22.2806  -12.5784 O   0  0  0  0  0  0  0  0  0  0  0  0
   21.8851  -20.3685  -13.6696 N   0  0  0  0  0  0  0  0  0  0  0  0
   20.4619  -20.5761  -13.5452 C   0  0  1  0  0  0  0  0  0  0  0  0
   19.6754  -19.3262  -13.3424 C   0  0  0  0  0  0  0  0  0  0  0  0
   19.4074  -18.5624  -14.6212 C   0  0  0  0  0  0  0  0  0  0  0  0
   18.4691  -17.4773  -14.2914 C   0  0  0  0  0  0  0  0  0  0  0  0
   17.2817  -17.5595  -14.6536 O   0  0  0  0  0  0  0  0  0  0  0  0
   19.9941  -21.2251  -14.7990 C   0  0  0  0  0  0  0  0  0  0  0  0
   20.6600  -21.1736  -15.8788 O   0  0  0  0  0  0  0  0  0  0  0  0
   18.8978  -16.3773  -13.5867 O   0  0  0  0  0  0  0  0  0  0  0  0
   18.7941  -21.9317  -14.8701 O   0  0  0  0  0  0  0  0  0  0  0  0
  2  1  1  6
  2  9  1  0
  2  3  1  0
  4  3  1  0
  4  8  1  0
  5  6  1  0
  5  4  2  0
  6  7  1  0
  7  8  2  0
  9 11  1  0
 10  9  2  0
 11 12  1  0
 12 13  1  6
 13 14  1  0
 14 18  1  0
 15 14  2  0
 15 16  1  0
 16 17  1  0
 18 17  2  0
 19 21  1  0
 19 12  1  0
 20 19  2  0
 22 27  1  0
 22 23  1  6
 22 21  1  0
 24 23  1  0
 25 24  1  0
 26 25  2  0
 27 30  1  0
 28 27  2  0
 29 25  1  0
M  END
$$$$
