HHE.pdb
     RDKit          3D

 30 31  0  0  1  0  0  0  0  0999 V2000
   26.6194  -32.7462   -1.8322 N   0  0  0  0  0  0  0  0  0  0  0  0
   27.1736  -33.9360   -1.2380 C   0  0  1  0  0  0  0  0  0  0  0  0
   28.4319  -34.2765   -2.0003 C   0  0  0  0  0  0  0  0  0  0  0  0
   28.0226  -34.6660   -3.3804 C   0  0  0  0  0  0  0  0  0  0  0  0
   28.4124  -34.0727   -4.5649 C   0  0  0  0  0  0  0  0  0  0  0  0
   27.8084  -34.7358   -5.5684 N   0  0  0  0  0  0  0  0  0  0  0  0
   27.0569  -35.7180   -5.0742 C   0  0  0  0  0  0  0  0  0  0  0  0
   27.1869  -35.6757   -3.7480 N   0  0  0  0  0  0  0  0  0  0  0  0
   27.4141  -33.7347    0.2041 C   0  0  0  0  0  0  0  0  0  0  0  0
   28.1929  -32.7977    0.5739 O   0  0  0  0  0  0  0  0  0  0  0  0
   26.7729  -34.5898    1.1749 N   0  0  0  0  0  0  0  0  0  0  0  0
   27.0275  -34.3439    2.5528 C   0  0  1  0  0  0  0  0  0  0  0  0
   25.8131  -33.9454    3.3303 C   0  0  0  0  0  0  0  0  0  0  0  0
   25.5243  -32.5139    3.4259 C   0  0  0  0  0  0  0  0  0  0  0  0
   26.3027  -31.3999    3.5159 C   0  0  0  0  0  0  0  0  0  0  0  0
   25.5065  -30.3184    3.5606 N   0  0  0  0  0  0  0  0  0  0  0  0
   24.2422  -30.7425    3.4992 C   0  0  0  0  0  0  0  0  0  0  0  0
   24.2294  -32.0717    3.4171 N   0  0  0  0  0  0  0  0  0  0  0  0
   27.6543  -35.5114    3.2561 C   0  0  0  0  0  0  0  0  0  0  0  0
   27.3180  -36.6647    2.9024 O   0  0  0  0  0  0  0  0  0  0  0  0
   28.5998  -35.3714    4.2929 N   0  0  0  0  0  0  0  0  0  0  0  0
   29.1995  -36.4667    5.0174 C   0  0  1  0  0  0  0  0  0  0  0  0
   30.4295  -36.0998    5.7754 C   0  0  0  0  0  0  0  0  0  0  0  0
   31.0114  -37.2424    6.5795 C   0  0  0  0  0  0  0  0  0  0  0  0
   32.1416  -36.7001    7.3510 C   0  0  0  0  0  0  0  0  0  0  0  0
   32.5288  -37.2930    8.3741 O   0  0  0  0  0  0  0  0  0  0  0  0
   28.1872  -36.9705    5.9835 C   0  0  0  0  0  0  0  0  0  0  0  0
   28.2218  -38.1516    6.4480 O   0  0  0  0  0  0  0  0  0  0  0  0
   32.7692  -35.5455    6.9471 O   0  0  0  0  0  0  0  0  0  0  0  0
   27.1347  -36.1788    6.4415 O   0  0  0  0  0  0  0  0  0  0  0  0
  2  1  1  6
  2  9  1  0
  2  3  1  0
  4  3  1  0
  4  8  1  0
  5  6  1  0
  5  4  2  0
  6  7  1  0
  7  8  2  0
  9 11  1  0
 10  9  2  0
 11 12  1  0
 12 13  1  1
 13 14  1  0
 14 18  1  0
 15 14  2  0
 15 16  1  0
 16 17  1  0
 18 17  2  0
 19 21  1  0
 19 12  1  0
 20 19  2  0
 22 27  1  0
 22 23  1  1
 22 21  1  0
 24 23  1  0
 25 24  1  0
 26 25  2  0
 27 30  1  0
 28 27  2  0
 29 25  1  0
M  END
$$$$
