HHE.pdb
     RDKit          3D

 30 31  0  0  1  0  0  0  0  0999 V2000
   27.1816  -19.7664  -17.6750 N   0  0  0  0  0  0  0  0  0  0  0  0
   25.7892  -19.9910  -17.9693 C   0  0  1  0  0  0  0  0  0  0  0  0
   25.7210  -21.0436  -19.0500 C   0  0  0  0  0  0  0  0  0  0  0  0
   26.3754  -20.4760  -20.2638 C   0  0  0  0  0  0  0  0  0  0  0  0
   27.5010  -19.6772  -20.3084 C   0  0  0  0  0  0  0  0  0  0  0  0
   27.7439  -19.3907  -21.6008 N   0  0  0  0  0  0  0  0  0  0  0  0
   26.8263  -19.9699  -22.3731 C   0  0  0  0  0  0  0  0  0  0  0  0
   25.9970  -20.6277  -21.5626 N   0  0  0  0  0  0  0  0  0  0  0  0
   25.0539  -20.3746  -16.7487 C   0  0  0  0  0  0  0  0  0  0  0  0
   23.8381  -20.7388  -16.8506 O   0  0  0  0  0  0  0  0  0  0  0  0
   25.7090  -20.3359  -15.4624 N   0  0  0  0  0  0  0  0  0  0  0  0
   24.9375  -20.6544  -14.3103 C   0  0  1  0  0  0  0  0  0  0  0  0
   25.7084  -20.5897  -13.0298 C   0  0  0  0  0  0  0  0  0  0  0  0
   24.9619  -20.8162  -11.7916 C   0  0  0  0  0  0  0  0  0  0  0  0
   23.6653  -21.1304  -11.5174 C   0  0  0  0  0  0  0  0  0  0  0  0
   23.5189  -21.2399  -10.1862 N   0  0  0  0  0  0  0  0  0  0  0  0
   24.7066  -20.9987   -9.6263 C   0  0  0  0  0  0  0  0  0  0  0  0
   25.5971  -20.7392  -10.5820 N   0  0  0  0  0  0  0  0  0  0  0  0
   23.7229  -19.7881  -14.1537 C   0  0  0  0  0  0  0  0  0  0  0  0
   23.8852  -18.5479  -14.0920 O   0  0  0  0  0  0  0  0  0  0  0  0
   22.4126  -20.3029  -14.0724 N   0  0  0  0  0  0  0  0  0  0  0  0
   21.2269  -19.5117  -13.8437 C   0  0  1  0  0  0  0  0  0  0  0  0
   20.4029  -19.2755  -15.0632 C   0  0  0  0  0  0  0  0  0  0  0  0
   19.6061  -20.4852  -15.5021 C   0  0  0  0  0  0  0  0  0  0  0  0
   18.1824  -20.1197  -15.4251 C   0  0  0  0  0  0  0  0  0  0  0  0
   17.8294  -18.9590  -15.7012 O   0  0  0  0  0  0  0  0  0  0  0  0
   20.3923  -20.2354  -12.8479 C   0  0  0  0  0  0  0  0  0  0  0  0
   20.5359  -21.4754  -12.6157 O   0  0  0  0  0  0  0  0  0  0  0  0
   17.2440  -21.0523  -15.0510 O   0  0  0  0  0  0  0  0  0  0  0  0
   19.3981  -19.5996  -12.1053 O   0  0  0  0  0  0  0  0  0  0  0  0
  2  1  1  1
  2  9  1  0
  2  3  1  0
  4  3  1  0
  4  8  1  0
  5  6  1  0
  5  4  2  0
  6  7  1  0
  7  8  2  0
  9 11  1  0
 10  9  2  0
 11 12  1  0
 12 13  1  1
 13 14  1  0
 14 18  1  0
 15 14  2  0
 15 16  1  0
 16 17  1  0
 18 17  2  0
 19 21  1  0
 19 12  1  0
 20 19  2  0
 22 27  1  0
 22 23  1  6
 22 21  1  0
 24 23  1  0
 25 24  1  0
 26 25  2  0
 27 30  1  0
 28 27  2  0
 29 25  1  0
M  END
$$$$
