HHE.pdb
     RDKit          3D

 30 31  0  0  1  0  0  0  0  0999 V2000
   15.9196  -10.1709   -9.9929 N   0  0  0  0  0  0  0  0  0  0  0  0
   15.5682   -9.0779  -10.8634 C   0  0  1  0  0  0  0  0  0  0  0  0
   14.5519   -8.2308  -10.1355 C   0  0  0  0  0  0  0  0  0  0  0  0
   13.3496   -9.0820   -9.9034 C   0  0  0  0  0  0  0  0  0  0  0  0
   13.0427  -10.2783  -10.5213 C   0  0  0  0  0  0  0  0  0  0  0  0
   11.8694  -10.7049  -10.0184 N   0  0  0  0  0  0  0  0  0  0  0  0
   11.4219   -9.8359   -9.1137 C   0  0  0  0  0  0  0  0  0  0  0  0
   12.3192   -8.8524   -9.0441 N   0  0  0  0  0  0  0  0  0  0  0  0
   16.7706   -8.3183  -11.2573 C   0  0  0  0  0  0  0  0  0  0  0  0
   17.8386   -8.4600  -10.5788 O   0  0  0  0  0  0  0  0  0  0  0  0
   16.7297   -7.4305  -12.3954 N   0  0  0  0  0  0  0  0  0  0  0  0
   17.9347   -6.7769  -12.7760 C   0  0  1  0  0  0  0  0  0  0  0  0
   19.0716   -7.7122  -13.0421 C   0  0  0  0  0  0  0  0  0  0  0  0
   20.3117   -7.1245  -13.5505 C   0  0  0  0  0  0  0  0  0  0  0  0
   21.2965   -6.3703  -12.9881 C   0  0  0  0  0  0  0  0  0  0  0  0
   22.2301   -6.1134  -13.9196 N   0  0  0  0  0  0  0  0  0  0  0  0
   21.8413   -6.6974  -15.0554 C   0  0  0  0  0  0  0  0  0  0  0  0
   20.6795   -7.3167  -14.8544 N   0  0  0  0  0  0  0  0  0  0  0  0
   17.7761   -5.8997  -13.9826 C   0  0  0  0  0  0  0  0  0  0  0  0
   17.5339   -6.4460  -15.0830 O   0  0  0  0  0  0  0  0  0  0  0  0
   17.8874   -4.4947  -13.9356 N   0  0  0  0  0  0  0  0  0  0  0  0
   17.7319   -3.6154  -15.0700 C   0  0  1  0  0  0  0  0  0  0  0  0
   16.9084   -2.4032  -14.7976 C   0  0  0  0  0  0  0  0  0  0  0  0
   17.3444   -1.6358  -13.5680 C   0  0  0  0  0  0  0  0  0  0  0  0
   16.4483   -0.4753  -13.4390 C   0  0  0  0  0  0  0  0  0  0  0  0
   15.6371   -0.2204  -14.3474 O   0  0  0  0  0  0  0  0  0  0  0  0
   19.0911   -3.1747  -15.4829 C   0  0  0  0  0  0  0  0  0  0  0  0
   20.1340   -3.4916  -14.8318 O   0  0  0  0  0  0  0  0  0  0  0  0
   16.5033    0.3254  -12.3227 O   0  0  0  0  0  0  0  0  0  0  0  0
   19.3081   -2.3849  -16.6114 O   0  0  0  0  0  0  0  0  0  0  0  0
  2  1  1  1
  2  9  1  0
  2  3  1  0
  4  3  1  0
  4  8  1  0
  5  6  1  0
  5  4  2  0
  6  7  1  0
  7  8  2  0
  9 11  1  0
 10  9  2  0
 11 12  1  0
 12 13  1  6
 13 14  1  0
 14 18  1  0
 15 14  2  0
 15 16  1  0
 16 17  1  0
 18 17  2  0
 19 21  1  0
 19 12  1  0
 20 19  2  0
 22 27  1  0
 22 23  1  1
 22 21  1  0
 24 23  1  0
 25 24  1  0
 26 25  2  0
 27 30  1  0
 28 27  2  0
 29 25  1  0
M  END
$$$$
