HHE.pdb
     RDKit          3D

 30 31  0  0  1  0  0  0  0  0999 V2000
   19.9139  -14.7897  -17.0998 N   0  0  0  0  0  0  0  0  0  0  0  0
   19.8092  -13.6358  -17.9562 C   0  0  1  0  0  0  0  0  0  0  0  0
   18.3522  -13.2417  -18.0053 C   0  0  0  0  0  0  0  0  0  0  0  0
   17.6271  -14.3153  -18.7438 C   0  0  0  0  0  0  0  0  0  0  0  0
   18.1799  -15.4057  -19.3858 C   0  0  0  0  0  0  0  0  0  0  0  0
   17.1698  -16.1159  -19.9214 N   0  0  0  0  0  0  0  0  0  0  0  0
   16.0072  -15.5262  -19.6483 C   0  0  0  0  0  0  0  0  0  0  0  0
   16.2845  -14.4349  -18.9344 N   0  0  0  0  0  0  0  0  0  0  0  0
   20.6811  -12.5475  -17.4731 C   0  0  0  0  0  0  0  0  0  0  0  0
   20.5353  -12.1243  -16.2811 O   0  0  0  0  0  0  0  0  0  0  0  0
   21.6819  -11.9766  -18.3434 N   0  0  0  0  0  0  0  0  0  0  0  0
   22.4798  -10.9135  -17.8363 C   0  0  1  0  0  0  0  0  0  0  0  0
   23.7362  -10.6769  -18.6132 C   0  0  0  0  0  0  0  0  0  0  0  0
   24.6220   -9.6132  -18.1381 C   0  0  0  0  0  0  0  0  0  0  0  0
   24.6013   -8.7815  -17.0597 C   0  0  0  0  0  0  0  0  0  0  0  0
   25.6889   -7.9936  -17.1001 N   0  0  0  0  0  0  0  0  0  0  0  0
   26.3880   -8.3227  -18.1887 C   0  0  0  0  0  0  0  0  0  0  0  0
   25.7590   -9.3035  -18.8337 N   0  0  0  0  0  0  0  0  0  0  0  0
   21.7439   -9.6088  -17.7542 C   0  0  0  0  0  0  0  0  0  0  0  0
   21.1605   -9.1934  -18.7815 O   0  0  0  0  0  0  0  0  0  0  0  0
   21.6794   -8.8313  -16.5795 N   0  0  0  0  0  0  0  0  0  0  0  0
   20.9047   -7.6222  -16.4306 C   0  0  1  0  0  0  0  0  0  0  0  0
   19.4823   -7.8489  -16.0471 C   0  0  0  0  0  0  0  0  0  0  0  0
   19.3154   -8.5273  -14.7044 C   0  0  0  0  0  0  0  0  0  0  0  0
   17.8710   -8.6003  -14.4304 C   0  0  0  0  0  0  0  0  0  0  0  0
   17.2249   -7.5521  -14.2521 O   0  0  0  0  0  0  0  0  0  0  0  0
   21.5512   -6.8056  -15.3690 C   0  0  0  0  0  0  0  0  0  0  0  0
   22.4922   -7.2560  -14.6453 O   0  0  0  0  0  0  0  0  0  0  0  0
   17.2349   -9.8178  -14.3712 O   0  0  0  0  0  0  0  0  0  0  0  0
   21.1658   -5.4929  -15.0993 O   0  0  0  0  0  0  0  0  0  0  0  0
  2  1  1  1
  2  9  1  0
  2  3  1  0
  4  3  1  0
  4  8  1  0
  5  6  1  0
  5  4  2  0
  6  7  1  0
  7  8  2  0
  9 11  1  0
 10  9  2  0
 11 12  1  0
 12 13  1  6
 13 14  1  0
 14 18  1  0
 15 14  2  0
 15 16  1  0
 16 17  1  0
 18 17  2  0
 19 21  1  0
 19 12  1  0
 20 19  2  0
 22 27  1  0
 22 23  1  1
 22 21  1  0
 24 23  1  0
 25 24  1  0
 26 25  2  0
 27 30  1  0
 28 27  2  0
 29 25  1  0
M  END
$$$$
