HHE.pdb
     RDKit          3D

 30 31  0  0  1  0  0  0  0  0999 V2000
   26.6615  -22.4116  -11.2927 N   0  0  0  0  0  0  0  0  0  0  0  0
   25.8994  -21.2728  -10.8476 C   0  0  1  0  0  0  0  0  0  0  0  0
   26.6508  -20.6501   -9.6951 C   0  0  0  0  0  0  0  0  0  0  0  0
   28.0846  -20.5635  -10.0956 C   0  0  0  0  0  0  0  0  0  0  0  0
   28.6552  -19.6518  -10.9617 C   0  0  0  0  0  0  0  0  0  0  0  0
   29.9688  -19.9343  -11.0401 N   0  0  0  0  0  0  0  0  0  0  0  0
   30.2540  -20.9797  -10.2657 C   0  0  0  0  0  0  0  0  0  0  0  0
   29.1119  -21.3609   -9.6932 N   0  0  0  0  0  0  0  0  0  0  0  0
   25.6732  -20.3300  -11.9602 C   0  0  0  0  0  0  0  0  0  0  0  0
   24.9461  -19.3040  -11.7603 O   0  0  0  0  0  0  0  0  0  0  0  0
   26.2705  -20.5728  -13.2522 N   0  0  0  0  0  0  0  0  0  0  0  0
   26.0250  -19.6300  -14.2890 C   0  0  1  0  0  0  0  0  0  0  0  0
   27.1680  -19.4663  -15.2402 C   0  0  0  0  0  0  0  0  0  0  0  0
   26.9709  -18.5528  -16.3665 C   0  0  0  0  0  0  0  0  0  0  0  0
   25.9585  -17.7213  -16.7389 C   0  0  0  0  0  0  0  0  0  0  0  0
   26.3128  -17.0878  -17.8696 N   0  0  0  0  0  0  0  0  0  0  0  0
   27.5325  -17.5124  -18.2074 C   0  0  0  0  0  0  0  0  0  0  0  0
   27.9513  -18.4020  -17.3091 N   0  0  0  0  0  0  0  0  0  0  0  0
   24.8020  -19.9460  -15.0985 C   0  0  0  0  0  0  0  0  0  0  0  0
   24.6891  -21.0993  -15.5733 O   0  0  0  0  0  0  0  0  0  0  0  0
   23.7787  -19.0088  -15.3491 N   0  0  0  0  0  0  0  0  0  0  0  0
   22.4752  -19.3311  -15.8793 C   0  0  1  0  0  0  0  0  0  0  0  0
   21.4032  -19.4368  -14.8490 C   0  0  0  0  0  0  0  0  0  0  0  0
   20.4466  -18.2639  -14.8446 C   0  0  0  0  0  0  0  0  0  0  0  0
   19.1871  -18.7320  -14.2436 C   0  0  0  0  0  0  0  0  0  0  0  0
   19.2192  -19.4392  -13.2204 O   0  0  0  0  0  0  0  0  0  0  0  0
   22.1023  -18.2531  -16.8337 C   0  0  0  0  0  0  0  0  0  0  0  0
   22.6577  -17.1114  -16.8181 O   0  0  0  0  0  0  0  0  0  0  0  0
   17.9794  -18.3920  -14.8060 O   0  0  0  0  0  0  0  0  0  0  0  0
   21.1187  -18.4259  -17.8068 O   0  0  0  0  0  0  0  0  0  0  0  0
  2  1  1  6
  2  9  1  0
  2  3  1  0
  4  3  1  0
  4  8  1  0
  5  6  1  0
  5  4  2  0
  6  7  1  0
  7  8  2  0
  9 11  1  0
 10  9  2  0
 11 12  1  0
 12 13  1  6
 13 14  1  0
 14 18  1  0
 15 14  2  0
 15 16  1  0
 16 17  1  0
 18 17  2  0
 19 21  1  0
 19 12  1  0
 20 19  2  0
 22 27  1  0
 22 23  1  1
 22 21  1  0
 24 23  1  0
 25 24  1  0
 26 25  2  0
 27 30  1  0
 28 27  2  0
 29 25  1  0
M  END
$$$$
