HHE.pdb
     RDKit          3D

 30 31  0  0  1  0  0  0  0  0999 V2000
   19.6017  -10.0624  -15.0694 N   0  0  0  0  0  0  0  0  0  0  0  0
   19.8298   -9.5653  -13.7364 C   0  0  1  0  0  0  0  0  0  0  0  0
   20.9195   -8.5235  -13.8242 C   0  0  0  0  0  0  0  0  0  0  0  0
   22.1736   -9.2260  -14.2212 C   0  0  0  0  0  0  0  0  0  0  0  0
   22.3249  -10.5705  -14.4979 C   0  0  0  0  0  0  0  0  0  0  0  0
   23.6175  -10.7770  -14.8108 N   0  0  0  0  0  0  0  0  0  0  0  0
   24.2884   -9.6283  -14.7446 C   0  0  0  0  0  0  0  0  0  0  0  0
   23.4131   -8.6884  -14.3874 N   0  0  0  0  0  0  0  0  0  0  0  0
   18.5794   -9.0389  -13.1556 C   0  0  0  0  0  0  0  0  0  0  0  0
   17.7688   -8.4074  -13.9074 O   0  0  0  0  0  0  0  0  0  0  0  0
   18.2858   -9.2409  -11.7563 N   0  0  0  0  0  0  0  0  0  0  0  0
   17.0646   -8.7172  -11.2479 C   0  0  1  0  0  0  0  0  0  0  0  0
   16.3833   -9.6170  -10.2659 C   0  0  0  0  0  0  0  0  0  0  0  0
   15.0755   -9.1894   -9.7676 C   0  0  0  0  0  0  0  0  0  0  0  0
   14.2998   -8.0902   -9.9804 C   0  0  0  0  0  0  0  0  0  0  0  0
   13.1650   -8.2180   -9.2724 N   0  0  0  0  0  0  0  0  0  0  0  0
   13.2220   -9.3819   -8.6211 C   0  0  0  0  0  0  0  0  0  0  0  0
   14.3729   -9.9881   -8.9070 N   0  0  0  0  0  0  0  0  0  0  0  0
   17.2216   -7.3734  -10.5997 C   0  0  0  0  0  0  0  0  0  0  0  0
   18.1178   -7.2346   -9.7360 O   0  0  0  0  0  0  0  0  0  0  0  0
   16.4102   -6.2643  -10.9157 N   0  0  0  0  0  0  0  0  0  0  0  0
   16.6575   -4.9096  -10.4822 C   0  0  1  0  0  0  0  0  0  0  0  0
   16.9190   -3.9490  -11.5917 C   0  0  0  0  0  0  0  0  0  0  0  0
   17.0169   -2.5085  -11.1380 C   0  0  0  0  0  0  0  0  0  0  0  0
   17.2915   -1.6937  -12.3327 C   0  0  0  0  0  0  0  0  0  0  0  0
   17.4136   -2.2475  -13.4402 O   0  0  0  0  0  0  0  0  0  0  0  0
   15.4527   -4.4511   -9.7405 C   0  0  0  0  0  0  0  0  0  0  0  0
   14.2893   -4.8887   -9.9997 O   0  0  0  0  0  0  0  0  0  0  0  0
   17.4127   -0.3280  -12.2306 O   0  0  0  0  0  0  0  0  0  0  0  0
   15.5224   -3.5110   -8.7131 O   0  0  0  0  0  0  0  0  0  0  0  0
  2  1  1  6
  2  9  1  0
  2  3  1  0
  4  3  1  0
  4  8  1  0
  5  6  1  0
  5  4  2  0
  6  7  1  0
  7  8  2  0
  9 11  1  0
 10  9  2  0
 11 12  1  0
 12 13  1  1
 13 14  1  0
 14 18  1  0
 15 14  2  0
 15 16  1  0
 16 17  1  0
 18 17  2  0
 19 21  1  0
 19 12  1  0
 20 19  2  0
 22 27  1  0
 22 23  1  6
 22 21  1  0
 24 23  1  0
 25 24  1  0
 26 25  2  0
 27 30  1  0
 28 27  2  0
 29 25  1  0
M  END
$$$$
