HHE.pdb
     RDKit          3D

 30 31  0  0  1  0  0  0  0  0999 V2000
   39.8842  -11.7536   -6.7787 N   0  0  0  0  0  0  0  0  0  0  0  0
   41.1562  -11.3648   -7.3326 C   0  0  1  0  0  0  0  0  0  0  0  0
   40.8947  -10.7972   -8.7073 C   0  0  0  0  0  0  0  0  0  0  0  0
   41.3319  -11.8203   -9.7001 C   0  0  0  0  0  0  0  0  0  0  0  0
   41.8682  -13.0649   -9.4344 C   0  0  0  0  0  0  0  0  0  0  0  0
   42.1220  -13.6576  -10.6158 N   0  0  0  0  0  0  0  0  0  0  0  0
   41.7721  -12.8473  -11.6132 C   0  0  0  0  0  0  0  0  0  0  0  0
   41.2931  -11.7339  -11.0581 N   0  0  0  0  0  0  0  0  0  0  0  0
   41.8435  -10.4113   -6.4402 C   0  0  0  0  0  0  0  0  0  0  0  0
   41.1758   -9.4560   -5.9278 O   0  0  0  0  0  0  0  0  0  0  0  0
   43.2509  -10.5654   -6.1565 N   0  0  0  0  0  0  0  0  0  0  0  0
   43.8689   -9.6085   -5.3042 C   0  0  1  0  0  0  0  0  0  0  0  0
   45.2305  -10.0099   -4.8318 C   0  0  0  0  0  0  0  0  0  0  0  0
   45.8865   -9.1280   -3.8656 C   0  0  0  0  0  0  0  0  0  0  0  0
   45.4855   -8.0264   -3.1721 C   0  0  0  0  0  0  0  0  0  0  0  0
   46.5002   -7.6112   -2.3954 N   0  0  0  0  0  0  0  0  0  0  0  0
   47.5285   -8.4388   -2.5945 C   0  0  0  0  0  0  0  0  0  0  0  0
   47.1783   -9.3671   -3.4830 N   0  0  0  0  0  0  0  0  0  0  0  0
   43.9869   -8.2494   -5.9282 C   0  0  0  0  0  0  0  0  0  0  0  0
   44.2715   -8.1806   -7.1458 O   0  0  0  0  0  0  0  0  0  0  0  0
   43.7937   -7.0510   -5.2106 N   0  0  0  0  0  0  0  0  0  0  0  0
   43.7709   -5.7318   -5.7966 C   0  0  1  0  0  0  0  0  0  0  0  0
   42.8538   -4.7742   -5.1156 C   0  0  0  0  0  0  0  0  0  0  0  0
   42.8551   -3.3906   -5.7290 C   0  0  0  0  0  0  0  0  0  0  0  0
   41.8489   -2.5941   -5.0080 C   0  0  0  0  0  0  0  0  0  0  0  0
   42.1240   -2.1213   -3.8905 O   0  0  0  0  0  0  0  0  0  0  0  0
   45.1531   -5.1874   -5.7249 C   0  0  0  0  0  0  0  0  0  0  0  0
   45.6936   -4.5780   -6.6988 O   0  0  0  0  0  0  0  0  0  0  0  0
   40.6107   -2.3708   -5.5624 O   0  0  0  0  0  0  0  0  0  0  0  0
   45.9451   -5.3112   -4.5839 O   0  0  0  0  0  0  0  0  0  0  0  0
  2  1  1  1
  2  9  1  0
  2  3  1  0
  4  3  1  0
  4  8  1  0
  5  6  1  0
  5  4  2  0
  6  7  1  0
  7  8  2  0
  9 11  1  0
 10  9  2  0
 11 12  1  0
 12 13  1  6
 13 14  1  0
 14 18  1  0
 15 14  2  0
 15 16  1  0
 16 17  1  0
 18 17  2  0
 19 21  1  0
 19 12  1  0
 20 19  2  0
 22 27  1  0
 22 23  1  1
 22 21  1  0
 24 23  1  0
 25 24  1  0
 26 25  2  0
 27 30  1  0
 28 27  2  0
 29 25  1  0
M  END
$$$$
