HHE.pdb
     RDKit          3D

 30 31  0  0  1  0  0  0  0  0999 V2000
   15.8391  -14.5094  -15.0526 N   0  0  0  0  0  0  0  0  0  0  0  0
   15.5380  -13.1014  -15.1064 C   0  0  1  0  0  0  0  0  0  0  0  0
   14.3424  -12.8618  -14.2156 C   0  0  0  0  0  0  0  0  0  0  0  0
   13.1315  -13.2887  -14.9741 C   0  0  0  0  0  0  0  0  0  0  0  0
   12.9428  -13.2384  -16.3412 C   0  0  0  0  0  0  0  0  0  0  0  0
   11.7119  -13.7180  -16.5985 N   0  0  0  0  0  0  0  0  0  0  0  0
   11.1154  -14.0681  -15.4602 C   0  0  0  0  0  0  0  0  0  0  0  0
   11.9760  -13.8080  -14.4758 N   0  0  0  0  0  0  0  0  0  0  0  0
   16.7144  -12.3016  -14.7138 C   0  0  0  0  0  0  0  0  0  0  0  0
   17.3361  -12.6039  -13.6446 O   0  0  0  0  0  0  0  0  0  0  0  0
   17.1485  -11.1953  -15.5341 N   0  0  0  0  0  0  0  0  0  0  0  0
   18.2733  -10.4415  -15.0976 C   0  0  1  0  0  0  0  0  0  0  0  0
   19.3669  -10.3440  -16.1138 C   0  0  0  0  0  0  0  0  0  0  0  0
   20.0783  -11.5789  -16.4464 C   0  0  0  0  0  0  0  0  0  0  0  0
   19.9572  -12.8739  -16.0420 C   0  0  0  0  0  0  0  0  0  0  0  0
   20.8711  -13.6164  -16.6893 N   0  0  0  0  0  0  0  0  0  0  0  0
   21.5604  -12.8024  -17.4921 C   0  0  0  0  0  0  0  0  0  0  0  0
   21.0961  -11.5611  -17.3608 N   0  0  0  0  0  0  0  0  0  0  0  0
   17.9217   -9.0462  -14.6732 C   0  0  0  0  0  0  0  0  0  0  0  0
   16.9604   -8.4799  -15.2418 O   0  0  0  0  0  0  0  0  0  0  0  0
   18.6207   -8.3455  -13.6688 N   0  0  0  0  0  0  0  0  0  0  0  0
   18.3067   -7.0087  -13.2233 C   0  0  1  0  0  0  0  0  0  0  0  0
   18.2503   -6.8536  -11.7418 C   0  0  0  0  0  0  0  0  0  0  0  0
   16.9661   -7.3653  -11.1256 C   0  0  0  0  0  0  0  0  0  0  0  0
   17.0620   -7.1439   -9.6735 C   0  0  0  0  0  0  0  0  0  0  0  0
   18.0914   -6.6341   -9.1956 O   0  0  0  0  0  0  0  0  0  0  0  0
   19.3633   -6.1032  -13.7487 C   0  0  0  0  0  0  0  0  0  0  0  0
   20.4451   -6.5414  -14.2484 O   0  0  0  0  0  0  0  0  0  0  0  0
   16.0221   -7.4963   -8.8460 O   0  0  0  0  0  0  0  0  0  0  0  0
   19.2345   -4.7150  -13.7262 O   0  0  0  0  0  0  0  0  0  0  0  0
  2  1  1  1
  2  9  1  0
  2  3  1  0
  4  3  1  0
  4  8  1  0
  5  6  1  0
  5  4  2  0
  6  7  1  0
  7  8  2  0
  9 11  1  0
 10  9  2  0
 11 12  1  0
 12 13  1  6
 13 14  1  0
 14 18  1  0
 15 14  2  0
 15 16  1  0
 16 17  1  0
 18 17  2  0
 19 21  1  0
 19 12  1  0
 20 19  2  0
 22 27  1  0
 22 23  1  1
 22 21  1  0
 24 23  1  0
 25 24  1  0
 26 25  2  0
 27 30  1  0
 28 27  2  0
 29 25  1  0
M  END
$$$$
