FFK.pdb
     RDKit          3D

 32 33  0  0  1  0  0  0  0  0999 V2000
   22.7295  -20.3998  -10.9184 N   0  0  0  0  0  0  0  0  0  0  0  0
   24.1764  -20.3120  -10.8973 C   0  0  1  0  0  0  0  0  0  0  0  0
   24.7553  -21.5292  -10.2083 C   0  0  0  0  0  0  0  0  0  0  0  0
   24.4835  -21.4072   -8.7606 C   0  0  0  0  0  0  0  0  0  0  0  0
   25.3384  -20.7141   -7.9370 C   0  0  0  0  0  0  0  0  0  0  0  0
   25.0940  -20.5903   -6.5671 C   0  0  0  0  0  0  0  0  0  0  0  0
   23.9550  -21.1864   -6.0314 C   0  0  0  0  0  0  0  0  0  0  0  0
   23.0979  -21.8790   -6.8456 C   0  0  0  0  0  0  0  0  0  0  0  0
   23.3667  -21.9831   -8.1925 C   0  0  0  0  0  0  0  0  0  0  0  0
   24.6468  -20.1858  -12.2940 C   0  0  0  0  0  0  0  0  0  0  0  0
   23.9384  -20.5518  -13.2564 O   0  0  0  0  0  0  0  0  0  0  0  0
   25.9325  -19.6350  -12.5259 N   0  0  0  0  0  0  0  0  0  0  0  0
   26.3348  -19.2668  -13.8525 C   0  0  1  0  0  0  0  0  0  0  0  0
   27.4627  -18.2320  -13.7430 C   0  0  0  0  0  0  0  0  0  0  0  0
   27.9248  -17.7993  -15.0643 C   0  0  0  0  0  0  0  0  0  0  0  0
   27.3151  -16.7505  -15.7120 C   0  0  0  0  0  0  0  0  0  0  0  0
   27.7629  -16.3428  -16.9763 C   0  0  0  0  0  0  0  0  0  0  0  0
   28.8111  -16.9795  -17.5859 C   0  0  0  0  0  0  0  0  0  0  0  0
   29.4238  -18.0280  -16.9433 C   0  0  0  0  0  0  0  0  0  0  0  0
   28.9753  -18.4305  -15.6855 C   0  0  0  0  0  0  0  0  0  0  0  0
   26.8877  -20.4121  -14.6173 C   0  0  0  0  0  0  0  0  0  0  0  0
   27.5185  -21.2958  -13.9806 O   0  0  0  0  0  0  0  0  0  0  0  0
   26.7533  -20.5751  -16.0056 N   0  0  0  0  0  0  0  0  0  0  0  0
   26.9450  -21.8488  -16.6768 C   0  0  1  0  0  0  0  0  0  0  0  0
   25.9319  -22.8748  -16.2151 C   0  0  0  0  0  0  0  0  0  0  0  0
   25.9478  -24.1481  -16.9756 C   0  0  0  0  0  0  0  0  0  0  0  0
   24.9409  -25.1714  -16.6297 C   0  0  0  0  0  0  0  0  0  0  0  0
   24.9521  -26.4342  -17.4119 C   0  0  0  0  0  0  0  0  0  0  0  0
   23.8705  -27.2900  -17.0013 N   0  0  0  0  0  0  0  0  0  0  0  0
   26.7608  -21.6133  -18.1227 C   0  0  0  0  0  0  0  0  0  0  0  0
   25.7162  -20.8443  -18.5951 O   0  0  0  0  0  0  0  0  0  0  0  0
   27.5558  -22.1126  -18.9384 O   0  0  0  0  0  0  0  0  0  0  0  0
  2  1  1  6
  3  2  1  0
  3  4  1  0
  4  5  2  0
  5  6  1  0
  7  6  2  0
  8  7  1  0
  9  4  1  0
  9  8  2  0
 10 12  1  0
 10  2  1  0
 11 10  2  0
 13 12  1  0
 13 14  1  1
 15 16  2  0
 15 14  1  0
 17 16  1  0
 18 17  2  0
 19 18  1  0
 19 20  2  0
 20 15  1  0
 21 22  2  0
 21 13  1  0
 23 21  1  0
 24 25  1  1
 24 23  1  0
 26 27  1  0
 26 25  1  0
 27 28  1  0
 28 29  1  0
 30 24  1  0
 31 30  1  0
 32 30  2  0
M  END
$$$$
