FFK.pdb
     RDKit          3D

 32 33  0  0  1  0  0  0  0  0999 V2000
   28.1093  -23.2190  -17.2299 N   0  0  0  0  0  0  0  0  0  0  0  0
   27.1731  -22.1266  -17.0521 C   0  0  1  0  0  0  0  0  0  0  0  0
   26.1583  -22.1311  -18.1752 C   0  0  0  0  0  0  0  0  0  0  0  0
   26.7683  -21.4648  -19.3450 C   0  0  0  0  0  0  0  0  0  0  0  0
   27.1862  -22.1920  -20.4341 C   0  0  0  0  0  0  0  0  0  0  0  0
   27.7641  -21.5757  -21.5467 C   0  0  0  0  0  0  0  0  0  0  0  0
   27.9168  -20.1914  -21.5441 C   0  0  0  0  0  0  0  0  0  0  0  0
   27.5029  -19.4593  -20.4624 C   0  0  0  0  0  0  0  0  0  0  0  0
   26.9366  -20.0966  -19.3804 C   0  0  0  0  0  0  0  0  0  0  0  0
   26.5371  -22.2813  -15.7257 C   0  0  0  0  0  0  0  0  0  0  0  0
   26.4191  -23.4023  -15.1856 O   0  0  0  0  0  0  0  0  0  0  0  0
   26.0568  -21.1208  -15.0679 N   0  0  0  0  0  0  0  0  0  0  0  0
   25.5401  -21.2058  -13.7327 C   0  0  1  0  0  0  0  0  0  0  0  0
   26.1441  -20.0602  -12.9094 C   0  0  0  0  0  0  0  0  0  0  0  0
   27.3624  -20.4829  -12.2138 C   0  0  0  0  0  0  0  0  0  0  0  0
   27.2930  -21.0777  -10.9758 C   0  0  0  0  0  0  0  0  0  0  0  0
   28.4632  -21.4788  -10.3166 C   0  0  0  0  0  0  0  0  0  0  0  0
   29.6911  -21.2861  -10.8917 C   0  0  0  0  0  0  0  0  0  0  0  0
   29.7663  -20.6924  -12.1285 C   0  0  0  0  0  0  0  0  0  0  0  0
   28.5996  -20.2948  -12.7810 C   0  0  0  0  0  0  0  0  0  0  0  0
   24.0674  -21.0299  -13.6807 C   0  0  0  0  0  0  0  0  0  0  0  0
   23.5753  -20.0167  -14.2425 O   0  0  0  0  0  0  0  0  0  0  0  0
   23.1861  -21.9199  -13.0458 N   0  0  0  0  0  0  0  0  0  0  0  0
   21.7489  -21.7154  -13.0001 C   0  0  1  0  0  0  0  0  0  0  0  0
   21.1568  -22.2393  -11.7089 C   0  0  0  0  0  0  0  0  0  0  0  0
   19.6806  -22.1307  -11.6143 C   0  0  0  0  0  0  0  0  0  0  0  0
   18.9207  -23.3450  -11.2556 C   0  0  0  0  0  0  0  0  0  0  0  0
   17.4380  -23.2584  -11.2868 C   0  0  0  0  0  0  0  0  0  0  0  0
   16.8531  -24.5464  -11.0225 N   0  0  0  0  0  0  0  0  0  0  0  0
   21.5113  -20.2603  -13.0783 C   0  0  0  0  0  0  0  0  0  0  0  0
   21.9158  -19.4138  -12.0656 O   0  0  0  0  0  0  0  0  0  0  0  0
   20.9370  -19.7783  -14.0705 O   0  0  0  0  0  0  0  0  0  0  0  0
  2  1  1  6
  3  2  1  0
  3  4  1  0
  4  5  2  0
  5  6  1  0
  7  6  2  0
  8  7  1  0
  9  4  1  0
  9  8  2  0
 10 12  1  0
 10  2  1  0
 11 10  2  0
 13 12  1  0
 13 14  1  1
 15 16  2  0
 15 14  1  0
 17 16  1  0
 18 17  2  0
 19 18  1  0
 19 20  2  0
 20 15  1  0
 21 22  2  0
 21 13  1  0
 23 21  1  0
 24 25  1  1
 24 23  1  0
 26 27  1  0
 26 25  1  0
 27 28  1  0
 28 29  1  0
 30 24  1  0
 31 30  1  0
 32 30  2  0
M  END
$$$$
