FFK.pdb
     RDKit          3D

 32 33  0  0  1  0  0  0  0  0999 V2000
   15.0968  -12.7078    7.5458 N   0  0  0  0  0  0  0  0  0  0  0  0
   15.8866  -13.5346    6.6546 C   0  0  1  0  0  0  0  0  0  0  0  0
   17.3563  -13.3909    6.9874 C   0  0  0  0  0  0  0  0  0  0  0  0
   18.0080  -12.6680    5.8751 C   0  0  0  0  0  0  0  0  0  0  0  0
   18.7138  -11.5104    6.1020 C   0  0  0  0  0  0  0  0  0  0  0  0
   19.3351  -10.8169    5.0606 C   0  0  0  0  0  0  0  0  0  0  0  0
   19.2321  -11.3170    3.7649 C   0  0  0  0  0  0  0  0  0  0  0  0
   18.5304  -12.4702    3.5303 C   0  0  0  0  0  0  0  0  0  0  0  0
   17.9290  -13.1310    4.5786 C   0  0  0  0  0  0  0  0  0  0  0  0
   15.4180  -14.9309    6.7917 C   0  0  0  0  0  0  0  0  0  0  0  0
   14.8963  -15.3428    7.8501 O   0  0  0  0  0  0  0  0  0  0  0  0
   15.5728  -15.8063    5.6873 N   0  0  0  0  0  0  0  0  0  0  0  0
   15.1344  -17.1690    5.7755 C   0  0  1  0  0  0  0  0  0  0  0  0
   14.8051  -17.6607    4.3596 C   0  0  0  0  0  0  0  0  0  0  0  0
   15.9631  -17.5482    3.4690 C   0  0  0  0  0  0  0  0  0  0  0  0
   16.2404  -16.3653    2.8248 C   0  0  0  0  0  0  0  0  0  0  0  0
   17.3501  -16.2659    1.9740 C   0  0  0  0  0  0  0  0  0  0  0  0
   18.1739  -17.3408    1.7704 C   0  0  0  0  0  0  0  0  0  0  0  0
   17.9014  -18.5252    2.4114 C   0  0  0  0  0  0  0  0  0  0  0  0
   16.7964  -18.6198    3.2572 C   0  0  0  0  0  0  0  0  0  0  0  0
   16.1885  -18.0725    6.2998 C   0  0  0  0  0  0  0  0  0  0  0  0
   17.3896  -17.7603    6.0896 O   0  0  0  0  0  0  0  0  0  0  0  0
   15.9341  -19.2536    7.0155 N   0  0  0  0  0  0  0  0  0  0  0  0
   16.9870  -20.1022    7.5454 C   0  0  1  0  0  0  0  0  0  0  0  0
   16.4392  -21.1127    8.5309 C   0  0  0  0  0  0  0  0  0  0  0  0
   15.8222  -22.3112    7.9121 C   0  0  0  0  0  0  0  0  0  0  0  0
   15.2176  -23.3170    8.8085 C   0  0  0  0  0  0  0  0  0  0  0  0
   14.6745  -24.5509    8.1846 C   0  0  0  0  0  0  0  0  0  0  0  0
   14.1428  -25.4314    9.1911 N   0  0  0  0  0  0  0  0  0  0  0  0
   17.5834  -20.8239    6.4037 C   0  0  0  0  0  0  0  0  0  0  0  0
   16.9428  -20.8848    5.1823 O   0  0  0  0  0  0  0  0  0  0  0  0
   18.6826  -21.3907    6.5343 O   0  0  0  0  0  0  0  0  0  0  0  0
  2  1  1  1
  3  2  1  0
  3  4  1  0
  4  5  2  0
  5  6  1  0
  7  6  2  0
  8  7  1  0
  9  4  1  0
  9  8  2  0
 10 12  1  0
 10  2  1  0
 11 10  2  0
 13 12  1  0
 13 14  1  6
 15 16  2  0
 15 14  1  0
 17 16  1  0
 18 17  2  0
 19 18  1  0
 19 20  2  0
 20 15  1  0
 21 22  2  0
 21 13  1  0
 23 21  1  0
 24 25  1  1
 24 23  1  0
 26 27  1  0
 26 25  1  0
 27 28  1  0
 28 29  1  0
 30 24  1  0
 31 30  1  0
 32 30  2  0
M  END
$$$$
