FFK.pdb
     RDKit          3D

 32 33  0  0  1  0  0  0  0  0999 V2000
   20.5489  -19.9125  -13.1603 N   0  0  0  0  0  0  0  0  0  0  0  0
   21.5580  -20.9283  -13.3866 C   0  0  1  0  0  0  0  0  0  0  0  0
   21.6273  -21.2649  -14.8608 C   0  0  0  0  0  0  0  0  0  0  0  0
   20.3681  -21.9428  -15.2343 C   0  0  0  0  0  0  0  0  0  0  0  0
   19.3453  -21.2510  -15.8382 C   0  0  0  0  0  0  0  0  0  0  0  0
   18.1499  -21.8787  -16.1970 C   0  0  0  0  0  0  0  0  0  0  0  0
   17.9993  -23.2379  -15.9331 C   0  0  0  0  0  0  0  0  0  0  0  0
   19.0141  -23.9346  -15.3314 C   0  0  0  0  0  0  0  0  0  0  0  0
   20.1808  -23.2869  -14.9897 C   0  0  0  0  0  0  0  0  0  0  0  0
   22.8461  -20.4155  -12.8709 C   0  0  0  0  0  0  0  0  0  0  0  0
   23.2043  -19.2346  -13.0690 O   0  0  0  0  0  0  0  0  0  0  0  0
   23.6791  -21.2982  -12.1381 N   0  0  0  0  0  0  0  0  0  0  0  0
   25.0003  -20.8951  -11.7520 C   0  0  1  0  0  0  0  0  0  0  0  0
   25.4571  -21.7914  -10.5931 C   0  0  0  0  0  0  0  0  0  0  0  0
   26.6974  -21.2980   -9.9891 C   0  0  0  0  0  0  0  0  0  0  0  0
   27.9165  -21.8002  -10.3804 C   0  0  0  0  0  0  0  0  0  0  0  0
   29.0986  -21.3232   -9.7973 C   0  0  0  0  0  0  0  0  0  0  0  0
   29.0602  -20.3527   -8.8318 C   0  0  0  0  0  0  0  0  0  0  0  0
   27.8450  -19.8475   -8.4370 C   0  0  0  0  0  0  0  0  0  0  0  0
   26.6712  -20.3247   -9.0197 C   0  0  0  0  0  0  0  0  0  0  0  0
   25.9916  -21.0782  -12.8411 C   0  0  0  0  0  0  0  0  0  0  0  0
   26.1294  -22.2324  -13.3239 O   0  0  0  0  0  0  0  0  0  0  0  0
   26.7864  -20.0479  -13.3690 N   0  0  0  0  0  0  0  0  0  0  0  0
   27.7051  -20.2434  -14.4769 C   0  0  1  0  0  0  0  0  0  0  0  0
   27.3576  -19.3483  -15.6476 C   0  0  0  0  0  0  0  0  0  0  0  0
   26.7265  -20.0448  -16.7950 C   0  0  0  0  0  0  0  0  0  0  0  0
   27.6067  -20.7805  -17.7249 C   0  0  0  0  0  0  0  0  0  0  0  0
   26.9885  -21.3388  -18.9549 C   0  0  0  0  0  0  0  0  0  0  0  0
   27.9619  -22.0748  -19.7176 N   0  0  0  0  0  0  0  0  0  0  0  0
   29.0552  -19.8932  -13.9927 C   0  0  0  0  0  0  0  0  0  0  0  0
   29.2502  -18.8520  -13.1074 O   0  0  0  0  0  0  0  0  0  0  0  0
   30.0417  -20.5420  -14.3835 O   0  0  0  0  0  0  0  0  0  0  0  0
  2  1  1  6
  3  2  1  0
  3  4  1  0
  4  5  2  0
  5  6  1  0
  7  6  2  0
  8  7  1  0
  9  4  1  0
  9  8  2  0
 10 12  1  0
 10  2  1  0
 11 10  2  0
 13 12  1  0
 13 14  1  1
 15 16  2  0
 15 14  1  0
 17 16  1  0
 18 17  2  0
 19 18  1  0
 19 20  2  0
 20 15  1  0
 21 22  2  0
 21 13  1  0
 23 21  1  0
 24 25  1  6
 24 23  1  0
 26 27  1  0
 26 25  1  0
 27 28  1  0
 28 29  1  0
 30 24  1  0
 31 30  1  0
 32 30  2  0
M  END
$$$$
