FFK.pdb
     RDKit          3D

 32 33  0  0  1  0  0  0  0  0999 V2000
   28.3040  -21.6474  -17.0627 N   0  0  0  0  0  0  0  0  0  0  0  0
   27.4519  -20.6015  -16.5320 C   0  0  1  0  0  0  0  0  0  0  0  0
   26.5315  -20.0874  -17.6183 C   0  0  0  0  0  0  0  0  0  0  0  0
   27.3305  -19.2456  -18.5336 C   0  0  0  0  0  0  0  0  0  0  0  0
   27.6810  -19.6969  -19.7838 C   0  0  0  0  0  0  0  0  0  0  0  0
   28.4354  -18.9122  -20.6594 C   0  0  0  0  0  0  0  0  0  0  0  0
   28.8377  -17.6439  -20.2480 C   0  0  0  0  0  0  0  0  0  0  0  0
   28.4925  -17.1868  -19.0034 C   0  0  0  0  0  0  0  0  0  0  0  0
   27.7478  -17.9846  -18.1631 C   0  0  0  0  0  0  0  0  0  0  0  0
   26.7031  -21.1603  -15.3854 C   0  0  0  0  0  0  0  0  0  0  0  0
   26.3278  -22.3523  -15.3699 O   0  0  0  0  0  0  0  0  0  0  0  0
   26.4140  -20.3093  -14.2888 N   0  0  0  0  0  0  0  0  0  0  0  0
   25.7571  -20.8264  -13.1234 C   0  0  1  0  0  0  0  0  0  0  0  0
   26.2743  -20.0585  -11.8995 C   0  0  0  0  0  0  0  0  0  0  0  0
   27.6678  -20.3988  -11.6014 C   0  0  0  0  0  0  0  0  0  0  0  0
   27.9799  -21.2043  -10.5313 C   0  0  0  0  0  0  0  0  0  0  0  0
   29.3157  -21.5249  -10.2525 C   0  0  0  0  0  0  0  0  0  0  0  0
   30.3292  -21.0434  -11.0377 C   0  0  0  0  0  0  0  0  0  0  0  0
   30.0231  -20.2382  -12.1081 C   0  0  0  0  0  0  0  0  0  0  0  0
   28.6928  -19.9216  -12.3821 C   0  0  0  0  0  0  0  0  0  0  0  0
   24.2881  -20.6192  -13.1599 C   0  0  0  0  0  0  0  0  0  0  0  0
   23.8585  -19.4374  -13.1040 O   0  0  0  0  0  0  0  0  0  0  0  0
   23.3449  -21.6555  -13.2526 N   0  0  0  0  0  0  0  0  0  0  0  0
   21.9194  -21.4195  -13.4003 C   0  0  1  0  0  0  0  0  0  0  0  0
   21.2216  -22.6158  -14.0120 C   0  0  0  0  0  0  0  0  0  0  0  0
   20.8658  -23.6860  -13.0487 C   0  0  0  0  0  0  0  0  0  0  0  0
   20.1950  -24.8923  -13.5736 C   0  0  0  0  0  0  0  0  0  0  0  0
   20.9161  -25.6823  -14.6044 C   0  0  0  0  0  0  0  0  0  0  0  0
   20.1659  -26.8604  -14.9513 N   0  0  0  0  0  0  0  0  0  0  0  0
   21.3721  -21.1872  -12.0489 C   0  0  0  0  0  0  0  0  0  0  0  0
   20.1063  -20.6664  -11.8693 O   0  0  0  0  0  0  0  0  0  0  0  0
   22.0560  -21.4624  -11.0472 O   0  0  0  0  0  0  0  0  0  0  0  0
  2  1  1  6
  3  2  1  0
  3  4  1  0
  4  5  2  0
  5  6  1  0
  7  6  2  0
  8  7  1  0
  9  4  1  0
  9  8  2  0
 10 12  1  0
 10  2  1  0
 11 10  2  0
 13 12  1  0
 13 14  1  1
 15 16  2  0
 15 14  1  0
 17 16  1  0
 18 17  2  0
 19 18  1  0
 19 20  2  0
 20 15  1  0
 21 22  2  0
 21 13  1  0
 23 21  1  0
 24 25  1  1
 24 23  1  0
 26 27  1  0
 26 25  1  0
 27 28  1  0
 28 29  1  0
 30 24  1  0
 31 30  1  0
 32 30  2  0
M  END
$$$$
