FFK.pdb
     RDKit          3D

 32 33  0  0  1  0  0  0  0  0999 V2000
   27.5762  -21.1739  -13.6851 N   0  0  0  0  0  0  0  0  0  0  0  0
   27.3226  -20.0435  -12.8136 C   0  0  1  0  0  0  0  0  0  0  0  0
   26.1262  -19.2646  -13.3167 C   0  0  0  0  0  0  0  0  0  0  0  0
   26.5595  -18.4624  -14.4800 C   0  0  0  0  0  0  0  0  0  0  0  0
   27.1420  -17.2289  -14.3102 C   0  0  0  0  0  0  0  0  0  0  0  0
   27.5566  -16.4599  -15.4003 C   0  0  0  0  0  0  0  0  0  0  0  0
   27.3717  -16.9623  -16.6860 C   0  0  0  0  0  0  0  0  0  0  0  0
   26.7919  -18.1909  -16.8637 C   0  0  0  0  0  0  0  0  0  0  0  0
   26.3937  -18.9251  -15.7684 C   0  0  0  0  0  0  0  0  0  0  0  0
   27.1150  -20.5606  -11.4435 C   0  0  0  0  0  0  0  0  0  0  0  0
   26.4301  -21.5839  -11.2293 O   0  0  0  0  0  0  0  0  0  0  0  0
   27.7142  -19.8666  -10.3621 N   0  0  0  0  0  0  0  0  0  0  0  0
   27.4667  -20.2779   -9.0105 C   0  0  1  0  0  0  0  0  0  0  0  0
   28.3236  -19.4099   -8.0792 C   0  0  0  0  0  0  0  0  0  0  0  0
   28.1254  -19.7727   -6.6736 C   0  0  0  0  0  0  0  0  0  0  0  0
   28.4222  -21.0392   -6.2273 C   0  0  0  0  0  0  0  0  0  0  0  0
   28.2293  -21.3785   -4.8809 C   0  0  0  0  0  0  0  0  0  0  0  0
   27.7438  -20.4584   -3.9903 C   0  0  0  0  0  0  0  0  0  0  0  0
   27.4455  -19.1916   -4.4308 C   0  0  0  0  0  0  0  0  0  0  0  0
   27.6390  -18.8580   -5.7711 C   0  0  0  0  0  0  0  0  0  0  0  0
   26.0558  -20.0673   -8.6015 C   0  0  0  0  0  0  0  0  0  0  0  0
   25.6040  -18.8928   -8.6283 O   0  0  0  0  0  0  0  0  0  0  0  0
   25.1909  -21.0927   -8.1862 N   0  0  0  0  0  0  0  0  0  0  0  0
   23.8133  -20.8568   -7.7911 C   0  0  1  0  0  0  0  0  0  0  0  0
   22.8424  -21.4476   -8.7913 C   0  0  0  0  0  0  0  0  0  0  0  0
   22.6612  -20.6475  -10.0270 C   0  0  0  0  0  0  0  0  0  0  0  0
   21.7547  -21.1771  -11.0655 C   0  0  0  0  0  0  0  0  0  0  0  0
   21.6267  -20.3981  -12.3239 C   0  0  0  0  0  0  0  0  0  0  0  0
   20.8213  -21.1130  -13.2784 N   0  0  0  0  0  0  0  0  0  0  0  0
   23.6137  -21.5163   -6.4852 C   0  0  0  0  0  0  0  0  0  0  0  0
   22.6492  -21.0758   -5.6012 O   0  0  0  0  0  0  0  0  0  0  0  0
   24.3223  -22.4872   -6.1662 O   0  0  0  0  0  0  0  0  0  0  0  0
  2  1  1  6
  3  2  1  0
  3  4  1  0
  4  5  2  0
  5  6  1  0
  7  6  2  0
  8  7  1  0
  9  4  1  0
  9  8  2  0
 10 12  1  0
 10  2  1  0
 11 10  2  0
 13 12  1  0
 13 14  1  1
 15 16  2  0
 15 14  1  0
 17 16  1  0
 18 17  2  0
 19 18  1  0
 19 20  2  0
 20 15  1  0
 21 22  2  0
 21 13  1  0
 23 21  1  0
 24 25  1  6
 24 23  1  0
 26 27  1  0
 26 25  1  0
 27 28  1  0
 28 29  1  0
 30 24  1  0
 31 30  1  0
 32 30  2  0
M  END
$$$$
