FFK.pdb
     RDKit          3D

 32 33  0  0  1  0  0  0  0  0999 V2000
   25.0375  -20.4123  -18.4714 N   0  0  0  0  0  0  0  0  0  0  0  0
   24.0784  -19.4247  -18.0171 C   0  0  1  0  0  0  0  0  0  0  0  0
   23.1444  -19.0560  -19.1498 C   0  0  0  0  0  0  0  0  0  0  0  0
   23.9220  -18.3038  -20.1568 C   0  0  0  0  0  0  0  0  0  0  0  0
   24.2652  -18.8778  -21.3578 C   0  0  0  0  0  0  0  0  0  0  0  0
   24.9994  -18.1788  -22.3189 C   0  0  0  0  0  0  0  0  0  0  0  0
   25.3889  -16.8698  -22.0459 C   0  0  0  0  0  0  0  0  0  0  0  0
   25.0508  -16.2904  -20.8512 C   0  0  0  0  0  0  0  0  0  0  0  0
   24.3260  -17.0061  -19.9239 C   0  0  0  0  0  0  0  0  0  0  0  0
   23.3535  -19.9909  -16.8588 C   0  0  0  0  0  0  0  0  0  0  0  0
   23.2452  -21.2255  -16.6972 O   0  0  0  0  0  0  0  0  0  0  0  0
   22.7755  -19.0974  -15.9219 N   0  0  0  0  0  0  0  0  0  0  0  0
   22.0530  -19.6014  -14.7900 C   0  0  1  0  0  0  0  0  0  0  0  0
   22.0630  -18.5258  -13.6955 C   0  0  0  0  0  0  0  0  0  0  0  0
   21.3928  -18.9915  -12.4787 C   0  0  0  0  0  0  0  0  0  0  0  0
   20.2086  -18.4247  -12.0691 C   0  0  0  0  0  0  0  0  0  0  0  0
   19.5739  -18.8756  -10.9034 C   0  0  0  0  0  0  0  0  0  0  0  0
   20.1199  -19.8843  -10.1552 C   0  0  0  0  0  0  0  0  0  0  0  0
   21.3029  -20.4542  -10.5597 C   0  0  0  0  0  0  0  0  0  0  0  0
   21.9312  -20.0027  -11.7201 C   0  0  0  0  0  0  0  0  0  0  0  0
   20.6273  -19.8725  -15.1003 C   0  0  0  0  0  0  0  0  0  0  0  0
   19.9922  -19.0054  -15.7554 O   0  0  0  0  0  0  0  0  0  0  0  0
   19.9397  -21.0333  -14.7110 N   0  0  0  0  0  0  0  0  0  0  0  0
   18.5511  -21.2853  -15.0544 C   0  0  1  0  0  0  0  0  0  0  0  0
   18.1764  -22.7325  -14.8149 C   0  0  0  0  0  0  0  0  0  0  0  0
   16.7650  -23.0673  -15.1243 C   0  0  0  0  0  0  0  0  0  0  0  0
   16.3481  -24.4789  -15.0047 C   0  0  0  0  0  0  0  0  0  0  0  0
   14.9196  -24.7946  -15.2628 C   0  0  0  0  0  0  0  0  0  0  0  0
   14.7047  -26.2171  -15.2286 N   0  0  0  0  0  0  0  0  0  0  0  0
   17.7226  -20.4274  -14.1840 C   0  0  0  0  0  0  0  0  0  0  0  0
   18.1188  -20.1177  -12.8984 O   0  0  0  0  0  0  0  0  0  0  0  0
   16.6462  -19.9704  -14.6073 O   0  0  0  0  0  0  0  0  0  0  0  0
  2  1  1  6
  3  2  1  0
  3  4  1  0
  4  5  2  0
  5  6  1  0
  7  6  2  0
  8  7  1  0
  9  4  1  0
  9  8  2  0
 10 12  1  0
 10  2  1  0
 11 10  2  0
 13 12  1  0
 13 14  1  1
 15 16  2  0
 15 14  1  0
 17 16  1  0
 18 17  2  0
 19 18  1  0
 19 20  2  0
 20 15  1  0
 21 22  2  0
 21 13  1  0
 23 21  1  0
 24 25  1  1
 24 23  1  0
 26 27  1  0
 26 25  1  0
 27 28  1  0
 28 29  1  0
 30 24  1  0
 31 30  1  0
 32 30  2  0
M  END
$$$$
