FFK.pdb
     RDKit          3D

 32 33  0  0  1  0  0  0  0  0999 V2000
   26.2907  -16.5871  -19.1816 N   0  0  0  0  0  0  0  0  0  0  0  0
   25.4029  -16.6136  -18.0360 C   0  0  1  0  0  0  0  0  0  0  0  0
   23.9695  -16.7616  -18.4996 C   0  0  0  0  0  0  0  0  0  0  0  0
   23.5235  -15.4559  -19.0294 C   0  0  0  0  0  0  0  0  0  0  0  0
   23.2066  -14.4206  -18.1824 C   0  0  0  0  0  0  0  0  0  0  0  0
   22.7841  -13.1811  -18.6690 C   0  0  0  0  0  0  0  0  0  0  0  0
   22.6843  -12.9985  -20.0461 C   0  0  0  0  0  0  0  0  0  0  0  0
   22.9983  -14.0255  -20.8970 C   0  0  0  0  0  0  0  0  0  0  0  0
   23.4120  -15.2359  -20.3861 C   0  0  0  0  0  0  0  0  0  0  0  0
   25.8226  -17.7279  -17.1584 C   0  0  0  0  0  0  0  0  0  0  0  0
   26.2973  -18.7846  -17.6277 O   0  0  0  0  0  0  0  0  0  0  0  0
   25.6756  -17.5752  -15.7565 N   0  0  0  0  0  0  0  0  0  0  0  0
   26.0276  -18.6461  -14.8698 C   0  0  1  0  0  0  0  0  0  0  0  0
   26.2032  -18.0653  -13.4603 C   0  0  0  0  0  0  0  0  0  0  0  0
   26.5422  -19.1077  -12.4881 C   0  0  0  0  0  0  0  0  0  0  0  0
   25.6843  -19.4114  -11.4572 C   0  0  0  0  0  0  0  0  0  0  0  0
   26.0162  -20.4098  -10.5309 C   0  0  0  0  0  0  0  0  0  0  0  0
   27.1959  -21.0974  -10.6361 C   0  0  0  0  0  0  0  0  0  0  0  0
   28.0568  -20.7981  -11.6642 C   0  0  0  0  0  0  0  0  0  0  0  0
   27.7228  -19.8040  -12.5837 C   0  0  0  0  0  0  0  0  0  0  0  0
   24.9630  -19.6754  -14.7708 C   0  0  0  0  0  0  0  0  0  0  0  0
   23.7912  -19.2884  -14.5228 O   0  0  0  0  0  0  0  0  0  0  0  0
   25.1769  -21.0534  -14.9356 N   0  0  0  0  0  0  0  0  0  0  0  0
   24.1371  -22.0471  -14.7336 C   0  0  1  0  0  0  0  0  0  0  0  0
   24.6770  -23.4525  -14.8936 C   0  0  0  0  0  0  0  0  0  0  0  0
   23.6872  -24.5292  -14.6466 C   0  0  0  0  0  0  0  0  0  0  0  0
   22.9819  -25.0992  -15.8121 C   0  0  0  0  0  0  0  0  0  0  0  0
   22.0468  -26.2260  -15.5620 C   0  0  0  0  0  0  0  0  0  0  0  0
   22.7711  -27.3985  -15.1480 N   0  0  0  0  0  0  0  0  0  0  0  0
   23.6365  -21.8823  -13.3544 C   0  0  0  0  0  0  0  0  0  0  0  0
   22.2834  -21.8721  -13.0808 O   0  0  0  0  0  0  0  0  0  0  0  0
   24.4403  -21.7493  -12.4148 O   0  0  0  0  0  0  0  0  0  0  0  0
  2  1  1  6
  3  2  1  0
  3  4  1  0
  4  5  2  0
  5  6  1  0
  7  6  2  0
  8  7  1  0
  9  4  1  0
  9  8  2  0
 10 12  1  0
 10  2  1  0
 11 10  2  0
 13 12  1  0
 13 14  1  1
 15 16  2  0
 15 14  1  0
 17 16  1  0
 18 17  2  0
 19 18  1  0
 19 20  2  0
 20 15  1  0
 21 22  2  0
 21 13  1  0
 23 21  1  0
 24 25  1  1
 24 23  1  0
 26 27  1  0
 26 25  1  0
 27 28  1  0
 28 29  1  0
 30 24  1  0
 31 30  1  0
 32 30  2  0
M  END
$$$$
