FFK.pdb
     RDKit          3D

 32 33  0  0  1  0  0  0  0  0999 V2000
   26.1772  -22.5083  -16.2392 N   0  0  0  0  0  0  0  0  0  0  0  0
   25.3970  -21.4897  -15.5645 C   0  0  1  0  0  0  0  0  0  0  0  0
   23.9706  -21.5155  -16.0703 C   0  0  0  0  0  0  0  0  0  0  0  0
   23.9635  -20.9733  -17.4453 C   0  0  0  0  0  0  0  0  0  0  0  0
   23.6314  -21.7681  -18.5166 C   0  0  0  0  0  0  0  0  0  0  0  0
   23.6201  -21.2692  -19.8214 C   0  0  0  0  0  0  0  0  0  0  0  0
   23.9545  -19.9339  -20.0329 C   0  0  0  0  0  0  0  0  0  0  0  0
   24.2867  -19.1350  -18.9705 C   0  0  0  0  0  0  0  0  0  0  0  0
   24.2885  -19.6568  -17.6957 C   0  0  0  0  0  0  0  0  0  0  0  0
   25.4770  -21.7424  -14.1093 C   0  0  0  0  0  0  0  0  0  0  0  0
   25.1838  -22.8560  -13.6235 O   0  0  0  0  0  0  0  0  0  0  0  0
   25.8976  -20.6855  -13.2629 N   0  0  0  0  0  0  0  0  0  0  0  0
   25.9252  -20.8636  -11.8400 C   0  0  1  0  0  0  0  0  0  0  0  0
   26.8291  -19.7798  -11.2372 C   0  0  0  0  0  0  0  0  0  0  0  0
   27.0258  -19.9828   -9.7996 C   0  0  0  0  0  0  0  0  0  0  0  0
   26.2887  -19.2700   -8.8831 C   0  0  0  0  0  0  0  0  0  0  0  0
   26.4831  -19.4697   -7.5093 C   0  0  0  0  0  0  0  0  0  0  0  0
   27.4068  -20.3744   -7.0578 C   0  0  0  0  0  0  0  0  0  0  0  0
   28.1460  -21.0893   -7.9690 C   0  0  0  0  0  0  0  0  0  0  0  0
   27.9494  -20.8877   -9.3350 C   0  0  0  0  0  0  0  0  0  0  0  0
   24.5886  -20.6894  -11.2192 C   0  0  0  0  0  0  0  0  0  0  0  0
   23.8392  -19.7882  -11.6781 O   0  0  0  0  0  0  0  0  0  0  0  0
   24.1043  -21.4643  -10.1529 N   0  0  0  0  0  0  0  0  0  0  0  0
   22.7447  -21.3628   -9.6522 C   0  0  1  0  0  0  0  0  0  0  0  0
   22.4754  -22.3890   -8.5721 C   0  0  0  0  0  0  0  0  0  0  0  0
   21.0876  -22.3892   -8.0487 C   0  0  0  0  0  0  0  0  0  0  0  0
   20.7256  -23.4175   -7.0526 C   0  0  0  0  0  0  0  0  0  0  0  0
   19.3441  -23.3856   -6.5073 C   0  0  0  0  0  0  0  0  0  0  0  0
   19.1680  -24.4197   -5.5222 N   0  0  0  0  0  0  0  0  0  0  0  0
   22.5902  -20.0120   -9.0764 C   0  0  0  0  0  0  0  0  0  0  0  0
   23.5007  -19.5138   -8.1661 O   0  0  0  0  0  0  0  0  0  0  0  0
   21.6256  -19.3019   -9.4110 O   0  0  0  0  0  0  0  0  0  0  0  0
  2  1  1  6
  3  2  1  0
  3  4  1  0
  4  5  2  0
  5  6  1  0
  7  6  2  0
  8  7  1  0
  9  4  1  0
  9  8  2  0
 10 12  1  0
 10  2  1  0
 11 10  2  0
 13 12  1  0
 13 14  1  1
 15 16  2  0
 15 14  1  0
 17 16  1  0
 18 17  2  0
 19 18  1  0
 19 20  2  0
 20 15  1  0
 21 22  2  0
 21 13  1  0
 23 21  1  0
 24 25  1  1
 24 23  1  0
 26 27  1  0
 26 25  1  0
 27 28  1  0
 28 29  1  0
 30 24  1  0
 31 30  1  0
 32 30  2  0
M  END
$$$$
