FFK.pdb
     RDKit          3D

 32 33  0  0  1  0  0  0  0  0999 V2000
   25.7612  -21.6451  -13.2549 N   0  0  0  0  0  0  0  0  0  0  0  0
   25.2215  -20.6764  -12.3213 C   0  0  1  0  0  0  0  0  0  0  0  0
   23.7125  -20.6387  -12.4343 C   0  0  0  0  0  0  0  0  0  0  0  0
   23.3668  -20.0284  -13.7353 C   0  0  0  0  0  0  0  0  0  0  0  0
   22.6699  -20.7366  -14.6852 C   0  0  0  0  0  0  0  0  0  0  0  0
   22.3361  -20.1725  -15.9189 C   0  0  0  0  0  0  0  0  0  0  0  0
   22.7224  -18.8611  -16.1845 C   0  0  0  0  0  0  0  0  0  0  0  0
   23.4173  -18.1484  -15.2430 C   0  0  0  0  0  0  0  0  0  0  0  0
   23.7314  -18.7329  -14.0359 C   0  0  0  0  0  0  0  0  0  0  0  0
   25.6694  -21.0527  -10.9627 C   0  0  0  0  0  0  0  0  0  0  0  0
   25.5826  -22.2291  -10.5498 O   0  0  0  0  0  0  0  0  0  0  0  0
   26.2061  -20.0425  -10.1251 N   0  0  0  0  0  0  0  0  0  0  0  0
   26.6188  -20.3538   -8.7872 C   0  0  1  0  0  0  0  0  0  0  0  0
   27.5805  -19.2559   -8.3130 C   0  0  0  0  0  0  0  0  0  0  0  0
   28.0802  -19.5262   -6.9624 C   0  0  0  0  0  0  0  0  0  0  0  0
   28.9504  -20.5657   -6.7312 C   0  0  0  0  0  0  0  0  0  0  0  0
   29.4235  -20.8179   -5.4360 C   0  0  0  0  0  0  0  0  0  0  0  0
   29.0290  -20.0367   -4.3826 C   0  0  0  0  0  0  0  0  0  0  0  0
   28.1597  -18.9968   -4.6079 C   0  0  0  0  0  0  0  0  0  0  0  0
   27.6913  -18.7492   -5.8981 C   0  0  0  0  0  0  0  0  0  0  0  0
   25.4849  -20.3618   -7.8298 C   0  0  0  0  0  0  0  0  0  0  0  0
   24.7423  -19.3464   -7.7882 O   0  0  0  0  0  0  0  0  0  0  0  0
   25.1855  -21.4283   -6.9668 N   0  0  0  0  0  0  0  0  0  0  0  0
   24.0643  -21.4109   -6.0437 C   0  0  1  0  0  0  0  0  0  0  0  0
   23.3223  -22.7306   -6.0503 C   0  0  0  0  0  0  0  0  0  0  0  0
   21.8565  -22.6172   -6.2461 C   0  0  0  0  0  0  0  0  0  0  0  0
   21.0790  -23.8657   -6.3777 C   0  0  0  0  0  0  0  0  0  0  0  0
   19.6450  -23.7432   -6.7459 C   0  0  0  0  0  0  0  0  0  0  0  0
   19.0358  -25.0438   -6.8361 N   0  0  0  0  0  0  0  0  0  0  0  0
   24.6133  -21.1786   -4.6929 C   0  0  0  0  0  0  0  0  0  0  0  0
   23.8894  -20.4994   -3.7334 O   0  0  0  0  0  0  0  0  0  0  0  0
   25.7478  -21.5983   -4.4041 O   0  0  0  0  0  0  0  0  0  0  0  0
  2  1  1  6
  3  2  1  0
  3  4  1  0
  4  5  2  0
  5  6  1  0
  7  6  2  0
  8  7  1  0
  9  4  1  0
  9  8  2  0
 10 12  1  0
 10  2  1  0
 11 10  2  0
 13 12  1  0
 13 14  1  1
 15 16  2  0
 15 14  1  0
 17 16  1  0
 18 17  2  0
 19 18  1  0
 19 20  2  0
 20 15  1  0
 21 22  2  0
 21 13  1  0
 23 21  1  0
 24 25  1  1
 24 23  1  0
 26 27  1  0
 26 25  1  0
 27 28  1  0
 28 29  1  0
 30 24  1  0
 31 30  1  0
 32 30  2  0
M  END
$$$$
