FFK.pdb
     RDKit          3D

 32 33  0  0  1  0  0  0  0  0999 V2000
   27.6940  -21.5135  -17.0442 N   0  0  0  0  0  0  0  0  0  0  0  0
   27.5852  -20.4243  -16.0938 C   0  0  1  0  0  0  0  0  0  0  0  0
   26.5892  -19.4011  -16.5961 C   0  0  0  0  0  0  0  0  0  0  0  0
   27.1995  -18.6930  -17.7410 C   0  0  0  0  0  0  0  0  0  0  0  0
   28.3149  -17.9074  -17.5728 C   0  0  0  0  0  0  0  0  0  0  0  0
   28.9025  -17.2328  -18.6457 C   0  0  0  0  0  0  0  0  0  0  0  0
   28.3386  -17.3647  -19.9123 C   0  0  0  0  0  0  0  0  0  0  0  0
   27.2268  -18.1459  -20.0883 C   0  0  0  0  0  0  0  0  0  0  0  0
   26.6707  -18.7984  -19.0102 C   0  0  0  0  0  0  0  0  0  0  0  0
   27.1875  -20.9950  -14.7884 C   0  0  0  0  0  0  0  0  0  0  0  0
   26.3887  -21.9532  -14.7116 O   0  0  0  0  0  0  0  0  0  0  0  0
   27.7351  -20.4292  -13.6094 N   0  0  0  0  0  0  0  0  0  0  0  0
   27.1568  -20.7201  -12.3295 C   0  0  1  0  0  0  0  0  0  0  0  0
   27.8908  -19.8874  -11.2698 C   0  0  0  0  0  0  0  0  0  0  0  0
   27.2756  -20.0368   -9.9485 C   0  0  0  0  0  0  0  0  0  0  0  0
   27.5375  -21.1423   -9.1735 C   0  0  0  0  0  0  0  0  0  0  0  0
   26.9446  -21.2780   -7.9106 C   0  0  0  0  0  0  0  0  0  0  0  0
   26.0977  -20.3158   -7.4285 C   0  0  0  0  0  0  0  0  0  0  0  0
   25.8324  -19.2093   -8.1985 C   0  0  0  0  0  0  0  0  0  0  0  0
   26.4244  -19.0781   -9.4545 C   0  0  0  0  0  0  0  0  0  0  0  0
   25.7261  -20.3337  -12.2511 C   0  0  0  0  0  0  0  0  0  0  0  0
   25.4109  -19.1676  -12.6051 O   0  0  0  0  0  0  0  0  0  0  0  0
   24.7001  -21.1837  -11.8077 N   0  0  0  0  0  0  0  0  0  0  0  0
   23.2904  -20.8550  -11.9278 C   0  0  1  0  0  0  0  0  0  0  0  0
   22.5423  -21.9089  -12.7163 C   0  0  0  0  0  0  0  0  0  0  0  0
   21.1040  -21.6178  -12.9319 C   0  0  0  0  0  0  0  0  0  0  0  0
   20.3236  -22.5649  -13.7533 C   0  0  0  0  0  0  0  0  0  0  0  0
   18.8944  -22.2419  -13.9978 C   0  0  0  0  0  0  0  0  0  0  0  0
   18.2914  -23.2370  -14.8445 N   0  0  0  0  0  0  0  0  0  0  0  0
   22.7363  -20.7990  -10.5604 C   0  0  0  0  0  0  0  0  0  0  0  0
   23.2975  -21.5272   -9.5305 O   0  0  0  0  0  0  0  0  0  0  0  0
   21.7459  -20.0858  -10.3214 O   0  0  0  0  0  0  0  0  0  0  0  0
  2  1  1  6
  3  2  1  0
  3  4  1  0
  4  5  2  0
  5  6  1  0
  7  6  2  0
  8  7  1  0
  9  4  1  0
  9  8  2  0
 10 12  1  0
 10  2  1  0
 11 10  2  0
 13 12  1  0
 13 14  1  1
 15 16  2  0
 15 14  1  0
 17 16  1  0
 18 17  2  0
 19 18  1  0
 19 20  2  0
 20 15  1  0
 21 22  2  0
 21 13  1  0
 23 21  1  0
 24 25  1  6
 24 23  1  0
 26 27  1  0
 26 25  1  0
 27 28  1  0
 28 29  1  0
 30 24  1  0
 31 30  1  0
 32 30  2  0
M  END
$$$$
