EKI.pdb
     RDKit          3D

 27 26  0  0  1  0  0  0  0  0999 V2000
   10.1034  -17.2113   19.8726 N   0  0  0  0  0  0  0  0  0  0  0  0
    8.9143  -16.4412   19.8193 C   0  0  1  0  0  0  0  0  0  0  0  0
    8.0240  -16.6482   18.6491 C   0  0  0  0  0  0  0  0  0  0  0  0
    7.7611  -18.0644   18.2507 C   0  0  0  0  0  0  0  0  0  0  0  0
    6.9580  -18.2776   17.0522 C   0  0  0  0  0  0  0  0  0  0  0  0
    6.6648  -17.4043   16.2161 O   0  0  0  0  0  0  0  0  0  0  0  0
    8.1462  -16.4953   21.1149 C   0  0  0  0  0  0  0  0  0  0  0  0
    7.1236  -15.7728   21.2359 O   0  0  0  0  0  0  0  0  0  0  0  0
    6.4673  -19.5703   16.8071 O   0  0  0  0  0  0  0  0  0  0  0  0
    8.5237  -17.3133   22.1830 N   0  0  0  0  0  0  0  0  0  0  0  0
    7.7638  -17.3662   23.4663 C   0  0  1  0  0  0  0  0  0  0  0  0
    7.8430  -18.7575   23.9880 C   0  0  0  0  0  0  0  0  0  0  0  0
    7.2888  -18.9901   25.3554 C   0  0  0  0  0  0  0  0  0  0  0  0
    7.3491  -20.4498   25.7659 C   0  0  0  0  0  0  0  0  0  0  0  0
    6.8430  -20.6890   27.1623 C   0  0  0  0  0  0  0  0  0  0  0  0
    6.8734  -22.1050   27.5029 N   0  0  0  0  0  0  0  0  0  0  0  0
    8.2924  -16.2893   24.2908 C   0  0  0  0  0  0  0  0  0  0  0  0
    9.5498  -16.1120   24.2963 O   0  0  0  0  0  0  0  0  0  0  0  0
    5.7291  -11.5786   25.0254 C   0  0  0  0  0  0  0  0  0  0  0  0
    6.7161  -12.6627   24.8750 C   0  0  0  0  0  0  0  0  0  0  0  0
    7.4175  -13.1716   26.0830 C   0  0  2  0  0  0  0  0  0  0  0  0
    7.9814  -12.0625   26.9419 C   0  0  0  0  0  0  0  0  0  0  0  0
    8.2449  -14.3574   25.8874 C   0  0  2  0  0  0  0  0  0  0  0  0
    7.5946  -15.3892   25.0986 N   0  0  0  0  0  0  0  0  0  0  0  0
    8.8130  -15.0051   27.0714 C   0  0  0  0  0  0  0  0  0  0  0  0
    8.3433  -15.9956   27.6873 O   0  0  0  0  0  0  0  0  0  0  0  0
   10.0120  -14.4961   27.6085 O   0  0  0  0  0  0  0  0  0  0  0  0
  2  1  1  1
  3  2  1  0
  4  3  1  0
  5  4  1  0
  5  6  2  0
  7  2  1  0
  7  8  2  0
  9  5  1  0
 10  7  1  0
 11 10  1  0
 11 12  1  1
 13 12  1  0
 13 14  1  0
 15 14  1  0
 16 15  1  0
 17 11  1  0
 18 17  2  0
 19 20  1  0
 20 21  1  0
 21 22  1  6
 21 23  1  0
 23 25  1  0
 23 24  1  1
 24 17  1  0
 25 27  1  0
 26 25  2  0
M  END
$$$$
