EKI.pdb
     RDKit          3D

 27 26  0  0  1  0  0  0  0  0999 V2000
   10.9821  -16.9450   18.9835 N   0  0  0  0  0  0  0  0  0  0  0  0
   10.7813  -17.5715   20.2393 C   0  0  1  0  0  0  0  0  0  0  0  0
   11.9808  -17.7946   21.0857 C   0  0  0  0  0  0  0  0  0  0  0  0
   13.1709  -16.9376   20.7983 C   0  0  0  0  0  0  0  0  0  0  0  0
   13.9890  -16.5362   21.9370 C   0  0  0  0  0  0  0  0  0  0  0  0
   13.7386  -16.7884   23.1292 O   0  0  0  0  0  0  0  0  0  0  0  0
    9.6649  -16.9279   21.0211 C   0  0  0  0  0  0  0  0  0  0  0  0
    9.3462  -15.7426   20.7456 O   0  0  0  0  0  0  0  0  0  0  0  0
   15.1599  -15.8035   21.6836 O   0  0  0  0  0  0  0  0  0  0  0  0
    8.9724  -17.5936   22.0359 N   0  0  0  0  0  0  0  0  0  0  0  0
    7.7213  -17.0553   22.6459 C   0  0  1  0  0  0  0  0  0  0  0  0
    6.7889  -18.1951   22.8591 C   0  0  0  0  0  0  0  0  0  0  0  0
    6.2652  -18.8674   21.6324 C   0  0  0  0  0  0  0  0  0  0  0  0
    5.4673  -20.1181   21.9514 C   0  0  0  0  0  0  0  0  0  0  0  0
    4.9280  -20.8003   20.7238 C   0  0  0  0  0  0  0  0  0  0  0  0
    4.2271  -22.0309   21.0647 N   0  0  0  0  0  0  0  0  0  0  0  0
    8.1405  -16.2809   23.8051 C   0  0  0  0  0  0  0  0  0  0  0  0
    9.3136  -16.4736   24.2516 O   0  0  0  0  0  0  0  0  0  0  0  0
    7.1081  -11.2312   27.3472 C   0  0  0  0  0  0  0  0  0  0  0  0
    7.8261  -12.4586   26.9597 C   0  0  0  0  0  0  0  0  0  0  0  0
    7.2380  -13.3386   25.9157 C   0  0  2  0  0  0  0  0  0  0  0  0
    5.7335  -13.4436   26.0198 C   0  0  0  0  0  0  0  0  0  0  0  0
    7.9787  -14.5607   25.6211 C   0  0  2  0  0  0  0  0  0  0  0  0
    7.4189  -15.3212   24.5175 N   0  0  0  0  0  0  0  0  0  0  0  0
    8.2257  -15.4989   26.7178 C   0  0  0  0  0  0  0  0  0  0  0  0
    7.6428  -16.5950   26.9180 O   0  0  0  0  0  0  0  0  0  0  0  0
    9.2128  -15.1779   27.6706 O   0  0  0  0  0  0  0  0  0  0  0  0
  2  1  1  6
  3  2  1  0
  4  3  1  0
  5  4  1  0
  5  6  2  0
  7  2  1  0
  7  8  2  0
  9  5  1  0
 10  7  1  0
 11 10  1  0
 11 12  1  1
 13 12  1  0
 13 14  1  0
 15 14  1  0
 16 15  1  0
 17 11  1  0
 18 17  2  0
 19 20  1  0
 20 21  1  0
 21 22  1  1
 21 23  1  0
 23 25  1  0
 23 24  1  6
 24 17  1  0
 25 27  1  0
 26 25  2  0
M  END
$$$$
