EKI.pdb
     RDKit          3D

 27 26  0  0  1  0  0  0  0  0999 V2000
    6.8696  -17.3113   19.3591 N   0  0  0  0  0  0  0  0  0  0  0  0
    7.8971  -17.4650   20.3238 C   0  0  1  0  0  0  0  0  0  0  0  0
    9.1524  -16.7027   20.1053 C   0  0  0  0  0  0  0  0  0  0  0  0
   10.0557  -17.1976   19.0224 C   0  0  0  0  0  0  0  0  0  0  0  0
   11.3772  -16.5875   18.9311 C   0  0  0  0  0  0  0  0  0  0  0  0
   11.7049  -15.6938   18.1301 O   0  0  0  0  0  0  0  0  0  0  0  0
    7.3835  -17.2932   21.7303 C   0  0  0  0  0  0  0  0  0  0  0  0
    6.5155  -16.4091   21.9475 O   0  0  0  0  0  0  0  0  0  0  0  0
   12.3737  -17.0347   19.8138 O   0  0  0  0  0  0  0  0  0  0  0  0
    7.8318  -18.0744   22.7986 N   0  0  0  0  0  0  0  0  0  0  0  0
    7.3253  -17.9026   24.1918 C   0  0  1  0  0  0  0  0  0  0  0  0
    7.5213  -19.1900   24.9119 C   0  0  0  0  0  0  0  0  0  0  0  0
    7.1656  -19.2041   26.3626 C   0  0  0  0  0  0  0  0  0  0  0  0
    7.4520  -20.5426   27.0177 C   0  0  0  0  0  0  0  0  0  0  0  0
    6.9602  -20.6192   28.4374 C   0  0  0  0  0  0  0  0  0  0  0  0
    7.1443  -21.9536   28.9919 N   0  0  0  0  0  0  0  0  0  0  0  0
    7.9821  -16.7132   24.7142 C   0  0  0  0  0  0  0  0  0  0  0  0
    9.1964  -16.5208   24.3962 O   0  0  0  0  0  0  0  0  0  0  0  0
    5.4752  -11.9594   26.1151 C   0  0  0  0  0  0  0  0  0  0  0  0
    6.4481  -12.9538   25.6284 C   0  0  0  0  0  0  0  0  0  0  0  0
    7.4380  -13.5203   26.5820 C   0  0  2  0  0  0  0  0  0  0  0  0
    8.1426  -12.4568   27.3933 C   0  0  0  0  0  0  0  0  0  0  0  0
    8.2445  -14.6280   26.0803 C   0  0  2  0  0  0  0  0  0  0  0  0
    7.4521  -15.7169   25.5364 N   0  0  0  0  0  0  0  0  0  0  0  0
    9.2405  -15.2175   26.9772 C   0  0  0  0  0  0  0  0  0  0  0  0
    9.0886  -16.2245   27.7149 O   0  0  0  0  0  0  0  0  0  0  0  0
   10.5167  -14.6249   27.0506 O   0  0  0  0  0  0  0  0  0  0  0  0
  2  1  1  6
  3  2  1  0
  4  3  1  0
  5  4  1  0
  5  6  2  0
  7  2  1  0
  7  8  2  0
  9  5  1  0
 10  7  1  0
 11 10  1  0
 11 12  1  1
 13 12  1  0
 13 14  1  0
 15 14  1  0
 16 15  1  0
 17 11  1  0
 18 17  2  0
 19 20  1  0
 20 21  1  0
 21 22  1  6
 21 23  1  0
 23 25  1  0
 23 24  1  1
 24 17  1  0
 25 27  1  0
 26 25  2  0
M  END
$$$$
