EKI.pdb
     RDKit          3D

 27 26  0  0  1  0  0  0  0  0999 V2000
    6.3868  -17.0213   19.3631 N   0  0  0  0  0  0  0  0  0  0  0  0
    7.2225  -17.7187   20.2714 C   0  0  1  0  0  0  0  0  0  0  0  0
    8.6828  -17.6969   20.0033 C   0  0  0  0  0  0  0  0  0  0  0  0
    9.4705  -16.6201   20.6767 C   0  0  0  0  0  0  0  0  0  0  0  0
   10.8781  -16.5028   20.3136 C   0  0  0  0  0  0  0  0  0  0  0  0
   11.8286  -16.4627   21.1153 O   0  0  0  0  0  0  0  0  0  0  0  0
    6.9182  -17.3671   21.7051 C   0  0  0  0  0  0  0  0  0  0  0  0
    6.0861  -16.4520   21.9341 O   0  0  0  0  0  0  0  0  0  0  0  0
   11.2046  -16.4280   18.9498 O   0  0  0  0  0  0  0  0  0  0  0  0
    7.5217  -18.0153   22.7859 N   0  0  0  0  0  0  0  0  0  0  0  0
    7.0397  -17.8618   24.1899 C   0  0  1  0  0  0  0  0  0  0  0  0
    7.1418  -19.1882   24.8564 C   0  0  0  0  0  0  0  0  0  0  0  0
    6.8779  -19.2187   26.3263 C   0  0  0  0  0  0  0  0  0  0  0  0
    7.1293  -20.5866   26.9332 C   0  0  0  0  0  0  0  0  0  0  0  0
    6.7297  -20.6695   28.3812 C   0  0  0  0  0  0  0  0  0  0  0  0
    6.9884  -21.9945   28.9285 N   0  0  0  0  0  0  0  0  0  0  0  0
    7.7890  -16.7477   24.7524 C   0  0  0  0  0  0  0  0  0  0  0  0
    8.9847  -16.5810   24.3585 O   0  0  0  0  0  0  0  0  0  0  0  0
    5.5684  -11.9680   25.9004 C   0  0  0  0  0  0  0  0  0  0  0  0
    6.5652  -12.9812   25.5107 C   0  0  0  0  0  0  0  0  0  0  0  0
    7.4810  -13.5272   26.5467 C   0  0  2  0  0  0  0  0  0  0  0  0
    8.2356  -12.4467   27.2875 C   0  0  0  0  0  0  0  0  0  0  0  0
    8.2200  -14.7291   26.1746 C   0  0  2  0  0  0  0  0  0  0  0  0
    7.3687  -15.8007   25.6884 N   0  0  0  0  0  0  0  0  0  0  0  0
    9.1339  -15.3097   27.1604 C   0  0  0  0  0  0  0  0  0  0  0  0
    8.9164  -16.3072   27.8944 O   0  0  0  0  0  0  0  0  0  0  0  0
   10.4009  -14.7189   27.3354 O   0  0  0  0  0  0  0  0  0  0  0  0
  2  1  1  6
  3  2  1  0
  4  3  1  0
  5  4  1  0
  5  6  2  0
  7  2  1  0
  7  8  2  0
  9  5  1  0
 10  7  1  0
 11 10  1  0
 11 12  1  1
 13 12  1  0
 13 14  1  0
 15 14  1  0
 16 15  1  0
 17 11  1  0
 18 17  2  0
 19 20  1  0
 20 21  1  0
 21 22  1  6
 21 23  1  0
 23 25  1  0
 23 24  1  1
 24 17  1  0
 25 27  1  0
 26 25  2  0
M  END
$$$$
