EKI.pdb
     RDKit          3D

 27 26  0  0  1  0  0  0  0  0999 V2000
   11.9889  -17.3149   20.3603 N   0  0  0  0  0  0  0  0  0  0  0  0
   10.9427  -16.4232   20.0137 C   0  0  1  0  0  0  0  0  0  0  0  0
   10.5030  -16.4118   18.5955 C   0  0  0  0  0  0  0  0  0  0  0  0
   10.6389  -17.6957   17.8427 C   0  0  0  0  0  0  0  0  0  0  0  0
   10.2711  -17.6787   16.4316 C   0  0  0  0  0  0  0  0  0  0  0  0
    9.8900  -16.6783   15.7979 O   0  0  0  0  0  0  0  0  0  0  0  0
    9.7707  -16.5320   20.9551 C   0  0  0  0  0  0  0  0  0  0  0  0
    8.7325  -15.8696   20.6987 O   0  0  0  0  0  0  0  0  0  0  0  0
   10.3482  -18.8835   15.7142 O   0  0  0  0  0  0  0  0  0  0  0  0
    9.7918  -17.3367   22.0973 N   0  0  0  0  0  0  0  0  0  0  0  0
    8.6219  -17.4658   23.0147 C   0  0  1  0  0  0  0  0  0  0  0  0
    8.3894  -18.9152   23.2586 C   0  0  0  0  0  0  0  0  0  0  0  0
    7.3976  -19.2627   24.3200 C   0  0  0  0  0  0  0  0  0  0  0  0
    6.4060  -20.3175   23.8653 C   0  0  0  0  0  0  0  0  0  0  0  0
    5.5484  -20.8397   24.9856 C   0  0  0  0  0  0  0  0  0  0  0  0
    6.2611  -21.8284   25.7834 N   0  0  0  0  0  0  0  0  0  0  0  0
    8.9114  -16.6118   24.1575 C   0  0  0  0  0  0  0  0  0  0  0  0
   10.0897  -16.6369   24.6304 O   0  0  0  0  0  0  0  0  0  0  0  0
    6.1957  -11.9824   25.3184 C   0  0  0  0  0  0  0  0  0  0  0  0
    7.1481  -13.0915   25.1316 C   0  0  0  0  0  0  0  0  0  0  0  0
    7.5889  -13.8707   26.3185 C   0  0  2  0  0  0  0  0  0  0  0  0
    7.9797  -12.9898   27.4835 C   0  0  0  0  0  0  0  0  0  0  0  0
    8.4278  -15.0322   26.0427 C   0  0  2  0  0  0  0  0  0  0  0  0
    8.0555  -15.7357   24.8278 N   0  0  0  0  0  0  0  0  0  0  0  0
    8.5857  -16.0352   27.0978 C   0  0  0  0  0  0  0  0  0  0  0  0
    7.8623  -17.0451   27.2924 O   0  0  0  0  0  0  0  0  0  0  0  0
    9.6481  -15.8909   28.0120 O   0  0  0  0  0  0  0  0  0  0  0  0
  2  1  1  6
  3  2  1  0
  4  3  1  0
  5  4  1  0
  5  6  2  0
  7  2  1  0
  7  8  2  0
  9  5  1  0
 10  7  1  0
 11 10  1  0
 11 12  1  1
 13 12  1  0
 13 14  1  0
 15 14  1  0
 16 15  1  0
 17 11  1  0
 18 17  2  0
 19 20  1  0
 20 21  1  0
 21 22  1  1
 21 23  1  0
 23 25  1  0
 23 24  1  6
 24 17  1  0
 25 27  1  0
 26 25  2  0
M  END
$$$$
