EKI.pdb
     RDKit          3D

 27 26  0  0  1  0  0  0  0  0999 V2000
   10.8610  -17.8145   20.2700 N   0  0  0  0  0  0  0  0  0  0  0  0
    9.9566  -16.7704   19.9514 C   0  0  1  0  0  0  0  0  0  0  0  0
    9.3821  -16.7648   18.5822 C   0  0  0  0  0  0  0  0  0  0  0  0
    8.7685  -18.0428   18.1090 C   0  0  0  0  0  0  0  0  0  0  0  0
    8.2130  -18.0518   16.7606 C   0  0  0  0  0  0  0  0  0  0  0  0
    8.6889  -18.6658   15.7889 O   0  0  0  0  0  0  0  0  0  0  0  0
    8.8868  -16.6081   21.0005 C   0  0  0  0  0  0  0  0  0  0  0  0
    7.9734  -15.7667   20.7999 O   0  0  0  0  0  0  0  0  0  0  0  0
    7.0439  -17.3110   16.5228 O   0  0  0  0  0  0  0  0  0  0  0  0
    8.8695  -17.3526   22.1829 N   0  0  0  0  0  0  0  0  0  0  0  0
    7.8076  -17.1955   23.2196 C   0  0  1  0  0  0  0  0  0  0  0  0
    7.3823  -18.5553   23.6487 C   0  0  0  0  0  0  0  0  0  0  0  0
    6.3613  -19.2353   22.7964 C   0  0  0  0  0  0  0  0  0  0  0  0
    6.0917  -20.6614   23.2393 C   0  0  0  0  0  0  0  0  0  0  0  0
    5.0059  -21.3295   22.4405 C   0  0  0  0  0  0  0  0  0  0  0  0
    4.7754  -22.6941   22.8952 N   0  0  0  0  0  0  0  0  0  0  0  0
    8.3563  -16.2956   24.2236 C   0  0  0  0  0  0  0  0  0  0  0  0
    9.6202  -16.2038   24.3072 O   0  0  0  0  0  0  0  0  0  0  0  0
    5.8470  -11.7118   25.8442 C   0  0  0  0  0  0  0  0  0  0  0  0
    6.8157  -12.7563   25.4662 C   0  0  0  0  0  0  0  0  0  0  0  0
    7.5217  -13.5064   26.5382 C   0  0  2  0  0  0  0  0  0  0  0  0
    8.0962  -12.6009   27.6038 C   0  0  0  0  0  0  0  0  0  0  0  0
    8.3421  -14.6292   26.0960 C   0  0  2  0  0  0  0  0  0  0  0  0
    7.6729  -15.4873   25.1341 N   0  0  0  0  0  0  0  0  0  0  0  0
    8.9337  -15.4955   27.1175 C   0  0  0  0  0  0  0  0  0  0  0  0
   10.0333  -15.3276   27.7038 O   0  0  0  0  0  0  0  0  0  0  0  0
    8.2285  -16.6489   27.5145 O   0  0  0  0  0  0  0  0  0  0  0  0
  2  1  1  1
  3  2  1  0
  4  3  1  0
  5  4  1  0
  5  6  2  0
  7  2  1  0
  7  8  2  0
  9  5  1  0
 10  7  1  0
 11 10  1  0
 11 12  1  1
 13 12  1  0
 13 14  1  0
 15 14  1  0
 16 15  1  0
 17 11  1  0
 18 17  2  0
 19 20  1  0
 20 21  1  0
 21 22  1  6
 21 23  1  0
 23 25  1  0
 23 24  1  6
 24 17  1  0
 25 27  1  0
 26 25  2  0
M  END
$$$$
