EKI.pdb
     RDKit          3D

 27 26  0  0  1  0  0  0  0  0999 V2000
    5.5593  -16.6229   19.9425 N   0  0  0  0  0  0  0  0  0  0  0  0
    6.7540  -16.9733   20.6205 C   0  0  1  0  0  0  0  0  0  0  0  0
    8.0086  -16.3233   20.1641 C   0  0  0  0  0  0  0  0  0  0  0  0
    8.0296  -15.8251   18.7552 C   0  0  0  0  0  0  0  0  0  0  0  0
    9.2825  -15.2560   18.2721 C   0  0  0  0  0  0  0  0  0  0  0  0
   10.3513  -15.2218   18.9079 O   0  0  0  0  0  0  0  0  0  0  0  0
    6.6009  -16.8898   22.1175 C   0  0  0  0  0  0  0  0  0  0  0  0
    5.8599  -15.9923   22.5950 O   0  0  0  0  0  0  0  0  0  0  0  0
    9.3007  -14.6962   16.9844 O   0  0  0  0  0  0  0  0  0  0  0  0
    7.2470  -17.7666   22.9928 N   0  0  0  0  0  0  0  0  0  0  0  0
    7.0039  -17.7616   24.4651 C   0  0  1  0  0  0  0  0  0  0  0  0
    7.2278  -19.1430   24.9707 C   0  0  0  0  0  0  0  0  0  0  0  0
    7.1192  -19.3391   26.4474 C   0  0  0  0  0  0  0  0  0  0  0  0
    7.3612  -20.7788   26.8615 C   0  0  0  0  0  0  0  0  0  0  0  0
    7.3280  -20.9750   28.3527 C   0  0  0  0  0  0  0  0  0  0  0  0
    7.6275  -22.3541   28.7136 N   0  0  0  0  0  0  0  0  0  0  0  0
    7.8259  -16.6880   25.0044 C   0  0  0  0  0  0  0  0  0  0  0  0
    8.9394  -16.4559   24.4398 O   0  0  0  0  0  0  0  0  0  0  0  0
    5.8474  -12.0127   26.2425 C   0  0  0  0  0  0  0  0  0  0  0  0
    6.8916  -12.9713   25.8390 C   0  0  0  0  0  0  0  0  0  0  0  0
    7.7746  -13.5567   26.8820 C   0  0  2  0  0  0  0  0  0  0  0  0
    8.5737  -12.5106   27.6254 C   0  0  0  0  0  0  0  0  0  0  0  0
    8.4594  -14.7924   26.5171 C   0  0  2  0  0  0  0  0  0  0  0  0
    7.5567  -15.8445   26.0840 N   0  0  0  0  0  0  0  0  0  0  0  0
    9.3836  -15.3814   27.4882 C   0  0  0  0  0  0  0  0  0  0  0  0
   10.5062  -14.9301   27.8305 O   0  0  0  0  0  0  0  0  0  0  0  0
    9.0138  -16.5800   28.1299 O   0  0  0  0  0  0  0  0  0  0  0  0
  2  1  1  6
  3  2  1  0
  4  3  1  0
  5  4  1  0
  5  6  2  0
  7  2  1  0
  7  8  2  0
  9  5  1  0
 10  7  1  0
 11 10  1  0
 11 12  1  1
 13 12  1  0
 13 14  1  0
 15 14  1  0
 16 15  1  0
 17 11  1  0
 18 17  2  0
 19 20  1  0
 20 21  1  0
 21 22  1  6
 21 23  1  0
 23 25  1  0
 23 24  1  1
 24 17  1  0
 25 27  1  0
 26 25  2  0
M  END
$$$$
