EKI.pdb
     RDKit          3D

 27 26  0  0  1  0  0  0  0  0999 V2000
    8.5536  -17.5105   18.5284 N   0  0  0  0  0  0  0  0  0  0  0  0
    9.0112  -17.9506   19.7959 C   0  0  1  0  0  0  0  0  0  0  0  0
   10.4592  -17.7954   20.0858 C   0  0  0  0  0  0  0  0  0  0  0  0
   11.1822  -16.7286   19.3289 C   0  0  0  0  0  0  0  0  0  0  0  0
   12.6153  -16.6018   19.5680 C   0  0  0  0  0  0  0  0  0  0  0  0
   13.2940  -17.3498   20.2943 O   0  0  0  0  0  0  0  0  0  0  0  0
    8.1618  -17.4175   20.9211 C   0  0  0  0  0  0  0  0  0  0  0  0
    7.3893  -16.4535   20.6838 O   0  0  0  0  0  0  0  0  0  0  0  0
   13.3009  -15.5536   18.9329 O   0  0  0  0  0  0  0  0  0  0  0  0
    8.1985  -17.9498   22.2125 N   0  0  0  0  0  0  0  0  0  0  0  0
    7.2109  -17.5765   23.2672 C   0  0  1  0  0  0  0  0  0  0  0  0
    6.7487  -18.8285   23.9251 C   0  0  0  0  0  0  0  0  0  0  0  0
    5.3700  -19.2916   23.5846 C   0  0  0  0  0  0  0  0  0  0  0  0
    5.3703  -20.5980   22.8127 C   0  0  0  0  0  0  0  0  0  0  0  0
    3.9879  -21.0630   22.4438 C   0  0  0  0  0  0  0  0  0  0  0  0
    4.0193  -22.3782   21.8182 N   0  0  0  0  0  0  0  0  0  0  0  0
    7.8624  -16.5660   24.0879 C   0  0  0  0  0  0  0  0  0  0  0  0
    9.1272  -16.6145   24.1917 O   0  0  0  0  0  0  0  0  0  0  0  0
    7.4267  -10.9866   26.8745 C   0  0  0  0  0  0  0  0  0  0  0  0
    8.1042  -12.2496   26.5312 C   0  0  0  0  0  0  0  0  0  0  0  0
    7.3575  -13.2837   25.7675 C   0  0  2  0  0  0  0  0  0  0  0  0
    5.8921  -13.3374   26.1357 C   0  0  0  0  0  0  0  0  0  0  0  0
    8.0484  -14.5537   25.5709 C   0  0  2  0  0  0  0  0  0  0  0  0
    7.2806  -15.5128   24.7963 N   0  0  0  0  0  0  0  0  0  0  0  0
    8.5563  -15.2529   26.7530 C   0  0  0  0  0  0  0  0  0  0  0  0
    8.1327  -16.3377   27.2273 O   0  0  0  0  0  0  0  0  0  0  0  0
    9.6329  -14.6843   27.4621 O   0  0  0  0  0  0  0  0  0  0  0  0
  2  1  1  6
  3  2  1  0
  4  3  1  0
  5  4  1  0
  5  6  2  0
  7  2  1  0
  7  8  2  0
  9  5  1  0
 10  7  1  0
 11 10  1  0
 11 12  1  1
 13 12  1  0
 13 14  1  0
 15 14  1  0
 16 15  1  0
 17 11  1  0
 18 17  2  0
 19 20  1  0
 20 21  1  0
 21 22  1  1
 21 23  1  0
 23 25  1  0
 23 24  1  1
 24 17  1  0
 25 27  1  0
 26 25  2  0
M  END
$$$$
