EKI.pdb
     RDKit          3D

 27 26  0  0  1  0  0  0  0  0999 V2000
   10.2007  -19.2773   21.0225 N   0  0  0  0  0  0  0  0  0  0  0  0
   11.0147  -18.1876   20.6226 C   0  0  1  0  0  0  0  0  0  0  0  0
   11.3914  -18.1129   19.1882 C   0  0  0  0  0  0  0  0  0  0  0  0
   12.3143  -17.0048   18.7959 C   0  0  0  0  0  0  0  0  0  0  0  0
   12.6858  -16.9188   17.3883 C   0  0  0  0  0  0  0  0  0  0  0  0
   13.3999  -17.7359   16.7799 O   0  0  0  0  0  0  0  0  0  0  0  0
   10.4828  -16.8695   21.1239 C   0  0  0  0  0  0  0  0  0  0  0  0
   11.2250  -15.8566   21.0501 O   0  0  0  0  0  0  0  0  0  0  0  0
   12.2059  -15.8291   16.6437 O   0  0  0  0  0  0  0  0  0  0  0  0
    9.2024  -16.7288   21.6655 N   0  0  0  0  0  0  0  0  0  0  0  0
    8.6130  -15.4013   22.0084 C   0  0  1  0  0  0  0  0  0  0  0  0
    7.2726  -15.3165   21.3679 C   0  0  0  0  0  0  0  0  0  0  0  0
    7.1044  -14.2791   20.3066 C   0  0  0  0  0  0  0  0  0  0  0  0
    7.8124  -14.6485   19.0162 C   0  0  0  0  0  0  0  0  0  0  0  0
    7.6816  -13.5937   17.9515 C   0  0  0  0  0  0  0  0  0  0  0  0
    8.4224  -13.9564   16.7508 N   0  0  0  0  0  0  0  0  0  0  0  0
    8.6935  -15.2883   23.4574 C   0  0  0  0  0  0  0  0  0  0  0  0
    9.4781  -16.0776   24.0690 O   0  0  0  0  0  0  0  0  0  0  0  0
    5.5641  -12.0139   27.1451 C   0  0  0  0  0  0  0  0  0  0  0  0
    6.2607  -12.8767   26.1743 C   0  0  0  0  0  0  0  0  0  0  0  0
    7.7127  -13.1396   26.3556 C   0  0  2  0  0  0  0  0  0  0  0  0
    8.5534  -11.8898   26.2263 C   0  0  0  0  0  0  0  0  0  0  0  0
    8.2215  -14.3593   25.7372 C   0  0  2  0  0  0  0  0  0  0  0  0
    8.0157  -14.4052   24.3002 N   0  0  0  0  0  0  0  0  0  0  0  0
    7.7816  -15.6448   26.2832 C   0  0  0  0  0  0  0  0  0  0  0  0
    7.9322  -16.0542   27.4626 O   0  0  0  0  0  0  0  0  0  0  0  0
    7.1148  -16.5469   25.4307 O   0  0  0  0  0  0  0  0  0  0  0  0
  2  1  1  6
  3  2  1  0
  4  3  1  0
  5  4  1  0
  5  6  2  0
  7  2  1  0
  7  8  2  0
  9  5  1  0
 10  7  1  0
 11 10  1  0
 11 12  1  1
 13 12  1  0
 13 14  1  0
 15 14  1  0
 16 15  1  0
 17 11  1  0
 18 17  2  0
 19 20  1  0
 20 21  1  0
 21 22  1  6
 21 23  1  0
 23 25  1  0
 23 24  1  6
 24 17  1  0
 25 27  1  0
 26 25  2  0
M  END
$$$$
