EKI.pdb
     RDKit          3D

 27 26  0  0  1  0  0  0  0  0999 V2000
    9.5404  -18.2341   19.3327 N   0  0  0  0  0  0  0  0  0  0  0  0
    8.5468  -17.2231   19.3134 C   0  0  1  0  0  0  0  0  0  0  0  0
    7.5624  -17.2605   18.2024 C   0  0  0  0  0  0  0  0  0  0  0  0
    8.1185  -17.3658   16.8192 C   0  0  0  0  0  0  0  0  0  0  0  0
    7.1601  -17.4962   15.7277 C   0  0  0  0  0  0  0  0  0  0  0  0
    6.3981  -18.4632   15.5490 O   0  0  0  0  0  0  0  0  0  0  0  0
    7.8666  -17.0720   20.6499 C   0  0  0  0  0  0  0  0  0  0  0  0
    6.7010  -16.5999   20.6792 O   0  0  0  0  0  0  0  0  0  0  0  0
    7.0782  -16.4521   14.7921 O   0  0  0  0  0  0  0  0  0  0  0  0
    8.4775  -17.4343   21.8532 N   0  0  0  0  0  0  0  0  0  0  0  0
    7.7537  -17.4310   23.1583 C   0  0  1  0  0  0  0  0  0  0  0  0
    7.8017  -18.8114   23.7118 C   0  0  0  0  0  0  0  0  0  0  0  0
    7.3276  -18.9836   25.1177 C   0  0  0  0  0  0  0  0  0  0  0  0
    7.4558  -20.4159   25.6024 C   0  0  0  0  0  0  0  0  0  0  0  0
    7.0170  -20.5945   27.0303 C   0  0  0  0  0  0  0  0  0  0  0  0
    7.1546  -21.9800   27.4587 N   0  0  0  0  0  0  0  0  0  0  0  0
    8.3413  -16.3533   23.9408 C   0  0  0  0  0  0  0  0  0  0  0  0
    9.5978  -16.1855   23.8654 O   0  0  0  0  0  0  0  0  0  0  0  0
    6.1726  -11.6441   26.8254 C   0  0  0  0  0  0  0  0  0  0  0  0
    6.5236  -12.9691   26.2836 C   0  0  0  0  0  0  0  0  0  0  0  0
    7.7700  -13.1147   25.4865 C   0  0  2  0  0  0  0  0  0  0  0  0
    7.6844  -12.4353   24.1387 C   0  0  0  0  0  0  0  0  0  0  0  0
    8.4113  -14.4243   25.5399 C   0  0  2  0  0  0  0  0  0  0  0  0
    7.7027  -15.4433   24.7856 N   0  0  0  0  0  0  0  0  0  0  0  0
    8.7185  -14.9887   26.8556 C   0  0  0  0  0  0  0  0  0  0  0  0
    8.2547  -16.0486   27.3484 O   0  0  0  0  0  0  0  0  0  0  0  0
    9.6252  -14.3035   27.6884 O   0  0  0  0  0  0  0  0  0  0  0  0
  2  1  1  1
  3  2  1  0
  4  3  1  0
  5  4  1  0
  5  6  2  0
  7  2  1  0
  7  8  2  0
  9  5  1  0
 10  7  1  0
 11 10  1  0
 11 12  1  1
 13 12  1  0
 13 14  1  0
 15 14  1  0
 16 15  1  0
 17 11  1  0
 18 17  2  0
 19 20  1  0
 20 21  1  0
 21 22  1  6
 21 23  1  0
 23 25  1  0
 23 24  1  1
 24 17  1  0
 25 27  1  0
 26 25  2  0
M  END
$$$$
