EKI.pdb
     RDKit          3D

 27 26  0  0  1  0  0  0  0  0999 V2000
   10.3145  -16.2624   18.9570 N   0  0  0  0  0  0  0  0  0  0  0  0
    8.9940  -15.7466   18.9470 C   0  0  1  0  0  0  0  0  0  0  0  0
    8.1629  -16.0331   17.7503 C   0  0  0  0  0  0  0  0  0  0  0  0
    8.4099  -17.3356   17.0606 C   0  0  0  0  0  0  0  0  0  0  0  0
    7.5713  -17.6448   15.9082 C   0  0  0  0  0  0  0  0  0  0  0  0
    6.3495  -17.8764   15.9470 O   0  0  0  0  0  0  0  0  0  0  0  0
    8.2540  -16.0599   20.2221 C   0  0  0  0  0  0  0  0  0  0  0  0
    7.0564  -15.6894   20.3264 O   0  0  0  0  0  0  0  0  0  0  0  0
    8.1779  -17.6887   14.6424 O   0  0  0  0  0  0  0  0  0  0  0  0
    8.8435  -16.7432   21.2888 N   0  0  0  0  0  0  0  0  0  0  0  0
    8.0853  -17.1362   22.5127 C   0  0  1  0  0  0  0  0  0  0  0  0
    8.3599  -18.5742   22.7790 C   0  0  0  0  0  0  0  0  0  0  0  0
    7.8251  -19.1300   24.0581 C   0  0  0  0  0  0  0  0  0  0  0  0
    8.0946  -20.6163   24.2031 C   0  0  0  0  0  0  0  0  0  0  0  0
    7.5367  -21.1934   25.4755 C   0  0  0  0  0  0  0  0  0  0  0  0
    6.0882  -21.3312   25.4056 N   0  0  0  0  0  0  0  0  0  0  0  0
    8.4428  -16.1646   23.5360 C   0  0  0  0  0  0  0  0  0  0  0  0
    9.6769  -15.9307   23.7233 O   0  0  0  0  0  0  0  0  0  0  0  0
    6.8737  -11.0048   26.5437 C   0  0  0  0  0  0  0  0  0  0  0  0
    7.6877  -12.2228   26.3822 C   0  0  0  0  0  0  0  0  0  0  0  0
    7.1902  -13.3105   25.4994 C   0  0  2  0  0  0  0  0  0  0  0  0
    5.7193  -13.5979   25.6986 C   0  0  0  0  0  0  0  0  0  0  0  0
    8.0819  -14.4532   25.3315 C   0  0  2  0  0  0  0  0  0  0  0  0
    7.5984  -15.4235   24.3650 N   0  0  0  0  0  0  0  0  0  0  0  0
    8.4878  -15.1930   26.5282 C   0  0  0  0  0  0  0  0  0  0  0  0
    8.1157  -16.3462   26.8640 O   0  0  0  0  0  0  0  0  0  0  0  0
    9.3897  -14.5847   27.4236 O   0  0  0  0  0  0  0  0  0  0  0  0
  2  1  1  6
  3  2  1  0
  4  3  1  0
  5  4  1  0
  5  6  2  0
  7  2  1  0
  7  8  2  0
  9  5  1  0
 10  7  1  0
 11 10  1  0
 11 12  1  1
 13 12  1  0
 13 14  1  0
 15 14  1  0
 16 15  1  0
 17 11  1  0
 18 17  2  0
 19 20  1  0
 20 21  1  0
 21 22  1  1
 21 23  1  0
 23 25  1  0
 23 24  1  6
 24 17  1  0
 25 27  1  0
 26 25  2  0
M  END
$$$$
