EKI.pdb
     RDKit          3D

 27 26  0  0  1  0  0  0  0  0999 V2000
    8.1412  -14.9718   18.4913 N   0  0  0  0  0  0  0  0  0  0  0  0
    8.9776  -14.9893   19.6358 C   0  0  1  0  0  0  0  0  0  0  0  0
    9.8348  -13.7992   19.8678 C   0  0  0  0  0  0  0  0  0  0  0  0
   11.0267  -13.6498   18.9786 C   0  0  0  0  0  0  0  0  0  0  0  0
   12.3263  -13.9821   19.5509 C   0  0  0  0  0  0  0  0  0  0  0  0
   12.5128  -14.4781   20.6765 O   0  0  0  0  0  0  0  0  0  0  0  0
    8.2245  -15.3797   20.8816 C   0  0  0  0  0  0  0  0  0  0  0  0
    7.1073  -14.8440   21.0991 O   0  0  0  0  0  0  0  0  0  0  0  0
   13.4722  -13.7272   18.7802 O   0  0  0  0  0  0  0  0  0  0  0  0
    8.7164  -16.3097   21.8011 N   0  0  0  0  0  0  0  0  0  0  0  0
    7.9880  -16.6693   23.0529 C   0  0  1  0  0  0  0  0  0  0  0  0
    8.1501  -18.1321   23.2726 C   0  0  0  0  0  0  0  0  0  0  0  0
    7.6458  -18.6719   24.5708 C   0  0  0  0  0  0  0  0  0  0  0  0
    7.9733  -20.1421   24.7548 C   0  0  0  0  0  0  0  0  0  0  0  0
    7.3643  -20.7286   25.9992 C   0  0  0  0  0  0  0  0  0  0  0  0
    7.6886  -22.1424   26.1335 N   0  0  0  0  0  0  0  0  0  0  0  0
    8.4777  -15.7594   24.0782 C   0  0  0  0  0  0  0  0  0  0  0  0
    9.7198  -15.4951   24.0892 O   0  0  0  0  0  0  0  0  0  0  0  0
    5.8298  -11.6143   27.4271 C   0  0  0  0  0  0  0  0  0  0  0  0
    6.5690  -12.8666   27.1875 C   0  0  0  0  0  0  0  0  0  0  0  0
    7.5848  -12.9077   26.1028 C   0  0  2  0  0  0  0  0  0  0  0  0
    7.0962  -12.2733   24.8204 C   0  0  0  0  0  0  0  0  0  0  0  0
    8.3491  -14.1457   25.9919 C   0  0  2  0  0  0  0  0  0  0  0  0
    7.7560  -15.1086   25.0807 N   0  0  0  0  0  0  0  0  0  0  0  0
    8.6868  -14.8605   27.2245 C   0  0  0  0  0  0  0  0  0  0  0  0
    8.3097  -16.0137   27.5547 O   0  0  0  0  0  0  0  0  0  0  0  0
    9.5204  -14.2249   28.1659 O   0  0  0  0  0  0  0  0  0  0  0  0
  2  1  1  6
  3  2  1  0
  4  3  1  0
  5  4  1  0
  5  6  2  0
  7  2  1  0
  7  8  2  0
  9  5  1  0
 10  7  1  0
 11 10  1  0
 11 12  1  1
 13 12  1  0
 13 14  1  0
 15 14  1  0
 16 15  1  0
 17 11  1  0
 18 17  2  0
 19 20  1  0
 20 21  1  0
 21 22  1  6
 21 23  1  0
 23 25  1  0
 23 24  1  6
 24 17  1  0
 25 27  1  0
 26 25  2  0
M  END
$$$$
