EEF.pdb
     RDKit          3D

 30 30  0  0  1  0  0  0  0  0999 V2000
   27.4492  -20.8472  -18.3674 N   0  0  0  0  0  0  0  0  0  0  0  0
   27.9433  -21.4087  -17.1184 C   0  0  1  0  0  0  0  0  0  0  0  0
   29.4185  -21.1642  -17.0854 C   0  0  0  0  0  0  0  0  0  0  0  0
   30.2181  -21.8724  -18.1193 C   0  0  0  0  0  0  0  0  0  0  0  0
   30.0595  -23.3226  -18.0419 C   0  0  0  0  0  0  0  0  0  0  0  0
   29.9421  -24.0486  -19.0440 O   0  0  0  0  0  0  0  0  0  0  0  0
   27.2132  -20.8025  -15.9634 C   0  0  0  0  0  0  0  0  0  0  0  0
   27.7874  -20.1078  -15.1194 O   0  0  0  0  0  0  0  0  0  0  0  0
   30.0380  -23.9193  -16.7939 O   0  0  0  0  0  0  0  0  0  0  0  0
   25.8284  -21.0204  -15.8171 N   0  0  0  0  0  0  0  0  0  0  0  0
   25.0571  -20.5642  -14.6744 C   0  0  1  0  0  0  0  0  0  0  0  0
   23.6375  -20.5013  -15.1061 C   0  0  0  0  0  0  0  0  0  0  0  0
   22.6717  -20.0937  -14.0311 C   0  0  0  0  0  0  0  0  0  0  0  0
   21.6949  -21.1209  -13.6718 C   0  0  0  0  0  0  0  0  0  0  0  0
   20.7976  -21.4561  -14.4503 O   0  0  0  0  0  0  0  0  0  0  0  0
   25.3201  -21.3801  -13.4722 C   0  0  0  0  0  0  0  0  0  0  0  0
   26.1069  -22.3547  -13.5021 O   0  0  0  0  0  0  0  0  0  0  0  0
   21.7315  -21.7729  -12.4276 O   0  0  0  0  0  0  0  0  0  0  0  0
   24.6626  -21.0471  -12.2583 N   0  0  0  0  0  0  0  0  0  0  0  0
   25.3380  -21.0823  -10.9447 C   0  0  1  0  0  0  0  0  0  0  0  0
   26.6231  -20.3326  -10.9935 C   0  0  0  0  0  0  0  0  0  0  0  0
   27.2881  -20.3504   -9.6921 C   0  0  0  0  0  0  0  0  0  0  0  0
   27.0738  -19.3488   -8.7872 C   0  0  0  0  0  0  0  0  0  0  0  0
   27.6953  -19.3509   -7.5513 C   0  0  0  0  0  0  0  0  0  0  0  0
   28.5551  -20.3736   -7.1976 C   0  0  0  0  0  0  0  0  0  0  0  0
   28.7715  -21.3739   -8.0968 C   0  0  0  0  0  0  0  0  0  0  0  0
   28.1463  -21.3753   -9.3447 C   0  0  0  0  0  0  0  0  0  0  0  0
   24.4082  -20.6896   -9.8752 C   0  0  0  0  0  0  0  0  0  0  0  0
   24.5158  -21.2722   -8.7418 O   0  0  0  0  0  0  0  0  0  0  0  0
   23.4189  -19.7372   -9.9851 O   0  0  0  0  0  0  0  0  0  0  0  0
  2  1  1  6
  2  3  1  0
  3  4  1  0
  4  5  1  0
  5  6  2  0
  5  9  1  0
  7  8  2  0
  7  2  1  0
 10  7  1  0
 11 10  1  0
 11 12  1  6
 13 14  1  0
 13 12  1  0
 14 15  2  0
 16 11  1  0
 16 19  1  0
 17 16  2  0
 18 14  1  0
 20 19  1  0
 20 28  1  0
 20 21  1  6
 22 21  1  0
 23 22  2  0
 24 23  1  0
 25 26  1  0
 25 24  2  0
 26 27  2  0
 27 22  1  0
 28 29  2  0
 28 30  1  0
M  END
$$$$
