EEF.pdb
     RDKit          3D

 30 30  0  0  1  0  0  0  0  0999 V2000
   29.1478  -35.9582   -2.6219 N   0  0  0  0  0  0  0  0  0  0  0  0
   27.7599  -36.2997   -2.8978 C   0  0  1  0  0  0  0  0  0  0  0  0
   27.7605  -37.6689   -3.4997 C   0  0  0  0  0  0  0  0  0  0  0  0
   28.2864  -37.7693   -4.8864 C   0  0  0  0  0  0  0  0  0  0  0  0
   28.1474  -39.1170   -5.4330 C   0  0  0  0  0  0  0  0  0  0  0  0
   27.0524  -39.6926   -5.5534 O   0  0  0  0  0  0  0  0  0  0  0  0
   26.9521  -36.2007   -1.6440 C   0  0  0  0  0  0  0  0  0  0  0  0
   25.7899  -36.6132   -1.5811 O   0  0  0  0  0  0  0  0  0  0  0  0
   29.2883  -39.7873   -5.8365 O   0  0  0  0  0  0  0  0  0  0  0  0
   27.5171  -35.6216   -0.4899 N   0  0  0  0  0  0  0  0  0  0  0  0
   26.8200  -35.5087    0.7791 C   0  0  1  0  0  0  0  0  0  0  0  0
   27.7416  -36.0160    1.8273 C   0  0  0  0  0  0  0  0  0  0  0  0
   27.7759  -37.5109    1.9636 C   0  0  0  0  0  0  0  0  0  0  0  0
   28.6577  -38.0039    3.0208 C   0  0  0  0  0  0  0  0  0  0  0  0
   28.2061  -38.5232    4.0454 O   0  0  0  0  0  0  0  0  0  0  0  0
   26.2958  -34.1460    0.9992 C   0  0  0  0  0  0  0  0  0  0  0  0
   27.0398  -33.1400    0.9326 O   0  0  0  0  0  0  0  0  0  0  0  0
   30.0562  -37.9103    2.9205 O   0  0  0  0  0  0  0  0  0  0  0  0
   24.9165  -33.9794    1.2930 N   0  0  0  0  0  0  0  0  0  0  0  0
   24.3008  -32.6571    1.5281 C   0  0  1  0  0  0  0  0  0  0  0  0
   23.3795  -32.3001    0.4147 C   0  0  0  0  0  0  0  0  0  0  0  0
   24.1122  -32.1446   -0.8403 C   0  0  0  0  0  0  0  0  0  0  0  0
   24.0215  -33.0922   -1.8212 C   0  0  0  0  0  0  0  0  0  0  0  0
   24.7084  -32.9600   -3.0147 C   0  0  0  0  0  0  0  0  0  0  0  0
   25.5095  -31.8581   -3.2474 C   0  0  0  0  0  0  0  0  0  0  0  0
   25.6026  -30.9112   -2.2722 C   0  0  0  0  0  0  0  0  0  0  0  0
   24.9112  -31.0411   -1.0667 C   0  0  0  0  0  0  0  0  0  0  0  0
   23.7273  -32.5874    2.8805 C   0  0  0  0  0  0  0  0  0  0  0  0
   23.2078  -31.4808    3.2564 O   0  0  0  0  0  0  0  0  0  0  0  0
   23.6978  -33.6208    3.7910 O   0  0  0  0  0  0  0  0  0  0  0  0
  2  1  1  1
  2  3  1  0
  3  4  1  0
  4  5  1  0
  5  6  2  0
  5  9  1  0
  7  8  2  0
  7  2  1  0
 10  7  1  0
 11 10  1  0
 11 12  1  1
 13 14  1  0
 13 12  1  0
 14 15  2  0
 16 11  1  0
 16 19  1  0
 17 16  2  0
 18 14  1  0
 20 19  1  0
 20 28  1  0
 20 21  1  6
 22 21  1  0
 23 22  2  0
 24 23  1  0
 25 26  1  0
 25 24  2  0
 26 27  2  0
 27 22  1  0
 28 29  2  0
 28 30  1  0
M  END
$$$$
