EEF.pdb
     RDKit          3D

 30 30  0  0  1  0  0  0  0  0999 V2000
   30.2430  -41.8505   -3.1101 N   0  0  0  0  0  0  0  0  0  0  0  0
   30.9859  -40.6862   -2.6502 C   0  0  1  0  0  0  0  0  0  0  0  0
   31.6903  -40.1212   -3.8424 C   0  0  0  0  0  0  0  0  0  0  0  0
   32.8521  -40.9026   -4.3419 C   0  0  0  0  0  0  0  0  0  0  0  0
   33.4943  -40.2644   -5.4884 C   0  0  0  0  0  0  0  0  0  0  0  0
   33.0705  -39.2192   -6.0109 O   0  0  0  0  0  0  0  0  0  0  0  0
   30.0574  -39.7169   -1.9923 C   0  0  0  0  0  0  0  0  0  0  0  0
   28.8623  -39.6485   -2.2950 O   0  0  0  0  0  0  0  0  0  0  0  0
   34.6291  -40.8499   -6.0207 O   0  0  0  0  0  0  0  0  0  0  0  0
   30.5433  -38.8470   -0.9954 N   0  0  0  0  0  0  0  0  0  0  0  0
   29.7042  -37.9226   -0.2536 C   0  0  1  0  0  0  0  0  0  0  0  0
   30.4279  -37.5895    0.9998 C   0  0  0  0  0  0  0  0  0  0  0  0
   29.6462  -36.7560    1.9738 C   0  0  0  0  0  0  0  0  0  0  0  0
   30.3149  -36.5328    3.2549 C   0  0  0  0  0  0  0  0  0  0  0  0
   30.1657  -37.3093    4.2026 O   0  0  0  0  0  0  0  0  0  0  0  0
   29.2962  -36.7675   -1.0779 C   0  0  0  0  0  0  0  0  0  0  0  0
   30.0001  -36.3638   -2.0326 O   0  0  0  0  0  0  0  0  0  0  0  0
   31.1564  -35.4275    3.4668 O   0  0  0  0  0  0  0  0  0  0  0  0
   28.0778  -36.1037   -0.7757 N   0  0  0  0  0  0  0  0  0  0  0  0
   27.5399  -35.0008   -1.5987 C   0  0  1  0  0  0  0  0  0  0  0  0
   27.5184  -35.3803   -3.0379 C   0  0  0  0  0  0  0  0  0  0  0  0
   26.8599  -34.3510   -3.8399 C   0  0  0  0  0  0  0  0  0  0  0  0
   27.3844  -33.0916   -3.9227 C   0  0  0  0  0  0  0  0  0  0  0  0
   26.7735  -32.1063   -4.6775 C   0  0  0  0  0  0  0  0  0  0  0  0
   25.6088  -32.3724   -5.3723 C   0  0  0  0  0  0  0  0  0  0  0  0
   25.0827  -33.6265   -5.2924 C   0  0  0  0  0  0  0  0  0  0  0  0
   25.6960  -34.6233   -4.5319 C   0  0  0  0  0  0  0  0  0  0  0  0
   26.2661  -34.5171   -1.0453 C   0  0  0  0  0  0  0  0  0  0  0  0
   26.1201  -33.2564   -0.8872 O   0  0  0  0  0  0  0  0  0  0  0  0
   25.2012  -35.3100   -0.6778 O   0  0  0  0  0  0  0  0  0  0  0  0
  2  1  1  6
  2  3  1  0
  3  4  1  0
  4  5  1  0
  5  6  2  0
  5  9  1  0
  7  8  2  0
  7  2  1  0
 10  7  1  0
 11 10  1  0
 11 12  1  1
 13 14  1  0
 13 12  1  0
 14 15  2  0
 16 11  1  0
 16 19  1  0
 17 16  2  0
 18 14  1  0
 20 19  1  0
 20 28  1  0
 20 21  1  6
 22 21  1  0
 23 22  2  0
 24 23  1  0
 25 26  1  0
 25 24  2  0
 26 27  2  0
 27 22  1  0
 28 29  2  0
 28 30  1  0
M  END
$$$$
