EEF.pdb
     RDKit          3D

 30 30  0  0  1  0  0  0  0  0999 V2000
   19.3614  -11.5785  -19.8361 N   0  0  0  0  0  0  0  0  0  0  0  0
   19.6554  -11.1104  -18.4894 C   0  0  1  0  0  0  0  0  0  0  0  0
   20.7241  -12.0026  -17.9427 C   0  0  0  0  0  0  0  0  0  0  0  0
   22.0357  -11.9487  -18.6402 C   0  0  0  0  0  0  0  0  0  0  0  0
   23.1170  -11.5318  -17.7507 C   0  0  0  0  0  0  0  0  0  0  0  0
   23.7786  -10.4939  -17.9240 O   0  0  0  0  0  0  0  0  0  0  0  0
   20.0448   -9.6677  -18.5253 C   0  0  0  0  0  0  0  0  0  0  0  0
   20.8197   -9.2210  -19.3766 O   0  0  0  0  0  0  0  0  0  0  0  0
   23.4216  -12.3293  -16.6620 O   0  0  0  0  0  0  0  0  0  0  0  0
   19.5224   -8.7764  -17.5664 N   0  0  0  0  0  0  0  0  0  0  0  0
   19.8106   -7.3533  -17.5474 C   0  0  1  0  0  0  0  0  0  0  0  0
   18.6110   -6.6602  -18.0823 C   0  0  0  0  0  0  0  0  0  0  0  0
   18.7388   -5.1672  -18.1779 C   0  0  0  0  0  0  0  0  0  0  0  0
   17.5628   -4.4912  -18.7241 C   0  0  0  0  0  0  0  0  0  0  0  0
   17.0098   -4.8920  -19.7522 O   0  0  0  0  0  0  0  0  0  0  0  0
   20.2649   -6.9019  -16.2170 C   0  0  0  0  0  0  0  0  0  0  0  0
   19.6973   -7.2841  -15.1673 O   0  0  0  0  0  0  0  0  0  0  0  0
   17.0082   -3.3575  -18.1063 O   0  0  0  0  0  0  0  0  0  0  0  0
   21.3702   -6.0143  -16.1328 N   0  0  0  0  0  0  0  0  0  0  0  0
   21.8362   -5.4328  -14.8570 C   0  0  1  0  0  0  0  0  0  0  0  0
   23.2974   -5.6554  -14.6798 C   0  0  0  0  0  0  0  0  0  0  0  0
   23.6127   -7.0826  -14.6827 C   0  0  0  0  0  0  0  0  0  0  0  0
   24.4536   -7.6077  -15.6235 C   0  0  0  0  0  0  0  0  0  0  0  0
   24.7622   -8.9561  -15.6400 C   0  0  0  0  0  0  0  0  0  0  0  0
   24.2242   -9.8128  -14.6983 C   0  0  0  0  0  0  0  0  0  0  0  0
   23.3855   -9.2934  -13.7587 C   0  0  0  0  0  0  0  0  0  0  0  0
   23.0716   -7.9336  -13.7389 C   0  0  0  0  0  0  0  0  0  0  0  0
   21.3807   -4.0406  -14.7269 C   0  0  0  0  0  0  0  0  0  0  0  0
   21.0063   -3.4296  -15.7864 O   0  0  0  0  0  0  0  0  0  0  0  0
   21.3190   -3.3256  -13.5510 O   0  0  0  0  0  0  0  0  0  0  0  0
  2  1  1  6
  2  3  1  0
  3  4  1  0
  4  5  1  0
  5  6  2  0
  5  9  1  0
  7  8  2  0
  7  2  1  0
 10  7  1  0
 11 10  1  0
 11 12  1  1
 13 14  1  0
 13 12  1  0
 14 15  2  0
 16 11  1  0
 16 19  1  0
 17 16  2  0
 18 14  1  0
 20 19  1  0
 20 28  1  0
 20 21  1  6
 22 21  1  0
 23 22  2  0
 24 23  1  0
 25 26  1  0
 25 24  2  0
 26 27  2  0
 27 22  1  0
 28 29  2  0
 28 30  1  0
M  END
$$$$
