EEF.pdb
     RDKit          3D

 30 30  0  0  1  0  0  0  0  0999 V2000
   19.1651    3.2285   -2.8292 N   0  0  0  0  0  0  0  0  0  0  0  0
   20.4317    3.6833   -2.2743 C   0  0  1  0  0  0  0  0  0  0  0  0
   20.6223    2.9622   -0.9779 C   0  0  0  0  0  0  0  0  0  0  0  0
   19.6679    3.3118    0.1069 C   0  0  0  0  0  0  0  0  0  0  0  0
   19.9580    2.5981    1.3482 C   0  0  0  0  0  0  0  0  0  0  0  0
   20.9161    1.8165    1.4755 O   0  0  0  0  0  0  0  0  0  0  0  0
   21.5331    3.4441   -3.2563 C   0  0  0  0  0  0  0  0  0  0  0  0
   21.4593    2.5642   -4.1194 O   0  0  0  0  0  0  0  0  0  0  0  0
   19.1275    2.7999    2.4360 O   0  0  0  0  0  0  0  0  0  0  0  0
   22.6980    4.2362   -3.2099 N   0  0  0  0  0  0  0  0  0  0  0  0
   23.8143    4.0823   -4.1259 C   0  0  1  0  0  0  0  0  0  0  0  0
   24.1345    5.4341   -4.6510 C   0  0  0  0  0  0  0  0  0  0  0  0
   23.2148    5.9215   -5.7332 C   0  0  0  0  0  0  0  0  0  0  0  0
   23.6071    7.1952   -6.3348 C   0  0  0  0  0  0  0  0  0  0  0  0
   22.8344    7.8303   -7.0582 O   0  0  0  0  0  0  0  0  0  0  0  0
   24.9411    3.3593   -3.5031 C   0  0  0  0  0  0  0  0  0  0  0  0
   25.2165    3.4982   -2.2887 O   0  0  0  0  0  0  0  0  0  0  0  0
   24.8777    7.7548   -6.1184 O   0  0  0  0  0  0  0  0  0  0  0  0
   25.7262    2.4889   -4.3047 N   0  0  0  0  0  0  0  0  0  0  0  0
   26.9119    1.7745   -3.7882 C   0  0  1  0  0  0  0  0  0  0  0  0
   26.6588    0.3088   -3.7292 C   0  0  0  0  0  0  0  0  0  0  0  0
   25.7590   -0.0221   -2.6260 C   0  0  0  0  0  0  0  0  0  0  0  0
   24.4046    0.0811   -2.7776 C   0  0  0  0  0  0  0  0  0  0  0  0
   23.5394   -0.2284   -1.7435 C   0  0  0  0  0  0  0  0  0  0  0  0
   24.0263   -0.6531   -0.5217 C   0  0  0  0  0  0  0  0  0  0  0  0
   25.3757   -0.7573   -0.3664 C   0  0  0  0  0  0  0  0  0  0  0  0
   26.2519   -0.4460   -1.4073 C   0  0  0  0  0  0  0  0  0  0  0  0
   28.1210    2.1862   -4.5171 C   0  0  0  0  0  0  0  0  0  0  0  0
   29.2471    1.7280   -4.1198 O   0  0  0  0  0  0  0  0  0  0  0  0
   28.1507    3.0316   -5.6044 O   0  0  0  0  0  0  0  0  0  0  0  0
  2  1  1  6
  2  3  1  0
  3  4  1  0
  4  5  1  0
  5  6  2  0
  5  9  1  0
  7  8  2  0
  7  2  1  0
 10  7  1  0
 11 10  1  0
 11 12  1  1
 13 14  1  0
 13 12  1  0
 14 15  2  0
 16 11  1  0
 16 19  1  0
 17 16  2  0
 18 14  1  0
 20 19  1  0
 20 28  1  0
 20 21  1  6
 22 21  1  0
 23 22  2  0
 24 23  1  0
 25 26  1  0
 25 24  2  0
 26 27  2  0
 27 22  1  0
 28 29  2  0
 28 30  1  0
M  END
$$$$
