EEF.pdb
     RDKit          3D

 30 30  0  0  1  0  0  0  0  0999 V2000
   18.4199  -12.8678  -20.1354 N   0  0  0  0  0  0  0  0  0  0  0  0
   19.8744  -12.8324  -20.1812 C   0  0  1  0  0  0  0  0  0  0  0  0
   20.2777  -13.2906  -21.5466 C   0  0  0  0  0  0  0  0  0  0  0  0
   19.3927  -12.8655  -22.6628 C   0  0  0  0  0  0  0  0  0  0  0  0
   20.1380  -12.6216  -23.8955 C   0  0  0  0  0  0  0  0  0  0  0  0
   21.3651  -12.7933  -23.9939 O   0  0  0  0  0  0  0  0  0  0  0  0
   20.3612  -11.4594  -19.8460 C   0  0  0  0  0  0  0  0  0  0  0  0
   21.5633  -11.2030  -19.7278 O   0  0  0  0  0  0  0  0  0  0  0  0
   19.4468  -12.1775  -25.0086 O   0  0  0  0  0  0  0  0  0  0  0  0
   19.4350  -10.4144  -19.6548 N   0  0  0  0  0  0  0  0  0  0  0  0
   19.8126   -9.0568  -19.3037 C   0  0  1  0  0  0  0  0  0  0  0  0
   18.9504   -8.1467  -20.0998 C   0  0  0  0  0  0  0  0  0  0  0  0
   19.2878   -8.0808  -21.5614 C   0  0  0  0  0  0  0  0  0  0  0  0
   18.1279   -8.0549  -22.4514 C   0  0  0  0  0  0  0  0  0  0  0  0
   17.7046   -6.9971  -22.9263 O   0  0  0  0  0  0  0  0  0  0  0  0
   19.7882   -8.8394  -17.8434 C   0  0  0  0  0  0  0  0  0  0  0  0
   19.0058   -9.4759  -17.1001 O   0  0  0  0  0  0  0  0  0  0  0  0
   17.4427   -9.2290  -22.8072 O   0  0  0  0  0  0  0  0  0  0  0  0
   20.6738   -7.8855  -17.2757 N   0  0  0  0  0  0  0  0  0  0  0  0
   20.6792   -7.5536  -15.8360 C   0  0  1  0  0  0  0  0  0  0  0  0
   21.9541   -7.9865  -15.2009 C   0  0  0  0  0  0  0  0  0  0  0  0
   21.9701   -7.6499  -13.7788 C   0  0  0  0  0  0  0  0  0  0  0  0
   21.7203   -8.6058  -12.8344 C   0  0  0  0  0  0  0  0  0  0  0  0
   21.7318   -8.3036  -11.4845 C   0  0  0  0  0  0  0  0  0  0  0  0
   21.9984   -7.0179  -11.0533 C   0  0  0  0  0  0  0  0  0  0  0  0
   22.2479   -6.0620  -11.9915 C   0  0  0  0  0  0  0  0  0  0  0  0
   22.2371   -6.3629  -13.3543 C   0  0  0  0  0  0  0  0  0  0  0  0
   20.3069   -6.1461  -15.6291 C   0  0  0  0  0  0  0  0  0  0  0  0
   19.3967   -5.8857  -14.7690 O   0  0  0  0  0  0  0  0  0  0  0  0
   20.8580   -5.0679  -16.2861 O   0  0  0  0  0  0  0  0  0  0  0  0
  2  1  1  6
  2  3  1  0
  3  4  1  0
  4  5  1  0
  5  6  2  0
  5  9  1  0
  7  8  2  0
  7  2  1  0
 10  7  1  0
 11 10  1  0
 11 12  1  6
 13 14  1  0
 13 12  1  0
 14 15  2  0
 16 11  1  0
 16 19  1  0
 17 16  2  0
 18 14  1  0
 20 19  1  0
 20 28  1  0
 20 21  1  6
 22 21  1  0
 23 22  2  0
 24 23  1  0
 25 26  1  0
 25 24  2  0
 26 27  2  0
 27 22  1  0
 28 29  2  0
 28 30  1  0
M  END
$$$$
