EEF.pdb
     RDKit          3D

 30 30  0  0  1  0  0  0  0  0999 V2000
   14.6876  -23.0121   -7.8643 N   0  0  0  0  0  0  0  0  0  0  0  0
   15.3037  -24.3308   -7.8369 C   0  0  1  0  0  0  0  0  0  0  0  0
   16.7479  -24.1430   -8.1772 C   0  0  0  0  0  0  0  0  0  0  0  0
   17.4389  -25.3257   -8.7548 C   0  0  0  0  0  0  0  0  0  0  0  0
   18.6878  -25.6287   -8.0601 C   0  0  0  0  0  0  0  0  0  0  0  0
   19.1233  -24.9483   -7.1154 O   0  0  0  0  0  0  0  0  0  0  0  0
   15.0841  -24.9679   -6.5026 C   0  0  0  0  0  0  0  0  0  0  0  0
   15.0562  -24.3073   -5.4598 O   0  0  0  0  0  0  0  0  0  0  0  0
   19.4237  -26.7254   -8.4720 O   0  0  0  0  0  0  0  0  0  0  0  0
   14.9026  -26.3628   -6.4131 N   0  0  0  0  0  0  0  0  0  0  0  0
   14.7013  -27.0706   -5.1612 C   0  0  1  0  0  0  0  0  0  0  0  0
   13.8429  -28.2452   -5.4598 C   0  0  0  0  0  0  0  0  0  0  0  0
   13.5232  -29.1074   -4.2728 C   0  0  0  0  0  0  0  0  0  0  0  0
   12.6489  -30.2424   -4.5652 C   0  0  0  0  0  0  0  0  0  0  0  0
   12.2771  -30.4886   -5.7161 O   0  0  0  0  0  0  0  0  0  0  0  0
   15.9805  -27.3730   -4.4886 C   0  0  0  0  0  0  0  0  0  0  0  0
   17.0753  -27.2735   -5.0896 O   0  0  0  0  0  0  0  0  0  0  0  0
   12.1923  -31.1038   -3.5532 O   0  0  0  0  0  0  0  0  0  0  0  0
   15.9617  -27.7859   -3.1300 N   0  0  0  0  0  0  0  0  0  0  0  0
   17.1214  -27.6288   -2.2281 C   0  0  1  0  0  0  0  0  0  0  0  0
   17.6250  -26.2283   -2.2575 C   0  0  0  0  0  0  0  0  0  0  0  0
   18.7782  -26.0689   -1.3738 C   0  0  0  0  0  0  0  0  0  0  0  0
   20.0440  -26.3050   -1.8320 C   0  0  0  0  0  0  0  0  0  0  0  0
   21.1460  -26.1586   -1.0086 C   0  0  0  0  0  0  0  0  0  0  0  0
   20.9937  -25.7669    0.3081 C   0  0  0  0  0  0  0  0  0  0  0  0
   19.7335  -25.5306    0.7687 C   0  0  0  0  0  0  0  0  0  0  0  0
   18.6193  -25.6772   -0.0589 C   0  0  0  0  0  0  0  0  0  0  0  0
   16.8167  -28.1714   -0.8956 C   0  0  0  0  0  0  0  0  0  0  0  0
   15.6884  -27.8767   -0.3707 O   0  0  0  0  0  0  0  0  0  0  0  0
   17.6478  -28.9804   -0.1522 O   0  0  0  0  0  0  0  0  0  0  0  0
  2  1  1  1
  2  3  1  0
  3  4  1  0
  4  5  1  0
  5  6  2  0
  5  9  1  0
  7  8  2  0
  7  2  1  0
 10  7  1  0
 11 10  1  0
 11 12  1  6
 13 14  1  0
 13 12  1  0
 14 15  2  0
 16 11  1  0
 16 19  1  0
 17 16  2  0
 18 14  1  0
 20 19  1  0
 20 28  1  0
 20 21  1  1
 22 21  1  0
 23 22  2  0
 24 23  1  0
 25 26  1  0
 25 24  2  0
 26 27  2  0
 27 22  1  0
 28 29  2  0
 28 30  1  0
M  END
$$$$
