EEF.pdb
     RDKit          3D

 30 30  0  0  1  0  0  0  0  0999 V2000
   26.6124  -33.8290  -15.5410 N   0  0  0  0  0  0  0  0  0  0  0  0
   25.4456  -34.5163  -15.0068 C   0  0  1  0  0  0  0  0  0  0  0  0
   25.9236  -35.8241  -14.4609 C   0  0  0  0  0  0  0  0  0  0  0  0
   27.3858  -35.9306  -14.2152 C   0  0  0  0  0  0  0  0  0  0  0  0
   27.8002  -37.3040  -13.9386 C   0  0  0  0  0  0  0  0  0  0  0  0
   27.8274  -38.1942  -14.8057 O   0  0  0  0  0  0  0  0  0  0  0  0
   24.7704  -33.6565  -13.9874 C   0  0  0  0  0  0  0  0  0  0  0  0
   25.3469  -32.7067  -13.4486 O   0  0  0  0  0  0  0  0  0  0  0  0
   28.1809  -37.6324  -12.6497 O   0  0  0  0  0  0  0  0  0  0  0  0
   23.4369  -33.9235  -13.6174 N   0  0  0  0  0  0  0  0  0  0  0  0
   22.8338  -33.4548  -12.3823 C   0  0  1  0  0  0  0  0  0  0  0  0
   21.4290  -33.9364  -12.3750 C   0  0  0  0  0  0  0  0  0  0  0  0
   20.6340  -33.5357  -11.1659 C   0  0  0  0  0  0  0  0  0  0  0  0
   19.7635  -32.3783  -11.3683 C   0  0  0  0  0  0  0  0  0  0  0  0
   18.5363  -32.4981  -11.4245 O   0  0  0  0  0  0  0  0  0  0  0  0
   23.6390  -33.8262  -11.2017 C   0  0  0  0  0  0  0  0  0  0  0  0
   24.6611  -34.5433  -11.3059 O   0  0  0  0  0  0  0  0  0  0  0  0
   20.2811  -31.0794  -11.5076 O   0  0  0  0  0  0  0  0  0  0  0  0
   23.2397  -33.3568   -9.9222 N   0  0  0  0  0  0  0  0  0  0  0  0
   24.0477  -33.5663   -8.7032 C   0  0  1  0  0  0  0  0  0  0  0  0
   25.2337  -32.6667   -8.6968 C   0  0  0  0  0  0  0  0  0  0  0  0
   26.0215  -32.8492   -7.4794 C   0  0  0  0  0  0  0  0  0  0  0  0
   27.1695  -33.5909   -7.4978 C   0  0  0  0  0  0  0  0  0  0  0  0
   27.9265  -33.7731   -6.3544 C   0  0  0  0  0  0  0  0  0  0  0  0
   27.5385  -33.2054   -5.1555 C   0  0  0  0  0  0  0  0  0  0  0  0
   26.3949  -32.4653   -5.1328 C   0  0  0  0  0  0  0  0  0  0  0  0
   25.6283  -32.2792   -6.2843 C   0  0  0  0  0  0  0  0  0  0  0  0
   23.1975  -33.5127   -7.5044 C   0  0  0  0  0  0  0  0  0  0  0  0
   22.1812  -32.7366   -7.5231 O   0  0  0  0  0  0  0  0  0  0  0  0
   23.3991  -34.2335   -6.3479 O   0  0  0  0  0  0  0  0  0  0  0  0
  2  1  1  1
  2  3  1  0
  3  4  1  0
  4  5  1  0
  5  6  2  0
  5  9  1  0
  7  8  2  0
  7  2  1  0
 10  7  1  0
 11 10  1  0
 11 12  1  1
 13 14  1  0
 13 12  1  0
 14 15  2  0
 16 11  1  0
 16 19  1  0
 17 16  2  0
 18 14  1  0
 20 19  1  0
 20 28  1  0
 20 21  1  1
 22 21  1  0
 23 22  2  0
 24 23  1  0
 25 26  1  0
 25 24  2  0
 26 27  2  0
 27 22  1  0
 28 29  2  0
 28 30  1  0
M  END
$$$$
