EEF.pdb
     RDKit          3D

 30 30  0  0  1  0  0  0  0  0999 V2000
   17.3222  -12.9055  -16.4720 N   0  0  0  0  0  0  0  0  0  0  0  0
   16.9501  -11.5947  -15.9600 C   0  0  1  0  0  0  0  0  0  0  0  0
   16.2082  -11.8220  -14.6814 C   0  0  0  0  0  0  0  0  0  0  0  0
   14.7738  -11.4316  -14.6837 C   0  0  0  0  0  0  0  0  0  0  0  0
   13.9440  -12.3841  -15.4175 C   0  0  0  0  0  0  0  0  0  0  0  0
   14.3928  -13.4241  -15.9296 O   0  0  0  0  0  0  0  0  0  0  0  0
   18.1700  -10.7461  -15.7978 C   0  0  0  0  0  0  0  0  0  0  0  0
   19.0924  -11.0656  -15.0417 O   0  0  0  0  0  0  0  0  0  0  0  0
   12.5930  -12.1179  -15.5508 O   0  0  0  0  0  0  0  0  0  0  0  0
   18.2876   -9.5420  -16.5209 N   0  0  0  0  0  0  0  0  0  0  0  0
   19.4149   -8.6348  -16.3979 C   0  0  1  0  0  0  0  0  0  0  0  0
   19.4023   -7.7614  -17.5990 C   0  0  0  0  0  0  0  0  0  0  0  0
   20.4688   -6.7047  -17.6183 C   0  0  0  0  0  0  0  0  0  0  0  0
   20.4569   -5.8522  -18.8063 C   0  0  0  0  0  0  0  0  0  0  0  0
   20.2906   -4.6321  -18.7212 O   0  0  0  0  0  0  0  0  0  0  0  0
   19.4150   -7.9305  -15.1002 C   0  0  0  0  0  0  0  0  0  0  0  0
   18.3549   -7.5010  -14.5887 O   0  0  0  0  0  0  0  0  0  0  0  0
   20.6340   -6.3797  -20.0966 O   0  0  0  0  0  0  0  0  0  0  0  0
   20.6481   -7.7389  -14.4224 N   0  0  0  0  0  0  0  0  0  0  0  0
   20.7538   -7.0125  -13.1401 C   0  0  1  0  0  0  0  0  0  0  0  0
   21.5378   -7.8020  -12.1511 C   0  0  0  0  0  0  0  0  0  0  0  0
   21.6479   -7.0871  -10.8811 C   0  0  0  0  0  0  0  0  0  0  0  0
   22.7109   -6.2638  -10.6357 C   0  0  0  0  0  0  0  0  0  0  0  0
   22.8299   -5.5800   -9.4390 C   0  0  0  0  0  0  0  0  0  0  0  0
   21.8695   -5.7128   -8.4540 C   0  0  0  0  0  0  0  0  0  0  0  0
   20.8082   -6.5324   -8.6947 C   0  0  0  0  0  0  0  0  0  0  0  0
   20.6847   -7.2241   -9.9007 C   0  0  0  0  0  0  0  0  0  0  0  0
   21.2109   -5.6328  -13.3643 C   0  0  0  0  0  0  0  0  0  0  0  0
   22.0828   -5.4298  -14.2776 O   0  0  0  0  0  0  0  0  0  0  0  0
   20.7781   -4.5241  -12.6705 O   0  0  0  0  0  0  0  0  0  0  0  0
  2  1  1  1
  2  3  1  0
  3  4  1  0
  4  5  1  0
  5  6  2  0
  5  9  1  0
  7  8  2  0
  7  2  1  0
 10  7  1  0
 11 10  1  0
 11 12  1  6
 13 14  1  0
 13 12  1  0
 14 15  2  0
 16 11  1  0
 16 19  1  0
 17 16  2  0
 18 14  1  0
 20 19  1  0
 20 28  1  0
 20 21  1  1
 22 21  1  0
 23 22  2  0
 24 23  1  0
 25 26  1  0
 25 24  2  0
 26 27  2  0
 27 22  1  0
 28 29  2  0
 28 30  1  0
M  END
$$$$
