EEF.pdb
     RDKit          3D

 30 30  0  0  1  0  0  0  0  0999 V2000
   21.2906  -27.4684  -11.8120 N   0  0  0  0  0  0  0  0  0  0  0  0
   19.8733  -27.5180  -11.4832 C   0  0  1  0  0  0  0  0  0  0  0  0
   19.5388  -28.9511  -11.2167 C   0  0  0  0  0  0  0  0  0  0  0  0
   19.5734  -29.8568  -12.3949 C   0  0  0  0  0  0  0  0  0  0  0  0
   20.5245  -30.9520  -12.2212 C   0  0  0  0  0  0  0  0  0  0  0  0
   21.1536  -31.1460  -11.1668 O   0  0  0  0  0  0  0  0  0  0  0  0
   19.5868  -26.6146  -10.3272 C   0  0  0  0  0  0  0  0  0  0  0  0
   20.3104  -26.5836   -9.3271 O   0  0  0  0  0  0  0  0  0  0  0  0
   20.7375  -31.8165  -13.2801 O   0  0  0  0  0  0  0  0  0  0  0  0
   18.4613  -25.7669  -10.3620 N   0  0  0  0  0  0  0  0  0  0  0  0
   18.1224  -24.8333   -9.3026 C   0  0  1  0  0  0  0  0  0  0  0  0
   17.3568  -23.7255   -9.9287 C   0  0  0  0  0  0  0  0  0  0  0  0
   16.9198  -22.6484   -8.9781 C   0  0  0  0  0  0  0  0  0  0  0  0
   16.1342  -21.5790   -9.5926 C   0  0  0  0  0  0  0  0  0  0  0  0
   14.9175  -21.4860   -9.4066 O   0  0  0  0  0  0  0  0  0  0  0  0
   17.4555  -25.5057   -8.1697 C   0  0  0  0  0  0  0  0  0  0  0  0
   16.5124  -26.3106   -8.3497 O   0  0  0  0  0  0  0  0  0  0  0  0
   16.7252  -20.6097  -10.4207 O   0  0  0  0  0  0  0  0  0  0  0  0
   17.8980  -25.2286   -6.8491 N   0  0  0  0  0  0  0  0  0  0  0  0
   17.3115  -25.8720   -5.6553 C   0  0  1  0  0  0  0  0  0  0  0  0
   18.3718  -26.2174   -4.6692 C   0  0  0  0  0  0  0  0  0  0  0  0
   17.8028  -26.8946   -3.5057 C   0  0  0  0  0  0  0  0  0  0  0  0
   18.4773  -26.9214   -2.3172 C   0  0  0  0  0  0  0  0  0  0  0  0
   17.9526  -27.5579   -1.2067 C   0  0  0  0  0  0  0  0  0  0  0  0
   16.7238  -28.1873   -1.2711 C   0  0  0  0  0  0  0  0  0  0  0  0
   16.0483  -28.1629   -2.4540 C   0  0  0  0  0  0  0  0  0  0  0  0
   16.5744  -27.5219   -3.5767 C   0  0  0  0  0  0  0  0  0  0  0  0
   16.1907  -25.0737   -5.1364 C   0  0  0  0  0  0  0  0  0  0  0  0
   16.2417  -23.8036   -5.2777 O   0  0  0  0  0  0  0  0  0  0  0  0
   15.0751  -25.5774   -4.5042 O   0  0  0  0  0  0  0  0  0  0  0  0
  2  1  1  1
  2  3  1  0
  3  4  1  0
  4  5  1  0
  5  6  2  0
  5  9  1  0
  7  8  2  0
  7  2  1  0
 10  7  1  0
 11 10  1  0
 11 12  1  6
 13 14  1  0
 13 12  1  0
 14 15  2  0
 16 11  1  0
 16 19  1  0
 17 16  2  0
 18 14  1  0
 20 19  1  0
 20 28  1  0
 20 21  1  1
 22 21  1  0
 23 22  2  0
 24 23  1  0
 25 26  1  0
 25 24  2  0
 26 27  2  0
 27 22  1  0
 28 29  2  0
 28 30  1  0
M  END
$$$$
