EEF.pdb
     RDKit          3D

 30 30  0  0  1  0  0  0  0  0999 V2000
   24.3639  -13.1339  -16.5622 N   0  0  0  0  0  0  0  0  0  0  0  0
   24.7756  -11.8675  -15.9741 C   0  0  1  0  0  0  0  0  0  0  0  0
   26.1682  -11.5998  -16.4494 C   0  0  0  0  0  0  0  0  0  0  0  0
   26.7852  -10.3335  -15.9743 C   0  0  0  0  0  0  0  0  0  0  0  0
   26.9735   -9.3713  -17.0573 C   0  0  0  0  0  0  0  0  0  0  0  0
   26.1168   -9.1544  -17.9314 O   0  0  0  0  0  0  0  0  0  0  0  0
   23.8034  -10.7941  -16.3443 C   0  0  0  0  0  0  0  0  0  0  0  0
   23.4812  -10.5804  -17.5170 O   0  0  0  0  0  0  0  0  0  0  0  0
   28.1625   -8.6663  -17.1155 O   0  0  0  0  0  0  0  0  0  0  0  0
   23.2280   -9.9919  -15.3383 N   0  0  0  0  0  0  0  0  0  0  0  0
   22.2794   -8.9246  -15.6027 C   0  0  1  0  0  0  0  0  0  0  0  0
   20.9943   -9.3197  -14.9719 C   0  0  0  0  0  0  0  0  0  0  0  0
   19.8816   -8.3253  -15.1374 C   0  0  0  0  0  0  0  0  0  0  0  0
   18.6611   -8.6523  -14.4014 C   0  0  0  0  0  0  0  0  0  0  0  0
   17.5449   -8.4974  -14.9051 O   0  0  0  0  0  0  0  0  0  0  0  0
   22.8075   -7.6067  -15.1972 C   0  0  0  0  0  0  0  0  0  0  0  0
   23.5160   -7.4726  -14.1725 O   0  0  0  0  0  0  0  0  0  0  0  0
   18.7010   -9.1569  -13.0905 O   0  0  0  0  0  0  0  0  0  0  0  0
   22.5012   -6.4697  -15.9910 N   0  0  0  0  0  0  0  0  0  0  0  0
   22.9351   -5.1029  -15.6354 C   0  0  1  0  0  0  0  0  0  0  0  0
   23.7475   -4.5069  -16.7312 C   0  0  0  0  0  0  0  0  0  0  0  0
   22.9133   -4.1960  -17.8904 C   0  0  0  0  0  0  0  0  0  0  0  0
   22.2485   -3.0044  -17.9699 C   0  0  0  0  0  0  0  0  0  0  0  0
   21.4552   -2.6948  -19.0601 C   0  0  0  0  0  0  0  0  0  0  0  0
   21.3139   -3.5890  -20.1044 C   0  0  0  0  0  0  0  0  0  0  0  0
   21.9749   -4.7779  -20.0290 C   0  0  0  0  0  0  0  0  0  0  0  0
   22.7761   -5.0940  -18.9307 C   0  0  0  0  0  0  0  0  0  0  0  0
   21.7909   -4.3003  -15.1778 C   0  0  0  0  0  0  0  0  0  0  0  0
   20.6165   -4.7780  -15.3462 O   0  0  0  0  0  0  0  0  0  0  0  0
   21.8710   -3.0642  -14.5750 O   0  0  0  0  0  0  0  0  0  0  0  0
  2  1  1  6
  2  3  1  0
  3  4  1  0
  4  5  1  0
  5  6  2  0
  5  9  1  0
  7  8  2  0
  7  2  1  0
 10  7  1  0
 11 10  1  0
 11 12  1  1
 13 14  1  0
 13 12  1  0
 14 15  2  0
 16 11  1  0
 16 19  1  0
 17 16  2  0
 18 14  1  0
 20 19  1  0
 20 28  1  0
 20 21  1  6
 22 21  1  0
 23 22  2  0
 24 23  1  0
 25 26  1  0
 25 24  2  0
 26 27  2  0
 27 22  1  0
 28 29  2  0
 28 30  1  0
M  END
$$$$
