EEF.pdb
     RDKit          3D

 30 30  0  0  1  0  0  0  0  0999 V2000
   26.0334  -17.5813  -16.3763 N   0  0  0  0  0  0  0  0  0  0  0  0
   26.8783  -18.3845  -15.5044 C   0  0  1  0  0  0  0  0  0  0  0  0
   27.9789  -17.4930  -15.0239 C   0  0  0  0  0  0  0  0  0  0  0  0
   29.2733  -17.6115  -15.7451 C   0  0  0  0  0  0  0  0  0  0  0  0
   29.1276  -17.3853  -17.1810 C   0  0  0  0  0  0  0  0  0  0  0  0
   28.7422  -18.2630  -17.9724 O   0  0  0  0  0  0  0  0  0  0  0  0
   26.0595  -18.9686  -14.3986 C   0  0  0  0  0  0  0  0  0  0  0  0
   25.4066  -18.2614  -13.6252 O   0  0  0  0  0  0  0  0  0  0  0  0
   29.4330  -16.1346  -17.6873 O   0  0  0  0  0  0  0  0  0  0  0  0
   26.0203  -20.3659  -14.2181 N   0  0  0  0  0  0  0  0  0  0  0  0
   25.2881  -21.0201  -13.1481 C   0  0  1  0  0  0  0  0  0  0  0  0
   24.8071  -22.3195  -13.6825 C   0  0  0  0  0  0  0  0  0  0  0  0
   23.8794  -23.0690  -12.7703 C   0  0  0  0  0  0  0  0  0  0  0  0
   22.4596  -22.9014  -13.0776 C   0  0  0  0  0  0  0  0  0  0  0  0
   21.9784  -23.3086  -14.1388 O   0  0  0  0  0  0  0  0  0  0  0  0
   26.0828  -21.0989  -11.9061 C   0  0  0  0  0  0  0  0  0  0  0  0
   27.2856  -21.4495  -11.9200 O   0  0  0  0  0  0  0  0  0  0  0  0
   21.5788  -22.2711  -12.1823 O   0  0  0  0  0  0  0  0  0  0  0  0
   25.4632  -20.7690  -10.6717 N   0  0  0  0  0  0  0  0  0  0  0  0
   26.1483  -20.9029   -9.3695 C   0  0  1  0  0  0  0  0  0  0  0  0
   27.0129  -19.7202   -9.1056 C   0  0  0  0  0  0  0  0  0  0  0  0
   27.5669  -19.7691   -7.7540 C   0  0  0  0  0  0  0  0  0  0  0  0
   28.6571  -20.5452   -7.4763 C   0  0  0  0  0  0  0  0  0  0  0  0
   29.1936  -20.6024   -6.2025 C   0  0  0  0  0  0  0  0  0  0  0  0
   28.6368  -19.8706   -5.1707 C   0  0  0  0  0  0  0  0  0  0  0  0
   27.5500  -19.0956   -5.4433 C   0  0  0  0  0  0  0  0  0  0  0  0
   27.0057  -19.0353   -6.7272 C   0  0  0  0  0  0  0  0  0  0  0  0
   25.1846  -21.2400   -8.3111 C   0  0  0  0  0  0  0  0  0  0  0  0
   23.9639  -20.8971   -8.4788 O   0  0  0  0  0  0  0  0  0  0  0  0
   25.4817  -21.9016   -7.1398 O   0  0  0  0  0  0  0  0  0  0  0  0
  2  1  1  6
  2  3  1  0
  3  4  1  0
  4  5  1  0
  5  6  2  0
  5  9  1  0
  7  8  2  0
  7  2  1  0
 10  7  1  0
 11 10  1  0
 11 12  1  6
 13 14  1  0
 13 12  1  0
 14 15  2  0
 16 11  1  0
 16 19  1  0
 17 16  2  0
 18 14  1  0
 20 19  1  0
 20 28  1  0
 20 21  1  1
 22 21  1  0
 23 22  2  0
 24 23  1  0
 25 26  1  0
 25 24  2  0
 26 27  2  0
 27 22  1  0
 28 29  2  0
 28 30  1  0
M  END
$$$$
