EEF.pdb
     RDKit          3D

 30 30  0  0  1  0  0  0  0  0999 V2000
   18.6382  -14.9891  -19.1702 N   0  0  0  0  0  0  0  0  0  0  0  0
   18.4603  -14.3193  -17.8900 C   0  0  1  0  0  0  0  0  0  0  0  0
   19.0431  -15.2169  -16.8451 C   0  0  0  0  0  0  0  0  0  0  0  0
   18.2591  -16.4393  -16.5273 C   0  0  0  0  0  0  0  0  0  0  0  0
   17.1706  -16.1687  -15.5913 C   0  0  0  0  0  0  0  0  0  0  0  0
   15.9783  -16.1002  -15.9358 O   0  0  0  0  0  0  0  0  0  0  0  0
   19.0920  -12.9652  -17.9315 C   0  0  0  0  0  0  0  0  0  0  0  0
   20.1168  -12.7419  -18.5831 O   0  0  0  0  0  0  0  0  0  0  0  0
   17.4791  -15.9787  -14.2561 O   0  0  0  0  0  0  0  0  0  0  0  0
   18.5149  -11.9000  -17.2111 N   0  0  0  0  0  0  0  0  0  0  0  0
   19.1050  -10.5763  -17.1188 C   0  0  1  0  0  0  0  0  0  0  0  0
   18.0611   -9.6729  -16.5714 C   0  0  0  0  0  0  0  0  0  0  0  0
   18.5106   -8.2582  -16.3452 C   0  0  0  0  0  0  0  0  0  0  0  0
   17.4684   -7.3631  -15.8443 C   0  0  0  0  0  0  0  0  0  0  0  0
   17.6927   -6.1675  -15.6354 O   0  0  0  0  0  0  0  0  0  0  0  0
   20.3821  -10.5940  -16.3781 C   0  0  0  0  0  0  0  0  0  0  0  0
   20.5566  -11.3476  -15.3924 O   0  0  0  0  0  0  0  0  0  0  0  0
   16.1665   -7.8202  -15.5781 O   0  0  0  0  0  0  0  0  0  0  0  0
   21.4319   -9.7345  -16.7976 N   0  0  0  0  0  0  0  0  0  0  0  0
   22.7279   -9.6488  -16.0934 C   0  0  1  0  0  0  0  0  0  0  0  0
   23.8004  -10.3150  -16.8821 C   0  0  0  0  0  0  0  0  0  0  0  0
   25.0961  -10.1813  -16.2193 C   0  0  0  0  0  0  0  0  0  0  0  0
   26.0538   -9.3475  -16.7250 C   0  0  0  0  0  0  0  0  0  0  0  0
   27.2851   -9.2096  -16.1097 C   0  0  0  0  0  0  0  0  0  0  0  0
   27.5803   -9.9165  -14.9594 C   0  0  0  0  0  0  0  0  0  0  0  0
   26.6284  -10.7488  -14.4521 C   0  0  0  0  0  0  0  0  0  0  0  0
   25.3850  -10.8907  -15.0699 C   0  0  0  0  0  0  0  0  0  0  0  0
   23.0021   -8.2636  -15.6829 C   0  0  0  0  0  0  0  0  0  0  0  0
   23.4096   -8.0608  -14.4876 O   0  0  0  0  0  0  0  0  0  0  0  0
   22.8586   -7.1496  -16.4805 O   0  0  0  0  0  0  0  0  0  0  0  0
  2  1  1  6
  2  3  1  0
  3  4  1  0
  4  5  1  0
  5  6  2  0
  5  9  1  0
  7  8  2  0
  7  2  1  0
 10  7  1  0
 11 10  1  0
 11 12  1  1
 13 14  1  0
 13 12  1  0
 14 15  2  0
 16 11  1  0
 16 19  1  0
 17 16  2  0
 18 14  1  0
 20 19  1  0
 20 28  1  0
 20 21  1  6
 22 21  1  0
 23 22  2  0
 24 23  1  0
 25 26  1  0
 25 24  2  0
 26 27  2  0
 27 22  1  0
 28 29  2  0
 28 30  1  0
M  END
$$$$
