EEF.pdb
     RDKit          3D

 30 30  0  0  1  0  0  0  0  0999 V2000
   20.8620  -12.0815  -18.6158 N   0  0  0  0  0  0  0  0  0  0  0  0
   19.8743  -11.0236  -18.4590 C   0  0  1  0  0  0  0  0  0  0  0  0
   18.9180  -11.4750  -17.4014 C   0  0  0  0  0  0  0  0  0  0  0  0
   19.4702  -11.5737  -16.0248 C   0  0  0  0  0  0  0  0  0  0  0  0
   18.4623  -11.9952  -15.0549 C   0  0  0  0  0  0  0  0  0  0  0  0
   17.6609  -11.2090  -14.5213 O   0  0  0  0  0  0  0  0  0  0  0  0
   20.5566   -9.7339  -18.1337 C   0  0  0  0  0  0  0  0  0  0  0  0
   21.6681   -9.7000  -17.5969 O   0  0  0  0  0  0  0  0  0  0  0  0
   18.3945  -13.3336  -14.7116 O   0  0  0  0  0  0  0  0  0  0  0  0
   19.9272   -8.5108  -18.4410 N   0  0  0  0  0  0  0  0  0  0  0  0
   20.5298   -7.2116  -18.2009 C   0  0  1  0  0  0  0  0  0  0  0  0
   19.9538   -6.2748  -19.1989 C   0  0  0  0  0  0  0  0  0  0  0  0
   20.6407   -4.9420  -19.2788 C   0  0  0  0  0  0  0  0  0  0  0  0
   19.9941   -3.9785  -20.1687 C   0  0  0  0  0  0  0  0  0  0  0  0
   20.4550   -2.8455  -20.3342 O   0  0  0  0  0  0  0  0  0  0  0  0
   20.3983   -6.7967  -16.7900 C   0  0  0  0  0  0  0  0  0  0  0  0
   19.4767   -7.2340  -16.0625 O   0  0  0  0  0  0  0  0  0  0  0  0
   18.8218   -4.2959  -20.8755 O   0  0  0  0  0  0  0  0  0  0  0  0
   21.3409   -5.8807  -16.2523 N   0  0  0  0  0  0  0  0  0  0  0  0
   21.3240   -5.4495  -14.8392 C   0  0  1  0  0  0  0  0  0  0  0  0
   22.6296   -5.7383  -14.1852 C   0  0  0  0  0  0  0  0  0  0  0  0
   22.9554   -7.1603  -14.2741 C   0  0  0  0  0  0  0  0  0  0  0  0
   22.3569   -8.0648  -13.4424 C   0  0  0  0  0  0  0  0  0  0  0  0
   22.6541   -9.4140  -13.5137 C   0  0  0  0  0  0  0  0  0  0  0  0
   23.5705   -9.8850  -14.4349 C   0  0  0  0  0  0  0  0  0  0  0  0
   24.1693   -8.9867  -15.2659 C   0  0  0  0  0  0  0  0  0  0  0  0
   23.8722   -7.6247  -15.1969 C   0  0  0  0  0  0  0  0  0  0  0  0
   20.8451   -4.0635  -14.7278 C   0  0  0  0  0  0  0  0  0  0  0  0
   20.8631   -3.3355  -15.7792 O   0  0  0  0  0  0  0  0  0  0  0  0
   20.3716   -3.4707  -13.5779 O   0  0  0  0  0  0  0  0  0  0  0  0
  2  1  1  1
  2  3  1  0
  3  4  1  0
  4  5  1  0
  5  6  2  0
  5  9  1  0
  7  8  2  0
  7  2  1  0
 10  7  1  0
 11 10  1  0
 11 12  1  6
 13 14  1  0
 13 12  1  0
 14 15  2  0
 16 11  1  0
 16 19  1  0
 17 16  2  0
 18 14  1  0
 20 19  1  0
 20 28  1  0
 20 21  1  6
 22 21  1  0
 23 22  2  0
 24 23  1  0
 25 26  1  0
 25 24  2  0
 26 27  2  0
 27 22  1  0
 28 29  2  0
 28 30  1  0
M  END
$$$$
