EEF.pdb
     RDKit          3D

 30 30  0  0  1  0  0  0  0  0999 V2000
   20.5074  -12.7354  -19.9209 N   0  0  0  0  0  0  0  0  0  0  0  0
   21.1518  -11.9779  -18.8579 C   0  0  1  0  0  0  0  0  0  0  0  0
   22.3155  -11.2683  -19.4737 C   0  0  0  0  0  0  0  0  0  0  0  0
   22.9268  -11.9278  -20.6574 C   0  0  0  0  0  0  0  0  0  0  0  0
   24.1694  -12.6196  -20.3232 C   0  0  0  0  0  0  0  0  0  0  0  0
   24.8229  -13.2810  -21.1481 O   0  0  0  0  0  0  0  0  0  0  0  0
   20.1636  -11.0568  -18.2177 C   0  0  0  0  0  0  0  0  0  0  0  0
   19.7515  -10.0421  -18.7880 O   0  0  0  0  0  0  0  0  0  0  0  0
   24.6436  -12.5365  -19.0262 O   0  0  0  0  0  0  0  0  0  0  0  0
   19.6777  -11.3388  -16.9251 N   0  0  0  0  0  0  0  0  0  0  0  0
   18.7842  -10.4606  -16.1906 C   0  0  1  0  0  0  0  0  0  0  0  0
   17.4300  -11.0669  -16.2547 C   0  0  0  0  0  0  0  0  0  0  0  0
   17.2927  -12.3751  -15.5306 C   0  0  0  0  0  0  0  0  0  0  0  0
   15.9420  -12.9353  -15.5406 C   0  0  0  0  0  0  0  0  0  0  0  0
   15.6765  -13.9638  -16.1692 O   0  0  0  0  0  0  0  0  0  0  0  0
   19.2884  -10.1740  -14.8327 C   0  0  0  0  0  0  0  0  0  0  0  0
   20.0534  -10.9680  -14.2376 O   0  0  0  0  0  0  0  0  0  0  0  0
   14.8859  -12.3314  -14.8373 O   0  0  0  0  0  0  0  0  0  0  0  0
   18.8928   -8.9696  -14.1928 N   0  0  0  0  0  0  0  0  0  0  0  0
   19.3590   -8.5878  -12.8438 C   0  0  1  0  0  0  0  0  0  0  0  0
   20.8462   -8.5949  -12.7793 C   0  0  0  0  0  0  0  0  0  0  0  0
   21.4062   -7.4579  -13.5072 C   0  0  0  0  0  0  0  0  0  0  0  0
   21.9213   -7.6206  -14.7627 C   0  0  0  0  0  0  0  0  0  0  0  0
   22.4549   -6.5548  -15.4649 C   0  0  0  0  0  0  0  0  0  0  0  0
   22.4807   -5.2890  -14.9107 C   0  0  0  0  0  0  0  0  0  0  0  0
   21.9683   -5.1225  -13.6594 C   0  0  0  0  0  0  0  0  0  0  0  0
   21.4291   -6.1953  -12.9477 C   0  0  0  0  0  0  0  0  0  0  0  0
   18.7054   -7.3461  -12.4037 C   0  0  0  0  0  0  0  0  0  0  0  0
   18.1946   -6.5868  -13.2972 O   0  0  0  0  0  0  0  0  0  0  0  0
   18.5912   -6.9216  -11.0981 O   0  0  0  0  0  0  0  0  0  0  0  0
  2  1  1  6
  2  3  1  0
  3  4  1  0
  4  5  1  0
  5  6  2  0
  5  9  1  0
  7  8  2  0
  7  2  1  0
 10  7  1  0
 11 10  1  0
 11 12  1  1
 13 14  1  0
 13 12  1  0
 14 15  2  0
 16 11  1  0
 16 19  1  0
 17 16  2  0
 18 14  1  0
 20 19  1  0
 20 28  1  0
 20 21  1  6
 22 21  1  0
 23 22  2  0
 24 23  1  0
 25 26  1  0
 25 24  2  0
 26 27  2  0
 27 22  1  0
 28 29  2  0
 28 30  1  0
M  END
$$$$
