LVN.pdb
     RDKit          3D

 24 23  0  0  1  0  0  0  0  0999 V2000
    7.8261  -12.0417   19.2828 C   0  0  0  0  0  0  0  0  0  0  0  0
    7.6129  -13.4320   19.8569 C   0  0  1  0  0  0  0  0  0  0  0  0
    7.6346  -14.3697   18.6399 C   0  0  0  0  0  0  0  0  0  0  0  0
    8.6648  -13.8294   20.8204 C   0  0  0  0  0  0  0  0  0  0  0  0
    8.3138  -14.7936   21.8735 C   0  0  2  0  0  0  0  0  0  0  0  0
    7.0069  -15.3842   21.6959 N   0  0  0  0  0  0  0  0  0  0  0  0
    8.4515  -14.3572   23.2770 C   0  0  0  0  0  0  0  0  0  0  0  0
    9.6140  -14.0372   23.7355 O   0  0  0  0  0  0  0  0  0  0  0  0
    6.5258  -11.7584   25.1208 C   0  0  0  0  0  0  0  0  0  0  0  0
    6.4999  -12.9952   26.0121 C   0  0  2  0  0  0  0  0  0  0  0  0
    6.4628  -12.5507   27.4349 C   0  0  0  0  0  0  0  0  0  0  0  0
    7.6799  -13.8232   25.6174 C   0  0  2  0  0  0  0  0  0  0  0  0
    7.4064  -14.2485   24.2239 N   0  0  0  0  0  0  0  0  0  0  0  0
    7.9174  -15.0155   26.4453 C   0  0  0  0  0  0  0  0  0  0  0  0
    8.0611  -14.9589   27.7031 O   0  0  0  0  0  0  0  0  0  0  0  0
    8.0157  -20.0146   27.9788 N   0  0  0  0  0  0  0  0  0  0  0  0
    7.1265  -19.8031   26.9007 C   0  0  0  0  0  0  0  0  0  0  0  0
    6.3499  -20.7247   26.5660 O   0  0  0  0  0  0  0  0  0  0  0  0
    7.1126  -18.5184   26.1811 C   0  0  0  0  0  0  0  0  0  0  0  0
    8.0637  -17.4932   26.7180 C   0  0  2  0  0  0  0  0  0  0  0  0
    7.9948  -16.3013   25.8594 N   0  0  0  0  0  0  0  0  0  0  0  0
    9.4180  -18.0850   26.6942 C   0  0  0  0  0  0  0  0  0  0  0  0
   10.3810  -17.5726   25.8554 O   0  0  0  0  0  0  0  0  0  0  0  0
    9.6742  -19.0493   27.4405 O   0  0  0  0  0  0  0  0  0  0  0  0
  2  1  1  6
  2  3  1  0
  4  2  1  0
  5  4  1  0
  5  7  1  0
  5  6  1  6
  7 13  1  0
  8  7  2  0
 10  9  1  6
 10 11  1  0
 12 10  1  0
 12 13  1  6
 14 21  1  0
 14 12  1  0
 15 14  2  0
 17 16  1  0
 17 18  2  0
 19 17  1  0
 20 19  1  6
 20 22  1  0
 20 21  1  0
 22 23  1  0
 24 22  2  0
M  END
$$$$
