LVN.pdb
     RDKit          3D

 24 23  0  0  1  0  0  0  0  0999 V2000
    7.4157  -12.3630   18.8235 C   0  0  0  0  0  0  0  0  0  0  0  0
    7.6426  -13.6260   19.6367 C   0  0  1  0  0  0  0  0  0  0  0  0
    8.5768  -14.4888   18.7744 C   0  0  0  0  0  0  0  0  0  0  0  0
    8.2679  -13.3640   20.9532 C   0  0  0  0  0  0  0  0  0  0  0  0
    8.4038  -14.4862   21.8934 C   0  0  2  0  0  0  0  0  0  0  0  0
    7.3188  -15.4371   21.8099 N   0  0  0  0  0  0  0  0  0  0  0  0
    8.6469  -14.1659   23.3137 C   0  0  0  0  0  0  0  0  0  0  0  0
    9.7738  -13.6474   23.6680 O   0  0  0  0  0  0  0  0  0  0  0  0
    6.5927  -12.1661   25.4522 C   0  0  0  0  0  0  0  0  0  0  0  0
    6.8957  -13.3650   26.3444 C   0  0  2  0  0  0  0  0  0  0  0  0
    7.0117  -12.8880   27.7523 C   0  0  0  0  0  0  0  0  0  0  0  0
    8.1134  -14.0172   25.7737 C   0  0  2  0  0  0  0  0  0  0  0  0
    7.7454  -14.3759   24.3831 N   0  0  0  0  0  0  0  0  0  0  0  0
    8.5679  -15.2264   26.4770 C   0  0  0  0  0  0  0  0  0  0  0  0
    8.8220  -15.2423   27.7185 O   0  0  0  0  0  0  0  0  0  0  0  0
    6.6790  -18.9361   27.7628 N   0  0  0  0  0  0  0  0  0  0  0  0
    6.9890  -18.9692   26.3842 C   0  0  0  0  0  0  0  0  0  0  0  0
    6.0626  -19.1245   25.5583 O   0  0  0  0  0  0  0  0  0  0  0  0
    8.3804  -18.8233   25.9248 C   0  0  0  0  0  0  0  0  0  0  0  0
    9.1151  -17.6622   26.5216 C   0  0  2  0  0  0  0  0  0  0  0  0
    8.7417  -16.4470   25.7824 N   0  0  0  0  0  0  0  0  0  0  0  0
   10.5621  -17.9360   26.3934 C   0  0  0  0  0  0  0  0  0  0  0  0
   11.1279  -18.9917   27.0707 O   0  0  0  0  0  0  0  0  0  0  0  0
   11.2587  -17.2012   25.6672 O   0  0  0  0  0  0  0  0  0  0  0  0
  2  1  1  6
  2  3  1  0
  4  2  1  0
  5  4  1  0
  5  7  1  0
  5  6  1  1
  7 13  1  0
  8  7  2  0
 10  9  1  6
 10 11  1  0
 12 10  1  0
 12 13  1  6
 14 21  1  0
 14 12  1  0
 15 14  2  0
 17 16  1  0
 17 18  2  0
 19 17  1  0
 20 19  1  6
 20 22  1  0
 20 21  1  0
 22 23  1  0
 24 22  2  0
M  END
$$$$
