LVN.pdb
     RDKit          3D

 24 23  0  0  1  0  0  0  0  0999 V2000
    3.4788  -17.0279   21.3260 C   0  0  0  0  0  0  0  0  0  0  0  0
    4.9654  -17.1885   21.0570 C   0  0  1  0  0  0  0  0  0  0  0  0
    5.1071  -17.0616   19.5324 C   0  0  0  0  0  0  0  0  0  0  0  0
    5.7912  -16.1594   21.7291 C   0  0  0  0  0  0  0  0  0  0  0  0
    6.5555  -16.5522   22.9221 C   0  0  2  0  0  0  0  0  0  0  0  0
    5.7418  -17.1667   23.9461 N   0  0  0  0  0  0  0  0  0  0  0  0
    7.4197  -15.5331   23.5497 C   0  0  0  0  0  0  0  0  0  0  0  0
    8.3484  -14.9677   22.8555 O   0  0  0  0  0  0  0  0  0  0  0  0
    7.1887  -13.9225   27.5411 C   0  0  0  0  0  0  0  0  0  0  0  0
    7.5997  -13.1849   26.2715 C   0  0  2  0  0  0  0  0  0  0  0  0
    6.3751  -12.6167   25.6385 C   0  0  0  0  0  0  0  0  0  0  0  0
    8.3668  -14.1656   25.4447 C   0  0  2  0  0  0  0  0  0  0  0  0
    7.3465  -15.0869   24.8898 N   0  0  0  0  0  0  0  0  0  0  0  0
    9.3759  -14.9496   26.1730 C   0  0  0  0  0  0  0  0  0  0  0  0
   10.2385  -14.4179   26.9342 O   0  0  0  0  0  0  0  0  0  0  0  0
    7.6942  -18.5780   28.6537 N   0  0  0  0  0  0  0  0  0  0  0  0
    8.9992  -18.0443   28.5551 C   0  0  0  0  0  0  0  0  0  0  0  0
    9.4326  -17.3275   29.4840 O   0  0  0  0  0  0  0  0  0  0  0  0
    9.8377  -18.3262   27.3779 C   0  0  0  0  0  0  0  0  0  0  0  0
   10.4686  -17.1171   26.7583 C   0  0  2  0  0  0  0  0  0  0  0  0
    9.4247  -16.3587   26.0528 N   0  0  0  0  0  0  0  0  0  0  0  0
   11.5075  -17.5881   25.8180 C   0  0  0  0  0  0  0  0  0  0  0  0
   12.5816  -18.3123   26.2818 O   0  0  0  0  0  0  0  0  0  0  0  0
   11.3975  -17.3215   24.6058 O   0  0  0  0  0  0  0  0  0  0  0  0
  2  1  1  6
  2  3  1  0
  4  2  1  0
  5  4  1  0
  5  7  1  0
  5  6  1  1
  7 13  1  0
  8  7  2  0
 10  9  1  1
 10 11  1  0
 12 10  1  0
 12 13  1  1
 14 21  1  0
 14 12  1  0
 15 14  2  0
 17 16  1  0
 17 18  2  0
 19 17  1  0
 20 19  1  6
 20 22  1  0
 20 21  1  0
 22 23  1  0
 24 22  2  0
M  END
$$$$
