LVN.pdb
     RDKit          3D

 24 23  0  0  1  0  0  0  0  0999 V2000
    5.9892  -11.5680   26.0737 C   0  0  0  0  0  0  0  0  0  0  0  0
    7.2247  -12.4204   25.8395 C   0  0  1  0  0  0  0  0  0  0  0  0
    8.1676  -12.0778   27.0033 C   0  0  0  0  0  0  0  0  0  0  0  0
    6.9351  -13.8726   25.8338 C   0  0  0  0  0  0  0  0  0  0  0  0
    7.8276  -14.7560   25.0691 C   0  0  2  0  0  0  0  0  0  0  0  0
    9.2294  -14.4850   25.2922 N   0  0  0  0  0  0  0  0  0  0  0  0
    7.5925  -14.8786   23.6169 C   0  0  0  0  0  0  0  0  0  0  0  0
    6.5551  -15.5149   23.1891 O   0  0  0  0  0  0  0  0  0  0  0  0
    7.5201  -13.5115   19.1030 C   0  0  0  0  0  0  0  0  0  0  0  0
    8.0112  -13.2767   20.5273 C   0  0  2  0  0  0  0  0  0  0  0  0
    9.2729  -12.4843   20.4667 C   0  0  0  0  0  0  0  0  0  0  0  0
    8.1171  -14.6249   21.1637 C   0  0  2  0  0  0  0  0  0  0  0  0
    8.4151  -14.3576   22.5910 N   0  0  0  0  0  0  0  0  0  0  0  0
    9.1611  -15.5014   20.6113 C   0  0  0  0  0  0  0  0  0  0  0  0
    9.1267  -15.9444   19.4245 O   0  0  0  0  0  0  0  0  0  0  0  0
   12.8008  -13.4728   19.8003 N   0  0  0  0  0  0  0  0  0  0  0  0
   12.6402  -14.8625   19.5987 C   0  0  0  0  0  0  0  0  0  0  0  0
   12.5450  -15.2983   18.4302 O   0  0  0  0  0  0  0  0  0  0  0  0
   12.5857  -15.7851   20.7450 C   0  0  0  0  0  0  0  0  0  0  0  0
   11.3679  -16.6565   20.7861 C   0  0  2  0  0  0  0  0  0  0  0  0
   10.2705  -15.8923   21.3980 N   0  0  0  0  0  0  0  0  0  0  0  0
   11.6988  -17.8481   21.5959 C   0  0  0  0  0  0  0  0  0  0  0  0
   12.7097  -18.6934   21.1996 O   0  0  0  0  0  0  0  0  0  0  0  0
   11.0530  -18.0752   22.6370 O   0  0  0  0  0  0  0  0  0  0  0  0
  2  1  1  1
  2  3  1  0
  4  2  1  0
  5  4  1  0
  5  7  1  0
  5  6  1  6
  7 13  1  0
  8  7  2  0
 10  9  1  6
 10 11  1  0
 12 10  1  0
 12 13  1  1
 14 21  1  0
 14 12  1  0
 15 14  2  0
 17 16  1  0
 17 18  2  0
 19 17  1  0
 20 19  1  1
 20 22  1  0
 20 21  1  0
 22 23  1  0
 24 22  2  0
M  END
$$$$
