LVN.pdb
     RDKit          3D

 24 23  0  0  1  0  0  0  0  0999 V2000
    7.9464  -12.2062   27.7464 C   0  0  0  0  0  0  0  0  0  0  0  0
    6.8921  -13.1632   27.2168 C   0  0  1  0  0  0  0  0  0  0  0  0
    5.9441  -12.2859   26.3848 C   0  0  0  0  0  0  0  0  0  0  0  0
    7.4576  -14.2396   26.3716 C   0  0  0  0  0  0  0  0  0  0  0  0
    6.5552  -14.9466   25.4510 C   0  0  2  0  0  0  0  0  0  0  0  0
    5.7691  -15.9732   26.0964 N   0  0  0  0  0  0  0  0  0  0  0  0
    7.1353  -15.5007   24.2118 C   0  0  0  0  0  0  0  0  0  0  0  0
    7.5863  -16.7093   24.2023 O   0  0  0  0  0  0  0  0  0  0  0  0
    8.2424  -15.2496   19.4296 C   0  0  0  0  0  0  0  0  0  0  0  0
    7.6605  -14.5617   20.6597 C   0  0  2  0  0  0  0  0  0  0  0  0
    8.2599  -13.2007   20.7670 C   0  0  0  0  0  0  0  0  0  0  0  0
    7.9119  -15.4785   21.8130 C   0  0  2  0  0  0  0  0  0  0  0  0
    7.2640  -14.8256   22.9756 N   0  0  0  0  0  0  0  0  0  0  0  0
    9.3281  -15.7216   22.1267 C   0  0  0  0  0  0  0  0  0  0  0  0
   10.0533  -14.8714   22.7245 O   0  0  0  0  0  0  0  0  0  0  0  0
   10.2870  -19.2655   24.5592 N   0  0  0  0  0  0  0  0  0  0  0  0
   11.2994  -18.4076   24.0727 C   0  0  0  0  0  0  0  0  0  0  0  0
   11.8912  -17.6526   24.8753 O   0  0  0  0  0  0  0  0  0  0  0  0
   11.6538  -18.4009   22.6435 C   0  0  0  0  0  0  0  0  0  0  0  0
   11.4024  -17.0996   21.9453 C   0  0  2  0  0  0  0  0  0  0  0  0
    9.9513  -16.9405   21.7682 N   0  0  0  0  0  0  0  0  0  0  0  0
   12.0922  -17.1534   20.6390 C   0  0  0  0  0  0  0  0  0  0  0  0
   13.4573  -16.9939   20.5718 O   0  0  0  0  0  0  0  0  0  0  0  0
   11.4238  -17.3444   19.6050 O   0  0  0  0  0  0  0  0  0  0  0  0
  2  1  1  6
  2  3  1  0
  4  2  1  0
  5  4  1  0
  5  7  1  0
  5  6  1  1
  7 13  1  0
  8  7  2  0
 10  9  1  6
 10 11  1  0
 12 10  1  0
 12 13  1  1
 14 21  1  0
 14 12  1  0
 15 14  2  0
 17 16  1  0
 17 18  2  0
 19 17  1  0
 20 19  1  6
 20 22  1  0
 20 21  1  0
 22 23  1  0
 24 22  2  0
M  END
$$$$
