LVN.pdb
     RDKit          3D

 24 23  0  0  1  0  0  0  0  0999 V2000
    7.4208  -11.3778   25.7507 C   0  0  0  0  0  0  0  0  0  0  0  0
    7.0727  -12.6974   26.4182 C   0  0  1  0  0  0  0  0  0  0  0  0
    5.8423  -12.3893   27.2854 C   0  0  0  0  0  0  0  0  0  0  0  0
    6.7529  -13.7709   25.4497 C   0  0  0  0  0  0  0  0  0  0  0  0
    7.8680  -14.4743   24.7989 C   0  0  2  0  0  0  0  0  0  0  0  0
    9.1510  -13.8512   25.0313 N   0  0  0  0  0  0  0  0  0  0  0  0
    7.7411  -14.7785   23.3600 C   0  0  0  0  0  0  0  0  0  0  0  0
    6.7938  -15.5533   22.9518 O   0  0  0  0  0  0  0  0  0  0  0  0
    9.4893  -12.7882   20.0192 C   0  0  0  0  0  0  0  0  0  0  0  0
    8.1446  -13.4954   20.1477 C   0  0  2  0  0  0  0  0  0  0  0  0
    7.1661  -12.5431   20.7469 C   0  0  0  0  0  0  0  0  0  0  0  0
    8.3993  -14.7456   20.9261 C   0  0  2  0  0  0  0  0  0  0  0  0
    8.5812  -14.2992   22.3280 N   0  0  0  0  0  0  0  0  0  0  0  0
    9.5813  -15.5160   20.5105 C   0  0  0  0  0  0  0  0  0  0  0  0
    9.6676  -16.0820   19.3798 O   0  0  0  0  0  0  0  0  0  0  0  0
   12.8282  -13.6293   19.4578 N   0  0  0  0  0  0  0  0  0  0  0  0
   13.0450  -15.0255   19.4953 C   0  0  0  0  0  0  0  0  0  0  0  0
   13.2547  -15.6352   18.4236 O   0  0  0  0  0  0  0  0  0  0  0  0
   13.0246  -15.7533   20.7752 C   0  0  0  0  0  0  0  0  0  0  0  0
   11.7899  -16.5688   21.0087 C   0  0  2  0  0  0  0  0  0  0  0  0
   10.6941  -15.6582   21.3729 N   0  0  0  0  0  0  0  0  0  0  0  0
   12.0803  -17.5136   22.1079 C   0  0  0  0  0  0  0  0  0  0  0  0
   13.0845  -18.4444   21.9713 O   0  0  0  0  0  0  0  0  0  0  0  0
   11.4065  -17.4558   23.1544 O   0  0  0  0  0  0  0  0  0  0  0  0
  2  1  1  6
  2  3  1  0
  4  2  1  0
  5  4  1  0
  5  7  1  0
  5  6  1  6
  7 13  1  0
  8  7  2  0
 10  9  1  1
 10 11  1  0
 12 10  1  0
 12 13  1  1
 14 21  1  0
 14 12  1  0
 15 14  2  0
 17 16  1  0
 17 18  2  0
 19 17  1  0
 20 19  1  1
 20 22  1  0
 20 21  1  0
 22 23  1  0
 24 22  2  0
M  END
$$$$
