LVN.pdb
     RDKit          3D

 24 23  0  0  1  0  0  0  0  0999 V2000
    6.6620  -19.0521   20.6646 C   0  0  0  0  0  0  0  0  0  0  0  0
    6.7511  -17.5397   20.5518 C   0  0  1  0  0  0  0  0  0  0  0  0
    5.2922  -17.0581   20.5341 C   0  0  0  0  0  0  0  0  0  0  0  0
    7.4762  -16.9153   21.6819 C   0  0  0  0  0  0  0  0  0  0  0  0
    7.4070  -15.4541   21.8293 C   0  0  2  0  0  0  0  0  0  0  0  0
    7.8367  -14.7391   20.6492 N   0  0  0  0  0  0  0  0  0  0  0  0
    8.0541  -14.8522   23.0117 C   0  0  0  0  0  0  0  0  0  0  0  0
    9.3328  -14.6826   23.0232 O   0  0  0  0  0  0  0  0  0  0  0  0
    6.0455  -13.7078   26.4691 C   0  0  0  0  0  0  0  0  0  0  0  0
    7.2769  -12.9288   26.0198 C   0  0  2  0  0  0  0  0  0  0  0  0
    6.8287  -11.7811   25.1801 C   0  0  0  0  0  0  0  0  0  0  0  0
    8.1776  -13.9155   25.3495 C   0  0  2  0  0  0  0  0  0  0  0  0
    7.4032  -14.4234   24.1919 N   0  0  0  0  0  0  0  0  0  0  0  0
    8.5966  -15.0527   26.1829 C   0  0  0  0  0  0  0  0  0  0  0  0
    7.9366  -16.1325   26.2506 O   0  0  0  0  0  0  0  0  0  0  0  0
   13.3712  -17.4625   28.6797 N   0  0  0  0  0  0  0  0  0  0  0  0
   12.2657  -17.6644   27.8224 C   0  0  0  0  0  0  0  0  0  0  0  0
   11.8412  -18.8274   27.6447 O   0  0  0  0  0  0  0  0  0  0  0  0
   11.6221  -16.5248   27.1478 C   0  0  0  0  0  0  0  0  0  0  0  0
   10.2575  -16.1847   27.6641 C   0  0  2  0  0  0  0  0  0  0  0  0
    9.7789  -14.9871   26.9576 N   0  0  0  0  0  0  0  0  0  0  0  0
   10.3802  -15.9295   29.1150 C   0  0  0  0  0  0  0  0  0  0  0  0
   10.1538  -14.6681   29.6159 O   0  0  0  0  0  0  0  0  0  0  0  0
   10.6899  -16.8678   29.8741 O   0  0  0  0  0  0  0  0  0  0  0  0
  2  1  1  1
  2  3  1  0
  4  2  1  0
  5  4  1  0
  5  7  1  0
  5  6  1  6
  7 13  1  0
  8  7  2  0
 10  9  1  6
 10 11  1  0
 12 10  1  0
 12 13  1  6
 14 21  1  0
 14 12  1  0
 15 14  2  0
 17 16  1  0
 17 18  2  0
 19 17  1  0
 20 19  1  6
 20 22  1  0
 20 21  1  0
 22 23  1  0
 24 22  2  0
M  END
$$$$
