LVN.pdb
     RDKit          3D

 24 23  0  0  1  0  0  0  0  0999 V2000
    6.9671  -12.8121   20.4614 C   0  0  0  0  0  0  0  0  0  0  0  0
    7.9587  -13.7336   19.7719 C   0  0  1  0  0  0  0  0  0  0  0  0
    8.6467  -12.8548   18.7159 C   0  0  0  0  0  0  0  0  0  0  0  0
    8.9684  -14.2963   20.6974 C   0  0  0  0  0  0  0  0  0  0  0  0
    8.5027  -15.1622   21.7906 C   0  0  2  0  0  0  0  0  0  0  0  0
    7.1358  -15.6025   21.6289 N   0  0  0  0  0  0  0  0  0  0  0  0
    8.6862  -14.6800   23.1737 C   0  0  0  0  0  0  0  0  0  0  0  0
    9.8721  -14.4113   23.6046 O   0  0  0  0  0  0  0  0  0  0  0  0
    7.2062  -12.1468   26.9506 C   0  0  0  0  0  0  0  0  0  0  0  0
    6.7821  -13.0384   25.7886 C   0  0  2  0  0  0  0  0  0  0  0  0
    5.5445  -13.7705   26.1828 C   0  0  0  0  0  0  0  0  0  0  0  0
    7.9658  -13.8886   25.4568 C   0  0  2  0  0  0  0  0  0  0  0  0
    7.6634  -14.4728   24.1283 N   0  0  0  0  0  0  0  0  0  0  0  0
    8.2457  -14.9761   26.4068 C   0  0  0  0  0  0  0  0  0  0  0  0
    8.4569  -14.7717   27.6396 O   0  0  0  0  0  0  0  0  0  0  0  0
    6.2337  -17.0617   25.4177 N   0  0  0  0  0  0  0  0  0  0  0  0
    6.6292  -18.3808   25.7361 C   0  0  0  0  0  0  0  0  0  0  0  0
    5.9215  -19.3361   25.3475 O   0  0  0  0  0  0  0  0  0  0  0  0
    7.8551  -18.6291   26.5131 C   0  0  0  0  0  0  0  0  0  0  0  0
    8.5828  -17.3917   26.9413 C   0  0  2  0  0  0  0  0  0  0  0  0
    8.2897  -16.3228   25.9747 N   0  0  0  0  0  0  0  0  0  0  0  0
   10.0269  -17.7070   26.9598 C   0  0  0  0  0  0  0  0  0  0  0  0
   10.5386  -18.5446   27.9242 O   0  0  0  0  0  0  0  0  0  0  0  0
   10.7705  -17.2064   26.0943 O   0  0  0  0  0  0  0  0  0  0  0  0
  2  1  1  1
  2  3  1  0
  4  2  1  0
  5  4  1  0
  5  7  1  0
  5  6  1  6
  7 13  1  0
  8  7  2  0
 10  9  1  1
 10 11  1  0
 12 10  1  0
 12 13  1  6
 14 21  1  0
 14 12  1  0
 15 14  2  0
 17 16  1  0
 17 18  2  0
 19 17  1  0
 20 19  1  6
 20 22  1  0
 20 21  1  0
 22 23  1  0
 24 22  2  0
M  END
$$$$
