LVN.pdb
     RDKit          3D

 24 23  0  0  1  0  0  0  0  0999 V2000
    8.4609  -12.8204   27.8100 C   0  0  0  0  0  0  0  0  0  0  0  0
    7.1799  -13.3231   27.1665 C   0  0  1  0  0  0  0  0  0  0  0  0
    6.1633  -12.1894   27.3715 C   0  0  0  0  0  0  0  0  0  0  0  0
    7.3308  -13.6120   25.7220 C   0  0  0  0  0  0  0  0  0  0  0  0
    6.5674  -14.7331   25.1543 C   0  0  2  0  0  0  0  0  0  0  0  0
    6.0746  -15.6537   26.1533 N   0  0  0  0  0  0  0  0  0  0  0  0
    7.1923  -15.5059   24.0628 C   0  0  0  0  0  0  0  0  0  0  0  0
    7.2524  -16.7920   24.1437 O   0  0  0  0  0  0  0  0  0  0  0  0
    6.8881  -14.7694   20.3826 C   0  0  0  0  0  0  0  0  0  0  0  0
    8.3585  -15.1098   20.5995 C   0  0  2  0  0  0  0  0  0  0  0  0
    8.8551  -15.8424   19.3996 C   0  0  0  0  0  0  0  0  0  0  0  0
    8.4319  -15.8524   21.8945 C   0  0  2  0  0  0  0  0  0  0  0  0
    7.7643  -14.9732   22.8840 N   0  0  0  0  0  0  0  0  0  0  0  0
    9.7902  -16.1616   22.3666 C   0  0  0  0  0  0  0  0  0  0  0  0
   10.3515  -15.5219   23.3056 O   0  0  0  0  0  0  0  0  0  0  0  0
   12.4387  -17.5377   25.1431 N   0  0  0  0  0  0  0  0  0  0  0  0
   11.8752  -18.7329   24.6414 C   0  0  0  0  0  0  0  0  0  0  0  0
   11.6609  -19.6795   25.4303 O   0  0  0  0  0  0  0  0  0  0  0  0
   11.5447  -18.8641   23.2125 C   0  0  0  0  0  0  0  0  0  0  0  0
   11.8059  -17.6348   22.3971 C   0  0  2  0  0  0  0  0  0  0  0  0
   10.5404  -17.2088   21.7810 N   0  0  0  0  0  0  0  0  0  0  0  0
   12.8044  -17.9873   21.3657 C   0  0  0  0  0  0  0  0  0  0  0  0
   14.1438  -17.7765   21.6005 O   0  0  0  0  0  0  0  0  0  0  0  0
   12.4184  -18.4754   20.2863 O   0  0  0  0  0  0  0  0  0  0  0  0
  2  1  1  6
  2  3  1  0
  4  2  1  0
  5  4  1  0
  5  7  1  0
  5  6  1  1
  7 13  1  0
  8  7  2  0
 10  9  1  6
 10 11  1  0
 12 10  1  0
 12 13  1  1
 14 21  1  0
 14 12  1  0
 15 14  2  0
 17 16  1  0
 17 18  2  0
 19 17  1  0
 20 19  1  1
 20 22  1  0
 20 21  1  0
 22 23  1  0
 24 22  2  0
M  END
$$$$
