LVN.pdb
     RDKit          3D

 24 23  0  0  1  0  0  0  0  0999 V2000
    7.2172  -10.9099   25.5596 C   0  0  0  0  0  0  0  0  0  0  0  0
    7.2681  -12.0723   26.5364 C   0  0  1  0  0  0  0  0  0  0  0  0
    6.4691  -11.5962   27.7593 C   0  0  0  0  0  0  0  0  0  0  0  0
    6.6698  -13.3132   25.9932 C   0  0  0  0  0  0  0  0  0  0  0  0
    7.5735  -14.3538   25.4811 C   0  0  2  0  0  0  0  0  0  0  0  0
    8.9716  -14.0121   25.6116 N   0  0  0  0  0  0  0  0  0  0  0  0
    7.3334  -14.8600   24.1154 C   0  0  0  0  0  0  0  0  0  0  0  0
    6.2635  -15.5352   23.8632 O   0  0  0  0  0  0  0  0  0  0  0  0
    9.2240  -13.5677   20.6736 C   0  0  0  0  0  0  0  0  0  0  0  0
    7.8063  -14.1258   20.7328 C   0  0  2  0  0  0  0  0  0  0  0  0
    6.8775  -13.0169   21.0946 C   0  0  0  0  0  0  0  0  0  0  0  0
    7.8473  -15.2791   21.6827 C   0  0  2  0  0  0  0  0  0  0  0  0
    8.1838  -14.6856   22.9988 N   0  0  0  0  0  0  0  0  0  0  0  0
    8.8313  -16.3241   21.3618 C   0  0  0  0  0  0  0  0  0  0  0  0
    8.7295  -17.0717   20.3435 O   0  0  0  0  0  0  0  0  0  0  0  0
   13.2571  -18.9661   20.7944 N   0  0  0  0  0  0  0  0  0  0  0  0
   13.3961  -18.0004   21.8171 C   0  0  0  0  0  0  0  0  0  0  0  0
   14.4595  -17.9627   22.4744 O   0  0  0  0  0  0  0  0  0  0  0  0
   12.3072  -17.0522   22.1060 C   0  0  0  0  0  0  0  0  0  0  0  0
   10.9316  -17.5849   21.8453 C   0  0  2  0  0  0  0  0  0  0  0  0
    9.9559  -16.5409   22.1928 N   0  0  0  0  0  0  0  0  0  0  0  0
   10.7490  -18.7827   22.6919 C   0  0  0  0  0  0  0  0  0  0  0  0
    9.8914  -18.7442   23.7674 O   0  0  0  0  0  0  0  0  0  0  0  0
   11.3792  -19.8225   22.4196 O   0  0  0  0  0  0  0  0  0  0  0  0
  2  1  1  6
  2  3  1  0
  4  2  1  0
  5  4  1  0
  5  7  1  0
  5  6  1  6
  7 13  1  0
  8  7  2  0
 10  9  1  1
 10 11  1  0
 12 10  1  0
 12 13  1  1
 14 21  1  0
 14 12  1  0
 15 14  2  0
 17 16  1  0
 17 18  2  0
 19 17  1  0
 20 19  1  1
 20 22  1  0
 20 21  1  0
 22 23  1  0
 24 22  2  0
M  END
$$$$
