LVN.pdb
     RDKit          3D

 24 23  0  0  1  0  0  0  0  0999 V2000
    5.3175  -11.4563   26.1501 C   0  0  0  0  0  0  0  0  0  0  0  0
    6.6147  -12.2416   26.2420 C   0  0  1  0  0  0  0  0  0  0  0  0
    7.2472  -11.8055   27.5727 C   0  0  0  0  0  0  0  0  0  0  0  0
    6.4071  -13.7077   26.2371 C   0  0  0  0  0  0  0  0  0  0  0  0
    7.5478  -14.5698   25.8943 C   0  0  2  0  0  0  0  0  0  0  0  0
    8.8152  -13.8756   25.9124 N   0  0  0  0  0  0  0  0  0  0  0  0
    7.4588  -15.3645   24.6535 C   0  0  0  0  0  0  0  0  0  0  0  0
    6.4527  -16.1506   24.4690 O   0  0  0  0  0  0  0  0  0  0  0  0
    9.5166  -14.6393   21.1597 C   0  0  0  0  0  0  0  0  0  0  0  0
    8.1506  -15.3117   21.2437 C   0  0  2  0  0  0  0  0  0  0  0  0
    7.1055  -14.2503   21.3090 C   0  0  0  0  0  0  0  0  0  0  0  0
    8.2105  -16.2417   22.4122 C   0  0  2  0  0  0  0  0  0  0  0  0
    8.3965  -15.3671   23.5946 N   0  0  0  0  0  0  0  0  0  0  0  0
    9.2965  -17.2329   22.3728 C   0  0  0  0  0  0  0  0  0  0  0  0
    9.4041  -18.0952   21.4503 O   0  0  0  0  0  0  0  0  0  0  0  0
   13.0031  -15.1898   23.2113 N   0  0  0  0  0  0  0  0  0  0  0  0
   12.8420  -16.4703   22.6350 C   0  0  0  0  0  0  0  0  0  0  0  0
   12.8561  -16.5802   21.3892 O   0  0  0  0  0  0  0  0  0  0  0  0
   12.6601  -17.6581   23.4861 C   0  0  0  0  0  0  0  0  0  0  0  0
   11.3179  -18.3122   23.3644 C   0  0  2  0  0  0  0  0  0  0  0  0
   10.2870  -17.2636   23.3829 N   0  0  0  0  0  0  0  0  0  0  0  0
   11.1619  -19.2281   24.5141 C   0  0  0  0  0  0  0  0  0  0  0  0
   12.0274  -20.2854   24.6773 O   0  0  0  0  0  0  0  0  0  0  0  0
   10.2405  -19.0304   25.3293 O   0  0  0  0  0  0  0  0  0  0  0  0
  2  1  1  1
  2  3  1  0
  4  2  1  0
  5  4  1  0
  5  7  1  0
  5  6  1  6
  7 13  1  0
  8  7  2  0
 10  9  1  1
 10 11  1  0
 12 10  1  0
 12 13  1  1
 14 21  1  0
 14 12  1  0
 15 14  2  0
 17 16  1  0
 17 18  2  0
 19 17  1  0
 20 19  1  1
 20 22  1  0
 20 21  1  0
 22 23  1  0
 24 22  2  0
M  END
$$$$
