LVN.pdb
     RDKit          3D

 24 23  0  0  1  0  0  0  0  0999 V2000
    7.3205  -12.3111   18.7900 C   0  0  0  0  0  0  0  0  0  0  0  0
    7.3569  -13.6389   19.5272 C   0  0  1  0  0  0  0  0  0  0  0  0
    8.2165  -14.5574   18.6450 C   0  0  0  0  0  0  0  0  0  0  0  0
    7.9511  -13.5357   20.8796 C   0  0  0  0  0  0  0  0  0  0  0  0
    7.9639  -14.7376   21.7264 C   0  0  2  0  0  0  0  0  0  0  0  0
    6.6731  -15.3791   21.8287 N   0  0  0  0  0  0  0  0  0  0  0  0
    8.5439  -14.6181   23.0786 C   0  0  0  0  0  0  0  0  0  0  0  0
    9.8254  -14.5897   23.2240 O   0  0  0  0  0  0  0  0  0  0  0  0
    8.0863  -13.2263   27.7309 C   0  0  0  0  0  0  0  0  0  0  0  0
    7.5863  -13.2927   26.2919 C   0  0  2  0  0  0  0  0  0  0  0  0
    6.1486  -13.6876   26.3098 C   0  0  0  0  0  0  0  0  0  0  0  0
    8.5089  -14.2195   25.5682 C   0  0  2  0  0  0  0  0  0  0  0  0
    7.8222  -14.5316   24.2919 N   0  0  0  0  0  0  0  0  0  0  0  0
    8.8153  -15.4762   26.2682 C   0  0  0  0  0  0  0  0  0  0  0  0
    7.9663  -16.4064   26.4096 O   0  0  0  0  0  0  0  0  0  0  0  0
   10.8720  -19.4200   25.5069 N   0  0  0  0  0  0  0  0  0  0  0  0
   11.7328  -18.9170   26.5087 C   0  0  0  0  0  0  0  0  0  0  0  0
   12.5135  -19.7039   27.0880 O   0  0  0  0  0  0  0  0  0  0  0  0
   11.7127  -17.4888   26.8667 C   0  0  0  0  0  0  0  0  0  0  0  0
   10.4111  -17.0057   27.4294 C   0  0  2  0  0  0  0  0  0  0  0  0
   10.0974  -15.7036   26.8220 N   0  0  0  0  0  0  0  0  0  0  0  0
   10.5766  -16.8808   28.8930 C   0  0  0  0  0  0  0  0  0  0  0  0
   10.7122  -15.6386   29.4692 O   0  0  0  0  0  0  0  0  0  0  0  0
   10.5915  -17.9107   29.5941 O   0  0  0  0  0  0  0  0  0  0  0  0
  2  1  1  6
  2  3  1  0
  4  2  1  0
  5  4  1  0
  5  7  1  0
  5  6  1  1
  7 13  1  0
  8  7  2  0
 10  9  1  1
 10 11  1  0
 12 10  1  0
 12 13  1  6
 14 21  1  0
 14 12  1  0
 15 14  2  0
 17 16  1  0
 17 18  2  0
 19 17  1  0
 20 19  1  6
 20 22  1  0
 20 21  1  0
 22 23  1  0
 24 22  2  0
M  END
$$$$
