LVN.pdb
     RDKit          3D

 24 23  0  0  1  0  0  0  0  0999 V2000
    7.5415  -12.4350   18.8770 C   0  0  0  0  0  0  0  0  0  0  0  0
    7.5774  -13.6911   19.7308 C   0  0  1  0  0  0  0  0  0  0  0  0
    8.4283  -14.6890   18.9303 C   0  0  0  0  0  0  0  0  0  0  0  0
    8.1800  -13.4687   21.0650 C   0  0  0  0  0  0  0  0  0  0  0  0
    8.1073  -14.5575   22.0504 C   0  0  2  0  0  0  0  0  0  0  0  0
    6.7989  -15.1650   22.1362 N   0  0  0  0  0  0  0  0  0  0  0  0
    8.5932  -14.2803   23.4165 C   0  0  0  0  0  0  0  0  0  0  0  0
    9.8346  -13.9850   23.6055 O   0  0  0  0  0  0  0  0  0  0  0  0
    6.1409  -13.8046   26.6282 C   0  0  0  0  0  0  0  0  0  0  0  0
    7.5075  -13.1283   26.6257 C   0  0  2  0  0  0  0  0  0  0  0  0
    7.3629  -11.7748   26.0173 C   0  0  0  0  0  0  0  0  0  0  0  0
    8.4385  -14.0635   25.9239 C   0  0  2  0  0  0  0  0  0  0  0  0
    7.8184  -14.3066   24.5995 N   0  0  0  0  0  0  0  0  0  0  0  0
    8.6588  -15.3537   26.5949 C   0  0  0  0  0  0  0  0  0  0  0  0
    7.7108  -16.1356   26.9047 O   0  0  0  0  0  0  0  0  0  0  0  0
   12.1656  -17.0609   24.6528 N   0  0  0  0  0  0  0  0  0  0  0  0
   11.2985  -17.8376   25.4544 C   0  0  0  0  0  0  0  0  0  0  0  0
   10.4802  -18.6020   24.8971 O   0  0  0  0  0  0  0  0  0  0  0  0
   11.3558  -17.7501   26.9232 C   0  0  0  0  0  0  0  0  0  0  0  0
   10.1640  -17.0990   27.5555 C   0  0  2  0  0  0  0  0  0  0  0  0
    9.9652  -15.7844   26.9270 N   0  0  0  0  0  0  0  0  0  0  0  0
   10.4463  -16.9579   28.9996 C   0  0  0  0  0  0  0  0  0  0  0  0
   10.5344  -15.7074   29.5672 O   0  0  0  0  0  0  0  0  0  0  0  0
   10.6026  -17.9818   29.6923 O   0  0  0  0  0  0  0  0  0  0  0  0
  2  1  1  6
  2  3  1  0
  4  2  1  0
  5  4  1  0
  5  7  1  0
  5  6  1  1
  7 13  1  0
  8  7  2  0
 10  9  1  6
 10 11  1  0
 12 10  1  0
 12 13  1  6
 14 21  1  0
 14 12  1  0
 15 14  2  0
 17 16  1  0
 17 18  2  0
 19 17  1  0
 20 19  1  6
 20 22  1  0
 20 21  1  0
 22 23  1  0
 24 22  2  0
M  END
$$$$
