KWM.pdb
     RDKit          3D

 32 33  0  0  1  0  0  0  0  0999 V2000
   28.6939  -22.6618  -15.6848 N   0  0  0  0  0  0  0  0  0  0  0  0
   28.0880  -21.4042  -15.2747 C   0  0  1  0  0  0  0  0  0  0  0  0
   27.2377  -20.8174  -16.3883 C   0  0  0  0  0  0  0  0  0  0  0  0
   28.0926  -20.4984  -17.5923 C   0  0  0  0  0  0  0  0  0  0  0  0
   28.7356  -19.1468  -17.4250 C   0  0  0  0  0  0  0  0  0  0  0  0
   29.6506  -18.7973  -18.5767 C   0  0  0  0  0  0  0  0  0  0  0  0
   30.3153  -17.5411  -18.2154 N   0  0  0  0  0  0  0  0  0  0  0  0
   27.2809  -21.5970  -14.0311 C   0  0  0  0  0  0  0  0  0  0  0  0
   26.1552  -22.1484  -14.0437 O   0  0  0  0  0  0  0  0  0  0  0  0
   27.7765  -21.1534  -12.7837 N   0  0  0  0  0  0  0  0  0  0  0  0
   27.0172  -21.3069  -11.5513 C   0  0  1  0  0  0  0  0  0  0  0  0
   27.8266  -20.9118  -10.3812 C   0  0  0  0  0  0  0  0  0  0  0  0
   27.1752  -20.7200   -9.1067 C   0  0  0  0  0  0  0  0  0  0  0  0
   25.8254  -20.8445   -8.7938 C   0  0  0  0  0  0  0  0  0  0  0  0
   25.6906  -20.5464   -7.4955 N   0  0  0  0  0  0  0  0  0  0  0  0
   26.8838  -20.2368   -6.9578 C   0  0  0  0  0  0  0  0  0  0  0  0
   27.2030  -19.8723   -5.6648 C   0  0  0  0  0  0  0  0  0  0  0  0
   28.5310  -19.6098   -5.4016 C   0  0  0  0  0  0  0  0  0  0  0  0
   29.5262  -19.6945   -6.3523 C   0  0  0  0  0  0  0  0  0  0  0  0
   29.1697  -20.0623   -7.6356 C   0  0  0  0  0  0  0  0  0  0  0  0
   27.8514  -20.3335   -7.9405 C   0  0  0  0  0  0  0  0  0  0  0  0
   25.7511  -20.5591  -11.7544 C   0  0  0  0  0  0  0  0  0  0  0  0
   25.8134  -19.3070  -11.9696 O   0  0  0  0  0  0  0  0  0  0  0  0
   19.5452  -18.6863  -15.5517 C   0  0  0  0  0  0  0  0  0  0  0  0
   21.0369  -19.7051  -15.2555 S   0  0  0  0  0  0  0  0  0  0  0  0
   21.5418  -19.5238  -13.5014 C   0  0  0  0  0  0  0  0  0  0  0  0
   22.7875  -20.3211  -13.3252 C   0  0  0  0  0  0  0  0  0  0  0  0
   23.3074  -20.3080  -11.9070 C   0  0  2  0  0  0  0  0  0  0  0  0
   24.4592  -21.1406  -11.7299 N   0  0  0  0  0  0  0  0  0  0  0  0
   22.2573  -20.7227  -10.9417 C   0  0  0  0  0  0  0  0  0  0  0  0
   22.2559  -21.8477  -10.3852 O   0  0  0  0  0  0  0  0  0  0  0  0
   21.2249  -19.8194  -10.6399 O   0  0  0  0  0  0  0  0  0  0  0  0
  2  3  1  0
  2  1  1  6
  3  4  1  0
  5  4  1  0
  6  5  1  0
  7  6  1  0
  8  9  2  0
  8  2  1  0
 10  8  1  0
 11 22  1  0
 11 10  1  0
 11 12  1  1
 13 12  1  0
 14 13  2  0
 15 14  1  0
 16 15  1  0
 16 21  2  0
 17 16  1  0
 18 17  2  0
 18 19  1  0
 19 20  2  0
 20 21  1  0
 21 13  1  0
 22 29  1  0
 23 22  2  0
 24 25  1  0
 25 26  1  0
 26 27  1  0
 28 27  1  6
 28 30  1  0
 29 28  1  0
 30 31  2  0
 30 32  1  0
M  END
$$$$
