KWM.pdb
     RDKit          3D

 32 33  0  0  1  0  0  0  0  0999 V2000
   28.3244  -21.4467  -15.4807 N   0  0  0  0  0  0  0  0  0  0  0  0
   28.2814  -20.4209  -14.4497 C   0  0  1  0  0  0  0  0  0  0  0  0
   27.8017  -19.0955  -15.0159 C   0  0  0  0  0  0  0  0  0  0  0  0
   28.8399  -18.5125  -15.9456 C   0  0  0  0  0  0  0  0  0  0  0  0
   28.6349  -19.0375  -17.3422 C   0  0  0  0  0  0  0  0  0  0  0  0
   29.5852  -18.4125  -18.3382 C   0  0  0  0  0  0  0  0  0  0  0  0
   29.3126  -19.0486  -19.6311 N   0  0  0  0  0  0  0  0  0  0  0  0
   27.4152  -20.8616  -13.3137 C   0  0  0  0  0  0  0  0  0  0  0  0
   26.3324  -21.4667  -13.4943 O   0  0  0  0  0  0  0  0  0  0  0  0
   27.8029  -20.6017  -11.9792 N   0  0  0  0  0  0  0  0  0  0  0  0
   27.0165  -21.0586  -10.8427 C   0  0  1  0  0  0  0  0  0  0  0  0
   27.8032  -20.9883   -9.5952 C   0  0  0  0  0  0  0  0  0  0  0  0
   27.1156  -20.8080   -8.3382 C   0  0  0  0  0  0  0  0  0  0  0  0
   25.7525  -20.8938   -8.0738 C   0  0  0  0  0  0  0  0  0  0  0  0
   25.5837  -20.6259   -6.7729 N   0  0  0  0  0  0  0  0  0  0  0  0
   26.7677  -20.3724   -6.1875 C   0  0  0  0  0  0  0  0  0  0  0  0
   27.0548  -20.0539   -4.8750 C   0  0  0  0  0  0  0  0  0  0  0  0
   28.3812  -19.8448   -4.5607 C   0  0  0  0  0  0  0  0  0  0  0  0
   29.4048  -19.9387   -5.4798 C   0  0  0  0  0  0  0  0  0  0  0  0
   29.0800  -20.2595   -6.7840 C   0  0  0  0  0  0  0  0  0  0  0  0
   27.7643  -20.4765   -7.1399 C   0  0  0  0  0  0  0  0  0  0  0  0
   25.7600  -20.2687  -10.8700 C   0  0  0  0  0  0  0  0  0  0  0  0
   25.8386  -19.0079  -11.0194 O   0  0  0  0  0  0  0  0  0  0  0  0
   24.6699  -19.1159  -15.7342 C   0  0  0  0  0  0  0  0  0  0  0  0
   22.9574  -19.7245  -15.5149 S   0  0  0  0  0  0  0  0  0  0  0  0
   22.5068  -19.6053  -13.7408 C   0  0  0  0  0  0  0  0  0  0  0  0
   23.6196  -20.2257  -12.9693 C   0  0  0  0  0  0  0  0  0  0  0  0
   23.3753  -20.2400  -11.4787 C   0  0  2  0  0  0  0  0  0  0  0  0
   24.4600  -20.8182  -10.7435 N   0  0  0  0  0  0  0  0  0  0  0  0
   22.1225  -20.9639  -11.1424 C   0  0  0  0  0  0  0  0  0  0  0  0
   22.0447  -22.2166  -11.1397 O   0  0  0  0  0  0  0  0  0  0  0  0
   20.9796  -20.2162  -10.8145 O   0  0  0  0  0  0  0  0  0  0  0  0
  2  3  1  0
  2  1  1  6
  3  4  1  0
  5  4  1  0
  6  5  1  0
  7  6  1  0
  8  9  2  0
  8  2  1  0
 10  8  1  0
 11 22  1  0
 11 10  1  0
 11 12  1  1
 13 12  1  0
 14 13  2  0
 15 14  1  0
 16 15  1  0
 16 21  2  0
 17 16  1  0
 18 17  2  0
 18 19  1  0
 19 20  2  0
 20 21  1  0
 21 13  1  0
 22 29  1  0
 23 22  2  0
 24 25  1  0
 25 26  1  0
 26 27  1  0
 28 27  1  6
 28 30  1  0
 29 28  1  0
 30 31  2  0
 30 32  1  0
M  END
$$$$
