KWM.pdb
     RDKit          3D

 32 33  0  0  1  0  0  0  0  0999 V2000
   20.6807  -28.1024  -11.0521 N   0  0  0  0  0  0  0  0  0  0  0  0
   19.3953  -28.1575  -10.3728 C   0  0  1  0  0  0  0  0  0  0  0  0
   19.0978  -29.5621   -9.8771 C   0  0  0  0  0  0  0  0  0  0  0  0
   20.3623  -30.2272   -9.3866 C   0  0  0  0  0  0  0  0  0  0  0  0
   20.3639  -31.6825   -9.7747 C   0  0  0  0  0  0  0  0  0  0  0  0
   21.5328  -32.4359   -9.1815 C   0  0  0  0  0  0  0  0  0  0  0  0
   21.4903  -33.7870   -9.7500 N   0  0  0  0  0  0  0  0  0  0  0  0
   19.3597  -27.1747   -9.2468 C   0  0  0  0  0  0  0  0  0  0  0  0
   20.3983  -26.6367   -8.7960 O   0  0  0  0  0  0  0  0  0  0  0  0
   18.1287  -26.8197   -8.6490 N   0  0  0  0  0  0  0  0  0  0  0  0
   18.0144  -25.7086   -7.7157 C   0  0  1  0  0  0  0  0  0  0  0  0
   17.2471  -24.5967   -8.3116 C   0  0  0  0  0  0  0  0  0  0  0  0
   17.8149  -23.8627   -9.4181 C   0  0  0  0  0  0  0  0  0  0  0  0
   18.9956  -23.1282   -9.4585 C   0  0  0  0  0  0  0  0  0  0  0  0
   19.0953  -22.6058  -10.6872 N   0  0  0  0  0  0  0  0  0  0  0  0
   18.0398  -22.9665  -11.4385 C   0  0  0  0  0  0  0  0  0  0  0  0
   17.7409  -22.6556  -12.7503 C   0  0  0  0  0  0  0  0  0  0  0  0
   16.5709  -23.1758  -13.2625 C   0  0  0  0  0  0  0  0  0  0  0  0
   15.7107  -23.9725  -12.5369 C   0  0  0  0  0  0  0  0  0  0  0  0
   16.0423  -24.2628  -11.2273 C   0  0  0  0  0  0  0  0  0  0  0  0
   17.2044  -23.7618  -10.6766 C   0  0  0  0  0  0  0  0  0  0  0  0
   17.4680  -26.2826   -6.4605 C   0  0  0  0  0  0  0  0  0  0  0  0
   16.4489  -27.0404   -6.5327 O   0  0  0  0  0  0  0  0  0  0  0  0
   21.3463  -28.4973   -0.9839 C   0  0  0  0  0  0  0  0  0  0  0  0
   20.0094  -27.2515   -1.0917 S   0  0  0  0  0  0  0  0  0  0  0  0
   19.0833  -27.5071   -2.6542 C   0  0  0  0  0  0  0  0  0  0  0  0
   18.0776  -26.4122   -2.7451 C   0  0  0  0  0  0  0  0  0  0  0  0
   17.2599  -26.4584   -4.0143 C   0  0  2  0  0  0  0  0  0  0  0  0
   18.0030  -26.0512   -5.1690 N   0  0  0  0  0  0  0  0  0  0  0  0
   16.0397  -25.6187   -3.9031 C   0  0  0  0  0  0  0  0  0  0  0  0
   15.9845  -24.4438   -4.3413 O   0  0  0  0  0  0  0  0  0  0  0  0
   14.9025  -26.1614   -3.2826 O   0  0  0  0  0  0  0  0  0  0  0  0
  2  3  1  0
  2  1  1  1
  3  4  1  0
  5  4  1  0
  6  5  1  0
  7  6  1  0
  8  9  2  0
  8  2  1  0
 10  8  1  0
 11 22  1  0
 11 10  1  0
 11 12  1  6
 13 12  1  0
 14 13  2  0
 15 14  1  0
 16 15  1  0
 16 21  2  0
 17 16  1  0
 18 17  2  0
 18 19  1  0
 19 20  2  0
 20 21  1  0
 21 13  1  0
 22 29  1  0
 23 22  2  0
 24 25  1  0
 25 26  1  0
 26 27  1  0
 28 27  1  1
 28 30  1  0
 29 28  1  0
 30 31  2  0
 30 32  1  0
M  END
$$$$
