KWM.pdb
     RDKit          3D

 32 33  0  0  1  0  0  0  0  0999 V2000
   28.3462  -22.2346  -16.1506 N   0  0  0  0  0  0  0  0  0  0  0  0
   27.8055  -21.0562  -15.4903 C   0  0  1  0  0  0  0  0  0  0  0  0
   27.1457  -20.1226  -16.4904 C   0  0  0  0  0  0  0  0  0  0  0  0
   28.1536  -19.6423  -17.5080 C   0  0  0  0  0  0  0  0  0  0  0  0
   27.5352  -19.6314  -18.8813 C   0  0  0  0  0  0  0  0  0  0  0  0
   28.5325  -19.2730  -19.9596 C   0  0  0  0  0  0  0  0  0  0  0  0
   27.8264  -19.3963  -21.2390 N   0  0  0  0  0  0  0  0  0  0  0  0
   26.8438  -21.4565  -14.4179 C   0  0  0  0  0  0  0  0  0  0  0  0
   26.2489  -22.5597  -14.4313 O   0  0  0  0  0  0  0  0  0  0  0  0
   26.5751  -20.5832  -13.3392 N   0  0  0  0  0  0  0  0  0  0  0  0
   25.7211  -20.9699  -12.2256 C   0  0  1  0  0  0  0  0  0  0  0  0
   26.1261  -20.2776  -10.9859 C   0  0  0  0  0  0  0  0  0  0  0  0
   27.3771  -20.6322  -10.3578 C   0  0  0  0  0  0  0  0  0  0  0  0
   28.5016  -21.2171  -10.9311 C   0  0  0  0  0  0  0  0  0  0  0  0
   29.4045  -21.3792   -9.9558 N   0  0  0  0  0  0  0  0  0  0  0  0
   28.9186  -20.9287   -8.7855 C   0  0  0  0  0  0  0  0  0  0  0  0
   29.5057  -20.9022   -7.5360 C   0  0  0  0  0  0  0  0  0  0  0  0
   28.7556  -20.3735   -6.5066 C   0  0  0  0  0  0  0  0  0  0  0  0
   27.4773  -19.8833   -6.6706 C   0  0  0  0  0  0  0  0  0  0  0  0
   26.9219  -19.9259   -7.9351 C   0  0  0  0  0  0  0  0  0  0  0  0
   27.6393  -20.4473   -8.9926 C   0  0  0  0  0  0  0  0  0  0  0  0
   24.3268  -20.7386  -12.6792 C   0  0  0  0  0  0  0  0  0  0  0  0
   23.9337  -19.5405  -12.8469 O   0  0  0  0  0  0  0  0  0  0  0  0
   20.8952  -24.7858  -15.9952 C   0  0  0  0  0  0  0  0  0  0  0  0
   19.7934  -23.3435  -16.2342 S   0  0  0  0  0  0  0  0  0  0  0  0
   20.2374  -22.0477  -15.0143 C   0  0  0  0  0  0  0  0  0  0  0  0
   21.6026  -22.3729  -14.5154 C   0  0  0  0  0  0  0  0  0  0  0  0
   22.0906  -21.4187  -13.4509 C   0  0  2  0  0  0  0  0  0  0  0  0
   23.3861  -21.7640  -12.9470 N   0  0  0  0  0  0  0  0  0  0  0  0
   21.1354  -21.3390  -12.3162 C   0  0  0  0  0  0  0  0  0  0  0  0
   21.1946  -22.1087  -11.3265 O   0  0  0  0  0  0  0  0  0  0  0  0
   20.1257  -20.3633  -12.3526 O   0  0  0  0  0  0  0  0  0  0  0  0
  2  3  1  0
  2  1  1  6
  3  4  1  0
  5  4  1  0
  6  5  1  0
  7  6  1  0
  8  9  2  0
  8  2  1  0
 10  8  1  0
 11 22  1  0
 11 10  1  0
 11 12  1  1
 13 12  1  0
 14 13  2  0
 15 14  1  0
 16 15  1  0
 16 21  2  0
 17 16  1  0
 18 17  2  0
 18 19  1  0
 19 20  2  0
 20 21  1  0
 21 13  1  0
 22 29  1  0
 23 22  2  0
 24 25  1  0
 25 26  1  0
 26 27  1  0
 28 27  1  6
 28 30  1  0
 29 28  1  0
 30 31  2  0
 30 32  1  0
M  END
$$$$
