KWM.pdb
     RDKit          3D

 32 33  0  0  1  0  0  0  0  0999 V2000
   27.1595  -19.4470  -13.4373 N   0  0  0  0  0  0  0  0  0  0  0  0
   27.3617  -20.8691  -13.2058 C   0  0  1  0  0  0  0  0  0  0  0  0
   28.8330  -21.2350  -13.2975 C   0  0  0  0  0  0  0  0  0  0  0  0
   29.3073  -21.1583  -14.7298 C   0  0  0  0  0  0  0  0  0  0  0  0
   28.3175  -21.8391  -15.6382 C   0  0  0  0  0  0  0  0  0  0  0  0
   28.6805  -21.6932  -17.0986 C   0  0  0  0  0  0  0  0  0  0  0  0
   27.6072  -22.3382  -17.8620 N   0  0  0  0  0  0  0  0  0  0  0  0
   26.7939  -21.2661  -11.8810 C   0  0  0  0  0  0  0  0  0  0  0  0
   26.8805  -22.4364  -11.4403 O   0  0  0  0  0  0  0  0  0  0  0  0
   26.1310  -20.3126  -11.0749 N   0  0  0  0  0  0  0  0  0  0  0  0
   25.5810  -20.6515   -9.7704 C   0  0  1  0  0  0  0  0  0  0  0  0
   26.1430  -19.7802   -8.7192 C   0  0  0  0  0  0  0  0  0  0  0  0
   27.4460  -20.0834   -8.1754 C   0  0  0  0  0  0  0  0  0  0  0  0
   28.5309  -20.6857   -8.8044 C   0  0  0  0  0  0  0  0  0  0  0  0
   29.5114  -20.7814   -7.8977 N   0  0  0  0  0  0  0  0  0  0  0  0
   29.1128  -20.2718   -6.7186 C   0  0  0  0  0  0  0  0  0  0  0  0
   29.7972  -20.1678   -5.5238 C   0  0  0  0  0  0  0  0  0  0  0  0
   29.1229  -19.5914   -4.4680 C   0  0  0  0  0  0  0  0  0  0  0  0
   27.8275  -19.1270   -4.5551 C   0  0  0  0  0  0  0  0  0  0  0  0
   27.1738  -19.2477   -5.7665 C   0  0  0  0  0  0  0  0  0  0  0  0
   27.8132  -19.8188   -6.8480 C   0  0  0  0  0  0  0  0  0  0  0  0
   24.1053  -20.6199   -9.9274 C   0  0  0  0  0  0  0  0  0  0  0  0
   23.6040  -19.8417  -10.7999 O   0  0  0  0  0  0  0  0  0  0  0  0
   17.0597  -24.0344   -8.7553 C   0  0  0  0  0  0  0  0  0  0  0  0
   18.8568  -24.0026   -8.4082 S   0  0  0  0  0  0  0  0  0  0  0  0
   19.5900  -22.5221   -9.2051 C   0  0  0  0  0  0  0  0  0  0  0  0
   21.0299  -22.4946   -8.8249 C   0  0  0  0  0  0  0  0  0  0  0  0
   21.8070  -21.3978   -9.5140 C   0  0  2  0  0  0  0  0  0  0  0  0
   23.1977  -21.4032   -9.1719 N   0  0  0  0  0  0  0  0  0  0  0  0
   21.2391  -20.0592   -9.2103 C   0  0  0  0  0  0  0  0  0  0  0  0
   21.7730  -19.2663   -8.3971 O   0  0  0  0  0  0  0  0  0  0  0  0
   20.0573  -19.6656   -9.8594 O   0  0  0  0  0  0  0  0  0  0  0  0
  2  3  1  0
  2  1  1  1
  3  4  1  0
  5  4  1  0
  6  5  1  0
  7  6  1  0
  8  9  2  0
  8  2  1  0
 10  8  1  0
 11 22  1  0
 11 10  1  0
 11 12  1  1
 13 12  1  0
 14 13  2  0
 15 14  1  0
 16 15  1  0
 16 21  2  0
 17 16  1  0
 18 17  2  0
 18 19  1  0
 19 20  2  0
 20 21  1  0
 21 13  1  0
 22 29  1  0
 23 22  2  0
 24 25  1  0
 25 26  1  0
 26 27  1  0
 28 27  1  1
 28 30  1  0
 29 28  1  0
 30 31  2  0
 30 32  1  0
M  END
$$$$
