KWM.pdb
     RDKit          3D

 32 33  0  0  1  0  0  0  0  0999 V2000
   27.2494  -17.6745  -18.1341 N   0  0  0  0  0  0  0  0  0  0  0  0
   26.1445  -17.5959  -17.1907 C   0  0  1  0  0  0  0  0  0  0  0  0
   24.8076  -17.6002  -17.9118 C   0  0  0  0  0  0  0  0  0  0  0  0
   24.6446  -16.3396  -18.7281 C   0  0  0  0  0  0  0  0  0  0  0  0
   23.2950  -16.3287  -19.3967 C   0  0  0  0  0  0  0  0  0  0  0  0
   23.1691  -15.2255  -20.4228 C   0  0  0  0  0  0  0  0  0  0  0  0
   23.2976  -13.9600  -19.6932 N   0  0  0  0  0  0  0  0  0  0  0  0
   26.2229  -18.7160  -16.2036 C   0  0  0  0  0  0  0  0  0  0  0  0
   26.2013  -19.9191  -16.5548 O   0  0  0  0  0  0  0  0  0  0  0  0
   26.3252  -18.4415  -14.8206 N   0  0  0  0  0  0  0  0  0  0  0  0
   26.4597  -19.4997  -13.8302 C   0  0  1  0  0  0  0  0  0  0  0  0
   27.3457  -19.0790  -12.7265 C   0  0  0  0  0  0  0  0  0  0  0  0
   27.6796  -20.0281  -11.6906 C   0  0  0  0  0  0  0  0  0  0  0  0
   28.2409  -21.2943  -11.8210 C   0  0  0  0  0  0  0  0  0  0  0  0
   28.3434  -21.8107  -10.5899 N   0  0  0  0  0  0  0  0  0  0  0  0
   27.8772  -20.9420   -9.6752 C   0  0  0  0  0  0  0  0  0  0  0  0
   27.7947  -21.0633   -8.3022 C   0  0  0  0  0  0  0  0  0  0  0  0
   27.2634  -19.9933   -7.6133 C   0  0  0  0  0  0  0  0  0  0  0  0
   26.8232  -18.8381   -8.2241 C   0  0  0  0  0  0  0  0  0  0  0  0
   26.9213  -18.7520   -9.5997 C   0  0  0  0  0  0  0  0  0  0  0  0
   27.4471  -19.8009  -10.3264 C   0  0  0  0  0  0  0  0  0  0  0  0
   25.0769  -19.8831  -13.4502 C   0  0  0  0  0  0  0  0  0  0  0  0
   24.2385  -18.9602  -13.1985 O   0  0  0  0  0  0  0  0  0  0  0  0
   21.7174  -21.8718   -7.3516 C   0  0  0  0  0  0  0  0  0  0  0  0
   23.0718  -21.3451   -8.4648 S   0  0  0  0  0  0  0  0  0  0  0  0
   22.5591  -21.6327  -10.2023 C   0  0  0  0  0  0  0  0  0  0  0  0
   23.7351  -21.3137  -11.0588 C   0  0  0  0  0  0  0  0  0  0  0  0
   23.4670  -21.5035  -12.5333 C   0  0  2  0  0  0  0  0  0  0  0  0
   24.6102  -21.2171  -13.3471 N   0  0  0  0  0  0  0  0  0  0  0  0
   22.3271  -20.6668  -12.9882 C   0  0  0  0  0  0  0  0  0  0  0  0
   21.1477  -20.8653  -12.6075 O   0  0  0  0  0  0  0  0  0  0  0  0
   22.5796  -19.6115  -13.8801 O   0  0  0  0  0  0  0  0  0  0  0  0
  2  3  1  0
  2  1  1  6
  3  4  1  0
  5  4  1  0
  6  5  1  0
  7  6  1  0
  8  9  2  0
  8  2  1  0
 10  8  1  0
 11 22  1  0
 11 10  1  0
 11 12  1  1
 13 12  1  0
 14 13  2  0
 15 14  1  0
 16 15  1  0
 16 21  2  0
 17 16  1  0
 18 17  2  0
 18 19  1  0
 19 20  2  0
 20 21  1  0
 21 13  1  0
 22 29  1  0
 23 22  2  0
 24 25  1  0
 25 26  1  0
 26 27  1  0
 28 27  1  1
 28 30  1  0
 29 28  1  0
 30 31  2  0
 30 32  1  0
M  END
$$$$
