KWM.pdb
     RDKit          3D

 32 33  0  0  1  0  0  0  0  0999 V2000
   28.8498  -22.0976  -15.5477 N   0  0  0  0  0  0  0  0  0  0  0  0
   27.9124  -21.0316  -15.2287 C   0  0  1  0  0  0  0  0  0  0  0  0
   27.0923  -20.6412  -16.4462 C   0  0  0  0  0  0  0  0  0  0  0  0
   27.9959  -20.1746  -17.5633 C   0  0  0  0  0  0  0  0  0  0  0  0
   27.8329  -21.0669  -18.7657 C   0  0  0  0  0  0  0  0  0  0  0  0
   28.7129  -20.6447  -19.9203 C   0  0  0  0  0  0  0  0  0  0  0  0
   28.5820  -21.6838  -20.9467 N   0  0  0  0  0  0  0  0  0  0  0  0
   27.0262  -21.4400  -14.0961 C   0  0  0  0  0  0  0  0  0  0  0  0
   26.6077  -22.6142  -13.9647 O   0  0  0  0  0  0  0  0  0  0  0  0
   26.6292  -20.4931  -13.1243 N   0  0  0  0  0  0  0  0  0  0  0  0
   25.8188  -20.8607  -11.9724 C   0  0  1  0  0  0  0  0  0  0  0  0
   26.2178  -20.0879  -10.7792 C   0  0  0  0  0  0  0  0  0  0  0  0
   27.4132  -20.4658  -10.0627 C   0  0  0  0  0  0  0  0  0  0  0  0
   28.5436  -21.1192  -10.5430 C   0  0  0  0  0  0  0  0  0  0  0  0
   29.3796  -21.2763   -9.5091 N   0  0  0  0  0  0  0  0  0  0  0  0
   28.8451  -20.7577   -8.3892 C   0  0  0  0  0  0  0  0  0  0  0  0
   29.3580  -20.7022   -7.1084 C   0  0  0  0  0  0  0  0  0  0  0  0
   28.5718  -20.1008   -6.1482 C   0  0  0  0  0  0  0  0  0  0  0  0
   27.3274  -19.5668   -6.4088 C   0  0  0  0  0  0  0  0  0  0  0  0
   26.8464  -19.6403   -7.7021 C   0  0  0  0  0  0  0  0  0  0  0  0
   27.6021  -20.2343   -8.6925 C   0  0  0  0  0  0  0  0  0  0  0  0
   24.4056  -20.7170  -12.4033 C   0  0  0  0  0  0  0  0  0  0  0  0
   24.0184  -19.5905  -12.8495 O   0  0  0  0  0  0  0  0  0  0  0  0
   18.0638  -22.6332  -15.7280 C   0  0  0  0  0  0  0  0  0  0  0  0
   19.7431  -23.0114  -15.1051 S   0  0  0  0  0  0  0  0  0  0  0  0
   19.8673  -22.4619  -13.3596 C   0  0  0  0  0  0  0  0  0  0  0  0
   21.2639  -22.7337  -12.9189 C   0  0  0  0  0  0  0  0  0  0  0  0
   22.0936  -21.4810  -12.7630 C   0  0  2  0  0  0  0  0  0  0  0  0
   23.4402  -21.7534  -12.3585 N   0  0  0  0  0  0  0  0  0  0  0  0
   21.4773  -20.5409  -11.7920 C   0  0  0  0  0  0  0  0  0  0  0  0
   21.7366  -20.5698  -10.5643 O   0  0  0  0  0  0  0  0  0  0  0  0
   20.5682  -19.5815  -12.2671 O   0  0  0  0  0  0  0  0  0  0  0  0
  2  3  1  0
  2  1  1  6
  3  4  1  0
  5  4  1  0
  6  5  1  0
  7  6  1  0
  8  9  2  0
  8  2  1  0
 10  8  1  0
 11 22  1  0
 11 10  1  0
 11 12  1  1
 13 12  1  0
 14 13  2  0
 15 14  1  0
 16 15  1  0
 16 21  2  0
 17 16  1  0
 18 17  2  0
 18 19  1  0
 19 20  2  0
 20 21  1  0
 21 13  1  0
 22 29  1  0
 23 22  2  0
 24 25  1  0
 25 26  1  0
 26 27  1  0
 28 27  1  1
 28 30  1  0
 29 28  1  0
 30 31  2  0
 30 32  1  0
M  END
$$$$
