KWM.pdb
     RDKit          3D

 32 33  0  0  1  0  0  0  0  0999 V2000
   25.0604  -19.0455  -15.0993 N   0  0  0  0  0  0  0  0  0  0  0  0
   25.2046  -20.4844  -15.2590 C   0  0  1  0  0  0  0  0  0  0  0  0
   25.9986  -20.8196  -16.5098 C   0  0  0  0  0  0  0  0  0  0  0  0
   25.4014  -20.1303  -17.7141 C   0  0  0  0  0  0  0  0  0  0  0  0
   26.1386  -20.5405  -18.9617 C   0  0  0  0  0  0  0  0  0  0  0  0
   25.6267  -19.8295  -20.1938 C   0  0  0  0  0  0  0  0  0  0  0  0
   26.2615  -18.5076  -20.2070 N   0  0  0  0  0  0  0  0  0  0  0  0
   25.8422  -21.0810  -14.0455 C   0  0  0  0  0  0  0  0  0  0  0  0
   26.1631  -22.2912  -13.9855 O   0  0  0  0  0  0  0  0  0  0  0  0
   26.1048  -20.2792  -12.9111 N   0  0  0  0  0  0  0  0  0  0  0  0
   26.7742  -20.8055  -11.7305 C   0  0  1  0  0  0  0  0  0  0  0  0
   27.9610  -19.9946  -11.3923 C   0  0  0  0  0  0  0  0  0  0  0  0
   28.9629  -20.5464  -10.5108 C   0  0  0  0  0  0  0  0  0  0  0  0
   29.9521  -21.4814  -10.7978 C   0  0  0  0  0  0  0  0  0  0  0  0
   30.6269  -21.7052   -9.6632 N   0  0  0  0  0  0  0  0  0  0  0  0
   30.1225  -20.9623   -8.6619 C   0  0  0  0  0  0  0  0  0  0  0  0
   30.5100  -20.8818   -7.3390 C   0  0  0  0  0  0  0  0  0  0  0  0
   29.7962  -20.0206   -6.5324 C   0  0  0  0  0  0  0  0  0  0  0  0
   28.7396  -19.2571   -6.9818 C   0  0  0  0  0  0  0  0  0  0  0  0
   28.3800  -19.3635   -8.3117 C   0  0  0  0  0  0  0  0  0  0  0  0
   29.0688  -20.2140   -9.1525 C   0  0  0  0  0  0  0  0  0  0  0  0
   25.7307  -20.9089  -10.6800 C   0  0  0  0  0  0  0  0  0  0  0  0
   24.8372  -20.0054  -10.6206 O   0  0  0  0  0  0  0  0  0  0  0  0
   27.7035  -19.3337   -4.9752 C   0  0  0  0  0  0  0  0  0  0  0  0
   26.6426  -20.8236   -4.8997 S   0  0  0  0  0  0  0  0  0  0  0  0
   25.3360  -20.6884   -6.1800 C   0  0  0  0  0  0  0  0  0  0  0  0
   25.9757  -21.0089   -7.4864 C   0  0  0  0  0  0  0  0  0  0  0  0
   25.0427  -21.6995   -8.4529 C   0  0  2  0  0  0  0  0  0  0  0  0
   25.6490  -21.9530   -9.7254 N   0  0  0  0  0  0  0  0  0  0  0  0
   23.7979  -20.9153   -8.6576 C   0  0  0  0  0  0  0  0  0  0  0  0
   23.8054  -19.7277   -9.0637 O   0  0  0  0  0  0  0  0  0  0  0  0
   22.5633  -21.5275   -8.3857 O   0  0  0  0  0  0  0  0  0  0  0  0
  2  3  1  0
  2  1  1  1
  3  4  1  0
  5  4  1  0
  6  5  1  0
  7  6  1  0
  8  9  2  0
  8  2  1  0
 10  8  1  0
 11 22  1  0
 11 10  1  0
 11 12  1  1
 13 12  1  0
 14 13  2  0
 15 14  1  0
 16 15  1  0
 16 21  2  0
 17 16  1  0
 18 17  2  0
 18 19  1  0
 19 20  2  0
 20 21  1  0
 21 13  1  0
 22 29  1  0
 23 22  2  0
 24 25  1  0
 25 26  1  0
 26 27  1  0
 28 27  1  1
 28 30  1  0
 29 28  1  0
 30 31  2  0
 30 32  1  0
M  END
$$$$
