KWM.pdb
     RDKit          3D

 32 33  0  0  1  0  0  0  0  0999 V2000
   24.5567  -19.6391  -11.9815 N   0  0  0  0  0  0  0  0  0  0  0  0
   24.8879  -21.0512  -11.8668 C   0  0  1  0  0  0  0  0  0  0  0  0
   26.3146  -21.3170  -12.3153 C   0  0  0  0  0  0  0  0  0  0  0  0
   26.5968  -20.6125  -13.6216 C   0  0  0  0  0  0  0  0  0  0  0  0
   26.2627  -21.5173  -14.7784 C   0  0  0  0  0  0  0  0  0  0  0  0
   26.5827  -20.8865  -16.1146 C   0  0  0  0  0  0  0  0  0  0  0  0
   27.8540  -21.4684  -16.5571 N   0  0  0  0  0  0  0  0  0  0  0  0
   24.6715  -21.5239  -10.4651 C   0  0  0  0  0  0  0  0  0  0  0  0
   24.9915  -22.6769  -10.0917 O   0  0  0  0  0  0  0  0  0  0  0  0
   24.0885  -20.6652   -9.5053 N   0  0  0  0  0  0  0  0  0  0  0  0
   23.8356  -21.0933   -8.1372 C   0  0  1  0  0  0  0  0  0  0  0  0
   24.4340  -20.1506   -7.1710 C   0  0  0  0  0  0  0  0  0  0  0  0
   25.8647  -19.9548   -7.1720 C   0  0  0  0  0  0  0  0  0  0  0  0
   26.7247  -19.8389   -8.2593 C   0  0  0  0  0  0  0  0  0  0  0  0
   27.9631  -19.6944   -7.7713 N   0  0  0  0  0  0  0  0  0  0  0  0
   27.9435  -19.7113   -6.4266 C   0  0  0  0  0  0  0  0  0  0  0  0
   28.9835  -19.5952   -5.5258 C   0  0  0  0  0  0  0  0  0  0  0  0
   28.6569  -19.6493   -4.1871 C   0  0  0  0  0  0  0  0  0  0  0  0
   27.3679  -19.8102   -3.7244 C   0  0  0  0  0  0  0  0  0  0  0  0
   26.3526  -19.9229   -4.6548 C   0  0  0  0  0  0  0  0  0  0  0  0
   26.6372  -19.8739   -6.0043 C   0  0  0  0  0  0  0  0  0  0  0  0
   22.3682  -21.2924   -8.0350 C   0  0  0  0  0  0  0  0  0  0  0  0
   21.6018  -20.3193   -8.3248 O   0  0  0  0  0  0  0  0  0  0  0  0
   18.8766  -23.9041  -12.5990 C   0  0  0  0  0  0  0  0  0  0  0  0
   18.9085  -24.4131  -10.8409 S   0  0  0  0  0  0  0  0  0  0  0  0
   19.6302  -23.0546   -9.8418 C   0  0  0  0  0  0  0  0  0  0  0  0
   19.6642  -23.5271   -8.4297 C   0  0  0  0  0  0  0  0  0  0  0  0
   20.3210  -22.5449   -7.4887 C   0  0  2  0  0  0  0  0  0  0  0  0
   21.7449  -22.5010   -7.6366 N   0  0  0  0  0  0  0  0  0  0  0  0
   19.9906  -22.8482   -6.0726 C   0  0  0  0  0  0  0  0  0  0  0  0
   20.8492  -23.2449   -5.2474 O   0  0  0  0  0  0  0  0  0  0  0  0
   18.6644  -22.6844   -5.6401 O   0  0  0  0  0  0  0  0  0  0  0  0
  2  3  1  0
  2  1  1  1
  3  4  1  0
  5  4  1  0
  6  5  1  0
  7  6  1  0
  8  9  2  0
  8  2  1  0
 10  8  1  0
 11 22  1  0
 11 10  1  0
 11 12  1  1
 13 12  1  0
 14 13  2  0
 15 14  1  0
 16 15  1  0
 16 21  2  0
 17 16  1  0
 18 17  2  0
 18 19  1  0
 19 20  2  0
 20 21  1  0
 21 13  1  0
 22 29  1  0
 23 22  2  0
 24 25  1  0
 25 26  1  0
 26 27  1  0
 28 27  1  6
 28 30  1  0
 29 28  1  0
 30 31  2  0
 30 32  1  0
M  END
$$$$
