KWM.pdb
     RDKit          3D

 32 33  0  0  1  0  0  0  0  0999 V2000
   28.2917  -21.8225  -15.9514 N   0  0  0  0  0  0  0  0  0  0  0  0
   27.6688  -20.6679  -15.3222 C   0  0  1  0  0  0  0  0  0  0  0  0
   26.7865  -19.9183  -16.3055 C   0  0  0  0  0  0  0  0  0  0  0  0
   27.0201  -20.4189  -17.7116 C   0  0  0  0  0  0  0  0  0  0  0  0
   27.6709  -19.3432  -18.5408 C   0  0  0  0  0  0  0  0  0  0  0  0
   28.6748  -19.9014  -19.5238 C   0  0  0  0  0  0  0  0  0  0  0  0
   28.2353  -19.4757  -20.8565 N   0  0  0  0  0  0  0  0  0  0  0  0
   26.8890  -21.0894  -14.1184 C   0  0  0  0  0  0  0  0  0  0  0  0
   25.9694  -21.9389  -14.1814 O   0  0  0  0  0  0  0  0  0  0  0  0
   27.1743  -20.5291  -12.8521 N   0  0  0  0  0  0  0  0  0  0  0  0
   26.5222  -20.9936  -11.6365 C   0  0  1  0  0  0  0  0  0  0  0  0
   27.3054  -20.6187  -10.4422 C   0  0  0  0  0  0  0  0  0  0  0  0
   26.7260  -20.8059   -9.1328 C   0  0  0  0  0  0  0  0  0  0  0  0
   25.6257  -21.5769   -8.7721 C   0  0  0  0  0  0  0  0  0  0  0  0
   25.4485  -21.4221   -7.4540 N   0  0  0  0  0  0  0  0  0  0  0  0
   26.3779  -20.5915   -6.9490 C   0  0  0  0  0  0  0  0  0  0  0  0
   26.5655  -20.1590   -5.6512 C   0  0  0  0  0  0  0  0  0  0  0  0
   27.6176  -19.2959   -5.4282 C   0  0  0  0  0  0  0  0  0  0  0  0
   28.4672  -18.8591   -6.4227 C   0  0  0  0  0  0  0  0  0  0  0  0
   28.2492  -19.3128   -7.7095 C   0  0  0  0  0  0  0  0  0  0  0  0
   27.2069  -20.1776   -7.9749 C   0  0  0  0  0  0  0  0  0  0  0  0
   25.1312  -20.4787  -11.6955 C   0  0  0  0  0  0  0  0  0  0  0  0
   24.9453  -19.2710  -12.0491 O   0  0  0  0  0  0  0  0  0  0  0  0
   20.7460  -23.2846  -14.9296 C   0  0  0  0  0  0  0  0  0  0  0  0
   19.6020  -22.5938  -13.6786 S   0  0  0  0  0  0  0  0  0  0  0  0
   20.4595  -21.2549  -12.7639 C   0  0  0  0  0  0  0  0  0  0  0  0
   21.8300  -21.7504  -12.4562 C   0  0  0  0  0  0  0  0  0  0  0  0
   22.6834  -20.7330  -11.7361 C   0  0  2  0  0  0  0  0  0  0  0  0
   23.9765  -21.2400  -11.3869 N   0  0  0  0  0  0  0  0  0  0  0  0
   22.0114  -20.2344  -10.5088 C   0  0  0  0  0  0  0  0  0  0  0  0
   22.2548  -20.6981   -9.3682 O   0  0  0  0  0  0  0  0  0  0  0  0
   21.0660  -19.2027  -10.6300 O   0  0  0  0  0  0  0  0  0  0  0  0
  2  3  1  0
  2  1  1  6
  3  4  1  0
  5  4  1  0
  6  5  1  0
  7  6  1  0
  8  9  2  0
  8  2  1  0
 10  8  1  0
 11 22  1  0
 11 10  1  0
 11 12  1  1
 13 12  1  0
 14 13  2  0
 15 14  1  0
 16 15  1  0
 16 21  2  0
 17 16  1  0
 18 17  2  0
 18 19  1  0
 19 20  2  0
 20 21  1  0
 21 13  1  0
 22 29  1  0
 23 22  2  0
 24 25  1  0
 25 26  1  0
 26 27  1  0
 28 27  1  1
 28 30  1  0
 29 28  1  0
 30 31  2  0
 30 32  1  0
M  END
$$$$
