KWM.pdb
     RDKit          3D

 32 33  0  0  1  0  0  0  0  0999 V2000
   28.4006  -21.9195  -15.4665 N   0  0  0  0  0  0  0  0  0  0  0  0
   27.6102  -20.8346  -14.9051 C   0  0  1  0  0  0  0  0  0  0  0  0
   26.8270  -20.1113  -15.9871 C   0  0  0  0  0  0  0  0  0  0  0  0
   27.7137  -19.8205  -17.1750 C   0  0  0  0  0  0  0  0  0  0  0  0
   26.9428  -19.0576  -18.2200 C   0  0  0  0  0  0  0  0  0  0  0  0
   27.7779  -18.7495  -19.4420 C   0  0  0  0  0  0  0  0  0  0  0  0
   28.8522  -17.8551  -18.9988 N   0  0  0  0  0  0  0  0  0  0  0  0
   26.6973  -21.3531  -13.8408 C   0  0  0  0  0  0  0  0  0  0  0  0
   26.2046  -22.5049  -13.8855 O   0  0  0  0  0  0  0  0  0  0  0  0
   26.3592  -20.5412  -12.7339 N   0  0  0  0  0  0  0  0  0  0  0  0
   25.4988  -21.0167  -11.6604 C   0  0  1  0  0  0  0  0  0  0  0  0
   25.8810  -20.4087  -10.3703 C   0  0  0  0  0  0  0  0  0  0  0  0
   27.1323  -20.7870   -9.7566 C   0  0  0  0  0  0  0  0  0  0  0  0
   28.1332  -21.6106  -10.2617 C   0  0  0  0  0  0  0  0  0  0  0  0
   29.0899  -21.6893   -9.3283 N   0  0  0  0  0  0  0  0  0  0  0  0
   28.7556  -20.9590   -8.2496 C   0  0  0  0  0  0  0  0  0  0  0  0
   29.4432  -20.7605   -7.0687 C   0  0  0  0  0  0  0  0  0  0  0  0
   28.8445  -19.9487   -6.1284 C   0  0  0  0  0  0  0  0  0  0  0  0
   27.6196  -19.3434   -6.3150 C   0  0  0  0  0  0  0  0  0  0  0  0
   26.9604  -19.5646   -7.5091 C   0  0  0  0  0  0  0  0  0  0  0  0
   27.5253  -20.3707   -8.4765 C   0  0  0  0  0  0  0  0  0  0  0  0
   24.1064  -20.7721  -12.1127 C   0  0  0  0  0  0  0  0  0  0  0  0
   23.7837  -19.5965  -12.4761 O   0  0  0  0  0  0  0  0  0  0  0  0
   20.2548  -24.7688  -15.0397 C   0  0  0  0  0  0  0  0  0  0  0  0
   18.9059  -23.7299  -14.3673 S   0  0  0  0  0  0  0  0  0  0  0  0
   19.6338  -22.2220  -13.6185 C   0  0  0  0  0  0  0  0  0  0  0  0
   21.0176  -22.5743  -13.1947 C   0  0  0  0  0  0  0  0  0  0  0  0
   21.7835  -21.4022  -12.6279 C   0  0  2  0  0  0  0  0  0  0  0  0
   23.0939  -21.7615  -12.1752 N   0  0  0  0  0  0  0  0  0  0  0  0
   21.0439  -20.7618  -11.5102 C   0  0  0  0  0  0  0  0  0  0  0  0
   21.2392  -21.0650  -10.3080 O   0  0  0  0  0  0  0  0  0  0  0  0
   20.0880  -19.7777  -11.8110 O   0  0  0  0  0  0  0  0  0  0  0  0
  2  3  1  0
  2  1  1  6
  3  4  1  0
  5  4  1  0
  6  5  1  0
  7  6  1  0
  8  9  2  0
  8  2  1  0
 10  8  1  0
 11 22  1  0
 11 10  1  0
 11 12  1  1
 13 12  1  0
 14 13  2  0
 15 14  1  0
 16 15  1  0
 16 21  2  0
 17 16  1  0
 18 17  2  0
 18 19  1  0
 19 20  2  0
 20 21  1  0
 21 13  1  0
 22 29  1  0
 23 22  2  0
 24 25  1  0
 25 26  1  0
 26 27  1  0
 28 27  1  1
 28 30  1  0
 29 28  1  0
 30 31  2  0
 30 32  1  0
M  END
$$$$
