KWM.pdb
     RDKit          3D

 32 33  0  0  1  0  0  0  0  0999 V2000
   28.1078  -22.9286  -15.7897 N   0  0  0  0  0  0  0  0  0  0  0  0
   28.0210  -21.6149  -15.1705 C   0  0  1  0  0  0  0  0  0  0  0  0
   27.5576  -20.5684  -16.1692 C   0  0  0  0  0  0  0  0  0  0  0  0
   28.5265  -20.4764  -17.3245 C   0  0  0  0  0  0  0  0  0  0  0  0
   27.8705  -20.9667  -18.5885 C   0  0  0  0  0  0  0  0  0  0  0  0
   28.7831  -20.8625  -19.7893 C   0  0  0  0  0  0  0  0  0  0  0  0
   28.0228  -21.3686  -20.9366 N   0  0  0  0  0  0  0  0  0  0  0  0
   27.1140  -21.6588  -13.9828 C   0  0  0  0  0  0  0  0  0  0  0  0
   25.9413  -22.0958  -14.0532 O   0  0  0  0  0  0  0  0  0  0  0  0
   27.5647  -21.1989  -12.7242 N   0  0  0  0  0  0  0  0  0  0  0  0
   26.7100  -21.2091  -11.5460 C   0  0  1  0  0  0  0  0  0  0  0  0
   27.5093  -21.0559  -10.3140 C   0  0  0  0  0  0  0  0  0  0  0  0
   26.8362  -20.7691   -9.0690 C   0  0  0  0  0  0  0  0  0  0  0  0
   25.4825  -20.8792   -8.7682 C   0  0  0  0  0  0  0  0  0  0  0  0
   25.3248  -20.4803   -7.4998 N   0  0  0  0  0  0  0  0  0  0  0  0
   26.5071  -20.1196   -6.9700 C   0  0  0  0  0  0  0  0  0  0  0  0
   26.8030  -19.6514   -5.7051 C   0  0  0  0  0  0  0  0  0  0  0  0
   28.1248  -19.3582   -5.4430 C   0  0  0  0  0  0  0  0  0  0  0  0
   29.1357  -19.5100   -6.3684 C   0  0  0  0  0  0  0  0  0  0  0  0
   28.8024  -19.9810   -7.6239 C   0  0  0  0  0  0  0  0  0  0  0  0
   27.4909  -20.2861   -7.9268 C   0  0  0  0  0  0  0  0  0  0  0  0
   25.6707  -20.1766  -11.7850 C   0  0  0  0  0  0  0  0  0  0  0  0
   25.9187  -19.2466  -12.6167 O   0  0  0  0  0  0  0  0  0  0  0  0
   20.9181  -21.3092  -16.7432 C   0  0  0  0  0  0  0  0  0  0  0  0
   22.3479  -21.5516  -15.6261 S   0  0  0  0  0  0  0  0  0  0  0  0
   22.0659  -20.5988  -14.0844 C   0  0  0  0  0  0  0  0  0  0  0  0
   23.2993  -20.7341  -13.2605 C   0  0  0  0  0  0  0  0  0  0  0  0
   23.2214  -19.9947  -11.9456 C   0  0  2  0  0  0  0  0  0  0  0  0
   24.4035  -20.1472  -11.1515 N   0  0  0  0  0  0  0  0  0  0  0  0
   22.0445  -20.4282  -11.1497 C   0  0  0  0  0  0  0  0  0  0  0  0
   22.0361  -21.4871  -10.4760 O   0  0  0  0  0  0  0  0  0  0  0  0
   20.8953  -19.6205  -11.1514 O   0  0  0  0  0  0  0  0  0  0  0  0
  2  3  1  0
  2  1  1  6
  3  4  1  0
  5  4  1  0
  6  5  1  0
  7  6  1  0
  8  9  2  0
  8  2  1  0
 10  8  1  0
 11 22  1  0
 11 10  1  0
 11 12  1  1
 13 12  1  0
 14 13  2  0
 15 14  1  0
 16 15  1  0
 16 21  2  0
 17 16  1  0
 18 17  2  0
 18 19  1  0
 19 20  2  0
 20 21  1  0
 21 13  1  0
 22 29  1  0
 23 22  2  0
 24 25  1  0
 25 26  1  0
 26 27  1  0
 28 27  1  6
 28 30  1  0
 29 28  1  0
 30 31  2  0
 30 32  1  0
M  END
$$$$
