CIG.pdb
     RDKit          3D

 19 18  0  0  1  0  0  0  0  0999 V2000
    5.4149  -18.9530   24.2247 N   0  0  0  0  0  0  0  0  0  0  0  0
    6.2254  -18.4100   25.2659 C   0  0  1  0  0  0  0  0  0  0  0  0
    7.2985  -19.3218   25.7662 C   0  0  0  0  0  0  0  0  0  0  0  0
    6.9136  -19.7748   27.4811 S   0  0  0  0  0  0  0  0  0  0  0  0
    6.8773  -17.1162   24.8390 C   0  0  0  0  0  0  0  0  0  0  0  0
    7.3453  -17.1031   23.6923 O   0  0  0  0  0  0  0  0  0  0  0  0
    5.5939  -12.1864   26.5622 C   0  0  0  0  0  0  0  0  0  0  0  0
    6.1588  -13.3151   25.6902 C   0  0  0  0  0  0  0  0  0  0  0  0
    7.5646  -13.6630   26.1164 C   0  0  2  0  0  0  0  0  0  0  0  0
    8.5092  -12.5447   25.7487 C   0  0  0  0  0  0  0  0  0  0  0  0
    7.9431  -14.9750   25.4810 C   0  0  2  0  0  0  0  0  0  0  0  0
    6.9612  -15.9970   25.6579 N   0  0  0  0  0  0  0  0  0  0  0  0
    9.3186  -15.3931   25.7023 C   0  0  0  0  0  0  0  0  0  0  0  0
    9.8361  -15.4266   26.8654 O   0  0  0  0  0  0  0  0  0  0  0  0
   10.1884  -15.7942   24.6490 N   0  0  0  0  0  0  0  0  0  0  0  0
   11.5815  -16.0986   24.8904 C   0  0  0  0  0  0  0  0  0  0  0  0
   12.3845  -15.7973   23.6696 C   0  0  0  0  0  0  0  0  0  0  0  0
   13.7620  -15.9440   23.6694 O   0  0  0  0  0  0  0  0  0  0  0  0
   11.8506  -15.4029   22.6045 O   0  0  0  0  0  0  0  0  0  0  0  0
  2  1  1  6
  3  2  1  0
  4  3  1  0
  5  6  2  0
  5  2  1  0
  8  7  1  0
  8  9  1  0
  9 11  1  0
  9 10  1  6
 11 13  1  0
 11 12  1  1
 12  5  1  0
 13 15  1  0
 14 13  2  0
 15 16  1  0
 16 17  1  0
 17 19  2  0
 17 18  1  0
M  END
$$$$
