CIG.pdb
     RDKit          3D

 19 18  0  0  1  0  0  0  0  0999 V2000
   10.2653  -16.1283   14.7769 N   0  0  0  0  0  0  0  0  0  0  0  0
    9.2518  -16.3209   15.7625 C   0  0  1  0  0  0  0  0  0  0  0  0
    8.8064  -17.7367   15.9364 C   0  0  0  0  0  0  0  0  0  0  0  0
    8.0860  -18.3082   14.3717 S   0  0  0  0  0  0  0  0  0  0  0  0
    9.6898  -15.8028   17.1119 C   0  0  0  0  0  0  0  0  0  0  0  0
   10.9101  -15.8190   17.3235 O   0  0  0  0  0  0  0  0  0  0  0  0
    6.6016  -12.1336   19.3991 C   0  0  0  0  0  0  0  0  0  0  0  0
    7.9228  -12.8191   19.0279 C   0  0  0  0  0  0  0  0  0  0  0  0
    8.2395  -13.9265   20.0037 C   0  0  2  0  0  0  0  0  0  0  0  0
    8.7551  -13.3451   21.2977 C   0  0  0  0  0  0  0  0  0  0  0  0
    9.2238  -14.8643   19.3558 C   0  0  2  0  0  0  0  0  0  0  0  0
    8.8040  -15.3324   18.0734 N   0  0  0  0  0  0  0  0  0  0  0  0
    9.7769  -15.8819   20.2357 C   0  0  0  0  0  0  0  0  0  0  0  0
    9.1792  -16.9853   20.4527 O   0  0  0  0  0  0  0  0  0  0  0  0
   11.0170  -15.7292   20.9181 N   0  0  0  0  0  0  0  0  0  0  0  0
   11.5479  -16.7715   21.7685 C   0  0  0  0  0  0  0  0  0  0  0  0
   12.8919  -16.3731   22.2790 C   0  0  0  0  0  0  0  0  0  0  0  0
   13.1161  -16.2011   23.6352 O   0  0  0  0  0  0  0  0  0  0  0  0
   13.8639  -16.1796   21.5089 O   0  0  0  0  0  0  0  0  0  0  0  0
  2  1  1  6
  3  2  1  0
  4  3  1  0
  5  6  2  0
  5  2  1  0
  8  7  1  0
  8  9  1  0
  9 11  1  0
  9 10  1  1
 11 13  1  0
 11 12  1  6
 12  5  1  0
 13 15  1  0
 14 13  2  0
 15 16  1  0
 16 17  1  0
 17 19  2  0
 17 18  1  0
M  END
$$$$
