CIG.pdb
     RDKit          3D

 19 18  0  0  1  0  0  0  0  0999 V2000
    7.8358  -13.2125   20.1484 N   0  0  0  0  0  0  0  0  0  0  0  0
    7.3492  -14.0935   21.1597 C   0  0  1  0  0  0  0  0  0  0  0  0
    7.4944  -15.5478   20.8482 C   0  0  0  0  0  0  0  0  0  0  0  0
    6.8109  -15.8517   19.1945 S   0  0  0  0  0  0  0  0  0  0  0  0
    8.0214  -13.8337   22.4871 C   0  0  0  0  0  0  0  0  0  0  0  0
    9.1879  -13.4217   22.4271 O   0  0  0  0  0  0  0  0  0  0  0  0
    5.2406  -11.4658   26.3873 C   0  0  0  0  0  0  0  0  0  0  0  0
    6.3558  -11.9380   25.4457 C   0  0  0  0  0  0  0  0  0  0  0  0
    7.0106  -13.1880   25.9822 C   0  0  2  0  0  0  0  0  0  0  0  0
    7.6515  -12.9043   27.3190 C   0  0  0  0  0  0  0  0  0  0  0  0
    7.9978  -13.6845   24.9589 C   0  0  2  0  0  0  0  0  0  0  0  0
    7.3965  -14.0347   23.7116 N   0  0  0  0  0  0  0  0  0  0  0  0
    8.9812  -14.6319   25.4599 C   0  0  0  0  0  0  0  0  0  0  0  0
    9.6262  -14.4295   26.5391 O   0  0  0  0  0  0  0  0  0  0  0  0
    9.2991  -15.8486   24.7924 N   0  0  0  0  0  0  0  0  0  0  0  0
   10.1786  -16.8315   25.3855 C   0  0  0  0  0  0  0  0  0  0  0  0
   10.3212  -18.0013   24.4706 C   0  0  0  0  0  0  0  0  0  0  0  0
   11.0148  -19.1336   24.8653 O   0  0  0  0  0  0  0  0  0  0  0  0
    9.8238  -18.0072   23.3183 O   0  0  0  0  0  0  0  0  0  0  0  0
  2  1  1  6
  3  2  1  0
  4  3  1  0
  5  6  2  0
  5  2  1  0
  8  7  1  0
  8  9  1  0
  9 11  1  0
  9 10  1  1
 11 13  1  0
 11 12  1  6
 12  5  1  0
 13 15  1  0
 14 13  2  0
 15 16  1  0
 16 17  1  0
 17 19  2  0
 17 18  1  0
M  END
$$$$
