CIG.pdb
     RDKit          3D

 19 18  0  0  1  0  0  0  0  0999 V2000
    7.6773  -14.3188   20.1815 N   0  0  0  0  0  0  0  0  0  0  0  0
    7.0958  -14.9674   21.3115 C   0  0  1  0  0  0  0  0  0  0  0  0
    6.9916  -16.4538   21.1971 C   0  0  0  0  0  0  0  0  0  0  0  0
    5.9514  -16.8477   19.7629 S   0  0  0  0  0  0  0  0  0  0  0  0
    7.8539  -14.6514   22.5790 C   0  0  0  0  0  0  0  0  0  0  0  0
    9.0850  -14.5785   22.4647 O   0  0  0  0  0  0  0  0  0  0  0  0
    5.7461  -11.4861   26.2178 C   0  0  0  0  0  0  0  0  0  0  0  0
    6.7475  -12.2347   25.3290 C   0  0  0  0  0  0  0  0  0  0  0  0
    7.2921  -13.4465   26.0460 C   0  0  2  0  0  0  0  0  0  0  0  0
    8.2260  -13.0181   27.1516 C   0  0  0  0  0  0  0  0  0  0  0  0
    7.9618  -14.3374   25.0331 C   0  0  2  0  0  0  0  0  0  0  0  0
    7.2370  -14.4504   23.8076 N   0  0  0  0  0  0  0  0  0  0  0  0
    8.4836  -15.5881   25.5614 C   0  0  0  0  0  0  0  0  0  0  0  0
    7.7189  -16.5333   25.9401 O   0  0  0  0  0  0  0  0  0  0  0  0
    9.8756  -15.8544   25.6966 N   0  0  0  0  0  0  0  0  0  0  0  0
   10.3648  -17.1653   26.0624 C   0  0  0  0  0  0  0  0  0  0  0  0
   10.4545  -17.2762   27.5474 C   0  0  0  0  0  0  0  0  0  0  0  0
   10.9295  -18.4308   28.1478 O   0  0  0  0  0  0  0  0  0  0  0  0
   10.1069  -16.3381   28.3054 O   0  0  0  0  0  0  0  0  0  0  0  0
  2  1  1  6
  3  2  1  0
  4  3  1  0
  5  6  2  0
  5  2  1  0
  8  7  1  0
  8  9  1  0
  9 11  1  0
  9 10  1  1
 11 13  1  0
 11 12  1  6
 12  5  1  0
 13 15  1  0
 14 13  2  0
 15 16  1  0
 16 17  1  0
 17 19  2  0
 17 18  1  0
M  END
$$$$
