CIG.pdb
     RDKit          3D

 19 18  0  0  1  0  0  0  0  0999 V2000
    5.2172  -18.6979   23.5585 N   0  0  0  0  0  0  0  0  0  0  0  0
    5.8585  -18.3436   24.7829 C   0  0  1  0  0  0  0  0  0  0  0  0
    6.6920  -19.4248   25.3906 C   0  0  0  0  0  0  0  0  0  0  0  0
    7.1084  -18.9420   27.0900 S   0  0  0  0  0  0  0  0  0  0  0  0
    6.7321  -17.1231   24.6143 C   0  0  0  0  0  0  0  0  0  0  0  0
    7.4354  -17.1024   23.5950 O   0  0  0  0  0  0  0  0  0  0  0  0
    5.3792  -12.3709   26.7645 C   0  0  0  0  0  0  0  0  0  0  0  0
    5.9798  -13.4023   25.8008 C   0  0  0  0  0  0  0  0  0  0  0  0
    7.3621  -13.8088   26.2514 C   0  0  2  0  0  0  0  0  0  0  0  0
    8.3302  -12.6693   26.0454 C   0  0  0  0  0  0  0  0  0  0  0  0
    7.7607  -15.0520   25.5005 C   0  0  2  0  0  0  0  0  0  0  0  0
    6.7655  -16.0761   25.5271 N   0  0  0  0  0  0  0  0  0  0  0  0
    9.1222  -15.5055   25.7374 C   0  0  0  0  0  0  0  0  0  0  0  0
    9.6066  -15.6063   26.9108 O   0  0  0  0  0  0  0  0  0  0  0  0
   10.0141  -15.8694   24.6890 N   0  0  0  0  0  0  0  0  0  0  0  0
   11.4116  -16.1417   24.9426 C   0  0  0  0  0  0  0  0  0  0  0  0
   12.2015  -15.9410   23.6930 C   0  0  0  0  0  0  0  0  0  0  0  0
   13.5852  -16.0080   23.7068 O   0  0  0  0  0  0  0  0  0  0  0  0
   11.6507  -15.7057   22.5900 O   0  0  0  0  0  0  0  0  0  0  0  0
  2  1  1  6
  3  2  1  0
  4  3  1  0
  5  6  2  0
  5  2  1  0
  8  7  1  0
  8  9  1  0
  9 11  1  0
  9 10  1  6
 11 13  1  0
 11 12  1  1
 12  5  1  0
 13 15  1  0
 14 13  2  0
 15 16  1  0
 16 17  1  0
 17 19  2  0
 17 18  1  0
M  END
$$$$
