CIG.pdb
     RDKit          3D

 19 18  0  0  1  0  0  0  0  0999 V2000
    6.4461  -15.1647   20.5468 N   0  0  0  0  0  0  0  0  0  0  0  0
    6.2012  -15.6848   21.8526 C   0  0  1  0  0  0  0  0  0  0  0  0
    6.1542  -17.1762   21.9356 C   0  0  0  0  0  0  0  0  0  0  0  0
    5.6518  -17.6421   23.6163 S   0  0  0  0  0  0  0  0  0  0  0  0
    7.2324  -15.1971   22.8425 C   0  0  0  0  0  0  0  0  0  0  0  0
    8.4001  -15.1664   22.4307 O   0  0  0  0  0  0  0  0  0  0  0  0
    5.7183  -11.8182   26.7318 C   0  0  0  0  0  0  0  0  0  0  0  0
    6.5718  -12.4911   25.6492 C   0  0  0  0  0  0  0  0  0  0  0  0
    7.3834  -13.6199   26.2375 C   0  0  2  0  0  0  0  0  0  0  0  0
    8.4808  -13.0670   27.1140 C   0  0  0  0  0  0  0  0  0  0  0  0
    7.9125  -14.4642   25.1081 C   0  0  2  0  0  0  0  0  0  0  0  0
    6.9207  -14.8019   24.1375 N   0  0  0  0  0  0  0  0  0  0  0  0
    8.7822  -15.5582   25.5112 C   0  0  0  0  0  0  0  0  0  0  0  0
    8.4284  -16.4173   26.3821 O   0  0  0  0  0  0  0  0  0  0  0  0
   10.0847  -15.7554   24.9713 N   0  0  0  0  0  0  0  0  0  0  0  0
   10.9661  -16.7856   25.4746 C   0  0  0  0  0  0  0  0  0  0  0  0
   12.2847  -16.7071   24.7812 C   0  0  0  0  0  0  0  0  0  0  0  0
   12.8544  -17.8309   24.2052 O   0  0  0  0  0  0  0  0  0  0  0  0
   12.9250  -15.6312   24.6922 O   0  0  0  0  0  0  0  0  0  0  0  0
  2  1  1  6
  3  2  1  0
  4  3  1  0
  5  6  2  0
  5  2  1  0
  8  7  1  0
  8  9  1  0
  9 11  1  0
  9 10  1  6
 11 13  1  0
 11 12  1  1
 12  5  1  0
 13 15  1  0
 14 13  2  0
 15 16  1  0
 16 17  1  0
 17 19  2  0
 17 18  1  0
M  END
$$$$
