CIG.pdb
     RDKit          3D

 19 18  0  0  1  0  0  0  0  0999 V2000
    5.0504  -18.2018   23.2032 N   0  0  0  0  0  0  0  0  0  0  0  0
    5.7662  -18.0383   24.4266 C   0  0  1  0  0  0  0  0  0  0  0  0
    6.5731  -19.2246   24.8449 C   0  0  0  0  0  0  0  0  0  0  0  0
    7.1006  -18.9825   26.5647 S   0  0  0  0  0  0  0  0  0  0  0  0
    6.6905  -16.8451   24.3692 C   0  0  0  0  0  0  0  0  0  0  0  0
    7.3919  -16.7572   23.3521 O   0  0  0  0  0  0  0  0  0  0  0  0
    5.4823  -12.2709   26.9106 C   0  0  0  0  0  0  0  0  0  0  0  0
    6.0770  -13.2025   25.8467 C   0  0  0  0  0  0  0  0  0  0  0  0
    7.4315  -13.7086   26.2807 C   0  0  2  0  0  0  0  0  0  0  0  0
    8.4510  -12.5988   26.1949 C   0  0  0  0  0  0  0  0  0  0  0  0
    7.7919  -14.8953   25.4263 C   0  0  2  0  0  0  0  0  0  0  0  0
    6.7700  -15.8918   25.3768 N   0  0  0  0  0  0  0  0  0  0  0  0
    9.1424  -15.4021   25.6132 C   0  0  0  0  0  0  0  0  0  0  0  0
    9.5755  -15.7676   26.7537 O   0  0  0  0  0  0  0  0  0  0  0  0
   10.0794  -15.5295   24.5489 N   0  0  0  0  0  0  0  0  0  0  0  0
   11.4458  -15.9394   24.7865 C   0  0  0  0  0  0  0  0  0  0  0  0
   12.2111  -15.9173   23.5060 C   0  0  0  0  0  0  0  0  0  0  0  0
   13.5849  -16.0951   23.4945 O   0  0  0  0  0  0  0  0  0  0  0  0
   11.6476  -15.7387   22.3989 O   0  0  0  0  0  0  0  0  0  0  0  0
  2  1  1  6
  3  2  1  0
  4  3  1  0
  5  6  2  0
  5  2  1  0
  8  7  1  0
  8  9  1  0
  9 11  1  0
  9 10  1  6
 11 13  1  0
 11 12  1  1
 12  5  1  0
 13 15  1  0
 14 13  2  0
 15 16  1  0
 16 17  1  0
 17 19  2  0
 17 18  1  0
M  END
$$$$
