CIG.pdb
     RDKit          3D

 19 18  0  0  1  0  0  0  0  0999 V2000
    5.5863  -19.2055   24.8699 N   0  0  0  0  0  0  0  0  0  0  0  0
    6.3735  -18.4454   25.7855 C   0  0  1  0  0  0  0  0  0  0  0  0
    7.5287  -19.1821   26.3820 C   0  0  0  0  0  0  0  0  0  0  0  0
    8.1173  -18.2541   27.8265 S   0  0  0  0  0  0  0  0  0  0  0  0
    6.9073  -17.1879   25.1414 C   0  0  0  0  0  0  0  0  0  0  0  0
    7.2912  -17.3057   23.9697 O   0  0  0  0  0  0  0  0  0  0  0  0
    5.3834  -12.3420   27.0192 C   0  0  0  0  0  0  0  0  0  0  0  0
    5.7974  -13.4362   26.0270 C   0  0  0  0  0  0  0  0  0  0  0  0
    7.3014  -13.5368   25.9437 C   0  0  2  0  0  0  0  0  0  0  0  0
    7.8629  -12.3287   25.2341 C   0  0  0  0  0  0  0  0  0  0  0  0
    7.6543  -14.8296   25.2564 C   0  0  2  0  0  0  0  0  0  0  0  0
    6.9755  -15.9644   25.7962 N   0  0  0  0  0  0  0  0  0  0  0  0
    9.0723  -15.0224   24.9961 C   0  0  0  0  0  0  0  0  0  0  0  0
    9.9293  -15.0879   25.9357 O   0  0  0  0  0  0  0  0  0  0  0  0
    9.6115  -15.1521   23.6849 N   0  0  0  0  0  0  0  0  0  0  0  0
   11.0285  -15.0146   23.4306 C   0  0  0  0  0  0  0  0  0  0  0  0
   11.7148  -16.3174   23.6702 C   0  0  0  0  0  0  0  0  0  0  0  0
   12.7978  -16.7043   22.8978 O   0  0  0  0  0  0  0  0  0  0  0  0
   11.3431  -17.1076   24.5717 O   0  0  0  0  0  0  0  0  0  0  0  0
  2  1  1  6
  3  2  1  0
  4  3  1  0
  5  6  2  0
  5  2  1  0
  8  7  1  0
  8  9  1  0
  9 11  1  0
  9 10  1  6
 11 13  1  0
 11 12  1  1
 12  5  1  0
 13 15  1  0
 14 13  2  0
 15 16  1  0
 16 17  1  0
 17 19  2  0
 17 18  1  0
M  END
$$$$
