CIG.pdb
     RDKit          3D

 19 18  0  0  1  0  0  0  0  0999 V2000
    6.7896  -19.1753   27.1617 N   0  0  0  0  0  0  0  0  0  0  0  0
    7.6079  -18.0263   27.3760 C   0  0  1  0  0  0  0  0  0  0  0  0
    9.0540  -18.3207   27.6110 C   0  0  0  0  0  0  0  0  0  0  0  0
    9.7022  -17.1062   28.7939 S   0  0  0  0  0  0  0  0  0  0  0  0
    7.5130  -17.0587   26.2201 C   0  0  0  0  0  0  0  0  0  0  0  0
    7.2872  -17.5652   25.1126 O   0  0  0  0  0  0  0  0  0  0  0  0
    5.7346  -12.0331   27.1679 C   0  0  0  0  0  0  0  0  0  0  0  0
    5.9200  -13.3424   26.3903 C   0  0  0  0  0  0  0  0  0  0  0  0
    7.2573  -13.3597   25.6899 C   0  0  2  0  0  0  0  0  0  0  0  0
    7.2470  -12.3943   24.5297 C   0  0  0  0  0  0  0  0  0  0  0  0
    7.5536  -14.7740   25.2655 C   0  0  2  0  0  0  0  0  0  0  0  0
    7.6649  -15.6848   26.3600 N   0  0  0  0  0  0  0  0  0  0  0  0
    8.5776  -14.9087   24.2414 C   0  0  0  0  0  0  0  0  0  0  0  0
    8.3874  -14.5281   23.0411 O   0  0  0  0  0  0  0  0  0  0  0  0
    9.8611  -15.4705   24.4943 N   0  0  0  0  0  0  0  0  0  0  0  0
   10.9281  -15.3927   23.5211 C   0  0  0  0  0  0  0  0  0  0  0  0
   11.0621  -16.6979   22.8111 C   0  0  0  0  0  0  0  0  0  0  0  0
   11.8562  -16.8161   21.6821 O   0  0  0  0  0  0  0  0  0  0  0  0
   10.4673  -17.7312   23.2033 O   0  0  0  0  0  0  0  0  0  0  0  0
  2  1  1  6
  3  2  1  0
  4  3  1  0
  5  6  2  0
  5  2  1  0
  8  7  1  0
  8  9  1  0
  9 11  1  0
  9 10  1  6
 11 13  1  0
 11 12  1  1
 12  5  1  0
 13 15  1  0
 14 13  2  0
 15 16  1  0
 16 17  1  0
 17 19  2  0
 17 18  1  0
M  END
$$$$
