CIG.pdb
     RDKit          3D

 19 18  0  0  1  0  0  0  0  0999 V2000
    5.0753  -18.4195   23.4113 N   0  0  0  0  0  0  0  0  0  0  0  0
    5.9100  -18.1948   24.5464 C   0  0  1  0  0  0  0  0  0  0  0  0
    6.9010  -19.2790   24.8212 C   0  0  0  0  0  0  0  0  0  0  0  0
    6.2598  -20.3157   26.1659 S   0  0  0  0  0  0  0  0  0  0  0  0
    6.6672  -16.8936   24.4248 C   0  0  0  0  0  0  0  0  0  0  0  0
    7.2318  -16.6999   23.3396 O   0  0  0  0  0  0  0  0  0  0  0  0
    5.2896  -12.3288   26.6881 C   0  0  0  0  0  0  0  0  0  0  0  0
    6.0024  -13.2551   25.6946 C   0  0  0  0  0  0  0  0  0  0  0  0
    7.3285  -13.7130   26.2523 C   0  0  2  0  0  0  0  0  0  0  0  0
    8.3424  -12.5989   26.1586 C   0  0  0  0  0  0  0  0  0  0  0  0
    7.7556  -14.9506   25.5079 C   0  0  2  0  0  0  0  0  0  0  0  0
    6.7428  -15.9558   25.4472 N   0  0  0  0  0  0  0  0  0  0  0  0
    9.0892  -15.4341   25.8295 C   0  0  0  0  0  0  0  0  0  0  0  0
    9.4271  -15.7456   27.0171 O   0  0  0  0  0  0  0  0  0  0  0  0
   10.1136  -15.5965   24.8542 N   0  0  0  0  0  0  0  0  0  0  0  0
   11.4237  -16.0972   25.2067 C   0  0  0  0  0  0  0  0  0  0  0  0
   12.2685  -16.2113   23.9824 C   0  0  0  0  0  0  0  0  0  0  0  0
   13.2034  -15.2380   23.6692 O   0  0  0  0  0  0  0  0  0  0  0  0
   12.1680  -17.1831   23.1946 O   0  0  0  0  0  0  0  0  0  0  0  0
  2  1  1  6
  3  2  1  0
  4  3  1  0
  5  6  2  0
  5  2  1  0
  8  7  1  0
  8  9  1  0
  9 11  1  0
  9 10  1  6
 11 13  1  0
 11 12  1  1
 12  5  1  0
 13 15  1  0
 14 13  2  0
 15 16  1  0
 16 17  1  0
 17 19  2  0
 17 18  1  0
M  END
$$$$
