CIG.pdb
     RDKit          3D

 19 18  0  0  1  0  0  0  0  0999 V2000
    5.2753  -18.6187   23.5324 N   0  0  0  0  0  0  0  0  0  0  0  0
    6.0037  -18.2126   24.6900 C   0  0  1  0  0  0  0  0  0  0  0  0
    7.0184  -19.1986   25.1710 C   0  0  0  0  0  0  0  0  0  0  0  0
    6.2140  -20.3228   26.3471 S   0  0  0  0  0  0  0  0  0  0  0  0
    6.7071  -16.8951   24.4645 C   0  0  0  0  0  0  0  0  0  0  0  0
    7.1920  -16.7310   23.3367 O   0  0  0  0  0  0  0  0  0  0  0  0
    5.3218  -12.2914   26.8947 C   0  0  0  0  0  0  0  0  0  0  0  0
    5.8741  -13.2879   25.8674 C   0  0  0  0  0  0  0  0  0  0  0  0
    7.3138  -13.6235   26.1733 C   0  0  2  0  0  0  0  0  0  0  0  0
    8.1887  -12.4167   25.9359 C   0  0  0  0  0  0  0  0  0  0  0  0
    7.7155  -14.8062   25.3319 C   0  0  2  0  0  0  0  0  0  0  0  0
    6.8185  -15.9123   25.4403 N   0  0  0  0  0  0  0  0  0  0  0  0
    9.1285  -15.1477   25.3829 C   0  0  0  0  0  0  0  0  0  0  0  0
    9.6990  -15.5050   26.4639 O   0  0  0  0  0  0  0  0  0  0  0  0
    9.9791  -15.1108   24.2418 N   0  0  0  0  0  0  0  0  0  0  0  0
   11.4119  -15.2689   24.3586 C   0  0  0  0  0  0  0  0  0  0  0  0
   11.7932  -16.6768   24.0452 C   0  0  0  0  0  0  0  0  0  0  0  0
   12.5499  -16.9768   22.9242 O   0  0  0  0  0  0  0  0  0  0  0  0
   11.4479  -17.6366   24.7765 O   0  0  0  0  0  0  0  0  0  0  0  0
  2  1  1  6
  3  2  1  0
  4  3  1  0
  5  6  2  0
  5  2  1  0
  8  7  1  0
  8  9  1  0
  9 11  1  0
  9 10  1  6
 11 13  1  0
 11 12  1  1
 12  5  1  0
 13 15  1  0
 14 13  2  0
 15 16  1  0
 16 17  1  0
 17 19  2  0
 17 18  1  0
M  END
$$$$
