KLI.pdb
     RDKit          3D

 26 25  0  0  1  0  0  0  0  0999 V2000
    8.2682  -16.1965   20.1663 N   0  0  0  0  0  0  0  0  0  0  0  0
    9.1566  -16.9170   21.0086 C   0  0  1  0  0  0  0  0  0  0  0  0
   10.4212  -17.2680   20.3293 C   0  0  0  0  0  0  0  0  0  0  0  0
   10.4806  -18.6707   19.8067 C   0  0  0  0  0  0  0  0  0  0  0  0
   10.9227  -18.8352   18.3951 C   0  0  0  0  0  0  0  0  0  0  0  0
   10.8611  -20.3535   18.1166 C   0  0  0  0  0  0  0  0  0  0  0  0
   11.1083  -20.5786   16.7179 N   0  0  0  0  0  0  0  0  0  0  0  0
    9.4167  -16.1885   22.3038 C   0  0  0  0  0  0  0  0  0  0  0  0
   10.4749  -15.5660   22.5014 O   0  0  0  0  0  0  0  0  0  0  0  0
    7.6108  -12.7518   24.8831 C   0  0  0  0  0  0  0  0  0  0  0  0
    6.5929  -13.8850   24.6736 C   0  0  2  0  0  0  0  0  0  0  0  0
    5.3295  -13.4638   25.3353 C   0  0  0  0  0  0  0  0  0  0  0  0
    7.2356  -15.1222   25.1815 C   0  0  0  0  0  0  0  0  0  0  0  0
    8.5580  -15.4822   24.5853 C   0  0  2  0  0  0  0  0  0  0  0  0
    8.4463  -16.1966   23.3416 N   0  0  0  0  0  0  0  0  0  0  0  0
    9.4093  -16.1463   25.5945 C   0  0  0  0  0  0  0  0  0  0  0  0
    9.7212  -17.3434   25.3871 O   0  0  0  0  0  0  0  0  0  0  0  0
   10.6819  -13.8131   30.7393 C   0  0  0  0  0  0  0  0  0  0  0  0
   10.2011  -14.7422   29.6935 C   0  0  0  0  0  0  0  0  0  0  0  0
   11.1591  -15.2985   28.7279 C   0  0  2  0  0  0  0  0  0  0  0  0
   11.9614  -14.1660   28.0848 C   0  0  0  0  0  0  0  0  0  0  0  0
   10.7187  -16.2994   27.7215 C   0  0  2  0  0  0  0  0  0  0  0  0
    9.8913  -15.5239   26.7641 N   0  0  0  0  0  0  0  0  0  0  0  0
    9.9362  -17.4300   28.1453 C   0  0  0  0  0  0  0  0  0  0  0  0
    8.6949  -17.4722   28.0398 O   0  0  0  0  0  0  0  0  0  0  0  0
   10.5372  -18.5539   28.7030 O   0  0  0  0  0  0  0  0  0  0  0  0
  2  1  1  6
  3  2  1  0
  4  5  1  0
  4  3  1  0
  6  7  1  0
  6  5  1  0
  8  2  1  0
  9  8  2  0
 11 10  1  1
 11 13  1  0
 12 11  1  0
 14 13  1  1
 14 15  1  0
 15  8  1  0
 16 23  1  0
 16 14  1  0
 17 16  2  0
 19 18  1  0
 19 20  1  0
 20 22  1  0
 20 21  1  6
 22 24  1  0
 22 23  1  6
 24 26  1  0
 25 24  2  0
M  END
$$$$
