KLI.pdb
     RDKit          3D

 26 25  0  0  1  0  0  0  0  0999 V2000
   10.0895  -19.0481   20.1023 N   0  0  0  0  0  0  0  0  0  0  0  0
    9.1916  -18.4673   21.0373 C   0  0  1  0  0  0  0  0  0  0  0  0
    9.0707  -19.2637   22.2761 C   0  0  0  0  0  0  0  0  0  0  0  0
    9.0476  -20.7467   22.0650 C   0  0  0  0  0  0  0  0  0  0  0  0
    8.7025  -21.5806   23.2484 C   0  0  0  0  0  0  0  0  0  0  0  0
    8.7975  -23.0447   22.7647 C   0  0  0  0  0  0  0  0  0  0  0  0
    8.3891  -23.9140   23.8352 N   0  0  0  0  0  0  0  0  0  0  0  0
    9.5492  -17.0338   21.3427 C   0  0  0  0  0  0  0  0  0  0  0  0
   10.7284  -16.6770   21.5114 O   0  0  0  0  0  0  0  0  0  0  0  0
    8.7262  -13.0111   19.2922 C   0  0  0  0  0  0  0  0  0  0  0  0
    7.4638  -13.6729   19.8689 C   0  0  2  0  0  0  0  0  0  0  0  0
    6.2999  -12.8768   19.3967 C   0  0  0  0  0  0  0  0  0  0  0  0
    7.6690  -13.7549   21.3361 C   0  0  0  0  0  0  0  0  0  0  0  0
    8.7514  -14.6702   21.8100 C   0  0  2  0  0  0  0  0  0  0  0  0
    8.5341  -16.0451   21.4462 N   0  0  0  0  0  0  0  0  0  0  0  0
    9.0085  -14.4547   23.2493 C   0  0  0  0  0  0  0  0  0  0  0  0
    9.4543  -13.3340   23.5933 O   0  0  0  0  0  0  0  0  0  0  0  0
    6.0710  -12.5689   25.8055 C   0  0  0  0  0  0  0  0  0  0  0  0
    7.3707  -13.1674   25.4307 C   0  0  0  0  0  0  0  0  0  0  0  0
    7.8370  -14.3734   26.1290 C   0  0  2  0  0  0  0  0  0  0  0  0
    7.8627  -14.1200   27.6373 C   0  0  0  0  0  0  0  0  0  0  0  0
    9.0594  -15.0837   25.6708 C   0  0  2  0  0  0  0  0  0  0  0  0
    8.7835  -15.4201   24.2519 N   0  0  0  0  0  0  0  0  0  0  0  0
    9.4584  -16.2994   26.3290 C   0  0  0  0  0  0  0  0  0  0  0  0
   10.0071  -16.3149   27.4481 O   0  0  0  0  0  0  0  0  0  0  0  0
    9.2467  -17.5412   25.7388 O   0  0  0  0  0  0  0  0  0  0  0  0
  2  1  1  6
  3  2  1  0
  4  5  1  0
  4  3  1  0
  6  7  1  0
  6  5  1  0
  8  2  1  0
  9  8  2  0
 11 10  1  6
 11 13  1  0
 12 11  1  0
 14 13  1  1
 14 15  1  0
 15  8  1  0
 16 23  1  0
 16 14  1  0
 17 16  2  0
 19 18  1  0
 19 20  1  0
 20 22  1  0
 20 21  1  1
 22 24  1  0
 22 23  1  6
 24 26  1  0
 25 24  2  0
M  END
$$$$
