KLI.pdb
     RDKit          3D

 26 25  0  0  1  0  0  0  0  0999 V2000
    9.2204  -19.2984   20.0593 N   0  0  0  0  0  0  0  0  0  0  0  0
    8.8601  -18.7979   21.3390 C   0  0  1  0  0  0  0  0  0  0  0  0
    9.3237  -19.6692   22.4388 C   0  0  0  0  0  0  0  0  0  0  0  0
    8.7971  -21.0708   22.3890 C   0  0  0  0  0  0  0  0  0  0  0  0
    9.0478  -21.9173   23.5872 C   0  0  0  0  0  0  0  0  0  0  0  0
    8.3371  -23.2590   23.3019 C   0  0  0  0  0  0  0  0  0  0  0  0
    8.5950  -24.1611   24.3918 N   0  0  0  0  0  0  0  0  0  0  0  0
    9.3243  -17.3761   21.5364 C   0  0  0  0  0  0  0  0  0  0  0  0
   10.5278  -17.0686   21.4796 O   0  0  0  0  0  0  0  0  0  0  0  0
    8.6979  -13.4075   19.4080 C   0  0  0  0  0  0  0  0  0  0  0  0
    7.4267  -13.9967   20.0414 C   0  0  2  0  0  0  0  0  0  0  0  0
    6.2806  -13.1823   19.5568 C   0  0  0  0  0  0  0  0  0  0  0  0
    7.6620  -14.0182   21.5063 C   0  0  0  0  0  0  0  0  0  0  0  0
    8.7149  -14.9565   22.0009 C   0  0  2  0  0  0  0  0  0  0  0  0
    8.3853  -16.3417   21.7952 N   0  0  0  0  0  0  0  0  0  0  0  0
    9.0873  -14.6193   23.3907 C   0  0  0  0  0  0  0  0  0  0  0  0
    9.8296  -13.6230   23.5627 O   0  0  0  0  0  0  0  0  0  0  0  0
    6.0988  -12.4106   26.0610 C   0  0  0  0  0  0  0  0  0  0  0  0
    7.2895  -13.1222   25.5471 C   0  0  0  0  0  0  0  0  0  0  0  0
    7.9632  -14.1100   26.4014 C   0  0  2  0  0  0  0  0  0  0  0  0
    8.2905  -13.4828   27.7576 C   0  0  0  0  0  0  0  0  0  0  0  0
    9.1020  -14.9077   25.8765 C   0  0  2  0  0  0  0  0  0  0  0  0
    8.6620  -15.3388   24.5262 N   0  0  0  0  0  0  0  0  0  0  0  0
    9.5250  -16.0862   26.5852 C   0  0  0  0  0  0  0  0  0  0  0  0
    9.0011  -17.2042   26.4137 O   0  0  0  0  0  0  0  0  0  0  0  0
   10.5598  -16.0361   27.5136 O   0  0  0  0  0  0  0  0  0  0  0  0
  2  1  1  6
  3  2  1  0
  4  5  1  0
  4  3  1  0
  6  7  1  0
  6  5  1  0
  8  2  1  0
  9  8  2  0
 11 10  1  6
 11 13  1  0
 12 11  1  0
 14 13  1  1
 14 15  1  0
 15  8  1  0
 16 23  1  0
 16 14  1  0
 17 16  2  0
 19 18  1  0
 19 20  1  0
 20 22  1  0
 20 21  1  1
 22 24  1  0
 22 23  1  6
 24 26  1  0
 25 24  2  0
M  END
$$$$
