KLI.pdb
     RDKit          3D

 26 25  0  0  1  0  0  0  0  0999 V2000
    8.8918  -15.6682   19.9616 N   0  0  0  0  0  0  0  0  0  0  0  0
    8.8781  -16.5173   21.1003 C   0  0  1  0  0  0  0  0  0  0  0  0
    9.7896  -17.6715   20.9569 C   0  0  0  0  0  0  0  0  0  0  0  0
    9.5087  -18.5456   19.7732 C   0  0  0  0  0  0  0  0  0  0  0  0
   10.3266  -19.7831   19.6525 C   0  0  0  0  0  0  0  0  0  0  0  0
    9.7669  -20.5305   18.4218 C   0  0  0  0  0  0  0  0  0  0  0  0
   10.4590  -21.7839   18.2864 N   0  0  0  0  0  0  0  0  0  0  0  0
    9.1580  -15.7553   22.3719 C   0  0  0  0  0  0  0  0  0  0  0  0
   10.2357  -15.1621   22.5535 O   0  0  0  0  0  0  0  0  0  0  0  0
    7.7061  -12.2480   25.2432 C   0  0  0  0  0  0  0  0  0  0  0  0
    6.5613  -13.2184   24.9087 C   0  0  2  0  0  0  0  0  0  0  0  0
    5.3525  -12.7294   25.6237 C   0  0  0  0  0  0  0  0  0  0  0  0
    7.0472  -14.5748   25.2634 C   0  0  0  0  0  0  0  0  0  0  0  0
    8.3438  -15.0012   24.6544 C   0  0  2  0  0  0  0  0  0  0  0  0
    8.1845  -15.6968   23.4051 N   0  0  0  0  0  0  0  0  0  0  0  0
    9.1639  -15.7207   25.6513 C   0  0  0  0  0  0  0  0  0  0  0  0
    9.3951  -16.9350   25.4387 O   0  0  0  0  0  0  0  0  0  0  0  0
   13.0392  -16.0864   29.7369 C   0  0  0  0  0  0  0  0  0  0  0  0
   11.7098  -15.4791   29.9646 C   0  0  0  0  0  0  0  0  0  0  0  0
   10.9261  -15.0079   28.8143 C   0  0  2  0  0  0  0  0  0  0  0  0
    9.7484  -14.1627   29.3026 C   0  0  0  0  0  0  0  0  0  0  0  0
   10.5162  -15.9539   27.7439 C   0  0  2  0  0  0  0  0  0  0  0  0
    9.7008  -15.1326   26.8148 N   0  0  0  0  0  0  0  0  0  0  0  0
    9.7366  -17.1135   28.0867 C   0  0  0  0  0  0  0  0  0  0  0  0
    8.4925  -17.0950   28.1621 O   0  0  0  0  0  0  0  0  0  0  0  0
   10.3433  -18.3364   28.3547 O   0  0  0  0  0  0  0  0  0  0  0  0
  2  1  1  6
  3  2  1  0
  4  5  1  0
  4  3  1  0
  6  7  1  0
  6  5  1  0
  8  2  1  0
  9  8  2  0
 11 10  1  1
 11 13  1  0
 12 11  1  0
 14 13  1  1
 14 15  1  0
 15  8  1  0
 16 23  1  0
 16 14  1  0
 17 16  2  0
 19 18  1  0
 19 20  1  0
 20 22  1  0
 20 21  1  1
 22 24  1  0
 22 23  1  6
 24 26  1  0
 25 24  2  0
M  END
$$$$
