KLI.pdb
     RDKit          3D

 26 25  0  0  1  0  0  0  0  0999 V2000
    9.9169  -15.6594   19.7649 N   0  0  0  0  0  0  0  0  0  0  0  0
    8.9602  -16.0928   20.7214 C   0  0  1  0  0  0  0  0  0  0  0  0
    8.8982  -17.5650   20.8332 C   0  0  0  0  0  0  0  0  0  0  0  0
    8.5005  -18.2705   19.5729 C   0  0  0  0  0  0  0  0  0  0  0  0
    7.2418  -19.0630   19.6244 C   0  0  0  0  0  0  0  0  0  0  0  0
    7.0731  -19.6638   18.2112 C   0  0  0  0  0  0  0  0  0  0  0  0
    7.7759  -20.9171   18.1534 N   0  0  0  0  0  0  0  0  0  0  0  0
    9.1838  -15.4520   22.0687 C   0  0  0  0  0  0  0  0  0  0  0  0
   10.3174  -15.3726   22.5736 O   0  0  0  0  0  0  0  0  0  0  0  0
    5.5049  -12.7470   26.2866 C   0  0  0  0  0  0  0  0  0  0  0  0
    6.9670  -13.0253   25.9004 C   0  0  2  0  0  0  0  0  0  0  0  0
    7.6966  -11.7331   25.9965 C   0  0  0  0  0  0  0  0  0  0  0  0
    6.9297  -13.6767   24.5678 C   0  0  0  0  0  0  0  0  0  0  0  0
    8.1660  -14.4008   24.1425 C   0  0  2  0  0  0  0  0  0  0  0  0
    8.0905  -14.9174   22.8018 N   0  0  0  0  0  0  0  0  0  0  0  0
    8.5467  -15.4025   25.1602 C   0  0  0  0  0  0  0  0  0  0  0  0
    8.2663  -16.6015   24.9215 O   0  0  0  0  0  0  0  0  0  0  0  0
   10.8238  -13.3720   29.6450 C   0  0  0  0  0  0  0  0  0  0  0  0
   10.9195  -14.1188   28.3718 C   0  0  0  0  0  0  0  0  0  0  0  0
   10.4519  -15.5108   28.3159 C   0  0  2  0  0  0  0  0  0  0  0  0
   11.4115  -16.4102   29.0969 C   0  0  0  0  0  0  0  0  0  0  0  0
   10.0595  -16.1219   27.0192 C   0  0  2  0  0  0  0  0  0  0  0  0
    9.2023  -15.0985   26.3709 N   0  0  0  0  0  0  0  0  0  0  0  0
    9.3259  -17.3596   27.0150 C   0  0  0  0  0  0  0  0  0  0  0  0
    8.0925  -17.4164   27.1861 O   0  0  0  0  0  0  0  0  0  0  0  0
    9.9682  -18.5773   26.8148 O   0  0  0  0  0  0  0  0  0  0  0  0
  2  1  1  6
  3  2  1  0
  4  5  1  0
  4  3  1  0
  6  7  1  0
  6  5  1  0
  8  2  1  0
  9  8  2  0
 11 10  1  6
 11 13  1  0
 12 11  1  0
 14 13  1  1
 14 15  1  0
 15  8  1  0
 16 23  1  0
 16 14  1  0
 17 16  2  0
 19 18  1  0
 19 20  1  0
 20 22  1  0
 20 21  1  6
 22 24  1  0
 22 23  1  1
 24 26  1  0
 25 24  2  0
M  END
$$$$
