KLI.pdb
     RDKit          3D

 26 25  0  0  1  0  0  0  0  0999 V2000
    7.1010  -15.9200   21.4772 N   0  0  0  0  0  0  0  0  0  0  0  0
    8.2885  -15.1447   21.3963 C   0  0  1  0  0  0  0  0  0  0  0  0
    8.1056  -13.9097   20.6058 C   0  0  0  0  0  0  0  0  0  0  0  0
    7.6763  -14.1338   19.1882 C   0  0  0  0  0  0  0  0  0  0  0  0
    8.3672  -13.3226   18.1490 C   0  0  0  0  0  0  0  0  0  0  0  0
    7.6394  -13.6409   16.8241 C   0  0  0  0  0  0  0  0  0  0  0  0
    8.2916  -12.9334   15.7553 N   0  0  0  0  0  0  0  0  0  0  0  0
    8.8541  -14.8403   22.7613 C   0  0  0  0  0  0  0  0  0  0  0  0
   10.0339  -14.4778   22.9130 O   0  0  0  0  0  0  0  0  0  0  0  0
    7.9827  -11.9077   26.0564 C   0  0  0  0  0  0  0  0  0  0  0  0
    6.8622  -12.9395   25.8464 C   0  0  2  0  0  0  0  0  0  0  0  0
    5.6965  -12.4868   26.6512 C   0  0  0  0  0  0  0  0  0  0  0  0
    7.4421  -14.2610   26.1909 C   0  0  0  0  0  0  0  0  0  0  0  0
    8.4982  -14.7876   25.2737 C   0  0  2  0  0  0  0  0  0  0  0  0
    8.0418  -14.9623   23.9206 N   0  0  0  0  0  0  0  0  0  0  0  0
    9.1337  -15.9856   25.8612 C   0  0  0  0  0  0  0  0  0  0  0  0
    8.5204  -17.0744   25.7533 O   0  0  0  0  0  0  0  0  0  0  0  0
   14.1302  -16.6685   24.7576 C   0  0  0  0  0  0  0  0  0  0  0  0
   12.7134  -16.8367   25.1482 C   0  0  0  0  0  0  0  0  0  0  0  0
   12.3860  -17.1977   26.5345 C   0  0  2  0  0  0  0  0  0  0  0  0
   13.1664  -18.4489   26.9408 C   0  0  0  0  0  0  0  0  0  0  0  0
   10.9700  -17.2649   26.9808 C   0  0  2  0  0  0  0  0  0  0  0  0
   10.3765  -15.9826   26.5270 N   0  0  0  0  0  0  0  0  0  0  0  0
   10.6770  -17.3995   28.3830 C   0  0  0  0  0  0  0  0  0  0  0  0
   10.6543  -18.5002   28.9675 O   0  0  0  0  0  0  0  0  0  0  0  0
   10.4008  -16.2871   29.1714 O   0  0  0  0  0  0  0  0  0  0  0  0
  2  1  1  1
  3  2  1  0
  4  5  1  0
  4  3  1  0
  6  7  1  0
  6  5  1  0
  8  2  1  0
  9  8  2  0
 11 10  1  1
 11 13  1  0
 12 11  1  0
 14 13  1  1
 14 15  1  0
 15  8  1  0
 16 23  1  0
 16 14  1  0
 17 16  2  0
 19 18  1  0
 19 20  1  0
 20 22  1  0
 20 21  1  6
 22 24  1  0
 22 23  1  1
 24 26  1  0
 25 24  2  0
M  END
$$$$
