KLI.pdb
     RDKit          3D

 26 25  0  0  1  0  0  0  0  0999 V2000
    8.9091  -18.4342   19.8230 N   0  0  0  0  0  0  0  0  0  0  0  0
   10.2270  -18.0194   20.1533 C   0  0  1  0  0  0  0  0  0  0  0  0
   11.1035  -17.9212   18.9677 C   0  0  0  0  0  0  0  0  0  0  0  0
   11.1788  -19.1690   18.1421 C   0  0  0  0  0  0  0  0  0  0  0  0
   12.1800  -19.1771   17.0409 C   0  0  0  0  0  0  0  0  0  0  0  0
   12.1169  -20.5968   16.4349 C   0  0  0  0  0  0  0  0  0  0  0  0
   13.0407  -20.6729   15.3353 N   0  0  0  0  0  0  0  0  0  0  0  0
   10.2294  -16.7333   20.9419 C   0  0  0  0  0  0  0  0  0  0  0  0
   11.2742  -16.2703   21.4322 O   0  0  0  0  0  0  0  0  0  0  0  0
    8.2698  -12.8847   19.5989 C   0  0  0  0  0  0  0  0  0  0  0  0
    7.2573  -13.8754   20.1971 C   0  0  2  0  0  0  0  0  0  0  0  0
    5.9009  -13.3310   19.9229 C   0  0  0  0  0  0  0  0  0  0  0  0
    7.6349  -14.0486   21.6215 C   0  0  0  0  0  0  0  0  0  0  0  0
    8.9061  -14.7868   21.8915 C   0  0  2  0  0  0  0  0  0  0  0  0
    9.0226  -16.0116   21.1457 N   0  0  0  0  0  0  0  0  0  0  0  0
    9.1087  -14.9392   23.3474 C   0  0  0  0  0  0  0  0  0  0  0  0
   10.2913  -14.9830   23.7630 O   0  0  0  0  0  0  0  0  0  0  0  0
    6.8519  -11.5303   26.3075 C   0  0  0  0  0  0  0  0  0  0  0  0
    7.7532  -12.5942   25.8138 C   0  0  0  0  0  0  0  0  0  0  0  0
    7.6029  -13.9624   26.3286 C   0  0  2  0  0  0  0  0  0  0  0  0
    7.6929  -13.9529   27.8555 C   0  0  0  0  0  0  0  0  0  0  0  0
    8.3869  -15.0790   25.7394 C   0  0  2  0  0  0  0  0  0  0  0  0
    8.0656  -15.0345   24.2912 N   0  0  0  0  0  0  0  0  0  0  0  0
    8.1478  -16.4245   26.1896 C   0  0  0  0  0  0  0  0  0  0  0  0
    7.2091  -17.1247   25.7627 O   0  0  0  0  0  0  0  0  0  0  0  0
    8.9682  -17.0227   27.1406 O   0  0  0  0  0  0  0  0  0  0  0  0
  2  1  1  6
  3  2  1  0
  4  5  1  0
  4  3  1  0
  6  7  1  0
  6  5  1  0
  8  2  1  0
  9  8  2  0
 11 10  1  1
 11 13  1  0
 12 11  1  0
 14 13  1  1
 14 15  1  0
 15  8  1  0
 16 23  1  0
 16 14  1  0
 17 16  2  0
 19 18  1  0
 19 20  1  0
 20 22  1  0
 20 21  1  1
 22 24  1  0
 22 23  1  6
 24 26  1  0
 25 24  2  0
M  END
$$$$
