KLI.pdb
     RDKit          3D

 26 25  0  0  1  0  0  0  0  0999 V2000
    8.3591  -15.1797   19.7551 N   0  0  0  0  0  0  0  0  0  0  0  0
    8.3389  -16.1171   20.8222 C   0  0  1  0  0  0  0  0  0  0  0  0
    9.1149  -17.3374   20.5186 C   0  0  0  0  0  0  0  0  0  0  0  0
    8.3478  -18.4010   19.7945 C   0  0  0  0  0  0  0  0  0  0  0  0
    9.0755  -19.6680   19.5107 C   0  0  0  0  0  0  0  0  0  0  0  0
    8.0450  -20.5922   18.8249 C   0  0  0  0  0  0  0  0  0  0  0  0
    8.7049  -21.8056   18.4242 N   0  0  0  0  0  0  0  0  0  0  0  0
    8.7845  -15.4964   22.1230 C   0  0  0  0  0  0  0  0  0  0  0  0
    9.9006  -14.9613   22.2422 O   0  0  0  0  0  0  0  0  0  0  0  0
    7.7872  -12.2061   25.1973 C   0  0  0  0  0  0  0  0  0  0  0  0
    6.5564  -13.1181   25.0651 C   0  0  2  0  0  0  0  0  0  0  0  0
    5.5231  -12.5936   25.9972 C   0  0  0  0  0  0  0  0  0  0  0  0
    7.0350  -14.5020   25.3048 C   0  0  0  0  0  0  0  0  0  0  0  0
    8.2429  -14.9342   24.5380 C   0  0  2  0  0  0  0  0  0  0  0  0
    7.9285  -15.5087   23.2569 N   0  0  0  0  0  0  0  0  0  0  0  0
    9.1116  -15.7767   25.3862 C   0  0  0  0  0  0  0  0  0  0  0  0
    9.4246  -16.9084   24.9452 O   0  0  0  0  0  0  0  0  0  0  0  0
   10.8508  -13.4205   29.9818 C   0  0  0  0  0  0  0  0  0  0  0  0
   11.1023  -14.1619   28.7267 C   0  0  0  0  0  0  0  0  0  0  0  0
   10.7953  -15.5976   28.6639 C   0  0  2  0  0  0  0  0  0  0  0  0
   11.7804  -16.3755   29.5381 C   0  0  0  0  0  0  0  0  0  0  0  0
   10.5790  -16.2648   27.3536 C   0  0  2  0  0  0  0  0  0  0  0  0
    9.6091  -15.3909   26.6477 N   0  0  0  0  0  0  0  0  0  0  0  0
   10.0516  -17.6031   27.3210 C   0  0  0  0  0  0  0  0  0  0  0  0
   10.7755  -18.6143   27.2363 O   0  0  0  0  0  0  0  0  0  0  0  0
    8.6823  -17.8397   27.3850 O   0  0  0  0  0  0  0  0  0  0  0  0
  2  1  1  6
  3  2  1  0
  4  5  1  0
  4  3  1  0
  6  7  1  0
  6  5  1  0
  8  2  1  0
  9  8  2  0
 11 10  1  1
 11 13  1  0
 12 11  1  0
 14 13  1  1
 14 15  1  0
 15  8  1  0
 16 23  1  0
 16 14  1  0
 17 16  2  0
 19 18  1  0
 19 20  1  0
 20 22  1  0
 20 21  1  6
 22 24  1  0
 22 23  1  6
 24 26  1  0
 25 24  2  0
M  END
$$$$
