KLI.pdb
     RDKit          3D

 26 25  0  0  1  0  0  0  0  0999 V2000
    9.5719  -16.6026   19.6696 N   0  0  0  0  0  0  0  0  0  0  0  0
    8.8797  -16.9411   20.8630 C   0  0  1  0  0  0  0  0  0  0  0  0
    9.1135  -18.3406   21.2756 C   0  0  0  0  0  0  0  0  0  0  0  0
    8.9437  -19.3504   20.1822 C   0  0  0  0  0  0  0  0  0  0  0  0
    9.2166  -20.7690   20.5402 C   0  0  0  0  0  0  0  0  0  0  0  0
    8.9874  -21.5748   19.2421 C   0  0  0  0  0  0  0  0  0  0  0  0
    9.2783  -22.9596   19.4987 N   0  0  0  0  0  0  0  0  0  0  0  0
    9.1926  -15.9818   21.9845 C   0  0  0  0  0  0  0  0  0  0  0  0
   10.2988  -15.4209   22.0739 O   0  0  0  0  0  0  0  0  0  0  0  0
    5.6498  -12.8481   25.9248 C   0  0  0  0  0  0  0  0  0  0  0  0
    7.1139  -13.1089   25.5341 C   0  0  2  0  0  0  0  0  0  0  0  0
    7.7497  -11.7823   25.3160 C   0  0  0  0  0  0  0  0  0  0  0  0
    7.0778  -14.0338   24.3745 C   0  0  0  0  0  0  0  0  0  0  0  0
    8.3624  -14.7090   24.0173 C   0  0  2  0  0  0  0  0  0  0  0  0
    8.2185  -15.6930   22.9776 N   0  0  0  0  0  0  0  0  0  0  0  0
    9.0345  -15.2054   25.2363 C   0  0  0  0  0  0  0  0  0  0  0  0
    8.3333  -15.8324   26.0660 O   0  0  0  0  0  0  0  0  0  0  0  0
   10.4016  -13.3984   30.1230 C   0  0  0  0  0  0  0  0  0  0  0  0
   10.8755  -14.4525   29.1998 C   0  0  0  0  0  0  0  0  0  0  0  0
   10.4783  -14.4041   27.7858 C   0  0  2  0  0  0  0  0  0  0  0  0
    8.9695  -14.1752   27.6804 C   0  0  0  0  0  0  0  0  0  0  0  0
   10.9426  -15.4494   26.8369 C   0  0  2  0  0  0  0  0  0  0  0  0
   10.4031  -15.0229   25.5217 N   0  0  0  0  0  0  0  0  0  0  0  0
   10.5423  -16.8163   27.0407 C   0  0  0  0  0  0  0  0  0  0  0  0
   10.1005  -17.2378   28.1274 O   0  0  0  0  0  0  0  0  0  0  0  0
   10.6287  -17.7529   26.0157 O   0  0  0  0  0  0  0  0  0  0  0  0
  2  1  1  6
  3  2  1  0
  4  5  1  0
  4  3  1  0
  6  7  1  0
  6  5  1  0
  8  2  1  0
  9  8  2  0
 11 10  1  6
 11 13  1  0
 12 11  1  0
 14 13  1  1
 14 15  1  0
 15  8  1  0
 16 23  1  0
 16 14  1  0
 17 16  2  0
 19 18  1  0
 19 20  1  0
 20 22  1  0
 20 21  1  1
 22 24  1  0
 22 23  1  6
 24 26  1  0
 25 24  2  0
M  END
$$$$
