KLI.pdb
     RDKit          3D

 26 25  0  0  1  0  0  0  0  0999 V2000
    8.7294  -16.1589   19.5914 N   0  0  0  0  0  0  0  0  0  0  0  0
    8.3219  -14.9664   20.2471 C   0  0  1  0  0  0  0  0  0  0  0  0
    7.2912  -14.2273   19.4889 C   0  0  0  0  0  0  0  0  0  0  0  0
    7.8034  -13.5047   18.2807 C   0  0  0  0  0  0  0  0  0  0  0  0
    7.3653  -14.0286   16.9583 C   0  0  0  0  0  0  0  0  0  0  0  0
    8.0590  -13.1329   15.9080 C   0  0  0  0  0  0  0  0  0  0  0  0
    7.7940  -13.6642   14.5981 N   0  0  0  0  0  0  0  0  0  0  0  0
    7.8737  -15.2299   21.6633 C   0  0  0  0  0  0  0  0  0  0  0  0
    7.3833  -14.3322   22.3704 O   0  0  0  0  0  0  0  0  0  0  0  0
    5.3191  -18.7975   23.0114 C   0  0  0  0  0  0  0  0  0  0  0  0
    6.7994  -19.1547   22.7992 C   0  0  2  0  0  0  0  0  0  0  0  0
    6.9081  -20.6350   22.8917 C   0  0  0  0  0  0  0  0  0  0  0  0
    7.5662  -18.3629   23.7925 C   0  0  0  0  0  0  0  0  0  0  0  0
    7.6234  -16.8861   23.5702 C   0  0  2  0  0  0  0  0  0  0  0  0
    8.0031  -16.5264   22.2298 N   0  0  0  0  0  0  0  0  0  0  0  0
    8.4328  -16.2418   24.6256 C   0  0  0  0  0  0  0  0  0  0  0  0
    9.6804  -16.3073   24.5154 O   0  0  0  0  0  0  0  0  0  0  0  0
    6.6507  -11.6702   26.2991 C   0  0  0  0  0  0  0  0  0  0  0  0
    7.6305  -12.7284   25.9701 C   0  0  0  0  0  0  0  0  0  0  0  0
    8.1168  -13.6166   27.0350 C   0  0  2  0  0  0  0  0  0  0  0  0
    8.9022  -12.8049   28.0665 C   0  0  0  0  0  0  0  0  0  0  0  0
    8.8060  -14.8894   26.6978 C   0  0  2  0  0  0  0  0  0  0  0  0
    7.8956  -15.5615   25.7376 N   0  0  0  0  0  0  0  0  0  0  0  0
    9.0973  -15.8334   27.7437 C   0  0  0  0  0  0  0  0  0  0  0  0
    8.2968  -16.7212   28.0969 O   0  0  0  0  0  0  0  0  0  0  0  0
   10.3100  -15.8029   28.4248 O   0  0  0  0  0  0  0  0  0  0  0  0
  2  1  1  6
  3  2  1  0
  4  5  1  0
  4  3  1  0
  6  7  1  0
  6  5  1  0
  8  2  1  0
  9  8  2  0
 11 10  1  1
 11 13  1  0
 12 11  1  0
 14 13  1  6
 14 15  1  0
 15  8  1  0
 16 23  1  0
 16 14  1  0
 17 16  2  0
 19 18  1  0
 19 20  1  0
 20 22  1  0
 20 21  1  6
 22 24  1  0
 22 23  1  6
 24 26  1  0
 25 24  2  0
M  END
$$$$
