KLI.pdb
     RDKit          3D

 26 25  0  0  1  0  0  0  0  0999 V2000
    9.0241  -15.1301   19.8521 N   0  0  0  0  0  0  0  0  0  0  0  0
    8.6147  -15.9834   20.9114 C   0  0  1  0  0  0  0  0  0  0  0  0
    9.1087  -17.3664   20.7475 C   0  0  0  0  0  0  0  0  0  0  0  0
    8.0385  -18.3877   20.5115 C   0  0  0  0  0  0  0  0  0  0  0  0
    7.7011  -18.6800   19.0917 C   0  0  0  0  0  0  0  0  0  0  0  0
    6.6286  -19.7908   19.1416 C   0  0  0  0  0  0  0  0  0  0  0  0
    6.1403  -20.0239   17.8091 N   0  0  0  0  0  0  0  0  0  0  0  0
    8.9939  -15.4247   22.2605 C   0  0  0  0  0  0  0  0  0  0  0  0
   10.1405  -15.0037   22.4937 O   0  0  0  0  0  0  0  0  0  0  0  0
    7.5343  -12.0692   25.2183 C   0  0  0  0  0  0  0  0  0  0  0  0
    6.4664  -13.1392   24.9375 C   0  0  2  0  0  0  0  0  0  0  0  0
    5.2254  -12.7103   25.6358 C   0  0  0  0  0  0  0  0  0  0  0  0
    7.0557  -14.4359   25.3535 C   0  0  0  0  0  0  0  0  0  0  0  0
    8.2930  -14.8692   24.6357 C   0  0  2  0  0  0  0  0  0  0  0  0
    8.0377  -15.3656   23.3097 N   0  0  0  0  0  0  0  0  0  0  0  0
    9.0829  -15.7837   25.4864 C   0  0  0  0  0  0  0  0  0  0  0  0
    9.4416  -16.8744   24.9815 O   0  0  0  0  0  0  0  0  0  0  0  0
   10.9349  -13.4414   29.9696 C   0  0  0  0  0  0  0  0  0  0  0  0
   11.0708  -14.2363   28.7295 C   0  0  0  0  0  0  0  0  0  0  0  0
   10.7694  -15.6742   28.7585 C   0  0  2  0  0  0  0  0  0  0  0  0
   11.8429  -16.4113   29.5610 C   0  0  0  0  0  0  0  0  0  0  0  0
   10.4271  -16.3973   27.5060 C   0  0  2  0  0  0  0  0  0  0  0  0
    9.4581  -15.5089   26.8174 N   0  0  0  0  0  0  0  0  0  0  0  0
    9.8286  -17.7033   27.5854 C   0  0  0  0  0  0  0  0  0  0  0  0
    8.6073  -17.8789   27.7627 O   0  0  0  0  0  0  0  0  0  0  0  0
   10.5970  -18.8567   27.4648 O   0  0  0  0  0  0  0  0  0  0  0  0
  2  1  1  6
  3  2  1  0
  4  5  1  0
  4  3  1  0
  6  7  1  0
  6  5  1  0
  8  2  1  0
  9  8  2  0
 11 10  1  1
 11 13  1  0
 12 11  1  0
 14 13  1  1
 14 15  1  0
 15  8  1  0
 16 23  1  0
 16 14  1  0
 17 16  2  0
 19 18  1  0
 19 20  1  0
 20 22  1  0
 20 21  1  6
 22 24  1  0
 22 23  1  1
 24 26  1  0
 25 24  2  0
M  END
$$$$
