NLF.pdb
     RDKit          3D

 28 28  0  0  1  0  0  0  0  0999 V2000
   19.4884  -10.8224  -21.7016 N   0  0  0  0  0  0  0  0  0  0  0  0
   20.7557  -10.5366  -21.1492 C   0  0  0  0  0  0  0  0  0  0  0  0
   21.7459  -10.3697  -21.9130 O   0  0  0  0  0  0  0  0  0  0  0  0
   20.8927  -10.4408  -19.6750 C   0  0  0  0  0  0  0  0  0  0  0  0
   21.9882  -11.3956  -19.1781 C   0  0  2  0  0  0  0  0  0  0  0  0
   21.4143  -12.7008  -19.0466 N   0  0  0  0  0  0  0  0  0  0  0  0
   22.4703  -10.8355  -17.8892 C   0  0  0  0  0  0  0  0  0  0  0  0
   21.7997  -10.9581  -16.8199 O   0  0  0  0  0  0  0  0  0  0  0  0
   25.7197  -11.7296  -14.8629 C   0  0  0  0  0  0  0  0  0  0  0  0
   26.3010  -10.4991  -15.4418 C   0  0  1  0  0  0  0  0  0  0  0  0
   27.7722  -10.7770  -15.7537 C   0  0  0  0  0  0  0  0  0  0  0  0
   25.6624   -9.8860  -16.6162 C   0  0  0  0  0  0  0  0  0  0  0  0
   24.2299   -9.5289  -16.6042 C   0  0  2  0  0  0  0  0  0  0  0  0
   23.6893  -10.1577  -17.8496 N   0  0  0  0  0  0  0  0  0  0  0  0
   23.8661   -8.1061  -16.6596 C   0  0  0  0  0  0  0  0  0  0  0  0
   24.0181   -7.3625  -17.6497 O   0  0  0  0  0  0  0  0  0  0  0  0
   23.2791   -7.4390  -15.5119 N   0  0  0  0  0  0  0  0  0  0  0  0
   22.8583   -6.0557  -15.5898 C   0  0  1  0  0  0  0  0  0  0  0  0
   21.8364   -5.9852  -16.7153 C   0  0  0  0  0  0  0  0  0  0  0  0
   21.2201   -4.6441  -16.8467 C   0  0  0  0  0  0  0  0  0  0  0  0
   22.0172   -3.5640  -17.1066 C   0  0  0  0  0  0  0  0  0  0  0  0
   21.4015   -2.3181  -17.2256 C   0  0  0  0  0  0  0  0  0  0  0  0
   20.0290   -2.1987  -17.0828 C   0  0  0  0  0  0  0  0  0  0  0  0
   19.2494   -3.3079  -16.8209 C   0  0  0  0  0  0  0  0  0  0  0  0
   19.8391   -4.5547  -16.6988 C   0  0  0  0  0  0  0  0  0  0  0  0
   22.3191   -5.6501  -14.2861 C   0  0  0  0  0  0  0  0  0  0  0  0
   21.8028   -6.5744  -13.3974 O   0  0  0  0  0  0  0  0  0  0  0  0
   22.3178   -4.4431  -13.9587 O   0  0  0  0  0  0  0  0  0  0  0  0
  2  1  1  0
  2  3  2  0
  4  2  1  0
  5  4  1  0
  5  6  1  1
  7  8  2  0
  7  5  1  0
 10  9  1  6
 10 12  1  0
 11 10  1  0
 13 12  1  6
 13 14  1  0
 14  7  1  0
 15 17  1  0
 15 13  1  0
 16 15  2  0
 18 17  1  0
 18 26  1  0
 18 19  1  6
 20 19  1  0
 20 25  2  0
 21 20  1  0
 22 23  1  0
 22 21  2  0
 23 24  2  0
 24 25  1  0
 26 27  1  0
 28 26  2  0
M  END
$$$$
