NLF.pdb
     RDKit          3D

 28 28  0  0  1  0  0  0  0  0999 V2000
   15.4623  -10.7202  -17.4614 N   0  0  0  0  0  0  0  0  0  0  0  0
   14.6698  -10.2735  -16.3820 C   0  0  0  0  0  0  0  0  0  0  0  0
   13.4410  -10.0504  -16.5607 O   0  0  0  0  0  0  0  0  0  0  0  0
   15.3060  -10.0746  -15.0566 C   0  0  0  0  0  0  0  0  0  0  0  0
   16.8039  -10.4057  -15.1290 C   0  0  2  0  0  0  0  0  0  0  0  0
   16.9415  -11.8287  -15.2086 N   0  0  0  0  0  0  0  0  0  0  0  0
   17.4144   -9.8262  -13.9047 C   0  0  0  0  0  0  0  0  0  0  0  0
   17.3162  -10.4005  -12.7783 O   0  0  0  0  0  0  0  0  0  0  0  0
   20.9770   -5.5703  -12.1538 C   0  0  0  0  0  0  0  0  0  0  0  0
   21.1630   -6.9876  -12.5331 C   0  0  1  0  0  0  0  0  0  0  0  0
   21.3561   -7.7955  -11.2489 C   0  0  0  0  0  0  0  0  0  0  0  0
   20.1513   -7.6454  -13.3738 C   0  0  0  0  0  0  0  0  0  0  0  0
   18.8291   -8.0112  -12.8281 C   0  0  2  0  0  0  0  0  0  0  0  0
   18.1132   -8.6215  -13.9915 N   0  0  0  0  0  0  0  0  0  0  0  0
   17.9645   -6.9376  -12.3186 C   0  0  0  0  0  0  0  0  0  0  0  0
   17.6642   -5.8989  -12.9411 O   0  0  0  0  0  0  0  0  0  0  0  0
   17.3751   -7.0167  -10.9945 N   0  0  0  0  0  0  0  0  0  0  0  0
   16.5557   -5.9399  -10.4789 C   0  0  1  0  0  0  0  0  0  0  0  0
   15.1142   -6.3176  -10.7878 C   0  0  0  0  0  0  0  0  0  0  0  0
   14.5991   -7.3866   -9.9004 C   0  0  0  0  0  0  0  0  0  0  0  0
   14.6779   -8.6896  -10.3070 C   0  0  0  0  0  0  0  0  0  0  0  0
   14.1847   -9.6684   -9.4444 C   0  0  0  0  0  0  0  0  0  0  0  0
   13.6382   -9.3139   -8.2221 C   0  0  0  0  0  0  0  0  0  0  0  0
   13.5725   -7.9891   -7.8382 C   0  0  0  0  0  0  0  0  0  0  0  0
   14.0561   -7.0006   -8.6784 C   0  0  0  0  0  0  0  0  0  0  0  0
   16.8236   -5.7859   -9.0438 C   0  0  0  0  0  0  0  0  0  0  0  0
   16.2160   -4.7943   -8.2967 O   0  0  0  0  0  0  0  0  0  0  0  0
   17.6199   -6.5611   -8.4702 O   0  0  0  0  0  0  0  0  0  0  0  0
  2  1  1  0
  2  3  2  0
  4  2  1  0
  5  4  1  0
  5  6  1  1
  7  8  2  0
  7  5  1  0
 10  9  1  1
 10 12  1  0
 11 10  1  0
 13 12  1  6
 13 14  1  0
 14  7  1  0
 15 17  1  0
 15 13  1  0
 16 15  2  0
 18 17  1  0
 18 26  1  0
 18 19  1  1
 20 19  1  0
 20 25  2  0
 21 20  1  0
 22 23  1  0
 22 21  2  0
 23 24  2  0
 24 25  1  0
 26 27  1  0
 28 26  2  0
M  END
$$$$
