NLF.pdb
     RDKit          3D

 28 28  0  0  1  0  0  0  0  0999 V2000
   18.8821  -19.3367  -13.0657 N   0  0  0  0  0  0  0  0  0  0  0  0
   20.1413  -18.7278  -12.8743 C   0  0  0  0  0  0  0  0  0  0  0  0
   20.3587  -17.5808  -13.3525 O   0  0  0  0  0  0  0  0  0  0  0  0
   21.1845  -19.4573  -12.1124 C   0  0  0  0  0  0  0  0  0  0  0  0
   22.2659  -19.9896  -13.0642 C   0  0  2  0  0  0  0  0  0  0  0  0
   21.6145  -20.6863  -14.1321 N   0  0  0  0  0  0  0  0  0  0  0  0
   23.1435  -20.8640  -12.2442 C   0  0  0  0  0  0  0  0  0  0  0  0
   22.7613  -22.0077  -11.8520 O   0  0  0  0  0  0  0  0  0  0  0  0
   27.4495  -19.5864  -12.8741 C   0  0  0  0  0  0  0  0  0  0  0  0
   26.8123  -20.8660  -13.2534 C   0  0  1  0  0  0  0  0  0  0  0  0
   27.7902  -21.6303  -14.1470 C   0  0  0  0  0  0  0  0  0  0  0  0
   26.3156  -21.7622  -12.1984 C   0  0  0  0  0  0  0  0  0  0  0  0
   25.4001  -21.2699  -11.1499 C   0  0  2  0  0  0  0  0  0  0  0  0
   24.4195  -20.4202  -11.8948 N   0  0  0  0  0  0  0  0  0  0  0  0
   25.9549  -20.4306  -10.0786 C   0  0  0  0  0  0  0  0  0  0  0  0
   26.0378  -19.1862  -10.1092 O   0  0  0  0  0  0  0  0  0  0  0  0
   26.4690  -21.0209   -8.8562 N   0  0  0  0  0  0  0  0  0  0  0  0
   27.3531  -20.2760   -7.9844 C   0  0  1  0  0  0  0  0  0  0  0  0
   26.7438  -20.3564   -6.5922 C   0  0  0  0  0  0  0  0  0  0  0  0
   27.6396  -19.8164   -5.5426 C   0  0  0  0  0  0  0  0  0  0  0  0
   28.3694  -20.6816   -4.7757 C   0  0  0  0  0  0  0  0  0  0  0  0
   29.2030  -20.1367   -3.7992 C   0  0  0  0  0  0  0  0  0  0  0  0
   29.2762  -18.7643   -3.6272 C   0  0  0  0  0  0  0  0  0  0  0  0
   28.5272  -17.9149   -4.4173 C   0  0  0  0  0  0  0  0  0  0  0  0
   27.6929  -18.4337   -5.3930 C   0  0  0  0  0  0  0  0  0  0  0  0
   28.6991  -20.8562   -8.0664 C   0  0  0  0  0  0  0  0  0  0  0  0
   29.8164  -20.1527   -7.6573 O   0  0  0  0  0  0  0  0  0  0  0  0
   28.8546  -22.0124   -8.5171 O   0  0  0  0  0  0  0  0  0  0  0  0
  2  1  1  0
  2  3  2  0
  4  2  1  0
  5  4  1  0
  5  6  1  6
  7  8  2  0
  7  5  1  0
 10  9  1  1
 10 12  1  0
 11 10  1  0
 13 12  1  6
 13 14  1  0
 14  7  1  0
 15 17  1  0
 15 13  1  0
 16 15  2  0
 18 17  1  0
 18 26  1  0
 18 19  1  1
 20 19  1  0
 20 25  2  0
 21 20  1  0
 22 23  1  0
 22 21  2  0
 23 24  2  0
 24 25  1  0
 26 27  1  0
 28 26  2  0
M  END
$$$$
