NLF.pdb
     RDKit          3D

 28 28  0  0  1  0  0  0  0  0999 V2000
   30.1723  -23.6112  -17.9069 N   0  0  0  0  0  0  0  0  0  0  0  0
   30.1034  -22.2434  -18.2492 C   0  0  0  0  0  0  0  0  0  0  0  0
   30.6113  -21.8453  -19.3333 O   0  0  0  0  0  0  0  0  0  0  0  0
   29.4329  -21.3021  -17.3189 C   0  0  0  0  0  0  0  0  0  0  0  0
   29.1557  -21.9887  -15.9735 C   0  0  2  0  0  0  0  0  0  0  0  0
   28.2144  -23.0439  -16.1984 N   0  0  0  0  0  0  0  0  0  0  0  0
   28.6419  -20.9292  -15.0675 C   0  0  0  0  0  0  0  0  0  0  0  0
   29.3659  -19.9503  -14.7131 O   0  0  0  0  0  0  0  0  0  0  0  0
   25.7711  -17.4637  -16.6165 C   0  0  0  0  0  0  0  0  0  0  0  0
   26.5801  -18.1772  -15.6048 C   0  0  1  0  0  0  0  0  0  0  0  0
   27.3159  -17.1293  -14.7684 C   0  0  0  0  0  0  0  0  0  0  0  0
   25.9235  -19.1409  -14.7086 C   0  0  0  0  0  0  0  0  0  0  0  0
   26.7069  -19.9438  -13.7487 C   0  0  2  0  0  0  0  0  0  0  0  0
   27.3322  -21.0092  -14.5928 N   0  0  0  0  0  0  0  0  0  0  0  0
   25.9888  -20.6320  -12.6668 C   0  0  0  0  0  0  0  0  0  0  0  0
   25.4411  -21.7489  -12.7633 O   0  0  0  0  0  0  0  0  0  0  0  0
   25.8614  -20.0300  -11.3523 N   0  0  0  0  0  0  0  0  0  0  0  0
   25.0562  -20.6533  -10.3228 C   0  0  1  0  0  0  0  0  0  0  0  0
   25.4564  -19.9922   -9.0119 C   0  0  0  0  0  0  0  0  0  0  0  0
   26.8554  -20.2887   -8.6241 C   0  0  0  0  0  0  0  0  0  0  0  0
   27.4488  -21.4320   -9.0825 C   0  0  0  0  0  0  0  0  0  0  0  0
   28.7672  -21.6765   -8.6984 C   0  0  0  0  0  0  0  0  0  0  0  0
   29.4361  -20.7806   -7.8808 C   0  0  0  0  0  0  0  0  0  0  0  0
   28.8107  -19.6336   -7.4336 C   0  0  0  0  0  0  0  0  0  0  0  0
   27.5024  -19.3704   -7.8024 C   0  0  0  0  0  0  0  0  0  0  0  0
   23.6380  -20.4747  -10.6572 C   0  0  0  0  0  0  0  0  0  0  0  0
   23.2429  -19.8076  -11.8015 O   0  0  0  0  0  0  0  0  0  0  0  0
   22.7550  -20.9292   -9.8972 O   0  0  0  0  0  0  0  0  0  0  0  0
  2  1  1  0
  2  3  2  0
  4  2  1  0
  5  4  1  0
  5  6  1  6
  7  8  2  0
  7  5  1  0
 10  9  1  1
 10 12  1  0
 11 10  1  0
 13 12  1  6
 13 14  1  0
 14  7  1  0
 15 17  1  0
 15 13  1  0
 16 15  2  0
 18 17  1  0
 18 26  1  0
 18 19  1  1
 20 19  1  0
 20 25  2  0
 21 20  1  0
 22 23  1  0
 22 21  2  0
 23 24  2  0
 24 25  1  0
 26 27  1  0
 28 26  2  0
M  END
$$$$
