NLF.pdb
     RDKit          3D

 28 28  0  0  1  0  0  0  0  0999 V2000
   23.6451  -13.0086  -20.6324 N   0  0  0  0  0  0  0  0  0  0  0  0
   22.6366  -12.6464  -19.7135 C   0  0  0  0  0  0  0  0  0  0  0  0
   21.4566  -13.0573  -19.8883 O   0  0  0  0  0  0  0  0  0  0  0  0
   22.9912  -11.7849  -18.5589 C   0  0  0  0  0  0  0  0  0  0  0  0
   24.4487  -11.3144  -18.6724 C   0  0  2  0  0  0  0  0  0  0  0  0
   25.2918  -12.3503  -18.1564 N   0  0  0  0  0  0  0  0  0  0  0  0
   24.5355  -10.0491  -17.8986 C   0  0  0  0  0  0  0  0  0  0  0  0
   24.7776  -10.0476  -16.6538 O   0  0  0  0  0  0  0  0  0  0  0  0
   25.5477   -4.2351  -19.6270 C   0  0  0  0  0  0  0  0  0  0  0  0
   25.1576   -5.1666  -18.5465 C   0  0  1  0  0  0  0  0  0  0  0  0
   23.9502   -4.5674  -17.8237 C   0  0  0  0  0  0  0  0  0  0  0  0
   24.8787   -6.5726  -18.8754 C   0  0  0  0  0  0  0  0  0  0  0  0
   24.3924   -7.5131  -17.8464 C   0  0  2  0  0  0  0  0  0  0  0  0
   24.3466   -8.8312  -18.5529 N   0  0  0  0  0  0  0  0  0  0  0  0
   23.0549   -7.2938  -17.2785 C   0  0  0  0  0  0  0  0  0  0  0  0
   21.9778   -7.5044  -17.8718 O   0  0  0  0  0  0  0  0  0  0  0  0
   22.8893   -6.7928  -15.9263 N   0  0  0  0  0  0  0  0  0  0  0  0
   21.5946   -6.8131  -15.2782 C   0  0  1  0  0  0  0  0  0  0  0  0
   21.4028   -8.2299  -14.7567 C   0  0  0  0  0  0  0  0  0  0  0  0
   20.1184   -8.4075  -14.0394 C   0  0  0  0  0  0  0  0  0  0  0  0
   18.9497   -8.4044  -14.7490 C   0  0  0  0  0  0  0  0  0  0  0  0
   17.7609   -8.5763  -14.0400 C   0  0  0  0  0  0  0  0  0  0  0  0
   17.7832   -8.7435  -12.6653 C   0  0  0  0  0  0  0  0  0  0  0  0
   18.9794   -8.7427  -11.9754 C   0  0  0  0  0  0  0  0  0  0  0  0
   20.1718   -8.5738  -12.6586 C   0  0  0  0  0  0  0  0  0  0  0  0
   21.5778   -5.7951  -14.2207 C   0  0  0  0  0  0  0  0  0  0  0  0
   20.4122   -5.1455  -13.8603 O   0  0  0  0  0  0  0  0  0  0  0  0
   22.6356   -5.4961  -13.6246 O   0  0  0  0  0  0  0  0  0  0  0  0
  2  1  1  0
  2  3  2  0
  4  2  1  0
  5  4  1  0
  5  6  1  1
  7  8  2  0
  7  5  1  0
 10  9  1  6
 10 12  1  0
 11 10  1  0
 13 12  1  6
 13 14  1  0
 14  7  1  0
 15 17  1  0
 15 13  1  0
 16 15  2  0
 18 17  1  0
 18 26  1  0
 18 19  1  1
 20 19  1  0
 20 25  2  0
 21 20  1  0
 22 23  1  0
 22 21  2  0
 23 24  2  0
 24 25  1  0
 26 27  1  0
 28 26  2  0
M  END
$$$$
