NLF.pdb
     RDKit          3D

 28 28  0  0  1  0  0  0  0  0999 V2000
   34.2725  -40.2471   -7.4509 N   0  0  0  0  0  0  0  0  0  0  0  0
   32.9937  -39.7231   -7.1631 C   0  0  0  0  0  0  0  0  0  0  0  0
   31.9641  -40.3619   -7.5148 O   0  0  0  0  0  0  0  0  0  0  0  0
   32.8917  -38.4253   -6.4515 C   0  0  0  0  0  0  0  0  0  0  0  0
   31.4200  -38.0799   -6.1804 C   0  0  2  0  0  0  0  0  0  0  0  0
   30.7874  -37.8124   -7.4368 N   0  0  0  0  0  0  0  0  0  0  0  0
   31.4325  -36.9062   -5.2696 C   0  0  0  0  0  0  0  0  0  0  0  0
   31.9428  -36.9708   -4.1106 O   0  0  0  0  0  0  0  0  0  0  0  0
   33.5113  -32.7322   -7.1497 C   0  0  0  0  0  0  0  0  0  0  0  0
   32.9036  -33.7136   -6.2252 C   0  0  1  0  0  0  0  0  0  0  0  0
   33.8736  -33.9251   -5.0618 C   0  0  0  0  0  0  0  0  0  0  0  0
   31.5554  -33.4619   -5.6943 C   0  0  0  0  0  0  0  0  0  0  0  0
   30.8681  -34.4640   -4.8557 C   0  0  2  0  0  0  0  0  0  0  0  0
   30.8703  -35.7022   -5.6955 N   0  0  0  0  0  0  0  0  0  0  0  0
   29.4700  -34.2149   -4.4775 C   0  0  0  0  0  0  0  0  0  0  0  0
   29.0555  -33.2002   -3.8815 O   0  0  0  0  0  0  0  0  0  0  0  0
   28.4288  -35.1782   -4.7854 N   0  0  0  0  0  0  0  0  0  0  0  0
   27.0494  -34.9237   -4.4263 C   0  0  1  0  0  0  0  0  0  0  0  0
   26.2404  -35.0873   -5.7049 C   0  0  0  0  0  0  0  0  0  0  0  0
   26.3817  -33.9336   -6.6240 C   0  0  0  0  0  0  0  0  0  0  0  0
   25.6695  -32.7923   -6.3796 C   0  0  0  0  0  0  0  0  0  0  0  0
   25.8296  -31.7266   -7.2650 C   0  0  0  0  0  0  0  0  0  0  0  0
   26.6852  -31.8388   -8.3485 C   0  0  0  0  0  0  0  0  0  0  0  0
   27.3920  -33.0042   -8.5695 C   0  0  0  0  0  0  0  0  0  0  0  0
   27.2487  -34.0750   -7.7034 C   0  0  0  0  0  0  0  0  0  0  0  0
   26.6562  -35.8573   -3.3638 C   0  0  0  0  0  0  0  0  0  0  0  0
   25.3884  -35.8347   -2.8135 O   0  0  0  0  0  0  0  0  0  0  0  0
   27.4775  -36.6969   -2.9345 O   0  0  0  0  0  0  0  0  0  0  0  0
  2  1  1  0
  2  3  2  0
  4  2  1  0
  5  4  1  0
  5  6  1  6
  7  8  2  0
  7  5  1  0
 10  9  1  1
 10 12  1  0
 11 10  1  0
 13 12  1  6
 13 14  1  0
 14  7  1  0
 15 17  1  0
 15 13  1  0
 16 15  2  0
 18 17  1  0
 18 26  1  0
 18 19  1  6
 20 19  1  0
 20 25  2  0
 21 20  1  0
 22 23  1  0
 22 21  2  0
 23 24  2  0
 24 25  1  0
 26 27  1  0
 28 26  2  0
M  END
$$$$
