NLF.pdb
     RDKit          3D

 28 28  0  0  1  0  0  0  0  0999 V2000
   23.1607  -11.9933  -18.2822 N   0  0  0  0  0  0  0  0  0  0  0  0
   22.0186  -12.2050  -17.4799 C   0  0  0  0  0  0  0  0  0  0  0  0
   21.1528  -13.0501  -17.8378 O   0  0  0  0  0  0  0  0  0  0  0  0
   21.8630  -11.4223  -16.2292 C   0  0  0  0  0  0  0  0  0  0  0  0
   23.0130  -10.4148  -16.0841 C   0  0  2  0  0  0  0  0  0  0  0  0
   24.0400  -11.0233  -15.2933 N   0  0  0  0  0  0  0  0  0  0  0  0
   22.4254   -9.2061  -15.4508 C   0  0  0  0  0  0  0  0  0  0  0  0
   22.0857   -9.1953  -14.2291 O   0  0  0  0  0  0  0  0  0  0  0  0
   22.4911   -3.8354  -14.5064 C   0  0  0  0  0  0  0  0  0  0  0  0
   22.6050   -4.3332  -15.8943 C   0  0  1  0  0  0  0  0  0  0  0  0
   23.7419   -3.5693  -16.5748 C   0  0  0  0  0  0  0  0  0  0  0  0
   22.7789   -5.7745  -16.1291 C   0  0  0  0  0  0  0  0  0  0  0  0
   21.7925   -6.7520  -15.6278 C   0  0  2  0  0  0  0  0  0  0  0  0
   22.2411   -8.0531  -16.2148 N   0  0  0  0  0  0  0  0  0  0  0  0
   20.3845   -6.5805  -16.0123 C   0  0  0  0  0  0  0  0  0  0  0  0
   19.9401   -6.6688  -17.1748 O   0  0  0  0  0  0  0  0  0  0  0  0
   19.3689   -6.2816  -15.0193 N   0  0  0  0  0  0  0  0  0  0  0  0
   17.9938   -6.0477  -15.4079 C   0  0  1  0  0  0  0  0  0  0  0  0
   17.1636   -7.0994  -14.6864 C   0  0  0  0  0  0  0  0  0  0  0  0
   17.0800   -8.3757  -15.4345 C   0  0  0  0  0  0  0  0  0  0  0  0
   16.2131   -8.4790  -16.4867 C   0  0  0  0  0  0  0  0  0  0  0  0
   16.1633   -9.6950  -17.1682 C   0  0  0  0  0  0  0  0  0  0  0  0
   16.9719  -10.7499  -16.7785 C   0  0  0  0  0  0  0  0  0  0  0  0
   17.8384  -10.6158  -15.7117 C   0  0  0  0  0  0  0  0  0  0  0  0
   17.9045   -9.4178  -15.0206 C   0  0  0  0  0  0  0  0  0  0  0  0
   17.6284   -4.6711  -15.0521 C   0  0  0  0  0  0  0  0  0  0  0  0
   16.3642   -4.1708  -15.3013 O   0  0  0  0  0  0  0  0  0  0  0  0
   18.4708   -3.9208  -14.5124 O   0  0  0  0  0  0  0  0  0  0  0  0
  2  1  1  0
  2  3  2  0
  4  2  1  0
  5  4  1  0
  5  6  1  1
  7  8  2  0
  7  5  1  0
 10  9  1  1
 10 12  1  0
 11 10  1  0
 13 12  1  6
 13 14  1  0
 14  7  1  0
 15 17  1  0
 15 13  1  0
 16 15  2  0
 18 17  1  0
 18 26  1  0
 18 19  1  1
 20 19  1  0
 20 25  2  0
 21 20  1  0
 22 23  1  0
 22 21  2  0
 23 24  2  0
 24 25  1  0
 26 27  1  0
 28 26  2  0
M  END
$$$$
