NLF.pdb
     RDKit          3D

 28 28  0  0  1  0  0  0  0  0999 V2000
   28.0286  -20.0385  -16.2930 N   0  0  0  0  0  0  0  0  0  0  0  0
   27.3471  -18.8968  -15.8189 C   0  0  0  0  0  0  0  0  0  0  0  0
   26.9209  -18.0389  -16.6399 O   0  0  0  0  0  0  0  0  0  0  0  0
   27.1495  -18.7322  -14.3577 C   0  0  0  0  0  0  0  0  0  0  0  0
   27.7975  -19.8985  -13.5972 C   0  0  2  0  0  0  0  0  0  0  0  0
   28.4567  -20.7393  -14.5505 N   0  0  0  0  0  0  0  0  0  0  0  0
   26.6946  -20.5844  -12.8758 C   0  0  0  0  0  0  0  0  0  0  0  0
   26.0989  -21.5874  -13.3729 O   0  0  0  0  0  0  0  0  0  0  0  0
   27.0878  -20.1543   -7.4461 C   0  0  0  0  0  0  0  0  0  0  0  0
   26.8248  -20.6070   -8.8292 C   0  0  1  0  0  0  0  0  0  0  0  0
   27.1334  -22.1033   -8.8998 C   0  0  0  0  0  0  0  0  0  0  0  0
   25.5066  -20.3536   -9.4301 C   0  0  0  0  0  0  0  0  0  0  0  0
   25.2128  -20.7578  -10.8194 C   0  0  2  0  0  0  0  0  0  0  0  0
   26.3014  -20.1170  -11.6211 N   0  0  0  0  0  0  0  0  0  0  0  0
   23.9412  -20.3261  -11.4164 C   0  0  0  0  0  0  0  0  0  0  0  0
   23.3986  -19.2182  -11.2308 O   0  0  0  0  0  0  0  0  0  0  0  0
   23.1957  -21.2012  -12.3026 N   0  0  0  0  0  0  0  0  0  0  0  0
   21.9593  -20.7622  -12.9153 C   0  0  1  0  0  0  0  0  0  0  0  0
   22.3253  -19.5964  -13.8225 C   0  0  0  0  0  0  0  0  0  0  0  0
   22.7947  -20.0348  -15.1578 C   0  0  0  0  0  0  0  0  0  0  0  0
   24.1121  -19.8783  -15.4886 C   0  0  0  0  0  0  0  0  0  0  0  0
   24.5176  -20.3045  -16.7532 C   0  0  0  0  0  0  0  0  0  0  0  0
   23.6033  -20.8648  -17.6300 C   0  0  0  0  0  0  0  0  0  0  0  0
   22.2788  -21.0105  -17.2677 C   0  0  0  0  0  0  0  0  0  0  0  0
   21.8539  -20.5946  -16.0173 C   0  0  0  0  0  0  0  0  0  0  0  0
   21.3581  -21.8931  -13.6325 C   0  0  0  0  0  0  0  0  0  0  0  0
   22.0482  -23.0744  -13.8293 O   0  0  0  0  0  0  0  0  0  0  0  0
   20.1956  -21.7995  -14.0840 O   0  0  0  0  0  0  0  0  0  0  0  0
  2  1  1  0
  2  3  2  0
  4  2  1  0
  5  4  1  0
  5  6  1  6
  7  8  2  0
  7  5  1  0
 10  9  1  1
 10 12  1  0
 11 10  1  0
 13 12  1  1
 13 14  1  0
 14  7  1  0
 15 17  1  0
 15 13  1  0
 16 15  2  0
 18 17  1  0
 18 26  1  0
 18 19  1  6
 20 19  1  0
 20 25  2  0
 21 20  1  0
 22 23  1  0
 22 21  2  0
 23 24  2  0
 24 25  1  0
 26 27  1  0
 28 26  2  0
M  END
$$$$
