NLF.pdb
     RDKit          3D

 28 28  0  0  1  0  0  0  0  0999 V2000
   20.3735  -19.6313  -16.7037 N   0  0  0  0  0  0  0  0  0  0  0  0
   20.2833  -20.4585  -15.5633 C   0  0  0  0  0  0  0  0  0  0  0  0
   19.1602  -20.6571  -15.0239 O   0  0  0  0  0  0  0  0  0  0  0  0
   21.5194  -21.0760  -15.0231 C   0  0  0  0  0  0  0  0  0  0  0  0
   22.7228  -20.7240  -15.9099 C   0  0  2  0  0  0  0  0  0  0  0  0
   22.7115  -21.5996  -17.0428 N   0  0  0  0  0  0  0  0  0  0  0  0
   23.9271  -20.8879  -15.0554 C   0  0  0  0  0  0  0  0  0  0  0  0
   24.3904  -22.0343  -14.7739 O   0  0  0  0  0  0  0  0  0  0  0  0
   27.8009  -16.9588  -15.4395 C   0  0  0  0  0  0  0  0  0  0  0  0
   27.1629  -18.2753  -15.2226 C   0  0  1  0  0  0  0  0  0  0  0  0
   28.2199  -19.3542  -15.4628 C   0  0  0  0  0  0  0  0  0  0  0  0
   26.4779  -18.5410  -13.9486 C   0  0  0  0  0  0  0  0  0  0  0  0
   25.7993  -19.8291  -13.7032 C   0  0  2  0  0  0  0  0  0  0  0  0
   24.5669  -19.7562  -14.5483 N   0  0  0  0  0  0  0  0  0  0  0  0
   25.3542  -20.1327  -12.3359 C   0  0  0  0  0  0  0  0  0  0  0  0
   24.2751  -19.7618  -11.8315 O   0  0  0  0  0  0  0  0  0  0  0  0
   26.1792  -20.9202  -11.4382 N   0  0  0  0  0  0  0  0  0  0  0  0
   25.7779  -21.1480  -10.0657 C   0  0  1  0  0  0  0  0  0  0  0  0
   26.9498  -21.8458   -9.3906 C   0  0  0  0  0  0  0  0  0  0  0  0
   27.6481  -20.9777   -8.4136 C   0  0  0  0  0  0  0  0  0  0  0  0
   26.9320  -20.3935   -7.4061 C   0  0  0  0  0  0  0  0  0  0  0  0
   27.6236  -19.5848   -6.5044 C   0  0  0  0  0  0  0  0  0  0  0  0
   28.9885  -19.3922   -6.6406 C   0  0  0  0  0  0  0  0  0  0  0  0
   29.6854  -19.9959   -7.6685 C   0  0  0  0  0  0  0  0  0  0  0  0
   29.0194  -20.8030   -8.5752 C   0  0  0  0  0  0  0  0  0  0  0  0
   25.4344  -19.8594   -9.4522 C   0  0  0  0  0  0  0  0  0  0  0  0
   24.4341  -19.7531   -8.5042 O   0  0  0  0  0  0  0  0  0  0  0  0
   26.0509  -18.8241   -9.7867 O   0  0  0  0  0  0  0  0  0  0  0  0
  2  1  1  0
  2  3  2  0
  4  2  1  0
  5  4  1  0
  5  6  1  6
  7  8  2  0
  7  5  1  0
 10  9  1  1
 10 12  1  0
 11 10  1  0
 13 12  1  1
 13 14  1  0
 14  7  1  0
 15 17  1  0
 15 13  1  0
 16 15  2  0
 18 17  1  0
 18 26  1  0
 18 19  1  1
 20 19  1  0
 20 25  2  0
 21 20  1  0
 22 23  1  0
 22 21  2  0
 23 24  2  0
 24 25  1  0
 26 27  1  0
 28 26  2  0
M  END
$$$$
