NLF.pdb
     RDKit          3D

 28 28  0  0  1  0  0  0  0  0999 V2000
   26.3156  -32.0686   -9.0824 N   0  0  0  0  0  0  0  0  0  0  0  0
   26.9675  -33.3172   -8.9875 C   0  0  0  0  0  0  0  0  0  0  0  0
   27.3367  -33.9096  -10.0384 O   0  0  0  0  0  0  0  0  0  0  0  0
   27.2019  -33.9060   -7.6461 C   0  0  0  0  0  0  0  0  0  0  0  0
   28.0765  -35.1631   -7.7609 C   0  0  2  0  0  0  0  0  0  0  0  0
   27.2552  -36.2340   -8.2393 N   0  0  0  0  0  0  0  0  0  0  0  0
   28.6264  -35.4088   -6.4028 C   0  0  0  0  0  0  0  0  0  0  0  0
   28.0102  -36.1246   -5.5566 O   0  0  0  0  0  0  0  0  0  0  0  0
   34.2082  -35.3150   -6.0881 C   0  0  0  0  0  0  0  0  0  0  0  0
   32.8153  -35.7163   -5.7944 C   0  0  1  0  0  0  0  0  0  0  0  0
   32.8553  -37.0846   -5.1123 C   0  0  0  0  0  0  0  0  0  0  0  0
   31.9549  -34.8110   -5.0180 C   0  0  0  0  0  0  0  0  0  0  0  0
   30.5411  -35.1445   -4.7539 C   0  0  2  0  0  0  0  0  0  0  0  0
   29.8497  -34.8404   -6.0454 N   0  0  0  0  0  0  0  0  0  0  0  0
   29.8312  -34.3924   -3.7098 C   0  0  0  0  0  0  0  0  0  0  0  0
   30.1613  -33.2676   -3.2828 O   0  0  0  0  0  0  0  0  0  0  0  0
   28.6436  -34.9336   -3.0745 N   0  0  0  0  0  0  0  0  0  0  0  0
   27.9209  -34.1729   -2.0766 C   0  0  1  0  0  0  0  0  0  0  0  0
   27.5360  -32.8588   -2.7406 C   0  0  0  0  0  0  0  0  0  0  0  0
   26.1725  -32.8872   -3.3199 C   0  0  0  0  0  0  0  0  0  0  0  0
   26.0227  -33.0244   -4.6720 C   0  0  0  0  0  0  0  0  0  0  0  0
   24.7242  -33.0491   -5.1807 C   0  0  0  0  0  0  0  0  0  0  0  0
   23.6366  -32.9377   -4.3304 C   0  0  0  0  0  0  0  0  0  0  0  0
   23.8191  -32.8007   -2.9685 C   0  0  0  0  0  0  0  0  0  0  0  0
   25.0991  -32.7737   -2.4413 C   0  0  0  0  0  0  0  0  0  0  0  0
   26.7659  -34.9590   -1.6260 C   0  0  0  0  0  0  0  0  0  0  0  0
   26.0184  -34.5815   -0.5264 O   0  0  0  0  0  0  0  0  0  0  0  0
   26.4400  -35.9986   -2.2401 O   0  0  0  0  0  0  0  0  0  0  0  0
  2  1  1  0
  2  3  2  0
  4  2  1  0
  5  4  1  0
  5  6  1  1
  7  8  2  0
  7  5  1  0
 10  9  1  1
 10 12  1  0
 11 10  1  0
 13 12  1  6
 13 14  1  0
 14  7  1  0
 15 17  1  0
 15 13  1  0
 16 15  2  0
 18 17  1  0
 18 26  1  0
 18 19  1  6
 20 19  1  0
 20 25  2  0
 21 20  1  0
 22 23  1  0
 22 21  2  0
 23 24  2  0
 24 25  1  0
 26 27  1  0
 28 26  2  0
M  END
$$$$
