NLF.pdb
     RDKit          3D

 28 28  0  0  1  0  0  0  0  0999 V2000
   26.7442  -26.2592  -19.0738 N   0  0  0  0  0  0  0  0  0  0  0  0
   26.0717  -26.5850  -17.8761 C   0  0  0  0  0  0  0  0  0  0  0  0
   25.3399  -27.6116  -17.8310 O   0  0  0  0  0  0  0  0  0  0  0  0
   26.2421  -25.7054  -16.6935 C   0  0  0  0  0  0  0  0  0  0  0  0
   27.2798  -24.6120  -16.9871 C   0  0  2  0  0  0  0  0  0  0  0  0
   28.5823  -25.1650  -16.7683 N   0  0  0  0  0  0  0  0  0  0  0  0
   26.9614  -23.4847  -16.0734 C   0  0  0  0  0  0  0  0  0  0  0  0
   27.2592  -23.5243  -14.8414 O   0  0  0  0  0  0  0  0  0  0  0  0
   28.3094  -18.4735  -17.5384 C   0  0  0  0  0  0  0  0  0  0  0  0
   27.9042  -19.5662  -16.6278 C   0  0  1  0  0  0  0  0  0  0  0  0
   28.3086  -19.1676  -15.2077 C   0  0  0  0  0  0  0  0  0  0  0  0
   26.5048  -20.0185  -16.6258 C   0  0  0  0  0  0  0  0  0  0  0  0
   26.0647  -21.1287  -15.7576 C   0  0  2  0  0  0  0  0  0  0  0  0
   26.3193  -22.3534  -16.5784 N   0  0  0  0  0  0  0  0  0  0  0  0
   24.6527  -21.1794  -15.3535 C   0  0  0  0  0  0  0  0  0  0  0  0
   23.7096  -21.5547  -16.0790 O   0  0  0  0  0  0  0  0  0  0  0  0
   24.2410  -20.7762  -14.0213 N   0  0  0  0  0  0  0  0  0  0  0  0
   22.8395  -20.7107  -13.6632 C   0  0  1  0  0  0  0  0  0  0  0  0
   22.7785  -20.8828  -12.1524 C   0  0  0  0  0  0  0  0  0  0  0  0
   21.4336  -20.6019  -11.5975 C   0  0  0  0  0  0  0  0  0  0  0  0
   20.4843  -21.5858  -11.6133 C   0  0  0  0  0  0  0  0  0  0  0  0
   19.2309  -21.2854  -11.0805 C   0  0  0  0  0  0  0  0  0  0  0  0
   18.9751  -20.0286  -10.5574 C   0  0  0  0  0  0  0  0  0  0  0  0
   19.9541  -19.0548  -10.5548 C   0  0  0  0  0  0  0  0  0  0  0  0
   21.2058  -19.3308  -11.0784 C   0  0  0  0  0  0  0  0  0  0  0  0
   22.2911  -19.4304  -14.1271 C   0  0  0  0  0  0  0  0  0  0  0  0
   20.9734  -19.3100  -14.5267 O   0  0  0  0  0  0  0  0  0  0  0  0
   23.0219  -18.4165  -14.1694 O   0  0  0  0  0  0  0  0  0  0  0  0
  2  1  1  0
  2  3  2  0
  4  2  1  0
  5  4  1  0
  5  6  1  1
  7  8  2  0
  7  5  1  0
 10  9  1  6
 10 12  1  0
 11 10  1  0
 13 12  1  6
 13 14  1  0
 14  7  1  0
 15 17  1  0
 15 13  1  0
 16 15  2  0
 18 17  1  0
 18 26  1  0
 18 19  1  1
 20 19  1  0
 20 25  2  0
 21 20  1  0
 22 23  1  0
 22 21  2  0
 23 24  2  0
 24 25  1  0
 26 27  1  0
 28 26  2  0
M  END
$$$$
