NLF.pdb
     RDKit          3D

 28 28  0  0  1  0  0  0  0  0999 V2000
   19.8604  -17.3975  -13.0509 N   0  0  0  0  0  0  0  0  0  0  0  0
   20.4881  -18.4091  -13.8095 C   0  0  0  0  0  0  0  0  0  0  0  0
   20.2049  -18.5385  -15.0322 O   0  0  0  0  0  0  0  0  0  0  0  0
   21.4698  -19.3016  -13.1455 C   0  0  0  0  0  0  0  0  0  0  0  0
   22.8739  -19.0743  -13.7245 C   0  0  2  0  0  0  0  0  0  0  0  0
   22.8345  -19.3855  -15.1216 N   0  0  0  0  0  0  0  0  0  0  0  0
   23.7863  -19.9578  -12.9536 C   0  0  0  0  0  0  0  0  0  0  0  0
   23.4504  -21.1362  -12.6273 O   0  0  0  0  0  0  0  0  0  0  0  0
   28.5962  -22.2764  -12.0991 C   0  0  0  0  0  0  0  0  0  0  0  0
   28.5342  -20.7996  -12.1515 C   0  0  1  0  0  0  0  0  0  0  0  0
   29.6929  -20.3121  -13.0227 C   0  0  0  0  0  0  0  0  0  0  0  0
   27.2903  -20.1474  -12.5876 C   0  0  0  0  0  0  0  0  0  0  0  0
   26.0355  -20.3161  -11.8280 C   0  0  2  0  0  0  0  0  0  0  0  0
   25.0436  -19.4837  -12.5774 N   0  0  0  0  0  0  0  0  0  0  0  0
   25.9993  -19.8581  -10.4320 C   0  0  0  0  0  0  0  0  0  0  0  0
   26.2466  -18.6968  -10.0491 O   0  0  0  0  0  0  0  0  0  0  0  0
   25.6586  -20.7690   -9.3545 N   0  0  0  0  0  0  0  0  0  0  0  0
   26.4343  -20.7995   -8.1322 C   0  0  1  0  0  0  0  0  0  0  0  0
   26.4536  -19.3718   -7.6056 C   0  0  0  0  0  0  0  0  0  0  0  0
   27.2835  -19.2216   -6.3872 C   0  0  0  0  0  0  0  0  0  0  0  0
   28.4586  -18.5265   -6.4594 C   0  0  0  0  0  0  0  0  0  0  0  0
   29.2118  -18.4042   -5.2919 C   0  0  0  0  0  0  0  0  0  0  0  0
   28.7686  -18.9736   -4.1096 C   0  0  0  0  0  0  0  0  0  0  0  0
   27.5769  -19.6699   -4.0671 C   0  0  0  0  0  0  0  0  0  0  0  0
   26.8127  -19.8038   -5.2139 C   0  0  0  0  0  0  0  0  0  0  0  0
   25.8186  -21.7554   -7.2038 C   0  0  0  0  0  0  0  0  0  0  0  0
   26.5799  -22.5060   -6.3277 O   0  0  0  0  0  0  0  0  0  0  0  0
   24.5773  -21.9069   -7.1953 O   0  0  0  0  0  0  0  0  0  0  0  0
  2  1  1  0
  2  3  2  0
  4  2  1  0
  5  4  1  0
  5  6  1  6
  7  8  2  0
  7  5  1  0
 10  9  1  6
 10 12  1  0
 11 10  1  0
 13 12  1  6
 13 14  1  0
 14  7  1  0
 15 17  1  0
 15 13  1  0
 16 15  2  0
 18 17  1  0
 18 26  1  0
 18 19  1  1
 20 19  1  0
 20 25  2  0
 21 20  1  0
 22 23  1  0
 22 21  2  0
 23 24  2  0
 24 25  1  0
 26 27  1  0
 28 26  2  0
M  END
$$$$
