PLC.pdb
     RDKit          3D

 22 22  0  0  1  0  0  0  0  0999 V2000
   17.5856  -11.4530  -13.5297 N   0  0  0  0  0  0  0  0  0  0  0  0
   17.6565  -12.7680  -14.1274 C   0  0  0  0  0  0  0  0  0  0  0  0
   16.6883  -12.8050  -15.2668 C   0  0  0  0  0  0  0  0  0  0  0  0
   15.9575  -11.4832  -15.1477 C   0  0  0  0  0  0  0  0  0  0  0  0
   17.0376  -10.6079  -14.5439 C   0  0  1  0  0  0  0  0  0  0  0  0
   16.4887   -9.3374  -14.0009 C   0  0  0  0  0  0  0  0  0  0  0  0
   15.9653   -8.5125  -14.7935 O   0  0  0  0  0  0  0  0  0  0  0  0
   15.5881   -6.9414   -8.2274 C   0  0  0  0  0  0  0  0  0  0  0  0
   15.4701   -6.8305   -9.7486 C   0  0  2  0  0  0  0  0  0  0  0  0
   13.9776   -6.7966  -10.0417 C   0  0  0  0  0  0  0  0  0  0  0  0
   16.0297   -8.0685  -10.4041 C   0  0  0  0  0  0  0  0  0  0  0  0
   16.1594   -7.9162  -11.9167 C   0  0  2  0  0  0  0  0  0  0  0  0
   16.5696   -9.0905  -12.6097 N   0  0  0  0  0  0  0  0  0  0  0  0
   16.7725   -6.6604  -12.3220 C   0  0  0  0  0  0  0  0  0  0  0  0
   18.0185   -6.4999  -12.2207 O   0  0  0  0  0  0  0  0  0  0  0  0
   16.0373   -5.5610  -12.8434 N   0  0  0  0  0  0  0  0  0  0  0  0
   16.6901   -4.3178  -13.1938 C   0  0  1  0  0  0  0  0  0  0  0  0
   16.5697   -4.0378  -14.6863 C   0  0  0  0  0  0  0  0  0  0  0  0
   17.2787   -2.4315  -15.0701 S   0  0  0  0  0  0  0  0  0  0  0  0
   16.1344   -3.1913  -12.4036 C   0  0  0  0  0  0  0  0  0  0  0  0
   14.7778   -3.0189  -12.2420 O   0  0  0  0  0  0  0  0  0  0  0  0
   16.9336   -2.3830  -11.8747 O   0  0  0  0  0  0  0  0  0  0  0  0
  1  5  1  0
  2  1  1  0
  3  4  1  0
  3  2  1  0
  4  5  1  0
  5  6  1  1
  6  7  2  0
  9  8  1  1
  9 10  1  0
  9 11  1  0
 12 11  1  1
 12 13  1  0
 12 14  1  0
 13  6  1  0
 14 16  1  0
 15 14  2  0
 16 17  1  0
 17 20  1  0
 17 18  1  6
 19 18  1  0
 20 22  2  0
 20 21  1  0
M  END
$$$$
