PLC.pdb
     RDKit          3D

 22 22  0  0  1  0  0  0  0  0999 V2000
   29.4764  -20.4548  -11.9145 N   0  0  0  0  0  0  0  0  0  0  0  0
   30.8925  -20.5799  -12.1800 C   0  0  0  0  0  0  0  0  0  0  0  0
   31.3473  -21.8925  -11.6257 C   0  0  0  0  0  0  0  0  0  0  0  0
   30.1265  -22.4021  -10.8873 C   0  0  0  0  0  0  0  0  0  0  0  0
   29.0119  -21.7916  -11.7134 C   0  0  1  0  0  0  0  0  0  0  0  0
   27.7020  -21.8474  -11.0125 C   0  0  0  0  0  0  0  0  0  0  0  0
   27.0725  -22.9362  -10.9844 O   0  0  0  0  0  0  0  0  0  0  0  0
   26.3248  -21.1755   -6.8421 C   0  0  0  0  0  0  0  0  0  0  0  0
   26.8043  -19.9408   -7.6074 C   0  0  2  0  0  0  0  0  0  0  0  0
   26.8347  -18.8131   -6.5866 C   0  0  0  0  0  0  0  0  0  0  0  0
   25.7979  -19.5631   -8.6657 C   0  0  0  0  0  0  0  0  0  0  0  0
   25.8839  -20.4619   -9.8956 C   0  0  2  0  0  0  0  0  0  0  0  0
   27.1993  -20.6762  -10.3970 N   0  0  0  0  0  0  0  0  0  0  0  0
   24.8362  -20.2082  -10.8729 C   0  0  0  0  0  0  0  0  0  0  0  0
   24.4748  -19.0273  -11.1248 O   0  0  0  0  0  0  0  0  0  0  0  0
   24.1667  -21.2370  -11.5901 N   0  0  0  0  0  0  0  0  0  0  0  0
   23.1961  -20.9283  -12.6182 C   0  0  1  0  0  0  0  0  0  0  0  0
   23.3593  -21.8504  -13.8198 C   0  0  0  0  0  0  0  0  0  0  0  0
   24.7623  -22.9452  -13.5690 S   0  0  0  0  0  0  0  0  0  0  0  0
   21.8158  -21.0100  -12.0797 C   0  0  0  0  0  0  0  0  0  0  0  0
   20.7207  -20.6542  -12.8350 O   0  0  0  0  0  0  0  0  0  0  0  0
   21.6579  -21.4155  -10.9040 O   0  0  0  0  0  0  0  0  0  0  0  0
  1  5  1  0
  2  1  1  0
  3  4  1  0
  3  2  1  0
  4  5  1  0
  5  6  1  1
  6  7  2  0
  9  8  1  1
  9 10  1  0
  9 11  1  0
 12 11  1  1
 12 13  1  0
 12 14  1  0
 13  6  1  0
 14 16  1  0
 15 14  2  0
 16 17  1  0
 17 20  1  0
 17 18  1  6
 19 18  1  0
 20 22  2  0
 20 21  1  0
M  END
$$$$
