PLC.pdb
     RDKit          3D

 22 22  0  0  1  0  0  0  0  0999 V2000
   27.0198  -18.9255  -15.1617 N   0  0  0  0  0  0  0  0  0  0  0  0
   28.3252  -18.5068  -15.6225 C   0  0  0  0  0  0  0  0  0  0  0  0
   29.2351  -19.6920  -15.5564 C   0  0  0  0  0  0  0  0  0  0  0  0
   28.3899  -20.7438  -14.8673 C   0  0  0  0  0  0  0  0  0  0  0  0
   27.0009  -20.3455  -15.3251 C   0  0  1  0  0  0  0  0  0  0  0  0
   25.9375  -21.0040  -14.5215 C   0  0  0  0  0  0  0  0  0  0  0  0
   25.6853  -22.2195  -14.7252 O   0  0  0  0  0  0  0  0  0  0  0  0
   25.8225  -22.2036  -10.5440 C   0  0  0  0  0  0  0  0  0  0  0  0
   25.7039  -20.6844  -10.6796 C   0  0  2  0  0  0  0  0  0  0  0  0
   25.7842  -20.1397   -9.2614 C   0  0  0  0  0  0  0  0  0  0  0  0
   24.3472  -20.3167  -11.2269 C   0  0  0  0  0  0  0  0  0  0  0  0
   24.1919  -20.6963  -12.6966 C   0  0  2  0  0  0  0  0  0  0  0  0
   25.2388  -20.2471  -13.5509 N   0  0  0  0  0  0  0  0  0  0  0  0
   22.8300  -20.5582  -13.1897 C   0  0  0  0  0  0  0  0  0  0  0  0
   22.3591  -19.4170  -13.4442 O   0  0  0  0  0  0  0  0  0  0  0  0
   21.9609  -21.6609  -13.4129 N   0  0  0  0  0  0  0  0  0  0  0  0
   20.6667  -21.4848  -14.0360 C   0  0  1  0  0  0  0  0  0  0  0  0
   20.3963  -22.5832  -15.0564 C   0  0  0  0  0  0  0  0  0  0  0  0
   20.8864  -24.1779  -14.3881 S   0  0  0  0  0  0  0  0  0  0  0  0
   19.5921  -21.4444  -13.0135 C   0  0  0  0  0  0  0  0  0  0  0  0
   18.2907  -21.1356  -13.3414 O   0  0  0  0  0  0  0  0  0  0  0  0
   19.8918  -21.7004  -11.8235 O   0  0  0  0  0  0  0  0  0  0  0  0
  1  5  1  0
  2  1  1  0
  3  4  1  0
  3  2  1  0
  4  5  1  0
  5  6  1  1
  6  7  2  0
  9  8  1  1
  9 10  1  0
  9 11  1  0
 12 11  1  1
 12 13  1  0
 12 14  1  0
 13  6  1  0
 14 16  1  0
 15 14  2  0
 16 17  1  0
 17 20  1  0
 17 18  1  6
 19 18  1  0
 20 22  2  0
 20 21  1  0
M  END
$$$$
