PLC.pdb
     RDKit          3D

 22 22  0  0  1  0  0  0  0  0999 V2000
   17.2502  -10.0430  -11.8227 N   0  0  0  0  0  0  0  0  0  0  0  0
   17.4694  -11.0954  -12.7902 C   0  0  0  0  0  0  0  0  0  0  0  0
   16.7272  -10.7321  -14.0368 C   0  0  0  0  0  0  0  0  0  0  0  0
   15.9468   -9.4981  -13.6321 C   0  0  0  0  0  0  0  0  0  0  0  0
   16.8712   -8.8988  -12.5911 C   0  0  1  0  0  0  0  0  0  0  0  0
   16.1937   -7.8560  -11.7762 C   0  0  0  0  0  0  0  0  0  0  0  0
   15.7720   -6.8168  -12.3461 O   0  0  0  0  0  0  0  0  0  0  0  0
   12.3874   -7.6300   -9.0080 C   0  0  0  0  0  0  0  0  0  0  0  0
   13.4767   -8.6377   -8.6363 C   0  0  2  0  0  0  0  0  0  0  0  0
   12.9715   -9.3441   -7.3872 C   0  0  0  0  0  0  0  0  0  0  0  0
   14.7466   -7.9146   -8.2621 C   0  0  0  0  0  0  0  0  0  0  0  0
   15.3838   -7.2061   -9.4538 C   0  0  2  0  0  0  0  0  0  0  0  0
   16.0416   -8.0602  -10.3840 N   0  0  0  0  0  0  0  0  0  0  0  0
   16.0614   -5.9688   -9.0975 C   0  0  0  0  0  0  0  0  0  0  0  0
   17.0818   -5.9934   -8.3581 O   0  0  0  0  0  0  0  0  0  0  0  0
   15.6375   -4.6864   -9.5413 N   0  0  0  0  0  0  0  0  0  0  0  0
   16.3202   -3.4814   -9.1215 C   0  0  1  0  0  0  0  0  0  0  0  0
   17.1012   -2.8645  -10.2748 C   0  0  0  0  0  0  0  0  0  0  0  0
   17.7564   -1.2636   -9.7874 S   0  0  0  0  0  0  0  0  0  0  0  0
   15.3587   -2.5018   -8.5575 C   0  0  0  0  0  0  0  0  0  0  0  0
   13.9985   -2.6479   -8.7152 O   0  0  0  0  0  0  0  0  0  0  0  0
   15.8115   -1.5201   -7.9228 O   0  0  0  0  0  0  0  0  0  0  0  0
  1  5  1  0
  2  1  1  0
  3  4  1  0
  3  2  1  0
  4  5  1  0
  5  6  1  1
  6  7  2  0
  9  8  1  1
  9 10  1  0
  9 11  1  0
 12 11  1  1
 12 13  1  0
 12 14  1  0
 13  6  1  0
 14 16  1  0
 15 14  2  0
 16 17  1  0
 17 20  1  0
 17 18  1  6
 19 18  1  0
 20 22  2  0
 20 21  1  0
M  END
$$$$
