PLC.pdb
     RDKit          3D

 22 22  0  0  1  0  0  0  0  0999 V2000
   27.3386  -19.1100  -14.9385 N   0  0  0  0  0  0  0  0  0  0  0  0
   28.5801  -18.7985  -15.6118 C   0  0  0  0  0  0  0  0  0  0  0  0
   29.3296  -20.0785  -15.8038 C   0  0  0  0  0  0  0  0  0  0  0  0
   28.4986  -21.0884  -15.0390 C   0  0  0  0  0  0  0  0  0  0  0  0
   27.1110  -20.4981  -15.1925 C   0  0  1  0  0  0  0  0  0  0  0  0
   26.1377  -21.1051  -14.2467 C   0  0  0  0  0  0  0  0  0  0  0  0
   25.7563  -22.2879  -14.4415 O   0  0  0  0  0  0  0  0  0  0  0  0
   25.9457  -22.0839   -9.8467 C   0  0  0  0  0  0  0  0  0  0  0  0
   26.0426  -20.5984  -10.1988 C   0  0  2  0  0  0  0  0  0  0  0  0
   26.1711  -19.8705   -8.8691 C   0  0  0  0  0  0  0  0  0  0  0  0
   24.7610  -20.1335  -10.8444 C   0  0  0  0  0  0  0  0  0  0  0  0
   24.6027  -20.6623  -12.2669 C   0  0  2  0  0  0  0  0  0  0  0  0
   25.6673  -20.3373  -13.1548 N   0  0  0  0  0  0  0  0  0  0  0  0
   23.2483  -20.5377  -12.7838 C   0  0  0  0  0  0  0  0  0  0  0  0
   22.8727  -19.4654  -13.3294 O   0  0  0  0  0  0  0  0  0  0  0  0
   22.2831  -21.5791  -12.7140 N   0  0  0  0  0  0  0  0  0  0  0  0
   20.9762  -21.4355  -13.3188 C   0  0  1  0  0  0  0  0  0  0  0  0
   20.5269  -22.7386  -13.9674 C   0  0  0  0  0  0  0  0  0  0  0  0
   18.8401  -22.5778  -14.5666 S   0  0  0  0  0  0  0  0  0  0  0  0
   19.9808  -20.9791  -12.3173 C   0  0  0  0  0  0  0  0  0  0  0  0
   18.8137  -20.3502  -12.6897 O   0  0  0  0  0  0  0  0  0  0  0  0
   20.2225  -21.1782  -11.1033 O   0  0  0  0  0  0  0  0  0  0  0  0
  1  5  1  0
  2  1  1  0
  3  4  1  0
  3  2  1  0
  4  5  1  0
  5  6  1  1
  6  7  2  0
  9  8  1  1
  9 10  1  0
  9 11  1  0
 12 11  1  1
 12 13  1  0
 12 14  1  0
 13  6  1  0
 14 16  1  0
 15 14  2  0
 16 17  1  0
 17 20  1  0
 17 18  1  1
 19 18  1  0
 20 22  2  0
 20 21  1  0
M  END
$$$$
