PLC.pdb
     RDKit          3D

 22 22  0  0  1  0  0  0  0  0999 V2000
   24.6220   -8.8222  -20.2603 N   0  0  0  0  0  0  0  0  0  0  0  0
   25.0176   -9.1572  -21.6105 C   0  0  0  0  0  0  0  0  0  0  0  0
   24.2232  -10.3506  -22.0368 C   0  0  0  0  0  0  0  0  0  0  0  0
   23.4916  -10.7534  -20.7727 C   0  0  0  0  0  0  0  0  0  0  0  0
   23.3300   -9.4097  -20.0903 C   0  0  1  0  0  0  0  0  0  0  0  0
   22.9448   -9.5514  -18.6613 C   0  0  0  0  0  0  0  0  0  0  0  0
   21.8050  -10.0034  -18.3801 O   0  0  0  0  0  0  0  0  0  0  0  0
   25.5743  -12.1232  -15.7124 C   0  0  0  0  0  0  0  0  0  0  0  0
   25.7078  -10.6975  -16.2506 C   0  0  2  0  0  0  0  0  0  0  0  0
   27.1584  -10.3049  -16.0135 C   0  0  0  0  0  0  0  0  0  0  0  0
   24.8489   -9.7558  -15.4436 C   0  0  0  0  0  0  0  0  0  0  0  0
   23.6730   -9.2094  -16.2479 C   0  0  2  0  0  0  0  0  0  0  0  0
   23.8690   -9.1747  -17.6578 N   0  0  0  0  0  0  0  0  0  0  0  0
   23.0444   -8.0474  -15.6382 C   0  0  0  0  0  0  0  0  0  0  0  0
   22.7034   -8.0729  -14.4251 O   0  0  0  0  0  0  0  0  0  0  0  0
   22.7781   -6.8406  -16.3408 N   0  0  0  0  0  0  0  0  0  0  0  0
   22.1445   -5.7145  -15.6889 C   0  0  1  0  0  0  0  0  0  0  0  0
   23.0408   -4.4833  -15.7291 C   0  0  0  0  0  0  0  0  0  0  0  0
   24.5787   -4.8134  -14.8598 S   0  0  0  0  0  0  0  0  0  0  0  0
   20.8269   -5.4229  -16.3060 C   0  0  0  0  0  0  0  0  0  0  0  0
   19.9915   -4.4493  -15.8055 O   0  0  0  0  0  0  0  0  0  0  0  0
   20.4783   -6.0888  -17.3094 O   0  0  0  0  0  0  0  0  0  0  0  0
  1  5  1  0
  2  1  1  0
  3  4  1  0
  3  2  1  0
  4  5  1  0
  5  6  1  1
  6  7  2  0
  9  8  1  1
  9 10  1  0
  9 11  1  0
 12 11  1  1
 12 13  1  0
 12 14  1  0
 13  6  1  0
 14 16  1  0
 15 14  2  0
 16 17  1  0
 17 20  1  0
 17 18  1  6
 19 18  1  0
 20 22  2  0
 20 21  1  0
M  END
$$$$
