PLC.pdb
     RDKit          3D

 22 22  0  0  1  0  0  0  0  0999 V2000
   28.1398  -18.0742  -16.4041 N   0  0  0  0  0  0  0  0  0  0  0  0
   29.0958  -17.5967  -17.3786 C   0  0  0  0  0  0  0  0  0  0  0  0
   29.5534  -18.7713  -18.1835 C   0  0  0  0  0  0  0  0  0  0  0  0
   28.9172  -19.9498  -17.4752 C   0  0  0  0  0  0  0  0  0  0  0  0
   27.6554  -19.3128  -16.9280 C   0  0  1  0  0  0  0  0  0  0  0  0
   27.0043  -20.1604  -15.8947 C   0  0  0  0  0  0  0  0  0  0  0  0
   26.3192  -21.1495  -16.2619 O   0  0  0  0  0  0  0  0  0  0  0  0
   28.7043  -22.3491  -12.4439 C   0  0  0  0  0  0  0  0  0  0  0  0
   28.6829  -20.8342  -12.2319 C   0  0  2  0  0  0  0  0  0  0  0  0
   29.3744  -20.5981  -10.8975 C   0  0  0  0  0  0  0  0  0  0  0  0
   27.2610  -20.3496  -12.0940 C   0  0  0  0  0  0  0  0  0  0  0  0
   26.4976  -20.4072  -13.4139 C   0  0  2  0  0  0  0  0  0  0  0  0
   27.1725  -19.8325  -14.5282 N   0  0  0  0  0  0  0  0  0  0  0  0
   25.0792  -20.1139  -13.2759 C   0  0  0  0  0  0  0  0  0  0  0  0
   24.6911  -18.9305  -13.0818 O   0  0  0  0  0  0  0  0  0  0  0  0
   24.0626  -21.1051  -13.3472 N   0  0  0  0  0  0  0  0  0  0  0  0
   22.6605  -20.7492  -13.3059 C   0  0  1  0  0  0  0  0  0  0  0  0
   21.8618  -21.5512  -14.3255 C   0  0  0  0  0  0  0  0  0  0  0  0
   20.1026  -21.2728  -14.0855 S   0  0  0  0  0  0  0  0  0  0  0  0
   22.1094  -20.9410  -11.9415 C   0  0  0  0  0  0  0  0  0  0  0  0
   21.0183  -20.2301  -11.4939 O   0  0  0  0  0  0  0  0  0  0  0  0
   22.6623  -21.7760  -11.1874 O   0  0  0  0  0  0  0  0  0  0  0  0
  1  5  1  0
  2  1  1  0
  3  4  1  0
  3  2  1  0
  4  5  1  0
  5  6  1  1
  6  7  2  0
  9  8  1  1
  9 10  1  0
  9 11  1  0
 12 11  1  1
 12 13  1  0
 12 14  1  0
 13  6  1  0
 14 16  1  0
 15 14  2  0
 16 17  1  0
 17 20  1  0
 17 18  1  6
 19 18  1  0
 20 22  2  0
 20 21  1  0
M  END
$$$$
