PLC.pdb
     RDKit          3D

 22 22  0  0  1  0  0  0  0  0999 V2000
   26.7107  -19.3867  -14.0905 N   0  0  0  0  0  0  0  0  0  0  0  0
   27.9298  -19.2079  -14.8479 C   0  0  0  0  0  0  0  0  0  0  0  0
   28.4760  -20.5645  -15.1617 C   0  0  0  0  0  0  0  0  0  0  0  0
   27.5711  -21.4951  -14.3804 C   0  0  0  0  0  0  0  0  0  0  0  0
   26.2724  -20.7137  -14.3911 C   0  0  1  0  0  0  0  0  0  0  0  0
   25.2971  -21.2372  -13.3986 C   0  0  0  0  0  0  0  0  0  0  0  0
   24.8114  -22.3850  -13.5696 O   0  0  0  0  0  0  0  0  0  0  0  0
   25.9909  -21.9079   -9.0947 C   0  0  0  0  0  0  0  0  0  0  0  0
   25.8124  -20.4427   -9.4965 C   0  0  2  0  0  0  0  0  0  0  0  0
   26.1028  -19.6357   -8.2399 C   0  0  0  0  0  0  0  0  0  0  0  0
   24.3768  -20.1805   -9.8782 C   0  0  0  0  0  0  0  0  0  0  0  0
   24.0266  -20.7536  -11.2483 C   0  0  2  0  0  0  0  0  0  0  0  0
   24.9421  -20.4318  -12.2903 N   0  0  0  0  0  0  0  0  0  0  0  0
   22.6087  -20.6728  -11.5646 C   0  0  0  0  0  0  0  0  0  0  0  0
   22.0925  -19.5705  -11.8919 O   0  0  0  0  0  0  0  0  0  0  0  0
   21.7321  -21.7915  -11.5292 N   0  0  0  0  0  0  0  0  0  0  0  0
   20.3268  -21.6567  -11.8477 C   0  0  1  0  0  0  0  0  0  0  0  0
   19.9173  -22.6340  -12.9421 C   0  0  0  0  0  0  0  0  0  0  0  0
   18.2614  -22.2474  -13.5239 S   0  0  0  0  0  0  0  0  0  0  0  0
   19.4923  -21.8485  -10.6358 C   0  0  0  0  0  0  0  0  0  0  0  0
   18.1836  -21.4234  -10.5820 O   0  0  0  0  0  0  0  0  0  0  0  0
   20.0060  -22.4142   -9.6419 O   0  0  0  0  0  0  0  0  0  0  0  0
  1  5  1  0
  2  1  1  0
  3  4  1  0
  3  2  1  0
  4  5  1  0
  5  6  1  1
  6  7  2  0
  9  8  1  1
  9 10  1  0
  9 11  1  0
 12 11  1  1
 12 13  1  0
 12 14  1  0
 13  6  1  0
 14 16  1  0
 15 14  2  0
 16 17  1  0
 17 20  1  0
 17 18  1  6
 19 18  1  0
 20 22  2  0
 20 21  1  0
M  END
$$$$
