PLC.pdb
     RDKit          3D

 22 22  0  0  1  0  0  0  0  0999 V2000
   27.7789  -20.0504  -16.1032 N   0  0  0  0  0  0  0  0  0  0  0  0
   29.0048  -20.0335  -16.8704 C   0  0  0  0  0  0  0  0  0  0  0  0
   29.5654  -21.4201  -16.8668 C   0  0  0  0  0  0  0  0  0  0  0  0
   28.6595  -22.1610  -15.9047 C   0  0  0  0  0  0  0  0  0  0  0  0
   27.3547  -21.4154  -16.1021 C   0  0  1  0  0  0  0  0  0  0  0  0
   26.3728  -21.7130  -15.0262 C   0  0  0  0  0  0  0  0  0  0  0  0
   25.7250  -22.7902  -15.0743 O   0  0  0  0  0  0  0  0  0  0  0  0
   23.7819  -20.2280  -10.2314 C   0  0  0  0  0  0  0  0  0  0  0  0
   25.0722  -21.0378  -10.3713 C   0  0  2  0  0  0  0  0  0  0  0  0
   25.8585  -20.7780   -9.0951 C   0  0  0  0  0  0  0  0  0  0  0  0
   25.8936  -20.5106  -11.5214 C   0  0  0  0  0  0  0  0  0  0  0  0
   25.2975  -20.8785  -12.8770 C   0  0  2  0  0  0  0  0  0  0  0  0
   26.1936  -20.7780  -13.9789 N   0  0  0  0  0  0  0  0  0  0  0  0
   23.9479  -20.3714  -13.0730 C   0  0  0  0  0  0  0  0  0  0  0  0
   23.6963  -19.1491  -12.8956 O   0  0  0  0  0  0  0  0  0  0  0  0
   22.8523  -21.1881  -13.4653 N   0  0  0  0  0  0  0  0  0  0  0  0
   21.5436  -20.6228  -13.7142 C   0  0  1  0  0  0  0  0  0  0  0  0
   20.9223  -21.2137  -14.9733 C   0  0  0  0  0  0  0  0  0  0  0  0
   22.0215  -20.9705  -16.3741 S   0  0  0  0  0  0  0  0  0  0  0  0
   20.6521  -20.8265  -12.5455 C   0  0  0  0  0  0  0  0  0  0  0  0
   19.5584  -20.0210  -12.3190 O   0  0  0  0  0  0  0  0  0  0  0  0
   20.9140  -21.7609  -11.7518 O   0  0  0  0  0  0  0  0  0  0  0  0
  1  5  1  0
  2  1  1  0
  3  4  1  0
  3  2  1  0
  4  5  1  0
  5  6  1  1
  6  7  2  0
  9  8  1  1
  9 10  1  0
  9 11  1  0
 12 11  1  1
 12 13  1  0
 12 14  1  0
 13  6  1  0
 14 16  1  0
 15 14  2  0
 16 17  1  0
 17 20  1  0
 17 18  1  6
 19 18  1  0
 20 22  2  0
 20 21  1  0
M  END
$$$$
