PLC.pdb
     RDKit          3D

 22 22  0  0  1  0  0  0  0  0999 V2000
   22.8373  -13.1150  -19.3874 N   0  0  0  0  0  0  0  0  0  0  0  0
   22.7549  -14.4504  -19.9366 C   0  0  0  0  0  0  0  0  0  0  0  0
   22.1149  -15.3286  -18.9089 C   0  0  0  0  0  0  0  0  0  0  0  0
   22.0086  -14.4272  -17.6958 C   0  0  0  0  0  0  0  0  0  0  0  0
   21.8498  -13.0714  -18.3548 C   0  0  1  0  0  0  0  0  0  0  0  0
   22.0666  -11.9556  -17.3966 C   0  0  0  0  0  0  0  0  0  0  0  0
   21.3005  -11.8474  -16.4048 O   0  0  0  0  0  0  0  0  0  0  0  0
   25.6866  -10.9847  -14.9314 C   0  0  0  0  0  0  0  0  0  0  0  0
   25.8399  -10.7198  -16.4302 C   0  0  2  0  0  0  0  0  0  0  0  0
   27.2864  -10.2899  -16.6237 C   0  0  0  0  0  0  0  0  0  0  0  0
   24.9667   -9.5615  -16.8444 C   0  0  0  0  0  0  0  0  0  0  0  0
   23.4835   -9.9194  -16.8323 C   0  0  2  0  0  0  0  0  0  0  0  0
   23.1271  -11.0467  -17.6258 N   0  0  0  0  0  0  0  0  0  0  0  0
   22.6073   -8.7597  -16.8985 C   0  0  0  0  0  0  0  0  0  0  0  0
   22.2801   -8.2736  -18.0145 O   0  0  0  0  0  0  0  0  0  0  0  0
   22.0746   -8.1125  -15.7503 N   0  0  0  0  0  0  0  0  0  0  0  0
   21.1916   -6.9723  -15.8712 C   0  0  1  0  0  0  0  0  0  0  0  0
   20.1568   -6.9602  -14.7533 C   0  0  0  0  0  0  0  0  0  0  0  0
   19.1222   -5.4969  -14.8885 S   0  0  0  0  0  0  0  0  0  0  0  0
   21.9660   -5.7064  -15.8811 C   0  0  0  0  0  0  0  0  0  0  0  0
   21.5804   -4.6267  -16.6439 O   0  0  0  0  0  0  0  0  0  0  0  0
   22.9965   -5.6327  -15.1710 O   0  0  0  0  0  0  0  0  0  0  0  0
  1  5  1  0
  2  1  1  0
  3  4  1  0
  3  2  1  0
  4  5  1  0
  5  6  1  1
  6  7  2  0
  9  8  1  1
  9 10  1  0
  9 11  1  0
 12 11  1  6
 12 13  1  0
 12 14  1  0
 13  6  1  0
 14 16  1  0
 15 14  2  0
 16 17  1  0
 17 20  1  0
 17 18  1  1
 19 18  1  0
 20 22  2  0
 20 21  1  0
M  END
$$$$
