STH.pdb
     RDKit          3D

 24 24  0  0  1  0  0  0  0  0999 V2000
    9.6071  -18.4934   17.1867 O   0  0  0  0  0  0  0  0  0  0  0  0
    8.5213  -17.8092   16.6813 C   0  0  0  0  0  0  0  0  0  0  0  0
    8.8711  -16.3630   16.3857 C   0  0  2  0  0  0  0  0  0  0  0  0
    9.8739  -16.2573   15.3710 N   0  0  0  0  0  0  0  0  0  0  0  0
    9.3725  -15.7731   17.6745 C   0  0  0  0  0  0  0  0  0  0  0  0
   10.5941  -15.7022   17.9132 O   0  0  0  0  0  0  0  0  0  0  0  0
    7.4736  -12.6906   19.4784 C   0  0  0  0  0  0  0  0  0  0  0  0
    7.7642  -13.7947   20.4761 C   0  0  1  0  0  0  0  0  0  0  0  0
    6.5827  -14.5169   20.6339 O   0  0  0  0  0  0  0  0  0  0  0  0
    8.8679  -14.6537   19.8879 C   0  0  2  0  0  0  0  0  0  0  0  0
    8.4689  -15.2803   18.6560 N   0  0  0  0  0  0  0  0  0  0  0  0
    9.2256  -15.6559   20.9258 C   0  0  0  0  0  0  0  0  0  0  0  0
    8.9325  -16.8522   20.7751 O   0  0  0  0  0  0  0  0  0  0  0  0
    9.9084  -15.1921   22.0828 N   0  0  0  0  0  0  0  0  0  0  0  0
   10.2573  -16.0901   23.1430 C   0  0  1  0  0  0  0  0  0  0  0  0
   11.5758  -15.6899   23.7568 C   0  0  0  0  0  0  0  0  0  0  0  0
   12.7475  -16.1034   22.9559 C   0  0  0  0  0  0  0  0  0  0  0  0
   12.7153  -16.8675   21.8050 C   0  0  0  0  0  0  0  0  0  0  0  0
   13.9672  -17.0236   21.3817 N   0  0  0  0  0  0  0  0  0  0  0  0
   14.7872  -16.3838   22.2267 C   0  0  0  0  0  0  0  0  0  0  0  0
   14.0401  -15.8302   23.1758 N   0  0  0  0  0  0  0  0  0  0  0  0
    9.1798  -16.1982   24.1419 C   0  0  0  0  0  0  0  0  0  0  0  0
    8.2276  -15.3606   24.0804 O   0  0  0  0  0  0  0  0  0  0  0  0
    9.1858  -17.1780   25.1279 O   0  0  0  0  0  0  0  0  0  0  0  0
  2  1  1  0
  2  3  1  0
  3  5  1  0
  3  4  1  6
  5  6  2  0
  8  7  1  6
  8 10  1  0
  9  8  1  0
 10 11  1  6
 10 12  1  0
 11  5  1  0
 12 13  2  0
 12 14  1  0
 14 15  1  0
 15 22  1  0
 16 17  1  0
 15 16  1  1
 17 18  2  0
 19 18  1  0
 20 19  1  0
 21 20  2  0
 21 17  1  0
 22 23  2  0
 22 24  1  0
M  END
$$$$
