STH.pdb
     RDKit          3D

 24 24  0  0  1  0  0  0  0  0999 V2000
    8.8539  -15.4208   12.9175 O   0  0  0  0  0  0  0  0  0  0  0  0
    9.0019  -15.4489   14.2885 C   0  0  0  0  0  0  0  0  0  0  0  0
    7.9088  -14.6533   14.9765 C   0  0  2  0  0  0  0  0  0  0  0  0
    7.3889  -13.6247   14.1289 N   0  0  0  0  0  0  0  0  0  0  0  0
    8.5295  -14.0491   16.2053 C   0  0  0  0  0  0  0  0  0  0  0  0
    8.3452  -12.8497   16.4915 O   0  0  0  0  0  0  0  0  0  0  0  0
    7.7127  -13.0992   18.5822 C   0  0  0  0  0  0  0  0  0  0  0  0
    8.5870  -14.1121   19.2954 C   0  0  1  0  0  0  0  0  0  0  0  0
    7.8026  -15.2446   19.5061 O   0  0  0  0  0  0  0  0  0  0  0  0
    9.7637  -14.4107   18.3853 C   0  0  2  0  0  0  0  0  0  0  0  0
    9.3430  -14.8272   17.0742 N   0  0  0  0  0  0  0  0  0  0  0  0
   10.5711  -15.4581   19.0641 C   0  0  0  0  0  0  0  0  0  0  0  0
   11.1407  -16.3415   18.4047 O   0  0  0  0  0  0  0  0  0  0  0  0
   10.6618  -15.4056   20.4814 N   0  0  0  0  0  0  0  0  0  0  0  0
   11.9337  -15.4207   21.1403 C   0  0  1  0  0  0  0  0  0  0  0  0
   12.7555  -14.2271   20.7217 C   0  0  0  0  0  0  0  0  0  0  0  0
   13.7474  -14.5353   19.6696 C   0  0  0  0  0  0  0  0  0  0  0  0
   13.9667  -15.7744   19.0987 C   0  0  0  0  0  0  0  0  0  0  0  0
   14.9356  -15.6437   18.1959 N   0  0  0  0  0  0  0  0  0  0  0  0
   15.3341  -14.3645   18.1785 C   0  0  0  0  0  0  0  0  0  0  0  0
   14.6095  -13.7016   19.0735 N   0  0  0  0  0  0  0  0  0  0  0  0
   11.7882  -15.5203   22.6030 C   0  0  0  0  0  0  0  0  0  0  0  0
   10.7365  -15.0410   23.1286 O   0  0  0  0  0  0  0  0  0  0  0  0
   12.7586  -16.1158   23.4003 O   0  0  0  0  0  0  0  0  0  0  0  0
  2  1  1  0
  2  3  1  0
  3  5  1  0
  3  4  1  6
  5  6  2  0
  8  7  1  6
  8 10  1  0
  9  8  1  0
 10 11  1  6
 10 12  1  0
 11  5  1  0
 12 13  2  0
 12 14  1  0
 14 15  1  0
 15 22  1  0
 16 17  1  0
 15 16  1  1
 17 18  2  0
 19 18  1  0
 20 19  1  0
 21 20  2  0
 21 17  1  0
 22 23  2  0
 22 24  1  0
M  END
$$$$
