STH.pdb
     RDKit          3D

 24 24  0  0  1  0  0  0  0  0999 V2000
    5.0163  -20.0451   20.5321 O   0  0  0  0  0  0  0  0  0  0  0  0
    4.9131  -18.7813   21.0748 C   0  0  0  0  0  0  0  0  0  0  0  0
    5.6642  -17.7611   20.2406 C   0  0  2  0  0  0  0  0  0  0  0  0
    6.0893  -18.3095   18.9895 N   0  0  0  0  0  0  0  0  0  0  0  0
    6.8560  -17.3387   21.0540 C   0  0  0  0  0  0  0  0  0  0  0  0
    7.9929  -17.7841   20.8020 O   0  0  0  0  0  0  0  0  0  0  0  0
    7.7737  -13.7765   21.8875 C   0  0  0  0  0  0  0  0  0  0  0  0
    7.7405  -14.4796   23.2305 C   0  0  1  0  0  0  0  0  0  0  0  0
    6.5397  -14.1241   23.8423 O   0  0  0  0  0  0  0  0  0  0  0  0
    7.8075  -15.9709   22.9594 C   0  0  2  0  0  0  0  0  0  0  0  0
    6.7203  -16.4210   22.1318 N   0  0  0  0  0  0  0  0  0  0  0  0
    7.8073  -16.6444   24.2845 C   0  0  0  0  0  0  0  0  0  0  0  0
    6.8502  -16.5066   25.0620 O   0  0  0  0  0  0  0  0  0  0  0  0
    8.9348  -17.4425   24.6188 N   0  0  0  0  0  0  0  0  0  0  0  0
    9.0802  -18.0017   25.9297 C   0  0  1  0  0  0  0  0  0  0  0  0
    9.0331  -19.5080   25.8655 C   0  0  0  0  0  0  0  0  0  0  0  0
    7.6926  -20.0418   25.5437 C   0  0  0  0  0  0  0  0  0  0  0  0
    6.5309  -19.3026   25.4278 C   0  0  0  0  0  0  0  0  0  0  0  0
    5.5405  -20.1400   25.1301 N   0  0  0  0  0  0  0  0  0  0  0  0
    6.0386  -21.3817   25.0544 C   0  0  0  0  0  0  0  0  0  0  0  0
    7.3414  -21.3122   25.3061 N   0  0  0  0  0  0  0  0  0  0  0  0
   10.2921  -17.5034   26.6031 C   0  0  0  0  0  0  0  0  0  0  0  0
   10.5127  -17.8920   27.7915 O   0  0  0  0  0  0  0  0  0  0  0  0
   11.1785  -16.6357   25.9759 O   0  0  0  0  0  0  0  0  0  0  0  0
  2  1  1  0
  2  3  1  0
  3  5  1  0
  3  4  1  6
  5  6  2  0
  8  7  1  6
  8 10  1  0
  9  8  1  0
 10 11  1  6
 10 12  1  0
 11  5  1  0
 12 13  2  0
 12 14  1  0
 14 15  1  0
 15 22  1  0
 16 17  1  0
 15 16  1  6
 17 18  2  0
 19 18  1  0
 20 19  1  0
 21 20  2  0
 21 17  1  0
 22 23  2  0
 22 24  1  0
M  END
$$$$
