STH.pdb
     RDKit          3D

 24 24  0  0  1  0  0  0  0  0999 V2000
    8.1707  -20.2578   17.3317 O   0  0  0  0  0  0  0  0  0  0  0  0
    6.8736  -20.4534   17.7581 C   0  0  0  0  0  0  0  0  0  0  0  0
    6.0673  -19.1713   17.6739 C   0  0  2  0  0  0  0  0  0  0  0  0
    6.8430  -18.0914   17.1458 N   0  0  0  0  0  0  0  0  0  0  0  0
    5.6220  -18.8543   19.0744 C   0  0  0  0  0  0  0  0  0  0  0  0
    5.7640  -17.7095   19.5473 O   0  0  0  0  0  0  0  0  0  0  0  0
    2.2596  -19.7846   20.7681 C   0  0  0  0  0  0  0  0  0  0  0  0
    3.3633  -20.3802   21.6201 C   0  0  1  0  0  0  0  0  0  0  0  0
    3.4397  -21.7329   21.2933 O   0  0  0  0  0  0  0  0  0  0  0  0
    4.6460  -19.6492   21.2704 C   0  0  2  0  0  0  0  0  0  0  0  0
    5.0272  -19.8497   19.8979 N   0  0  0  0  0  0  0  0  0  0  0  0
    5.6867  -20.1434   22.2097 C   0  0  0  0  0  0  0  0  0  0  0  0
    6.5722  -20.9196   21.8184 O   0  0  0  0  0  0  0  0  0  0  0  0
    5.6255  -19.6952   23.5570 N   0  0  0  0  0  0  0  0  0  0  0  0
    6.6002  -20.1151   24.5191 C   0  0  1  0  0  0  0  0  0  0  0  0
    6.8877  -19.0013   25.4949 C   0  0  0  0  0  0  0  0  0  0  0  0
    7.6558  -17.8849   24.9041 C   0  0  0  0  0  0  0  0  0  0  0  0
    8.2326  -17.8713   23.6485 C   0  0  0  0  0  0  0  0  0  0  0  0
    8.8329  -16.6948   23.4861 N   0  0  0  0  0  0  0  0  0  0  0  0
    8.6540  -15.9666   24.5967 C   0  0  0  0  0  0  0  0  0  0  0  0
    7.9407  -16.6950   25.4488 N   0  0  0  0  0  0  0  0  0  0  0  0
    6.2001  -21.3639   25.1905 C   0  0  0  0  0  0  0  0  0  0  0  0
    5.0152  -21.7821   25.0082 O   0  0  0  0  0  0  0  0  0  0  0  0
    7.0755  -22.0768   26.0013 O   0  0  0  0  0  0  0  0  0  0  0  0
  2  1  1  0
  2  3  1  0
  3  5  1  0
  3  4  1  1
  5  6  2  0
  8  7  1  6
  8 10  1  0
  9  8  1  0
 10 11  1  6
 10 12  1  0
 11  5  1  0
 12 13  2  0
 12 14  1  0
 14 15  1  0
 15 22  1  0
 16 17  1  0
 15 16  1  1
 17 18  2  0
 19 18  1  0
 20 19  1  0
 21 20  2  0
 21 17  1  0
 22 23  2  0
 22 24  1  0
M  END
$$$$
