STH.pdb
     RDKit          3D

 24 24  0  0  1  0  0  0  0  0999 V2000
   11.1827  -14.0641   18.9943 O   0  0  0  0  0  0  0  0  0  0  0  0
   10.2628  -13.2624   18.3512 C   0  0  0  0  0  0  0  0  0  0  0  0
    8.9569  -13.9990   18.1204 C   0  0  2  0  0  0  0  0  0  0  0  0
    8.0685  -13.2526   17.2836 N   0  0  0  0  0  0  0  0  0  0  0  0
    8.3402  -14.2091   19.4753 C   0  0  0  0  0  0  0  0  0  0  0  0
    7.7756  -13.2723   20.0736 O   0  0  0  0  0  0  0  0  0  0  0  0
    6.2884  -17.3810   20.2246 C   0  0  0  0  0  0  0  0  0  0  0  0
    7.2218  -17.2091   21.4071 C   0  0  1  0  0  0  0  0  0  0  0  0
    8.2493  -18.1372   21.2482 O   0  0  0  0  0  0  0  0  0  0  0  0
    7.7451  -15.7856   21.3641 C   0  0  2  0  0  0  0  0  0  0  0  0
    8.3834  -15.4803   20.1116 N   0  0  0  0  0  0  0  0  0  0  0  0
    8.6813  -15.6419   22.5096 C   0  0  0  0  0  0  0  0  0  0  0  0
    9.9086  -15.6675   22.3283 O   0  0  0  0  0  0  0  0  0  0  0  0
    8.1188  -15.4762   23.8042 N   0  0  0  0  0  0  0  0  0  0  0  0
    8.9539  -15.2842   24.9523 C   0  0  1  0  0  0  0  0  0  0  0  0
    8.2057  -14.5333   26.0255 C   0  0  0  0  0  0  0  0  0  0  0  0
    8.9923  -14.3331   27.2610 C   0  0  0  0  0  0  0  0  0  0  0  0
   10.3075  -14.7095   27.4559 C   0  0  0  0  0  0  0  0  0  0  0  0
   10.6551  -14.3589   28.6917 N   0  0  0  0  0  0  0  0  0  0  0  0
    9.6037  -13.7744   29.2820 C   0  0  0  0  0  0  0  0  0  0  0  0
    8.6025  -13.7634   28.4087 N   0  0  0  0  0  0  0  0  0  0  0  0
    9.5113  -16.5580   25.4394 C   0  0  0  0  0  0  0  0  0  0  0  0
    8.7771  -17.5916   25.3710 O   0  0  0  0  0  0  0  0  0  0  0  0
   10.7968  -16.6475   25.9605 O   0  0  0  0  0  0  0  0  0  0  0  0
  2  1  1  0
  2  3  1  0
  3  5  1  0
  3  4  1  6
  5  6  2  0
  8  7  1  6
  8 10  1  0
  9  8  1  0
 10 11  1  6
 10 12  1  0
 11  5  1  0
 12 13  2  0
 12 14  1  0
 14 15  1  0
 15 22  1  0
 16 17  1  0
 15 16  1  1
 17 18  2  0
 19 18  1  0
 20 19  1  0
 21 20  2  0
 21 17  1  0
 22 23  2  0
 22 24  1  0
M  END
$$$$
