STH.pdb
     RDKit          3D

 24 24  0  0  1  0  0  0  0  0999 V2000
    8.1746  -15.8971   13.8812 O   0  0  0  0  0  0  0  0  0  0  0  0
    8.2600  -16.2251   15.2182 C   0  0  0  0  0  0  0  0  0  0  0  0
    8.2922  -17.7290   15.4149 C   0  0  2  0  0  0  0  0  0  0  0  0
    7.0751  -18.3456   14.9847 N   0  0  0  0  0  0  0  0  0  0  0  0
    8.5012  -17.9628   16.8852 C   0  0  0  0  0  0  0  0  0  0  0  0
    7.5305  -18.0876   17.6576 O   0  0  0  0  0  0  0  0  0  0  0  0
   11.2812  -20.3339   18.3051 C   0  0  0  0  0  0  0  0  0  0  0  0
   11.3985  -19.0112   19.0371 C   0  0  1  0  0  0  0  0  0  0  0  0
   12.4742  -18.3303   18.4698 O   0  0  0  0  0  0  0  0  0  0  0  0
   10.0942  -18.2645   18.8290 C   0  0  2  0  0  0  0  0  0  0  0  0
    9.8098  -18.0480   17.4356 N   0  0  0  0  0  0  0  0  0  0  0  0
   10.2144  -16.9832   19.5729 C   0  0  0  0  0  0  0  0  0  0  0  0
   10.1163  -15.8978   18.9796 O   0  0  0  0  0  0  0  0  0  0  0  0
   10.4433  -17.0530   20.9738 N   0  0  0  0  0  0  0  0  0  0  0  0
   10.1309  -15.9465   21.8284 C   0  0  1  0  0  0  0  0  0  0  0  0
    8.6635  -15.6099   21.7355 C   0  0  0  0  0  0  0  0  0  0  0  0
    8.3599  -14.5749   20.7245 C   0  0  0  0  0  0  0  0  0  0  0  0
    9.2824  -13.9195   19.9316 C   0  0  0  0  0  0  0  0  0  0  0  0
    8.6210  -13.0657   19.1540 N   0  0  0  0  0  0  0  0  0  0  0  0
    7.3132  -13.1609   19.4301 C   0  0  0  0  0  0  0  0  0  0  0  0
    7.1650  -14.0765   20.3815 N   0  0  0  0  0  0  0  0  0  0  0  0
   10.5675  -16.1886   23.2145 C   0  0  0  0  0  0  0  0  0  0  0  0
   10.4907  -15.2249   24.0375 O   0  0  0  0  0  0  0  0  0  0  0  0
   11.0507  -17.4243   23.6287 O   0  0  0  0  0  0  0  0  0  0  0  0
  2  1  1  0
  2  3  1  0
  3  5  1  0
  3  4  1  1
  5  6  2  0
  8  7  1  6
  8 10  1  0
  9  8  1  0
 10 11  1  6
 10 12  1  0
 11  5  1  0
 12 13  2  0
 12 14  1  0
 14 15  1  0
 15 22  1  0
 16 17  1  0
 15 16  1  1
 17 18  2  0
 19 18  1  0
 20 19  1  0
 21 20  2  0
 21 17  1  0
 22 23  2  0
 22 24  1  0
M  END
$$$$
