STH.pdb
     RDKit          3D

 24 24  0  0  1  0  0  0  0  0999 V2000
   12.1111  -13.3799   19.0968 O   0  0  0  0  0  0  0  0  0  0  0  0
   10.8774  -13.2078   19.6892 C   0  0  0  0  0  0  0  0  0  0  0  0
    9.8840  -14.2462   19.2034 C   0  0  2  0  0  0  0  0  0  0  0  0
    9.1162  -13.7672   18.0955 N   0  0  0  0  0  0  0  0  0  0  0  0
    8.9821  -14.5513   20.3670 C   0  0  0  0  0  0  0  0  0  0  0  0
    7.9537  -13.8773   20.5732 O   0  0  0  0  0  0  0  0  0  0  0  0
    7.0629  -17.4934   20.9254 C   0  0  0  0  0  0  0  0  0  0  0  0
    7.9362  -17.4618   22.1645 C   0  0  1  0  0  0  0  0  0  0  0  0
    8.9974  -18.3350   21.9324 O   0  0  0  0  0  0  0  0  0  0  0  0
    8.4177  -16.0337   22.3394 C   0  0  2  0  0  0  0  0  0  0  0  0
    9.2760  -15.6154   21.2635 N   0  0  0  0  0  0  0  0  0  0  0  0
    9.1118  -15.9768   23.6526 C   0  0  0  0  0  0  0  0  0  0  0  0
   10.3448  -15.8494   23.7094 O   0  0  0  0  0  0  0  0  0  0  0  0
    8.3142  -16.0734   24.8249 N   0  0  0  0  0  0  0  0  0  0  0  0
    8.8904  -15.9033   26.1254 C   0  0  1  0  0  0  0  0  0  0  0  0
    7.8888  -15.2802   27.0655 C   0  0  0  0  0  0  0  0  0  0  0  0
    7.3680  -13.9798   26.5931 C   0  0  0  0  0  0  0  0  0  0  0  0
    8.0285  -12.7680   26.6606 C   0  0  0  0  0  0  0  0  0  0  0  0
    7.2338  -11.8385   26.1358 N   0  0  0  0  0  0  0  0  0  0  0  0
    6.0950  -12.4234   25.7400 C   0  0  0  0  0  0  0  0  0  0  0  0
    6.1856  -13.7190   26.0208 N   0  0  0  0  0  0  0  0  0  0  0  0
    9.4428  -17.1660   26.6457 C   0  0  0  0  0  0  0  0  0  0  0  0
    9.2422  -18.2234   25.9722 O   0  0  0  0  0  0  0  0  0  0  0  0
   10.1633  -17.2203   27.8332 O   0  0  0  0  0  0  0  0  0  0  0  0
  2  1  1  0
  2  3  1  0
  3  5  1  0
  3  4  1  6
  5  6  2  0
  8  7  1  6
  8 10  1  0
  9  8  1  0
 10 11  1  6
 10 12  1  0
 11  5  1  0
 12 13  2  0
 12 14  1  0
 14 15  1  0
 15 22  1  0
 16 17  1  0
 15 16  1  1
 17 18  2  0
 19 18  1  0
 20 19  1  0
 21 20  2  0
 21 17  1  0
 22 23  2  0
 22 24  1  0
M  END
$$$$
