STH.pdb
     RDKit          3D

 24 24  0  0  1  0  0  0  0  0999 V2000
    9.0211  -17.3821   15.6687 O   0  0  0  0  0  0  0  0  0  0  0  0
    7.8943  -16.5979   15.5352 C   0  0  0  0  0  0  0  0  0  0  0  0
    8.2401  -15.1223   15.5977 C   0  0  2  0  0  0  0  0  0  0  0  0
    9.0259  -14.7144   14.4739 N   0  0  0  0  0  0  0  0  0  0  0  0
    9.0113  -14.9181   16.8720 C   0  0  0  0  0  0  0  0  0  0  0  0
   10.2564  -14.8540   16.8630 O   0  0  0  0  0  0  0  0  0  0  0  0
    7.8473  -12.5403   19.8013 C   0  0  0  0  0  0  0  0  0  0  0  0
    8.1599  -13.8986   20.3980 C   0  0  1  0  0  0  0  0  0  0  0  0
    6.9389  -14.5350   20.6139 O   0  0  0  0  0  0  0  0  0  0  0  0
    9.0086  -14.6490   19.3888 C   0  0  2  0  0  0  0  0  0  0  0  0
    8.3436  -14.7926   18.1213 N   0  0  0  0  0  0  0  0  0  0  0  0
    9.3265  -15.9675   19.9972 C   0  0  0  0  0  0  0  0  0  0  0  0
    9.0911  -17.0192   19.3823 O   0  0  0  0  0  0  0  0  0  0  0  0
    9.9040  -15.9725   21.2958 N   0  0  0  0  0  0  0  0  0  0  0  0
   10.7696  -17.0345   21.7142 C   0  0  1  0  0  0  0  0  0  0  0  0
   11.9679  -17.1245   20.8024 C   0  0  0  0  0  0  0  0  0  0  0  0
   12.9222  -18.1857   21.1878 C   0  0  0  0  0  0  0  0  0  0  0  0
   12.7101  -19.1597   22.1448 C   0  0  0  0  0  0  0  0  0  0  0  0
   13.7983  -19.9237   22.1999 N   0  0  0  0  0  0  0  0  0  0  0  0
   14.6888  -19.4643   21.3102 C   0  0  0  0  0  0  0  0  0  0  0  0
   14.1498  -18.4127   20.7027 N   0  0  0  0  0  0  0  0  0  0  0  0
   11.1481  -16.9021   23.1318 C   0  0  0  0  0  0  0  0  0  0  0  0
   11.1154  -17.9455   23.8545 O   0  0  0  0  0  0  0  0  0  0  0  0
   11.5320  -15.6840   23.6805 O   0  0  0  0  0  0  0  0  0  0  0  0
  2  1  1  0
  2  3  1  0
  3  5  1  0
  3  4  1  6
  5  6  2  0
  8  7  1  6
  8 10  1  0
  9  8  1  0
 10 11  1  6
 10 12  1  0
 11  5  1  0
 12 13  2  0
 12 14  1  0
 14 15  1  0
 15 22  1  0
 16 17  1  0
 15 16  1  6
 17 18  2  0
 19 18  1  0
 20 19  1  0
 21 20  2  0
 21 17  1  0
 22 23  2  0
 22 24  1  0
M  END
$$$$
