STH.pdb
     RDKit          3D

 24 24  0  0  1  0  0  0  0  0999 V2000
    8.0158  -13.6292   19.8358 O   0  0  0  0  0  0  0  0  0  0  0  0
    8.7233  -12.6200   19.2165 C   0  0  0  0  0  0  0  0  0  0  0  0
    9.2436  -13.0637   17.8623 C   0  0  2  0  0  0  0  0  0  0  0  0
    8.1787  -13.4267   16.9787 N   0  0  0  0  0  0  0  0  0  0  0  0
   10.1352  -14.2476   18.1146 C   0  0  0  0  0  0  0  0  0  0  0  0
    9.6779  -15.4073   18.1015 O   0  0  0  0  0  0  0  0  0  0  0  0
   12.6155  -15.9079   16.4137 C   0  0  0  0  0  0  0  0  0  0  0  0
   13.4131  -15.4459   17.6177 C   0  0  1  0  0  0  0  0  0  0  0  0
   14.1065  -14.3017   17.2272 O   0  0  0  0  0  0  0  0  0  0  0  0
   12.4214  -15.1455   18.7260 C   0  0  2  0  0  0  0  0  0  0  0  0
   11.5230  -14.0782   18.3750 N   0  0  0  0  0  0  0  0  0  0  0  0
   13.2215  -14.8177   19.9351 C   0  0  0  0  0  0  0  0  0  0  0  0
   13.4932  -13.6388   20.2112 O   0  0  0  0  0  0  0  0  0  0  0  0
   13.6564  -15.8972   20.7508 N   0  0  0  0  0  0  0  0  0  0  0  0
   14.4017  -15.6612   21.9512 C   0  0  1  0  0  0  0  0  0  0  0  0
   14.1001  -16.7278   22.9742 C   0  0  0  0  0  0  0  0  0  0  0  0
   12.7508  -16.6104   23.5666 C   0  0  0  0  0  0  0  0  0  0  0  0
   11.8657  -15.5677   23.3695 C   0  0  0  0  0  0  0  0  0  0  0  0
   10.7640  -15.8277   24.0692 N   0  0  0  0  0  0  0  0  0  0  0  0
   10.9248  -16.9988   24.7004 C   0  0  0  0  0  0  0  0  0  0  0  0
   12.1298  -17.4647   24.3902 N   0  0  0  0  0  0  0  0  0  0  0  0
   15.8440  -15.5314   21.6801 C   0  0  0  0  0  0  0  0  0  0  0  0
   16.2509  -15.7775   20.5029 O   0  0  0  0  0  0  0  0  0  0  0  0
   16.7472  -15.1528   22.6665 O   0  0  0  0  0  0  0  0  0  0  0  0
  2  1  1  0
  2  3  1  0
  3  5  1  0
  3  4  1  6
  5  6  2  0
  8  7  1  6
  8 10  1  0
  9  8  1  0
 10 11  1  6
 10 12  1  0
 11  5  1  0
 12 13  2  0
 12 14  1  0
 14 15  1  0
 15 22  1  0
 16 17  1  0
 15 16  1  1
 17 18  2  0
 19 18  1  0
 20 19  1  0
 21 20  2  0
 21 17  1  0
 22 23  2  0
 22 24  1  0
M  END
$$$$
