STH.pdb
     RDKit          3D

 24 24  0  0  1  0  0  0  0  0999 V2000
   10.1539  -19.3133   13.1896 O   0  0  0  0  0  0  0  0  0  0  0  0
   10.7935  -18.1725   12.7511 C   0  0  0  0  0  0  0  0  0  0  0  0
   11.5576  -17.5026   13.8774 C   0  0  2  0  0  0  0  0  0  0  0  0
   12.4764  -18.4031   14.5030 N   0  0  0  0  0  0  0  0  0  0  0  0
   10.5307  -17.0352   14.8710 C   0  0  0  0  0  0  0  0  0  0  0  0
    9.6880  -16.1702   14.5613 O   0  0  0  0  0  0  0  0  0  0  0  0
    8.2952  -19.2373   17.3264 C   0  0  0  0  0  0  0  0  0  0  0  0
    9.1739  -18.2951   18.1259 C   0  0  1  0  0  0  0  0  0  0  0  0
   10.2885  -19.0279   18.5295 O   0  0  0  0  0  0  0  0  0  0  0  0
    9.5615  -17.1522   17.2063 C   0  0  2  0  0  0  0  0  0  0  0  0
   10.4917  -17.5658   16.1899 N   0  0  0  0  0  0  0  0  0  0  0  0
   10.1284  -16.0843   18.0710 C   0  0  0  0  0  0  0  0  0  0  0  0
    9.9844  -14.8884   17.7729 O   0  0  0  0  0  0  0  0  0  0  0  0
   10.8331  -16.4855   19.2382 N   0  0  0  0  0  0  0  0  0  0  0  0
   11.0236  -15.5808   20.3324 C   0  0  1  0  0  0  0  0  0  0  0  0
    9.6918  -15.1235   20.8731 C   0  0  0  0  0  0  0  0  0  0  0  0
    9.1587  -13.9261   20.1893 C   0  0  0  0  0  0  0  0  0  0  0  0
    9.7600  -13.2543   19.1422 C   0  0  0  0  0  0  0  0  0  0  0  0
    8.9743  -12.2347   18.8046 N   0  0  0  0  0  0  0  0  0  0  0  0
    7.8984  -12.2412   19.6035 C   0  0  0  0  0  0  0  0  0  0  0  0
    8.0189  -13.2682   20.4379 N   0  0  0  0  0  0  0  0  0  0  0  0
   11.8864  -16.1619   21.3757 C   0  0  0  0  0  0  0  0  0  0  0  0
   11.8357  -17.4177   21.5559 O   0  0  0  0  0  0  0  0  0  0  0  0
   12.7358  -15.3790   22.1488 O   0  0  0  0  0  0  0  0  0  0  0  0
  2  1  1  0
  2  3  1  0
  3  5  1  0
  3  4  1  1
  5  6  2  0
  8  7  1  6
  8 10  1  0
  9  8  1  0
 10 11  1  6
 10 12  1  0
 11  5  1  0
 12 13  2  0
 12 14  1  0
 14 15  1  0
 15 22  1  0
 16 17  1  0
 15 16  1  1
 17 18  2  0
 19 18  1  0
 20 19  1  0
 21 20  2  0
 21 17  1  0
 22 23  2  0
 22 24  1  0
M  END
$$$$
