WFT.pdb
     RDKit          3D

 33 35  0  0  1  0  0  0  0  0999 V2000
    9.3274  -15.9223   24.5918 N   0  0  0  0  0  0  0  0  0  0  0  0
    8.2423  -16.6851   24.0295 C   0  0  1  0  0  0  0  0  0  0  0  0
    6.9432  -16.0399   24.4743 C   0  0  0  0  0  0  0  0  0  0  0  0
    7.1631  -15.2750   25.7291 C   0  0  0  0  0  0  0  0  0  0  0  0
    7.5321  -15.7737   26.9673 C   0  0  0  0  0  0  0  0  0  0  0  0
    7.6268  -14.7557   27.8121 N   0  0  0  0  0  0  0  0  0  0  0  0
    7.3327  -13.5844   27.1836 C   0  0  0  0  0  0  0  0  0  0  0  0
    7.2911  -12.2837   27.6388 C   0  0  0  0  0  0  0  0  0  0  0  0
    6.9551  -11.2566   26.7982 C   0  0  0  0  0  0  0  0  0  0  0  0
    6.6620  -11.5713   25.4865 C   0  0  0  0  0  0  0  0  0  0  0  0
    6.7035  -12.8662   25.0310 C   0  0  0  0  0  0  0  0  0  0  0  0
    7.0441  -13.9269   25.8770 C   0  0  0  0  0  0  0  0  0  0  0  0
    8.3826  -16.8349   22.5745 C   0  0  0  0  0  0  0  0  0  0  0  0
    7.5503  -17.5187   21.8961 O   0  0  0  0  0  0  0  0  0  0  0  0
    9.4379  -16.2532   21.7930 N   0  0  0  0  0  0  0  0  0  0  0  0
    9.7961  -16.7497   20.5281 C   0  0  1  0  0  0  0  0  0  0  0  0
    9.5772  -15.7773   19.3809 C   0  0  0  0  0  0  0  0  0  0  0  0
    8.7067  -14.6508   19.8039 C   0  0  0  0  0  0  0  0  0  0  0  0
    7.3419  -14.9236   19.8666 C   0  0  0  0  0  0  0  0  0  0  0  0
    6.4597  -13.9618   20.2507 C   0  0  0  0  0  0  0  0  0  0  0  0
    6.9592  -12.7149   20.5753 C   0  0  0  0  0  0  0  0  0  0  0  0
    8.3064  -12.4391   20.5174 C   0  0  0  0  0  0  0  0  0  0  0  0
    9.2029  -13.4088   20.1278 C   0  0  0  0  0  0  0  0  0  0  0  0
   11.0818  -17.4260   20.3713 C   0  0  0  0  0  0  0  0  0  0  0  0
   11.6592  -17.3285   19.2349 O   0  0  0  0  0  0  0  0  0  0  0  0
   14.5376  -17.0852   21.9472 C   0  0  0  0  0  0  0  0  0  0  0  0
   14.1237  -18.5224   22.0149 C   0  0  1  0  0  0  0  0  0  0  0  0
   13.6803  -18.8085   23.3010 O   0  0  0  0  0  0  0  0  0  0  0  0
   13.0664  -18.8105   21.0114 C   0  0  2  0  0  0  0  0  0  0  0  0
   11.7806  -18.1912   21.3394 N   0  0  0  0  0  0  0  0  0  0  0  0
   12.8728  -20.2732   20.7423 C   0  0  0  0  0  0  0  0  0  0  0  0
   11.7754  -20.8451   20.9449 O   0  0  0  0  0  0  0  0  0  0  0  0
   13.8830  -21.0974   20.2576 O   0  0  0  0  0  0  0  0  0  0  0  0
  2  1  1  6
  2  3  1  0
  3  4  1  0
  4  5  2  0
  5  6  1  0
  7  6  1  0
  8  7  2  0
  9  8  1  0
 10 11  1  0
 10  9  2  0
 11 12  2  0
 12  4  1  0
 12  7  1  0
 13  2  1  0
 13 14  2  0
 15 13  1  0
 16 15  1  0
 16 17  1  6
 18 23  1  0
 18 17  1  0
 19 18  2  0
 20 21  2  0
 20 19  1  0
 21 22  1  0
 22 23  2  0
 24 16  1  0
 25 24  2  0
 27 26  1  1
 27 28  1  0
 29 30  1  1
 29 27  1  0
 30 24  1  0
 31 29  1  0
 32 31  2  0
 33 31  1  0
M  END
$$$$
