WFT.pdb
     RDKit          3D

 33 35  0  0  1  0  0  0  0  0999 V2000
    8.3455  -16.9723   21.8732 N   0  0  0  0  0  0  0  0  0  0  0  0
    8.5331  -15.6597   22.4365 C   0  0  1  0  0  0  0  0  0  0  0  0
    7.2835  -14.8489   22.1481 C   0  0  0  0  0  0  0  0  0  0  0  0
    7.1202  -14.6777   20.6811 C   0  0  0  0  0  0  0  0  0  0  0  0
    6.3837  -15.4699   19.8162 C   0  0  0  0  0  0  0  0  0  0  0  0
    6.4976  -14.9658   18.5948 N   0  0  0  0  0  0  0  0  0  0  0  0
    7.2886  -13.8580   18.6070 C   0  0  0  0  0  0  0  0  0  0  0  0
    7.6965  -13.0102   17.5992 C   0  0  0  0  0  0  0  0  0  0  0  0
    8.5143  -11.9452   17.8663 C   0  0  0  0  0  0  0  0  0  0  0  0
    8.9117  -11.7541   19.1744 C   0  0  0  0  0  0  0  0  0  0  0  0
    8.5060  -12.5970   20.1797 C   0  0  0  0  0  0  0  0  0  0  0  0
    7.6712  -13.6899   19.9235 C   0  0  0  0  0  0  0  0  0  0  0  0
    8.9021  -15.7277   23.8572 C   0  0  0  0  0  0  0  0  0  0  0  0
    9.8241  -14.9930   24.3376 O   0  0  0  0  0  0  0  0  0  0  0  0
    8.2895  -16.6023   24.8176 N   0  0  0  0  0  0  0  0  0  0  0  0
    8.6842  -16.6302   26.1660 C   0  0  1  0  0  0  0  0  0  0  0  0
    7.6367  -16.1229   27.1432 C   0  0  0  0  0  0  0  0  0  0  0  0
    7.4112  -14.6659   26.9643 C   0  0  0  0  0  0  0  0  0  0  0  0
    8.4307  -13.8300   27.4151 C   0  0  0  0  0  0  0  0  0  0  0  0
    8.3256  -12.4794   27.2905 C   0  0  0  0  0  0  0  0  0  0  0  0
    7.1829  -11.9682   26.7052 C   0  0  0  0  0  0  0  0  0  0  0  0
    6.1728  -12.7882   26.2561 C   0  0  0  0  0  0  0  0  0  0  0  0
    6.2739  -14.1556   26.3813 C   0  0  0  0  0  0  0  0  0  0  0  0
    9.3165  -17.8372   26.6936 C   0  0  0  0  0  0  0  0  0  0  0  0
    8.5511  -18.8186   26.9856 O   0  0  0  0  0  0  0  0  0  0  0  0
   11.5285  -20.0344   24.9539 C   0  0  0  0  0  0  0  0  0  0  0  0
   12.1502  -19.9482   26.3132 C   0  0  1  0  0  0  0  0  0  0  0  0
   13.2964  -19.1649   26.2409 O   0  0  0  0  0  0  0  0  0  0  0  0
   11.1854  -19.3897   27.2956 C   0  0  2  0  0  0  0  0  0  0  0  0
   10.6976  -18.0591   26.9272 N   0  0  0  0  0  0  0  0  0  0  0  0
   11.7014  -19.3706   28.7037 C   0  0  0  0  0  0  0  0  0  0  0  0
   11.7535  -18.3138   29.3766 O   0  0  0  0  0  0  0  0  0  0  0  0
   12.1592  -20.5078   29.3612 O   0  0  0  0  0  0  0  0  0  0  0  0
  2  1  1  1
  2  3  1  0
  3  4  1  0
  4  5  2  0
  5  6  1  0
  7  6  1  0
  8  7  2  0
  9  8  1  0
 10 11  1  0
 10  9  2  0
 11 12  2  0
 12  4  1  0
 12  7  1  0
 13  2  1  0
 13 14  2  0
 15 13  1  0
 16 15  1  0
 16 17  1  1
 18 23  1  0
 18 17  1  0
 19 18  2  0
 20 21  2  0
 20 19  1  0
 21 22  1  0
 22 23  2  0
 24 16  1  0
 25 24  2  0
 27 26  1  6
 27 28  1  0
 29 30  1  6
 29 27  1  0
 30 24  1  0
 31 29  1  0
 32 31  2  0
 33 31  1  0
M  END
$$$$
