WFT.pdb
     RDKit          3D

 33 35  0  0  1  0  0  0  0  0999 V2000
    6.2177  -17.9436   22.0428 N   0  0  0  0  0  0  0  0  0  0  0  0
    7.6534  -17.8274   22.0142 C   0  0  1  0  0  0  0  0  0  0  0  0
    8.0387  -17.1676   20.7034 C   0  0  0  0  0  0  0  0  0  0  0  0
    7.3430  -15.8611   20.5722 C   0  0  0  0  0  0  0  0  0  0  0  0
    5.9815  -15.6389   20.4506 C   0  0  0  0  0  0  0  0  0  0  0  0
    5.7815  -14.3305   20.3663 N   0  0  0  0  0  0  0  0  0  0  0  0
    6.9656  -13.6614   20.4265 C   0  0  0  0  0  0  0  0  0  0  0  0
    7.2635  -12.3163   20.3750 C   0  0  0  0  0  0  0  0  0  0  0  0
    8.5593  -11.8812   20.4513 C   0  0  0  0  0  0  0  0  0  0  0  0
    9.5492  -12.8345   20.5812 C   0  0  0  0  0  0  0  0  0  0  0  0
    9.2545  -14.1748   20.6334 C   0  0  0  0  0  0  0  0  0  0  0  0
    7.9360  -14.6358   20.5559 C   0  0  0  0  0  0  0  0  0  0  0  0
    8.1659  -17.1492   23.2128 C   0  0  0  0  0  0  0  0  0  0  0  0
    9.2803  -16.5339   23.1997 O   0  0  0  0  0  0  0  0  0  0  0  0
    7.4926  -17.1153   24.4809 N   0  0  0  0  0  0  0  0  0  0  0  0
    8.1309  -16.6891   25.6581 C   0  0  1  0  0  0  0  0  0  0  0  0
    7.2135  -16.0232   26.6704 C   0  0  0  0  0  0  0  0  0  0  0  0
    7.0650  -14.5755   26.3744 C   0  0  0  0  0  0  0  0  0  0  0  0
    8.1616  -13.7732   26.6829 C   0  0  0  0  0  0  0  0  0  0  0  0
    8.1303  -12.4345   26.4430 C   0  0  0  0  0  0  0  0  0  0  0  0
    6.9835  -11.9012   25.8862 C   0  0  0  0  0  0  0  0  0  0  0  0
    5.8973  -12.6882   25.5773 C   0  0  0  0  0  0  0  0  0  0  0  0
    5.9237  -14.0433   25.8196 C   0  0  0  0  0  0  0  0  0  0  0  0
    9.0454  -17.6034   26.3383 C   0  0  0  0  0  0  0  0  0  0  0  0
    8.5251  -18.5240   27.0566 O   0  0  0  0  0  0  0  0  0  0  0  0
   12.3375  -19.4279   25.0546 C   0  0  0  0  0  0  0  0  0  0  0  0
   12.5374  -18.9120   26.4458 C   0  0  1  0  0  0  0  0  0  0  0  0
   13.3711  -17.8004   26.4038 O   0  0  0  0  0  0  0  0  0  0  0  0
   11.2326  -18.5748   27.0716 C   0  0  2  0  0  0  0  0  0  0  0  0
   10.4630  -17.5959   26.3010 N   0  0  0  0  0  0  0  0  0  0  0  0
   11.3462  -18.1241   28.4976 C   0  0  0  0  0  0  0  0  0  0  0  0
   10.8975  -17.0178   28.8811 O   0  0  0  0  0  0  0  0  0  0  0  0
   11.9532  -18.8868   29.4900 O   0  0  0  0  0  0  0  0  0  0  0  0
  2  1  1  1
  2  3  1  0
  3  4  1  0
  4  5  2  0
  5  6  1  0
  7  6  1  0
  8  7  2  0
  9  8  1  0
 10 11  1  0
 10  9  2  0
 11 12  2  0
 12  4  1  0
 12  7  1  0
 13  2  1  0
 13 14  2  0
 15 13  1  0
 16 15  1  0
 16 17  1  1
 18 23  1  0
 18 17  1  0
 19 18  2  0
 20 21  2  0
 20 19  1  0
 21 22  1  0
 22 23  2  0
 24 16  1  0
 25 24  2  0
 27 26  1  6
 27 28  1  0
 29 30  1  6
 29 27  1  0
 30 24  1  0
 31 29  1  0
 32 31  2  0
 33 31  1  0
M  END
$$$$
