WFT.pdb
     RDKit          3D

 33 35  0  0  1  0  0  0  0  0999 V2000
   10.6706  -18.3317   20.4550 N   0  0  0  0  0  0  0  0  0  0  0  0
   10.0439  -17.1322   20.9492 C   0  0  1  0  0  0  0  0  0  0  0  0
    8.6603  -17.0447   20.3327 C   0  0  0  0  0  0  0  0  0  0  0  0
    8.3358  -15.6289   20.0194 C   0  0  0  0  0  0  0  0  0  0  0  0
    8.3292  -15.0205   18.7753 C   0  0  0  0  0  0  0  0  0  0  0  0
    7.9776  -13.7519   18.9369 N   0  0  0  0  0  0  0  0  0  0  0  0
    7.7471  -13.4837   20.2515 C   0  0  0  0  0  0  0  0  0  0  0  0
    7.3707  -12.3268   20.9000 C   0  0  0  0  0  0  0  0  0  0  0  0
    7.2048  -12.3064   22.2589 C   0  0  0  0  0  0  0  0  0  0  0  0
    7.4269  -13.4807   22.9497 C   0  0  0  0  0  0  0  0  0  0  0  0
    7.8011  -14.6343   22.3054 C   0  0  0  0  0  0  0  0  0  0  0  0
    7.9756  -14.6717   20.9180 C   0  0  0  0  0  0  0  0  0  0  0  0
   10.0627  -17.0767   22.4174 C   0  0  0  0  0  0  0  0  0  0  0  0
   10.4578  -18.0674   23.1123 O   0  0  0  0  0  0  0  0  0  0  0  0
    9.6465  -15.9437   23.1957 N   0  0  0  0  0  0  0  0  0  0  0  0
    9.9402  -15.8253   24.5649 C   0  0  1  0  0  0  0  0  0  0  0  0
    9.4005  -14.5656   25.2218 C   0  0  0  0  0  0  0  0  0  0  0  0
    9.7330  -14.5424   26.6690 C   0  0  0  0  0  0  0  0  0  0  0  0
    8.6748  -14.2740   27.5347 C   0  0  0  0  0  0  0  0  0  0  0  0
    8.8721  -14.2379   28.8802 C   0  0  0  0  0  0  0  0  0  0  0  0
   10.1476  -14.4757   29.3561 C   0  0  0  0  0  0  0  0  0  0  0  0
   11.1971  -14.7432   28.5067 C   0  0  0  0  0  0  0  0  0  0  0  0
   11.0025  -14.7794   27.1442 C   0  0  0  0  0  0  0  0  0  0  0  0
    9.7218  -16.9766   25.4377 C   0  0  0  0  0  0  0  0  0  0  0  0
    8.5124  -17.2623   25.7375 O   0  0  0  0  0  0  0  0  0  0  0  0
    9.8432  -20.4889   24.9202 C   0  0  0  0  0  0  0  0  0  0  0  0
   10.6482  -20.2859   26.1662 C   0  0  1  0  0  0  0  0  0  0  0  0
   12.0005  -20.3405   25.8485 O   0  0  0  0  0  0  0  0  0  0  0  0
   10.3041  -18.9899   26.8063 C   0  0  2  0  0  0  0  0  0  0  0  0
   10.7017  -17.8309   26.0044 N   0  0  0  0  0  0  0  0  0  0  0  0
   10.8325  -18.8479   28.2028 C   0  0  0  0  0  0  0  0  0  0  0  0
   11.6128  -17.9208   28.5254 O   0  0  0  0  0  0  0  0  0  0  0  0
   10.5051  -19.7240   29.2324 O   0  0  0  0  0  0  0  0  0  0  0  0
  2  1  1  1
  2  3  1  0
  3  4  1  0
  4  5  2  0
  5  6  1  0
  7  6  1  0
  8  7  2  0
  9  8  1  0
 10 11  1  0
 10  9  2  0
 11 12  2  0
 12  4  1  0
 12  7  1  0
 13  2  1  0
 13 14  2  0
 15 13  1  0
 16 15  1  0
 16 17  1  1
 18 23  1  0
 18 17  1  0
 19 18  2  0
 20 21  2  0
 20 19  1  0
 21 22  1  0
 22 23  2  0
 24 16  1  0
 25 24  2  0
 27 26  1  6
 27 28  1  0
 29 30  1  6
 29 27  1  0
 30 24  1  0
 31 29  1  0
 32 31  2  0
 33 31  1  0
M  END
$$$$
