WFT.pdb
     RDKit          3D

 33 35  0  0  1  0  0  0  0  0999 V2000
   10.8217  -17.2679   20.6068 N   0  0  0  0  0  0  0  0  0  0  0  0
    9.6829  -16.5443   21.1120 C   0  0  1  0  0  0  0  0  0  0  0  0
    8.4377  -17.1462   20.4882 C   0  0  0  0  0  0  0  0  0  0  0  0
    7.8500  -16.1919   19.5125 C   0  0  0  0  0  0  0  0  0  0  0  0
    7.1090  -16.4912   18.3815 C   0  0  0  0  0  0  0  0  0  0  0  0
    6.7707  -15.3509   17.7946 N   0  0  0  0  0  0  0  0  0  0  0  0
    7.2606  -14.2903   18.4934 C   0  0  0  0  0  0  0  0  0  0  0  0
    7.1763  -12.9312   18.2778 C   0  0  0  0  0  0  0  0  0  0  0  0
    7.7698  -12.0462   19.1375 C   0  0  0  0  0  0  0  0  0  0  0  0
    8.4508  -12.5636   20.2211 C   0  0  0  0  0  0  0  0  0  0  0  0
    8.5352  -13.9170   20.4380 C   0  0  0  0  0  0  0  0  0  0  0  0
    7.9352  -14.8344   19.5689 C   0  0  0  0  0  0  0  0  0  0  0  0
    9.6729  -16.5073   22.5809 C   0  0  0  0  0  0  0  0  0  0  0  0
   10.5850  -17.0750   23.2637 O   0  0  0  0  0  0  0  0  0  0  0  0
    8.6669  -15.8567   23.3731 N   0  0  0  0  0  0  0  0  0  0  0  0
    8.8994  -15.4569   24.7001 C   0  0  1  0  0  0  0  0  0  0  0  0
    7.9600  -14.3764   25.2097 C   0  0  0  0  0  0  0  0  0  0  0  0
    8.3178  -13.9778   26.5950 C   0  0  0  0  0  0  0  0  0  0  0  0
    9.4223  -14.6210   27.1497 C   0  0  0  0  0  0  0  0  0  0  0  0
    9.8375  -14.3221   28.4102 C   0  0  0  0  0  0  0  0  0  0  0  0
    9.1331  -13.3656   29.1163 C   0  0  0  0  0  0  0  0  0  0  0  0
    8.0423  -12.7251   28.5738 C   0  0  0  0  0  0  0  0  0  0  0  0
    7.6174  -13.0252   27.2990 C   0  0  0  0  0  0  0  0  0  0  0  0
    9.0858  -16.4810   25.7255 C   0  0  0  0  0  0  0  0  0  0  0  0
    8.0467  -16.8673   26.3621 O   0  0  0  0  0  0  0  0  0  0  0  0
    9.9619  -19.8504   25.0306 C   0  0  0  0  0  0  0  0  0  0  0  0
   10.8160  -19.5133   26.2132 C   0  0  1  0  0  0  0  0  0  0  0  0
   12.1191  -19.2882   25.7843 O   0  0  0  0  0  0  0  0  0  0  0  0
   10.2780  -18.3257   26.9259 C   0  0  2  0  0  0  0  0  0  0  0  0
   10.2974  -17.1099   26.1100 N   0  0  0  0  0  0  0  0  0  0  0  0
   10.9403  -18.0632   28.2458 C   0  0  0  0  0  0  0  0  0  0  0  0
   11.5881  -17.0123   28.4652 O   0  0  0  0  0  0  0  0  0  0  0  0
   10.8907  -18.9552   29.3121 O   0  0  0  0  0  0  0  0  0  0  0  0
  2  1  1  1
  2  3  1  0
  3  4  1  0
  4  5  2  0
  5  6  1  0
  7  6  1  0
  8  7  2  0
  9  8  1  0
 10 11  1  0
 10  9  2  0
 11 12  2  0
 12  4  1  0
 12  7  1  0
 13  2  1  0
 13 14  2  0
 15 13  1  0
 16 15  1  0
 16 17  1  1
 18 23  1  0
 18 17  1  0
 19 18  2  0
 20 21  2  0
 20 19  1  0
 21 22  1  0
 22 23  2  0
 24 16  1  0
 25 24  2  0
 27 26  1  6
 27 28  1  0
 29 30  1  6
 29 27  1  0
 30 24  1  0
 31 29  1  0
 32 31  2  0
 33 31  1  0
M  END
$$$$
