WFT.pdb
     RDKit          3D

 33 35  0  0  1  0  0  0  0  0999 V2000
    8.4887  -17.5944   20.6368 N   0  0  0  0  0  0  0  0  0  0  0  0
    9.7876  -17.2142   21.1307 C   0  0  1  0  0  0  0  0  0  0  0  0
   10.4447  -16.3390   20.0799 C   0  0  0  0  0  0  0  0  0  0  0  0
    9.4051  -15.6115   19.3066 C   0  0  0  0  0  0  0  0  0  0  0  0
    8.8359  -15.9842   18.1004 C   0  0  0  0  0  0  0  0  0  0  0  0
    7.9466  -15.0612   17.7596 N   0  0  0  0  0  0  0  0  0  0  0  0
    7.8975  -14.0758   18.6976 C   0  0  0  0  0  0  0  0  0  0  0  0
    7.1454  -12.9232   18.7796 C   0  0  0  0  0  0  0  0  0  0  0  0
    7.2826  -12.0700   19.8415 C   0  0  0  0  0  0  0  0  0  0  0  0
    8.1963  -12.4060   20.8202 C   0  0  0  0  0  0  0  0  0  0  0  0
    8.9458  -13.5540   20.7407 C   0  0  0  0  0  0  0  0  0  0  0  0
    8.8183  -14.4357   19.6622 C   0  0  0  0  0  0  0  0  0  0  0  0
    9.7027  -16.6058   22.4656 C   0  0  0  0  0  0  0  0  0  0  0  0
   10.7447  -16.2085   23.0795 O   0  0  0  0  0  0  0  0  0  0  0  0
    8.4815  -16.4082   23.1952 N   0  0  0  0  0  0  0  0  0  0  0  0
    8.4608  -15.8596   24.4888 C   0  0  1  0  0  0  0  0  0  0  0  0
    7.1798  -15.1229   24.8439 C   0  0  0  0  0  0  0  0  0  0  0  0
    7.3634  -14.3091   26.0725 C   0  0  0  0  0  0  0  0  0  0  0  0
    7.7524  -12.9857   25.8762 C   0  0  0  0  0  0  0  0  0  0  0  0
    7.9398  -12.1538   26.9362 C   0  0  0  0  0  0  0  0  0  0  0  0
    7.7320  -12.6613   28.2046 C   0  0  0  0  0  0  0  0  0  0  0  0
    7.3460  -13.9671   28.4057 C   0  0  0  0  0  0  0  0  0  0  0  0
    7.1564  -14.8132   27.3361 C   0  0  0  0  0  0  0  0  0  0  0  0
    8.8905  -16.6856   25.6149 C   0  0  0  0  0  0  0  0  0  0  0  0
    8.0547  -17.5419   26.0647 O   0  0  0  0  0  0  0  0  0  0  0  0
   11.5458  -19.0966   25.5559 C   0  0  0  0  0  0  0  0  0  0  0  0
   11.7095  -18.4488   26.8958 C   0  0  1  0  0  0  0  0  0  0  0  0
   12.8236  -17.6178   26.8667 O   0  0  0  0  0  0  0  0  0  0  0  0
   10.4872  -17.6872   27.2618 C   0  0  2  0  0  0  0  0  0  0  0  0
   10.1408  -16.6543   26.2834 N   0  0  0  0  0  0  0  0  0  0  0  0
   10.5383  -17.0893   28.6364 C   0  0  0  0  0  0  0  0  0  0  0  0
   10.4906  -15.8502   28.8227 O   0  0  0  0  0  0  0  0  0  0  0  0
   10.6450  -17.8529   29.7942 O   0  0  0  0  0  0  0  0  0  0  0  0
  2  1  1  6
  2  3  1  0
  3  4  1  0
  4  5  2  0
  5  6  1  0
  7  6  1  0
  8  7  2  0
  9  8  1  0
 10 11  1  0
 10  9  2  0
 11 12  2  0
 12  4  1  0
 12  7  1  0
 13  2  1  0
 13 14  2  0
 15 13  1  0
 16 15  1  0
 16 17  1  1
 18 23  1  0
 18 17  1  0
 19 18  2  0
 20 21  2  0
 20 19  1  0
 21 22  1  0
 22 23  2  0
 24 16  1  0
 25 24  2  0
 27 26  1  6
 27 28  1  0
 29 30  1  6
 29 27  1  0
 30 24  1  0
 31 29  1  0
 32 31  2  0
 33 31  1  0
M  END
$$$$
