WFT.pdb
     RDKit          3D

 33 35  0  0  1  0  0  0  0  0999 V2000
    6.5536  -17.9418   20.7451 N   0  0  0  0  0  0  0  0  0  0  0  0
    6.1902  -17.9874   22.1384 C   0  0  1  0  0  0  0  0  0  0  0  0
    6.0621  -19.4460   22.5362 C   0  0  0  0  0  0  0  0  0  0  0  0
    4.6389  -19.7704   22.8140 C   0  0  0  0  0  0  0  0  0  0  0  0
    4.1252  -20.4408   23.9115 C   0  0  0  0  0  0  0  0  0  0  0  0
    2.8082  -20.5131   23.7733 N   0  0  0  0  0  0  0  0  0  0  0  0
    2.4156  -19.9131   22.6160 C   0  0  0  0  0  0  0  0  0  0  0  0
    1.1717  -19.7429   22.0464 C   0  0  0  0  0  0  0  0  0  0  0  0
    1.0315  -19.0968   20.8475 C   0  0  0  0  0  0  0  0  0  0  0  0
    2.1755  -18.6254   20.2355 C   0  0  0  0  0  0  0  0  0  0  0  0
    3.4153  -18.7933   20.8016 C   0  0  0  0  0  0  0  0  0  0  0  0
    3.5759  -19.4517   22.0255 C   0  0  0  0  0  0  0  0  0  0  0  0
    7.1209  -17.2084   22.9667 C   0  0  0  0  0  0  0  0  0  0  0  0
    8.3473  -17.0862   22.6481 O   0  0  0  0  0  0  0  0  0  0  0  0
    6.7609  -16.5328   24.1819 N   0  0  0  0  0  0  0  0  0  0  0  0
    7.7209  -15.9709   25.0406 C   0  0  1  0  0  0  0  0  0  0  0  0
    7.1453  -15.2378   26.2409 C   0  0  0  0  0  0  0  0  0  0  0  0
    8.2231  -14.5813   27.0238 C   0  0  0  0  0  0  0  0  0  0  0  0
    8.7005  -15.2932   28.1223 C   0  0  0  0  0  0  0  0  0  0  0  0
    9.6931  -14.7833   28.9005 C   0  0  0  0  0  0  0  0  0  0  0  0
   10.2088  -13.5454   28.5668 C   0  0  0  0  0  0  0  0  0  0  0  0
    9.7431  -12.8376   27.4821 C   0  0  0  0  0  0  0  0  0  0  0  0
    8.7377  -13.3488   26.6924 C   0  0  0  0  0  0  0  0  0  0  0  0
    8.8639  -16.7827   25.4522 C   0  0  0  0  0  0  0  0  0  0  0  0
    8.6225  -17.8082   26.1764 O   0  0  0  0  0  0  0  0  0  0  0  0
   11.3543  -18.3093   23.0910 C   0  0  0  0  0  0  0  0  0  0  0  0
   12.1363  -17.8755   24.2919 C   0  0  1  0  0  0  0  0  0  0  0  0
   12.8813  -16.7477   23.9671 O   0  0  0  0  0  0  0  0  0  0  0  0
   11.2290  -17.6021   25.4365 C   0  0  2  0  0  0  0  0  0  0  0  0
   10.2318  -16.5705   25.1440 N   0  0  0  0  0  0  0  0  0  0  0  0
   11.9482  -17.2682   26.7096 C   0  0  0  0  0  0  0  0  0  0  0  0
   11.8222  -16.1533   27.2695 O   0  0  0  0  0  0  0  0  0  0  0  0
   12.8015  -18.1562   27.3562 O   0  0  0  0  0  0  0  0  0  0  0  0
  2  1  1  6
  2  3  1  0
  3  4  1  0
  4  5  2  0
  5  6  1  0
  7  6  1  0
  8  7  2  0
  9  8  1  0
 10 11  1  0
 10  9  2  0
 11 12  2  0
 12  4  1  0
 12  7  1  0
 13  2  1  0
 13 14  2  0
 15 13  1  0
 16 15  1  0
 16 17  1  1
 18 23  1  0
 18 17  1  0
 19 18  2  0
 20 21  2  0
 20 19  1  0
 21 22  1  0
 22 23  2  0
 24 16  1  0
 25 24  2  0
 27 26  1  6
 27 28  1  0
 29 30  1  6
 29 27  1  0
 30 24  1  0
 31 29  1  0
 32 31  2  0
 33 31  1  0
M  END
$$$$
