WFT.pdb
     RDKit          3D

 33 35  0  0  1  0  0  0  0  0999 V2000
    8.2364  -20.5814   26.9410 N   0  0  0  0  0  0  0  0  0  0  0  0
    8.4480  -19.1564   26.9278 C   0  0  1  0  0  0  0  0  0  0  0  0
    9.9181  -18.9038   27.2053 C   0  0  0  0  0  0  0  0  0  0  0  0
   10.0623  -17.9725   28.3542 C   0  0  0  0  0  0  0  0  0  0  0  0
   10.2587  -18.2994   29.6856 C   0  0  0  0  0  0  0  0  0  0  0  0
   10.3417  -17.1729   30.3806 N   0  0  0  0  0  0  0  0  0  0  0  0
   10.2068  -16.0947   29.5605 C   0  0  0  0  0  0  0  0  0  0  0  0
   10.2176  -14.7399   29.8162 C   0  0  0  0  0  0  0  0  0  0  0  0
   10.0525  -13.8334   28.8036 C   0  0  0  0  0  0  0  0  0  0  0  0
    9.8764  -14.3247   27.5256 C   0  0  0  0  0  0  0  0  0  0  0  0
    9.8660  -15.6737   27.2687 C   0  0  0  0  0  0  0  0  0  0  0  0
   10.0325  -16.6129   28.2921 C   0  0  0  0  0  0  0  0  0  0  0  0
    7.9471  -18.5459   25.6886 C   0  0  0  0  0  0  0  0  0  0  0  0
    8.2818  -18.9969   24.5462 O   0  0  0  0  0  0  0  0  0  0  0  0
    7.0650  -17.4137   25.6363 N   0  0  0  0  0  0  0  0  0  0  0  0
    7.2576  -16.3537   24.7340 C   0  0  1  0  0  0  0  0  0  0  0  0
    6.7461  -15.0076   25.2199 C   0  0  0  0  0  0  0  0  0  0  0  0
    6.9159  -13.9698   24.1712 C   0  0  0  0  0  0  0  0  0  0  0  0
    7.2455  -12.6935   24.6224 C   0  0  0  0  0  0  0  0  0  0  0  0
    7.4310  -11.6734   23.7417 C   0  0  0  0  0  0  0  0  0  0  0  0
    7.2837  -11.9438   22.3946 C   0  0  0  0  0  0  0  0  0  0  0  0
    6.9599  -13.2026   21.9418 C   0  0  0  0  0  0  0  0  0  0  0  0
    6.7698  -14.2378   22.8294 C   0  0  0  0  0  0  0  0  0  0  0  0
    8.5641  -16.1923   24.1001 C   0  0  0  0  0  0  0  0  0  0  0  0
    9.4980  -15.6802   24.8070 O   0  0  0  0  0  0  0  0  0  0  0  0
   10.4025  -19.1397   22.0116 C   0  0  0  0  0  0  0  0  0  0  0  0
   10.5473  -17.7822   21.3971 C   0  0  1  0  0  0  0  0  0  0  0  0
    9.6372  -17.6550   20.3540 O   0  0  0  0  0  0  0  0  0  0  0  0
   10.3394  -16.7213   22.4167 C   0  0  2  0  0  0  0  0  0  0  0  0
    8.9313  -16.5383   22.7747 N   0  0  0  0  0  0  0  0  0  0  0  0
   10.9458  -15.4008   22.0452 C   0  0  0  0  0  0  0  0  0  0  0  0
   12.1730  -15.2742   21.8212 O   0  0  0  0  0  0  0  0  0  0  0  0
   10.2040  -14.2301   21.9259 O   0  0  0  0  0  0  0  0  0  0  0  0
  2  1  1  6
  2  3  1  0
  3  4  1  0
  4  5  2  0
  5  6  1  0
  7  6  1  0
  8  7  2  0
  9  8  1  0
 10 11  1  0
 10  9  2  0
 11 12  2  0
 12  4  1  0
 12  7  1  0
 13  2  1  0
 13 14  2  0
 15 13  1  0
 16 15  1  0
 16 17  1  1
 18 23  1  0
 18 17  1  0
 19 18  2  0
 20 21  2  0
 20 19  1  0
 21 22  1  0
 22 23  2  0
 24 16  1  0
 25 24  2  0
 27 26  1  1
 27 28  1  0
 29 30  1  6
 29 27  1  0
 30 24  1  0
 31 29  1  0
 32 31  2  0
 33 31  1  0
M  END
$$$$
