WFT.pdb
     RDKit          3D

 33 35  0  0  1  0  0  0  0  0999 V2000
    9.6952  -16.0634   19.7136 N   0  0  0  0  0  0  0  0  0  0  0  0
    9.4180  -16.8307   20.9011 C   0  0  1  0  0  0  0  0  0  0  0  0
   10.1607  -18.1486   20.7849 C   0  0  0  0  0  0  0  0  0  0  0  0
    9.5700  -18.9666   19.6940 C   0  0  0  0  0  0  0  0  0  0  0  0
    9.7553  -18.8137   18.3301 C   0  0  0  0  0  0  0  0  0  0  0  0
    9.0555  -19.7540   17.7094 N   0  0  0  0  0  0  0  0  0  0  0  0
    8.4024  -20.5371   18.6112 C   0  0  0  0  0  0  0  0  0  0  0  0
    7.5633  -21.6190   18.4496 C   0  0  0  0  0  0  0  0  0  0  0  0
    7.0139  -22.2490   19.5339 C   0  0  0  0  0  0  0  0  0  0  0  0
    7.3306  -21.7629   20.7864 C   0  0  0  0  0  0  0  0  0  0  0  0
    8.1668  -20.6858   20.9496 C   0  0  0  0  0  0  0  0  0  0  0  0
    8.7356  -20.0306   19.8523 C   0  0  0  0  0  0  0  0  0  0  0  0
    9.7161  -16.0675   22.1209 C   0  0  0  0  0  0  0  0  0  0  0  0
   10.8183  -15.4460   22.2602 O   0  0  0  0  0  0  0  0  0  0  0  0
    8.8315  -15.9515   23.2464 N   0  0  0  0  0  0  0  0  0  0  0  0
    9.2942  -15.6326   24.5344 C   0  0  1  0  0  0  0  0  0  0  0  0
    8.2253  -15.1100   25.4799 C   0  0  0  0  0  0  0  0  0  0  0  0
    8.8150  -14.7507   26.7948 C   0  0  0  0  0  0  0  0  0  0  0  0
    8.7607  -15.7360   27.7784 C   0  0  0  0  0  0  0  0  0  0  0  0
    9.2801  -15.5100   29.0152 C   0  0  0  0  0  0  0  0  0  0  0  0
    9.8602  -14.2801   29.2611 C   0  0  0  0  0  0  0  0  0  0  0  0
    9.9189  -13.3029   28.2935 C   0  0  0  0  0  0  0  0  0  0  0  0
    9.3932  -13.5265   27.0408 C   0  0  0  0  0  0  0  0  0  0  0  0
   10.1567  -16.5835   25.2323 C   0  0  0  0  0  0  0  0  0  0  0  0
    9.5857  -17.5407   25.8584 O   0  0  0  0  0  0  0  0  0  0  0  0
   12.6751  -18.6897   23.6169 C   0  0  0  0  0  0  0  0  0  0  0  0
   13.3148  -18.2677   24.9031 C   0  0  1  0  0  0  0  0  0  0  0  0
   14.2949  -17.3190   24.6344 O   0  0  0  0  0  0  0  0  0  0  0  0
   12.2968  -17.7294   25.8422 C   0  0  2  0  0  0  0  0  0  0  0  0
   11.5730  -16.5760   25.3036 N   0  0  0  0  0  0  0  0  0  0  0  0
   12.8432  -17.3989   27.1992 C   0  0  0  0  0  0  0  0  0  0  0  0
   12.8339  -16.2291   27.6509 O   0  0  0  0  0  0  0  0  0  0  0  0
   13.3981  -18.3510   28.0480 O   0  0  0  0  0  0  0  0  0  0  0  0
  2  1  1  6
  2  3  1  0
  3  4  1  0
  4  5  2  0
  5  6  1  0
  7  6  1  0
  8  7  2  0
  9  8  1  0
 10 11  1  0
 10  9  2  0
 11 12  2  0
 12  4  1  0
 12  7  1  0
 13  2  1  0
 13 14  2  0
 15 13  1  0
 16 15  1  0
 16 17  1  1
 18 23  1  0
 18 17  1  0
 19 18  2  0
 20 21  2  0
 20 19  1  0
 21 22  1  0
 22 23  2  0
 24 16  1  0
 25 24  2  0
 27 26  1  6
 27 28  1  0
 29 30  1  6
 29 27  1  0
 30 24  1  0
 31 29  1  0
 32 31  2  0
 33 31  1  0
M  END
$$$$
