WFT.pdb
     RDKit          3D

 33 35  0  0  1  0  0  0  0  0999 V2000
   10.4362  -16.1078   21.3991 N   0  0  0  0  0  0  0  0  0  0  0  0
    9.2954  -15.8359   22.2359 C   0  0  1  0  0  0  0  0  0  0  0  0
    8.1301  -16.6533   21.7104 C   0  0  0  0  0  0  0  0  0  0  0  0
    7.3485  -15.8494   20.7353 C   0  0  0  0  0  0  0  0  0  0  0  0
    6.2067  -16.2308   20.0507 C   0  0  0  0  0  0  0  0  0  0  0  0
    5.8233  -15.2162   19.2875 N   0  0  0  0  0  0  0  0  0  0  0  0
    6.6709  -14.1610   19.4344 C   0  0  0  0  0  0  0  0  0  0  0  0
    6.6878  -12.9098   18.8557 C   0  0  0  0  0  0  0  0  0  0  0  0
    7.6681  -12.0060   19.1667 C   0  0  0  0  0  0  0  0  0  0  0  0
    8.6319  -12.3931   20.0760 C   0  0  0  0  0  0  0  0  0  0  0  0
    8.6164  -13.6387   20.6540 C   0  0  0  0  0  0  0  0  0  0  0  0
    7.6225  -14.5738   20.3464 C   0  0  0  0  0  0  0  0  0  0  0  0
    9.6017  -16.0528   23.6565 C   0  0  0  0  0  0  0  0  0  0  0  0
   10.7778  -16.3505   24.0422 O   0  0  0  0  0  0  0  0  0  0  0  0
    8.6414  -15.9619   24.7206 N   0  0  0  0  0  0  0  0  0  0  0  0
    9.0049  -16.0895   26.0721 C   0  0  1  0  0  0  0  0  0  0  0  0
    7.9843  -15.5429   27.0567 C   0  0  0  0  0  0  0  0  0  0  0  0
    7.6973  -14.1126   26.7782 C   0  0  0  0  0  0  0  0  0  0  0  0
    6.5262  -13.8512   26.0702 C   0  0  0  0  0  0  0  0  0  0  0  0
    6.1679  -12.5734   25.7708 C   0  0  0  0  0  0  0  0  0  0  0  0
    6.9977  -11.5511   26.1903 C   0  0  0  0  0  0  0  0  0  0  0  0
    8.1551  -11.8021   26.8917 C   0  0  0  0  0  0  0  0  0  0  0  0
    8.5226  -13.0937   27.1957 C   0  0  0  0  0  0  0  0  0  0  0  0
    9.5217  -17.3707   26.5481 C   0  0  0  0  0  0  0  0  0  0  0  0
    8.7515  -18.3860   26.4472 O   0  0  0  0  0  0  0  0  0  0  0  0
   12.9188  -20.7426   27.3517 C   0  0  0  0  0  0  0  0  0  0  0  0
   12.5703  -19.3304   26.9970 C   0  0  1  0  0  0  0  0  0  0  0  0
   12.6972  -19.1614   25.6230 O   0  0  0  0  0  0  0  0  0  0  0  0
   11.1931  -19.0020   27.4482 C   0  0  2  0  0  0  0  0  0  0  0  0
   10.7932  -17.6324   27.1190 N   0  0  0  0  0  0  0  0  0  0  0  0
   10.9576  -19.2644   28.9060 C   0  0  0  0  0  0  0  0  0  0  0  0
   10.6407  -18.3486   29.7018 O   0  0  0  0  0  0  0  0  0  0  0  0
   11.0746  -20.5259   29.4802 O   0  0  0  0  0  0  0  0  0  0  0  0
  2  1  1  6
  2  3  1  0
  3  4  1  0
  4  5  2  0
  5  6  1  0
  7  6  1  0
  8  7  2  0
  9  8  1  0
 10 11  1  0
 10  9  2  0
 11 12  2  0
 12  4  1  0
 12  7  1  0
 13  2  1  0
 13 14  2  0
 15 13  1  0
 16 15  1  0
 16 17  1  1
 18 23  1  0
 18 17  1  0
 19 18  2  0
 20 21  2  0
 20 19  1  0
 21 22  1  0
 22 23  2  0
 24 16  1  0
 25 24  2  0
 27 26  1  6
 27 28  1  0
 29 30  1  1
 29 27  1  0
 30 24  1  0
 31 29  1  0
 32 31  2  0
 33 31  1  0
M  END
$$$$
