WFT.pdb
     RDKit          3D

 33 35  0  0  1  0  0  0  0  0999 V2000
   10.6243  -16.9580   20.6680 N   0  0  0  0  0  0  0  0  0  0  0  0
    9.4423  -16.2858   21.1440 C   0  0  1  0  0  0  0  0  0  0  0  0
    8.2415  -16.9372   20.4841 C   0  0  0  0  0  0  0  0  0  0  0  0
    7.8716  -16.1870   19.2559 C   0  0  0  0  0  0  0  0  0  0  0  0
    7.4652  -16.7087   18.0391 C   0  0  0  0  0  0  0  0  0  0  0  0
    7.2251  -15.6978   17.2148 N   0  0  0  0  0  0  0  0  0  0  0  0
    7.4573  -14.5091   17.8363 C   0  0  0  0  0  0  0  0  0  0  0  0
    7.3543  -13.2070   17.3950 C   0  0  0  0  0  0  0  0  0  0  0  0
    7.6550  -12.1595   18.2236 C   0  0  0  0  0  0  0  0  0  0  0  0
    8.0621  -12.4551   19.5091 C   0  0  0  0  0  0  0  0  0  0  0  0
    8.1647  -13.7514   19.9508 C   0  0  0  0  0  0  0  0  0  0  0  0
    7.8620  -14.8328   19.1166 C   0  0  0  0  0  0  0  0  0  0  0  0
    9.3905  -16.2559   22.6122 C   0  0  0  0  0  0  0  0  0  0  0  0
   10.2550  -16.8685   23.3178 O   0  0  0  0  0  0  0  0  0  0  0  0
    8.3923  -15.5639   23.3787 N   0  0  0  0  0  0  0  0  0  0  0  0
    8.5994  -15.1913   24.7178 C   0  0  1  0  0  0  0  0  0  0  0  0
    7.8272  -13.9590   25.1589 C   0  0  0  0  0  0  0  0  0  0  0  0
    8.1501  -13.6108   26.5661 C   0  0  0  0  0  0  0  0  0  0  0  0
    7.0629  -13.3292   27.3907 C   0  0  0  0  0  0  0  0  0  0  0  0
    7.2503  -13.0069   28.6990 C   0  0  0  0  0  0  0  0  0  0  0  0
    8.5455  -12.9695   29.1794 C   0  0  0  0  0  0  0  0  0  0  0  0
    9.6240  -13.2483   28.3709 C   0  0  0  0  0  0  0  0  0  0  0  0
    9.4394  -13.5735   27.0458 C   0  0  0  0  0  0  0  0  0  0  0  0
    8.5372  -16.2178   25.7558 C   0  0  0  0  0  0  0  0  0  0  0  0
    7.3769  -16.5765   26.1550 O   0  0  0  0  0  0  0  0  0  0  0  0
    8.7297  -19.5160   25.4366 C   0  0  0  0  0  0  0  0  0  0  0  0
    9.6449  -19.3276   26.6064 C   0  0  1  0  0  0  0  0  0  0  0  0
   10.9627  -19.4133   26.1721 O   0  0  0  0  0  0  0  0  0  0  0  0
    9.3868  -18.0224   27.2681 C   0  0  2  0  0  0  0  0  0  0  0  0
    9.6228  -16.8766   26.3873 N   0  0  0  0  0  0  0  0  0  0  0  0
   10.1374  -17.8390   28.5536 C   0  0  0  0  0  0  0  0  0  0  0  0
   10.9307  -16.8837   28.7278 O   0  0  0  0  0  0  0  0  0  0  0  0
   10.0156  -18.7051   29.6353 O   0  0  0  0  0  0  0  0  0  0  0  0
  2  1  1  1
  2  3  1  0
  3  4  1  0
  4  5  2  0
  5  6  1  0
  7  6  1  0
  8  7  2  0
  9  8  1  0
 10 11  1  0
 10  9  2  0
 11 12  2  0
 12  4  1  0
 12  7  1  0
 13  2  1  0
 13 14  2  0
 15 13  1  0
 16 15  1  0
 16 17  1  1
 18 23  1  0
 18 17  1  0
 19 18  2  0
 20 21  2  0
 20 19  1  0
 21 22  1  0
 22 23  2  0
 24 16  1  0
 25 24  2  0
 27 26  1  6
 27 28  1  0
 29 30  1  6
 29 27  1  0
 30 24  1  0
 31 29  1  0
 32 31  2  0
 33 31  1  0
M  END
$$$$
