WFT.pdb
     RDKit          3D

 33 35  0  0  1  0  0  0  0  0999 V2000
    6.1685  -18.3058   22.1159 N   0  0  0  0  0  0  0  0  0  0  0  0
    6.9538  -17.1710   21.7024 C   0  0  1  0  0  0  0  0  0  0  0  0
    6.0659  -16.2760   20.8583 C   0  0  0  0  0  0  0  0  0  0  0  0
    6.9031  -15.3530   20.0489 C   0  0  0  0  0  0  0  0  0  0  0  0
    7.4209  -15.5743   18.7836 C   0  0  0  0  0  0  0  0  0  0  0  0
    8.1028  -14.4961   18.4210 N   0  0  0  0  0  0  0  0  0  0  0  0
    8.0626  -13.5532   19.4021 C   0  0  0  0  0  0  0  0  0  0  0  0
    8.6161  -12.2933   19.4876 C   0  0  0  0  0  0  0  0  0  0  0  0
    8.4354  -11.5219   20.6041 C   0  0  0  0  0  0  0  0  0  0  0  0
    7.6827  -12.0502   21.6336 C   0  0  0  0  0  0  0  0  0  0  0  0
    7.1300  -13.3046   21.5501 C   0  0  0  0  0  0  0  0  0  0  0  0
    7.3058  -14.1057   20.4168 C   0  0  0  0  0  0  0  0  0  0  0  0
    7.5825  -16.5007   22.8490 C   0  0  0  0  0  0  0  0  0  0  0  0
    8.5691  -15.7112   22.6948 O   0  0  0  0  0  0  0  0  0  0  0  0
    7.1706  -16.6641   24.2151 N   0  0  0  0  0  0  0  0  0  0  0  0
    8.0238  -16.3804   25.2951 C   0  0  1  0  0  0  0  0  0  0  0  0
    7.3300  -15.7930   26.5130 C   0  0  0  0  0  0  0  0  0  0  0  0
    7.2294  -14.3156   26.4003 C   0  0  0  0  0  0  0  0  0  0  0  0
    5.9731  -13.8123   26.0692 C   0  0  0  0  0  0  0  0  0  0  0  0
    5.7729  -12.4721   25.9492 C   0  0  0  0  0  0  0  0  0  0  0  0
    6.8491  -11.6328   26.1661 C   0  0  0  0  0  0  0  0  0  0  0  0
    8.0924  -12.1230   26.4952 C   0  0  0  0  0  0  0  0  0  0  0  0
    8.3002  -13.4787   26.6165 C   0  0  0  0  0  0  0  0  0  0  0  0
    8.9968  -17.3876   25.7119 C   0  0  0  0  0  0  0  0  0  0  0  0
    8.5594  -18.3767   26.3935 O   0  0  0  0  0  0  0  0  0  0  0  0
   11.7494  -19.2042   23.5556 C   0  0  0  0  0  0  0  0  0  0  0  0
   12.3058  -18.8479   24.8991 C   0  0  1  0  0  0  0  0  0  0  0  0
   13.1602  -17.7596   24.7642 O   0  0  0  0  0  0  0  0  0  0  0  0
   11.2099  -18.5481   25.8568 C   0  0  2  0  0  0  0  0  0  0  0  0
   10.3907  -17.4043   25.4508 N   0  0  0  0  0  0  0  0  0  0  0  0
   11.6775  -18.3631   27.2698 C   0  0  0  0  0  0  0  0  0  0  0  0
   11.4935  -17.2914   27.8942 O   0  0  0  0  0  0  0  0  0  0  0  0
   12.3455  -19.3515   27.9852 O   0  0  0  0  0  0  0  0  0  0  0  0
  2  1  1  1
  2  3  1  0
  3  4  1  0
  4  5  2  0
  5  6  1  0
  7  6  1  0
  8  7  2  0
  9  8  1  0
 10 11  1  0
 10  9  2  0
 11 12  2  0
 12  4  1  0
 12  7  1  0
 13  2  1  0
 13 14  2  0
 15 13  1  0
 16 15  1  0
 16 17  1  1
 18 23  1  0
 18 17  1  0
 19 18  2  0
 20 21  2  0
 20 19  1  0
 21 22  1  0
 22 23  2  0
 24 16  1  0
 25 24  2  0
 27 26  1  6
 27 28  1  0
 29 30  1  6
 29 27  1  0
 30 24  1  0
 31 29  1  0
 32 31  2  0
 33 31  1  0
M  END
$$$$
