WFT.pdb
     RDKit          3D

 33 35  0  0  1  0  0  0  0  0999 V2000
    7.3974  -15.9954   21.5461 N   0  0  0  0  0  0  0  0  0  0  0  0
    8.7993  -16.3143   21.6388 C   0  0  1  0  0  0  0  0  0  0  0  0
    9.5245  -15.5329   20.5592 C   0  0  0  0  0  0  0  0  0  0  0  0
    8.6146  -15.2986   19.4081 C   0  0  0  0  0  0  0  0  0  0  0  0
    7.9874  -16.2501   18.6213 C   0  0  0  0  0  0  0  0  0  0  0  0
    7.2595  -15.6190   17.7098 N   0  0  0  0  0  0  0  0  0  0  0  0
    7.3757  -14.2705   17.8556 C   0  0  0  0  0  0  0  0  0  0  0  0
    6.8223  -13.2203   17.1543 C   0  0  0  0  0  0  0  0  0  0  0  0
    7.1011  -11.9242   17.4958 C   0  0  0  0  0  0  0  0  0  0  0  0
    7.9515  -11.7108   18.5621 C   0  0  0  0  0  0  0  0  0  0  0  0
    8.5032  -12.7554   19.2623 C   0  0  0  0  0  0  0  0  0  0  0  0
    8.2291  -14.0853   18.9257 C   0  0  0  0  0  0  0  0  0  0  0  0
    9.3148  -16.1000   22.9981 C   0  0  0  0  0  0  0  0  0  0  0  0
   10.3848  -15.4418   23.2042 O   0  0  0  0  0  0  0  0  0  0  0  0
    8.6932  -16.5973   24.1935 N   0  0  0  0  0  0  0  0  0  0  0  0
    9.2988  -16.4847   25.4566 C   0  0  1  0  0  0  0  0  0  0  0  0
    8.4168  -15.8670   26.5290 C   0  0  0  0  0  0  0  0  0  0  0  0
    9.2375  -15.3580   27.6573 C   0  0  0  0  0  0  0  0  0  0  0  0
    9.3925  -16.2228   28.7387 C   0  0  0  0  0  0  0  0  0  0  0  0
   10.1323  -15.8553   29.8195 C   0  0  0  0  0  0  0  0  0  0  0  0
   10.7215  -14.6053   29.8085 C   0  0  0  0  0  0  0  0  0  0  0  0
   10.5740  -13.7468   28.7429 C   0  0  0  0  0  0  0  0  0  0  0  0
    9.8250  -14.1137   27.6474 C   0  0  0  0  0  0  0  0  0  0  0  0
   10.0175  -17.6341   26.0019 C   0  0  0  0  0  0  0  0  0  0  0  0
    9.3286  -18.6718   26.2899 O   0  0  0  0  0  0  0  0  0  0  0  0
   12.1374  -19.8677   24.3751 C   0  0  0  0  0  0  0  0  0  0  0  0
   12.8865  -19.6136   25.6463 C   0  0  1  0  0  0  0  0  0  0  0  0
   13.9622  -18.7740   25.3809 O   0  0  0  0  0  0  0  0  0  0  0  0
   11.9901  -19.0213   26.6727 C   0  0  2  0  0  0  0  0  0  0  0  0
   11.4082  -17.7434   26.2570 N   0  0  0  0  0  0  0  0  0  0  0  0
   12.6311  -18.8740   28.0206 C   0  0  0  0  0  0  0  0  0  0  0  0
   12.7604  -17.7566   28.5748 O   0  0  0  0  0  0  0  0  0  0  0  0
   13.1281  -19.9505   28.7479 O   0  0  0  0  0  0  0  0  0  0  0  0
  2  1  1  1
  2  3  1  0
  3  4  1  0
  4  5  2  0
  5  6  1  0
  7  6  1  0
  8  7  2  0
  9  8  1  0
 10 11  1  0
 10  9  2  0
 11 12  2  0
 12  4  1  0
 12  7  1  0
 13  2  1  0
 13 14  2  0
 15 13  1  0
 16 15  1  0
 16 17  1  1
 18 23  1  0
 18 17  1  0
 19 18  2  0
 20 21  2  0
 20 19  1  0
 21 22  1  0
 22 23  2  0
 24 16  1  0
 25 24  2  0
 27 26  1  6
 27 28  1  0
 29 30  1  6
 29 27  1  0
 30 24  1  0
 31 29  1  0
 32 31  2  0
 33 31  1  0
M  END
$$$$
