WFT.pdb
     RDKit          3D

 33 35  0  0  1  0  0  0  0  0999 V2000
    5.4589  -20.2986   22.7980 N   0  0  0  0  0  0  0  0  0  0  0  0
    6.1629  -19.6523   23.8761 C   0  0  1  0  0  0  0  0  0  0  0  0
    7.4732  -20.3892   24.0813 C   0  0  0  0  0  0  0  0  0  0  0  0
    7.2564  -21.5705   24.9562 C   0  0  0  0  0  0  0  0  0  0  0  0
    7.2513  -22.9050   24.5858 C   0  0  0  0  0  0  0  0  0  0  0  0
    7.0289  -23.6348   25.6706 N   0  0  0  0  0  0  0  0  0  0  0  0
    6.8827  -22.8353   26.7626 C   0  0  0  0  0  0  0  0  0  0  0  0
    6.6362  -23.1268   28.0874 C   0  0  0  0  0  0  0  0  0  0  0  0
    6.5230  -22.1276   29.0165 C   0  0  0  0  0  0  0  0  0  0  0  0
    6.6645  -20.8261   28.5788 C   0  0  0  0  0  0  0  0  0  0  0  0
    6.9108  -20.5336   27.2598 C   0  0  0  0  0  0  0  0  0  0  0  0
    7.0285  -21.5427   26.2981 C   0  0  0  0  0  0  0  0  0  0  0  0
    6.3047  -18.2086   23.6418 C   0  0  0  0  0  0  0  0  0  0  0  0
    6.8630  -17.7605   22.5892 O   0  0  0  0  0  0  0  0  0  0  0  0
    5.8516  -17.1878   24.5448 N   0  0  0  0  0  0  0  0  0  0  0  0
    6.6148  -16.0417   24.8254 C   0  0  1  0  0  0  0  0  0  0  0  0
    6.1137  -15.2194   26.0012 C   0  0  0  0  0  0  0  0  0  0  0  0
    6.8784  -13.9520   26.1215 C   0  0  0  0  0  0  0  0  0  0  0  0
    6.6466  -13.0021   25.1290 C   0  0  0  0  0  0  0  0  0  0  0  0
    7.2910  -11.8042   25.1519 C   0  0  0  0  0  0  0  0  0  0  0  0
    8.1758  -11.5625   26.1855 C   0  0  0  0  0  0  0  0  0  0  0  0
    8.4082  -12.4957   27.1703 C   0  0  0  0  0  0  0  0  0  0  0  0
    7.7595  -13.7100   27.1505 C   0  0  0  0  0  0  0  0  0  0  0  0
    8.0704  -16.1567   24.8806 C   0  0  0  0  0  0  0  0  0  0  0  0
    8.5641  -16.9018   25.7945 O   0  0  0  0  0  0  0  0  0  0  0  0
    9.9891  -16.9654   21.6701 C   0  0  0  0  0  0  0  0  0  0  0  0
   10.8738  -16.1050   22.5179 C   0  0  1  0  0  0  0  0  0  0  0  0
   10.9247  -14.8273   21.9723 O   0  0  0  0  0  0  0  0  0  0  0  0
   10.3794  -16.0660   23.9186 C   0  0  2  0  0  0  0  0  0  0  0  0
    9.0203  -15.5329   24.0323 N   0  0  0  0  0  0  0  0  0  0  0  0
   11.2920  -15.3378   24.8601 C   0  0  0  0  0  0  0  0  0  0  0  0
   10.9165  -14.3251   25.4971 O   0  0  0  0  0  0  0  0  0  0  0  0
   12.6083  -15.7225   25.0930 O   0  0  0  0  0  0  0  0  0  0  0  0
  2  1  1  6
  2  3  1  0
  3  4  1  0
  4  5  2  0
  5  6  1  0
  7  6  1  0
  8  7  2  0
  9  8  1  0
 10 11  1  0
 10  9  2  0
 11 12  2  0
 12  4  1  0
 12  7  1  0
 13  2  1  0
 13 14  2  0
 15 13  1  0
 16 15  1  0
 16 17  1  1
 18 23  1  0
 18 17  1  0
 19 18  2  0
 20 21  2  0
 20 19  1  0
 21 22  1  0
 22 23  2  0
 24 16  1  0
 25 24  2  0
 27 26  1  6
 27 28  1  0
 29 30  1  6
 29 27  1  0
 30 24  1  0
 31 29  1  0
 32 31  2  0
 33 31  1  0
M  END
$$$$
