WFT.pdb
     RDKit          3D

 33 35  0  0  1  0  0  0  0  0999 V2000
    8.0567  -17.6708   22.0804 N   0  0  0  0  0  0  0  0  0  0  0  0
    9.3746  -17.1155   22.2542 C   0  0  1  0  0  0  0  0  0  0  0  0
    9.5791  -16.0629   21.1808 C   0  0  0  0  0  0  0  0  0  0  0  0
    8.2671  -15.4979   20.7714 C   0  0  0  0  0  0  0  0  0  0  0  0
    7.1049  -16.1912   20.4774 C   0  0  0  0  0  0  0  0  0  0  0  0
    6.1649  -15.3096   20.1644 N   0  0  0  0  0  0  0  0  0  0  0  0
    6.6557  -14.0419   20.2370 C   0  0  0  0  0  0  0  0  0  0  0  0
    6.0705  -12.8160   20.0011 C   0  0  0  0  0  0  0  0  0  0  0  0
    6.7878  -11.6580   20.1385 C   0  0  0  0  0  0  0  0  0  0  0  0
    8.1102  -11.7643   20.5200 C   0  0  0  0  0  0  0  0  0  0  0  0
    8.6947  -12.9843   20.7562 C   0  0  0  0  0  0  0  0  0  0  0  0
    7.9761  -14.1767   20.6195 C   0  0  0  0  0  0  0  0  0  0  0  0
    9.5835  -16.6357   23.6273 C   0  0  0  0  0  0  0  0  0  0  0  0
   10.7047  -16.1614   23.9995 O   0  0  0  0  0  0  0  0  0  0  0  0
    8.5843  -16.6563   24.6588 N   0  0  0  0  0  0  0  0  0  0  0  0
    8.8986  -16.4441   26.0120 C   0  0  1  0  0  0  0  0  0  0  0  0
    7.7542  -15.8981   26.8498 C   0  0  0  0  0  0  0  0  0  0  0  0
    7.4341  -14.5017   26.4582 C   0  0  0  0  0  0  0  0  0  0  0  0
    8.4045  -13.5467   26.7538 C   0  0  0  0  0  0  0  0  0  0  0  0
    8.2122  -12.2397   26.4292 C   0  0  0  0  0  0  0  0  0  0  0  0
    7.0314  -11.8938   25.8001 C   0  0  0  0  0  0  0  0  0  0  0  0
    6.0694  -12.8324   25.5034 C   0  0  0  0  0  0  0  0  0  0  0  0
    6.2589  -14.1561   25.8313 C   0  0  0  0  0  0  0  0  0  0  0  0
    9.6008  -17.4927   26.7484 C   0  0  0  0  0  0  0  0  0  0  0  0
    9.4246  -17.5370   28.0138 O   0  0  0  0  0  0  0  0  0  0  0  0
   10.5261  -21.3341   25.5042 C   0  0  0  0  0  0  0  0  0  0  0  0
   11.5815  -20.6765   26.3380 C   0  0  1  0  0  0  0  0  0  0  0  0
   12.6210  -20.2621   25.5131 O   0  0  0  0  0  0  0  0  0  0  0  0
   11.0129  -19.5303   27.0937 C   0  0  2  0  0  0  0  0  0  0  0  0
   10.4694  -18.4841   26.2252 N   0  0  0  0  0  0  0  0  0  0  0  0
   11.9664  -18.9269   28.0817 C   0  0  0  0  0  0  0  0  0  0  0  0
   12.3409  -17.7332   27.9978 O   0  0  0  0  0  0  0  0  0  0  0  0
   12.5041  -19.6366   29.1504 O   0  0  0  0  0  0  0  0  0  0  0  0
  2  1  1  1
  2  3  1  0
  3  4  1  0
  4  5  2  0
  5  6  1  0
  7  6  1  0
  8  7  2  0
  9  8  1  0
 10 11  1  0
 10  9  2  0
 11 12  2  0
 12  4  1  0
 12  7  1  0
 13  2  1  0
 13 14  2  0
 15 13  1  0
 16 15  1  0
 16 17  1  1
 18 23  1  0
 18 17  1  0
 19 18  2  0
 20 21  2  0
 20 19  1  0
 21 22  1  0
 22 23  2  0
 24 16  1  0
 25 24  2  0
 27 26  1  6
 27 28  1  0
 29 30  1  6
 29 27  1  0
 30 24  1  0
 31 29  1  0
 32 31  2  0
 33 31  1  0
M  END
$$$$
