LVH.pdb
     RDKit          3D

 26 26  0  0  1  0  0  0  0  0999 V2000
   28.7225  -11.7649  -17.0708 C   0  0  0  0  0  0  0  0  0  0  0  0
   27.4625  -12.4842  -16.7196 C   0  0  1  0  0  0  0  0  0  0  0  0
   27.4999  -12.7983  -15.2236 C   0  0  0  0  0  0  0  0  0  0  0  0
   26.2216  -11.6461  -16.9404 C   0  0  0  0  0  0  0  0  0  0  0  0
   24.9620  -12.4445  -16.5931 C   0  0  2  0  0  0  0  0  0  0  0  0
   24.9032  -13.6192  -17.4344 N   0  0  0  0  0  0  0  0  0  0  0  0
   23.8074  -11.5732  -16.9219 C   0  0  0  0  0  0  0  0  0  0  0  0
   23.6149  -11.2596  -18.1215 O   0  0  0  0  0  0  0  0  0  0  0  0
   20.2797  -11.4593  -14.8648 C   0  0  0  0  0  0  0  0  0  0  0  0
   20.5287  -10.9993  -16.2559 C   0  0  2  0  0  0  0  0  0  0  0  0
   20.4729  -12.1731  -17.2132 C   0  0  0  0  0  0  0  0  0  0  0  0
   21.8109  -10.2210  -16.3968 C   0  0  2  0  0  0  0  0  0  0  0  0
   22.9159  -11.0828  -15.9388 N   0  0  0  0  0  0  0  0  0  0  0  0
   21.8275   -8.9490  -15.6465 C   0  0  0  0  0  0  0  0  0  0  0  0
   22.8526   -8.6928  -14.9078 O   0  0  0  0  0  0  0  0  0  0  0  0
   20.8402   -7.9531  -15.6380 N   0  0  0  0  0  0  0  0  0  0  0  0
   21.0890   -6.5930  -15.1490 C   0  0  1  0  0  0  0  0  0  0  0  0
   22.3130   -6.0016  -15.8062 C   0  0  0  0  0  0  0  0  0  0  0  0
   22.5973   -4.6197  -15.3678 C   0  0  0  0  0  0  0  0  0  0  0  0
   21.9358   -3.8706  -14.4333 C   0  0  0  0  0  0  0  0  0  0  0  0
   22.5249   -2.6432  -14.3307 N   0  0  0  0  0  0  0  0  0  0  0  0
   23.5271   -2.6668  -15.1982 C   0  0  0  0  0  0  0  0  0  0  0  0
   23.5903   -3.8474  -15.8347 N   0  0  0  0  0  0  0  0  0  0  0  0
   19.8903   -5.7550  -15.2763 C   0  0  0  0  0  0  0  0  0  0  0  0
   19.4910   -4.8575  -14.3016 O   0  0  0  0  0  0  0  0  0  0  0  0
   19.1866   -5.8469  -16.3111 O   0  0  0  0  0  0  0  0  0  0  0  0
  2  1  1  1
  3  2  1  0
  4  5  1  0
  4  2  1  0
  5  6  1  6
  7 13  1  0
  7  5  1  0
  8  7  2  0
 10  9  1  1
 10 12  1  0
 11 10  1  0
 12 14  1  0
 12 13  1  1
 14 16  1  0
 15 14  2  0
 16 17  1  0
 17 24  1  0
 17 18  1  6
 19 18  1  0
 20 19  2  0
 21 22  1  0
 21 20  1  0
 22 23  2  0
 23 19  1  0
 24 26  2  0
 24 25  1  0
M  END
$$$$
