LVH.pdb
     RDKit          3D

 26 26  0  0  1  0  0  0  0  0999 V2000
   28.7868  -18.6593   -6.5557 C   0  0  0  0  0  0  0  0  0  0  0  0
   28.1424  -19.8407   -7.2018 C   0  0  1  0  0  0  0  0  0  0  0  0
   27.7591  -20.8298   -6.1006 C   0  0  0  0  0  0  0  0  0  0  0  0
   26.8556  -19.4939   -7.9195 C   0  0  0  0  0  0  0  0  0  0  0  0
   26.3799  -20.6718   -8.7743 C   0  0  2  0  0  0  0  0  0  0  0  0
   27.4733  -21.6032   -8.9414 N   0  0  0  0  0  0  0  0  0  0  0  0
   26.0313  -20.1136  -10.1037 C   0  0  0  0  0  0  0  0  0  0  0  0
   25.3999  -19.0303  -10.1526 O   0  0  0  0  0  0  0  0  0  0  0  0
   27.4440  -21.6004  -13.8978 C   0  0  0  0  0  0  0  0  0  0  0  0
   27.0848  -20.1999  -13.5540 C   0  0  2  0  0  0  0  0  0  0  0  0
   28.3097  -19.4488  -13.0713 C   0  0  0  0  0  0  0  0  0  0  0  0
   25.9475  -20.1094  -12.5700 C   0  0  2  0  0  0  0  0  0  0  0  0
   26.3817  -20.7524  -11.3164 N   0  0  0  0  0  0  0  0  0  0  0  0
   24.6941  -20.7326  -13.0412 C   0  0  0  0  0  0  0  0  0  0  0  0
   24.3811  -21.8938  -12.5766 O   0  0  0  0  0  0  0  0  0  0  0  0
   23.7720  -20.2034  -13.9556 N   0  0  0  0  0  0  0  0  0  0  0  0
   22.3539  -20.5776  -13.9595 C   0  0  1  0  0  0  0  0  0  0  0  0
   21.7601  -20.4455  -12.5775 C   0  0  0  0  0  0  0  0  0  0  0  0
   20.3251  -20.7931  -12.5263 C   0  0  0  0  0  0  0  0  0  0  0  0
   19.5005  -21.1566  -13.5559 C   0  0  0  0  0  0  0  0  0  0  0  0
   18.2451  -21.3938  -13.0744 N   0  0  0  0  0  0  0  0  0  0  0  0
   18.3272  -21.1722  -11.7700 C   0  0  0  0  0  0  0  0  0  0  0  0
   19.5708  -20.8091  -11.4167 N   0  0  0  0  0  0  0  0  0  0  0  0
   21.6129  -19.8412  -14.9909 C   0  0  0  0  0  0  0  0  0  0  0  0
   20.5027  -20.3582  -15.6351 O   0  0  0  0  0  0  0  0  0  0  0  0
   21.9929  -18.6894  -15.3126 O   0  0  0  0  0  0  0  0  0  0  0  0
  2  1  1  1
  3  2  1  0
  4  5  1  0
  4  2  1  0
  5  6  1  6
  7 13  1  0
  7  5  1  0
  8  7  2  0
 10  9  1  1
 10 12  1  0
 11 10  1  0
 12 14  1  0
 12 13  1  1
 14 16  1  0
 15 14  2  0
 16 17  1  0
 17 24  1  0
 17 18  1  1
 19 18  1  0
 20 19  2  0
 21 22  1  0
 21 20  1  0
 22 23  2  0
 23 19  1  0
 24 26  2  0
 24 25  1  0
M  END
$$$$
