LVH.pdb
     RDKit          3D

 26 26  0  0  1  0  0  0  0  0999 V2000
   27.4878  -19.2235   -6.1215 C   0  0  0  0  0  0  0  0  0  0  0  0
   27.3342  -20.3296   -7.1121 C   0  0  1  0  0  0  0  0  0  0  0  0
   26.3299  -21.3339   -6.5458 C   0  0  0  0  0  0  0  0  0  0  0  0
   26.7613  -19.8648   -8.4338 C   0  0  0  0  0  0  0  0  0  0  0  0
   26.7717  -21.0038   -9.4571 C   0  0  2  0  0  0  0  0  0  0  0  0
   28.1386  -21.4144   -9.6897 N   0  0  0  0  0  0  0  0  0  0  0  0
   26.2293  -20.4417  -10.7182 C   0  0  0  0  0  0  0  0  0  0  0  0
   26.5865  -19.2897  -11.0640 O   0  0  0  0  0  0  0  0  0  0  0  0
   25.7458  -20.6819  -15.2507 C   0  0  0  0  0  0  0  0  0  0  0  0
   25.9540  -21.1945  -13.8713 C   0  0  2  0  0  0  0  0  0  0  0  0
   25.8707  -22.7079  -13.8572 C   0  0  0  0  0  0  0  0  0  0  0  0
   25.0207  -20.5720  -12.8658 C   0  0  2  0  0  0  0  0  0  0  0  0
   25.3269  -21.1513  -11.5451 N   0  0  0  0  0  0  0  0  0  0  0  0
   23.5893  -20.7650  -13.1745 C   0  0  0  0  0  0  0  0  0  0  0  0
   23.0147  -21.8368  -12.7463 O   0  0  0  0  0  0  0  0  0  0  0  0
   22.7501  -19.9021  -13.8938 N   0  0  0  0  0  0  0  0  0  0  0  0
   21.3284  -20.1830  -14.1196 C   0  0  1  0  0  0  0  0  0  0  0  0
   20.4831  -18.9778  -13.7835 C   0  0  0  0  0  0  0  0  0  0  0  0
   19.4962  -19.2400  -12.7158 C   0  0  0  0  0  0  0  0  0  0  0  0
   19.2686  -20.4049  -12.0351 C   0  0  0  0  0  0  0  0  0  0  0  0
   18.2656  -20.2161  -11.1282 N   0  0  0  0  0  0  0  0  0  0  0  0
   17.9032  -18.9491  -11.2720 C   0  0  0  0  0  0  0  0  0  0  0  0
   18.6307  -18.3410  -12.2228 N   0  0  0  0  0  0  0  0  0  0  0  0
   21.0981  -20.7040  -15.4726 C   0  0  0  0  0  0  0  0  0  0  0  0
   20.1898  -21.7111  -15.7480 O   0  0  0  0  0  0  0  0  0  0  0  0
   21.7477  -20.2230  -16.4324 O   0  0  0  0  0  0  0  0  0  0  0  0
  2  1  1  1
  3  2  1  0
  4  5  1  0
  4  2  1  0
  5  6  1  6
  7 13  1  0
  7  5  1  0
  8  7  2  0
 10  9  1  6
 10 12  1  0
 11 10  1  0
 12 14  1  0
 12 13  1  1
 14 16  1  0
 15 14  2  0
 16 17  1  0
 17 24  1  0
 17 18  1  6
 19 18  1  0
 20 19  2  0
 21 22  1  0
 21 20  1  0
 22 23  2  0
 23 19  1  0
 24 26  2  0
 24 25  1  0
M  END
$$$$
