LVH.pdb
     RDKit          3D

 26 26  0  0  1  0  0  0  0  0999 V2000
   17.0471  -17.0019  -16.0998 C   0  0  0  0  0  0  0  0  0  0  0  0
   18.0389  -16.6029  -17.1418 C   0  0  1  0  0  0  0  0  0  0  0  0
   17.2888  -16.4203  -18.4616 C   0  0  0  0  0  0  0  0  0  0  0  0
   18.7016  -15.2738  -16.8497 C   0  0  0  0  0  0  0  0  0  0  0  0
   19.6872  -14.9059  -17.9623 C   0  0  2  0  0  0  0  0  0  0  0  0
   20.8451  -15.7669  -17.8682 N   0  0  0  0  0  0  0  0  0  0  0  0
   20.1170  -13.5106  -17.6996 C   0  0  0  0  0  0  0  0  0  0  0  0
   21.0425  -13.3130  -16.8757 O   0  0  0  0  0  0  0  0  0  0  0  0
   21.1956  -10.7477  -20.1111 C   0  0  0  0  0  0  0  0  0  0  0  0
   20.1482  -10.2297  -19.1928 C   0  0  2  0  0  0  0  0  0  0  0  0
   20.4054   -8.7700  -18.8758 C   0  0  0  0  0  0  0  0  0  0  0  0
   20.0008  -11.0576  -17.9428 C   0  0  2  0  0  0  0  0  0  0  0  0
   19.5263  -12.3958  -18.3398 N   0  0  0  0  0  0  0  0  0  0  0  0
   19.0797  -10.4788  -16.9438 C   0  0  0  0  0  0  0  0  0  0  0  0
   17.8639  -10.9070  -16.9185 O   0  0  0  0  0  0  0  0  0  0  0  0
   19.3704   -9.4945  -15.9882 N   0  0  0  0  0  0  0  0  0  0  0  0
   18.4385   -9.1293  -14.9161 C   0  0  1  0  0  0  0  0  0  0  0  0
   18.0596  -10.3408  -14.0984 C   0  0  0  0  0  0  0  0  0  0  0  0
   17.1692  -10.0204  -12.9638 C   0  0  0  0  0  0  0  0  0  0  0  0
   17.4889   -9.9018  -11.6387 C   0  0  0  0  0  0  0  0  0  0  0  0
   16.3674   -9.5939  -10.9235 N   0  0  0  0  0  0  0  0  0  0  0  0
   15.3922   -9.5312  -11.8193 C   0  0  0  0  0  0  0  0  0  0  0  0
   15.8515   -9.7846  -13.0554 N   0  0  0  0  0  0  0  0  0  0  0  0
   18.9621   -8.0178  -14.1127 C   0  0  0  0  0  0  0  0  0  0  0  0
   18.1580   -7.2128  -13.3250 O   0  0  0  0  0  0  0  0  0  0  0  0
   20.1932   -7.7757  -14.1318 O   0  0  0  0  0  0  0  0  0  0  0  0
  2  1  1  1
  3  2  1  0
  4  5  1  0
  4  2  1  0
  5  6  1  1
  7 13  1  0
  7  5  1  0
  8  7  2  0
 10  9  1  1
 10 12  1  0
 11 10  1  0
 12 14  1  0
 12 13  1  6
 14 16  1  0
 15 14  2  0
 16 17  1  0
 17 24  1  0
 17 18  1  1
 19 18  1  0
 20 19  2  0
 21 22  1  0
 21 20  1  0
 22 23  2  0
 23 19  1  0
 24 26  2  0
 24 25  1  0
M  END
$$$$
