LVH.pdb
     RDKit          3D

 26 26  0  0  1  0  0  0  0  0999 V2000
   15.4481  -11.1404  -17.8770 C   0  0  0  0  0  0  0  0  0  0  0  0
   16.8231  -11.7123  -17.7743 C   0  0  1  0  0  0  0  0  0  0  0  0
   17.6195  -11.2477  -18.9941 C   0  0  0  0  0  0  0  0  0  0  0  0
   17.5826  -11.2133  -16.5637 C   0  0  0  0  0  0  0  0  0  0  0  0
   19.0196  -11.7418  -16.5723 C   0  0  2  0  0  0  0  0  0  0  0  0
   19.0230  -13.1025  -16.0832 N   0  0  0  0  0  0  0  0  0  0  0  0
   19.7839  -10.8988  -15.6206 C   0  0  0  0  0  0  0  0  0  0  0  0
   19.4905  -10.9531  -14.4019 O   0  0  0  0  0  0  0  0  0  0  0  0
   23.6677   -9.6021  -16.2721 C   0  0  0  0  0  0  0  0  0  0  0  0
   22.9785   -9.7979  -14.9699 C   0  0  2  0  0  0  0  0  0  0  0  0
   23.0705  -11.2491  -14.5421 C   0  0  0  0  0  0  0  0  0  0  0  0
   21.5550   -9.3048  -14.9784 C   0  0  2  0  0  0  0  0  0  0  0  0
   20.8286  -10.0377  -16.0314 N   0  0  0  0  0  0  0  0  0  0  0  0
   21.4239   -7.8509  -15.2026 C   0  0  0  0  0  0  0  0  0  0  0  0
   21.4334   -7.4204  -16.4178 O   0  0  0  0  0  0  0  0  0  0  0  0
   21.2831   -6.8494  -14.2312 N   0  0  0  0  0  0  0  0  0  0  0  0
   21.1959   -5.4244  -14.5670 C   0  0  1  0  0  0  0  0  0  0  0  0
   19.7987   -4.9021  -14.3326 C   0  0  0  0  0  0  0  0  0  0  0  0
   18.7832   -5.5585  -15.1813 C   0  0  0  0  0  0  0  0  0  0  0  0
   18.0039   -6.6447  -14.8897 C   0  0  0  0  0  0  0  0  0  0  0  0
   17.1956   -6.9264  -15.9533 N   0  0  0  0  0  0  0  0  0  0  0  0
   17.4950   -6.0135  -16.8668 C   0  0  0  0  0  0  0  0  0  0  0  0
   18.4489   -5.1786  -16.4241 N   0  0  0  0  0  0  0  0  0  0  0  0
   22.2362   -4.6514  -13.8775 C   0  0  0  0  0  0  0  0  0  0  0  0
   22.4519   -3.3042  -14.1086 O   0  0  0  0  0  0  0  0  0  0  0  0
   22.9703   -5.2262  -13.0378 O   0  0  0  0  0  0  0  0  0  0  0  0
  2  1  1  6
  3  2  1  0
  4  5  1  0
  4  2  1  0
  5  6  1  1
  7 13  1  0
  7  5  1  0
  8  7  2  0
 10  9  1  6
 10 12  1  0
 11 10  1  0
 12 14  1  0
 12 13  1  6
 14 16  1  0
 15 14  2  0
 16 17  1  0
 17 24  1  0
 17 18  1  1
 19 18  1  0
 20 19  2  0
 21 22  1  0
 21 20  1  0
 22 23  2  0
 23 19  1  0
 24 26  2  0
 24 25  1  0
M  END
$$$$
