LVH.pdb
     RDKit          3D

 26 26  0  0  1  0  0  0  0  0999 V2000
   27.4419  -17.7185  -17.8503 C   0  0  0  0  0  0  0  0  0  0  0  0
   28.1127  -18.5871  -16.8384 C   0  0  1  0  0  0  0  0  0  0  0  0
   28.9348  -17.6872  -15.9152 C   0  0  0  0  0  0  0  0  0  0  0  0
   27.1343  -19.3200  -15.9459 C   0  0  0  0  0  0  0  0  0  0  0  0
   27.8784  -20.1638  -14.9074 C   0  0  2  0  0  0  0  0  0  0  0  0
   28.5881  -21.2257  -15.5855 N   0  0  0  0  0  0  0  0  0  0  0  0
   26.8417  -20.7724  -14.0383 C   0  0  0  0  0  0  0  0  0  0  0  0
   26.3111  -21.8498  -14.4017 O   0  0  0  0  0  0  0  0  0  0  0  0
   26.7575  -20.9945  -10.0224 C   0  0  0  0  0  0  0  0  0  0  0  0
   25.4898  -20.5011  -10.6209 C   0  0  2  0  0  0  0  0  0  0  0  0
   24.3053  -20.9757   -9.8030 C   0  0  0  0  0  0  0  0  0  0  0  0
   25.3473  -20.8627  -12.0765 C   0  0  2  0  0  0  0  0  0  0  0  0
   26.4280  -20.1877  -12.8181 N   0  0  0  0  0  0  0  0  0  0  0  0
   24.0404  -20.4997  -12.6607 C   0  0  0  0  0  0  0  0  0  0  0  0
   23.7654  -19.2482  -12.8036 O   0  0  0  0  0  0  0  0  0  0  0  0
   23.0312  -21.3709  -13.0956 N   0  0  0  0  0  0  0  0  0  0  0  0
   21.7836  -20.8991  -13.7054 C   0  0  1  0  0  0  0  0  0  0  0  0
   21.4786  -21.6690  -14.9681 C   0  0  0  0  0  0  0  0  0  0  0  0
   20.2369  -21.2244  -15.6338 C   0  0  0  0  0  0  0  0  0  0  0  0
   19.3313  -20.2908  -15.2092 C   0  0  0  0  0  0  0  0  0  0  0  0
   18.3243  -20.1809  -16.1246 N   0  0  0  0  0  0  0  0  0  0  0  0
   18.6326  -21.0434  -17.0831 C   0  0  0  0  0  0  0  0  0  0  0  0
   19.7806  -21.6836  -16.8092 N   0  0  0  0  0  0  0  0  0  0  0  0
   20.6829  -20.9026  -12.7341 C   0  0  0  0  0  0  0  0  0  0  0  0
   20.6694  -21.7139  -11.6131 O   0  0  0  0  0  0  0  0  0  0  0  0
   19.7033  -20.1400  -12.9166 O   0  0  0  0  0  0  0  0  0  0  0  0
  2  1  1  6
  3  2  1  0
  4  5  1  0
  4  2  1  0
  5  6  1  6
  7 13  1  0
  7  5  1  0
  8  7  2  0
 10  9  1  1
 10 12  1  0
 11 10  1  0
 12 14  1  0
 12 13  1  6
 14 16  1  0
 15 14  2  0
 16 17  1  0
 17 24  1  0
 17 18  1  6
 19 18  1  0
 20 19  2  0
 21 22  1  0
 21 20  1  0
 22 23  2  0
 23 19  1  0
 24 26  2  0
 24 25  1  0
M  END
$$$$
