LVH.pdb
     RDKit          3D

 26 26  0  0  1  0  0  0  0  0999 V2000
   11.6602  -12.8716  -11.5754 C   0  0  0  0  0  0  0  0  0  0  0  0
   11.7705  -12.1397  -10.2790 C   0  0  1  0  0  0  0  0  0  0  0  0
   12.7753  -12.8855   -9.4003 C   0  0  0  0  0  0  0  0  0  0  0  0
   12.3135  -10.7357  -10.4365 C   0  0  0  0  0  0  0  0  0  0  0  0
   12.3360  -10.0110   -9.0879 C   0  0  2  0  0  0  0  0  0  0  0  0
   10.9757   -9.7623   -8.6651 N   0  0  0  0  0  0  0  0  0  0  0  0
   13.0009   -8.7058   -9.3224 C   0  0  0  0  0  0  0  0  0  0  0  0
   12.3681   -7.8116   -9.9341 O   0  0  0  0  0  0  0  0  0  0  0  0
   13.7522   -5.9637   -7.2978 C   0  0  0  0  0  0  0  0  0  0  0  0
   15.0461   -6.3438   -7.9224 C   0  0  2  0  0  0  0  0  0  0  0  0
   15.9206   -5.1188   -8.1016 C   0  0  0  0  0  0  0  0  0  0  0  0
   14.8754   -7.1046   -9.2115 C   0  0  2  0  0  0  0  0  0  0  0  0
   14.3175   -8.4295   -8.8844 N   0  0  0  0  0  0  0  0  0  0  0  0
   16.1240   -7.2668   -9.9834 C   0  0  0  0  0  0  0  0  0  0  0  0
   16.9389   -8.2016   -9.6312 O   0  0  0  0  0  0  0  0  0  0  0  0
   16.5465   -6.5112  -11.0867 N   0  0  0  0  0  0  0  0  0  0  0  0
   17.4089   -7.0577  -12.1396 C   0  0  1  0  0  0  0  0  0  0  0  0
   16.8874   -8.3896  -12.6232 C   0  0  0  0  0  0  0  0  0  0  0  0
   17.6539   -8.9345  -13.7626 C   0  0  0  0  0  0  0  0  0  0  0  0
   18.9988   -9.1716  -13.8477 C   0  0  0  0  0  0  0  0  0  0  0  0
   19.2965   -9.6802  -15.0792 N   0  0  0  0  0  0  0  0  0  0  0  0
   18.1362   -9.7433  -15.7172 C   0  0  0  0  0  0  0  0  0  0  0  0
   17.1322   -9.2993  -14.9439 N   0  0  0  0  0  0  0  0  0  0  0  0
   17.6167   -6.0815  -13.2162 C   0  0  0  0  0  0  0  0  0  0  0  0
   18.7722   -6.0319  -13.9760 O   0  0  0  0  0  0  0  0  0  0  0  0
   16.7134   -5.2482  -13.4694 O   0  0  0  0  0  0  0  0  0  0  0  0
  2  1  1  6
  3  2  1  0
  4  5  1  0
  4  2  1  0
  5  6  1  6
  7 13  1  0
  7  5  1  0
  8  7  2  0
 10  9  1  6
 10 12  1  0
 11 10  1  0
 12 14  1  0
 12 13  1  1
 14 16  1  0
 15 14  2  0
 16 17  1  0
 17 24  1  0
 17 18  1  6
 19 18  1  0
 20 19  2  0
 21 22  1  0
 21 20  1  0
 22 23  2  0
 23 19  1  0
 24 26  2  0
 24 25  1  0
M  END
$$$$
