LVH.pdb
     RDKit          3D

 26 26  0  0  1  0  0  0  0  0999 V2000
   22.5339  -14.5791  -19.3323 C   0  0  0  0  0  0  0  0  0  0  0  0
   21.4091  -14.6463  -18.3532 C   0  0  1  0  0  0  0  0  0  0  0  0
   21.9765  -15.1193  -17.0145 C   0  0  0  0  0  0  0  0  0  0  0  0
   20.7757  -13.2977  -18.0862 C   0  0  0  0  0  0  0  0  0  0  0  0
   19.5942  -13.4374  -17.1225 C   0  0  2  0  0  0  0  0  0  0  0  0
   18.5639  -14.2318  -17.7539 N   0  0  0  0  0  0  0  0  0  0  0  0
   19.0645  -12.0690  -16.9046 C   0  0  0  0  0  0  0  0  0  0  0  0
   18.6745  -11.4112  -17.8994 O   0  0  0  0  0  0  0  0  0  0  0  0
   17.3577  -10.7053  -13.3810 C   0  0  0  0  0  0  0  0  0  0  0  0
   17.1697  -10.1511  -14.7471 C   0  0  2  0  0  0  0  0  0  0  0  0
   16.0785  -10.9110  -15.4746 C   0  0  0  0  0  0  0  0  0  0  0  0
   18.4477  -10.1050  -15.5437 C   0  0  2  0  0  0  0  0  0  0  0  0
   18.9815  -11.4770  -15.6223 N   0  0  0  0  0  0  0  0  0  0  0  0
   19.4735   -9.2029  -14.9823 C   0  0  0  0  0  0  0  0  0  0  0  0
   20.5933   -9.7175  -14.6036 O   0  0  0  0  0  0  0  0  0  0  0  0
   19.3817   -7.8147  -14.8065 N   0  0  0  0  0  0  0  0  0  0  0  0
   20.5603   -6.9491  -14.6944 C   0  0  1  0  0  0  0  0  0  0  0  0
   21.5164   -7.1933  -15.8373 C   0  0  0  0  0  0  0  0  0  0  0  0
   22.6648   -6.2639  -15.8427 C   0  0  0  0  0  0  0  0  0  0  0  0
   22.9644   -5.2766  -14.9440 C   0  0  0  0  0  0  0  0  0  0  0  0
   24.1180   -4.6506  -15.3200 N   0  0  0  0  0  0  0  0  0  0  0  0
   24.4972   -5.2633  -16.4327 C   0  0  0  0  0  0  0  0  0  0  0  0
   23.6371   -6.2388  -16.7670 N   0  0  0  0  0  0  0  0  0  0  0  0
   20.1731   -5.5413  -14.5422 C   0  0  0  0  0  0  0  0  0  0  0  0
   20.9612   -4.6090  -13.8905 O   0  0  0  0  0  0  0  0  0  0  0  0
   19.0801   -5.1521  -15.0202 O   0  0  0  0  0  0  0  0  0  0  0  0
  2  1  1  6
  3  2  1  0
  4  5  1  0
  4  2  1  0
  5  6  1  6
  7 13  1  0
  7  5  1  0
  8  7  2  0
 10  9  1  1
 10 12  1  0
 11 10  1  0
 12 14  1  0
 12 13  1  1
 14 16  1  0
 15 14  2  0
 16 17  1  0
 17 24  1  0
 17 18  1  6
 19 18  1  0
 20 19  2  0
 21 22  1  0
 21 20  1  0
 22 23  2  0
 23 19  1  0
 24 26  2  0
 24 25  1  0
M  END
$$$$
