LVH.pdb
     RDKit          3D

 26 26  0  0  1  0  0  0  0  0999 V2000
   24.6084  -32.6409   -6.9029 C   0  0  0  0  0  0  0  0  0  0  0  0
   25.8317  -32.9925   -7.6828 C   0  0  1  0  0  0  0  0  0  0  0  0
   26.4739  -31.6913   -8.1650 C   0  0  0  0  0  0  0  0  0  0  0  0
   26.8829  -33.6945   -6.8500 C   0  0  0  0  0  0  0  0  0  0  0  0
   28.1652  -33.9007   -7.6610 C   0  0  2  0  0  0  0  0  0  0  0  0
   27.8591  -34.6935   -8.8309 N   0  0  0  0  0  0  0  0  0  0  0  0
   29.0895  -34.6754   -6.7974 C   0  0  0  0  0  0  0  0  0  0  0  0
   29.0463  -35.9285   -6.8450 O   0  0  0  0  0  0  0  0  0  0  0  0
   32.8402  -34.1575   -6.7515 C   0  0  0  0  0  0  0  0  0  0  0  0
   32.3481  -34.2673   -5.3534 C   0  0  2  0  0  0  0  0  0  0  0  0
   33.3819  -34.9593   -4.4875 C   0  0  0  0  0  0  0  0  0  0  0  0
   30.9993  -34.9312   -5.2556 C   0  0  2  0  0  0  0  0  0  0  0  0
   30.0163  -34.0591   -5.9240 N   0  0  0  0  0  0  0  0  0  0  0  0
   30.5627  -35.2040   -3.8713 C   0  0  0  0  0  0  0  0  0  0  0  0
   30.3483  -34.1990   -3.0927 O   0  0  0  0  0  0  0  0  0  0  0  0
   30.3424  -36.4562   -3.2797 N   0  0  0  0  0  0  0  0  0  0  0  0
   30.0010  -36.6155   -1.8623 C   0  0  1  0  0  0  0  0  0  0  0  0
   29.6369  -38.0484   -1.5555 C   0  0  0  0  0  0  0  0  0  0  0  0
   29.2937  -38.2693   -0.1356 C   0  0  0  0  0  0  0  0  0  0  0  0
   29.2025  -37.3471    0.8710 C   0  0  0  0  0  0  0  0  0  0  0  0
   28.8579  -37.9728    2.0346 N   0  0  0  0  0  0  0  0  0  0  0  0
   28.7463  -39.2552    1.7179 C   0  0  0  0  0  0  0  0  0  0  0  0
   29.0043  -39.4579    0.4158 N   0  0  0  0  0  0  0  0  0  0  0  0
   31.0591  -36.0795   -0.9973 C   0  0  0  0  0  0  0  0  0  0  0  0
   30.8121  -35.1879    0.0318 O   0  0  0  0  0  0  0  0  0  0  0  0
   32.2463  -36.4378   -1.1890 O   0  0  0  0  0  0  0  0  0  0  0  0
  2  1  1  1
  3  2  1  0
  4  5  1  0
  4  2  1  0
  5  6  1  6
  7 13  1  0
  7  5  1  0
  8  7  2  0
 10  9  1  6
 10 12  1  0
 11 10  1  0
 12 14  1  0
 12 13  1  1
 14 16  1  0
 15 14  2  0
 16 17  1  0
 17 24  1  0
 17 18  1  1
 19 18  1  0
 20 19  2  0
 21 22  1  0
 21 20  1  0
 22 23  2  0
 23 19  1  0
 24 26  2  0
 24 25  1  0
M  END
$$$$
