LVH.pdb
     RDKit          3D

 26 26  0  0  1  0  0  0  0  0999 V2000
   21.1330  -27.1412  -16.2768 C   0  0  0  0  0  0  0  0  0  0  0  0
   22.3231  -26.3336  -15.8772 C   0  0  1  0  0  0  0  0  0  0  0  0
   22.8762  -26.9196  -14.5777 C   0  0  0  0  0  0  0  0  0  0  0  0
   23.4521  -26.4060  -16.8828 C   0  0  0  0  0  0  0  0  0  0  0  0
   24.6813  -25.6507  -16.3699 C   0  0  2  0  0  0  0  0  0  0  0  0
   24.4402  -24.2293  -16.4819 N   0  0  0  0  0  0  0  0  0  0  0  0
   25.8026  -26.0092  -17.2724 C   0  0  0  0  0  0  0  0  0  0  0  0
   25.7795  -25.5887  -18.4543 O   0  0  0  0  0  0  0  0  0  0  0  0
   29.6541  -26.9456  -16.0235 C   0  0  0  0  0  0  0  0  0  0  0  0
   29.2239  -26.4332  -17.3506 C   0  0  2  0  0  0  0  0  0  0  0  0
   29.1169  -24.9216  -17.3183 C   0  0  0  0  0  0  0  0  0  0  0  0
   27.9536  -27.0750  -17.8447 C   0  0  2  0  0  0  0  0  0  0  0  0
   26.8954  -26.8049  -16.8544 N   0  0  0  0  0  0  0  0  0  0  0  0
   28.0641  -28.5303  -18.0710 C   0  0  0  0  0  0  0  0  0  0  0  0
   27.5342  -29.3221  -17.2024 O   0  0  0  0  0  0  0  0  0  0  0  0
   28.6891  -29.1793  -19.1456 N   0  0  0  0  0  0  0  0  0  0  0  0
   28.5816  -30.6245  -19.3712 C   0  0  1  0  0  0  0  0  0  0  0  0
   27.1349  -31.0476  -19.4610 C   0  0  0  0  0  0  0  0  0  0  0  0
   26.9675  -32.4844  -19.7616 C   0  0  0  0  0  0  0  0  0  0  0  0
   27.0751  -33.5499  -18.9100 C   0  0  0  0  0  0  0  0  0  0  0  0
   26.8441  -34.7080  -19.5951 N   0  0  0  0  0  0  0  0  0  0  0  0
   26.6018  -34.3297  -20.8424 C   0  0  0  0  0  0  0  0  0  0  0  0
   26.6707  -32.9945  -20.9667 N   0  0  0  0  0  0  0  0  0  0  0  0
   29.3896  -31.0441  -20.5227 C   0  0  0  0  0  0  0  0  0  0  0  0
   30.0471  -32.2604  -20.5790 O   0  0  0  0  0  0  0  0  0  0  0  0
   29.4974  -30.2742  -21.5077 O   0  0  0  0  0  0  0  0  0  0  0  0
  2  1  1  6
  3  2  1  0
  4  5  1  0
  4  2  1  0
  5  6  1  6
  7 13  1  0
  7  5  1  0
  8  7  2  0
 10  9  1  1
 10 12  1  0
 11 10  1  0
 12 14  1  0
 12 13  1  1
 14 16  1  0
 15 14  2  0
 16 17  1  0
 17 24  1  0
 17 18  1  6
 19 18  1  0
 20 19  2  0
 21 22  1  0
 21 20  1  0
 22 23  2  0
 23 19  1  0
 24 26  2  0
 24 25  1  0
M  END
$$$$
