LVH.pdb
     RDKit          3D

 26 26  0  0  1  0  0  0  0  0999 V2000
   24.7735  -24.9761  -17.6049 C   0  0  0  0  0  0  0  0  0  0  0  0
   25.8182  -24.2220  -16.8510 C   0  0  1  0  0  0  0  0  0  0  0  0
   25.7959  -24.7070  -15.4010 C   0  0  0  0  0  0  0  0  0  0  0  0
   27.2197  -24.4847  -17.3587 C   0  0  0  0  0  0  0  0  0  0  0  0
   28.2573  -23.8283  -16.4437 C   0  0  2  0  0  0  0  0  0  0  0  0
   28.1646  -22.3919  -16.5825 N   0  0  0  0  0  0  0  0  0  0  0  0
   29.5875  -24.2627  -16.9359 C   0  0  0  0  0  0  0  0  0  0  0  0
   30.0475  -23.7272  -17.9732 O   0  0  0  0  0  0  0  0  0  0  0  0
   32.7579  -24.4057  -14.9889 C   0  0  0  0  0  0  0  0  0  0  0  0
   32.6752  -25.6664  -15.7715 C   0  0  2  0  0  0  0  0  0  0  0  0
   34.0475  -26.0550  -16.2844 C   0  0  0  0  0  0  0  0  0  0  0  0
   31.6586  -25.6035  -16.8816 C   0  0  2  0  0  0  0  0  0  0  0  0
   30.3569  -25.2549  -16.2837 N   0  0  0  0  0  0  0  0  0  0  0  0
   31.5327  -26.8566  -17.6530 C   0  0  0  0  0  0  0  0  0  0  0  0
   30.7097  -27.7526  -17.2262 O   0  0  0  0  0  0  0  0  0  0  0  0
   32.2138  -27.2043  -18.8284 N   0  0  0  0  0  0  0  0  0  0  0  0
   31.8829  -28.3978  -19.6141 C   0  0  1  0  0  0  0  0  0  0  0  0
   30.4023  -28.4557  -19.9047 C   0  0  0  0  0  0  0  0  0  0  0  0
   29.6520  -29.2806  -18.9356 C   0  0  0  0  0  0  0  0  0  0  0  0
   29.9721  -30.5162  -18.4426 C   0  0  0  0  0  0  0  0  0  0  0  0
   29.0063  -30.9238  -17.5679 N   0  0  0  0  0  0  0  0  0  0  0  0
   28.1220  -29.9365  -17.5441 C   0  0  0  0  0  0  0  0  0  0  0  0
   28.4899  -28.9357  -18.3603 N   0  0  0  0  0  0  0  0  0  0  0  0
   32.7220  -28.4929  -20.8149 C   0  0  0  0  0  0  0  0  0  0  0  0
   33.3160  -29.6726  -21.2279 O   0  0  0  0  0  0  0  0  0  0  0  0
   32.9179  -27.4651  -21.5076 O   0  0  0  0  0  0  0  0  0  0  0  0
  2  1  1  6
  3  2  1  0
  4  5  1  0
  4  2  1  0
  5  6  1  6
  7 13  1  0
  7  5  1  0
  8  7  2  0
 10  9  1  6
 10 12  1  0
 11 10  1  0
 12 14  1  0
 12 13  1  1
 14 16  1  0
 15 14  2  0
 16 17  1  0
 17 24  1  0
 17 18  1  6
 19 18  1  0
 20 19  2  0
 21 22  1  0
 21 20  1  0
 22 23  2  0
 23 19  1  0
 24 26  2  0
 24 25  1  0
M  END
$$$$
