LVH.pdb
     RDKit          3D

 26 26  0  0  1  0  0  0  0  0999 V2000
   21.8380  -37.6132  -13.4532 C   0  0  0  0  0  0  0  0  0  0  0  0
   22.1303  -36.1652  -13.2384 C   0  0  1  0  0  0  0  0  0  0  0  0
   20.9211  -35.5378  -12.5440 C   0  0  0  0  0  0  0  0  0  0  0  0
   23.3096  -35.9296  -12.3193 C   0  0  0  0  0  0  0  0  0  0  0  0
   23.4657  -34.4376  -12.0129 C   0  0  2  0  0  0  0  0  0  0  0  0
   24.0274  -33.7763  -13.1698 N   0  0  0  0  0  0  0  0  0  0  0  0
   24.4373  -34.3364  -10.8966 C   0  0  0  0  0  0  0  0  0  0  0  0
   25.6629  -34.3778  -11.1623 O   0  0  0  0  0  0  0  0  0  0  0  0
   23.6790  -32.1791   -7.5305 C   0  0  0  0  0  0  0  0  0  0  0  0
   25.0056  -32.5247   -8.1045 C   0  0  2  0  0  0  0  0  0  0  0  0
   25.3580  -31.5646   -9.2232 C   0  0  0  0  0  0  0  0  0  0  0  0
   25.0977  -33.9614   -8.5485 C   0  0  2  0  0  0  0  0  0  0  0  0
   24.0381  -34.1952   -9.5466 N   0  0  0  0  0  0  0  0  0  0  0  0
   24.9708  -34.9395   -7.4492 C   0  0  0  0  0  0  0  0  0  0  0  0
   23.7896  -35.2064   -7.0069 O   0  0  0  0  0  0  0  0  0  0  0  0
   26.0042  -35.6380   -6.8082 N   0  0  0  0  0  0  0  0  0  0  0  0
   25.7657  -36.5641   -5.6962 C   0  0  1  0  0  0  0  0  0  0  0  0
   26.7690  -37.6924   -5.7127 C   0  0  0  0  0  0  0  0  0  0  0  0
   26.4111  -38.7742   -6.6531 C   0  0  0  0  0  0  0  0  0  0  0  0
   25.3002  -38.8803   -7.4449 C   0  0  0  0  0  0  0  0  0  0  0  0
   25.3605  -40.0390   -8.1644 N   0  0  0  0  0  0  0  0  0  0  0  0
   26.4985  -40.6134   -7.8005 C   0  0  0  0  0  0  0  0  0  0  0  0
   27.1484  -39.8698   -6.8909 N   0  0  0  0  0  0  0  0  0  0  0  0
   25.7039  -35.8508   -4.4146 C   0  0  0  0  0  0  0  0  0  0  0  0
   25.9549  -34.4953   -4.2936 O   0  0  0  0  0  0  0  0  0  0  0  0
   25.4115  -36.4872   -3.3735 O   0  0  0  0  0  0  0  0  0  0  0  0
  2  1  1  1
  3  2  1  0
  4  5  1  0
  4  2  1  0
  5  6  1  6
  7 13  1  0
  7  5  1  0
  8  7  2  0
 10  9  1  6
 10 12  1  0
 11 10  1  0
 12 14  1  0
 12 13  1  6
 14 16  1  0
 15 14  2  0
 16 17  1  0
 17 24  1  0
 17 18  1  1
 19 18  1  0
 20 19  2  0
 21 22  1  0
 21 20  1  0
 22 23  2  0
 23 19  1  0
 24 26  2  0
 24 25  1  0
M  END
$$$$
