LVH.pdb
     RDKit          3D

 26 26  0  0  1  0  0  0  0  0999 V2000
   21.4336  -16.5538  -15.3417 C   0  0  0  0  0  0  0  0  0  0  0  0
   19.9977  -16.4822  -15.7433 C   0  0  1  0  0  0  0  0  0  0  0  0
   19.1465  -16.7227  -14.4961 C   0  0  0  0  0  0  0  0  0  0  0  0
   19.5970  -15.1198  -16.2672 C   0  0  0  0  0  0  0  0  0  0  0  0
   18.1110  -15.0988  -16.6358 C   0  0  2  0  0  0  0  0  0  0  0  0
   17.8927  -15.9827  -17.7592 N   0  0  0  0  0  0  0  0  0  0  0  0
   17.8028  -13.7120  -17.0627 C   0  0  0  0  0  0  0  0  0  0  0  0
   18.1275  -13.3547  -18.2208 O   0  0  0  0  0  0  0  0  0  0  0  0
   14.9332   -9.9064  -17.1766 C   0  0  0  0  0  0  0  0  0  0  0  0
   15.3597  -11.2573  -16.7273 C   0  0  2  0  0  0  0  0  0  0  0  0
   14.8051  -11.5492  -15.3472 C   0  0  0  0  0  0  0  0  0  0  0  0
   16.8526  -11.4515  -16.7844 C   0  0  2  0  0  0  0  0  0  0  0  0
   17.1582  -12.7779  -16.2179 N   0  0  0  0  0  0  0  0  0  0  0  0
   17.6215  -10.4145  -16.0670 C   0  0  0  0  0  0  0  0  0  0  0  0
   17.7623  -10.5363  -14.7913 O   0  0  0  0  0  0  0  0  0  0  0  0
   18.2390   -9.2811  -16.6154 N   0  0  0  0  0  0  0  0  0  0  0  0
   18.9315   -8.2803  -15.7970 C   0  0  1  0  0  0  0  0  0  0  0  0
   20.1876   -7.8008  -16.4843 C   0  0  0  0  0  0  0  0  0  0  0  0
   20.9556   -6.8291  -15.6789 C   0  0  0  0  0  0  0  0  0  0  0  0
   20.9298   -6.6380  -14.3243 C   0  0  0  0  0  0  0  0  0  0  0  0
   21.7948   -5.6369  -13.9872 N   0  0  0  0  0  0  0  0  0  0  0  0
   22.3279   -5.2394  -15.1340 C   0  0  0  0  0  0  0  0  0  0  0  0
   21.8375   -5.9434  -16.1670 N   0  0  0  0  0  0  0  0  0  0  0  0
   18.0246   -7.1946  -15.4050 C   0  0  0  0  0  0  0  0  0  0  0  0
   18.0083   -6.6480  -14.1338 O   0  0  0  0  0  0  0  0  0  0  0  0
   17.2223   -6.7317  -16.2515 O   0  0  0  0  0  0  0  0  0  0  0  0
  2  1  1  1
  3  2  1  0
  4  5  1  0
  4  2  1  0
  5  6  1  6
  7 13  1  0
  7  5  1  0
  8  7  2  0
 10  9  1  1
 10 12  1  0
 11 10  1  0
 12 14  1  0
 12 13  1  1
 14 16  1  0
 15 14  2  0
 16 17  1  0
 17 24  1  0
 17 18  1  6
 19 18  1  0
 20 19  2  0
 21 22  1  0
 21 20  1  0
 22 23  2  0
 23 19  1  0
 24 26  2  0
 24 25  1  0
M  END
$$$$
