LVH.pdb
     RDKit          3D

 26 26  0  0  1  0  0  0  0  0999 V2000
   25.5999  -14.3445  -15.6086 C   0  0  0  0  0  0  0  0  0  0  0  0
   24.2347  -14.7594  -16.0475 C   0  0  1  0  0  0  0  0  0  0  0  0
   23.5054  -15.3391  -14.8350 C   0  0  0  0  0  0  0  0  0  0  0  0
   23.3899  -13.5994  -16.5289 C   0  0  0  0  0  0  0  0  0  0  0  0
   21.9903  -14.0782  -16.9242 C   0  0  2  0  0  0  0  0  0  0  0  0
   22.0970  -14.9363  -18.0833 N   0  0  0  0  0  0  0  0  0  0  0  0
   21.2231  -12.8672  -17.3055 C   0  0  0  0  0  0  0  0  0  0  0  0
   21.4578  -12.3336  -18.4166 O   0  0  0  0  0  0  0  0  0  0  0  0
   17.1429  -10.3874  -17.4226 C   0  0  0  0  0  0  0  0  0  0  0  0
   18.0198  -11.5002  -16.9737 C   0  0  2  0  0  0  0  0  0  0  0  0
   17.5853  -11.9901  -15.6067 C   0  0  0  0  0  0  0  0  0  0  0  0
   19.4832  -11.1436  -17.0026 C   0  0  2  0  0  0  0  0  0  0  0  0
   20.2390  -12.2910  -16.4681 N   0  0  0  0  0  0  0  0  0  0  0  0
   19.8202   -9.9256  -16.2382 C   0  0  0  0  0  0  0  0  0  0  0  0
   19.9265  -10.0225  -14.9570 O   0  0  0  0  0  0  0  0  0  0  0  0
   20.0491   -8.6386  -16.7458 N   0  0  0  0  0  0  0  0  0  0  0  0
   20.3592   -7.4904  -15.8876 C   0  0  1  0  0  0  0  0  0  0  0  0
   20.9509   -6.3604  -16.6957 C   0  0  0  0  0  0  0  0  0  0  0  0
   21.2627   -5.1665  -15.8833 C   0  0  0  0  0  0  0  0  0  0  0  0
   22.4515   -4.8205  -15.3009 C   0  0  0  0  0  0  0  0  0  0  0  0
   22.3082   -3.6354  -14.6383 N   0  0  0  0  0  0  0  0  0  0  0  0
   21.0441   -3.2837  -14.8276 C   0  0  0  0  0  0  0  0  0  0  0  0
   20.3946   -4.1909  -15.5748 N   0  0  0  0  0  0  0  0  0  0  0  0
   19.1932   -7.0941  -15.0884 C   0  0  0  0  0  0  0  0  0  0  0  0
   19.2850   -6.7009  -13.7648 O   0  0  0  0  0  0  0  0  0  0  0  0
   18.0554   -7.1081  -15.6174 O   0  0  0  0  0  0  0  0  0  0  0  0
  2  1  1  1
  3  2  1  0
  4  5  1  0
  4  2  1  0
  5  6  1  6
  7 13  1  0
  7  5  1  0
  8  7  2  0
 10  9  1  1
 10 12  1  0
 11 10  1  0
 12 14  1  0
 12 13  1  1
 14 16  1  0
 15 14  2  0
 16 17  1  0
 17 24  1  0
 17 18  1  6
 19 18  1  0
 20 19  2  0
 21 22  1  0
 21 20  1  0
 22 23  2  0
 23 19  1  0
 24 26  2  0
 24 25  1  0
M  END
$$$$
