LVH.pdb
     RDKit          3D

 26 26  0  0  1  0  0  0  0  0999 V2000
   29.1046  -21.7267  -12.6946 C   0  0  0  0  0  0  0  0  0  0  0  0
   27.7773  -21.4208  -12.0838 C   0  0  1  0  0  0  0  0  0  0  0  0
   28.0185  -20.5903  -10.8228 C   0  0  0  0  0  0  0  0  0  0  0  0
   26.8947  -20.5769  -12.9783 C   0  0  0  0  0  0  0  0  0  0  0  0
   25.5463  -20.3056  -12.3055 C   0  0  2  0  0  0  0  0  0  0  0  0
   25.1947  -21.4413  -11.4824 N   0  0  0  0  0  0  0  0  0  0  0  0
   24.5476  -20.1889  -13.3961 C   0  0  0  0  0  0  0  0  0  0  0  0
   24.8132  -19.4523  -14.3765 O   0  0  0  0  0  0  0  0  0  0  0  0
   22.4024  -23.1015  -14.9162 C   0  0  0  0  0  0  0  0  0  0  0  0
   21.5694  -21.8907  -14.6954 C   0  0  2  0  0  0  0  0  0  0  0  0
   20.5617  -21.7370  -15.8172 C   0  0  0  0  0  0  0  0  0  0  0  0
   22.3884  -20.6411  -14.5022 C   0  0  2  0  0  0  0  0  0  0  0  0
   23.3098  -20.8739  -13.3751 N   0  0  0  0  0  0  0  0  0  0  0  0
   21.5843  -19.4291  -14.2458 C   0  0  0  0  0  0  0  0  0  0  0  0
   21.4835  -19.0130  -13.0298 O   0  0  0  0  0  0  0  0  0  0  0  0
   20.8982  -18.6483  -15.1872 N   0  0  0  0  0  0  0  0  0  0  0  0
   20.9662  -17.1833  -15.2042 C   0  0  1  0  0  0  0  0  0  0  0  0
   22.4008  -16.7129  -15.2309 C   0  0  0  0  0  0  0  0  0  0  0  0
   22.5302  -15.2415  -15.2011 C   0  0  0  0  0  0  0  0  0  0  0  0
   21.5377  -14.3010  -15.1488 C   0  0  0  0  0  0  0  0  0  0  0  0
   22.0907  -13.0528  -15.1366 N   0  0  0  0  0  0  0  0  0  0  0  0
   23.4002  -13.2541  -15.1814 C   0  0  0  0  0  0  0  0  0  0  0  0
   23.6888  -14.5649  -15.2208 N   0  0  0  0  0  0  0  0  0  0  0  0
   20.1442  -16.6257  -16.2852 C   0  0  0  0  0  0  0  0  0  0  0  0
   20.4057  -16.8530  -17.6249 O   0  0  0  0  0  0  0  0  0  0  0  0
   19.1564  -15.9084  -15.9950 O   0  0  0  0  0  0  0  0  0  0  0  0
  2  1  1  6
  3  2  1  0
  4  5  1  0
  4  2  1  0
  5  6  1  1
  7 13  1  0
  7  5  1  0
  8  7  2  0
 10  9  1  6
 10 12  1  0
 11 10  1  0
 12 14  1  0
 12 13  1  1
 14 16  1  0
 15 14  2  0
 16 17  1  0
 17 24  1  0
 17 18  1  6
 19 18  1  0
 20 19  2  0
 21 22  1  0
 21 20  1  0
 22 23  2  0
 23 19  1  0
 24 26  2  0
 24 25  1  0
M  END
$$$$
