KRP.pdb
     RDKit          3D

 28 28  0  0  1  0  0  0  0  0999 V2000
   28.3990  -20.4235  -19.1017 N   0  0  0  0  0  0  0  0  0  0  0  0
   27.1808  -19.8149  -18.6624 C   0  0  1  0  0  0  0  0  0  0  0  0
   26.1476  -19.6129  -19.7336 C   0  0  0  0  0  0  0  0  0  0  0  0
   26.6645  -19.5796  -21.1188 C   0  0  0  0  0  0  0  0  0  0  0  0
   26.7735  -20.8758  -21.8371 C   0  0  0  0  0  0  0  0  0  0  0  0
   27.2042  -20.7220  -23.2796 C   0  0  0  0  0  0  0  0  0  0  0  0
   28.6449  -20.5560  -23.4015 N   0  0  0  0  0  0  0  0  0  0  0  0
   26.6061  -20.4352  -17.4448 C   0  0  0  0  0  0  0  0  0  0  0  0
   25.7760  -21.3845  -17.5862 O   0  0  0  0  0  0  0  0  0  0  0  0
   24.0713  -20.7270  -10.4534 N   0  0  0  0  0  0  0  0  0  0  0  0
   25.2175  -20.6493   -9.6097 C   0  0  0  0  0  0  0  0  0  0  0  0
   25.1585  -20.9371   -8.3482 N   0  0  0  0  0  0  0  0  0  0  0  0
   26.4795  -20.2489  -10.1231 N   0  0  0  0  0  0  0  0  0  0  0  0
   26.5713  -19.7073  -11.5031 C   0  0  0  0  0  0  0  0  0  0  0  0
   26.9721  -20.7732  -12.4537 C   0  0  0  0  0  0  0  0  0  0  0  0
   27.1558  -20.3555  -13.8317 C   0  0  0  0  0  0  0  0  0  0  0  0
   26.3009  -20.8439  -14.9530 C   0  0  2  0  0  0  0  0  0  0  0  0
   26.9087  -20.0521  -16.1411 N   0  0  0  0  0  0  0  0  0  0  0  0
   24.9401  -20.3575  -14.9396 C   0  0  0  0  0  0  0  0  0  0  0  0
   24.9226  -19.0327  -14.8297 O   0  0  0  0  0  0  0  0  0  0  0  0
   26.0122  -20.7661   -7.7815 N   0  0  0  0  0  0  0  0  0  0  0  0
   23.6952  -20.9993  -15.0289 C   0  0  0  0  0  0  0  0  0  0  0  0
   23.6315  -22.3467  -15.7019 C   0  0  0  0  0  0  0  0  0  0  0  0
   22.9806  -23.1176  -14.5606 C   0  0  0  0  0  0  0  0  0  0  0  0
   22.2272  -22.0908  -13.7259 C   0  0  2  0  0  0  0  0  0  0  0  0
   22.3411  -20.8868  -14.6792 C   0  0  0  0  0  0  0  0  0  0  0  0
   21.7309  -19.7078  -14.1682 O   0  0  0  0  0  0  0  0  0  0  0  0
   22.3130  -19.0525  -13.2226 O   0  0  0  0  0  0  0  0  0  0  0  0
  2  1  1  6
  3  2  1  0
  4  3  1  0
  5  4  1  0
  5  6  1  0
  7  6  1  0
  8  2  1  0
  9  8  2  0
 10 11  1  0
 11 12  2  0
 13 11  1  0
 13 14  1  0
 14 15  1  0
 16 15  1  0
 17 16  1  1
 17 18  1  0
 18  8  1  0
 19 21  1  0
 19 17  1  0
 20 19  2  0
 21 22  1  0
 23 22  1  0
 24 23  1  0
 25 26  1  1
 25 21  1  0
 25 24  1  0
 26 28  1  0
 27 26  2  0
M  END
$$$$
