KRP.pdb
     RDKit          3D

 28 28  0  0  1  0  0  0  0  0999 V2000
   19.5583  -17.6471  -18.7381 N   0  0  0  0  0  0  0  0  0  0  0  0
   20.8572  -18.2365  -18.8517 C   0  0  1  0  0  0  0  0  0  0  0  0
   21.5862  -17.9298  -20.1285 C   0  0  0  0  0  0  0  0  0  0  0  0
   21.2250  -18.7752  -21.2869 C   0  0  0  0  0  0  0  0  0  0  0  0
   22.2545  -19.7233  -21.7862 C   0  0  0  0  0  0  0  0  0  0  0  0
   21.8414  -20.4352  -23.0560 C   0  0  0  0  0  0  0  0  0  0  0  0
   20.7101  -21.3241  -22.8369 N   0  0  0  0  0  0  0  0  0  0  0  0
   21.7139  -18.0330  -17.6590 C   0  0  0  0  0  0  0  0  0  0  0  0
   21.7287  -16.8863  -17.1160 O   0  0  0  0  0  0  0  0  0  0  0  0
   26.4313  -21.8584  -11.7548 N   0  0  0  0  0  0  0  0  0  0  0  0
   25.4634  -21.1823  -10.9562 C   0  0  0  0  0  0  0  0  0  0  0  0
   25.4939  -21.2260   -9.6621 N   0  0  0  0  0  0  0  0  0  0  0  0
   24.4181  -20.4289  -11.5531 N   0  0  0  0  0  0  0  0  0  0  0  0
   24.1970  -20.5152  -13.0194 C   0  0  0  0  0  0  0  0  0  0  0  0
   23.0509  -19.6641  -13.4227 C   0  0  0  0  0  0  0  0  0  0  0  0
   22.7364  -19.6567  -14.8397 C   0  0  0  0  0  0  0  0  0  0  0  0
   23.3262  -18.6798  -15.8012 C   0  0  2  0  0  0  0  0  0  0  0  0
   22.5151  -19.0139  -17.0812 N   0  0  0  0  0  0  0  0  0  0  0  0
   24.6765  -18.9766  -16.2216 C   0  0  0  0  0  0  0  0  0  0  0  0
   24.7517  -20.2151  -16.6990 O   0  0  0  0  0  0  0  0  0  0  0  0
   24.7239  -20.7502   -9.1524 N   0  0  0  0  0  0  0  0  0  0  0  0
   25.8623  -18.2258  -16.2270 C   0  0  0  0  0  0  0  0  0  0  0  0
   25.7887  -16.7692  -15.8457 C   0  0  0  0  0  0  0  0  0  0  0  0
   26.8246  -16.7948  -14.7292 C   0  0  0  0  0  0  0  0  0  0  0  0
   27.7421  -17.9738  -15.0241 C   0  0  2  0  0  0  0  0  0  0  0  0
   27.2462  -18.3055  -16.4438 C   0  0  0  0  0  0  0  0  0  0  0  0
   27.9131  -19.4198  -17.0242 O   0  0  0  0  0  0  0  0  0  0  0  0
   28.6058  -19.2538  -18.0989 O   0  0  0  0  0  0  0  0  0  0  0  0
  2  1  1  1
  3  2  1  0
  4  3  1  0
  5  4  1  0
  5  6  1  0
  7  6  1  0
  8  2  1  0
  9  8  2  0
 10 11  1  0
 11 12  2  0
 13 11  1  0
 13 14  1  0
 14 15  1  0
 16 15  1  0
 17 16  1  1
 17 18  1  0
 18  8  1  0
 19 21  1  0
 19 17  1  0
 20 19  2  0
 21 22  1  0
 23 22  1  0
 24 23  1  0
 25 26  1  1
 25 21  1  0
 25 24  1  0
 26 28  1  0
 27 26  2  0
M  END
$$$$
