KRP.pdb
     RDKit          3D

 28 28  0  0  1  0  0  0  0  0999 V2000
   20.4877  -19.9534  -12.5263 N   0  0  0  0  0  0  0  0  0  0  0  0
   21.4893  -20.4827  -13.4004 C   0  0  1  0  0  0  0  0  0  0  0  0
   21.0540  -20.6750  -14.8249 C   0  0  0  0  0  0  0  0  0  0  0  0
   20.0695  -19.6929  -15.3282 C   0  0  0  0  0  0  0  0  0  0  0  0
   19.6293  -19.8315  -16.7406 C   0  0  0  0  0  0  0  0  0  0  0  0
   18.6043  -18.7957  -17.1485 C   0  0  0  0  0  0  0  0  0  0  0  0
   18.1495  -18.9912  -18.5170 N   0  0  0  0  0  0  0  0  0  0  0  0
   22.7950  -19.7870  -13.3065 C   0  0  0  0  0  0  0  0  0  0  0  0
   22.9797  -18.9788  -12.3459 O   0  0  0  0  0  0  0  0  0  0  0  0
   25.9783  -19.5211   -7.6751 N   0  0  0  0  0  0  0  0  0  0  0  0
   25.6934  -20.6665   -8.4742 C   0  0  0  0  0  0  0  0  0  0  0  0
   24.4952  -21.1476   -8.5767 N   0  0  0  0  0  0  0  0  0  0  0  0
   26.7208  -21.3314   -9.1944 N   0  0  0  0  0  0  0  0  0  0  0  0
   26.5034  -21.6901  -10.6193 C   0  0  0  0  0  0  0  0  0  0  0  0
   25.5980  -20.7110  -11.2689 C   0  0  0  0  0  0  0  0  0  0  0  0
   25.3270  -20.9375  -12.6768 C   0  0  0  0  0  0  0  0  0  0  0  0
   25.3087  -19.8426  -13.6905 C   0  0  2  0  0  0  0  0  0  0  0  0
   23.8478  -19.9519  -14.2023 N   0  0  0  0  0  0  0  0  0  0  0  0
   26.0635  -20.1116  -14.8931 C   0  0  0  0  0  0  0  0  0  0  0  0
   26.1622  -21.4219  -15.0950 O   0  0  0  0  0  0  0  0  0  0  0  0
   24.3588  -21.9488   -9.2237 N   0  0  0  0  0  0  0  0  0  0  0  0
   26.6714  -19.2793  -15.8457 C   0  0  0  0  0  0  0  0  0  0  0  0
   26.2828  -17.8231  -15.8757 C   0  0  0  0  0  0  0  0  0  0  0  0
   27.6797  -17.2330  -15.7316 C   0  0  0  0  0  0  0  0  0  0  0  0
   28.6458  -18.2888  -16.2520 C   0  0  2  0  0  0  0  0  0  0  0  0
   27.6216  -19.2535  -16.8778 C   0  0  0  0  0  0  0  0  0  0  0  0
   28.2196  -20.4062  -17.4584 O   0  0  0  0  0  0  0  0  0  0  0  0
   28.5475  -21.3981  -16.7027 O   0  0  0  0  0  0  0  0  0  0  0  0
  2  1  1  1
  3  2  1  0
  4  3  1  0
  5  4  1  0
  5  6  1  0
  7  6  1  0
  8  2  1  0
  9  8  2  0
 10 11  1  0
 11 12  2  0
 13 11  1  0
 13 14  1  0
 14 15  1  0
 16 15  1  0
 17 16  1  1
 17 18  1  0
 18  8  1  0
 19 21  1  0
 19 17  1  0
 20 19  2  0
 21 22  1  0
 23 22  1  0
 24 23  1  0
 25 26  1  1
 25 21  1  0
 25 24  1  0
 26 28  1  0
 27 26  2  0
M  END
$$$$
