KRP.pdb
     RDKit          3D

 28 28  0  0  1  0  0  0  0  0999 V2000
   20.6208  -20.9537  -13.3425 N   0  0  0  0  0  0  0  0  0  0  0  0
   21.7416  -21.4737  -14.0641 C   0  0  1  0  0  0  0  0  0  0  0  0
   21.5058  -21.6997  -15.5300 C   0  0  0  0  0  0  0  0  0  0  0  0
   20.7988  -22.9518  -15.8758 C   0  0  0  0  0  0  0  0  0  0  0  0
   21.6223  -24.1786  -16.0327 C   0  0  0  0  0  0  0  0  0  0  0  0
   20.8167  -25.3843  -16.4654 C   0  0  0  0  0  0  0  0  0  0  0  0
   21.6426  -26.5773  -16.5781 N   0  0  0  0  0  0  0  0  0  0  0  0
   23.0079  -20.7460  -13.8097 C   0  0  0  0  0  0  0  0  0  0  0  0
   22.9438  -19.5255  -13.4687 O   0  0  0  0  0  0  0  0  0  0  0  0
   24.6313  -21.0315   -7.8548 N   0  0  0  0  0  0  0  0  0  0  0  0
   25.9797  -20.5770   -7.9380 C   0  0  0  0  0  0  0  0  0  0  0  0
   26.6111  -20.1175   -6.9046 N   0  0  0  0  0  0  0  0  0  0  0  0
   26.6893  -20.6092   -9.1675 N   0  0  0  0  0  0  0  0  0  0  0  0
   26.0632  -21.2369  -10.3593 C   0  0  0  0  0  0  0  0  0  0  0  0
   26.9521  -21.1103  -11.5401 C   0  0  0  0  0  0  0  0  0  0  0  0
   26.3464  -21.4158  -12.8234 C   0  0  0  0  0  0  0  0  0  0  0  0
   25.5229  -20.4360  -13.5907 C   0  0  2  0  0  0  0  0  0  0  0  0
   24.2788  -21.3037  -13.9185 N   0  0  0  0  0  0  0  0  0  0  0  0
   26.0201  -20.1225  -14.9108 C   0  0  0  0  0  0  0  0  0  0  0  0
   26.1387  -21.2301  -15.6366 O   0  0  0  0  0  0  0  0  0  0  0  0
   27.5960  -19.8180   -7.0442 N   0  0  0  0  0  0  0  0  0  0  0  0
   26.3721  -18.9172  -15.5379 C   0  0  0  0  0  0  0  0  0  0  0  0
   25.8799  -17.6264  -14.9345 C   0  0  0  0  0  0  0  0  0  0  0  0
   27.2318  -16.9420  -14.7786 C   0  0  0  0  0  0  0  0  0  0  0  0
   28.1546  -17.5782  -15.8094 C   0  0  2  0  0  0  0  0  0  0  0  0
   27.1025  -18.3728  -16.6050 C   0  0  0  0  0  0  0  0  0  0  0  0
   27.6605  -19.1273  -17.6740 O   0  0  0  0  0  0  0  0  0  0  0  0
   28.1969  -20.2736  -17.4274 O   0  0  0  0  0  0  0  0  0  0  0  0
  2  1  1  6
  3  2  1  0
  4  3  1  0
  5  4  1  0
  5  6  1  0
  7  6  1  0
  8  2  1  0
  9  8  2  0
 10 11  1  0
 11 12  2  0
 13 11  1  0
 13 14  1  0
 14 15  1  0
 16 15  1  0
 17 16  1  1
 17 18  1  0
 18  8  1  0
 19 21  1  0
 19 17  1  0
 20 19  2  0
 21 22  1  0
 23 22  1  0
 24 23  1  0
 25 26  1  1
 25 21  1  0
 25 24  1  0
 26 28  1  0
 27 26  2  0
M  END
$$$$
