KRP.pdb
     RDKit          3D

 28 28  0  0  1  0  0  0  0  0999 V2000
   20.7573  -21.2271  -15.0684 N   0  0  0  0  0  0  0  0  0  0  0  0
   21.3230  -21.0471  -13.7664 C   0  0  1  0  0  0  0  0  0  0  0  0
   21.2143  -22.2360  -12.8551 C   0  0  0  0  0  0  0  0  0  0  0  0
   19.8963  -22.9065  -12.8373 C   0  0  0  0  0  0  0  0  0  0  0  0
   18.7715  -22.1817  -12.1913 C   0  0  0  0  0  0  0  0  0  0  0  0
   17.4590  -22.9311  -12.2677 C   0  0  0  0  0  0  0  0  0  0  0  0
   16.4104  -22.2691  -11.5061 N   0  0  0  0  0  0  0  0  0  0  0  0
   22.6929  -20.4807  -13.7813 C   0  0  0  0  0  0  0  0  0  0  0  0
   23.3481  -20.4589  -12.6949 O   0  0  0  0  0  0  0  0  0  0  0  0
   26.6224  -25.5440  -15.8378 N   0  0  0  0  0  0  0  0  0  0  0  0
   25.6830  -25.0817  -16.8049 C   0  0  0  0  0  0  0  0  0  0  0  0
   24.8590  -25.8869  -17.3968 N   0  0  0  0  0  0  0  0  0  0  0  0
   25.6137  -23.7089  -17.1614 N   0  0  0  0  0  0  0  0  0  0  0  0
   26.1709  -22.6836  -16.2423 C   0  0  0  0  0  0  0  0  0  0  0  0
   25.1781  -21.6082  -16.0010 C   0  0  0  0  0  0  0  0  0  0  0  0
   25.5804  -20.5744  -15.0648 C   0  0  0  0  0  0  0  0  0  0  0  0
   24.7517  -19.3673  -14.7767 C   0  0  2  0  0  0  0  0  0  0  0  0
   23.3248  -19.9627  -14.9084 N   0  0  0  0  0  0  0  0  0  0  0  0
   24.7506  -18.3652  -15.8179 C   0  0  0  0  0  0  0  0  0  0  0  0
   24.0597  -18.7915  -16.8708 O   0  0  0  0  0  0  0  0  0  0  0  0
   24.1718  -25.4660  -18.0523 N   0  0  0  0  0  0  0  0  0  0  0  0
   25.3102  -17.0813  -15.9088 C   0  0  0  0  0  0  0  0  0  0  0  0
   25.6953  -16.3767  -14.6331 C   0  0  0  0  0  0  0  0  0  0  0  0
   27.1520  -16.0992  -14.9813 C   0  0  0  0  0  0  0  0  0  0  0  0
   27.2326  -16.0829  -16.5018 C   0  0  2  0  0  0  0  0  0  0  0  0
   25.7249  -16.0938  -16.8151 C   0  0  0  0  0  0  0  0  0  0  0  0
   25.4424  -16.1026  -18.2092 O   0  0  0  0  0  0  0  0  0  0  0  0
   24.7719  -15.1298  -18.7256 O   0  0  0  0  0  0  0  0  0  0  0  0
  2  1  1  6
  3  2  1  0
  4  3  1  0
  5  4  1  0
  5  6  1  0
  7  6  1  0
  8  2  1  0
  9  8  2  0
 10 11  1  0
 11 12  2  0
 13 11  1  0
 13 14  1  0
 14 15  1  0
 16 15  1  0
 17 16  1  6
 17 18  1  0
 18  8  1  0
 19 21  1  0
 19 17  1  0
 20 19  2  0
 21 22  1  0
 23 22  1  0
 24 23  1  0
 25 26  1  1
 25 21  1  0
 25 24  1  0
 26 28  1  0
 27 26  2  0
M  END
$$$$
