KRP.pdb
     RDKit          3D

 28 28  0  0  1  0  0  0  0  0999 V2000
   26.1809  -25.7715  -17.0092 N   0  0  0  0  0  0  0  0  0  0  0  0
   26.5238  -24.3951  -16.8214 C   0  0  1  0  0  0  0  0  0  0  0  0
   26.6532  -23.5931  -18.0847 C   0  0  0  0  0  0  0  0  0  0  0  0
   27.0893  -24.3501  -19.2779 C   0  0  0  0  0  0  0  0  0  0  0  0
   28.4412  -24.0522  -19.8176 C   0  0  0  0  0  0  0  0  0  0  0  0
   28.7791  -24.8579  -21.0532 C   0  0  0  0  0  0  0  0  0  0  0  0
   30.1274  -24.5844  -21.5280 N   0  0  0  0  0  0  0  0  0  0  0  0
   25.6939  -23.7040  -15.8059 C   0  0  0  0  0  0  0  0  0  0  0  0
   24.5812  -24.2214  -15.4831 O   0  0  0  0  0  0  0  0  0  0  0  0
   23.4393  -20.5628   -9.6434 N   0  0  0  0  0  0  0  0  0  0  0  0
   24.7074  -20.4313   -9.0061 C   0  0  0  0  0  0  0  0  0  0  0  0
   24.8934  -20.7856   -7.7742 N   0  0  0  0  0  0  0  0  0  0  0  0
   25.8258  -19.9011   -9.7021 N   0  0  0  0  0  0  0  0  0  0  0  0
   25.7990  -19.8280  -11.1855 C   0  0  0  0  0  0  0  0  0  0  0  0
   26.0560  -21.1643  -11.7760 C   0  0  0  0  0  0  0  0  0  0  0  0
   26.1195  -21.2138  -13.2253 C   0  0  0  0  0  0  0  0  0  0  0  0
   25.1220  -21.9438  -14.0612 C   0  0  2  0  0  0  0  0  0  0  0  0
   26.0436  -22.5153  -15.1712 N   0  0  0  0  0  0  0  0  0  0  0  0
   24.2302  -21.1001  -14.8234 C   0  0  0  0  0  0  0  0  0  0  0  0
   24.9158  -20.1518  -15.4546 O   0  0  0  0  0  0  0  0  0  0  0  0
   25.8530  -20.6827   -7.3900 N   0  0  0  0  0  0  0  0  0  0  0  0
   22.8402  -21.1080  -15.0171 C   0  0  0  0  0  0  0  0  0  0  0  0
   22.0724  -22.3495  -14.6410 C   0  0  0  0  0  0  0  0  0  0  0  0
   21.0715  -21.6959  -13.6967 C   0  0  0  0  0  0  0  0  0  0  0  0
   20.9752  -20.2361  -14.1194 C   0  0  2  0  0  0  0  0  0  0  0  0
   21.7568  -20.3249  -15.4433 C   0  0  0  0  0  0  0  0  0  0  0  0
   21.8733  -19.0738  -16.1100 O   0  0  0  0  0  0  0  0  0  0  0  0
   22.7637  -18.2277  -15.7177 O   0  0  0  0  0  0  0  0  0  0  0  0
  2  1  1  6
  3  2  1  0
  4  3  1  0
  5  4  1  0
  5  6  1  0
  7  6  1  0
  8  2  1  0
  9  8  2  0
 10 11  1  0
 11 12  2  0
 13 11  1  0
 13 14  1  0
 14 15  1  0
 16 15  1  0
 17 16  1  1
 17 18  1  0
 18  8  1  0
 19 21  1  0
 19 17  1  0
 20 19  2  0
 21 22  1  0
 23 22  1  0
 24 23  1  0
 25 26  1  1
 25 21  1  0
 25 24  1  0
 26 28  1  0
 27 26  2  0
M  END
$$$$
