KRP.pdb
     RDKit          3D

 28 28  0  0  1  0  0  0  0  0999 V2000
   28.6123  -22.0656  -19.8724 N   0  0  0  0  0  0  0  0  0  0  0  0
   27.8218  -20.9914  -19.3540 C   0  0  1  0  0  0  0  0  0  0  0  0
   26.7007  -20.5384  -20.2448 C   0  0  0  0  0  0  0  0  0  0  0  0
   27.1094  -19.7835  -21.4491 C   0  0  0  0  0  0  0  0  0  0  0  0
   28.0602  -18.6578  -21.2579 C   0  0  0  0  0  0  0  0  0  0  0  0
   27.9587  -17.6036  -22.3388 C   0  0  0  0  0  0  0  0  0  0  0  0
   28.7217  -17.9657  -23.5240 N   0  0  0  0  0  0  0  0  0  0  0  0
   27.3733  -21.1978  -17.9562 C   0  0  0  0  0  0  0  0  0  0  0  0
   27.3074  -22.3851  -17.5133 O   0  0  0  0  0  0  0  0  0  0  0  0
   27.4939  -21.8770  -10.2240 N   0  0  0  0  0  0  0  0  0  0  0  0
   26.5332  -20.8247  -10.1844 C   0  0  0  0  0  0  0  0  0  0  0  0
   25.8036  -20.6043   -9.1372 N   0  0  0  0  0  0  0  0  0  0  0  0
   26.3360  -19.9702  -11.3013 N   0  0  0  0  0  0  0  0  0  0  0  0
   27.1764  -20.1424  -12.5138 C   0  0  0  0  0  0  0  0  0  0  0  0
   26.8846  -19.0766  -13.5035 C   0  0  0  0  0  0  0  0  0  0  0  0
   27.2092  -19.3888  -14.8834 C   0  0  0  0  0  0  0  0  0  0  0  0
   26.6013  -20.5313  -15.6262 C   0  0  2  0  0  0  0  0  0  0  0  0
   27.0127  -20.1778  -17.0801 N   0  0  0  0  0  0  0  0  0  0  0  0
   25.1590  -20.5046  -15.7129 C   0  0  0  0  0  0  0  0  0  0  0  0
   24.7489  -19.3675  -16.2664 O   0  0  0  0  0  0  0  0  0  0  0  0
   25.1373  -19.8086   -9.1814 N   0  0  0  0  0  0  0  0  0  0  0  0
   24.1627  -21.4227  -15.3465 C   0  0  0  0  0  0  0  0  0  0  0  0
   24.5581  -22.8623  -15.1380 C   0  0  0  0  0  0  0  0  0  0  0  0
   24.0185  -23.0224  -13.7225 C   0  0  0  0  0  0  0  0  0  0  0  0
   22.9150  -21.9848  -13.5656 C   0  0  2  0  0  0  0  0  0  0  0  0
   22.7997  -21.5433  -15.0364 C   0  0  0  0  0  0  0  0  0  0  0  0
   21.8284  -20.5244  -15.2410 O   0  0  0  0  0  0  0  0  0  0  0  0
   22.0930  -19.3155  -14.8789 O   0  0  0  0  0  0  0  0  0  0  0  0
  2  1  1  6
  3  2  1  0
  4  3  1  0
  5  4  1  0
  5  6  1  0
  7  6  1  0
  8  2  1  0
  9  8  2  0
 10 11  1  0
 11 12  2  0
 13 11  1  0
 13 14  1  0
 14 15  1  0
 16 15  1  0
 17 16  1  1
 17 18  1  0
 18  8  1  0
 19 21  1  0
 19 17  1  0
 20 19  2  0
 21 22  1  0
 23 22  1  0
 24 23  1  0
 25 26  1  1
 25 21  1  0
 25 24  1  0
 26 28  1  0
 27 26  2  0
M  END
$$$$
