KRP.pdb
     RDKit          3D

 28 28  0  0  1  0  0  0  0  0999 V2000
   20.1069  -20.6573  -12.1453 N   0  0  0  0  0  0  0  0  0  0  0  0
   21.0324  -21.1003  -13.1427 C   0  0  1  0  0  0  0  0  0  0  0  0
   20.5720  -20.9245  -14.5614 C   0  0  0  0  0  0  0  0  0  0  0  0
   20.3428  -19.5273  -14.9882 C   0  0  0  0  0  0  0  0  0  0  0  0
   19.6943  -19.3154  -16.3082 C   0  0  0  0  0  0  0  0  0  0  0  0
   19.5626  -17.8540  -16.6784 C   0  0  0  0  0  0  0  0  0  0  0  0
   18.8638  -17.6748  -17.9423 N   0  0  0  0  0  0  0  0  0  0  0  0
   22.4145  -20.6037  -12.9404 C   0  0  0  0  0  0  0  0  0  0  0  0
   22.5792  -19.5292  -12.2858 O   0  0  0  0  0  0  0  0  0  0  0  0
   30.1541  -22.0998  -11.4938 N   0  0  0  0  0  0  0  0  0  0  0  0
   29.7201  -21.2185  -10.4610 C   0  0  0  0  0  0  0  0  0  0  0  0
   30.3976  -21.0596   -9.3686 N   0  0  0  0  0  0  0  0  0  0  0  0
   28.5173  -20.4749  -10.5898 N   0  0  0  0  0  0  0  0  0  0  0  0
   27.2121  -21.1838  -10.5790 C   0  0  0  0  0  0  0  0  0  0  0  0
   26.9469  -21.8035  -11.9005 C   0  0  0  0  0  0  0  0  0  0  0  0
   25.5636  -21.7879  -12.3402 C   0  0  0  0  0  0  0  0  0  0  0  0
   24.9541  -20.6411  -13.0751 C   0  0  2  0  0  0  0  0  0  0  0  0
   23.5609  -21.2312  -13.4199 N   0  0  0  0  0  0  0  0  0  0  0  0
   25.5043  -20.3965  -14.3888 C   0  0  0  0  0  0  0  0  0  0  0  0
   25.3899  -21.4815  -15.1486 O   0  0  0  0  0  0  0  0  0  0  0  0
   30.0096  -20.4069   -8.6597 N   0  0  0  0  0  0  0  0  0  0  0  0
   26.0979  -19.2714  -14.9817 C   0  0  0  0  0  0  0  0  0  0  0  0
   25.9347  -17.9352  -14.3031 C   0  0  0  0  0  0  0  0  0  0  0  0
   27.4117  -17.5820  -14.1833 C   0  0  0  0  0  0  0  0  0  0  0  0
   28.1271  -18.3568  -15.2819 C   0  0  2  0  0  0  0  0  0  0  0  0
   26.8933  -18.8522  -16.0588 C   0  0  0  0  0  0  0  0  0  0  0  0
   27.2255  -19.6579  -17.1831 O   0  0  0  0  0  0  0  0  0  0  0  0
   27.6591  -20.8577  -16.9964 O   0  0  0  0  0  0  0  0  0  0  0  0
  2  1  1  1
  3  2  1  0
  4  3  1  0
  5  4  1  0
  5  6  1  0
  7  6  1  0
  8  2  1  0
  9  8  2  0
 10 11  1  0
 11 12  2  0
 13 11  1  0
 13 14  1  0
 14 15  1  0
 16 15  1  0
 17 16  1  6
 17 18  1  0
 18  8  1  0
 19 21  1  0
 19 17  1  0
 20 19  2  0
 21 22  1  0
 23 22  1  0
 24 23  1  0
 25 26  1  1
 25 21  1  0
 25 24  1  0
 26 28  1  0
 27 26  2  0
M  END
$$$$
