KRP.pdb
     RDKit          3D

 28 28  0  0  1  0  0  0  0  0999 V2000
   16.5325  -22.5281  -10.2908 N   0  0  0  0  0  0  0  0  0  0  0  0
   17.9264  -22.6856  -10.0081 C   0  0  1  0  0  0  0  0  0  0  0  0
   18.4401  -24.0937  -10.1028 C   0  0  0  0  0  0  0  0  0  0  0  0
   18.2482  -24.9243   -8.8944 C   0  0  0  0  0  0  0  0  0  0  0  0
   18.5903  -24.3116   -7.5847 C   0  0  0  0  0  0  0  0  0  0  0  0
   18.3612  -25.2431   -6.4144 C   0  0  0  0  0  0  0  0  0  0  0  0
   16.9464  -25.5098   -6.2014 N   0  0  0  0  0  0  0  0  0  0  0  0
   18.7962  -21.7260  -10.7296 C   0  0  0  0  0  0  0  0  0  0  0  0
   18.2467  -20.8440  -11.4577 O   0  0  0  0  0  0  0  0  0  0  0  0
   26.8068  -22.5876  -11.1915 N   0  0  0  0  0  0  0  0  0  0  0  0
   27.0060  -21.2238  -11.5550 C   0  0  0  0  0  0  0  0  0  0  0  0
   28.1136  -20.8127  -12.0860 N   0  0  0  0  0  0  0  0  0  0  0  0
   25.9900  -20.2540  -11.3466 N   0  0  0  0  0  0  0  0  0  0  0  0
   24.7841  -20.6132  -10.5571 C   0  0  0  0  0  0  0  0  0  0  0  0
   23.5541  -20.3812  -11.3533 C   0  0  0  0  0  0  0  0  0  0  0  0
   22.3033  -20.7138  -10.6962 C   0  0  0  0  0  0  0  0  0  0  0  0
   20.9719  -20.5660  -11.3538 C   0  0  2  0  0  0  0  0  0  0  0  0
   20.1870  -21.7175  -10.6712 N   0  0  0  0  0  0  0  0  0  0  0  0
   20.9298  -20.9629  -12.7426 C   0  0  0  0  0  0  0  0  0  0  0  0
   21.3882  -22.2028  -12.8844 O   0  0  0  0  0  0  0  0  0  0  0  0
   28.1962  -19.7967  -12.2856 N   0  0  0  0  0  0  0  0  0  0  0  0
   20.5022  -20.3115  -13.9099 C   0  0  0  0  0  0  0  0  0  0  0  0
   19.7396  -19.0187  -13.7694 C   0  0  0  0  0  0  0  0  0  0  0  0
   20.6362  -18.1531  -14.6454 C   0  0  0  0  0  0  0  0  0  0  0  0
   21.3389  -19.1017  -15.6072 C   0  0  2  0  0  0  0  0  0  0  0  0
   20.5277  -20.3767  -15.3112 C   0  0  0  0  0  0  0  0  0  0  0  0
   20.9615  -21.5039  -16.0626 O   0  0  0  0  0  0  0  0  0  0  0  0
   20.7855  -21.5193  -17.3399 O   0  0  0  0  0  0  0  0  0  0  0  0
  2  1  1  6
  3  2  1  0
  4  3  1  0
  5  4  1  0
  5  6  1  0
  7  6  1  0
  8  2  1  0
  9  8  2  0
 10 11  1  0
 11 12  2  0
 13 11  1  0
 13 14  1  0
 14 15  1  0
 16 15  1  0
 17 16  1  1
 17 18  1  0
 18  8  1  0
 19 21  1  0
 19 17  1  0
 20 19  2  0
 21 22  1  0
 23 22  1  0
 24 23  1  0
 25 26  1  6
 25 21  1  0
 25 24  1  0
 26 28  1  0
 27 26  2  0
M  END
$$$$
