HYP.pdb
     RDKit          3D

 30 32  0  0  1  0  0  0  0  0999 V2000
    7.4387  -16.7946   19.6985 N   0  0  0  0  0  0  0  0  0  0  0  0
    7.6671  -15.6015   20.4628 C   0  0  1  0  0  0  0  0  0  0  0  0
    6.8166  -14.4857   19.9283 C   0  0  0  0  0  0  0  0  0  0  0  0
    7.4532  -14.0191   18.6583 C   0  0  0  0  0  0  0  0  0  0  0  0
    8.2321  -12.8684   18.4940 C   0  0  0  0  0  0  0  0  0  0  0  0
    8.6273  -12.7850   17.2109 N   0  0  0  0  0  0  0  0  0  0  0  0
    8.1266  -13.8419   16.5566 C   0  0  0  0  0  0  0  0  0  0  0  0
    7.4187  -14.5819   17.4388 N   0  0  0  0  0  0  0  0  0  0  0  0
    7.4261  -15.8848   21.8932 C   0  0  0  0  0  0  0  0  0  0  0  0
    6.2450  -16.1580   22.2481 O   0  0  0  0  0  0  0  0  0  0  0  0
    7.6908  -18.8012   30.0676 O   0  0  0  0  0  0  0  0  0  0  0  0
    7.9436  -18.4907   28.7458 C   0  0  0  0  0  0  0  0  0  0  0  0
    9.1923  -18.0624   28.3383 C   0  0  0  0  0  0  0  0  0  0  0  0
    9.4007  -17.7624   27.0054 C   0  0  0  0  0  0  0  0  0  0  0  0
    8.4261  -17.8670   26.0515 C   0  0  0  0  0  0  0  0  0  0  0  0
    8.6306  -17.5522   24.6126 C   0  0  0  0  0  0  0  0  0  0  0  0
    8.0242  -16.1936   24.2661 C   0  0  2  0  0  0  0  0  0  0  0  0
    8.4147  -15.8709   22.8776 N   0  0  0  0  0  0  0  0  0  0  0  0
    8.6862  -15.1847   25.1251 C   0  0  0  0  0  0  0  0  0  0  0  0
    9.9773  -15.1285   25.0789 O   0  0  0  0  0  0  0  0  0  0  0  0
    7.1810  -18.2935   26.4544 C   0  0  0  0  0  0  0  0  0  0  0  0
    6.9488  -18.6011   27.7925 C   0  0  0  0  0  0  0  0  0  0  0  0
    8.0668  -14.2674   25.9938 N   0  0  0  0  0  0  0  0  0  0  0  0
    6.6054  -14.1381   26.1389 C   0  0  0  0  0  0  0  0  0  0  0  0
    6.4908  -12.6506   26.4596 C   0  0  0  0  0  0  0  0  0  0  0  0
    7.5481  -12.5444   27.5387 C   0  0  0  0  0  0  0  0  0  0  0  0
    8.7048  -13.3232   26.8671 C   0  0  1  0  0  0  0  0  0  0  0  0
    9.4232  -13.9704   27.9843 C   0  0  0  0  0  0  0  0  0  0  0  0
   10.4772  -13.3425   28.6103 O   0  0  0  0  0  0  0  0  0  0  0  0
    9.0703  -15.1026   28.3668 O   0  0  0  0  0  0  0  0  0  0  0  0
  2  1  1  6
  2  3  1  0
  3  4  1  0
  4  8  1  0
  5  4  2  0
  5  6  1  0
  6  7  1  0
  8  7  2  0
  9 18  1  0
  9  2  1  0
 10  9  2  0
 12 11  1  0
 13 12  2  0
 14 13  1  0
 15 14  2  0
 15 21  1  0
 17 16  1  1
 16 15  1  0
 17 18  1  0
 19 17  1  0
 20 19  2  0
 21 22  2  0
 22 12  1  0
 23 27  1  0
 23 19  1  0
 24 23  1  0
 25 26  1  0
 25 24  1  0
 26 27  1  0
 27 28  1  1
 28 30  2  0
 28 29  1  0
M  END
$$$$
