HYP.pdb
     RDKit          3D

 30 32  0  0  1  0  0  0  0  0999 V2000
    7.9491  -18.0397   20.2060 N   0  0  0  0  0  0  0  0  0  0  0  0
    8.4423  -16.7804   20.6862 C   0  0  1  0  0  0  0  0  0  0  0  0
    8.3010  -15.7381   19.6149 C   0  0  0  0  0  0  0  0  0  0  0  0
    9.2862  -16.0758   18.5420 C   0  0  0  0  0  0  0  0  0  0  0  0
   10.6497  -15.7618   18.5380 C   0  0  0  0  0  0  0  0  0  0  0  0
   11.2050  -16.2304   17.4060 N   0  0  0  0  0  0  0  0  0  0  0  0
   10.2419  -16.8301   16.6927 C   0  0  0  0  0  0  0  0  0  0  0  0
    9.0862  -16.7319   17.3867 N   0  0  0  0  0  0  0  0  0  0  0  0
    7.7420  -16.4278   21.9390 C   0  0  0  0  0  0  0  0  0  0  0  0
    6.5167  -16.1299   21.8645 O   0  0  0  0  0  0  0  0  0  0  0  0
    4.5408  -21.3980   22.2648 O   0  0  0  0  0  0  0  0  0  0  0  0
    5.2106  -20.4218   22.9759 C   0  0  0  0  0  0  0  0  0  0  0  0
    4.5324  -19.3658   23.5533 C   0  0  0  0  0  0  0  0  0  0  0  0
    5.2430  -18.4114   24.2563 C   0  0  0  0  0  0  0  0  0  0  0  0
    6.6008  -18.4532   24.4155 C   0  0  0  0  0  0  0  0  0  0  0  0
    7.3834  -17.4385   25.1701 C   0  0  0  0  0  0  0  0  0  0  0  0
    7.4888  -16.1381   24.3754 C   0  0  2  0  0  0  0  0  0  0  0  0
    8.3426  -16.4018   23.1981 N   0  0  0  0  0  0  0  0  0  0  0  0
    8.2317  -15.1692   25.2141 C   0  0  0  0  0  0  0  0  0  0  0  0
    9.5224  -15.2468   25.1997 O   0  0  0  0  0  0  0  0  0  0  0  0
    7.2793  -19.5040   23.8414 C   0  0  0  0  0  0  0  0  0  0  0  0
    6.5834  -20.4770   23.1287 C   0  0  0  0  0  0  0  0  0  0  0  0
    7.6907  -14.1605   26.0322 N   0  0  0  0  0  0  0  0  0  0  0  0
    6.2521  -13.8444   26.0966 C   0  0  0  0  0  0  0  0  0  0  0  0
    6.3114  -12.3470   26.3845 C   0  0  0  0  0  0  0  0  0  0  0  0
    7.3174  -12.3489   27.5166 C   0  0  0  0  0  0  0  0  0  0  0  0
    8.3983  -13.2834   26.9216 C   0  0  1  0  0  0  0  0  0  0  0  0
    8.9709  -13.9887   28.0868 C   0  0  0  0  0  0  0  0  0  0  0  0
    9.8621  -13.3620   28.9294 O   0  0  0  0  0  0  0  0  0  0  0  0
    8.6427  -15.1696   28.3112 O   0  0  0  0  0  0  0  0  0  0  0  0
  2  1  1  6
  2  3  1  0
  3  4  1  0
  4  8  1  0
  5  4  2  0
  5  6  1  0
  6  7  1  0
  8  7  2  0
  9 18  1  0
  9  2  1  0
 10  9  2  0
 12 11  1  0
 13 12  2  0
 14 13  1  0
 15 14  2  0
 15 21  1  0
 17 16  1  1
 16 15  1  0
 17 18  1  0
 19 17  1  0
 20 19  2  0
 21 22  2  0
 22 12  1  0
 23 27  1  0
 23 19  1  0
 24 23  1  0
 25 26  1  0
 25 24  1  0
 26 27  1  0
 27 28  1  1
 28 30  2  0
 28 29  1  0
M  END
$$$$
