HYP.pdb
     RDKit          3D

 30 32  0  0  1  0  0  0  0  0999 V2000
    9.1761  -13.0531   18.8391 N   0  0  0  0  0  0  0  0  0  0  0  0
    9.0779  -14.3300   19.4870 C   0  0  1  0  0  0  0  0  0  0  0  0
   10.0434  -15.2932   18.8594 C   0  0  0  0  0  0  0  0  0  0  0  0
    9.4107  -15.7891   17.5986 C   0  0  0  0  0  0  0  0  0  0  0  0
    8.6285  -15.0407   16.7122 C   0  0  0  0  0  0  0  0  0  0  0  0
    8.2385  -15.8309   15.6958 N   0  0  0  0  0  0  0  0  0  0  0  0
    8.7459  -17.0532   15.9068 C   0  0  0  0  0  0  0  0  0  0  0  0
    9.4525  -17.0186   17.0585 N   0  0  0  0  0  0  0  0  0  0  0  0
    9.2876  -14.1572   20.9398 C   0  0  0  0  0  0  0  0  0  0  0  0
   10.1407  -13.3041   21.3139 O   0  0  0  0  0  0  0  0  0  0  0  0
    6.3274  -11.9087   28.7864 O   0  0  0  0  0  0  0  0  0  0  0  0
    6.5046  -12.4244   27.5176 C   0  0  0  0  0  0  0  0  0  0  0  0
    6.9094  -11.6207   26.4694 C   0  0  0  0  0  0  0  0  0  0  0  0
    7.0742  -12.1790   25.2159 C   0  0  0  0  0  0  0  0  0  0  0  0
    6.8560  -13.5027   24.9496 C   0  0  0  0  0  0  0  0  0  0  0  0
    7.0303  -14.1233   23.6095 C   0  0  0  0  0  0  0  0  0  0  0  0
    8.5129  -14.2840   23.2781 C   0  0  2  0  0  0  0  0  0  0  0  0
    8.6072  -14.8727   21.9256 N   0  0  0  0  0  0  0  0  0  0  0  0
    9.0638  -15.2972   24.2075 C   0  0  0  0  0  0  0  0  0  0  0  0
    9.0441  -16.5290   23.8142 O   0  0  0  0  0  0  0  0  0  0  0  0
    6.4527  -14.3060   25.9919 C   0  0  0  0  0  0  0  0  0  0  0  0
    6.2804  -13.7644   27.2631 C   0  0  0  0  0  0  0  0  0  0  0  0
    9.6153  -15.0731   25.4824 N   0  0  0  0  0  0  0  0  0  0  0  0
    9.5521  -13.7779   26.1839 C   0  0  0  0  0  0  0  0  0  0  0  0
   10.8577  -13.8275   26.9723 C   0  0  0  0  0  0  0  0  0  0  0  0
   10.7400  -15.2160   27.5654 C   0  0  0  0  0  0  0  0  0  0  0  0
   10.3137  -16.0152   26.3104 C   0  0  1  0  0  0  0  0  0  0  0  0
    9.4363  -17.0869   26.8250 C   0  0  0  0  0  0  0  0  0  0  0  0
    8.0681  -17.0135   26.6855 O   0  0  0  0  0  0  0  0  0  0  0  0
    9.9418  -18.0732   27.3944 O   0  0  0  0  0  0  0  0  0  0  0  0
  2  1  1  6
  2  3  1  0
  3  4  1  0
  4  8  1  0
  5  4  2  0
  5  6  1  0
  6  7  1  0
  8  7  2  0
  9 18  1  0
  9  2  1  0
 10  9  2  0
 12 11  1  0
 13 12  2  0
 14 13  1  0
 15 14  2  0
 15 21  1  0
 17 16  1  1
 16 15  1  0
 17 18  1  0
 19 17  1  0
 20 19  2  0
 21 22  2  0
 22 12  1  0
 23 27  1  0
 23 19  1  0
 24 23  1  0
 25 26  1  0
 25 24  1  0
 26 27  1  0
 27 28  1  1
 28 30  2  0
 28 29  1  0
M  END
$$$$
