HYP.pdb
     RDKit          3D

 30 32  0  0  1  0  0  0  0  0999 V2000
   10.7546  -16.9796   19.0683 N   0  0  0  0  0  0  0  0  0  0  0  0
    9.4965  -17.2302   19.7117 C   0  0  1  0  0  0  0  0  0  0  0  0
    9.3018  -18.7084   19.8877 C   0  0  0  0  0  0  0  0  0  0  0  0
    8.9068  -19.2602   18.5553 C   0  0  0  0  0  0  0  0  0  0  0  0
    8.1831  -18.5921   17.5615 C   0  0  0  0  0  0  0  0  0  0  0  0
    8.0235  -19.4128   16.5077 N   0  0  0  0  0  0  0  0  0  0  0  0
    8.6202  -20.5770   16.7986 C   0  0  0  0  0  0  0  0  0  0  0  0
    9.1511  -20.4756   18.0375 N   0  0  0  0  0  0  0  0  0  0  0  0
    9.4408  -16.4790   20.9834 C   0  0  0  0  0  0  0  0  0  0  0  0
   10.5142  -16.3466   21.6361 O   0  0  0  0  0  0  0  0  0  0  0  0
    7.0391  -11.6544   27.9418 O   0  0  0  0  0  0  0  0  0  0  0  0
    7.0574  -12.3074   26.7249 C   0  0  0  0  0  0  0  0  0  0  0  0
    7.6921  -11.7574   25.6280 C   0  0  0  0  0  0  0  0  0  0  0  0
    7.6856  -12.4458   24.4296 C   0  0  0  0  0  0  0  0  0  0  0  0
    7.0771  -13.6595   24.2648 C   0  0  0  0  0  0  0  0  0  0  0  0
    7.0611  -14.4174   22.9854 C   0  0  0  0  0  0  0  0  0  0  0  0
    8.3962  -15.1250   22.7609 C   0  0  2  0  0  0  0  0  0  0  0  0
    8.2832  -15.9065   21.5115 N   0  0  0  0  0  0  0  0  0  0  0  0
    8.5586  -16.1138   23.8517 C   0  0  0  0  0  0  0  0  0  0  0  0
    7.8414  -17.1877   23.7842 O   0  0  0  0  0  0  0  0  0  0  0  0
    6.4439  -14.2101   25.3558 C   0  0  0  0  0  0  0  0  0  0  0  0
    6.4381  -13.5338   26.5731 C   0  0  0  0  0  0  0  0  0  0  0  0
    9.4144  -16.0213   24.9647 N   0  0  0  0  0  0  0  0  0  0  0  0
   10.2258  -14.8300   25.2749 C   0  0  0  0  0  0  0  0  0  0  0  0
   11.4326  -15.4844   25.9414 C   0  0  0  0  0  0  0  0  0  0  0  0
   10.7169  -16.4032   26.9095 C   0  0  0  0  0  0  0  0  0  0  0  0
    9.6543  -17.0197   25.9681 C   0  0  1  0  0  0  0  0  0  0  0  0
    8.4788  -17.2594   26.8306 C   0  0  0  0  0  0  0  0  0  0  0  0
    8.4886  -18.2517   27.7857 O   0  0  0  0  0  0  0  0  0  0  0  0
    7.4620  -16.5526   26.6923 O   0  0  0  0  0  0  0  0  0  0  0  0
  2  1  1  1
  2  3  1  0
  3  4  1  0
  4  8  1  0
  5  4  2  0
  5  6  1  0
  6  7  1  0
  8  7  2  0
  9 18  1  0
  9  2  1  0
 10  9  2  0
 12 11  1  0
 13 12  2  0
 14 13  1  0
 15 14  2  0
 15 21  1  0
 17 16  1  1
 16 15  1  0
 17 18  1  0
 19 17  1  0
 20 19  2  0
 21 22  2  0
 22 12  1  0
 23 27  1  0
 23 19  1  0
 24 23  1  0
 25 26  1  0
 25 24  1  0
 26 27  1  0
 27 28  1  1
 28 30  2  0
 28 29  1  0
M  END
$$$$
