HYP.pdb
     RDKit          3D

 30 32  0  0  1  0  0  0  0  0999 V2000
   11.7295  -17.2931   20.4169 N   0  0  0  0  0  0  0  0  0  0  0  0
   11.2680  -17.7732   21.6882 C   0  0  1  0  0  0  0  0  0  0  0  0
   12.3212  -18.6390   22.3166 C   0  0  0  0  0  0  0  0  0  0  0  0
   12.1665  -20.0084   21.7364 C   0  0  0  0  0  0  0  0  0  0  0  0
   10.9632  -20.6306   21.3862 C   0  0  0  0  0  0  0  0  0  0  0  0
   11.2280  -21.8557   20.8979 N   0  0  0  0  0  0  0  0  0  0  0  0
   12.5562  -22.0317   20.9262 C   0  0  0  0  0  0  0  0  0  0  0  0
   13.1149  -20.9107   21.4342 N   0  0  0  0  0  0  0  0  0  0  0  0
   10.8784  -16.6236   22.5316 C   0  0  0  0  0  0  0  0  0  0  0  0
   11.6564  -15.6291   22.5667 O   0  0  0  0  0  0  0  0  0  0  0  0
    7.0118  -12.5973   19.0542 O   0  0  0  0  0  0  0  0  0  0  0  0
    7.2520  -13.1997   20.2735 C   0  0  0  0  0  0  0  0  0  0  0  0
    6.8169  -14.4847   20.5341 C   0  0  0  0  0  0  0  0  0  0  0  0
    7.0794  -15.0485   21.7683 C   0  0  0  0  0  0  0  0  0  0  0  0
    7.7560  -14.3966   22.7623 C   0  0  0  0  0  0  0  0  0  0  0  0
    8.0510  -14.9861   24.0953 C   0  0  0  0  0  0  0  0  0  0  0  0
    9.5176  -15.4036   24.1880 C   0  0  2  0  0  0  0  0  0  0  0  0
    9.7097  -16.5628   23.2914 N   0  0  0  0  0  0  0  0  0  0  0  0
    9.7461  -15.9044   25.5631 C   0  0  0  0  0  0  0  0  0  0  0  0
    9.8156  -17.1863   25.7186 O   0  0  0  0  0  0  0  0  0  0  0  0
    8.1907  -13.1162   22.5058 C   0  0  0  0  0  0  0  0  0  0  0  0
    7.9372  -12.5287   21.2690 C   0  0  0  0  0  0  0  0  0  0  0  0
    9.9010  -15.1390   26.7335 N   0  0  0  0  0  0  0  0  0  0  0  0
    9.5262  -13.7168   26.8355 C   0  0  0  0  0  0  0  0  0  0  0  0
   10.5624  -13.2304   27.8447 C   0  0  0  0  0  0  0  0  0  0  0  0
   10.4157  -14.3111   28.8955 C   0  0  0  0  0  0  0  0  0  0  0  0
   10.4287  -15.5712   27.9968 C   0  0  1  0  0  0  0  0  0  0  0  0
    9.5473  -16.5360   28.6863 C   0  0  0  0  0  0  0  0  0  0  0  0
    9.9909  -17.2500   29.7774 O   0  0  0  0  0  0  0  0  0  0  0  0
    8.3838  -16.7070   28.2744 O   0  0  0  0  0  0  0  0  0  0  0  0
  2  1  1  6
  2  3  1  0
  3  4  1  0
  4  8  1  0
  5  4  2  0
  5  6  1  0
  6  7  1  0
  8  7  2  0
  9 18  1  0
  9  2  1  0
 10  9  2  0
 12 11  1  0
 13 12  2  0
 14 13  1  0
 15 14  2  0
 15 21  1  0
 17 16  1  1
 16 15  1  0
 17 18  1  0
 19 17  1  0
 20 19  2  0
 21 22  2  0
 22 12  1  0
 23 27  1  0
 23 19  1  0
 24 23  1  0
 25 26  1  0
 25 24  1  0
 26 27  1  0
 27 28  1  1
 28 30  2  0
 28 29  1  0
M  END
$$$$
