HYP.pdb
     RDKit          3D

 30 32  0  0  1  0  0  0  0  0999 V2000
    7.0697  -18.1583   20.5382 N   0  0  0  0  0  0  0  0  0  0  0  0
    7.4460  -16.8008   20.8126 C   0  0  1  0  0  0  0  0  0  0  0  0
    6.8022  -15.8837   19.8133 C   0  0  0  0  0  0  0  0  0  0  0  0
    7.6811  -14.6801   19.6931 C   0  0  0  0  0  0  0  0  0  0  0  0
    7.4003  -13.3958   20.1720 C   0  0  0  0  0  0  0  0  0  0  0  0
    8.4287  -12.5814   19.8746 N   0  0  0  0  0  0  0  0  0  0  0  0
    9.3511  -13.3041   19.2243 C   0  0  0  0  0  0  0  0  0  0  0  0
    8.8910  -14.5706   19.1192 N   0  0  0  0  0  0  0  0  0  0  0  0
    7.1018  -16.4725   22.2119 C   0  0  0  0  0  0  0  0  0  0  0  0
    5.8785  -16.4399   22.5249 O   0  0  0  0  0  0  0  0  0  0  0  0
    6.1435  -22.2025   24.2602 O   0  0  0  0  0  0  0  0  0  0  0  0
    6.6121  -20.9392   24.5630 C   0  0  0  0  0  0  0  0  0  0  0  0
    5.7617  -19.9528   25.0241 C   0  0  0  0  0  0  0  0  0  0  0  0
    6.2738  -18.7025   25.3148 C   0  0  0  0  0  0  0  0  0  0  0  0
    7.5952  -18.3807   25.1697 C   0  0  0  0  0  0  0  0  0  0  0  0
    8.1664  -17.0430   25.4795 C   0  0  0  0  0  0  0  0  0  0  0  0
    7.5453  -15.9710   24.5859 C   0  0  2  0  0  0  0  0  0  0  0  0
    8.0366  -16.1963   23.2102 N   0  0  0  0  0  0  0  0  0  0  0  0
    8.1013  -14.6662   25.0131 C   0  0  0  0  0  0  0  0  0  0  0  0
    9.2835  -14.3622   24.5864 O   0  0  0  0  0  0  0  0  0  0  0  0
    8.4449  -19.3612   24.7105 C   0  0  0  0  0  0  0  0  0  0  0  0
    7.9504  -20.6281   24.4115 C   0  0  0  0  0  0  0  0  0  0  0  0
    7.4848  -13.7063   25.8365 N   0  0  0  0  0  0  0  0  0  0  0  0
    6.0400  -13.6874   26.1293 C   0  0  0  0  0  0  0  0  0  0  0  0
    5.8109  -12.1874   26.2905 C   0  0  0  0  0  0  0  0  0  0  0  0
    6.9561  -11.8578   27.2251 C   0  0  0  0  0  0  0  0  0  0  0  0
    8.1107  -12.6099   26.5202 C   0  0  1  0  0  0  0  0  0  0  0  0
    8.9993  -13.0498   27.6156 C   0  0  0  0  0  0  0  0  0  0  0  0
    9.8889  -12.1775   28.2028 O   0  0  0  0  0  0  0  0  0  0  0  0
    8.9435  -14.2287   28.0151 O   0  0  0  0  0  0  0  0  0  0  0  0
  2  1  1  6
  2  3  1  0
  3  4  1  0
  4  8  1  0
  5  4  2  0
  5  6  1  0
  6  7  1  0
  8  7  2  0
  9 18  1  0
  9  2  1  0
 10  9  2  0
 12 11  1  0
 13 12  2  0
 14 13  1  0
 15 14  2  0
 15 21  1  0
 17 16  1  1
 16 15  1  0
 17 18  1  0
 19 17  1  0
 20 19  2  0
 21 22  2  0
 22 12  1  0
 23 27  1  0
 23 19  1  0
 24 23  1  0
 25 26  1  0
 25 24  1  0
 26 27  1  0
 27 28  1  1
 28 30  2  0
 28 29  1  0
M  END
$$$$
