HYP.pdb
     RDKit          3D

 30 32  0  0  1  0  0  0  0  0999 V2000
   11.5763  -17.1323   19.8158 N   0  0  0  0  0  0  0  0  0  0  0  0
   10.3251  -17.4639   20.4356 C   0  0  1  0  0  0  0  0  0  0  0  0
   10.3076  -18.9212   20.7960 C   0  0  0  0  0  0  0  0  0  0  0  0
    9.8327  -19.6655   19.5893 C   0  0  0  0  0  0  0  0  0  0  0  0
    8.8010  -19.2778   18.7273 C   0  0  0  0  0  0  0  0  0  0  0  0
    8.6667  -20.2021   17.7594 N   0  0  0  0  0  0  0  0  0  0  0  0
    9.5765  -21.1616   17.9774 C   0  0  0  0  0  0  0  0  0  0  0  0
   10.2763  -20.8291   19.0849 N   0  0  0  0  0  0  0  0  0  0  0  0
   10.1037  -16.5737   21.5944 C   0  0  0  0  0  0  0  0  0  0  0  0
   11.1201  -16.1426   22.2080 O   0  0  0  0  0  0  0  0  0  0  0  0
    6.6978  -11.4529   27.8928 O   0  0  0  0  0  0  0  0  0  0  0  0
    6.8726  -12.2265   26.7621 C   0  0  0  0  0  0  0  0  0  0  0  0
    7.5583  -11.7434   25.6644 C   0  0  0  0  0  0  0  0  0  0  0  0
    7.7095  -12.5522   24.5540 C   0  0  0  0  0  0  0  0  0  0  0  0
    7.2113  -13.8237   24.4785 C   0  0  0  0  0  0  0  0  0  0  0  0
    7.3656  -14.7106   23.2949 C   0  0  0  0  0  0  0  0  0  0  0  0
    8.7854  -15.2693   23.2207 C   0  0  2  0  0  0  0  0  0  0  0  0
    8.8481  -16.1775   22.0563 N   0  0  0  0  0  0  0  0  0  0  0  0
    8.9865  -16.1192   24.4170 C   0  0  0  0  0  0  0  0  0  0  0  0
    8.5960  -17.3494   24.3374 O   0  0  0  0  0  0  0  0  0  0  0  0
    6.5277  -14.3079   25.5705 C   0  0  0  0  0  0  0  0  0  0  0  0
    6.3635  -13.5101   26.7000 C   0  0  0  0  0  0  0  0  0  0  0  0
    9.5623  -15.7406   25.6437 N   0  0  0  0  0  0  0  0  0  0  0  0
    9.8829  -14.3465   26.0003 C   0  0  0  0  0  0  0  0  0  0  0  0
   11.1019  -14.5634   26.8924 C   0  0  0  0  0  0  0  0  0  0  0  0
   10.5629  -15.6559   27.7923 C   0  0  0  0  0  0  0  0  0  0  0  0
    9.9328  -16.5955   26.7360 C   0  0  1  0  0  0  0  0  0  0  0  0
    8.7661  -17.1975   27.4139 C   0  0  0  0  0  0  0  0  0  0  0  0
    8.9286  -18.1263   28.4178 O   0  0  0  0  0  0  0  0  0  0  0  0
    7.6164  -16.8597   27.0723 O   0  0  0  0  0  0  0  0  0  0  0  0
  2  1  1  1
  2  3  1  0
  3  4  1  0
  4  8  1  0
  5  4  2  0
  5  6  1  0
  6  7  1  0
  8  7  2  0
  9 18  1  0
  9  2  1  0
 10  9  2  0
 12 11  1  0
 13 12  2  0
 14 13  1  0
 15 14  2  0
 15 21  1  0
 17 16  1  1
 16 15  1  0
 17 18  1  0
 19 17  1  0
 20 19  2  0
 21 22  2  0
 22 12  1  0
 23 27  1  0
 23 19  1  0
 24 23  1  0
 25 26  1  0
 25 24  1  0
 26 27  1  0
 27 28  1  1
 28 30  2  0
 28 29  1  0
M  END
$$$$
