HYP.pdb
     RDKit          3D

 30 32  0  0  1  0  0  0  0  0999 V2000
    8.0771  -19.0224   25.0054 N   0  0  0  0  0  0  0  0  0  0  0  0
    6.7649  -18.7427   24.4960 C   0  0  1  0  0  0  0  0  0  0  0  0
    5.7463  -18.9409   25.5810 C   0  0  0  0  0  0  0  0  0  0  0  0
    5.9466  -20.3198   26.1237 C   0  0  0  0  0  0  0  0  0  0  0  0
    6.2447  -21.4685   25.3826 C   0  0  0  0  0  0  0  0  0  0  0  0
    6.3502  -22.5161   26.2197 N   0  0  0  0  0  0  0  0  0  0  0  0
    6.1296  -22.0720   27.4647 C   0  0  0  0  0  0  0  0  0  0  0  0
    5.8867  -20.7441   27.3970 N   0  0  0  0  0  0  0  0  0  0  0  0
    6.7453  -17.3821   23.9192 C   0  0  0  0  0  0  0  0  0  0  0  0
    5.6448  -16.9453   23.4790 O   0  0  0  0  0  0  0  0  0  0  0  0
    5.8895  -11.9714   28.2708 O   0  0  0  0  0  0  0  0  0  0  0  0
    6.5740  -12.5292   27.2089 C   0  0  0  0  0  0  0  0  0  0  0  0
    7.8391  -13.0594   27.3732 C   0  0  0  0  0  0  0  0  0  0  0  0
    8.4876  -13.6077   26.2828 C   0  0  0  0  0  0  0  0  0  0  0  0
    7.9397  -13.6563   25.0306 C   0  0  0  0  0  0  0  0  0  0  0  0
    8.6192  -14.2441   23.8456 C   0  0  0  0  0  0  0  0  0  0  0  0
    7.7063  -15.2473   23.1427 C   0  0  2  0  0  0  0  0  0  0  0  0
    7.8599  -16.5478   23.8280 N   0  0  0  0  0  0  0  0  0  0  0  0
    8.2358  -15.4387   21.7727 C   0  0  0  0  0  0  0  0  0  0  0  0
    8.7070  -16.6073   21.4818 O   0  0  0  0  0  0  0  0  0  0  0  0
    6.6795  -13.1289   24.8636 C   0  0  0  0  0  0  0  0  0  0  0  0
    6.0078  -12.5714   25.9486 C   0  0  0  0  0  0  0  0  0  0  0  0
    8.2839  -14.4871   20.7374 N   0  0  0  0  0  0  0  0  0  0  0  0
    7.8175  -13.0961   20.8837 C   0  0  0  0  0  0  0  0  0  0  0  0
    7.3358  -12.8161   19.4630 C   0  0  0  0  0  0  0  0  0  0  0  0
    8.5346  -13.3211   18.6875 C   0  0  0  0  0  0  0  0  0  0  0  0
    8.7726  -14.6740   19.4005 C   0  0  1  0  0  0  0  0  0  0  0  0
   10.2353  -14.8766   19.3480 C   0  0  0  0  0  0  0  0  0  0  0  0
   10.8359  -15.4371   18.2426 O   0  0  0  0  0  0  0  0  0  0  0  0
   10.9372  -14.5350   20.3193 O   0  0  0  0  0  0  0  0  0  0  0  0
  2  1  1  1
  2  3  1  0
  3  4  1  0
  4  8  1  0
  5  4  2  0
  5  6  1  0
  6  7  1  0
  8  7  2  0
  9 18  1  0
  9  2  1  0
 10  9  2  0
 12 11  1  0
 13 12  2  0
 14 13  1  0
 15 14  2  0
 15 21  1  0
 17 16  1  1
 16 15  1  0
 17 18  1  0
 19 17  1  0
 20 19  2  0
 21 22  2  0
 22 12  1  0
 23 27  1  0
 23 19  1  0
 24 23  1  0
 25 26  1  0
 25 24  1  0
 26 27  1  0
 27 28  1  1
 28 30  2  0
 28 29  1  0
M  END
$$$$
