HYP.pdb
     RDKit          3D

 30 32  0  0  1  0  0  0  0  0999 V2000
    4.6402  -19.7559   21.4185 N   0  0  0  0  0  0  0  0  0  0  0  0
    5.8807  -19.7053   22.1384 C   0  0  1  0  0  0  0  0  0  0  0  0
    6.9718  -20.3247   21.3137 C   0  0  0  0  0  0  0  0  0  0  0  0
    6.9209  -21.7993   21.5559 C   0  0  0  0  0  0  0  0  0  0  0  0
    6.4149  -22.7674   20.6815 C   0  0  0  0  0  0  0  0  0  0  0  0
    6.5413  -23.9805   21.2487 N   0  0  0  0  0  0  0  0  0  0  0  0
    7.1093  -23.8155   22.4512 C   0  0  0  0  0  0  0  0  0  0  0  0
    7.3351  -22.4947   22.6283 N   0  0  0  0  0  0  0  0  0  0  0  0
    6.1639  -18.3072   22.5248 C   0  0  0  0  0  0  0  0  0  0  0  0
    6.0052  -17.4109   21.6489 O   0  0  0  0  0  0  0  0  0  0  0  0
    7.0098  -10.7954   26.9508 O   0  0  0  0  0  0  0  0  0  0  0  0
    7.0440  -12.1316   26.6034 C   0  0  0  0  0  0  0  0  0  0  0  0
    8.2322  -12.7541   26.2727 C   0  0  0  0  0  0  0  0  0  0  0  0
    8.2199  -14.0932   25.9313 C   0  0  0  0  0  0  0  0  0  0  0  0
    7.0806  -14.8495   25.9017 C   0  0  0  0  0  0  0  0  0  0  0  0
    7.0463  -16.2916   25.5401 C   0  0  0  0  0  0  0  0  0  0  0  0
    6.7848  -16.4669   24.0453 C   0  0  2  0  0  0  0  0  0  0  0  0
    6.5945  -17.9105   23.7913 N   0  0  0  0  0  0  0  0  0  0  0  0
    8.0262  -16.0838   23.3339 C   0  0  0  0  0  0  0  0  0  0  0  0
    9.0031  -16.9308   23.3570 O   0  0  0  0  0  0  0  0  0  0  0  0
    5.8953  -14.2322   26.2307 C   0  0  0  0  0  0  0  0  0  0  0  0
    5.8845  -12.8837   26.5778 C   0  0  0  0  0  0  0  0  0  0  0  0
    8.2686  -14.8929   22.6249 N   0  0  0  0  0  0  0  0  0  0  0  0
    7.3976  -13.7057   22.6994 C   0  0  0  0  0  0  0  0  0  0  0  0
    7.5811  -13.1406   21.2938 C   0  0  0  0  0  0  0  0  0  0  0  0
    9.0921  -13.1843   21.2012 C   0  0  0  0  0  0  0  0  0  0  0  0
    9.3584  -14.6131   21.7332 C   0  0  1  0  0  0  0  0  0  0  0  0
   10.6588  -14.5210   22.4286 C   0  0  0  0  0  0  0  0  0  0  0  0
   11.8380  -14.4351   21.7222 O   0  0  0  0  0  0  0  0  0  0  0  0
   10.6898  -14.5210   23.6742 O   0  0  0  0  0  0  0  0  0  0  0  0
  2  1  1  6
  2  3  1  0
  3  4  1  0
  4  8  1  0
  5  4  2  0
  5  6  1  0
  6  7  1  0
  8  7  2  0
  9 18  1  0
  9  2  1  0
 10  9  2  0
 12 11  1  0
 13 12  2  0
 14 13  1  0
 15 14  2  0
 15 21  1  0
 17 16  1  1
 16 15  1  0
 17 18  1  0
 19 17  1  0
 20 19  2  0
 21 22  2  0
 22 12  1  0
 23 27  1  0
 23 19  1  0
 24 23  1  0
 25 26  1  0
 25 24  1  0
 26 27  1  0
 27 28  1  1
 28 30  2  0
 28 29  1  0
M  END
$$$$
