HYP.pdb
     RDKit          3D

 30 32  0  0  1  0  0  0  0  0999 V2000
   10.5500  -18.3642   21.2519 N   0  0  0  0  0  0  0  0  0  0  0  0
   11.3630  -17.1819   21.2806 C   0  0  1  0  0  0  0  0  0  0  0  0
   11.4908  -16.6198   19.8944 C   0  0  0  0  0  0  0  0  0  0  0  0
   12.0635  -17.7006   19.0343 C   0  0  0  0  0  0  0  0  0  0  0  0
   13.4147  -18.0475   18.9265 C   0  0  0  0  0  0  0  0  0  0  0  0
   13.5387  -19.0657   18.0563 N   0  0  0  0  0  0  0  0  0  0  0  0
   12.3142  -19.3762   17.6089 C   0  0  0  0  0  0  0  0  0  0  0  0
   11.4293  -18.5464   18.2051 N   0  0  0  0  0  0  0  0  0  0  0  0
   10.7934  -16.2216   22.2491 C   0  0  0  0  0  0  0  0  0  0  0  0
   11.4131  -15.1369   22.4361 O   0  0  0  0  0  0  0  0  0  0  0  0
    5.8781  -11.3591   27.5688 O   0  0  0  0  0  0  0  0  0  0  0  0
    6.3118  -12.3353   26.6935 C   0  0  0  0  0  0  0  0  0  0  0  0
    6.1697  -13.6768   26.9914 C   0  0  0  0  0  0  0  0  0  0  0  0
    6.6180  -14.6200   26.0861 C   0  0  0  0  0  0  0  0  0  0  0  0
    7.2036  -14.2961   24.8933 C   0  0  0  0  0  0  0  0  0  0  0  0
    7.6897  -15.2951   23.9048 C   0  0  0  0  0  0  0  0  0  0  0  0
    9.2118  -15.4123   23.9601 C   0  0  2  0  0  0  0  0  0  0  0  0
    9.6178  -16.4323   22.9705 N   0  0  0  0  0  0  0  0  0  0  0  0
    9.5622  -15.9654   25.2888 C   0  0  0  0  0  0  0  0  0  0  0  0
    9.4802  -17.2479   25.4326 O   0  0  0  0  0  0  0  0  0  0  0  0
    7.3466  -12.9605   24.5936 C   0  0  0  0  0  0  0  0  0  0  0  0
    6.9020  -11.9932   25.4912 C   0  0  0  0  0  0  0  0  0  0  0  0
    9.9814  -15.2501   26.4255 N   0  0  0  0  0  0  0  0  0  0  0  0
    9.9758  -13.7784   26.5130 C   0  0  0  0  0  0  0  0  0  0  0  0
   11.1673  -13.5527   27.4394 C   0  0  0  0  0  0  0  0  0  0  0  0
   10.8327  -14.5529   28.5264 C   0  0  0  0  0  0  0  0  0  0  0  0
   10.4731  -15.7862   27.6633 C   0  0  1  0  0  0  0  0  0  0  0  0
    9.4316  -16.4962   28.4343 C   0  0  0  0  0  0  0  0  0  0  0  0
    9.7583  -17.2665   29.5283 O   0  0  0  0  0  0  0  0  0  0  0  0
    8.2383  -16.3968   28.0896 O   0  0  0  0  0  0  0  0  0  0  0  0
  2  1  1  6
  2  3  1  0
  3  4  1  0
  4  8  1  0
  5  4  2  0
  5  6  1  0
  6  7  1  0
  8  7  2  0
  9 18  1  0
  9  2  1  0
 10  9  2  0
 12 11  1  0
 13 12  2  0
 14 13  1  0
 15 14  2  0
 15 21  1  0
 17 16  1  1
 16 15  1  0
 17 18  1  0
 19 17  1  0
 20 19  2  0
 21 22  2  0
 22 12  1  0
 23 27  1  0
 23 19  1  0
 24 23  1  0
 25 26  1  0
 25 24  1  0
 26 27  1  0
 27 28  1  1
 28 30  2  0
 28 29  1  0
M  END
$$$$
