HYP.pdb
     RDKit          3D

 30 32  0  0  1  0  0  0  0  0999 V2000
    9.2116  -16.8981   20.1925 N   0  0  0  0  0  0  0  0  0  0  0  0
    9.6362  -15.5278   20.2346 C   0  0  1  0  0  0  0  0  0  0  0  0
    8.8339  -14.7175   19.2580 C   0  0  0  0  0  0  0  0  0  0  0  0
    8.9098  -15.4191   17.9397 C   0  0  0  0  0  0  0  0  0  0  0  0
    9.3514  -14.8697   16.7311 C   0  0  0  0  0  0  0  0  0  0  0  0
    9.2743  -15.8064   15.7687 N   0  0  0  0  0  0  0  0  0  0  0  0
    8.7997  -16.9296   16.3247 C   0  0  0  0  0  0  0  0  0  0  0  0
    8.5823  -16.6863   17.6363 N   0  0  0  0  0  0  0  0  0  0  0  0
    9.5405  -15.0299   21.6229 C   0  0  0  0  0  0  0  0  0  0  0  0
   10.2398  -14.0262   21.9376 O   0  0  0  0  0  0  0  0  0  0  0  0
    6.0829  -11.5460   28.7363 O   0  0  0  0  0  0  0  0  0  0  0  0
    6.3313  -12.3298   27.6266 C   0  0  0  0  0  0  0  0  0  0  0  0
    6.6298  -11.7623   26.4029 C   0  0  0  0  0  0  0  0  0  0  0  0
    6.8715  -12.5848   25.3189 C   0  0  0  0  0  0  0  0  0  0  0  0
    6.8314  -13.9501   25.3894 C   0  0  0  0  0  0  0  0  0  0  0  0
    7.0910  -14.8525   24.2362 C   0  0  0  0  0  0  0  0  0  0  0  0
    8.5785  -14.8692   23.8884 C   0  0  2  0  0  0  0  0  0  0  0  0
    8.7302  -15.5936   22.6091 N   0  0  0  0  0  0  0  0  0  0  0  0
    9.2601  -15.6945   24.9122 C   0  0  0  0  0  0  0  0  0  0  0  0
    9.4396  -16.9450   24.6360 O   0  0  0  0  0  0  0  0  0  0  0  0
    6.5343  -14.5185   26.6071 C   0  0  0  0  0  0  0  0  0  0  0  0
    6.2873  -13.7087   27.7127 C   0  0  0  0  0  0  0  0  0  0  0  0
    9.7435  -15.2712   26.1640 N   0  0  0  0  0  0  0  0  0  0  0  0
    9.4900  -13.9328   26.7278 C   0  0  0  0  0  0  0  0  0  0  0  0
   10.7696  -13.7260   27.5331 C   0  0  0  0  0  0  0  0  0  0  0  0
   10.8227  -15.0512   28.2643 C   0  0  0  0  0  0  0  0  0  0  0  0
   10.5395  -16.0224   27.0929 C   0  0  1  0  0  0  0  0  0  0  0  0
    9.7997  -17.1459   27.7042 C   0  0  0  0  0  0  0  0  0  0  0  0
   10.4583  -18.1368   28.3981 O   0  0  0  0  0  0  0  0  0  0  0  0
    8.5600  -17.1984   27.5903 O   0  0  0  0  0  0  0  0  0  0  0  0
  2  1  1  1
  2  3  1  0
  3  4  1  0
  4  8  1  0
  5  4  2  0
  5  6  1  0
  6  7  1  0
  8  7  2  0
  9 18  1  0
  9  2  1  0
 10  9  2  0
 12 11  1  0
 13 12  2  0
 14 13  1  0
 15 14  2  0
 15 21  1  0
 17 16  1  1
 16 15  1  0
 17 18  1  0
 19 17  1  0
 20 19  2  0
 21 22  2  0
 22 12  1  0
 23 27  1  0
 23 19  1  0
 24 23  1  0
 25 26  1  0
 25 24  1  0
 26 27  1  0
 27 28  1  1
 28 30  2  0
 28 29  1  0
M  END
$$$$
