HYP.pdb
     RDKit          3D

 30 32  0  0  1  0  0  0  0  0999 V2000
    9.7528  -17.7552   20.3775 N   0  0  0  0  0  0  0  0  0  0  0  0
   10.8706  -17.0122   20.8855 C   0  0  1  0  0  0  0  0  0  0  0  0
   11.5809  -16.3268   19.7543 C   0  0  0  0  0  0  0  0  0  0  0  0
   12.2641  -17.3911   18.9567 C   0  0  0  0  0  0  0  0  0  0  0  0
   13.3421  -18.1789   19.3749 C   0  0  0  0  0  0  0  0  0  0  0  0
   13.6801  -19.0228   18.3834 N   0  0  0  0  0  0  0  0  0  0  0  0
   12.8547  -18.7975   17.3520 C   0  0  0  0  0  0  0  0  0  0  0  0
   12.0027  -17.8102   17.7073 N   0  0  0  0  0  0  0  0  0  0  0  0
   10.4013  -16.0785   21.9307 C   0  0  0  0  0  0  0  0  0  0  0  0
   10.0526  -14.9191   21.5704 O   0  0  0  0  0  0  0  0  0  0  0  0
    5.3736  -12.0704   27.5045 O   0  0  0  0  0  0  0  0  0  0  0  0
    6.0736  -12.8324   26.5898 C   0  0  0  0  0  0  0  0  0  0  0  0
    6.8190  -12.2409   25.5882 C   0  0  0  0  0  0  0  0  0  0  0  0
    7.5038  -13.0422   24.6943 C   0  0  0  0  0  0  0  0  0  0  0  0
    7.4855  -14.4088   24.7454 C   0  0  0  0  0  0  0  0  0  0  0  0
    8.2173  -15.2885   23.7956 C   0  0  0  0  0  0  0  0  0  0  0  0
    9.6870  -15.4087   24.1945 C   0  0  2  0  0  0  0  0  0  0  0  0
   10.3173  -16.3911   23.2879 N   0  0  0  0  0  0  0  0  0  0  0  0
    9.7276  -16.0113   25.5470 C   0  0  0  0  0  0  0  0  0  0  0  0
    9.4559  -17.2723   25.6377 O   0  0  0  0  0  0  0  0  0  0  0  0
    6.7438  -15.0011   25.7421 C   0  0  0  0  0  0  0  0  0  0  0  0
    6.0459  -14.2129   26.6536 C   0  0  0  0  0  0  0  0  0  0  0  0
   10.0338  -15.3650   26.7586 N   0  0  0  0  0  0  0  0  0  0  0  0
    9.8283  -13.9236   26.9906 C   0  0  0  0  0  0  0  0  0  0  0  0
   10.9679  -13.6357   27.9637 C   0  0  0  0  0  0  0  0  0  0  0  0
   10.7598  -14.7761   28.9383 C   0  0  0  0  0  0  0  0  0  0  0  0
   10.5797  -15.9529   27.9492 C   0  0  1  0  0  0  0  0  0  0  0  0
    9.6354  -16.8697   28.6206 C   0  0  0  0  0  0  0  0  0  0  0  0
   10.0448  -17.6760   29.6595 O   0  0  0  0  0  0  0  0  0  0  0  0
    8.4493  -16.9145   28.2413 O   0  0  0  0  0  0  0  0  0  0  0  0
  2  1  1  6
  2  3  1  0
  3  4  1  0
  4  8  1  0
  5  4  2  0
  5  6  1  0
  6  7  1  0
  8  7  2  0
  9 18  1  0
  9  2  1  0
 10  9  2  0
 12 11  1  0
 13 12  2  0
 14 13  1  0
 15 14  2  0
 15 21  1  0
 17 16  1  6
 16 15  1  0
 17 18  1  0
 19 17  1  0
 20 19  2  0
 21 22  2  0
 22 12  1  0
 23 27  1  0
 23 19  1  0
 24 23  1  0
 25 26  1  0
 25 24  1  0
 26 27  1  0
 27 28  1  1
 28 30  2  0
 28 29  1  0
M  END
$$$$
