IYP.pdb
     RDKit          3D

 28 29  0  0  1  0  0  0  0  0999 V2000
   22.8778  -18.6597  -22.0727 C   0  0  0  0  0  0  0  0  0  0  0  0
   23.6958  -17.9238  -21.0506 C   0  0  0  0  0  0  0  0  0  0  0  0
   23.9956  -18.7295  -19.8277 C   0  0  2  0  0  0  0  0  0  0  0  0
   22.7340  -19.2230  -19.1875 C   0  0  0  0  0  0  0  0  0  0  0  0
   24.8339  -17.9698  -18.8032 C   0  0  2  0  0  0  0  0  0  0  0  0
   26.1636  -17.7526  -19.4042 N   0  0  0  0  0  0  0  0  0  0  0  0
   25.0194  -18.8164  -17.6159 C   0  0  0  0  0  0  0  0  0  0  0  0
   25.8908  -19.7414  -17.6126 O   0  0  0  0  0  0  0  0  0  0  0  0
   26.1064  -21.6880   -9.5751 O   0  0  0  0  0  0  0  0  0  0  0  0
   25.7227  -20.9423  -10.6563 C   0  0  0  0  0  0  0  0  0  0  0  0
   26.6149  -20.6173  -11.6684 C   0  0  0  0  0  0  0  0  0  0  0  0
   26.2604  -19.8782  -12.7531 C   0  0  0  0  0  0  0  0  0  0  0  0
   24.9551  -19.4266  -12.8599 C   0  0  0  0  0  0  0  0  0  0  0  0
   24.5569  -18.6293  -14.0219 C   0  0  0  0  0  0  0  0  0  0  0  0
   24.4895  -19.5578  -15.2821 C   0  0  2  0  0  0  0  0  0  0  0  0
   24.2623  -18.6784  -16.3900 N   0  0  0  0  0  0  0  0  0  0  0  0
   23.5551  -20.5903  -14.9513 C   0  0  0  0  0  0  0  0  0  0  0  0
   22.3178  -20.2096  -14.8519 O   0  0  0  0  0  0  0  0  0  0  0  0
   24.0672  -19.7456  -11.8603 C   0  0  0  0  0  0  0  0  0  0  0  0
   24.4314  -20.4927  -10.7668 C   0  0  0  0  0  0  0  0  0  0  0  0
   23.7944  -21.9601  -14.7209 N   0  0  0  0  0  0  0  0  0  0  0  0
   25.0656  -22.6232  -14.7938 C   0  0  0  0  0  0  0  0  0  0  0  0
   24.7411  -24.1388  -14.8331 C   0  0  0  0  0  0  0  0  0  0  0  0
   23.5078  -24.1715  -13.9659 C   0  0  0  0  0  0  0  0  0  0  0  0
   22.7717  -22.9605  -14.4522 C   0  0  1  0  0  0  0  0  0  0  0  0
   21.7761  -22.5069  -13.4390 C   0  0  0  0  0  0  0  0  0  0  0  0
   20.6379  -23.2675  -13.2792 O   0  0  0  0  0  0  0  0  0  0  0  0
   21.9500  -21.4964  -12.7655 O   0  0  0  0  0  0  0  0  0  0  0  0
  1  2  1  0
  2  3  1  0
  3  4  1  1
  5  3  1  0
  5  6  1  6
  7  8  2  0
  7  5  1  0
  9 10  1  0
 10 11  2  0
 11 12  1  0
 13 12  2  0
 13 14  1  0
 15 14  1  1
 15 16  1  0
 16  7  1  0
 17 21  1  0
 17 15  1  0
 18 17  2  0
 19 13  1  0
 20 10  1  0
 20 19  2  0
 21 25  1  0
 22 21  1  0
 23 22  1  0
 23 24  1  0
 24 25  1  0
 25 26  1  1
 26 28  2  0
 26 27  1  0
M  END
$$$$
