IYP.pdb
     RDKit          3D

 28 29  0  0  1  0  0  0  0  0999 V2000
   41.7339  -14.5719  -15.4949 C   0  0  0  0  0  0  0  0  0  0  0  0
   40.8847  -13.7091  -14.6063 C   0  0  0  0  0  0  0  0  0  0  0  0
   41.6143  -12.5385  -14.0302 C   0  0  2  0  0  0  0  0  0  0  0  0
   42.8248  -12.9831  -13.2672 C   0  0  0  0  0  0  0  0  0  0  0  0
   40.7334  -11.6646  -13.1415 C   0  0  2  0  0  0  0  0  0  0  0  0
   39.6268  -11.1670  -13.9807 N   0  0  0  0  0  0  0  0  0  0  0  0
   41.5104  -10.4980  -12.6987 C   0  0  0  0  0  0  0  0  0  0  0  0
   41.8210   -9.5796  -13.5204 O   0  0  0  0  0  0  0  0  0  0  0  0
   45.2049   -3.9241   -8.5303 O   0  0  0  0  0  0  0  0  0  0  0  0
   44.4997   -5.0607   -8.8187 C   0  0  0  0  0  0  0  0  0  0  0  0
   44.7330   -6.2512   -8.1446 C   0  0  0  0  0  0  0  0  0  0  0  0
   44.0472   -7.3946   -8.4109 C   0  0  0  0  0  0  0  0  0  0  0  0
   43.0727   -7.3788   -9.3954 C   0  0  0  0  0  0  0  0  0  0  0  0
   42.3249   -8.6018   -9.6946 C   0  0  0  0  0  0  0  0  0  0  0  0
   42.8714   -9.2247  -11.0242 C   0  0  2  0  0  0  0  0  0  0  0  0
   41.9706  -10.2925  -11.3418 N   0  0  0  0  0  0  0  0  0  0  0  0
   44.2619   -9.4721  -10.7917 C   0  0  0  0  0  0  0  0  0  0  0  0
   44.5238  -10.4171   -9.9407 O   0  0  0  0  0  0  0  0  0  0  0  0
   42.8376   -6.2024  -10.0662 C   0  0  0  0  0  0  0  0  0  0  0  0
   43.5338   -5.0504   -9.7926 C   0  0  0  0  0  0  0  0  0  0  0  0
   45.3820   -8.8326  -11.3600 N   0  0  0  0  0  0  0  0  0  0  0  0
   45.3534   -7.7850  -12.3413 C   0  0  0  0  0  0  0  0  0  0  0  0
   46.7978   -7.6992  -12.8984 C   0  0  0  0  0  0  0  0  0  0  0  0
   47.5837   -8.0556  -11.6617 C   0  0  0  0  0  0  0  0  0  0  0  0
   46.7714   -9.1876  -11.1107 C   0  0  1  0  0  0  0  0  0  0  0  0
   47.0622   -9.3886   -9.6621 C   0  0  0  0  0  0  0  0  0  0  0  0
   46.0689   -9.0668   -8.7622 O   0  0  0  0  0  0  0  0  0  0  0  0
   48.1406   -9.8232   -9.2707 O   0  0  0  0  0  0  0  0  0  0  0  0
  1  2  1  0
  2  3  1  0
  3  4  1  1
  5  3  1  0
  5  6  1  6
  7  8  2  0
  7  5  1  0
  9 10  1  0
 10 11  2  0
 11 12  1  0
 13 12  2  0
 13 14  1  0
 15 14  1  1
 15 16  1  0
 16  7  1  0
 17 21  1  0
 17 15  1  0
 18 17  2  0
 19 13  1  0
 20 10  1  0
 20 19  2  0
 21 25  1  0
 22 21  1  0
 23 22  1  0
 23 24  1  0
 24 25  1  0
 25 26  1  1
 26 28  2  0
 26 27  1  0
M  END
$$$$
