IYP.pdb
     RDKit          3D

 28 29  0  0  1  0  0  0  0  0999 V2000
   27.1962  -21.7824  -21.1772 C   0  0  0  0  0  0  0  0  0  0  0  0
   28.1424  -21.7781  -20.0110 C   0  0  0  0  0  0  0  0  0  0  0  0
   27.4720  -21.9950  -18.6926 C   0  0  2  0  0  0  0  0  0  0  0  0
   26.3301  -21.0426  -18.5081 C   0  0  0  0  0  0  0  0  0  0  0  0
   28.4316  -21.8889  -17.5104 C   0  0  2  0  0  0  0  0  0  0  0  0
   29.2549  -23.1131  -17.5074 N   0  0  0  0  0  0  0  0  0  0  0  0
   27.6535  -21.8775  -16.2634 C   0  0  0  0  0  0  0  0  0  0  0  0
   27.1478  -22.9508  -15.8083 O   0  0  0  0  0  0  0  0  0  0  0  0
   26.0919  -20.9569   -8.0141 O   0  0  0  0  0  0  0  0  0  0  0  0
   26.3423  -20.6299   -9.3190 C   0  0  0  0  0  0  0  0  0  0  0  0
   25.4889  -19.8049  -10.0380 C   0  0  0  0  0  0  0  0  0  0  0  0
   25.7138  -19.4642  -11.3349 C   0  0  0  0  0  0  0  0  0  0  0  0
   26.8403  -19.9573  -11.9727 C   0  0  0  0  0  0  0  0  0  0  0  0
   27.0971  -19.6000  -13.3694 C   0  0  0  0  0  0  0  0  0  0  0  0
   26.5831  -20.7534  -14.2967 C   0  0  2  0  0  0  0  0  0  0  0  0
   27.4051  -20.6936  -15.4685 N   0  0  0  0  0  0  0  0  0  0  0  0
   25.1644  -20.5812  -14.3767 C   0  0  0  0  0  0  0  0  0  0  0  0
   24.7687  -19.4864  -14.9516 O   0  0  0  0  0  0  0  0  0  0  0  0
   27.6890  -20.7750  -11.2653 C   0  0  0  0  0  0  0  0  0  0  0  0
   27.4564  -21.1156   -9.9551 C   0  0  0  0  0  0  0  0  0  0  0  0
   24.1417  -21.4363  -13.9189 N   0  0  0  0  0  0  0  0  0  0  0  0
   24.3146  -22.7639  -13.4005 C   0  0  0  0  0  0  0  0  0  0  0  0
   22.8988  -23.3959  -13.3983 C   0  0  0  0  0  0  0  0  0  0  0  0
   22.0617  -22.1771  -13.1022 C   0  0  0  0  0  0  0  0  0  0  0  0
   22.7157  -21.1495  -13.9746 C   0  0  1  0  0  0  0  0  0  0  0  0
   22.3876  -19.7730  -13.5043 C   0  0  0  0  0  0  0  0  0  0  0  0
   21.1196  -19.2974  -13.7606 O   0  0  0  0  0  0  0  0  0  0  0  0
   23.2055  -19.0780  -12.9101 O   0  0  0  0  0  0  0  0  0  0  0  0
  1  2  1  0
  2  3  1  0
  3  4  1  1
  5  3  1  0
  5  6  1  1
  7  8  2  0
  7  5  1  0
  9 10  1  0
 10 11  2  0
 11 12  1  0
 13 12  2  0
 13 14  1  0
 15 14  1  1
 15 16  1  0
 16  7  1  0
 17 21  1  0
 17 15  1  0
 18 17  2  0
 19 13  1  0
 20 10  1  0
 20 19  2  0
 21 25  1  0
 22 21  1  0
 23 22  1  0
 23 24  1  0
 24 25  1  0
 25 26  1  1
 26 28  2  0
 26 27  1  0
M  END
$$$$
