IYP.pdb
     RDKit          3D

 28 29  0  0  1  0  0  0  0  0999 V2000
   28.0105  -18.2820  -16.6685 C   0  0  0  0  0  0  0  0  0  0  0  0
   27.8317  -19.5508  -15.8852 C   0  0  0  0  0  0  0  0  0  0  0  0
   27.4676  -19.3264  -14.4528 C   0  0  2  0  0  0  0  0  0  0  0  0
   28.6935  -19.1754  -13.6047 C   0  0  0  0  0  0  0  0  0  0  0  0
   26.5760  -20.4269  -13.8841 C   0  0  2  0  0  0  0  0  0  0  0  0
   25.3155  -20.4049  -14.6503 N   0  0  0  0  0  0  0  0  0  0  0  0
   26.2495  -20.1031  -12.4880 C   0  0  0  0  0  0  0  0  0  0  0  0
   25.6847  -19.0029  -12.1957 O   0  0  0  0  0  0  0  0  0  0  0  0
   20.3696  -20.5440  -12.4849 O   0  0  0  0  0  0  0  0  0  0  0  0
   21.5148  -20.8024  -11.7821 C   0  0  0  0  0  0  0  0  0  0  0  0
   21.7687  -20.1983  -10.5588 C   0  0  0  0  0  0  0  0  0  0  0  0
   22.8978  -20.4371   -9.8400 C   0  0  0  0  0  0  0  0  0  0  0  0
   23.8397  -21.3195  -10.3432 C   0  0  0  0  0  0  0  0  0  0  0  0
   25.0613  -21.5878   -9.5816 C   0  0  0  0  0  0  0  0  0  0  0  0
   26.1763  -20.5827  -10.0300 C   0  0  2  0  0  0  0  0  0  0  0  0
   26.5247  -20.9724  -11.3638 N   0  0  0  0  0  0  0  0  0  0  0  0
   27.1471  -20.5887   -8.9783 C   0  0  0  0  0  0  0  0  0  0  0  0
   27.9101  -21.6382   -8.9319 O   0  0  0  0  0  0  0  0  0  0  0  0
   23.5934  -21.9207  -11.5545 C   0  0  0  0  0  0  0  0  0  0  0  0
   22.4506  -21.6754  -12.2761 C   0  0  0  0  0  0  0  0  0  0  0  0
   27.3878  -19.6129   -7.9901 N   0  0  0  0  0  0  0  0  0  0  0  0
   26.8648  -18.2761   -7.9730 C   0  0  0  0  0  0  0  0  0  0  0  0
   27.7063  -17.5151   -6.9162 C   0  0  0  0  0  0  0  0  0  0  0  0
   27.9719  -18.6276   -5.9334 C   0  0  0  0  0  0  0  0  0  0  0  0
   28.2845  -19.7676   -6.8540 C   0  0  1  0  0  0  0  0  0  0  0  0
   28.1070  -21.0729   -6.1554 C   0  0  0  0  0  0  0  0  0  0  0  0
   29.0284  -21.4075   -5.1864 O   0  0  0  0  0  0  0  0  0  0  0  0
   27.1803  -21.8312   -6.4224 O   0  0  0  0  0  0  0  0  0  0  0  0
  1  2  1  0
  2  3  1  0
  3  4  1  1
  5  3  1  0
  5  6  1  6
  7  8  2  0
  7  5  1  0
  9 10  1  0
 10 11  2  0
 11 12  1  0
 13 12  2  0
 13 14  1  0
 15 14  1  1
 15 16  1  0
 16  7  1  0
 17 21  1  0
 17 15  1  0
 18 17  2  0
 19 13  1  0
 20 10  1  0
 20 19  2  0
 21 25  1  0
 22 21  1  0
 23 22  1  0
 23 24  1  0
 24 25  1  0
 25 26  1  1
 26 28  2  0
 26 27  1  0
M  END
$$$$
