IYP.pdb
     RDKit          3D

 28 29  0  0  1  0  0  0  0  0999 V2000
   19.0544  -18.9798  -18.1037 C   0  0  0  0  0  0  0  0  0  0  0  0
   19.7713  -20.2218  -17.6577 C   0  0  0  0  0  0  0  0  0  0  0  0
   20.9640  -19.9512  -16.7982 C   0  0  2  0  0  0  0  0  0  0  0  0
   22.1461  -20.7515  -17.2532 C   0  0  0  0  0  0  0  0  0  0  0  0
   20.7029  -20.2088  -15.3166 C   0  0  2  0  0  0  0  0  0  0  0  0
   19.7319  -19.1948  -14.8634 N   0  0  0  0  0  0  0  0  0  0  0  0
   21.9490  -19.9924  -14.5675 C   0  0  0  0  0  0  0  0  0  0  0  0
   22.4627  -18.8326  -14.4906 O   0  0  0  0  0  0  0  0  0  0  0  0
   27.4558  -19.8147   -8.1368 O   0  0  0  0  0  0  0  0  0  0  0  0
   26.6516  -20.3163   -9.1237 C   0  0  0  0  0  0  0  0  0  0  0  0
   25.2887  -20.0563   -9.1527 C   0  0  0  0  0  0  0  0  0  0  0  0
   24.4671  -20.5419  -10.1211 C   0  0  0  0  0  0  0  0  0  0  0  0
   25.0055  -21.3304  -11.1248 C   0  0  0  0  0  0  0  0  0  0  0  0
   24.1343  -21.8612  -12.1754 C   0  0  0  0  0  0  0  0  0  0  0  0
   23.9577  -20.7765  -13.2919 C   0  0  2  0  0  0  0  0  0  0  0  0
   22.6740  -21.0350  -13.8730 N   0  0  0  0  0  0  0  0  0  0  0  0
   25.1525  -20.8336  -14.0781 C   0  0  0  0  0  0  0  0  0  0  0  0
   25.3372  -21.9416  -14.7293 O   0  0  0  0  0  0  0  0  0  0  0  0
   26.3549  -21.5911  -11.1009 C   0  0  0  0  0  0  0  0  0  0  0  0
   27.1798  -21.0976  -10.1198 C   0  0  0  0  0  0  0  0  0  0  0  0
   26.1519  -19.8534  -14.2420 N   0  0  0  0  0  0  0  0  0  0  0  0
   26.1395  -18.5284  -13.6895 C   0  0  0  0  0  0  0  0  0  0  0  0
   27.2407  -17.7498  -14.4542 C   0  0  0  0  0  0  0  0  0  0  0  0
   28.2373  -18.8568  -14.6896 C   0  0  0  0  0  0  0  0  0  0  0  0
   27.3360  -19.9889  -15.0778 C   0  0  1  0  0  0  0  0  0  0  0  0
   28.0244  -21.2984  -14.8909 C   0  0  0  0  0  0  0  0  0  0  0  0
   28.8922  -21.7090  -15.8799 O   0  0  0  0  0  0  0  0  0  0  0  0
   27.8355  -21.9952  -13.8990 O   0  0  0  0  0  0  0  0  0  0  0  0
  1  2  1  0
  2  3  1  0
  3  4  1  6
  5  3  1  0
  5  6  1  1
  7  8  2  0
  7  5  1  0
  9 10  1  0
 10 11  2  0
 11 12  1  0
 13 12  2  0
 13 14  1  0
 15 14  1  1
 15 16  1  0
 16  7  1  0
 17 21  1  0
 17 15  1  0
 18 17  2  0
 19 13  1  0
 20 10  1  0
 20 19  2  0
 21 25  1  0
 22 21  1  0
 23 22  1  0
 23 24  1  0
 24 25  1  0
 25 26  1  1
 26 28  2  0
 26 27  1  0
M  END
$$$$
