IYP.pdb
     RDKit          3D

 28 29  0  0  1  0  0  0  0  0999 V2000
   25.6764  -18.0076  -21.8399 C   0  0  0  0  0  0  0  0  0  0  0  0
   26.8271  -18.0744  -20.8772 C   0  0  0  0  0  0  0  0  0  0  0  0
   26.4853  -18.7275  -19.5768 C   0  0  2  0  0  0  0  0  0  0  0  0
   25.3819  -17.9913  -18.8801 C   0  0  0  0  0  0  0  0  0  0  0  0
   27.6858  -18.8654  -18.6444 C   0  0  2  0  0  0  0  0  0  0  0  0
   28.6611  -19.7437  -19.3181 N   0  0  0  0  0  0  0  0  0  0  0  0
   27.2582  -19.5439  -17.4126 C   0  0  0  0  0  0  0  0  0  0  0  0
   26.8805  -20.7570  -17.4417 O   0  0  0  0  0  0  0  0  0  0  0  0
   25.6844  -21.5573   -9.0610 O   0  0  0  0  0  0  0  0  0  0  0  0
   26.0560  -20.8887  -10.1955 C   0  0  0  0  0  0  0  0  0  0  0  0
   27.1191  -21.3187  -10.9770 C   0  0  0  0  0  0  0  0  0  0  0  0
   27.5093  -20.6736  -12.1085 C   0  0  0  0  0  0  0  0  0  0  0  0
   26.8217  -19.5381  -12.5046 C   0  0  0  0  0  0  0  0  0  0  0  0
   27.2292  -18.8315  -13.7208 C   0  0  0  0  0  0  0  0  0  0  0  0
   26.7029  -19.6161  -14.9705 C   0  0  2  0  0  0  0  0  0  0  0  0
   27.2330  -18.9217  -16.1059 N   0  0  0  0  0  0  0  0  0  0  0  0
   25.2912  -19.7500  -14.7760 C   0  0  0  0  0  0  0  0  0  0  0  0
   24.6151  -18.6428  -14.8293 O   0  0  0  0  0  0  0  0  0  0  0  0
   25.7679  -19.1077  -11.7342 C   0  0  0  0  0  0  0  0  0  0  0  0
   25.3784  -19.7638  -10.5921 C   0  0  0  0  0  0  0  0  0  0  0  0
   24.5373  -20.9166  -14.5366 N   0  0  0  0  0  0  0  0  0  0  0  0
   25.0393  -22.2613  -14.5142 C   0  0  0  0  0  0  0  0  0  0  0  0
   23.7872  -23.1727  -14.5888 C   0  0  0  0  0  0  0  0  0  0  0  0
   22.7980  -22.3325  -13.8209 C   0  0  0  0  0  0  0  0  0  0  0  0
   23.0938  -20.9644  -14.3553 C   0  0  1  0  0  0  0  0  0  0  0  0
   22.5969  -19.9146  -13.4201 C   0  0  0  0  0  0  0  0  0  0  0  0
   23.5357  -19.2008  -12.7068 O   0  0  0  0  0  0  0  0  0  0  0  0
   21.4002  -19.6837  -13.2803 O   0  0  0  0  0  0  0  0  0  0  0  0
  1  2  1  0
  2  3  1  0
  3  4  1  1
  5  3  1  0
  5  6  1  6
  7  8  2  0
  7  5  1  0
  9 10  1  0
 10 11  2  0
 11 12  1  0
 13 12  2  0
 13 14  1  0
 15 14  1  1
 15 16  1  0
 16  7  1  0
 17 21  1  0
 17 15  1  0
 18 17  2  0
 19 13  1  0
 20 10  1  0
 20 19  2  0
 21 25  1  0
 22 21  1  0
 23 22  1  0
 23 24  1  0
 24 25  1  0
 25 26  1  1
 26 28  2  0
 26 27  1  0
M  END
$$$$
