IYP.pdb
     RDKit          3D

 28 29  0  0  1  0  0  0  0  0999 V2000
   18.7981  -21.4817  -16.2262 C   0  0  0  0  0  0  0  0  0  0  0  0
   19.0022  -20.0917  -15.6954 C   0  0  0  0  0  0  0  0  0  0  0  0
   20.4093  -19.8087  -15.2777 C   0  0  2  0  0  0  0  0  0  0  0  0
   21.3445  -19.9012  -16.4447 C   0  0  0  0  0  0  0  0  0  0  0  0
   20.8926  -20.7198  -14.1526 C   0  0  2  0  0  0  0  0  0  0  0  0
   20.0956  -20.3925  -12.9551 N   0  0  0  0  0  0  0  0  0  0  0  0
   22.2953  -20.4014  -13.8497 C   0  0  0  0  0  0  0  0  0  0  0  0
   22.6371  -19.2154  -13.5473 O   0  0  0  0  0  0  0  0  0  0  0  0
   25.5373  -19.7281   -7.4785 O   0  0  0  0  0  0  0  0  0  0  0  0
   25.4820  -20.2883   -8.7257 C   0  0  0  0  0  0  0  0  0  0  0  0
   24.2746  -20.6461   -9.3086 C   0  0  0  0  0  0  0  0  0  0  0  0
   24.1910  -21.2041  -10.5457 C   0  0  0  0  0  0  0  0  0  0  0  0
   25.3561  -21.4283  -11.2608 C   0  0  0  0  0  0  0  0  0  0  0  0
   25.2836  -22.0285  -12.5946 C   0  0  0  0  0  0  0  0  0  0  0  0
   24.7231  -20.9694  -13.6038 C   0  0  2  0  0  0  0  0  0  0  0  0
   23.3719  -21.3689  -13.8623 N   0  0  0  0  0  0  0  0  0  0  0  0
   25.6880  -20.8923  -14.6582 C   0  0  0  0  0  0  0  0  0  0  0  0
   25.6289  -21.8462  -15.5369 O   0  0  0  0  0  0  0  0  0  0  0  0
   26.5549  -21.0758  -10.6882 C   0  0  0  0  0  0  0  0  0  0  0  0
   26.6328  -20.5124   -9.4379 C   0  0  0  0  0  0  0  0  0  0  0  0
   26.6897  -19.9240  -14.8724 N   0  0  0  0  0  0  0  0  0  0  0  0
   26.9437  -18.7712  -14.0555 C   0  0  0  0  0  0  0  0  0  0  0  0
   27.8638  -17.8562  -14.9041 C   0  0  0  0  0  0  0  0  0  0  0  0
   28.6582  -18.8960  -15.6535 C   0  0  0  0  0  0  0  0  0  0  0  0
   27.5890  -19.8810  -16.0161 C   0  0  1  0  0  0  0  0  0  0  0  0
   28.1833  -21.2120  -16.3303 C   0  0  0  0  0  0  0  0  0  0  0  0
   28.6193  -21.4267  -17.6201 O   0  0  0  0  0  0  0  0  0  0  0  0
   28.2869  -22.0929  -15.4828 O   0  0  0  0  0  0  0  0  0  0  0  0
  1  2  1  0
  2  3  1  0
  3  4  1  6
  5  3  1  0
  5  6  1  1
  7  8  2  0
  7  5  1  0
  9 10  1  0
 10 11  2  0
 11 12  1  0
 13 12  2  0
 13 14  1  0
 15 14  1  1
 15 16  1  0
 16  7  1  0
 17 21  1  0
 17 15  1  0
 18 17  2  0
 19 13  1  0
 20 10  1  0
 20 19  2  0
 21 25  1  0
 22 21  1  0
 23 22  1  0
 23 24  1  0
 24 25  1  0
 25 26  1  1
 26 28  2  0
 26 27  1  0
M  END
$$$$
