IYP.pdb
     RDKit          3D

 28 29  0  0  1  0  0  0  0  0999 V2000
   21.1438  -17.2074  -20.8881 C   0  0  0  0  0  0  0  0  0  0  0  0
   21.3345  -16.1711  -19.8180 C   0  0  0  0  0  0  0  0  0  0  0  0
   22.2022  -16.6260  -18.6890 C   0  0  2  0  0  0  0  0  0  0  0  0
   23.4518  -17.2755  -19.2004 C   0  0  0  0  0  0  0  0  0  0  0  0
   21.4843  -17.5688  -17.7269 C   0  0  2  0  0  0  0  0  0  0  0  0
   20.3531  -16.8200  -17.1472 N   0  0  0  0  0  0  0  0  0  0  0  0
   22.3960  -17.9128  -16.6264 C   0  0  0  0  0  0  0  0  0  0  0  0
   23.1485  -17.0279  -16.1110 O   0  0  0  0  0  0  0  0  0  0  0  0
   25.9943  -21.1126   -9.4935 O   0  0  0  0  0  0  0  0  0  0  0  0
   25.2450  -21.0015  -10.6330 C   0  0  0  0  0  0  0  0  0  0  0  0
   24.1601  -20.1393  -10.7081 C   0  0  0  0  0  0  0  0  0  0  0  0
   23.3991  -20.0094  -11.8272 C   0  0  0  0  0  0  0  0  0  0  0  0
   23.7133  -20.7663  -12.9441 C   0  0  0  0  0  0  0  0  0  0  0  0
   22.9037  -20.6383  -14.1576 C   0  0  0  0  0  0  0  0  0  0  0  0
   23.5190  -19.5226  -15.0693 C   0  0  2  0  0  0  0  0  0  0  0  0
   22.5134  -19.2345  -16.0482 N   0  0  0  0  0  0  0  0  0  0  0  0
   24.8103  -20.0064  -15.4531 C   0  0  0  0  0  0  0  0  0  0  0  0
   24.8081  -21.0891  -16.1696 O   0  0  0  0  0  0  0  0  0  0  0  0
   24.7868  -21.6219  -12.8753 C   0  0  0  0  0  0  0  0  0  0  0  0
   25.5520  -21.7488  -11.7416 C   0  0  0  0  0  0  0  0  0  0  0  0
   26.0799  -19.4682  -15.1611 N   0  0  0  0  0  0  0  0  0  0  0  0
   26.3411  -18.2454  -14.4559 C   0  0  0  0  0  0  0  0  0  0  0  0
   27.8329  -17.9210  -14.7268 C   0  0  0  0  0  0  0  0  0  0  0  0
   28.4013  -19.3158  -14.8008 C   0  0  0  0  0  0  0  0  0  0  0  0
   27.3515  -20.0212  -15.6039 C   0  0  1  0  0  0  0  0  0  0  0  0
   27.4375  -21.4963  -15.4038 C   0  0  0  0  0  0  0  0  0  0  0  0
   28.5103  -22.1541  -15.9661 O   0  0  0  0  0  0  0  0  0  0  0  0
   26.5924  -22.1150  -14.7650 O   0  0  0  0  0  0  0  0  0  0  0  0
  1  2  1  0
  2  3  1  0
  3  4  1  6
  5  3  1  0
  5  6  1  1
  7  8  2  0
  7  5  1  0
  9 10  1  0
 10 11  2  0
 11 12  1  0
 13 12  2  0
 13 14  1  0
 15 14  1  1
 15 16  1  0
 16  7  1  0
 17 21  1  0
 17 15  1  0
 18 17  2  0
 19 13  1  0
 20 10  1  0
 20 19  2  0
 21 25  1  0
 22 21  1  0
 23 22  1  0
 23 24  1  0
 24 25  1  0
 25 26  1  1
 26 28  2  0
 26 27  1  0
M  END
$$$$
