IYP.pdb
     RDKit          3D

 28 29  0  0  1  0  0  0  0  0999 V2000
   14.6770  -24.6308    3.5472 C   0  0  0  0  0  0  0  0  0  0  0  0
   14.5358  -23.4424    2.6399 C   0  0  0  0  0  0  0  0  0  0  0  0
   15.4218  -22.2963    3.0087 C   0  0  2  0  0  0  0  0  0  0  0  0
   15.1466  -21.8336    4.4070 C   0  0  0  0  0  0  0  0  0  0  0  0
   15.3101  -21.1204    2.0421 C   0  0  2  0  0  0  0  0  0  0  0  0
   15.7708  -21.5958    0.7237 N   0  0  0  0  0  0  0  0  0  0  0  0
   16.2297  -20.0582    2.4742 C   0  0  0  0  0  0  0  0  0  0  0  0
   17.4843  -20.1877    2.3181 O   0  0  0  0  0  0  0  0  0  0  0  0
   19.8255  -12.4899    4.7929 O   0  0  0  0  0  0  0  0  0  0  0  0
   18.9476  -13.4599    4.3920 C   0  0  0  0  0  0  0  0  0  0  0  0
   17.7567  -13.6862    5.0676 C   0  0  0  0  0  0  0  0  0  0  0  0
   16.8670  -14.6429    4.6909 C   0  0  0  0  0  0  0  0  0  0  0  0
   17.1540  -15.4290    3.5870 C   0  0  0  0  0  0  0  0  0  0  0  0
   16.2063  -16.4638    3.1680 C   0  0  0  0  0  0  0  0  0  0  0  0
   16.7729  -17.8693    3.5656 C   0  0  2  0  0  0  0  0  0  0  0  0
   15.8099  -18.8161    3.0874 N   0  0  0  0  0  0  0  0  0  0  0  0
   17.0937  -17.7767    4.9574 C   0  0  0  0  0  0  0  0  0  0  0  0
   16.0755  -17.6844    5.7578 O   0  0  0  0  0  0  0  0  0  0  0  0
   18.3323  -15.2091    2.9141 C   0  0  0  0  0  0  0  0  0  0  0  0
   19.2272  -14.2410    3.2996 C   0  0  0  0  0  0  0  0  0  0  0  0
   18.3604  -17.7733    5.5756 N   0  0  0  0  0  0  0  0  0  0  0  0
   19.6235  -17.9703    4.9224 C   0  0  0  0  0  0  0  0  0  0  0  0
   20.6396  -18.2486    6.0600 C   0  0  0  0  0  0  0  0  0  0  0  0
   20.0651  -17.3803    7.1509 C   0  0  0  0  0  0  0  0  0  0  0  0
   18.5993  -17.6546    7.0065 C   0  0  1  0  0  0  0  0  0  0  0  0
   17.7953  -16.5674    7.6351 C   0  0  0  0  0  0  0  0  0  0  0  0
   17.7878  -16.4949    9.0115 O   0  0  0  0  0  0  0  0  0  0  0  0
   17.1592  -15.7603    6.9651 O   0  0  0  0  0  0  0  0  0  0  0  0
  1  2  1  0
  2  3  1  0
  3  4  1  1
  5  3  1  0
  5  6  1  6
  7  8  2  0
  7  5  1  0
  9 10  1  0
 10 11  2  0
 11 12  1  0
 13 12  2  0
 13 14  1  0
 15 14  1  1
 15 16  1  0
 16  7  1  0
 17 21  1  0
 17 15  1  0
 18 17  2  0
 19 13  1  0
 20 10  1  0
 20 19  2  0
 21 25  1  0
 22 21  1  0
 23 22  1  0
 23 24  1  0
 24 25  1  0
 25 26  1  6
 26 28  2  0
 26 27  1  0
M  END
$$$$
