IYP.pdb
     RDKit          3D

 28 29  0  0  1  0  0  0  0  0999 V2000
   18.6284  -21.0274  -14.9475 C   0  0  0  0  0  0  0  0  0  0  0  0
   19.4679  -21.2991  -13.7323 C   0  0  0  0  0  0  0  0  0  0  0  0
   20.8527  -20.7433  -13.8222 C   0  0  2  0  0  0  0  0  0  0  0  0
   21.5602  -21.2594  -15.0380 C   0  0  0  0  0  0  0  0  0  0  0  0
   21.6901  -21.0231  -12.5772 C   0  0  2  0  0  0  0  0  0  0  0  0
   21.0637  -20.2931  -11.4586 N   0  0  0  0  0  0  0  0  0  0  0  0
   23.0354  -20.4633  -12.7711 C   0  0  0  0  0  0  0  0  0  0  0  0
   23.2201  -19.2061  -12.7530 O   0  0  0  0  0  0  0  0  0  0  0  0
   25.7434  -19.5992   -6.8554 O   0  0  0  0  0  0  0  0  0  0  0  0
   25.9154  -20.0495   -8.1359 C   0  0  0  0  0  0  0  0  0  0  0  0
   25.3188  -21.2209   -8.5806 C   0  0  0  0  0  0  0  0  0  0  0  0
   25.4730  -21.6909   -9.8470 C   0  0  0  0  0  0  0  0  0  0  0  0
   26.2574  -20.9760  -10.7373 C   0  0  0  0  0  0  0  0  0  0  0  0
   26.4337  -21.4684  -12.1051 C   0  0  0  0  0  0  0  0  0  0  0  0
   25.5165  -20.6423  -13.0698 C   0  0  2  0  0  0  0  0  0  0  0  0
   24.2257  -21.2581  -12.9868 N   0  0  0  0  0  0  0  0  0  0  0  0
   26.2259  -20.5719  -14.3110 C   0  0  0  0  0  0  0  0  0  0  0  0
   26.1484  -21.6319  -15.0567 O   0  0  0  0  0  0  0  0  0  0  0  0
   26.8507  -19.8150  -10.3022 C   0  0  0  0  0  0  0  0  0  0  0  0
   26.6912  -19.3452   -9.0214 C   0  0  0  0  0  0  0  0  0  0  0  0
   26.9937  -19.5112  -14.8328 N   0  0  0  0  0  0  0  0  0  0  0  0
   27.2602  -18.2581  -14.1850 C   0  0  0  0  0  0  0  0  0  0  0  0
   27.8075  -17.3252  -15.2959 C   0  0  0  0  0  0  0  0  0  0  0  0
   28.5469  -18.3268  -16.1469 C   0  0  0  0  0  0  0  0  0  0  0  0
   27.5802  -19.4713  -16.1644 C   0  0  1  0  0  0  0  0  0  0  0  0
   28.2736  -20.7412  -16.5253 C   0  0  0  0  0  0  0  0  0  0  0  0
   28.5613  -20.9541  -17.8563 O   0  0  0  0  0  0  0  0  0  0  0  0
   28.5827  -21.5747  -15.6799 O   0  0  0  0  0  0  0  0  0  0  0  0
  1  2  1  0
  2  3  1  0
  3  4  1  6
  5  3  1  0
  5  6  1  1
  7  8  2  0
  7  5  1  0
  9 10  1  0
 10 11  2  0
 11 12  1  0
 13 12  2  0
 13 14  1  0
 15 14  1  1
 15 16  1  0
 16  7  1  0
 17 21  1  0
 17 15  1  0
 18 17  2  0
 19 13  1  0
 20 10  1  0
 20 19  2  0
 21 25  1  0
 22 21  1  0
 23 22  1  0
 23 24  1  0
 24 25  1  0
 25 26  1  1
 26 28  2  0
 26 27  1  0
M  END
$$$$
