IYP.pdb
     RDKit          3D

 28 29  0  0  1  0  0  0  0  0999 V2000
   23.7118  -20.0064  -16.3152 C   0  0  0  0  0  0  0  0  0  0  0  0
   22.2181  -19.8504  -16.3069 C   0  0  0  0  0  0  0  0  0  0  0  0
   21.6135  -19.9283  -14.9421 C   0  0  2  0  0  0  0  0  0  0  0  0
   21.9606  -18.7170  -14.1314 C   0  0  0  0  0  0  0  0  0  0  0  0
   22.0125  -21.1913  -14.1837 C   0  0  2  0  0  0  0  0  0  0  0  0
   21.5300  -22.3420  -14.9710 N   0  0  0  0  0  0  0  0  0  0  0  0
   21.3105  -21.2147  -12.8925 C   0  0  0  0  0  0  0  0  0  0  0  0
   21.4467  -20.2588  -12.0663 O   0  0  0  0  0  0  0  0  0  0  0  0
   15.0132  -21.8380  -15.1418 O   0  0  0  0  0  0  0  0  0  0  0  0
   15.9473  -21.6584  -14.1582 C   0  0  0  0  0  0  0  0  0  0  0  0
   17.0559  -20.8455  -14.3486 C   0  0  0  0  0  0  0  0  0  0  0  0
   17.9987  -20.6497  -13.3888 C   0  0  0  0  0  0  0  0  0  0  0  0
   17.8539  -21.2848  -12.1662 C   0  0  0  0  0  0  0  0  0  0  0  0
   18.8604  -21.0845  -11.1217 C   0  0  0  0  0  0  0  0  0  0  0  0
   19.8686  -22.2835  -11.1443 C   0  0  2  0  0  0  0  0  0  0  0  0
   20.4319  -22.2813  -12.4615 N   0  0  0  0  0  0  0  0  0  0  0  0
   19.1380  -23.4116  -10.6522 C   0  0  0  0  0  0  0  0  0  0  0  0
   18.5514  -24.1326  -11.5588 O   0  0  0  0  0  0  0  0  0  0  0  0
   16.7577  -22.0911  -11.9722 C   0  0  0  0  0  0  0  0  0  0  0  0
   15.8085  -22.2851  -12.9459 C   0  0  0  0  0  0  0  0  0  0  0  0
   18.9703  -23.8458   -9.3218 N   0  0  0  0  0  0  0  0  0  0  0  0
   19.5824  -23.2699   -8.1580 C   0  0  0  0  0  0  0  0  0  0  0  0
   19.3878  -24.3133   -7.0278 C   0  0  0  0  0  0  0  0  0  0  0  0
   18.0514  -24.8897   -7.4223 C   0  0  0  0  0  0  0  0  0  0  0  0
   18.2099  -25.0156   -8.9068 C   0  0  1  0  0  0  0  0  0  0  0  0
   16.8788  -25.1018   -9.5734 C   0  0  0  0  0  0  0  0  0  0  0  0
   16.2332  -26.3194   -9.5521 O   0  0  0  0  0  0  0  0  0  0  0  0
   16.3649  -24.1336  -10.1243 O   0  0  0  0  0  0  0  0  0  0  0  0
  1  2  1  0
  2  3  1  0
  3  4  1  1
  5  3  1  0
  5  6  1  6
  7  8  2  0
  7  5  1  0
  9 10  1  0
 10 11  2  0
 11 12  1  0
 13 12  2  0
 13 14  1  0
 15 14  1  6
 15 16  1  0
 16  7  1  0
 17 21  1  0
 17 15  1  0
 18 17  2  0
 19 13  1  0
 20 10  1  0
 20 19  2  0
 21 25  1  0
 22 21  1  0
 23 22  1  0
 23 24  1  0
 24 25  1  0
 25 26  1  6
 26 28  2  0
 26 27  1  0
M  END
$$$$
