VKG.pdb
     RDKit          3D

 21 20  0  0  1  0  0  0  0  0999 V2000
   24.3036  -29.1099  -18.7021 C   0  0  0  0  0  0  0  0  0  0  0  0
   23.0562  -28.9469  -17.8171 C   0  0  2  0  0  0  0  0  0  0  0  0
   21.9053  -29.4312  -18.6420 C   0  0  0  0  0  0  0  0  0  0  0  0
   22.9918  -27.4698  -17.4766 C   0  0  2  0  0  0  0  0  0  0  0  0
   24.2418  -27.1973  -16.7472 N   0  0  0  0  0  0  0  0  0  0  0  0
   21.8525  -27.1307  -16.5860 C   0  0  0  0  0  0  0  0  0  0  0  0
   20.6967  -27.2579  -17.0416 O   0  0  0  0  0  0  0  0  0  0  0  0
   22.0431  -26.6770  -15.2577 N   0  0  0  0  0  0  0  0  0  0  0  0
   20.9756  -26.3969  -14.3148 C   0  0  1  0  0  0  0  0  0  0  0  0
   21.4860  -26.5603  -12.9163 C   0  0  0  0  0  0  0  0  0  0  0  0
   20.4583  -26.3742  -11.8463 C   0  0  0  0  0  0  0  0  0  0  0  0
   20.0074  -27.6559  -11.1968 C   0  0  0  0  0  0  0  0  0  0  0  0
   19.0095  -27.4399  -10.1068 C   0  0  0  0  0  0  0  0  0  0  0  0
   18.4565  -28.6549   -9.5774 N   0  0  0  0  0  0  0  0  0  0  0  0
   20.3558  -25.0836  -14.5669 C   0  0  0  0  0  0  0  0  0  0  0  0
   21.0758  -24.1046  -14.8397 O   0  0  0  0  0  0  0  0  0  0  0  0
   18.9575  -24.9083  -14.5049 N   0  0  0  0  0  0  0  0  0  0  0  0
   18.4214  -23.5889  -14.7773 C   0  0  0  0  0  0  0  0  0  0  0  0
   18.1820  -22.8135  -13.5531 C   0  0  0  0  0  0  0  0  0  0  0  0
   18.5102  -23.2828  -12.4439 O   0  0  0  0  0  0  0  0  0  0  0  0
   17.5968  -21.5669  -13.6073 O   0  0  0  0  0  0  0  0  0  0  0  0
  2  4  1  0
  2  1  1  6
  3  2  1  0
  4  5  1  1
  6  4  1  0
  7  6  2  0
  8  6  1  0
  9  8  1  0
  9 10  1  1
 10 11  1  0
 11 12  1  0
 13 14  1  0
 13 12  1  0
 15 17  1  0
 15  9  1  0
 16 15  2  0
 18 19  1  0
 18 17  1  0
 19 21  1  0
 20 19  2  0
M  END
$$$$
