VKG.pdb
     RDKit          3D

 21 20  0  0  1  0  0  0  0  0999 V2000
   15.0892  -14.5120  -15.4511 C   0  0  0  0  0  0  0  0  0  0  0  0
   16.4342  -13.7658  -15.4561 C   0  0  2  0  0  0  0  0  0  0  0  0
   17.0805  -14.0822  -14.1439 C   0  0  0  0  0  0  0  0  0  0  0  0
   16.0834  -12.3004  -15.6328 C   0  0  2  0  0  0  0  0  0  0  0  0
   15.4398  -12.2247  -16.9552 N   0  0  0  0  0  0  0  0  0  0  0  0
   17.2778  -11.4175  -15.6478 C   0  0  0  0  0  0  0  0  0  0  0  0
   17.9212  -11.2868  -14.5854 O   0  0  0  0  0  0  0  0  0  0  0  0
   17.6963  -10.7351  -16.8165 N   0  0  0  0  0  0  0  0  0  0  0  0
   18.8169   -9.8151  -16.8843 C   0  0  1  0  0  0  0  0  0  0  0  0
   19.5341   -9.9935  -18.1869 C   0  0  0  0  0  0  0  0  0  0  0  0
   20.5841  -11.0580  -18.1857 C   0  0  0  0  0  0  0  0  0  0  0  0
   20.0779  -12.4218  -18.5752 C   0  0  0  0  0  0  0  0  0  0  0  0
   21.1365  -13.4743  -18.5282 C   0  0  0  0  0  0  0  0  0  0  0  0
   20.6933  -14.7636  -18.9795 N   0  0  0  0  0  0  0  0  0  0  0  0
   18.3982   -8.4255  -16.6268 C   0  0  0  0  0  0  0  0  0  0  0  0
   17.2602   -8.0517  -16.9680 O   0  0  0  0  0  0  0  0  0  0  0  0
   19.2621   -7.5031  -16.0002 N   0  0  0  0  0  0  0  0  0  0  0  0
   18.7616   -6.1680  -15.7370 C   0  0  0  0  0  0  0  0  0  0  0  0
   19.7609   -5.3085  -15.0891 C   0  0  0  0  0  0  0  0  0  0  0  0
   20.8836   -5.7693  -14.7964 O   0  0  0  0  0  0  0  0  0  0  0  0
   19.4794   -3.9917  -14.7959 O   0  0  0  0  0  0  0  0  0  0  0  0
  2  4  1  0
  2  1  1  1
  3  2  1  0
  4  5  1  6
  6  4  1  0
  7  6  2  0
  8  6  1  0
  9  8  1  0
  9 10  1  6
 10 11  1  0
 11 12  1  0
 13 14  1  0
 13 12  1  0
 15 17  1  0
 15  9  1  0
 16 15  2  0
 18 19  1  0
 18 17  1  0
 19 21  1  0
 20 19  2  0
M  END
$$$$
