VKG.pdb
     RDKit          3D

 21 20  0  0  1  0  0  0  0  0999 V2000
   19.2757  -12.6179  -17.2343 C   0  0  0  0  0  0  0  0  0  0  0  0
   20.3774  -12.5242  -18.3035 C   0  0  2  0  0  0  0  0  0  0  0  0
   20.9483  -13.9025  -18.4222 C   0  0  0  0  0  0  0  0  0  0  0  0
   21.3606  -11.4928  -17.7824 C   0  0  2  0  0  0  0  0  0  0  0  0
   21.9414  -12.1038  -16.5748 N   0  0  0  0  0  0  0  0  0  0  0  0
   20.7073  -10.2184  -17.3882 C   0  0  0  0  0  0  0  0  0  0  0  0
   20.2471   -9.4930  -18.2946 O   0  0  0  0  0  0  0  0  0  0  0  0
   20.5953   -9.8157  -16.0348 N   0  0  0  0  0  0  0  0  0  0  0  0
   19.9946   -8.5732  -15.5852 C   0  0  1  0  0  0  0  0  0  0  0  0
   18.7150   -8.8667  -14.8645 C   0  0  0  0  0  0  0  0  0  0  0  0
   17.5082   -8.9670  -15.7416 C   0  0  0  0  0  0  0  0  0  0  0  0
   16.2254   -9.2248  -14.9960 C   0  0  0  0  0  0  0  0  0  0  0  0
   15.0380   -9.3346  -15.8950 C   0  0  0  0  0  0  0  0  0  0  0  0
   13.8346   -9.7340  -15.2208 N   0  0  0  0  0  0  0  0  0  0  0  0
   20.9419   -7.7624  -14.7991 C   0  0  0  0  0  0  0  0  0  0  0  0
   21.5190   -8.2679  -13.8180 O   0  0  0  0  0  0  0  0  0  0  0  0
   21.2108   -6.4187  -15.1336 N   0  0  0  0  0  0  0  0  0  0  0  0
   22.2597   -5.7302  -14.4068 C   0  0  0  0  0  0  0  0  0  0  0  0
   21.7346   -4.8721  -13.3368 C   0  0  0  0  0  0  0  0  0  0  0  0
   20.5067   -4.8319  -13.1159 O   0  0  0  0  0  0  0  0  0  0  0  0
   22.5801   -4.1040  -12.5657 O   0  0  0  0  0  0  0  0  0  0  0  0
  2  4  1  0
  2  1  1  1
  3  2  1  0
  4  5  1  1
  6  4  1  0
  7  6  2  0
  8  6  1  0
  9  8  1  0
  9 10  1  1
 10 11  1  0
 11 12  1  0
 13 14  1  0
 13 12  1  0
 15 17  1  0
 15  9  1  0
 16 15  2  0
 18 19  1  0
 18 17  1  0
 19 21  1  0
 20 19  2  0
M  END
$$$$
