VKG.pdb
     RDKit          3D

 21 20  0  0  1  0  0  0  0  0999 V2000
   23.1847  -12.2819  -16.2526 C   0  0  0  0  0  0  0  0  0  0  0  0
   24.3383  -11.6926  -17.0817 C   0  0  2  0  0  0  0  0  0  0  0  0
   25.4367  -12.7078  -17.0309 C   0  0  0  0  0  0  0  0  0  0  0  0
   24.6854  -10.3754  -16.4136 C   0  0  2  0  0  0  0  0  0  0  0  0
   25.0301  -10.7360  -15.0280 N   0  0  0  0  0  0  0  0  0  0  0  0
   23.5423   -9.4277  -16.3748 C   0  0  0  0  0  0  0  0  0  0  0  0
   23.1725   -8.9139  -17.4513 O   0  0  0  0  0  0  0  0  0  0  0  0
   22.8744   -9.1010  -15.1691 N   0  0  0  0  0  0  0  0  0  0  0  0
   21.7440   -8.1965  -15.0648 C   0  0  1  0  0  0  0  0  0  0  0  0
   20.5240   -8.9632  -14.6569 C   0  0  0  0  0  0  0  0  0  0  0  0
   19.6618   -9.4215  -15.7894 C   0  0  0  0  0  0  0  0  0  0  0  0
   18.3738  -10.0719  -15.3578 C   0  0  0  0  0  0  0  0  0  0  0  0
   17.5084  -10.4750  -16.5063 C   0  0  0  0  0  0  0  0  0  0  0  0
   16.2625  -11.0710  -16.1128 N   0  0  0  0  0  0  0  0  0  0  0  0
   22.0416   -7.0505  -14.1868 C   0  0  0  0  0  0  0  0  0  0  0  0
   22.4286   -7.2523  -13.0204 O   0  0  0  0  0  0  0  0  0  0  0  0
   21.8962   -5.7224  -14.6394 N   0  0  0  0  0  0  0  0  0  0  0  0
   22.2788   -4.6491  -13.7427 C   0  0  0  0  0  0  0  0  0  0  0  0
   21.9223   -3.3235  -14.2651 C   0  0  0  0  0  0  0  0  0  0  0  0
   22.1400   -2.3038  -13.5789 O   0  0  0  0  0  0  0  0  0  0  0  0
   21.3470   -3.1840  -15.5097 O   0  0  0  0  0  0  0  0  0  0  0  0
  2  4  1  0
  2  1  1  1
  3  2  1  0
  4  5  1  1
  6  4  1  0
  7  6  2  0
  8  6  1  0
  9  8  1  0
  9 10  1  1
 10 11  1  0
 11 12  1  0
 13 14  1  0
 13 12  1  0
 15 17  1  0
 15  9  1  0
 16 15  2  0
 18 19  1  0
 18 17  1  0
 19 21  1  0
 20 19  2  0
M  END
$$$$
