VKG.pdb
     RDKit          3D

 21 20  0  0  1  0  0  0  0  0999 V2000
   23.4153  -21.5819  -13.2169 C   0  0  0  0  0  0  0  0  0  0  0  0
   22.9389  -21.1562  -14.6160 C   0  0  2  0  0  0  0  0  0  0  0  0
   23.8628  -20.0598  -15.0449 C   0  0  0  0  0  0  0  0  0  0  0  0
   21.4990  -20.7133  -14.4359 C   0  0  2  0  0  0  0  0  0  0  0  0
   21.5711  -19.5648  -13.5168 N   0  0  0  0  0  0  0  0  0  0  0  0
   20.6474  -21.7560  -13.8084 C   0  0  0  0  0  0  0  0  0  0  0  0
   20.4339  -22.8030  -14.4547 O   0  0  0  0  0  0  0  0  0  0  0  0
   20.0842  -21.5938  -12.5187 N   0  0  0  0  0  0  0  0  0  0  0  0
   19.1278  -22.5005  -11.9104 C   0  0  1  0  0  0  0  0  0  0  0  0
   19.4427  -22.6591  -10.4549 C   0  0  0  0  0  0  0  0  0  0  0  0
   18.5736  -23.6336   -9.7263 C   0  0  0  0  0  0  0  0  0  0  0  0
   19.0495  -23.9621   -8.3357 C   0  0  0  0  0  0  0  0  0  0  0  0
   18.2015  -24.9847   -7.6534 C   0  0  0  0  0  0  0  0  0  0  0  0
   18.6035  -25.2649   -6.3036 N   0  0  0  0  0  0  0  0  0  0  0  0
   17.7384  -22.0833  -12.1714 C   0  0  0  0  0  0  0  0  0  0  0  0
   17.3280  -20.9948  -11.7263 O   0  0  0  0  0  0  0  0  0  0  0  0
   16.8569  -22.8936  -12.9172 N   0  0  0  0  0  0  0  0  0  0  0  0
   15.4730  -22.4752  -13.0287 C   0  0  0  0  0  0  0  0  0  0  0  0
   15.2075  -21.7279  -14.2648 C   0  0  0  0  0  0  0  0  0  0  0  0
   16.1489  -21.4348  -15.0305 O   0  0  0  0  0  0  0  0  0  0  0  0
   13.9273  -21.3410  -14.5976 O   0  0  0  0  0  0  0  0  0  0  0  0
  2  4  1  0
  2  1  1  1
  3  2  1  0
  4  5  1  1
  6  4  1  0
  7  6  2  0
  8  6  1  0
  9  8  1  0
  9 10  1  1
 10 11  1  0
 11 12  1  0
 13 14  1  0
 13 12  1  0
 15 17  1  0
 15  9  1  0
 16 15  2  0
 18 19  1  0
 18 17  1  0
 19 21  1  0
 20 19  2  0
M  END
$$$$
