VKG.pdb
     RDKit          3D

 21 20  0  0  1  0  0  0  0  0999 V2000
   28.4449  -20.2708   -7.4729 C   0  0  0  0  0  0  0  0  0  0  0  0
   27.5258  -19.2102   -6.8435 C   0  0  2  0  0  0  0  0  0  0  0  0
   27.8284  -19.2268   -5.3780 C   0  0  0  0  0  0  0  0  0  0  0  0
   26.1130  -19.6444   -7.1859 C   0  0  2  0  0  0  0  0  0  0  0  0
   26.0570  -21.0685   -6.8146 N   0  0  0  0  0  0  0  0  0  0  0  0
   25.8084  -19.5313   -8.6353 C   0  0  0  0  0  0  0  0  0  0  0  0
   25.8192  -18.3925   -9.1475 O   0  0  0  0  0  0  0  0  0  0  0  0
   25.5132  -20.6632   -9.4342 N   0  0  0  0  0  0  0  0  0  0  0  0
   25.1730  -20.6182  -10.8445 C   0  0  1  0  0  0  0  0  0  0  0  0
   25.9421  -21.6719  -11.5799 C   0  0  0  0  0  0  0  0  0  0  0  0
   25.8021  -21.6290  -13.0680 C   0  0  0  0  0  0  0  0  0  0  0  0
   27.1122  -21.5593  -13.8074 C   0  0  0  0  0  0  0  0  0  0  0  0
   26.9441  -21.4743  -15.2889 C   0  0  0  0  0  0  0  0  0  0  0  0
   28.1839  -21.4170  -16.0112 N   0  0  0  0  0  0  0  0  0  0  0  0
   23.7163  -20.6946  -11.0569 C   0  0  0  0  0  0  0  0  0  0  0  0
   23.0147  -21.3676  -10.2784 O   0  0  0  0  0  0  0  0  0  0  0  0
   23.0949  -20.0201  -12.1286 N   0  0  0  0  0  0  0  0  0  0  0  0
   21.6459  -20.0094  -12.1812 C   0  0  0  0  0  0  0  0  0  0  0  0
   21.1007  -21.1411  -12.9421 C   0  0  0  0  0  0  0  0  0  0  0  0
   21.8342  -22.1087  -13.2317 O   0  0  0  0  0  0  0  0  0  0  0  0
   19.7830  -21.1542  -13.3456 O   0  0  0  0  0  0  0  0  0  0  0  0
  2  4  1  0
  2  1  1  6
  3  2  1  0
  4  5  1  6
  6  4  1  0
  7  6  2  0
  8  6  1  0
  9  8  1  0
  9 10  1  6
 10 11  1  0
 11 12  1  0
 13 14  1  0
 13 12  1  0
 15 17  1  0
 15  9  1  0
 16 15  2  0
 18 19  1  0
 18 17  1  0
 19 21  1  0
 20 19  2  0
M  END
$$$$
