VKG.pdb
     RDKit          3D

 21 20  0  0  1  0  0  0  0  0999 V2000
   26.5410  -20.3481  -12.1193 C   0  0  0  0  0  0  0  0  0  0  0  0
   25.3716  -20.4462  -11.1250 C   0  0  2  0  0  0  0  0  0  0  0  0
   25.8749  -21.2743   -9.9846 C   0  0  0  0  0  0  0  0  0  0  0  0
   24.2354  -21.0886  -11.8986 C   0  0  2  0  0  0  0  0  0  0  0  0
   24.7321  -22.4292  -12.2521 N   0  0  0  0  0  0  0  0  0  0  0  0
   23.9120  -20.3679  -13.1563 C   0  0  0  0  0  0  0  0  0  0  0  0
   23.5386  -19.1794  -13.0693 O   0  0  0  0  0  0  0  0  0  0  0  0
   24.0165  -20.9850  -14.4271 N   0  0  0  0  0  0  0  0  0  0  0  0
   23.6730  -20.3530  -15.6878 C   0  0  1  0  0  0  0  0  0  0  0  0
   24.5542  -20.8885  -16.7739 C   0  0  0  0  0  0  0  0  0  0  0  0
   25.9950  -20.5048  -16.6609 C   0  0  0  0  0  0  0  0  0  0  0  0
   26.9132  -21.6523  -16.3320 C   0  0  0  0  0  0  0  0  0  0  0  0
   28.3514  -21.2535  -16.2764 C   0  0  0  0  0  0  0  0  0  0  0  0
   29.2458  -22.3437  -16.0051 N   0  0  0  0  0  0  0  0  0  0  0  0
   22.2338  -20.4719  -15.9834 C   0  0  0  0  0  0  0  0  0  0  0  0
   21.7379  -21.5957  -16.1887 O   0  0  0  0  0  0  0  0  0  0  0  0
   21.4003  -19.3353  -16.0405 N   0  0  0  0  0  0  0  0  0  0  0  0
   20.0039  -19.5283  -16.3800 C   0  0  0  0  0  0  0  0  0  0  0  0
   19.1315  -19.5320  -15.1985 C   0  0  0  0  0  0  0  0  0  0  0  0
   19.6307  -19.4988  -14.0549 O   0  0  0  0  0  0  0  0  0  0  0  0
   17.7602  -19.5717  -15.3307 O   0  0  0  0  0  0  0  0  0  0  0  0
  2  4  1  0
  2  1  1  6
  3  2  1  0
  4  5  1  6
  6  4  1  0
  7  6  2  0
  8  6  1  0
  9  8  1  0
  9 10  1  6
 10 11  1  0
 11 12  1  0
 13 14  1  0
 13 12  1  0
 15 17  1  0
 15  9  1  0
 16 15  2  0
 18 19  1  0
 18 17  1  0
 19 21  1  0
 20 19  2  0
M  END
$$$$
