VKG.pdb
     RDKit          3D

 21 20  0  0  1  0  0  0  0  0999 V2000
   28.0296  -19.8017  -12.6643 C   0  0  0  0  0  0  0  0  0  0  0  0
   27.9914  -20.1134  -11.1586 C   0  0  2  0  0  0  0  0  0  0  0  0
   29.2748  -20.8214  -10.8565 C   0  0  0  0  0  0  0  0  0  0  0  0
   26.7539  -20.9667  -10.9531 C   0  0  2  0  0  0  0  0  0  0  0  0
   26.9998  -22.1829  -11.7464 N   0  0  0  0  0  0  0  0  0  0  0  0
   25.5164  -20.3231  -11.4636 C   0  0  0  0  0  0  0  0  0  0  0  0
   25.1409  -19.2642  -10.9184 O   0  0  0  0  0  0  0  0  0  0  0  0
   24.7680  -20.8712  -12.5342 N   0  0  0  0  0  0  0  0  0  0  0  0
   23.5057  -20.3446  -13.0201 C   0  0  1  0  0  0  0  0  0  0  0  0
   23.5056  -20.3442  -14.5177 C   0  0  0  0  0  0  0  0  0  0  0  0
   23.2987  -19.0032  -15.1459 C   0  0  0  0  0  0  0  0  0  0  0  0
   23.2389  -19.0314  -16.6505 C   0  0  0  0  0  0  0  0  0  0  0  0
   22.9676  -17.6910  -17.2505 C   0  0  0  0  0  0  0  0  0  0  0  0
   22.9763  -17.6855  -18.6865 N   0  0  0  0  0  0  0  0  0  0  0  0
   22.3557  -21.0533  -12.4302 C   0  0  0  0  0  0  0  0  0  0  0  0
   22.4892  -22.2298  -12.0439 O   0  0  0  0  0  0  0  0  0  0  0  0
   21.0995  -20.4265  -12.2931 N   0  0  0  0  0  0  0  0  0  0  0  0
   20.0137  -21.1917  -11.7117 C   0  0  0  0  0  0  0  0  0  0  0  0
   19.4393  -22.1612  -12.6537 C   0  0  0  0  0  0  0  0  0  0  0  0
   19.9071  -22.2625  -13.8066 O   0  0  0  0  0  0  0  0  0  0  0  0
   18.3845  -22.9678  -12.2848 O   0  0  0  0  0  0  0  0  0  0  0  0
  2  4  1  0
  2  1  1  6
  3  2  1  0
  4  5  1  6
  6  4  1  0
  7  6  2  0
  8  6  1  0
  9  8  1  0
  9 10  1  6
 10 11  1  0
 11 12  1  0
 13 14  1  0
 13 12  1  0
 15 17  1  0
 15  9  1  0
 16 15  2  0
 18 19  1  0
 18 17  1  0
 19 21  1  0
 20 19  2  0
M  END
$$$$
