VKG.pdb
     RDKit          3D

 21 20  0  0  1  0  0  0  0  0999 V2000
   26.0995   -9.4558  -16.0830 C   0  0  0  0  0  0  0  0  0  0  0  0
   25.4790  -10.6133  -15.2825 C   0  0  2  0  0  0  0  0  0  0  0  0
   26.4883  -11.7179  -15.3147 C   0  0  0  0  0  0  0  0  0  0  0  0
   24.1796  -10.9452  -15.9918 C   0  0  2  0  0  0  0  0  0  0  0  0
   24.5873  -11.3855  -17.3367 N   0  0  0  0  0  0  0  0  0  0  0  0
   23.2852   -9.7687  -16.1409 C   0  0  0  0  0  0  0  0  0  0  0  0
   23.3861   -9.0862  -17.1818 O   0  0  0  0  0  0  0  0  0  0  0  0
   22.3384   -9.4111  -15.1498 N   0  0  0  0  0  0  0  0  0  0  0  0
   21.4032   -8.3060  -15.2553 C   0  0  1  0  0  0  0  0  0  0  0  0
   20.0034   -8.8178  -15.1089 C   0  0  0  0  0  0  0  0  0  0  0  0
   19.5340   -9.6930  -16.2267 C   0  0  0  0  0  0  0  0  0  0  0  0
   18.1251  -10.1989  -16.0618 C   0  0  0  0  0  0  0  0  0  0  0  0
   17.6639  -11.0314  -17.2127 C   0  0  0  0  0  0  0  0  0  0  0  0
   16.3561  -11.5966  -17.0327 N   0  0  0  0  0  0  0  0  0  0  0  0
   21.7352   -7.2190  -14.3168 C   0  0  0  0  0  0  0  0  0  0  0  0
   22.1487   -7.4957  -13.1750 O   0  0  0  0  0  0  0  0  0  0  0  0
   21.5934   -5.8643  -14.6835 N   0  0  0  0  0  0  0  0  0  0  0  0
   22.0026   -4.8517  -13.7297 C   0  0  0  0  0  0  0  0  0  0  0  0
   21.6843   -3.4906  -14.1807 C   0  0  0  0  0  0  0  0  0  0  0  0
   21.1508   -3.3120  -15.2950 O   0  0  0  0  0  0  0  0  0  0  0  0
   21.9662   -2.3981  -13.3894 O   0  0  0  0  0  0  0  0  0  0  0  0
  2  4  1  0
  2  1  1  6
  3  2  1  0
  4  5  1  6
  6  4  1  0
  7  6  2  0
  8  6  1  0
  9  8  1  0
  9 10  1  1
 10 11  1  0
 11 12  1  0
 13 14  1  0
 13 12  1  0
 15 17  1  0
 15  9  1  0
 16 15  2  0
 18 19  1  0
 18 17  1  0
 19 21  1  0
 20 19  2  0
M  END
$$$$
