VKG.pdb
     RDKit          3D

 21 20  0  0  1  0  0  0  0  0999 V2000
   22.7965  -21.7070  -20.7985 C   0  0  0  0  0  0  0  0  0  0  0  0
   23.9590  -21.4923  -19.8146 C   0  0  2  0  0  0  0  0  0  0  0  0
   25.0092  -22.4857  -20.2018 C   0  0  0  0  0  0  0  0  0  0  0  0
   23.3702  -21.7239  -18.4357 C   0  0  2  0  0  0  0  0  0  0  0  0
   22.9853  -23.1454  -18.4252 N   0  0  0  0  0  0  0  0  0  0  0  0
   22.1521  -20.9124  -18.1831 C   0  0  0  0  0  0  0  0  0  0  0  0
   21.3576  -20.7404  -19.1311 O   0  0  0  0  0  0  0  0  0  0  0  0
   21.8757  -20.3417  -16.9164 N   0  0  0  0  0  0  0  0  0  0  0  0
   20.7221  -19.5149  -16.6122 C   0  0  1  0  0  0  0  0  0  0  0  0
   19.7148  -20.3200  -15.8506 C   0  0  0  0  0  0  0  0  0  0  0  0
   18.9387  -21.2973  -16.6742 C   0  0  0  0  0  0  0  0  0  0  0  0
   17.4499  -21.2418  -16.4539 C   0  0  0  0  0  0  0  0  0  0  0  0
   16.7010  -22.2508  -17.2610 C   0  0  0  0  0  0  0  0  0  0  0  0
   15.2827  -22.2364  -17.0366 N   0  0  0  0  0  0  0  0  0  0  0  0
   21.1106  -18.2640  -15.9362 C   0  0  0  0  0  0  0  0  0  0  0  0
   21.5175  -18.3003  -14.7596 O   0  0  0  0  0  0  0  0  0  0  0  0
   21.0307  -17.0190  -16.5944 N   0  0  0  0  0  0  0  0  0  0  0  0
   21.5530  -15.8507  -15.9127 C   0  0  0  0  0  0  0  0  0  0  0  0
   20.4913  -14.9623  -15.4220 C   0  0  0  0  0  0  0  0  0  0  0  0
   19.3053  -15.3517  -15.4176 O   0  0  0  0  0  0  0  0  0  0  0  0
   20.7831  -13.6962  -14.9627 O   0  0  0  0  0  0  0  0  0  0  0  0
  2  4  1  0
  2  1  1  6
  3  2  1  0
  4  5  1  6
  6  4  1  0
  7  6  2  0
  8  6  1  0
  9  8  1  0
  9 10  1  1
 10 11  1  0
 11 12  1  0
 13 14  1  0
 13 12  1  0
 15 17  1  0
 15  9  1  0
 16 15  2  0
 18 19  1  0
 18 17  1  0
 19 21  1  0
 20 19  2  0
M  END
$$$$
