VKG.pdb
     RDKit          3D

 21 20  0  0  1  0  0  0  0  0999 V2000
   25.5277  -33.3458   -9.6120 C   0  0  0  0  0  0  0  0  0  0  0  0
   24.1963  -32.9916   -8.9283 C   0  0  2  0  0  0  0  0  0  0  0  0
   23.4927  -32.0600   -9.8645 C   0  0  0  0  0  0  0  0  0  0  0  0
   24.5775  -32.3608   -7.6021 C   0  0  2  0  0  0  0  0  0  0  0  0
   25.3781  -31.1790   -7.9643 N   0  0  0  0  0  0  0  0  0  0  0  0
   25.4182  -33.2493   -6.7595 C   0  0  0  0  0  0  0  0  0  0  0  0
   24.9395  -34.3489   -6.4114 O   0  0  0  0  0  0  0  0  0  0  0  0
   26.7249  -32.8858   -6.3511 N   0  0  0  0  0  0  0  0  0  0  0  0
   27.5480  -33.6459   -5.4283 C   0  0  1  0  0  0  0  0  0  0  0  0
   28.9551  -33.6993   -5.9383 C   0  0  0  0  0  0  0  0  0  0  0  0
   29.1943  -34.7046   -7.0190 C   0  0  0  0  0  0  0  0  0  0  0  0
   29.5448  -36.0793   -6.5137 C   0  0  0  0  0  0  0  0  0  0  0  0
   29.8282  -37.0516   -7.6113 C   0  0  0  0  0  0  0  0  0  0  0  0
   30.0342  -38.3976   -7.1554 N   0  0  0  0  0  0  0  0  0  0  0  0
   27.4389  -33.1332   -4.0506 C   0  0  0  0  0  0  0  0  0  0  0  0
   27.3919  -31.9045   -3.8525 O   0  0  0  0  0  0  0  0  0  0  0  0
   27.3872  -34.0071   -2.9445 N   0  0  0  0  0  0  0  0  0  0  0  0
   27.3346  -33.4267   -1.6168 C   0  0  0  0  0  0  0  0  0  0  0  0
   27.3691  -34.4416   -0.5558 C   0  0  0  0  0  0  0  0  0  0  0  0
   27.0876  -35.6288   -0.8194 O   0  0  0  0  0  0  0  0  0  0  0  0
   27.7096  -34.1042    0.7363 O   0  0  0  0  0  0  0  0  0  0  0  0
  2  4  1  0
  2  1  1  6
  3  2  1  0
  4  5  1  6
  6  4  1  0
  7  6  2  0
  8  6  1  0
  9  8  1  0
  9 10  1  6
 10 11  1  0
 11 12  1  0
 13 14  1  0
 13 12  1  0
 15 17  1  0
 15  9  1  0
 16 15  2  0
 18 19  1  0
 18 17  1  0
 19 21  1  0
 20 19  2  0
M  END
$$$$
