EQT.pdb
     RDKit          3D

 26 25  0  0  1  0  0  0  0  0999 V2000
   11.4955  -17.1236   14.9317 N   0  0  0  0  0  0  0  0  0  0  0  0
   10.4067  -17.2978   15.9199 C   0  0  1  0  0  0  0  0  0  0  0  0
   10.3095  -18.7692   16.1362 C   0  0  0  0  0  0  0  0  0  0  0  0
   11.5321  -19.4487   16.6500 C   0  0  0  0  0  0  0  0  0  0  0  0
   11.1251  -20.8673   16.9743 C   0  0  0  0  0  0  0  0  0  0  0  0
    9.9482  -21.2825   16.8247 O   0  0  0  0  0  0  0  0  0  0  0  0
   10.7414  -16.4920   17.0871 C   0  0  0  0  0  0  0  0  0  0  0  0
   11.9545  -16.1460   17.3030 O   0  0  0  0  0  0  0  0  0  0  0  0
   12.0530  -21.7829   17.4590 O   0  0  0  0  0  0  0  0  0  0  0  0
    6.6190  -13.3768   20.2645 N   0  0  0  0  0  0  0  0  0  0  0  0
    7.2543  -12.8641   19.1026 C   0  0  0  0  0  0  0  0  0  0  0  0
    6.6818  -11.9489   18.4632 O   0  0  0  0  0  0  0  0  0  0  0  0
    8.5611  -13.4156   18.6794 C   0  0  0  0  0  0  0  0  0  0  0  0
    8.9614  -14.4877   19.6731 C   0  0  0  0  0  0  0  0  0  0  0  0
   10.2243  -15.2121   19.1928 C   0  0  2  0  0  0  0  0  0  0  0  0
    9.8219  -16.0185   18.0669 N   0  0  0  0  0  0  0  0  0  0  0  0
   10.6393  -16.0981   20.3016 C   0  0  0  0  0  0  0  0  0  0  0  0
   10.0663  -17.2052   20.4339 O   0  0  0  0  0  0  0  0  0  0  0  0
   13.8825  -17.3035   23.7076 C   0  0  0  0  0  0  0  0  0  0  0  0
   13.4697  -16.3466   22.6376 C   0  0  1  0  0  0  0  0  0  0  0  0
   14.3174  -16.3392   21.5461 O   0  0  0  0  0  0  0  0  0  0  0  0
   12.0301  -16.6578   22.2518 C   0  0  2  0  0  0  0  0  0  0  0  0
   11.6608  -15.7415   21.2198 N   0  0  0  0  0  0  0  0  0  0  0  0
   11.1392  -16.5913   23.4277 C   0  0  0  0  0  0  0  0  0  0  0  0
   10.3735  -15.6113   23.6053 O   0  0  0  0  0  0  0  0  0  0  0  0
   11.1146  -17.6025   24.3748 O   0  0  0  0  0  0  0  0  0  0  0  0
  2  1  1  6
  2  7  1  0
  3  2  1  0
  4  3  1  0
  5  6  2  0
  5  4  1  0
  7 16  1  0
  8  7  2  0
  9  5  1  0
 10 11  1  0
 11 12  2  0
 11 13  1  0
 13 14  1  0
 15 14  1  1
 16 15  1  0
 17 18  2  0
 17 15  1  0
 20 19  1  1
 20 22  1  0
 21 20  1  0
 22 24  1  0
 22 23  1  6
 23 17  1  0
 24 26  1  0
 25 24  2  0
M  END
$$$$
