EQT.pdb
     RDKit          3D

 26 25  0  0  1  0  0  0  0  0999 V2000
   12.0953  -16.8915   18.0124 N   0  0  0  0  0  0  0  0  0  0  0  0
   13.0241  -16.6820   19.1463 C   0  0  1  0  0  0  0  0  0  0  0  0
   14.2041  -15.9863   18.5591 C   0  0  0  0  0  0  0  0  0  0  0  0
   13.9388  -14.6921   17.8697 C   0  0  0  0  0  0  0  0  0  0  0  0
   15.2876  -14.1364   17.4757 C   0  0  0  0  0  0  0  0  0  0  0  0
   16.1413  -14.8161   16.8519 O   0  0  0  0  0  0  0  0  0  0  0  0
   12.2956  -15.9604   20.1818 C   0  0  0  0  0  0  0  0  0  0  0  0
   12.8976  -15.5803   21.2453 O   0  0  0  0  0  0  0  0  0  0  0  0
   15.6417  -12.8296   17.7938 O   0  0  0  0  0  0  0  0  0  0  0  0
    6.7662  -13.3918   19.3887 N   0  0  0  0  0  0  0  0  0  0  0  0
    7.9803  -13.0481   18.7374 C   0  0  0  0  0  0  0  0  0  0  0  0
    7.9219  -12.3677   17.6849 O   0  0  0  0  0  0  0  0  0  0  0  0
    9.2699  -13.4957   19.3097 C   0  0  0  0  0  0  0  0  0  0  0  0
    8.9741  -14.2982   20.5609 C   0  0  0  0  0  0  0  0  0  0  0  0
   10.2763  -14.8284   21.1720 C   0  0  2  0  0  0  0  0  0  0  0  0
   10.9154  -15.6095   20.1418 N   0  0  0  0  0  0  0  0  0  0  0  0
    9.8785  -15.7207   22.2821 C   0  0  0  0  0  0  0  0  0  0  0  0
    8.6796  -16.0769   22.3677 O   0  0  0  0  0  0  0  0  0  0  0  0
   10.2467  -18.9834   22.7110 C   0  0  0  0  0  0  0  0  0  0  0  0
   10.9483  -18.4633   23.9226 C   0  0  1  0  0  0  0  0  0  0  0  0
   12.3237  -18.4286   23.7923 O   0  0  0  0  0  0  0  0  0  0  0  0
   10.3632  -17.0991   24.2611 C   0  0  2  0  0  0  0  0  0  0  0  0
   10.8027  -16.1878   23.2524 N   0  0  0  0  0  0  0  0  0  0  0  0
   10.7478  -16.6799   25.6239 C   0  0  0  0  0  0  0  0  0  0  0  0
   11.5169  -15.7038   25.8082 O   0  0  0  0  0  0  0  0  0  0  0  0
   10.2771  -17.3442   26.7450 O   0  0  0  0  0  0  0  0  0  0  0  0
  2  1  1  6
  2  7  1  0
  3  2  1  0
  4  3  1  0
  5  6  2  0
  5  4  1  0
  7 16  1  0
  8  7  2  0
  9  5  1  0
 10 11  1  0
 11 12  2  0
 11 13  1  0
 13 14  1  0
 15 14  1  6
 16 15  1  0
 17 18  2  0
 17 15  1  0
 20 19  1  6
 20 22  1  0
 21 20  1  0
 22 24  1  0
 22 23  1  6
 23 17  1  0
 24 26  1  0
 25 24  2  0
M  END
$$$$
