EQT.pdb
     RDKit          3D

 26 25  0  0  1  0  0  0  0  0999 V2000
    5.7217  -18.5254   20.9557 N   0  0  0  0  0  0  0  0  0  0  0  0
    6.8426  -17.6370   21.3385 C   0  0  1  0  0  0  0  0  0  0  0  0
    6.8496  -16.5556   20.3129 C   0  0  0  0  0  0  0  0  0  0  0  0
    8.0186  -15.6316   20.3278 C   0  0  0  0  0  0  0  0  0  0  0  0
    9.1655  -16.3874   19.6980 C   0  0  0  0  0  0  0  0  0  0  0  0
    8.9896  -17.2836   18.8344 O   0  0  0  0  0  0  0  0  0  0  0  0
    6.6207  -17.2209   22.7174 C   0  0  0  0  0  0  0  0  0  0  0  0
    5.4997  -16.7081   23.0616 O   0  0  0  0  0  0  0  0  0  0  0  0
   10.4816  -16.1154   20.0560 O   0  0  0  0  0  0  0  0  0  0  0  0
    8.5388  -19.5529   28.3727 N   0  0  0  0  0  0  0  0  0  0  0  0
    8.0586  -20.0715   27.1412 C   0  0  0  0  0  0  0  0  0  0  0  0
    8.3208  -21.2639   26.8521 O   0  0  0  0  0  0  0  0  0  0  0  0
    7.2697  -19.2026   26.2392 C   0  0  0  0  0  0  0  0  0  0  0  0
    8.0391  -17.9120   26.0402 C   0  0  0  0  0  0  0  0  0  0  0  0
    7.2475  -16.9550   25.1413 C   0  0  2  0  0  0  0  0  0  0  0  0
    7.5595  -17.3277   23.7836 N   0  0  0  0  0  0  0  0  0  0  0  0
    7.7802  -15.6017   25.4085 C   0  0  0  0  0  0  0  0  0  0  0  0
    8.8545  -15.2589   24.8611 O   0  0  0  0  0  0  0  0  0  0  0  0
    6.3625  -12.0529   25.0588 C   0  0  0  0  0  0  0  0  0  0  0  0
    6.6433  -12.3616   26.4929 C   0  0  1  0  0  0  0  0  0  0  0  0
    5.5198  -12.7282   27.2094 O   0  0  0  0  0  0  0  0  0  0  0  0
    7.7359  -13.4207   26.5455 C   0  0  2  0  0  0  0  0  0  0  0  0
    7.1206  -14.6782   26.2607 N   0  0  0  0  0  0  0  0  0  0  0  0
    8.4319  -13.4011   27.8478 C   0  0  0  0  0  0  0  0  0  0  0  0
    8.4327  -14.4098   28.5967 O   0  0  0  0  0  0  0  0  0  0  0  0
    9.1069  -12.2750   28.2905 O   0  0  0  0  0  0  0  0  0  0  0  0
  2  1  1  6
  2  7  1  0
  3  2  1  0
  4  3  1  0
  5  6  2  0
  5  4  1  0
  7 16  1  0
  8  7  2  0
  9  5  1  0
 10 11  1  0
 11 12  2  0
 11 13  1  0
 13 14  1  0
 15 14  1  1
 16 15  1  0
 17 18  2  0
 17 15  1  0
 20 19  1  6
 20 22  1  0
 21 20  1  0
 22 24  1  0
 22 23  1  1
 23 17  1  0
 24 26  1  0
 25 24  2  0
M  END
$$$$
