EQT.pdb
     RDKit          3D

 26 25  0  0  1  0  0  0  0  0999 V2000
    8.7365  -21.3109   18.0921 N   0  0  0  0  0  0  0  0  0  0  0  0
   10.1352  -20.9564   17.7602 C   0  0  1  0  0  0  0  0  0  0  0  0
   10.0309  -19.8911   16.7232 C   0  0  0  0  0  0  0  0  0  0  0  0
    9.3825  -18.6162   17.1414 C   0  0  0  0  0  0  0  0  0  0  0  0
    9.4799  -17.6819   15.9579 C   0  0  0  0  0  0  0  0  0  0  0  0
    9.9537  -16.5214   16.0516 O   0  0  0  0  0  0  0  0  0  0  0  0
   10.8004  -20.5877   19.0033 C   0  0  0  0  0  0  0  0  0  0  0  0
   10.4700  -21.1549   20.1020 O   0  0  0  0  0  0  0  0  0  0  0  0
    9.0416  -18.0772   14.6985 O   0  0  0  0  0  0  0  0  0  0  0  0
   15.5514  -20.9649   20.5929 N   0  0  0  0  0  0  0  0  0  0  0  0
   15.5985  -19.8886   21.5180 C   0  0  0  0  0  0  0  0  0  0  0  0
   16.3836  -19.9727   22.4930 O   0  0  0  0  0  0  0  0  0  0  0  0
   14.7302  -18.7077   21.3117 C   0  0  0  0  0  0  0  0  0  0  0  0
   13.9257  -18.9327   20.0470 C   0  0  0  0  0  0  0  0  0  0  0  0
   12.4918  -19.3476   20.3964 C   0  0  2  0  0  0  0  0  0  0  0  0
   11.8338  -19.6168   19.1417 N   0  0  0  0  0  0  0  0  0  0  0  0
   11.8639  -18.1691   21.0315 C   0  0  0  0  0  0  0  0  0  0  0  0
   11.9444  -17.0596   20.4535 O   0  0  0  0  0  0  0  0  0  0  0  0
    8.3356  -17.5953   22.0453 C   0  0  0  0  0  0  0  0  0  0  0  0
    9.1785  -17.4303   23.2673 C   0  0  1  0  0  0  0  0  0  0  0  0
    9.1545  -18.5275   24.1073 O   0  0  0  0  0  0  0  0  0  0  0  0
   10.5899  -17.0689   22.8254 C   0  0  2  0  0  0  0  0  0  0  0  0
   11.1745  -18.2480   22.2695 N   0  0  0  0  0  0  0  0  0  0  0  0
   11.3714  -16.5122   23.9479 C   0  0  0  0  0  0  0  0  0  0  0  0
   12.3688  -17.1220   24.4078 O   0  0  0  0  0  0  0  0  0  0  0  0
   11.0355  -15.3020   24.5334 O   0  0  0  0  0  0  0  0  0  0  0  0
  2  1  1  1
  2  7  1  0
  3  2  1  0
  4  3  1  0
  5  6  2  0
  5  4  1  0
  7 16  1  0
  8  7  2  0
  9  5  1  0
 10 11  1  0
 11 12  2  0
 11 13  1  0
 13 14  1  0
 15 14  1  6
 16 15  1  0
 17 18  2  0
 17 15  1  0
 20 19  1  6
 20 22  1  0
 21 20  1  0
 22 24  1  0
 22 23  1  1
 23 17  1  0
 24 26  1  0
 25 24  2  0
M  END
$$$$
