EQT.pdb
     RDKit          3D

 26 25  0  0  1  0  0  0  0  0999 V2000
    9.9070  -14.8782   18.7835 N   0  0  0  0  0  0  0  0  0  0  0  0
   10.4267  -15.7351   19.8735 C   0  0  1  0  0  0  0  0  0  0  0  0
   11.8431  -15.3106   20.0602 C   0  0  0  0  0  0  0  0  0  0  0  0
   12.5950  -14.9405   18.8281 C   0  0  0  0  0  0  0  0  0  0  0  0
   14.0240  -14.7027   19.2579 C   0  0  0  0  0  0  0  0  0  0  0  0
   14.4196  -13.5953   19.7020 O   0  0  0  0  0  0  0  0  0  0  0  0
    9.5436  -15.5683   21.0207 C   0  0  0  0  0  0  0  0  0  0  0  0
    8.7733  -14.5491   21.0962 O   0  0  0  0  0  0  0  0  0  0  0  0
   14.9719  -15.7172   19.1770 O   0  0  0  0  0  0  0  0  0  0  0  0
    7.5061  -20.2466   24.4161 N   0  0  0  0  0  0  0  0  0  0  0  0
    6.8117  -19.1974   25.0743 C   0  0  0  0  0  0  0  0  0  0  0  0
    6.0184  -19.4942   25.9998 O   0  0  0  0  0  0  0  0  0  0  0  0
    7.0383  -17.7953   24.6570 C   0  0  0  0  0  0  0  0  0  0  0  0
    8.0728  -17.7973   23.5493 C   0  0  0  0  0  0  0  0  0  0  0  0
    8.3819  -16.3617   23.1088 C   0  0  2  0  0  0  0  0  0  0  0  0
    9.4331  -16.4599   22.1264 N   0  0  0  0  0  0  0  0  0  0  0  0
    8.8991  -15.6646   24.3060 C   0  0  0  0  0  0  0  0  0  0  0  0
   10.1083  -15.8018   24.6068 O   0  0  0  0  0  0  0  0  0  0  0  0
    7.7962  -11.9606   25.6534 C   0  0  0  0  0  0  0  0  0  0  0  0
    7.6854  -13.0672   26.6504 C   0  0  1  0  0  0  0  0  0  0  0  0
    6.3952  -13.5333   26.8174 O   0  0  0  0  0  0  0  0  0  0  0  0
    8.6528  -14.1706   26.2447 C   0  0  2  0  0  0  0  0  0  0  0  0
    8.0779  -14.8472   25.1255 N   0  0  0  0  0  0  0  0  0  0  0  0
    8.9365  -15.0717   27.3797 C   0  0  0  0  0  0  0  0  0  0  0  0
    8.6620  -16.2962   27.3185 O   0  0  0  0  0  0  0  0  0  0  0  0
    9.5132  -14.6029   28.5491 O   0  0  0  0  0  0  0  0  0  0  0  0
  2  1  1  6
  2  7  1  0
  3  2  1  0
  4  3  1  0
  5  6  2  0
  5  4  1  0
  7 16  1  0
  8  7  2  0
  9  5  1  0
 10 11  1  0
 11 12  2  0
 11 13  1  0
 13 14  1  0
 15 14  1  1
 16 15  1  0
 17 18  2  0
 17 15  1  0
 20 19  1  6
 20 22  1  0
 21 20  1  0
 22 24  1  0
 22 23  1  6
 23 17  1  0
 24 26  1  0
 25 24  2  0
M  END
$$$$
