EQT.pdb
     RDKit          3D

 26 25  0  0  1  0  0  0  0  0999 V2000
    9.2552  -15.2177   20.1175 N   0  0  0  0  0  0  0  0  0  0  0  0
    8.0520  -15.5512   20.9133 C   0  0  1  0  0  0  0  0  0  0  0  0
    7.8144  -17.0022   20.6696 C   0  0  0  0  0  0  0  0  0  0  0  0
    8.5389  -17.6113   19.5188 C   0  0  0  0  0  0  0  0  0  0  0  0
    7.4923  -17.9215   18.4740 C   0  0  0  0  0  0  0  0  0  0  0  0
    7.4028  -17.2794   17.3971 O   0  0  0  0  0  0  0  0  0  0  0  0
    8.3166  -15.1605   22.2921 C   0  0  0  0  0  0  0  0  0  0  0  0
    9.5206  -15.0876   22.7199 O   0  0  0  0  0  0  0  0  0  0  0  0
    6.5725  -18.9467   18.6675 O   0  0  0  0  0  0  0  0  0  0  0  0
    6.9167  -11.2211   26.1365 N   0  0  0  0  0  0  0  0  0  0  0  0
    7.3945  -12.3875   26.7904 C   0  0  0  0  0  0  0  0  0  0  0  0
    8.4852  -12.3226   27.4069 O   0  0  0  0  0  0  0  0  0  0  0  0
    6.6031  -13.6370   26.7291 C   0  0  0  0  0  0  0  0  0  0  0  0
    6.3703  -13.9733   25.2697 C   0  0  0  0  0  0  0  0  0  0  0  0
    7.6701  -14.4687   24.6250 C   0  0  2  0  0  0  0  0  0  0  0  0
    7.3344  -14.8309   23.2700 N   0  0  0  0  0  0  0  0  0  0  0  0
    8.0634  -15.6842   25.3698 C   0  0  0  0  0  0  0  0  0  0  0  0
    7.2766  -16.6599   25.3877 O   0  0  0  0  0  0  0  0  0  0  0  0
   10.2576  -17.9960   24.5834 C   0  0  0  0  0  0  0  0  0  0  0  0
   10.7680  -17.6491   25.9435 C   0  0  1  0  0  0  0  0  0  0  0  0
   11.9044  -16.8629   25.9232 O   0  0  0  0  0  0  0  0  0  0  0  0
    9.6320  -17.0063   26.7273 C   0  0  2  0  0  0  0  0  0  0  0  0
    9.2971  -15.7862   26.0638 N   0  0  0  0  0  0  0  0  0  0  0  0
   10.0081  -16.8090   28.1416 C   0  0  0  0  0  0  0  0  0  0  0  0
   10.0364  -15.6604   28.6499 O   0  0  0  0  0  0  0  0  0  0  0  0
   10.3422  -17.8780   28.9574 O   0  0  0  0  0  0  0  0  0  0  0  0
  2  1  1  6
  2  7  1  0
  3  2  1  0
  4  3  1  0
  5  6  2  0
  5  4  1  0
  7 16  1  0
  8  7  2  0
  9  5  1  0
 10 11  1  0
 11 12  2  0
 11 13  1  0
 13 14  1  0
 15 14  1  1
 16 15  1  0
 17 18  2  0
 17 15  1  0
 20 19  1  6
 20 22  1  0
 21 20  1  0
 22 24  1  0
 22 23  1  6
 23 17  1  0
 24 26  1  0
 25 24  2  0
M  END
$$$$
