EQT.pdb
     RDKit          3D

 26 25  0  0  1  0  0  0  0  0999 V2000
    8.6486  -12.9865   16.8452 N   0  0  0  0  0  0  0  0  0  0  0  0
    8.1543  -14.3691   17.0361 C   0  0  1  0  0  0  0  0  0  0  0  0
    7.9684  -14.9093   15.6595 C   0  0  0  0  0  0  0  0  0  0  0  0
    9.1616  -14.8829   14.7673 C   0  0  0  0  0  0  0  0  0  0  0  0
    8.7333  -15.5206   13.4662 C   0  0  0  0  0  0  0  0  0  0  0  0
    8.6534  -14.8734   12.3916 O   0  0  0  0  0  0  0  0  0  0  0  0
    9.1161  -15.0654   17.8810 C   0  0  0  0  0  0  0  0  0  0  0  0
    8.9264  -16.2914   18.1955 O   0  0  0  0  0  0  0  0  0  0  0  0
    8.4055  -16.8710   13.4071 O   0  0  0  0  0  0  0  0  0  0  0  0
   15.2765  -13.7035   19.7176 N   0  0  0  0  0  0  0  0  0  0  0  0
   14.9652  -15.0626   19.4489 C   0  0  0  0  0  0  0  0  0  0  0  0
   15.8535  -15.7904   18.9435 O   0  0  0  0  0  0  0  0  0  0  0  0
   13.6160  -15.5812   19.7678 C   0  0  0  0  0  0  0  0  0  0  0  0
   12.6016  -14.7413   19.0177 C   0  0  0  0  0  0  0  0  0  0  0  0
   11.1807  -15.2362   19.3120 C   0  0  2  0  0  0  0  0  0  0  0  0
   10.3088  -14.5069   18.4244 N   0  0  0  0  0  0  0  0  0  0  0  0
   10.8886  -14.8471   20.7084 C   0  0  0  0  0  0  0  0  0  0  0  0
   11.5948  -13.9624   21.2468 O   0  0  0  0  0  0  0  0  0  0  0  0
    7.9793  -13.2943   22.0867 C   0  0  0  0  0  0  0  0  0  0  0  0
    8.1306  -14.5627   22.8607 C   0  0  1  0  0  0  0  0  0  0  0  0
    7.2704  -15.5646   22.4530 O   0  0  0  0  0  0  0  0  0  0  0  0
    9.5907  -14.9889   22.7932 C   0  0  2  0  0  0  0  0  0  0  0  0
    9.8396  -15.4377   21.4600 N   0  0  0  0  0  0  0  0  0  0  0  0
    9.8920  -16.0142   23.8124 C   0  0  0  0  0  0  0  0  0  0  0  0
   10.2418  -17.1742   23.4801 O   0  0  0  0  0  0  0  0  0  0  0  0
    9.8006  -15.7368   25.1669 O   0  0  0  0  0  0  0  0  0  0  0  0
  2  1  1  6
  2  7  1  0
  3  2  1  0
  4  3  1  0
  5  6  2  0
  5  4  1  0
  7 16  1  0
  8  7  2  0
  9  5  1  0
 10 11  1  0
 11 12  2  0
 11 13  1  0
 13 14  1  0
 15 14  1  6
 16 15  1  0
 17 18  2  0
 17 15  1  0
 20 19  1  6
 20 22  1  0
 21 20  1  0
 22 24  1  0
 22 23  1  6
 23 17  1  0
 24 26  1  0
 25 24  2  0
M  END
$$$$
