EQT.pdb
     RDKit          3D

 26 25  0  0  1  0  0  0  0  0999 V2000
    8.6998  -12.9635   16.7626 N   0  0  0  0  0  0  0  0  0  0  0  0
    8.2344  -14.3635   16.8875 C   0  0  1  0  0  0  0  0  0  0  0  0
    8.0601  -14.8419   15.4867 C   0  0  0  0  0  0  0  0  0  0  0  0
    9.2892  -14.9031   14.6465 C   0  0  0  0  0  0  0  0  0  0  0  0
    8.8615  -15.4595   13.3083 C   0  0  0  0  0  0  0  0  0  0  0  0
    9.5650  -16.2757   12.6609 O   0  0  0  0  0  0  0  0  0  0  0  0
    9.2102  -15.0788   17.6998 C   0  0  0  0  0  0  0  0  0  0  0  0
    9.0224  -16.3100   17.9946 O   0  0  0  0  0  0  0  0  0  0  0  0
    7.6529  -15.0832   12.7322 O   0  0  0  0  0  0  0  0  0  0  0  0
   15.2129  -14.0033   18.2522 N   0  0  0  0  0  0  0  0  0  0  0  0
   15.0822  -14.9783   19.2763 C   0  0  0  0  0  0  0  0  0  0  0  0
   16.1211  -15.3847   19.8505 O   0  0  0  0  0  0  0  0  0  0  0  0
   13.7391  -15.4852   19.6370 C   0  0  0  0  0  0  0  0  0  0  0  0
   12.7191  -14.7588   18.7831 C   0  0  0  0  0  0  0  0  0  0  0  0
   11.3099  -15.2883   19.0734 C   0  0  2  0  0  0  0  0  0  0  0  0
   10.4153  -14.5345   18.2301 N   0  0  0  0  0  0  0  0  0  0  0  0
   11.0308  -14.9655   20.4892 C   0  0  0  0  0  0  0  0  0  0  0  0
   11.7915  -14.1675   21.0858 O   0  0  0  0  0  0  0  0  0  0  0  0
    8.0045  -13.5075   21.9243 C   0  0  0  0  0  0  0  0  0  0  0  0
    8.2326  -14.7775   22.6764 C   0  0  1  0  0  0  0  0  0  0  0  0
    7.3991  -15.8084   22.2858 O   0  0  0  0  0  0  0  0  0  0  0  0
    9.7052  -15.1442   22.5537 C   0  0  2  0  0  0  0  0  0  0  0  0
    9.9349  -15.5253   21.1962 N   0  0  0  0  0  0  0  0  0  0  0  0
   10.0715  -16.2002   23.5188 C   0  0  0  0  0  0  0  0  0  0  0  0
   10.5191  -17.3072   23.1284 O   0  0  0  0  0  0  0  0  0  0  0  0
    9.9361  -16.0106   24.8847 O   0  0  0  0  0  0  0  0  0  0  0  0
  2  1  1  6
  2  7  1  0
  3  2  1  0
  4  3  1  0
  5  6  2  0
  5  4  1  0
  7 16  1  0
  8  7  2  0
  9  5  1  0
 10 11  1  0
 11 12  2  0
 11 13  1  0
 13 14  1  0
 15 14  1  6
 16 15  1  0
 17 18  2  0
 17 15  1  0
 20 19  1  6
 20 22  1  0
 21 20  1  0
 22 24  1  0
 22 23  1  6
 23 17  1  0
 24 26  1  0
 25 24  2  0
M  END
$$$$
