EQT.pdb
     RDKit          3D

 26 25  0  0  1  0  0  0  0  0999 V2000
    8.6045  -17.2509   19.8298 N   0  0  0  0  0  0  0  0  0  0  0  0
    9.1354  -17.7739   21.1092 C   0  0  1  0  0  0  0  0  0  0  0  0
   10.5865  -17.4342   21.0961 C   0  0  0  0  0  0  0  0  0  0  0  0
   10.9305  -15.9847   21.0648 C   0  0  0  0  0  0  0  0  0  0  0  0
   12.4326  -15.9014   21.2075 C   0  0  0  0  0  0  0  0  0  0  0  0
   13.1911  -15.6697   20.2324 O   0  0  0  0  0  0  0  0  0  0  0  0
    8.3429  -17.1901   22.1838 C   0  0  0  0  0  0  0  0  0  0  0  0
    7.4775  -16.2835   21.9248 O   0  0  0  0  0  0  0  0  0  0  0  0
   13.0430  -16.0811   22.4441 O   0  0  0  0  0  0  0  0  0  0  0  0
    6.4309  -21.6949   25.4019 N   0  0  0  0  0  0  0  0  0  0  0  0
    6.4749  -20.3852   25.9488 C   0  0  0  0  0  0  0  0  0  0  0  0
    6.5803  -20.2602   27.1927 O   0  0  0  0  0  0  0  0  0  0  0  0
    6.3962  -19.2131   25.0482 C   0  0  0  0  0  0  0  0  0  0  0  0
    7.3285  -18.1457   25.5855 C   0  0  0  0  0  0  0  0  0  0  0  0
    7.5058  -17.0266   24.5527 C   0  0  2  0  0  0  0  0  0  0  0  0
    8.4251  -17.5337   23.5640 N   0  0  0  0  0  0  0  0  0  0  0  0
    8.1375  -15.8985   25.2704 C   0  0  0  0  0  0  0  0  0  0  0  0
    9.3822  -15.9013   25.4193 O   0  0  0  0  0  0  0  0  0  0  0  0
    7.2415  -11.9140   25.3716 C   0  0  0  0  0  0  0  0  0  0  0  0
    7.1346  -12.6236   26.6815 C   0  0  1  0  0  0  0  0  0  0  0  0
    5.8359  -12.9355   27.0365 O   0  0  0  0  0  0  0  0  0  0  0  0
    8.0329  -13.8517   26.6310 C   0  0  2  0  0  0  0  0  0  0  0  0
    7.3874  -14.8145   25.7959 N   0  0  0  0  0  0  0  0  0  0  0  0
    8.3124  -14.3613   27.9886 C   0  0  0  0  0  0  0  0  0  0  0  0
    7.9805  -15.5255   28.3242 O   0  0  0  0  0  0  0  0  0  0  0  0
    8.9482  -13.5782   28.9386 O   0  0  0  0  0  0  0  0  0  0  0  0
  2  1  1  6
  2  7  1  0
  3  2  1  0
  4  3  1  0
  5  6  2  0
  5  4  1  0
  7 16  1  0
  8  7  2  0
  9  5  1  0
 10 11  1  0
 11 12  2  0
 11 13  1  0
 13 14  1  0
 15 14  1  1
 16 15  1  0
 17 18  2  0
 17 15  1  0
 20 19  1  6
 20 22  1  0
 21 20  1  0
 22 24  1  0
 22 23  1  6
 23 17  1  0
 24 26  1  0
 25 24  2  0
M  END
$$$$
