EQT.pdb
     RDKit          3D

 26 25  0  0  1  0  0  0  0  0999 V2000
   15.8362  -13.4781   17.2763 N   0  0  0  0  0  0  0  0  0  0  0  0
   14.9940  -14.6920   17.3738 C   0  0  1  0  0  0  0  0  0  0  0  0
   15.9549  -15.8210   17.5266 C   0  0  0  0  0  0  0  0  0  0  0  0
   15.3755  -17.1425   17.8986 C   0  0  0  0  0  0  0  0  0  0  0  0
   16.5294  -18.1175   17.9334 C   0  0  0  0  0  0  0  0  0  0  0  0
   17.6976  -17.7925   17.6024 O   0  0  0  0  0  0  0  0  0  0  0  0
   14.0554  -14.4871   18.4696 C   0  0  0  0  0  0  0  0  0  0  0  0
   14.4696  -14.0442   19.5966 O   0  0  0  0  0  0  0  0  0  0  0  0
   16.3394  -19.4339   18.3400 O   0  0  0  0  0  0  0  0  0  0  0  0
    8.1656  -13.0036   17.9893 N   0  0  0  0  0  0  0  0  0  0  0  0
    8.1941  -13.2325   19.3904 C   0  0  0  0  0  0  0  0  0  0  0  0
    7.1712  -12.9558   20.0621 O   0  0  0  0  0  0  0  0  0  0  0  0
    9.4159  -13.7855   20.0169 C   0  0  0  0  0  0  0  0  0  0  0  0
   10.4567  -13.9710   18.9308 C   0  0  0  0  0  0  0  0  0  0  0  0
   11.7754  -14.4642   19.5376 C   0  0  2  0  0  0  0  0  0  0  0  0
   12.6532  -14.7354   18.4259 N   0  0  0  0  0  0  0  0  0  0  0  0
   11.4625  -15.7326   20.2304 C   0  0  0  0  0  0  0  0  0  0  0  0
   10.8647  -16.6333   19.5958 O   0  0  0  0  0  0  0  0  0  0  0  0
   13.7719  -17.8991   22.3337 C   0  0  0  0  0  0  0  0  0  0  0  0
   12.5625  -17.5884   23.1532 C   0  0  1  0  0  0  0  0  0  0  0  0
   12.7862  -16.6356   24.1290 O   0  0  0  0  0  0  0  0  0  0  0  0
   11.4358  -17.1964   22.2072 C   0  0  2  0  0  0  0  0  0  0  0  0
   11.8136  -15.9670   21.5853 N   0  0  0  0  0  0  0  0  0  0  0  0
   10.1476  -17.1080   22.9238 C   0  0  0  0  0  0  0  0  0  0  0  0
    9.5378  -16.0144   23.0268 O   0  0  0  0  0  0  0  0  0  0  0  0
    9.5659  -18.2224   23.5066 O   0  0  0  0  0  0  0  0  0  0  0  0
  2  1  1  1
  2  7  1  0
  3  2  1  0
  4  3  1  0
  5  6  2  0
  5  4  1  0
  7 16  1  0
  8  7  2  0
  9  5  1  0
 10 11  1  0
 11 12  2  0
 11 13  1  0
 13 14  1  0
 15 14  1  6
 16 15  1  0
 17 18  2  0
 17 15  1  0
 20 19  1  6
 20 22  1  0
 21 20  1  0
 22 24  1  0
 22 23  1  1
 23 17  1  0
 24 26  1  0
 25 24  2  0
M  END
$$$$
