EQT.pdb
     RDKit          3D

 26 25  0  0  1  0  0  0  0  0999 V2000
   11.7547  -19.8310   16.8641 N   0  0  0  0  0  0  0  0  0  0  0  0
   11.7186  -18.4208   17.3139 C   0  0  1  0  0  0  0  0  0  0  0  0
   10.8611  -17.7169   16.3187 C   0  0  0  0  0  0  0  0  0  0  0  0
    9.5477  -18.3480   16.0070 C   0  0  0  0  0  0  0  0  0  0  0  0
    8.8161  -17.3824   15.1039 C   0  0  0  0  0  0  0  0  0  0  0  0
    9.3425  -16.3215   14.6828 O   0  0  0  0  0  0  0  0  0  0  0  0
   11.2498  -18.4129   18.6937 C   0  0  0  0  0  0  0  0  0  0  0  0
   10.3215  -19.2134   19.0619 O   0  0  0  0  0  0  0  0  0  0  0  0
    7.5102  -17.6352   14.6974 O   0  0  0  0  0  0  0  0  0  0  0  0
   15.1600  -17.8836   21.3800 N   0  0  0  0  0  0  0  0  0  0  0  0
   14.5492  -19.1599   21.5003 C   0  0  0  0  0  0  0  0  0  0  0  0
   15.2583  -20.1804   21.3276 O   0  0  0  0  0  0  0  0  0  0  0  0
   13.1075  -19.2537   21.8227 C   0  0  0  0  0  0  0  0  0  0  0  0
   12.5631  -17.8450   21.9503 C   0  0  0  0  0  0  0  0  0  0  0  0
   11.2943  -17.6874   21.1043 C   0  0  2  0  0  0  0  0  0  0  0  0
   11.7349  -17.5715   19.7360 N   0  0  0  0  0  0  0  0  0  0  0  0
   10.6733  -16.4128   21.5245 C   0  0  0  0  0  0  0  0  0  0  0  0
   11.2829  -15.3419   21.2948 O   0  0  0  0  0  0  0  0  0  0  0  0
    7.5817  -14.6179   20.6685 C   0  0  0  0  0  0  0  0  0  0  0  0
    7.5033  -14.9462   22.1234 C   0  0  1  0  0  0  0  0  0  0  0  0
    6.7136  -16.0462   22.3998 O   0  0  0  0  0  0  0  0  0  0  0  0
    8.9224  -15.1034   22.6519 C   0  0  2  0  0  0  0  0  0  0  0  0
    9.4144  -16.3579   22.1773 N   0  0  0  0  0  0  0  0  0  0  0  0
    8.9562  -14.9905   24.1239 C   0  0  0  0  0  0  0  0  0  0  0  0
    8.5342  -13.9591   24.7041 O   0  0  0  0  0  0  0  0  0  0  0  0
    9.4521  -16.0129   24.9168 O   0  0  0  0  0  0  0  0  0  0  0  0
  2  1  1  6
  2  7  1  0
  3  2  1  0
  4  3  1  0
  5  6  2  0
  5  4  1  0
  7 16  1  0
  8  7  2  0
  9  5  1  0
 10 11  1  0
 11 12  2  0
 11 13  1  0
 13 14  1  0
 15 14  1  1
 16 15  1  0
 17 18  2  0
 17 15  1  0
 20 19  1  6
 20 22  1  0
 21 20  1  0
 22 24  1  0
 22 23  1  1
 23 17  1  0
 24 26  1  0
 25 24  2  0
M  END
$$$$
