EQT.pdb
     RDKit          3D

 26 25  0  0  1  0  0  0  0  0999 V2000
    9.0887  -15.3611   19.3482 N   0  0  0  0  0  0  0  0  0  0  0  0
    8.0333  -15.6596   20.3429 C   0  0  1  0  0  0  0  0  0  0  0  0
    7.7069  -17.1000   20.1432 C   0  0  0  0  0  0  0  0  0  0  0  0
    8.0925  -17.6944   18.8323 C   0  0  0  0  0  0  0  0  0  0  0  0
    7.5646  -19.1102   18.8362 C   0  0  0  0  0  0  0  0  0  0  0  0
    8.2436  -20.0824   19.2531 O   0  0  0  0  0  0  0  0  0  0  0  0
    8.5494  -15.2878   21.6541 C   0  0  0  0  0  0  0  0  0  0  0  0
    9.7975  -15.4066   21.9111 O   0  0  0  0  0  0  0  0  0  0  0  0
    6.2856  -19.3964   18.3708 O   0  0  0  0  0  0  0  0  0  0  0  0
    5.6351  -11.9706   26.0306 N   0  0  0  0  0  0  0  0  0  0  0  0
    6.8051  -12.3255   26.7528 C   0  0  0  0  0  0  0  0  0  0  0  0
    6.9713  -11.8392   27.8973 O   0  0  0  0  0  0  0  0  0  0  0  0
    7.7883  -13.2499   26.1446 C   0  0  0  0  0  0  0  0  0  0  0  0
    7.3005  -13.6044   24.7541 C   0  0  0  0  0  0  0  0  0  0  0  0
    8.3627  -14.4234   24.0115 C   0  0  2  0  0  0  0  0  0  0  0  0
    7.7813  -14.7778   22.7402 N   0  0  0  0  0  0  0  0  0  0  0  0
    8.5708  -15.6506   24.8098 C   0  0  0  0  0  0  0  0  0  0  0  0
    7.5825  -16.3794   25.0618 O   0  0  0  0  0  0  0  0  0  0  0  0
   10.5819  -18.5762   24.1838 C   0  0  0  0  0  0  0  0  0  0  0  0
   11.0670  -18.0623   25.4996 C   0  0  1  0  0  0  0  0  0  0  0  0
   12.2737  -17.3932   25.4204 O   0  0  0  0  0  0  0  0  0  0  0  0
    9.9670  -17.2043   26.1091 C   0  0  2  0  0  0  0  0  0  0  0  0
    9.8465  -16.0329   25.3003 N   0  0  0  0  0  0  0  0  0  0  0  0
   10.2543  -16.9000   27.5253 C   0  0  0  0  0  0  0  0  0  0  0  0
   10.4404  -15.7182   27.9087 O   0  0  0  0  0  0  0  0  0  0  0  0
   10.3291  -17.9016   28.4798 O   0  0  0  0  0  0  0  0  0  0  0  0
  2  1  1  6
  2  7  1  0
  3  2  1  0
  4  3  1  0
  5  6  2  0
  5  4  1  0
  7 16  1  0
  8  7  2  0
  9  5  1  0
 10 11  1  0
 11 12  2  0
 11 13  1  0
 13 14  1  0
 15 14  1  1
 16 15  1  0
 17 18  2  0
 17 15  1  0
 20 19  1  6
 20 22  1  0
 21 20  1  0
 22 24  1  0
 22 23  1  6
 23 17  1  0
 24 26  1  0
 25 24  2  0
M  END
$$$$
