EQT.pdb
     RDKit          3D

 26 25  0  0  1  0  0  0  0  0999 V2000
    8.4166  -18.3157   16.2757 N   0  0  0  0  0  0  0  0  0  0  0  0
    9.8572  -18.0272   16.4598 C   0  0  1  0  0  0  0  0  0  0  0  0
   10.3144  -17.4792   15.1514 C   0  0  0  0  0  0  0  0  0  0  0  0
    9.3670  -16.5746   14.4410 C   0  0  0  0  0  0  0  0  0  0  0  0
    9.6440  -16.7439   12.9652 C   0  0  0  0  0  0  0  0  0  0  0  0
   10.5162  -17.5370   12.5290 O   0  0  0  0  0  0  0  0  0  0  0  0
    9.9833  -17.1439   17.6120 C   0  0  0  0  0  0  0  0  0  0  0  0
   11.1298  -16.6847   17.9476 O   0  0  0  0  0  0  0  0  0  0  0  0
    8.9322  -16.0163   12.0174 O   0  0  0  0  0  0  0  0  0  0  0  0
    7.4863  -12.8295   19.5078 N   0  0  0  0  0  0  0  0  0  0  0  0
    7.6610  -13.1374   20.8829 C   0  0  0  0  0  0  0  0  0  0  0  0
    7.6496  -12.1959   21.7121 O   0  0  0  0  0  0  0  0  0  0  0  0
    7.8501  -14.5451   21.2994 C   0  0  0  0  0  0  0  0  0  0  0  0
    7.7375  -15.4181   20.0656 C   0  0  0  0  0  0  0  0  0  0  0  0
    9.1266  -15.8896   19.6199 C   0  0  2  0  0  0  0  0  0  0  0  0
    8.9177  -16.7086   18.4514 N   0  0  0  0  0  0  0  0  0  0  0  0
    9.6484  -16.7325   20.7172 C   0  0  0  0  0  0  0  0  0  0  0  0
    9.0401  -17.7900   21.0051 O   0  0  0  0  0  0  0  0  0  0  0  0
   13.1247  -18.0089   21.2321 C   0  0  0  0  0  0  0  0  0  0  0  0
   12.7420  -17.3057   22.4929 C   0  0  1  0  0  0  0  0  0  0  0  0
   13.3479  -16.0727   22.6435 O   0  0  0  0  0  0  0  0  0  0  0  0
   11.2231  -17.2157   22.5443 C   0  0  2  0  0  0  0  0  0  0  0  0
   10.8108  -16.3884   21.4549 N   0  0  0  0  0  0  0  0  0  0  0  0
   10.7651  -16.7132   23.8552 C   0  0  0  0  0  0  0  0  0  0  0  0
   10.1561  -15.6187   23.9523 O   0  0  0  0  0  0  0  0  0  0  0  0
   10.9887  -17.4267   25.0218 O   0  0  0  0  0  0  0  0  0  0  0  0
  2  1  1  6
  2  7  1  0
  3  2  1  0
  4  3  1  0
  5  6  2  0
  5  4  1  0
  7 16  1  0
  8  7  2  0
  9  5  1  0
 10 11  1  0
 11 12  2  0
 11 13  1  0
 13 14  1  0
 15 14  1  1
 16 15  1  0
 17 18  2  0
 17 15  1  0
 20 19  1  6
 20 22  1  0
 21 20  1  0
 22 24  1  0
 22 23  1  6
 23 17  1  0
 24 26  1  0
 25 24  2  0
M  END
$$$$
