EQT.pdb
     RDKit          3D

 26 25  0  0  1  0  0  0  0  0999 V2000
    9.9598  -18.8586   15.8389 N   0  0  0  0  0  0  0  0  0  0  0  0
    9.1559  -18.9997   17.0743 C   0  0  1  0  0  0  0  0  0  0  0  0
    9.2948  -20.4306   17.4674 C   0  0  0  0  0  0  0  0  0  0  0  0
    9.0096  -21.4419   16.4108 C   0  0  0  0  0  0  0  0  0  0  0  0
    9.0737  -22.7919   17.0865 C   0  0  0  0  0  0  0  0  0  0  0  0
    9.8468  -23.7042   16.6993 O   0  0  0  0  0  0  0  0  0  0  0  0
    9.6453  -18.0146   18.0303 C   0  0  0  0  0  0  0  0  0  0  0  0
   10.9026  -17.8797   18.2277 O   0  0  0  0  0  0  0  0  0  0  0  0
    8.2660  -23.0812   18.1811 O   0  0  0  0  0  0  0  0  0  0  0  0
    6.6924  -12.9904   20.0489 N   0  0  0  0  0  0  0  0  0  0  0  0
    7.8208  -12.9370   20.9093 C   0  0  0  0  0  0  0  0  0  0  0  0
    7.9551  -11.9388   21.6573 O   0  0  0  0  0  0  0  0  0  0  0  0
    8.7994  -14.0476   20.9026 C   0  0  0  0  0  0  0  0  0  0  0  0
    8.3617  -15.0517   19.8550 C   0  0  0  0  0  0  0  0  0  0  0  0
    9.3957  -16.1771   19.7334 C   0  0  2  0  0  0  0  0  0  0  0  0
    8.8398  -17.1360   18.8107 N   0  0  0  0  0  0  0  0  0  0  0  0
    9.4948  -16.7935   21.0739 C   0  0  0  0  0  0  0  0  0  0  0  0
    8.4736  -17.3264   21.5683 O   0  0  0  0  0  0  0  0  0  0  0  0
   11.7157  -19.4626   22.2420 C   0  0  0  0  0  0  0  0  0  0  0  0
   11.9458  -18.3143   23.1689 C   0  0  1  0  0  0  0  0  0  0  0  0
   13.1204  -17.6301   22.9199 O   0  0  0  0  0  0  0  0  0  0  0  0
   10.7238  -17.4078   23.1144 C   0  0  2  0  0  0  0  0  0  0  0  0
   10.7020  -16.8038   21.8199 N   0  0  0  0  0  0  0  0  0  0  0  0
   10.7466  -16.4194   24.2114 C   0  0  0  0  0  0  0  0  0  0  0  0
   10.9076  -15.1957   23.9771 O   0  0  0  0  0  0  0  0  0  0  0  0
   10.5921  -16.8028   25.5339 O   0  0  0  0  0  0  0  0  0  0  0  0
  2  1  1  6
  2  7  1  0
  3  2  1  0
  4  3  1  0
  5  6  2  0
  5  4  1  0
  7 16  1  0
  8  7  2  0
  9  5  1  0
 10 11  1  0
 11 12  2  0
 11 13  1  0
 13 14  1  0
 15 14  1  1
 16 15  1  0
 17 18  2  0
 17 15  1  0
 20 19  1  6
 20 22  1  0
 21 20  1  0
 22 24  1  0
 22 23  1  6
 23 17  1  0
 24 26  1  0
 25 24  2  0
M  END
$$$$
