EQT.pdb
     RDKit          3D

 26 25  0  0  1  0  0  0  0  0999 V2000
   11.4094  -20.8128   18.4199 N   0  0  0  0  0  0  0  0  0  0  0  0
   11.3544  -19.4048   18.8746 C   0  0  1  0  0  0  0  0  0  0  0  0
   10.4891  -18.7086   17.8807 C   0  0  0  0  0  0  0  0  0  0  0  0
   11.1316  -17.6288   17.0796 C   0  0  0  0  0  0  0  0  0  0  0  0
   10.9482  -18.0097   15.6289 C   0  0  0  0  0  0  0  0  0  0  0  0
   11.7767  -18.7229   15.0086 O   0  0  0  0  0  0  0  0  0  0  0  0
   10.8837  -19.4079   20.2539 C   0  0  0  0  0  0  0  0  0  0  0  0
    9.7688  -19.9613   20.5514 O   0  0  0  0  0  0  0  0  0  0  0  0
    9.8367  -17.5784   14.9128 O   0  0  0  0  0  0  0  0  0  0  0  0
   14.3377  -21.2203   24.1637 N   0  0  0  0  0  0  0  0  0  0  0  0
   12.9765  -21.5422   24.4084 C   0  0  0  0  0  0  0  0  0  0  0  0
   12.7068  -22.3150   25.3592 O   0  0  0  0  0  0  0  0  0  0  0  0
   11.9214  -20.9646   23.5456 C   0  0  0  0  0  0  0  0  0  0  0  0
   12.0309  -19.4547   23.6184 C   0  0  0  0  0  0  0  0  0  0  0  0
   10.9955  -18.8021   22.6951 C   0  0  2  0  0  0  0  0  0  0  0  0
   11.5611  -18.8357   21.3690 N   0  0  0  0  0  0  0  0  0  0  0  0
   10.8760  -17.3960   23.1370 C   0  0  0  0  0  0  0  0  0  0  0  0
   11.9235  -16.7358   23.3333 O   0  0  0  0  0  0  0  0  0  0  0  0
    8.2848  -14.5941   21.9260 C   0  0  0  0  0  0  0  0  0  0  0  0
    8.2412  -14.8332   23.3997 C   0  0  1  0  0  0  0  0  0  0  0  0
    7.1720  -15.6111   23.8018 O   0  0  0  0  0  0  0  0  0  0  0  0
    9.5793  -15.4220   23.8250 C   0  0  2  0  0  0  0  0  0  0  0  0
    9.6210  -16.7676   23.3467 N   0  0  0  0  0  0  0  0  0  0  0  0
    9.7616  -15.3241   25.2872 C   0  0  0  0  0  0  0  0  0  0  0  0
    9.8990  -16.3543   25.9930 O   0  0  0  0  0  0  0  0  0  0  0  0
    9.7879  -14.0982   25.9325 O   0  0  0  0  0  0  0  0  0  0  0  0
  2  1  1  6
  2  7  1  0
  3  2  1  0
  4  3  1  0
  5  6  2  0
  5  4  1  0
  7 16  1  0
  8  7  2  0
  9  5  1  0
 10 11  1  0
 11 12  2  0
 11 13  1  0
 13 14  1  0
 15 14  1  1
 16 15  1  0
 17 18  2  0
 17 15  1  0
 20 19  1  6
 20 22  1  0
 21 20  1  0
 22 24  1  0
 22 23  1  1
 23 17  1  0
 24 26  1  0
 25 24  2  0
M  END
$$$$
