LNR.pdb
     RDKit          3D

 28 27  0  0  1  0  0  0  0  0999 V2000
    9.0134  -12.4914   19.4092 C   0  0  0  0  0  0  0  0  0  0  0  0
    7.7249  -13.2533   19.2094 C   0  0  2  0  0  0  0  0  0  0  0  0
    6.5768  -12.2717   19.2749 C   0  0  0  0  0  0  0  0  0  0  0  0
    7.5578  -14.2376   20.3401 C   0  0  0  0  0  0  0  0  0  0  0  0
    8.7159  -15.2185   20.4009 C   0  0  2  0  0  0  0  0  0  0  0  0
    8.7822  -15.8596   19.0950 N   0  0  0  0  0  0  0  0  0  0  0  0
    8.3625  -16.2449   21.4307 C   0  0  0  0  0  0  0  0  0  0  0  0
    7.3800  -17.0023   21.3123 O   0  0  0  0  0  0  0  0  0  0  0  0
   12.3227  -20.1031   22.2872 N   0  0  0  0  0  0  0  0  0  0  0  0
   11.0369  -19.5880   22.6504 C   0  0  0  0  0  0  0  0  0  0  0  0
   10.3838  -20.2703   23.4772 O   0  0  0  0  0  0  0  0  0  0  0  0
   10.5635  -18.3283   22.0563 C   0  0  0  0  0  0  0  0  0  0  0  0
    9.7849  -17.5577   23.0653 C   0  0  2  0  0  0  0  0  0  0  0  0
    9.1578  -16.3801   22.5902 N   0  0  0  0  0  0  0  0  0  0  0  0
   10.5770  -17.2609   24.2985 C   0  0  0  0  0  0  0  0  0  0  0  0
   11.1190  -18.2408   24.8548 O   0  0  0  0  0  0  0  0  0  0  0  0
   10.1666  -18.1856   30.0570 N   0  0  0  0  0  0  0  0  0  0  0  0
   11.1888  -17.6667   30.9068 C   0  0  0  0  0  0  0  0  0  0  0  0
   11.3912  -18.2510   32.0153 N   0  0  0  0  0  0  0  0  0  0  0  0
   11.9206  -16.5270   30.4641 N   0  0  0  0  0  0  0  0  0  0  0  0
   11.2984  -15.6600   29.4829 C   0  0  0  0  0  0  0  0  0  0  0  0
   11.9112  -16.0056   28.1322 C   0  0  0  0  0  0  0  0  0  0  0  0
   11.3201  -15.1040   27.0909 C   0  0  0  0  0  0  0  0  0  0  0  0
   11.7386  -15.4713   25.6861 C   0  0  2  0  0  0  0  0  0  0  0  0
   10.7229  -15.9644   24.8275 N   0  0  0  0  0  0  0  0  0  0  0  0
   13.0228  -16.1694   25.6750 C   0  0  0  0  0  0  0  0  0  0  0  0
   13.1630  -17.3530   26.0560 O   0  0  0  0  0  0  0  0  0  0  0  0
   14.1384  -15.4737   25.2157 O   0  0  0  0  0  0  0  0  0  0  0  0
  2  1  1  1
  3  2  1  0
  4  2  1  0
  5  4  1  0
  5  6  1  6
  7  5  1  0
  8  7  2  0
  9 10  1  0
 10 12  1  0
 10 11  2  0
 13 12  1  6
 13 14  1  0
 14  7  1  0
 15 25  1  0
 15 13  1  0
 16 15  2  0
 18 19  2  0
 18 17  1  0
 20 18  1  0
 21 20  1  0
 22 21  1  0
 23 22  1  0
 24 23  1  1
 24 25  1  0
 26 28  1  0
 26 24  1  0
 27 26  2  0
M  END
$$$$
