LNR.pdb
     RDKit          3D

 28 27  0  0  1  0  0  0  0  0999 V2000
    8.9489  -13.7184   19.0126 C   0  0  0  0  0  0  0  0  0  0  0  0
    7.5341  -13.5505   19.5136 C   0  0  2  0  0  0  0  0  0  0  0  0
    7.2820  -12.0774   19.7421 C   0  0  0  0  0  0  0  0  0  0  0  0
    7.3978  -14.2551   20.8403 C   0  0  0  0  0  0  0  0  0  0  0  0
    7.5928  -15.7546   20.6978 C   0  0  2  0  0  0  0  0  0  0  0  0
    6.6386  -16.2006   19.6921 N   0  0  0  0  0  0  0  0  0  0  0  0
    7.2344  -16.3667   22.0153 C   0  0  0  0  0  0  0  0  0  0  0  0
    6.0904  -16.2857   22.5029 O   0  0  0  0  0  0  0  0  0  0  0  0
    7.7379  -20.2260   25.3317 N   0  0  0  0  0  0  0  0  0  0  0  0
    7.0358  -20.3359   24.0886 C   0  0  0  0  0  0  0  0  0  0  0  0
    6.3248  -21.3606   23.9464 O   0  0  0  0  0  0  0  0  0  0  0  0
    7.1786  -19.2781   23.0764 C   0  0  0  0  0  0  0  0  0  0  0  0
    8.0044  -18.1661   23.6239 C   0  0  2  0  0  0  0  0  0  0  0  0
    8.2130  -17.0685   22.7537 N   0  0  0  0  0  0  0  0  0  0  0  0
    9.3086  -18.6395   24.1820 C   0  0  0  0  0  0  0  0  0  0  0  0
    9.6369  -19.8120   23.8978 O   0  0  0  0  0  0  0  0  0  0  0  0
    7.9233  -12.5063   27.9019 N   0  0  0  0  0  0  0  0  0  0  0  0
    7.5823  -12.7494   26.5378 C   0  0  0  0  0  0  0  0  0  0  0  0
    6.4965  -12.2575   26.1017 N   0  0  0  0  0  0  0  0  0  0  0  0
    8.4764  -13.5274   25.7468 N   0  0  0  0  0  0  0  0  0  0  0  0
    8.3086  -14.9673   25.7504 C   0  0  0  0  0  0  0  0  0  0  0  0
    9.0471  -15.4978   26.9721 C   0  0  0  0  0  0  0  0  0  0  0  0
    8.9296  -16.9919   26.9941 C   0  0  0  0  0  0  0  0  0  0  0  0
   10.1300  -17.6870   26.3945 C   0  0  2  0  0  0  0  0  0  0  0  0
   10.1410  -17.8357   24.9840 N   0  0  0  0  0  0  0  0  0  0  0  0
   10.5342  -18.8424   27.1934 C   0  0  0  0  0  0  0  0  0  0  0  0
   10.1414  -20.0075   26.9613 O   0  0  0  0  0  0  0  0  0  0  0  0
   11.3993  -18.6244   28.2628 O   0  0  0  0  0  0  0  0  0  0  0  0
  2  1  1  1
  3  2  1  0
  4  2  1  0
  5  4  1  0
  5  6  1  6
  7  5  1  0
  8  7  2  0
  9 10  1  0
 10 12  1  0
 10 11  2  0
 13 12  1  6
 13 14  1  0
 14  7  1  0
 15 25  1  0
 15 13  1  0
 16 15  2  0
 18 19  2  0
 18 17  1  0
 20 18  1  0
 21 20  1  0
 22 21  1  0
 23 22  1  0
 24 23  1  1
 24 25  1  0
 26 28  1  0
 26 24  1  0
 27 26  2  0
M  END
$$$$
