LNR.pdb
     RDKit          3D

 28 27  0  0  1  0  0  0  0  0999 V2000
    8.2980  -12.9456   18.2674 C   0  0  0  0  0  0  0  0  0  0  0  0
    7.2494  -13.6729   19.0750 C   0  0  2  0  0  0  0  0  0  0  0  0
    6.1644  -12.6866   19.4440 C   0  0  0  0  0  0  0  0  0  0  0  0
    7.8752  -14.1727   20.3531 C   0  0  0  0  0  0  0  0  0  0  0  0
    9.1211  -14.9968   20.0786 C   0  0  2  0  0  0  0  0  0  0  0  0
    8.7193  -16.0612   19.1694 N   0  0  0  0  0  0  0  0  0  0  0  0
    9.5388  -15.6008   21.3822 C   0  0  0  0  0  0  0  0  0  0  0  0
    9.7193  -14.9188   22.4095 O   0  0  0  0  0  0  0  0  0  0  0  0
    8.1187  -20.1384   21.2459 N   0  0  0  0  0  0  0  0  0  0  0  0
    8.5170  -19.3240   22.3542 C   0  0  0  0  0  0  0  0  0  0  0  0
    7.5871  -18.8004   23.0152 O   0  0  0  0  0  0  0  0  0  0  0  0
    9.9469  -19.1487   22.6515 C   0  0  0  0  0  0  0  0  0  0  0  0
   10.3052  -17.7055   22.5660 C   0  0  2  0  0  0  0  0  0  0  0  0
    9.7424  -16.9953   21.4776 N   0  0  0  0  0  0  0  0  0  0  0  0
   11.7815  -17.4751   22.6266 C   0  0  0  0  0  0  0  0  0  0  0  0
   12.4328  -18.2596   23.3504 O   0  0  0  0  0  0  0  0  0  0  0  0
   16.4515  -14.2675   16.7744 N   0  0  0  0  0  0  0  0  0  0  0  0
   16.8620  -13.2996   17.7394 C   0  0  0  0  0  0  0  0  0  0  0  0
   17.5600  -12.3194   17.3356 N   0  0  0  0  0  0  0  0  0  0  0  0
   16.4667  -13.4885   19.0952 N   0  0  0  0  0  0  0  0  0  0  0  0
   16.0192  -14.8084   19.4943 C   0  0  0  0  0  0  0  0  0  0  0  0
   15.6901  -14.7360   20.9795 C   0  0  0  0  0  0  0  0  0  0  0  0
   14.2074  -14.8726   21.1509 C   0  0  0  0  0  0  0  0  0  0  0  0
   13.8126  -16.1269   21.8955 C   0  0  2  0  0  0  0  0  0  0  0  0
   12.4303  -16.4435   21.9215 N   0  0  0  0  0  0  0  0  0  0  0  0
   14.5549  -16.2626   23.1474 C   0  0  0  0  0  0  0  0  0  0  0  0
   14.1512  -15.7993   24.2374 O   0  0  0  0  0  0  0  0  0  0  0  0
   15.7696  -16.9429   23.1140 O   0  0  0  0  0  0  0  0  0  0  0  0
  2  1  1  6
  3  2  1  0
  4  2  1  0
  5  4  1  0
  5  6  1  6
  7  5  1  0
  8  7  2  0
  9 10  1  0
 10 12  1  0
 10 11  2  0
 13 12  1  6
 13 14  1  0
 14  7  1  0
 15 25  1  0
 15 13  1  0
 16 15  2  0
 18 19  2  0
 18 17  1  0
 20 18  1  0
 21 20  1  0
 22 21  1  0
 23 22  1  0
 24 23  1  1
 24 25  1  0
 26 28  1  0
 26 24  1  0
 27 26  2  0
M  END
$$$$
