LNR.pdb
     RDKit          3D

 28 27  0  0  1  0  0  0  0  0999 V2000
   68.9864  -26.8978   11.5953 C   0  0  0  0  0  0  0  0  0  0  0  0
   68.2200  -28.0206   12.2532 C   0  0  2  0  0  0  0  0  0  0  0  0
   69.1773  -29.1618   12.5125 C   0  0  0  0  0  0  0  0  0  0  0  0
   67.1593  -28.5132   11.3006 C   0  0  0  0  0  0  0  0  0  0  0  0
   65.7641  -28.1751   11.7968 C   0  0  2  0  0  0  0  0  0  0  0  0
   65.2144  -27.2098   10.8552 N   0  0  0  0  0  0  0  0  0  0  0  0
   65.9248  -27.5177   13.1312 C   0  0  0  0  0  0  0  0  0  0  0  0
   66.9981  -27.5395   13.7641 O   0  0  0  0  0  0  0  0  0  0  0  0
   63.0400  -22.8865   15.9670 N   0  0  0  0  0  0  0  0  0  0  0  0
   63.7350  -24.1382   15.9916 C   0  0  0  0  0  0  0  0  0  0  0  0
   64.4732  -24.3387   16.9868 O   0  0  0  0  0  0  0  0  0  0  0  0
   63.5543  -25.0926   14.8869 C   0  0  0  0  0  0  0  0  0  0  0  0
   64.8751  -25.6487   14.4816 C   0  0  2  0  0  0  0  0  0  0  0  0
   64.8326  -26.8400   13.7170 N   0  0  0  0  0  0  0  0  0  0  0  0
   65.8108  -25.8084   15.6372 C   0  0  0  0  0  0  0  0  0  0  0  0
   65.5829  -26.7708   16.4022 O   0  0  0  0  0  0  0  0  0  0  0  0
   72.1123  -22.7885   20.3205 N   0  0  0  0  0  0  0  0  0  0  0  0
   72.4318  -23.9411   19.5422 C   0  0  0  0  0  0  0  0  0  0  0  0
   73.3780  -24.6849   19.9455 N   0  0  0  0  0  0  0  0  0  0  0  0
   71.6736  -24.1897   18.3616 N   0  0  0  0  0  0  0  0  0  0  0  0
   70.8721  -23.1057   17.8287 C   0  0  0  0  0  0  0  0  0  0  0  0
   69.4408  -23.6168   17.7326 C   0  0  0  0  0  0  0  0  0  0  0  0
   69.2077  -24.1370   16.3464 C   0  0  0  0  0  0  0  0  0  0  0  0
   68.2078  -25.2691   16.3015 C   0  0  2  0  0  0  0  0  0  0  0  0
   66.8944  -24.9421   15.8770 N   0  0  0  0  0  0  0  0  0  0  0  0
   68.3377  -26.1450   17.4644 C   0  0  0  0  0  0  0  0  0  0  0  0
   68.1488  -25.7575   18.6390 O   0  0  0  0  0  0  0  0  0  0  0  0
   68.6891  -27.4742   17.2426 O   0  0  0  0  0  0  0  0  0  0  0  0
  2  1  1  6
  3  2  1  0
  4  2  1  0
  5  4  1  0
  5  6  1  6
  7  5  1  0
  8  7  2  0
  9 10  1  0
 10 12  1  0
 10 11  2  0
 13 12  1  1
 13 14  1  0
 14  7  1  0
 15 25  1  0
 15 13  1  0
 16 15  2  0
 18 19  2  0
 18 17  1  0
 20 18  1  0
 21 20  1  0
 22 21  1  0
 23 22  1  0
 24 23  1  1
 24 25  1  0
 26 28  1  0
 26 24  1  0
 27 26  2  0
M  END
$$$$
