LNR.pdb
     RDKit          3D

 28 27  0  0  1  0  0  0  0  0999 V2000
    8.0609  -13.0275   18.0022 C   0  0  0  0  0  0  0  0  0  0  0  0
    7.2753  -13.5233   19.1929 C   0  0  2  0  0  0  0  0  0  0  0  0
    7.0764  -12.3670   20.1465 C   0  0  0  0  0  0  0  0  0  0  0  0
    8.0823  -14.5789   19.9068 C   0  0  0  0  0  0  0  0  0  0  0  0
    8.2799  -15.8104   19.0401 C   0  0  2  0  0  0  0  0  0  0  0  0
    6.9643  -16.4121   18.8727 N   0  0  0  0  0  0  0  0  0  0  0  0
    9.1511  -16.7502   19.8125 C   0  0  0  0  0  0  0  0  0  0  0  0
    8.7042  -17.5016   20.7006 O   0  0  0  0  0  0  0  0  0  0  0  0
   12.7954  -18.5298   17.0710 N   0  0  0  0  0  0  0  0  0  0  0  0
   12.3936  -18.8232   18.4137 C   0  0  0  0  0  0  0  0  0  0  0  0
   11.7496  -19.8884   18.5756 O   0  0  0  0  0  0  0  0  0  0  0  0
   12.7444  -17.8928   19.4978 C   0  0  0  0  0  0  0  0  0  0  0  0
   11.5199  -17.5276   20.2631 C   0  0  2  0  0  0  0  0  0  0  0  0
   10.5365  -16.8066   19.5429 N   0  0  0  0  0  0  0  0  0  0  0  0
   11.8321  -16.8331   21.5501 C   0  0  0  0  0  0  0  0  0  0  0  0
   11.6535  -15.5957   21.5663 O   0  0  0  0  0  0  0  0  0  0  0  0
    9.8307  -16.7340   29.4625 N   0  0  0  0  0  0  0  0  0  0  0  0
   10.5208  -15.4908   29.3416 C   0  0  0  0  0  0  0  0  0  0  0  0
   10.5697  -14.7384   30.3627 N   0  0  0  0  0  0  0  0  0  0  0  0
   11.1127  -15.1667   28.0866 N   0  0  0  0  0  0  0  0  0  0  0  0
   10.7851  -15.9997   26.9462 C   0  0  0  0  0  0  0  0  0  0  0  0
   11.5132  -15.4135   25.7439 C   0  0  0  0  0  0  0  0  0  0  0  0
   11.1922  -16.2415   24.5365 C   0  0  0  0  0  0  0  0  0  0  0  0
   12.3780  -17.0284   24.0283 C   0  0  2  0  0  0  0  0  0  0  0  0
   12.3014  -17.5053   22.6947 N   0  0  0  0  0  0  0  0  0  0  0  0
   12.8821  -17.9522   25.0426 C   0  0  0  0  0  0  0  0  0  0  0  0
   12.5400  -19.1542   25.1058 O   0  0  0  0  0  0  0  0  0  0  0  0
   13.7873  -17.4602   25.9796 O   0  0  0  0  0  0  0  0  0  0  0  0
  2  1  1  6
  3  2  1  0
  4  2  1  0
  5  4  1  0
  5  6  1  1
  7  5  1  0
  8  7  2  0
  9 10  1  0
 10 12  1  0
 10 11  2  0
 13 12  1  6
 13 14  1  0
 14  7  1  0
 15 25  1  0
 15 13  1  0
 16 15  2  0
 18 19  2  0
 18 17  1  0
 20 18  1  0
 21 20  1  0
 22 21  1  0
 23 22  1  0
 24 23  1  1
 24 25  1  0
 26 28  1  0
 26 24  1  0
 27 26  2  0
M  END
$$$$
