LNR.pdb
     RDKit          3D

 28 27  0  0  1  0  0  0  0  0999 V2000
    6.0699  -11.9523   25.6909 C   0  0  0  0  0  0  0  0  0  0  0  0
    6.4516  -12.8103   26.8737 C   0  0  2  0  0  0  0  0  0  0  0  0
    6.3899  -11.9568   28.1201 C   0  0  0  0  0  0  0  0  0  0  0  0
    7.8758  -13.2761   26.7012 C   0  0  0  0  0  0  0  0  0  0  0  0
    8.0166  -14.2105   25.5121 C   0  0  2  0  0  0  0  0  0  0  0  0
    6.8578  -15.0920   25.5410 N   0  0  0  0  0  0  0  0  0  0  0  0
    9.2526  -15.0221   25.7410 C   0  0  0  0  0  0  0  0  0  0  0  0
   10.3517  -14.5051   26.0199 O   0  0  0  0  0  0  0  0  0  0  0  0
   12.0784  -19.8865   26.9366 N   0  0  0  0  0  0  0  0  0  0  0  0
   10.7821  -19.6387   26.3810 C   0  0  0  0  0  0  0  0  0  0  0  0
   10.3642  -20.4891   25.5576 O   0  0  0  0  0  0  0  0  0  0  0  0
   10.0321  -18.4411   26.7897 C   0  0  0  0  0  0  0  0  0  0  0  0
   10.2670  -17.3425   25.8118 C   0  0  2  0  0  0  0  0  0  0  0  0
    9.1971  -16.4301   25.6429 N   0  0  0  0  0  0  0  0  0  0  0  0
   10.7330  -17.8457   24.4829 C   0  0  0  0  0  0  0  0  0  0  0  0
   10.1287  -18.8410   24.0273 O   0  0  0  0  0  0  0  0  0  0  0  0
    7.2540  -13.2540   19.1911 N   0  0  0  0  0  0  0  0  0  0  0  0
    8.3262  -13.6218   18.3241 C   0  0  0  0  0  0  0  0  0  0  0  0
    8.2620  -13.2507   17.1120 N   0  0  0  0  0  0  0  0  0  0  0  0
    9.4026  -14.3815   18.8667 N   0  0  0  0  0  0  0  0  0  0  0  0
    9.3250  -14.7687   20.2615 C   0  0  0  0  0  0  0  0  0  0  0  0
   10.5855  -15.5646   20.5728 C   0  0  0  0  0  0  0  0  0  0  0  0
   10.5423  -15.9920   22.0087 C   0  0  0  0  0  0  0  0  0  0  0  0
   11.7768  -16.7518   22.4356 C   0  0  2  0  0  0  0  0  0  0  0  0
   11.7881  -17.2548   23.7618 N   0  0  0  0  0  0  0  0  0  0  0  0
   12.9964  -16.1065   21.9532 C   0  0  0  0  0  0  0  0  0  0  0  0
   13.1538  -15.7371   20.7681 O   0  0  0  0  0  0  0  0  0  0  0  0
   14.0274  -15.8974   22.8658 O   0  0  0  0  0  0  0  0  0  0  0  0
  2  1  1  6
  3  2  1  0
  4  2  1  0
  5  4  1  0
  5  6  1  1
  7  5  1  0
  8  7  2  0
  9 10  1  0
 10 12  1  0
 10 11  2  0
 13 12  1  1
 13 14  1  0
 14  7  1  0
 15 25  1  0
 15 13  1  0
 16 15  2  0
 18 19  2  0
 18 17  1  0
 20 18  1  0
 21 20  1  0
 22 21  1  0
 23 22  1  0
 24 23  1  1
 24 25  1  0
 26 28  1  0
 26 24  1  0
 27 26  2  0
M  END
$$$$
