LNR.pdb
     RDKit          3D

 28 27  0  0  1  0  0  0  0  0999 V2000
    9.4270  -12.6070   18.2968 C   0  0  0  0  0  0  0  0  0  0  0  0
    8.0574  -13.2350   18.1946 C   0  0  2  0  0  0  0  0  0  0  0  0
    7.0418  -12.2513   18.7299 C   0  0  0  0  0  0  0  0  0  0  0  0
    8.0163  -14.4644   19.0675 C   0  0  0  0  0  0  0  0  0  0  0  0
    8.9976  -15.5205   18.5896 C   0  0  2  0  0  0  0  0  0  0  0  0
    8.4259  -16.0978   17.3809 N   0  0  0  0  0  0  0  0  0  0  0  0
    9.0558  -16.5725   19.6520 C   0  0  0  0  0  0  0  0  0  0  0  0
    8.3250  -17.5818   19.6364 O   0  0  0  0  0  0  0  0  0  0  0  0
   11.5156  -20.7339   22.5075 N   0  0  0  0  0  0  0  0  0  0  0  0
   10.5869  -19.6441   22.5038 C   0  0  0  0  0  0  0  0  0  0  0  0
    9.8872  -19.5132   23.5377 O   0  0  0  0  0  0  0  0  0  0  0  0
   10.5031  -18.7636   21.3284 C   0  0  0  0  0  0  0  0  0  0  0  0
   10.2058  -17.3706   21.7636 C   0  0  2  0  0  0  0  0  0  0  0  0
    9.9657  -16.4392   20.7241 N   0  0  0  0  0  0  0  0  0  0  0  0
   11.2291  -16.8342   22.7132 C   0  0  0  0  0  0  0  0  0  0  0  0
   12.4128  -16.8426   22.3106 O   0  0  0  0  0  0  0  0  0  0  0  0
   11.7778  -17.3268   31.2945 N   0  0  0  0  0  0  0  0  0  0  0  0
   11.2491  -16.1835   30.6240 C   0  0  0  0  0  0  0  0  0  0  0  0
   10.0595  -15.8344   30.8961 N   0  0  0  0  0  0  0  0  0  0  0  0
   12.0835  -15.5023   29.6912 N   0  0  0  0  0  0  0  0  0  0  0  0
   11.4427  -14.7327   28.6430 C   0  0  0  0  0  0  0  0  0  0  0  0
   12.1705  -15.0570   27.3452 C   0  0  0  0  0  0  0  0  0  0  0  0
   11.1721  -15.5581   26.3460 C   0  0  0  0  0  0  0  0  0  0  0  0
   11.7900  -15.8803   25.0051 C   0  0  2  0  0  0  0  0  0  0  0  0
   10.9099  -16.3414   23.9928 N   0  0  0  0  0  0  0  0  0  0  0  0
   13.0632  -16.5820   25.1568 C   0  0  0  0  0  0  0  0  0  0  0  0
   13.1467  -17.8110   25.3765 O   0  0  0  0  0  0  0  0  0  0  0  0
   14.2346  -15.8365   25.0496 O   0  0  0  0  0  0  0  0  0  0  0  0
  2  1  1  1
  3  2  1  0
  4  2  1  0
  5  4  1  0
  5  6  1  6
  7  5  1  0
  8  7  2  0
  9 10  1  0
 10 12  1  0
 10 11  2  0
 13 12  1  6
 13 14  1  0
 14  7  1  0
 15 25  1  0
 15 13  1  0
 16 15  2  0
 18 19  2  0
 18 17  1  0
 20 18  1  0
 21 20  1  0
 22 21  1  0
 23 22  1  0
 24 23  1  1
 24 25  1  0
 26 28  1  0
 26 24  1  0
 27 26  2  0
M  END
$$$$
