LNR.pdb
     RDKit          3D

 28 27  0  0  1  0  0  0  0  0999 V2000
    6.8760  -12.5426   20.6651 C   0  0  0  0  0  0  0  0  0  0  0  0
    7.9391  -12.5231   19.5926 C   0  0  2  0  0  0  0  0  0  0  0  0
    7.2836  -12.1595   18.2796 C   0  0  0  0  0  0  0  0  0  0  0  0
    8.5189  -13.9085   19.4528 C   0  0  0  0  0  0  0  0  0  0  0  0
    9.1601  -14.3777   20.7473 C   0  0  2  0  0  0  0  0  0  0  0  0
    9.6092  -13.1796   21.4427 N   0  0  0  0  0  0  0  0  0  0  0  0
   10.3530  -15.1980   20.3691 C   0  0  0  0  0  0  0  0  0  0  0  0
   10.2548  -16.2898   19.7763 O   0  0  0  0  0  0  0  0  0  0  0  0
   14.8738  -16.8700   19.3058 N   0  0  0  0  0  0  0  0  0  0  0  0
   14.9493  -15.4513   19.1268 C   0  0  0  0  0  0  0  0  0  0  0  0
   16.0266  -15.0123   18.6553 O   0  0  0  0  0  0  0  0  0  0  0  0
   13.7994  -14.6098   19.4920 C   0  0  0  0  0  0  0  0  0  0  0  0
   12.8804  -15.3725   20.3819 C   0  0  2  0  0  0  0  0  0  0  0  0
   11.6508  -14.7386   20.6851 N   0  0  0  0  0  0  0  0  0  0  0  0
   13.5481  -15.8345   21.6377 C   0  0  0  0  0  0  0  0  0  0  0  0
   14.5450  -16.5749   21.4918 O   0  0  0  0  0  0  0  0  0  0  0  0
   13.5886  -18.8414   29.1393 N   0  0  0  0  0  0  0  0  0  0  0  0
   12.7164  -19.7766   28.5061 C   0  0  0  0  0  0  0  0  0  0  0  0
   12.5948  -20.9246   29.0337 N   0  0  0  0  0  0  0  0  0  0  0  0
   12.0351  -19.3697   27.3226 N   0  0  0  0  0  0  0  0  0  0  0  0
   12.3790  -18.0834   26.7495 C   0  0  0  0  0  0  0  0  0  0  0  0
   12.8896  -18.3472   25.3392 C   0  0  0  0  0  0  0  0  0  0  0  0
   12.3201  -17.3099   24.4194 C   0  0  0  0  0  0  0  0  0  0  0  0
   13.2786  -16.1740   24.1456 C   0  0  2  0  0  0  0  0  0  0  0  0
   13.1041  -15.4742   22.9243 N   0  0  0  0  0  0  0  0  0  0  0  0
   14.6453  -16.5223   24.5292 C   0  0  0  0  0  0  0  0  0  0  0  0
   15.1551  -16.1936   25.6237 O   0  0  0  0  0  0  0  0  0  0  0  0
   15.4088  -17.2562   23.6247 O   0  0  0  0  0  0  0  0  0  0  0  0
  2  1  1  1
  3  2  1  0
  4  2  1  0
  5  4  1  0
  5  6  1  1
  7  5  1  0
  8  7  2  0
  9 10  1  0
 10 12  1  0
 10 11  2  0
 13 12  1  1
 13 14  1  0
 14  7  1  0
 15 25  1  0
 15 13  1  0
 16 15  2  0
 18 19  2  0
 18 17  1  0
 20 18  1  0
 21 20  1  0
 22 21  1  0
 23 22  1  0
 24 23  1  6
 24 25  1  0
 26 28  1  0
 26 24  1  0
 27 26  2  0
M  END
$$$$
