LNR.pdb
     RDKit          3D

 28 27  0  0  1  0  0  0  0  0999 V2000
    7.1894  -11.2084   25.4438 C   0  0  0  0  0  0  0  0  0  0  0  0
    6.3105  -12.2327   26.1212 C   0  0  2  0  0  0  0  0  0  0  0  0
    5.7928  -11.6370   27.4108 C   0  0  0  0  0  0  0  0  0  0  0  0
    7.1452  -13.4395   26.4707 C   0  0  0  0  0  0  0  0  0  0  0  0
    7.7481  -14.0781   25.2315 C   0  0  2  0  0  0  0  0  0  0  0  0
    6.6474  -14.2964   24.3033 N   0  0  0  0  0  0  0  0  0  0  0  0
    8.3022  -15.4031   25.6512 C   0  0  0  0  0  0  0  0  0  0  0  0
    9.1068  -15.5244   26.5951 O   0  0  0  0  0  0  0  0  0  0  0  0
    5.8926  -19.3383   23.2460 N   0  0  0  0  0  0  0  0  0  0  0  0
    6.2064  -18.5811   24.4201 C   0  0  0  0  0  0  0  0  0  0  0  0
    5.4442  -17.6163   24.6732 O   0  0  0  0  0  0  0  0  0  0  0  0
    7.3664  -18.9597   25.2416 C   0  0  0  0  0  0  0  0  0  0  0  0
    8.4002  -17.8896   25.1757 C   0  0  2  0  0  0  0  0  0  0  0  0
    7.9136  -16.5761   24.9669 N   0  0  0  0  0  0  0  0  0  0  0  0
    9.4877  -18.2004   24.1974 C   0  0  0  0  0  0  0  0  0  0  0  0
    9.3300  -19.2305   23.5064 O   0  0  0  0  0  0  0  0  0  0  0  0
    8.8823  -13.3251   18.5079 N   0  0  0  0  0  0  0  0  0  0  0  0
    8.0955  -13.6698   19.6475 C   0  0  0  0  0  0  0  0  0  0  0  0
    6.8787  -13.3087   19.6587 N   0  0  0  0  0  0  0  0  0  0  0  0
    8.7186  -14.3964   20.7030 N   0  0  0  0  0  0  0  0  0  0  0  0
    9.3037  -15.6846   20.3873 C   0  0  0  0  0  0  0  0  0  0  0  0
   10.6235  -15.7705   21.1423 C   0  0  0  0  0  0  0  0  0  0  0  0
   10.8453  -17.1917   21.5635 C   0  0  0  0  0  0  0  0  0  0  0  0
   11.5007  -17.3096   22.9200 C   0  0  2  0  0  0  0  0  0  0  0  0
   10.6349  -17.3995   24.0399 N   0  0  0  0  0  0  0  0  0  0  0  0
   12.6560  -16.4215   23.0357 C   0  0  0  0  0  0  0  0  0  0  0  0
   13.5253  -16.3077   22.1429 O   0  0  0  0  0  0  0  0  0  0  0  0
   12.7856  -15.6698   24.2008 O   0  0  0  0  0  0  0  0  0  0  0  0
  2  1  1  1
  3  2  1  0
  4  2  1  0
  5  4  1  0
  5  6  1  6
  7  5  1  0
  8  7  2  0
  9 10  1  0
 10 12  1  0
 10 11  2  0
 13 12  1  6
 13 14  1  0
 14  7  1  0
 15 25  1  0
 15 13  1  0
 16 15  2  0
 18 19  2  0
 18 17  1  0
 20 18  1  0
 21 20  1  0
 22 21  1  0
 23 22  1  0
 24 23  1  6
 24 25  1  0
 26 28  1  0
 26 24  1  0
 27 26  2  0
M  END
$$$$
