LNR.pdb
     RDKit          3D

 28 27  0  0  1  0  0  0  0  0999 V2000
    8.1654  -12.4086   20.2567 C   0  0  0  0  0  0  0  0  0  0  0  0
    8.2261  -12.9594   18.8519 C   0  0  2  0  0  0  0  0  0  0  0  0
    6.8228  -13.3230   18.4225 C   0  0  0  0  0  0  0  0  0  0  0  0
    9.0511  -14.2221   18.8563 C   0  0  0  0  0  0  0  0  0  0  0  0
   10.0555  -14.2277   19.9956 C   0  0  2  0  0  0  0  0  0  0  0  0
   10.7192  -12.9318   19.9665 N   0  0  0  0  0  0  0  0  0  0  0  0
   11.0571  -15.2956   19.6869 C   0  0  0  0  0  0  0  0  0  0  0  0
   10.7293  -16.4762   19.4591 O   0  0  0  0  0  0  0  0  0  0  0  0
   14.6232  -13.2785   18.6275 N   0  0  0  0  0  0  0  0  0  0  0  0
   15.0519  -14.5124   18.0408 C   0  0  0  0  0  0  0  0  0  0  0  0
   16.2240  -14.5308   17.5918 O   0  0  0  0  0  0  0  0  0  0  0  0
   14.1282  -15.6563   17.9959 C   0  0  0  0  0  0  0  0  0  0  0  0
   13.5035  -15.8512   19.3339 C   0  0  2  0  0  0  0  0  0  0  0  0
   12.4329  -14.9783   19.6460 N   0  0  0  0  0  0  0  0  0  0  0  0
   14.5077  -15.8556   20.4421 C   0  0  0  0  0  0  0  0  0  0  0  0
   15.6315  -16.3291   20.1659 O   0  0  0  0  0  0  0  0  0  0  0  0
   10.0320  -19.9402   22.7405 N   0  0  0  0  0  0  0  0  0  0  0  0
   10.2719  -20.1239   24.1352 C   0  0  0  0  0  0  0  0  0  0  0  0
   10.2259  -21.3066   24.5936 N   0  0  0  0  0  0  0  0  0  0  0  0
   10.5479  -18.9738   24.9298 N   0  0  0  0  0  0  0  0  0  0  0  0
   10.7008  -17.7013   24.2523 C   0  0  0  0  0  0  0  0  0  0  0  0
   12.0223  -17.7556   23.4973 C   0  0  0  0  0  0  0  0  0  0  0  0
   12.3034  -16.4007   22.9215 C   0  0  0  0  0  0  0  0  0  0  0  0
   13.7783  -16.0757   22.8704 C   0  0  2  0  0  0  0  0  0  0  0  0
   14.2341  -15.3627   21.7322 N   0  0  0  0  0  0  0  0  0  0  0  0
   14.5911  -17.2022   23.3254 C   0  0  0  0  0  0  0  0  0  0  0  0
   14.4018  -17.7884   24.4145 O   0  0  0  0  0  0  0  0  0  0  0  0
   15.6239  -17.6362   22.4981 O   0  0  0  0  0  0  0  0  0  0  0  0
  2  1  1  1
  3  2  1  0
  4  2  1  0
  5  4  1  0
  5  6  1  6
  7  5  1  0
  8  7  2  0
  9 10  1  0
 10 12  1  0
 10 11  2  0
 13 12  1  6
 13 14  1  0
 14  7  1  0
 15 25  1  0
 15 13  1  0
 16 15  2  0
 18 19  2  0
 18 17  1  0
 20 18  1  0
 21 20  1  0
 22 21  1  0
 23 22  1  0
 24 23  1  6
 24 25  1  0
 26 28  1  0
 26 24  1  0
 27 26  2  0
M  END
$$$$
