LNR.pdb
     RDKit          3D

 28 27  0  0  1  0  0  0  0  0999 V2000
    8.4761  -12.7489   19.1860 C   0  0  0  0  0  0  0  0  0  0  0  0
    7.1326  -13.1039   19.7774 C   0  0  2  0  0  0  0  0  0  0  0  0
    6.2749  -11.8589   19.7910 C   0  0  0  0  0  0  0  0  0  0  0  0
    7.3283  -13.5472   21.2058 C   0  0  0  0  0  0  0  0  0  0  0  0
    8.1723  -14.8073   21.2877 C   0  0  2  0  0  0  0  0  0  0  0  0
    7.5387  -15.7854   20.4145 N   0  0  0  0  0  0  0  0  0  0  0  0
    8.0936  -15.2921   22.7011 C   0  0  0  0  0  0  0  0  0  0  0  0
    8.2885  -14.5435   23.6782 O   0  0  0  0  0  0  0  0  0  0  0  0
    7.5468  -18.9787   26.5934 N   0  0  0  0  0  0  0  0  0  0  0  0
    6.7027  -19.0965   25.4428 C   0  0  0  0  0  0  0  0  0  0  0  0
    6.2161  -20.2340   25.2308 O   0  0  0  0  0  0  0  0  0  0  0  0
    6.4573  -17.9183   24.5969 C   0  0  0  0  0  0  0  0  0  0  0  0
    7.7540  -17.2861   24.2267 C   0  0  2  0  0  0  0  0  0  0  0  0
    7.7880  -16.6459   22.9638 N   0  0  0  0  0  0  0  0  0  0  0  0
    8.9106  -18.2242   24.3628 C   0  0  0  0  0  0  0  0  0  0  0  0
    8.7647  -19.3569   23.8538 O   0  0  0  0  0  0  0  0  0  0  0  0
   13.0931  -14.5835   18.8811 N   0  0  0  0  0  0  0  0  0  0  0  0
   14.1701  -15.3762   19.3791 C   0  0  0  0  0  0  0  0  0  0  0  0
   15.2711  -15.3434   18.7482 N   0  0  0  0  0  0  0  0  0  0  0  0
   13.9487  -16.1559   20.5510 N   0  0  0  0  0  0  0  0  0  0  0  0
   12.6653  -16.0351   21.2142 C   0  0  0  0  0  0  0  0  0  0  0  0
   12.7517  -16.8458   22.5006 C   0  0  0  0  0  0  0  0  0  0  0  0
   11.4078  -16.8400   23.1641 C   0  0  0  0  0  0  0  0  0  0  0  0
   11.3831  -17.6272   24.4537 C   0  0  2  0  0  0  0  0  0  0  0  0
   10.1077  -17.8817   25.0200 N   0  0  0  0  0  0  0  0  0  0  0  0
   12.4466  -17.2015   25.3616 C   0  0  0  0  0  0  0  0  0  0  0  0
   12.2618  -16.4038   26.3077 O   0  0  0  0  0  0  0  0  0  0  0  0
   13.7243  -17.7153   25.1544 O   0  0  0  0  0  0  0  0  0  0  0  0
  2  1  1  1
  3  2  1  0
  4  2  1  0
  5  4  1  0
  5  6  1  6
  7  5  1  0
  8  7  2  0
  9 10  1  0
 10 12  1  0
 10 11  2  0
 13 12  1  6
 13 14  1  0
 14  7  1  0
 15 25  1  0
 15 13  1  0
 16 15  2  0
 18 19  2  0
 18 17  1  0
 20 18  1  0
 21 20  1  0
 22 21  1  0
 23 22  1  0
 24 23  1  6
 24 25  1  0
 26 28  1  0
 26 24  1  0
 27 26  2  0
M  END
$$$$
