LNR.pdb
     RDKit          3D

 28 27  0  0  1  0  0  0  0  0999 V2000
    6.1394  -12.1264   26.2603 C   0  0  0  0  0  0  0  0  0  0  0  0
    6.9711  -13.1630   26.9776 C   0  0  2  0  0  0  0  0  0  0  0  0
    8.0449  -12.4485   27.7666 C   0  0  0  0  0  0  0  0  0  0  0  0
    7.6523  -14.0375   25.9548 C   0  0  0  0  0  0  0  0  0  0  0  0
    6.6437  -14.7564   25.0757 C   0  0  2  0  0  0  0  0  0  0  0  0
    5.8870  -15.6387   25.9532 N   0  0  0  0  0  0  0  0  0  0  0  0
    7.4253  -15.5860   24.1063 C   0  0  0  0  0  0  0  0  0  0  0  0
    7.6773  -16.7901   24.3056 O   0  0  0  0  0  0  0  0  0  0  0  0
    8.2897  -13.0635   21.2215 N   0  0  0  0  0  0  0  0  0  0  0  0
    8.0395  -14.0481   20.2123 C   0  0  0  0  0  0  0  0  0  0  0  0
    7.6525  -13.6115   19.1009 O   0  0  0  0  0  0  0  0  0  0  0  0
    8.2419  -15.4724   20.5194 C   0  0  0  0  0  0  0  0  0  0  0  0
    8.7125  -15.6220   21.9245 C   0  0  2  0  0  0  0  0  0  0  0  0
    7.9067  -15.0050   22.9122 N   0  0  0  0  0  0  0  0  0  0  0  0
   10.1425  -15.2200   22.0978 C   0  0  0  0  0  0  0  0  0  0  0  0
   10.6968  -14.7104   21.0996 O   0  0  0  0  0  0  0  0  0  0  0  0
    7.7712  -19.8626   25.6306 N   0  0  0  0  0  0  0  0  0  0  0  0
    8.2229  -19.2590   26.8422 C   0  0  0  0  0  0  0  0  0  0  0  0
    7.3749  -19.0877   27.7710 N   0  0  0  0  0  0  0  0  0  0  0  0
    9.5943  -18.8845   26.9392 N   0  0  0  0  0  0  0  0  0  0  0  0
   10.4099  -18.9786   25.7445 C   0  0  0  0  0  0  0  0  0  0  0  0
   10.7459  -17.5544   25.3223 C   0  0  0  0  0  0  0  0  0  0  0  0
   11.6476  -17.6072   24.1263 C   0  0  0  0  0  0  0  0  0  0  0  0
   11.9580  -16.2407   23.5606 C   0  0  2  0  0  0  0  0  0  0  0  0
   10.8511  -15.3922   23.3022 N   0  0  0  0  0  0  0  0  0  0  0  0
   13.0033  -16.3079   22.5411 C   0  0  0  0  0  0  0  0  0  0  0  0
   12.8256  -16.8103   21.4090 O   0  0  0  0  0  0  0  0  0  0  0  0
   14.2546  -15.7838   22.8558 O   0  0  0  0  0  0  0  0  0  0  0  0
  2  1  1  6
  3  2  1  0
  4  2  1  0
  5  4  1  0
  5  6  1  1
  7  5  1  0
  8  7  2  0
  9 10  1  0
 10 12  1  0
 10 11  2  0
 13 12  1  6
 13 14  1  0
 14  7  1  0
 15 25  1  0
 15 13  1  0
 16 15  2  0
 18 19  2  0
 18 17  1  0
 20 18  1  0
 21 20  1  0
 22 21  1  0
 23 22  1  0
 24 23  1  6
 24 25  1  0
 26 28  1  0
 26 24  1  0
 27 26  2  0
M  END
$$$$
