LNR.pdb
     RDKit          3D

 28 27  0  0  1  0  0  0  0  0999 V2000
   15.0140  -17.4346   13.8630 C   0  0  0  0  0  0  0  0  0  0  0  0
   14.4634  -18.8217   14.0940 C   0  0  2  0  0  0  0  0  0  0  0  0
   13.9395  -19.3508   12.7781 C   0  0  0  0  0  0  0  0  0  0  0  0
   13.3026  -18.7343   15.0532 C   0  0  0  0  0  0  0  0  0  0  0  0
   13.7020  -18.0537   16.3510 C   0  0  2  0  0  0  0  0  0  0  0  0
   14.5853  -18.9790   17.0469 N   0  0  0  0  0  0  0  0  0  0  0  0
   12.4508  -17.8778   17.1525 C   0  0  0  0  0  0  0  0  0  0  0  0
   11.5315  -17.1135   16.8007 O   0  0  0  0  0  0  0  0  0  0  0  0
    8.7823  -20.3997   21.2238 N   0  0  0  0  0  0  0  0  0  0  0  0
    9.1676  -19.5462   20.1406 C   0  0  0  0  0  0  0  0  0  0  0  0
    8.3819  -18.6037   19.8757 O   0  0  0  0  0  0  0  0  0  0  0  0
   10.4219  -19.8086   19.4183 C   0  0  0  0  0  0  0  0  0  0  0  0
   11.1753  -18.5362   19.2401 C   0  0  2  0  0  0  0  0  0  0  0  0
   12.2815  -18.5946   18.3578 N   0  0  0  0  0  0  0  0  0  0  0  0
   11.5829  -17.9222   20.5414 C   0  0  0  0  0  0  0  0  0  0  0  0
   12.0739  -18.7001   21.3882 O   0  0  0  0  0  0  0  0  0  0  0  0
    7.7906  -14.9927   18.1139 N   0  0  0  0  0  0  0  0  0  0  0  0
    7.9917  -13.5949   18.3195 C   0  0  0  0  0  0  0  0  0  0  0  0
    8.3322  -12.8918   17.3191 N   0  0  0  0  0  0  0  0  0  0  0  0
    7.7997  -13.0711   19.6306 N   0  0  0  0  0  0  0  0  0  0  0  0
    7.9343  -13.9805   20.7514 C   0  0  0  0  0  0  0  0  0  0  0  0
    9.3921  -14.4186   20.7959 C   0  0  0  0  0  0  0  0  0  0  0  0
    9.5848  -15.3308   21.9694 C   0  0  0  0  0  0  0  0  0  0  0  0
   10.9648  -15.9446   22.0194 C   0  0  2  0  0  0  0  0  0  0  0  0
   11.4352  -16.5515   20.8268 N   0  0  0  0  0  0  0  0  0  0  0  0
   11.1847  -16.6671   23.2708 C   0  0  0  0  0  0  0  0  0  0  0  0
   11.1180  -16.1245   24.3964 O   0  0  0  0  0  0  0  0  0  0  0  0
   11.4822  -18.0254   23.1951 O   0  0  0  0  0  0  0  0  0  0  0  0
  2  1  1  6
  3  2  1  0
  4  2  1  0
  5  4  1  0
  5  6  1  1
  7  5  1  0
  8  7  2  0
  9 10  1  0
 10 12  1  0
 10 11  2  0
 13 12  1  1
 13 14  1  0
 14  7  1  0
 15 25  1  0
 15 13  1  0
 16 15  2  0
 18 19  2  0
 18 17  1  0
 20 18  1  0
 21 20  1  0
 22 21  1  0
 23 22  1  0
 24 23  1  6
 24 25  1  0
 26 28  1  0
 26 24  1  0
 27 26  2  0
M  END
$$$$
