TYK.pdb
     RDKit          3D

 29 29  0  0  1  0  0  0  0  0999 V2000
    6.8608  -21.0075   19.1732 C   0  0  0  0  0  0  0  0  0  0  0  0
    7.8374  -20.1514   19.9141 C   0  0  1  0  0  0  0  0  0  0  0  0
    9.0189  -20.8184   20.2426 O   0  0  0  0  0  0  0  0  0  0  0  0
    8.1296  -18.8339   19.2536 C   0  0  2  0  0  0  0  0  0  0  0  0
    8.7108  -19.0214   17.9616 N   0  0  0  0  0  0  0  0  0  0  0  0
    8.9526  -17.9233   20.0531 C   0  0  0  0  0  0  0  0  0  0  0  0
   10.1727  -17.7409   19.7825 O   0  0  0  0  0  0  0  0  0  0  0  0
    7.5939  -11.6300   17.9705 O   0  0  0  0  0  0  0  0  0  0  0  0
    7.7717  -12.4978   19.0504 C   0  0  0  0  0  0  0  0  0  0  0  0
    9.0083  -12.6021   19.6232 C   0  0  0  0  0  0  0  0  0  0  0  0
    9.2107  -13.4626   20.7034 C   0  0  0  0  0  0  0  0  0  0  0  0
    8.1847  -14.2207   21.2161 C   0  0  0  0  0  0  0  0  0  0  0  0
    8.4316  -15.1199   22.3607 C   0  0  0  0  0  0  0  0  0  0  0  0
    9.2049  -16.3620   22.0081 C   0  0  2  0  0  0  0  0  0  0  0  0
    8.4137  -17.2247   21.1453 N   0  0  0  0  0  0  0  0  0  0  0  0
    9.5078  -17.0599   23.2809 C   0  0  0  0  0  0  0  0  0  0  0  0
    8.5642  -17.5679   23.9252 O   0  0  0  0  0  0  0  0  0  0  0  0
    6.9524  -14.0976   20.6229 C   0  0  0  0  0  0  0  0  0  0  0  0
    6.7383  -13.2529   19.5569 C   0  0  0  0  0  0  0  0  0  0  0  0
   10.8211  -17.1773   23.8012 N   0  0  0  0  0  0  0  0  0  0  0  0
   11.1783  -18.0716   24.8953 C   0  0  1  0  0  0  0  0  0  0  0  0
   11.6882  -19.3874   24.3496 C   0  0  0  0  0  0  0  0  0  0  0  0
   12.1063  -20.3533   25.4041 C   0  0  0  0  0  0  0  0  0  0  0  0
   12.6616  -21.6434   24.8036 C   0  0  0  0  0  0  0  0  0  0  0  0
   12.9467  -22.6673   25.8592 C   0  0  0  0  0  0  0  0  0  0  0  0
   13.4625  -23.8480   25.2196 N   0  0  0  0  0  0  0  0  0  0  0  0
   12.2143  -17.4368   25.7340 C   0  0  0  0  0  0  0  0  0  0  0  0
   13.0194  -16.5689   25.3214 O   0  0  0  0  0  0  0  0  0  0  0  0
   12.3327  -17.8026   27.0764 O   0  0  0  0  0  0  0  0  0  0  0  0
  2  4  1  0
  2  1  1  6
  3  2  1  0
  4  5  1  6
  6  4  1  0
  6  7  2  0
  8  9  1  0
  9 10  2  0
 10 11  1  0
 12 11  2  0
 12 13  1  0
 14 13  1  1
 14 15  1  0
 14 16  1  0
 15  6  1  0
 16 20  1  0
 17 16  2  0
 18 12  1  0
 19  9  1  0
 19 18  2  0
 20 21  1  0
 21 27  1  0
 22 23  1  0
 21 22  1  6
 24 23  1  0
 25 24  1  0
 26 25  1  0
 27 28  2  0
 27 29  1  0
M  END
$$$$
