TYK.pdb
     RDKit          3D

 29 29  0  0  1  0  0  0  0  0999 V2000
    7.1267  -17.7409   17.6598 C   0  0  0  0  0  0  0  0  0  0  0  0
    7.5609  -17.4067   19.0509 C   0  0  1  0  0  0  0  0  0  0  0  0
    8.1039  -18.4947   19.7367 O   0  0  0  0  0  0  0  0  0  0  0  0
    8.4613  -16.2076   19.1459 C   0  0  2  0  0  0  0  0  0  0  0  0
    9.6591  -16.3999   18.3907 N   0  0  0  0  0  0  0  0  0  0  0  0
    8.7846  -15.7981   20.5147 C   0  0  0  0  0  0  0  0  0  0  0  0
    9.8649  -16.1546   21.0632 O   0  0  0  0  0  0  0  0  0  0  0  0
    7.6443  -12.0702   28.5392 O   0  0  0  0  0  0  0  0  0  0  0  0
    7.5148  -12.4729   27.2081 C   0  0  0  0  0  0  0  0  0  0  0  0
    6.5142  -13.3404   26.8700 C   0  0  0  0  0  0  0  0  0  0  0  0
    6.3647  -13.7574   25.5464 C   0  0  0  0  0  0  0  0  0  0  0  0
    7.2092  -13.3131   24.5567 C   0  0  0  0  0  0  0  0  0  0  0  0
    7.0229  -13.7720   23.1659 C   0  0  0  0  0  0  0  0  0  0  0  0
    8.1585  -14.6075   22.6393 C   0  0  2  0  0  0  0  0  0  0  0  0
    7.9054  -14.9976   21.2615 N   0  0  0  0  0  0  0  0  0  0  0  0
    8.2444  -15.8128   23.4988 C   0  0  0  0  0  0  0  0  0  0  0  0
    7.3048  -16.6373   23.4707 O   0  0  0  0  0  0  0  0  0  0  0  0
    8.2061  -12.4423   24.9223 C   0  0  0  0  0  0  0  0  0  0  0  0
    8.3653  -12.0226   26.2240 C   0  0  0  0  0  0  0  0  0  0  0  0
    9.3457  -16.0731   24.3524 N   0  0  0  0  0  0  0  0  0  0  0  0
    9.4420  -17.2480   25.2096 C   0  0  1  0  0  0  0  0  0  0  0  0
   10.7416  -17.9783   24.9514 C   0  0  0  0  0  0  0  0  0  0  0  0
   10.9544  -19.1572   25.8372 C   0  0  0  0  0  0  0  0  0  0  0  0
   12.2297  -19.9161   25.4751 C   0  0  0  0  0  0  0  0  0  0  0  0
   12.5066  -21.0263   26.4419 C   0  0  0  0  0  0  0  0  0  0  0  0
   13.7978  -21.5824   26.1376 N   0  0  0  0  0  0  0  0  0  0  0  0
    9.3670  -16.8345   26.6249 C   0  0  0  0  0  0  0  0  0  0  0  0
    9.7530  -15.7216   27.0542 O   0  0  0  0  0  0  0  0  0  0  0  0
    8.8384  -17.7139   27.5719 O   0  0  0  0  0  0  0  0  0  0  0  0
  2  4  1  0
  2  1  1  6
  3  2  1  0
  4  5  1  6
  6  4  1  0
  6  7  2  0
  8  9  1  0
  9 10  2  0
 10 11  1  0
 12 11  2  0
 12 13  1  0
 14 13  1  1
 14 15  1  0
 14 16  1  0
 15  6  1  0
 16 20  1  0
 17 16  2  0
 18 12  1  0
 19  9  1  0
 19 18  2  0
 20 21  1  0
 21 27  1  0
 22 23  1  0
 21 22  1  1
 24 23  1  0
 25 24  1  0
 26 25  1  0
 27 28  2  0
 27 29  1  0
M  END
$$$$
