TYK.pdb
     RDKit          3D

 29 29  0  0  1  0  0  0  0  0999 V2000
   16.7742  -27.2297   28.5146 C   0  0  0  0  0  0  0  0  0  0  0  0
   15.8955  -26.5282   29.5002 C   0  0  1  0  0  0  0  0  0  0  0  0
   14.5398  -26.8180   29.3362 O   0  0  0  0  0  0  0  0  0  0  0  0
   16.3128  -26.7017   30.9331 C   0  0  2  0  0  0  0  0  0  0  0  0
   16.2071  -28.0674   31.3402 N   0  0  0  0  0  0  0  0  0  0  0  0
   15.6084  -25.8338   31.8799 C   0  0  0  0  0  0  0  0  0  0  0  0
   14.6992  -26.2895   32.6288 O   0  0  0  0  0  0  0  0  0  0  0  0
   18.1796  -26.6077   37.6788 O   0  0  0  0  0  0  0  0  0  0  0  0
   17.6585  -25.6968   36.7571 C   0  0  0  0  0  0  0  0  0  0  0  0
   18.2874  -25.5339   35.5546 C   0  0  0  0  0  0  0  0  0  0  0  0
   17.7857  -24.6295   34.6173 C   0  0  0  0  0  0  0  0  0  0  0  0
   16.6582  -23.8855   34.8735 C   0  0  0  0  0  0  0  0  0  0  0  0
   16.1522  -22.9387   33.8600 C   0  0  0  0  0  0  0  0  0  0  0  0
   15.2068  -23.5549   32.8642 C   0  0  2  0  0  0  0  0  0  0  0  0
   15.9195  -24.4687   31.9858 N   0  0  0  0  0  0  0  0  0  0  0  0
   14.6252  -22.4434   32.0736 C   0  0  0  0  0  0  0  0  0  0  0  0
   15.3989  -21.6210   31.5364 O   0  0  0  0  0  0  0  0  0  0  0  0
   16.0451  -24.0677   36.0886 C   0  0  0  0  0  0  0  0  0  0  0  0
   16.5290  -24.9563   37.0226 C   0  0  0  0  0  0  0  0  0  0  0  0
   13.2292  -22.2707   31.8989 N   0  0  0  0  0  0  0  0  0  0  0  0
   12.6436  -21.2366   31.0550 C   0  0  1  0  0  0  0  0  0  0  0  0
   12.8956  -21.5479   29.5960 C   0  0  0  0  0  0  0  0  0  0  0  0
   12.2359  -22.7984   29.1261 C   0  0  0  0  0  0  0  0  0  0  0  0
   12.5899  -23.1154   27.6743 C   0  0  0  0  0  0  0  0  0  0  0  0
   12.0680  -24.4563   27.2575 C   0  0  0  0  0  0  0  0  0  0  0  0
   12.2894  -24.6110   25.8447 N   0  0  0  0  0  0  0  0  0  0  0  0
   11.1919  -21.1536   31.3107 C   0  0  0  0  0  0  0  0  0  0  0  0
   10.4360  -20.2919   30.8029 O   0  0  0  0  0  0  0  0  0  0  0  0
   10.5900  -22.0775   32.1673 O   0  0  0  0  0  0  0  0  0  0  0  0
  2  4  1  0
  2  1  1  6
  3  2  1  0
  4  5  1  1
  6  4  1  0
  6  7  2  0
  8  9  1  0
  9 10  2  0
 10 11  1  0
 12 11  2  0
 12 13  1  0
 14 13  1  1
 14 15  1  0
 14 16  1  0
 15  6  1  0
 16 20  1  0
 17 16  2  0
 18 12  1  0
 19  9  1  0
 19 18  2  0
 20 21  1  0
 21 27  1  0
 22 23  1  0
 21 22  1  6
 24 23  1  0
 25 24  1  0
 26 25  1  0
 27 28  2  0
 27 29  1  0
M  END
$$$$
