TYK.pdb
     RDKit          3D

 29 29  0  0  1  0  0  0  0  0999 V2000
    4.5094  -21.1171   21.6878 C   0  0  0  0  0  0  0  0  0  0  0  0
    5.3060  -19.9224   22.1047 C   0  0  1  0  0  0  0  0  0  0  0  0
    6.0842  -19.3903   21.0750 O   0  0  0  0  0  0  0  0  0  0  0  0
    4.5014  -18.8485   22.7805 C   0  0  2  0  0  0  0  0  0  0  0  0
    3.4318  -18.4013   21.9450 N   0  0  0  0  0  0  0  0  0  0  0  0
    5.2883  -17.7065   23.2524 C   0  0  0  0  0  0  0  0  0  0  0  0
    5.3978  -16.6587   22.5557 O   0  0  0  0  0  0  0  0  0  0  0  0
   10.7601  -13.0356   28.5303 O   0  0  0  0  0  0  0  0  0  0  0  0
    9.8337  -13.9384   28.0036 C   0  0  0  0  0  0  0  0  0  0  0  0
   10.0806  -15.2790   28.1035 C   0  0  0  0  0  0  0  0  0  0  0  0
    9.1697  -16.2007   27.5847 C   0  0  0  0  0  0  0  0  0  0  0  0
    8.0121  -15.7917   26.9659 C   0  0  0  0  0  0  0  0  0  0  0  0
    7.0684  -16.7923   26.4293 C   0  0  0  0  0  0  0  0  0  0  0  0
    6.8461  -16.6899   24.9444 C   0  0  2  0  0  0  0  0  0  0  0  0
    5.9463  -17.7389   24.4922 N   0  0  0  0  0  0  0  0  0  0  0  0
    8.1706  -16.8452   24.2961 C   0  0  0  0  0  0  0  0  0  0  0  0
    8.7071  -17.9747   24.2918 O   0  0  0  0  0  0  0  0  0  0  0  0
    7.7876  -14.4398   26.8785 C   0  0  0  0  0  0  0  0  0  0  0  0
    8.6773  -13.5194   27.3858 C   0  0  0  0  0  0  0  0  0  0  0  0
    8.8575  -15.7691   23.6801 N   0  0  0  0  0  0  0  0  0  0  0  0
   10.0372  -15.9398   22.8410 C   0  0  1  0  0  0  0  0  0  0  0  0
   10.1930  -14.7564   21.9115 C   0  0  0  0  0  0  0  0  0  0  0  0
    9.3293  -14.8269   20.6995 C   0  0  0  0  0  0  0  0  0  0  0  0
    9.2419  -13.4790   19.9860 C   0  0  0  0  0  0  0  0  0  0  0  0
    8.4143  -13.5647   18.7404 C   0  0  0  0  0  0  0  0  0  0  0  0
    8.3440  -12.2547   18.1504 N   0  0  0  0  0  0  0  0  0  0  0  0
   11.2348  -16.0739   23.6939 C   0  0  0  0  0  0  0  0  0  0  0  0
   11.2275  -15.9513   24.9416 O   0  0  0  0  0  0  0  0  0  0  0  0
   12.4701  -16.3548   23.1067 O   0  0  0  0  0  0  0  0  0  0  0  0
  2  4  1  0
  2  1  1  6
  3  2  1  0
  4  5  1  6
  6  4  1  0
  6  7  2  0
  8  9  1  0
  9 10  2  0
 10 11  1  0
 12 11  2  0
 12 13  1  0
 14 13  1  1
 14 15  1  0
 14 16  1  0
 15  6  1  0
 16 20  1  0
 17 16  2  0
 18 12  1  0
 19  9  1  0
 19 18  2  0
 20 21  1  0
 21 27  1  0
 22 23  1  0
 21 22  1  6
 24 23  1  0
 25 24  1  0
 26 25  1  0
 27 28  2  0
 27 29  1  0
M  END
$$$$
