TYK.pdb
     RDKit          3D

 29 29  0  0  1  0  0  0  0  0999 V2000
    8.8534  -18.5294   18.0480 C   0  0  0  0  0  0  0  0  0  0  0  0
    9.0286  -18.0026   19.4363 C   0  0  1  0  0  0  0  0  0  0  0  0
    9.6661  -18.9023   20.2925 O   0  0  0  0  0  0  0  0  0  0  0  0
    9.6717  -16.6464   19.5060 C   0  0  2  0  0  0  0  0  0  0  0  0
   10.9769  -16.6631   18.9244 N   0  0  0  0  0  0  0  0  0  0  0  0
    9.7225  -16.0670   20.8504 C   0  0  0  0  0  0  0  0  0  0  0  0
   10.7722  -16.1344   21.5494 O   0  0  0  0  0  0  0  0  0  0  0  0
    6.8797  -12.0833   28.2794 O   0  0  0  0  0  0  0  0  0  0  0  0
    6.9623  -12.6130   26.9897 C   0  0  0  0  0  0  0  0  0  0  0  0
    7.8333  -12.0552   26.0962 C   0  0  0  0  0  0  0  0  0  0  0  0
    7.9338  -12.5670   24.8015 C   0  0  0  0  0  0  0  0  0  0  0  0
    7.1689  -13.6338   24.3926 C   0  0  0  0  0  0  0  0  0  0  0  0
    7.3004  -14.1524   23.0166 C   0  0  0  0  0  0  0  0  0  0  0  0
    8.5858  -14.8922   22.7612 C   0  0  2  0  0  0  0  0  0  0  0  0
    8.6076  -15.4191   21.4060 N   0  0  0  0  0  0  0  0  0  0  0  0
    8.6464  -16.0060   23.7382 C   0  0  0  0  0  0  0  0  0  0  0  0
    7.8102  -16.9310   23.6451 O   0  0  0  0  0  0  0  0  0  0  0  0
    6.3018  -14.1760   25.3091 C   0  0  0  0  0  0  0  0  0  0  0  0
    6.1924  -13.6814   26.5895 C   0  0  0  0  0  0  0  0  0  0  0  0
    9.6111  -16.0695   24.7749 N   0  0  0  0  0  0  0  0  0  0  0  0
    9.7549  -17.2075   25.6743 C   0  0  1  0  0  0  0  0  0  0  0  0
   10.9924  -18.0018   25.3183 C   0  0  0  0  0  0  0  0  0  0  0  0
   11.2611  -19.1405   26.2409 C   0  0  0  0  0  0  0  0  0  0  0  0
   12.4752  -19.9548   25.7982 C   0  0  0  0  0  0  0  0  0  0  0  0
   12.6848  -21.1546   26.6703 C   0  0  0  0  0  0  0  0  0  0  0  0
   13.7618  -21.9336   26.1204 N   0  0  0  0  0  0  0  0  0  0  0  0
    9.8456  -16.7275   27.0675 C   0  0  0  0  0  0  0  0  0  0  0  0
    9.4460  -17.3767   28.0628 O   0  0  0  0  0  0  0  0  0  0  0  0
   10.4064  -15.4758   27.3292 O   0  0  0  0  0  0  0  0  0  0  0  0
  2  4  1  0
  2  1  1  6
  3  2  1  0
  4  5  1  1
  6  4  1  0
  6  7  2  0
  8  9  1  0
  9 10  2  0
 10 11  1  0
 12 11  2  0
 12 13  1  0
 14 13  1  1
 14 15  1  0
 14 16  1  0
 15  6  1  0
 16 20  1  0
 17 16  2  0
 18 12  1  0
 19  9  1  0
 19 18  2  0
 20 21  1  0
 21 27  1  0
 22 23  1  0
 21 22  1  6
 24 23  1  0
 25 24  1  0
 26 25  1  0
 27 28  2  0
 27 29  1  0
M  END
$$$$
