TYK.pdb
     RDKit          3D

 29 29  0  0  1  0  0  0  0  0999 V2000
    6.3814  -16.3669   20.9372 C   0  0  0  0  0  0  0  0  0  0  0  0
    7.0957  -15.3901   20.0591 C   0  0  1  0  0  0  0  0  0  0  0  0
    6.4964  -15.2302   18.8084 O   0  0  0  0  0  0  0  0  0  0  0  0
    7.3595  -14.0584   20.7030 C   0  0  2  0  0  0  0  0  0  0  0  0
    7.8380  -13.1088   19.7484 N   0  0  0  0  0  0  0  0  0  0  0  0
    8.2561  -14.1106   21.8602 C   0  0  0  0  0  0  0  0  0  0  0  0
    9.5074  -14.0130   21.7196 O   0  0  0  0  0  0  0  0  0  0  0  0
   10.7139  -15.3550   30.3352 O   0  0  0  0  0  0  0  0  0  0  0  0
   10.0156  -15.0376   29.1679 C   0  0  0  0  0  0  0  0  0  0  0  0
    9.3134  -16.0186   28.5254 C   0  0  0  0  0  0  0  0  0  0  0  0
    8.6078  -15.7259   27.3573 C   0  0  0  0  0  0  0  0  0  0  0  0
    8.5988  -14.4580   26.8257 C   0  0  0  0  0  0  0  0  0  0  0  0
    7.8408  -14.1810   25.5894 C   0  0  0  0  0  0  0  0  0  0  0  0
    8.6064  -14.4643   24.3251 C   0  0  2  0  0  0  0  0  0  0  0  0
    7.7552  -14.2713   23.1621 N   0  0  0  0  0  0  0  0  0  0  0  0
    9.0533  -15.8764   24.3963 C   0  0  0  0  0  0  0  0  0  0  0  0
    8.1876  -16.7778   24.4355 O   0  0  0  0  0  0  0  0  0  0  0  0
    9.3119  -13.4906   27.4900 C   0  0  0  0  0  0  0  0  0  0  0  0
   10.0124  -13.7652   28.6432 C   0  0  0  0  0  0  0  0  0  0  0  0
   10.4201  -16.2513   24.4220 N   0  0  0  0  0  0  0  0  0  0  0  0
   10.8761  -17.6323   24.5204 C   0  0  1  0  0  0  0  0  0  0  0  0
   11.6483  -18.0175   23.2776 C   0  0  0  0  0  0  0  0  0  0  0  0
   10.8690  -17.8694   22.0164 C   0  0  0  0  0  0  0  0  0  0  0  0
   11.6941  -18.2581   20.7910 C   0  0  0  0  0  0  0  0  0  0  0  0
   10.8859  -18.1799   19.5321 C   0  0  0  0  0  0  0  0  0  0  0  0
   11.7313  -18.5420   18.4261 N   0  0  0  0  0  0  0  0  0  0  0  0
   11.7304  -17.7865   25.7145 C   0  0  0  0  0  0  0  0  0  0  0  0
   12.1923  -18.8819   26.1127 O   0  0  0  0  0  0  0  0  0  0  0  0
   12.0648  -16.6619   26.4715 O   0  0  0  0  0  0  0  0  0  0  0  0
  2  4  1  0
  2  1  1  1
  3  2  1  0
  4  5  1  6
  6  4  1  0
  6  7  2  0
  8  9  1  0
  9 10  2  0
 10 11  1  0
 12 11  2  0
 12 13  1  0
 14 13  1  1
 14 15  1  0
 14 16  1  0
 15  6  1  0
 16 20  1  0
 17 16  2  0
 18 12  1  0
 19  9  1  0
 19 18  2  0
 20 21  1  0
 21 27  1  0
 22 23  1  0
 21 22  1  6
 24 23  1  0
 25 24  1  0
 26 25  1  0
 27 28  2  0
 27 29  1  0
M  END
$$$$
