TYK.pdb
     RDKit          3D

 29 29  0  0  1  0  0  0  0  0999 V2000
    7.2635  -18.5925   20.1576 C   0  0  0  0  0  0  0  0  0  0  0  0
    8.3884  -18.1989   19.2546 C   0  0  1  0  0  0  0  0  0  0  0  0
    8.2813  -18.7378   17.9713 O   0  0  0  0  0  0  0  0  0  0  0  0
    8.6459  -16.7198   19.1969 C   0  0  2  0  0  0  0  0  0  0  0  0
    9.6788  -16.4115   18.2588 N   0  0  0  0  0  0  0  0  0  0  0  0
    8.9371  -16.1032   20.4934 C   0  0  0  0  0  0  0  0  0  0  0  0
   10.0832  -16.1958   21.0158 O   0  0  0  0  0  0  0  0  0  0  0  0
    7.3461  -12.0885   28.2714 O   0  0  0  0  0  0  0  0  0  0  0  0
    7.2322  -12.5923   26.9737 C   0  0  0  0  0  0  0  0  0  0  0  0
    7.9237  -11.9868   25.9621 C   0  0  0  0  0  0  0  0  0  0  0  0
    7.8259  -12.4720   24.6570 C   0  0  0  0  0  0  0  0  0  0  0  0
    7.0410  -13.5596   24.3551 C   0  0  0  0  0  0  0  0  0  0  0  0
    6.9606  -14.0491   22.9646 C   0  0  0  0  0  0  0  0  0  0  0  0
    8.1774  -14.8103   22.5120 C   0  0  2  0  0  0  0  0  0  0  0  0
    7.9534  -15.3905   21.1975 N   0  0  0  0  0  0  0  0  0  0  0  0
    8.4107  -15.8853   23.5063 C   0  0  0  0  0  0  0  0  0  0  0  0
    7.6016  -16.8370   23.5613 O   0  0  0  0  0  0  0  0  0  0  0  0
    6.3567  -14.1498   25.3891 C   0  0  0  0  0  0  0  0  0  0  0  0
    6.4438  -13.6819   26.6811 C   0  0  0  0  0  0  0  0  0  0  0  0
    9.5117  -15.8827   24.3992 N   0  0  0  0  0  0  0  0  0  0  0  0
    9.8326  -16.9931   25.2874 C   0  0  1  0  0  0  0  0  0  0  0  0
   11.1414  -17.6305   24.8754 C   0  0  0  0  0  0  0  0  0  0  0  0
   11.5686  -18.7506   25.7601 C   0  0  0  0  0  0  0  0  0  0  0  0
   12.8830  -19.3730   25.2927 C   0  0  0  0  0  0  0  0  0  0  0  0
   13.2576  -20.5630   26.1218 C   0  0  0  0  0  0  0  0  0  0  0  0
   14.4551  -21.1407   25.5727 N   0  0  0  0  0  0  0  0  0  0  0  0
    9.9242  -16.5033   26.6772 C   0  0  0  0  0  0  0  0  0  0  0  0
   10.3227  -15.3579   26.9948 O   0  0  0  0  0  0  0  0  0  0  0  0
    9.5516  -17.3428   27.7288 O   0  0  0  0  0  0  0  0  0  0  0  0
  2  4  1  0
  2  1  1  1
  3  2  1  0
  4  5  1  6
  6  4  1  0
  6  7  2  0
  8  9  1  0
  9 10  2  0
 10 11  1  0
 12 11  2  0
 12 13  1  0
 14 13  1  1
 14 15  1  0
 14 16  1  0
 15  6  1  0
 16 20  1  0
 17 16  2  0
 18 12  1  0
 19  9  1  0
 19 18  2  0
 20 21  1  0
 21 27  1  0
 22 23  1  0
 21 22  1  6
 24 23  1  0
 25 24  1  0
 26 25  1  0
 27 28  2  0
 27 29  1  0
M  END
$$$$
