TYK.pdb
     RDKit          3D

 29 29  0  0  1  0  0  0  0  0999 V2000
    5.8851  -13.8663   18.7990 C   0  0  0  0  0  0  0  0  0  0  0  0
    6.7531  -14.2653   19.9492 C   0  0  1  0  0  0  0  0  0  0  0  0
    7.6192  -15.3181   19.6488 O   0  0  0  0  0  0  0  0  0  0  0  0
    7.4940  -13.1253   20.5887 C   0  0  2  0  0  0  0  0  0  0  0  0
    8.3098  -12.4404   19.6361 N   0  0  0  0  0  0  0  0  0  0  0  0
    8.2882  -13.4992   21.7614 C   0  0  0  0  0  0  0  0  0  0  0  0
    9.5272  -13.7243   21.6641 O   0  0  0  0  0  0  0  0  0  0  0  0
   10.2545  -15.2181   30.2673 O   0  0  0  0  0  0  0  0  0  0  0  0
    9.6082  -14.8574   29.0827 C   0  0  0  0  0  0  0  0  0  0  0  0
    8.9302  -15.8121   28.3777 C   0  0  0  0  0  0  0  0  0  0  0  0
    8.2766  -15.4760   27.1911 C   0  0  0  0  0  0  0  0  0  0  0  0
    8.2956  -14.1907   26.7032 C   0  0  0  0  0  0  0  0  0  0  0  0
    7.5925  -13.8676   25.4459 C   0  0  0  0  0  0  0  0  0  0  0  0
    8.4313  -14.0529   24.2101 C   0  0  2  0  0  0  0  0  0  0  0  0
    7.6995  -13.6203   23.0303 N   0  0  0  0  0  0  0  0  0  0  0  0
    8.7424  -15.4993   24.1104 C   0  0  0  0  0  0  0  0  0  0  0  0
    7.9175  -16.2525   23.5484 O   0  0  0  0  0  0  0  0  0  0  0  0
    8.9836  -13.2505   27.4301 C   0  0  0  0  0  0  0  0  0  0  0  0
    9.6329  -13.5679   28.6021 C   0  0  0  0  0  0  0  0  0  0  0  0
    9.9348  -16.0678   24.6245 N   0  0  0  0  0  0  0  0  0  0  0  0
   10.4910  -17.3326   24.1600 C   0  0  1  0  0  0  0  0  0  0  0  0
   10.7742  -17.2651   22.6754 C   0  0  0  0  0  0  0  0  0  0  0  0
   11.4296  -18.4882   22.1328 C   0  0  0  0  0  0  0  0  0  0  0  0
   11.6239  -18.4040   20.6200 C   0  0  0  0  0  0  0  0  0  0  0  0
   12.6452  -19.3880   20.1376 C   0  0  0  0  0  0  0  0  0  0  0  0
   11.9855  -20.6412   19.8860 N   0  0  0  0  0  0  0  0  0  0  0  0
   11.7348  -17.6263   24.8991 C   0  0  0  0  0  0  0  0  0  0  0  0
   12.3200  -16.8066   25.6458 O   0  0  0  0  0  0  0  0  0  0  0  0
   12.3239  -18.8868   24.7819 O   0  0  0  0  0  0  0  0  0  0  0  0
  2  4  1  0
  2  1  1  6
  3  2  1  0
  4  5  1  6
  6  4  1  0
  6  7  2  0
  8  9  1  0
  9 10  2  0
 10 11  1  0
 12 11  2  0
 12 13  1  0
 14 13  1  1
 14 15  1  0
 14 16  1  0
 15  6  1  0
 16 20  1  0
 17 16  2  0
 18 12  1  0
 19  9  1  0
 19 18  2  0
 20 21  1  0
 21 27  1  0
 22 23  1  0
 21 22  1  6
 24 23  1  0
 25 24  1  0
 26 25  1  0
 27 28  2  0
 27 29  1  0
M  END
$$$$
