TYK.pdb
     RDKit          3D

 29 29  0  0  1  0  0  0  0  0999 V2000
    6.6249  -15.8366   20.0828 C   0  0  0  0  0  0  0  0  0  0  0  0
    7.2788  -14.6887   19.3825 C   0  0  1  0  0  0  0  0  0  0  0  0
    6.7001  -14.3928   18.1470 O   0  0  0  0  0  0  0  0  0  0  0  0
    7.4165  -13.4502   20.2220 C   0  0  2  0  0  0  0  0  0  0  0  0
    7.8369  -12.3354   19.4330 N   0  0  0  0  0  0  0  0  0  0  0  0
    8.2872  -13.6023   21.3902 C   0  0  0  0  0  0  0  0  0  0  0  0
    9.5443  -13.5618   21.2752 O   0  0  0  0  0  0  0  0  0  0  0  0
   10.6283  -15.2279   29.8260 O   0  0  0  0  0  0  0  0  0  0  0  0
    9.9136  -14.9447   28.6599 C   0  0  0  0  0  0  0  0  0  0  0  0
    9.9084  -13.6660   28.1771 C   0  0  0  0  0  0  0  0  0  0  0  0
    9.2015  -13.3584   27.0135 C   0  0  0  0  0  0  0  0  0  0  0  0
    8.4986  -14.3208   26.3280 C   0  0  0  0  0  0  0  0  0  0  0  0
    7.7625  -13.9629   25.0992 C   0  0  0  0  0  0  0  0  0  0  0  0
    8.5712  -14.1040   23.8379 C   0  0  2  0  0  0  0  0  0  0  0  0
    7.7543  -13.7987   22.6743 N   0  0  0  0  0  0  0  0  0  0  0  0
    9.0349  -15.5111   23.7754 C   0  0  0  0  0  0  0  0  0  0  0  0
    8.1973  -16.4081   23.5357 O   0  0  0  0  0  0  0  0  0  0  0  0
    8.5198  -15.5973   26.8337 C   0  0  0  0  0  0  0  0  0  0  0  0
    9.2128  -15.9150   27.9803 C   0  0  0  0  0  0  0  0  0  0  0  0
   10.3872  -15.8860   23.9756 N   0  0  0  0  0  0  0  0  0  0  0  0
   10.8632  -17.2614   23.8962 C   0  0  1  0  0  0  0  0  0  0  0  0
   11.7699  -17.4321   22.6971 C   0  0  0  0  0  0  0  0  0  0  0  0
   11.7570  -18.8079   22.1255 C   0  0  0  0  0  0  0  0  0  0  0  0
   12.7039  -18.9359   20.9336 C   0  0  0  0  0  0  0  0  0  0  0  0
   12.7348  -20.3349   20.3991 C   0  0  0  0  0  0  0  0  0  0  0  0
   13.6124  -20.3668   19.2598 N   0  0  0  0  0  0  0  0  0  0  0  0
   11.5916  -17.6043   25.1337 C   0  0  0  0  0  0  0  0  0  0  0  0
   11.7366  -18.7728   25.5641 O   0  0  0  0  0  0  0  0  0  0  0  0
   12.1679  -16.5873   25.8975 O   0  0  0  0  0  0  0  0  0  0  0  0
  2  4  1  0
  2  1  1  1
  3  2  1  0
  4  5  1  6
  6  4  1  0
  6  7  2  0
  8  9  1  0
  9 10  2  0
 10 11  1  0
 12 11  2  0
 12 13  1  0
 14 13  1  1
 14 15  1  0
 14 16  1  0
 15  6  1  0
 16 20  1  0
 17 16  2  0
 18 12  1  0
 19  9  1  0
 19 18  2  0
 20 21  1  0
 21 27  1  0
 22 23  1  0
 21 22  1  6
 24 23  1  0
 25 24  1  0
 26 25  1  0
 27 28  2  0
 27 29  1  0
M  END
$$$$
