SKG.pdb
     RDKit          3D

 20 19  0  0  1  0  0  0  0  0999 V2000
   15.9283  -10.5017  -14.3871 O   0  0  0  0  0  0  0  0  0  0  0  0
   17.2911  -10.5659  -14.6696 C   0  0  0  0  0  0  0  0  0  0  0  0
   17.8503   -9.1541  -14.6415 C   0  0  2  0  0  0  0  0  0  0  0  0
   17.3184   -8.4106  -15.7384 N   0  0  0  0  0  0  0  0  0  0  0  0
   19.3215   -9.1422  -14.5731 C   0  0  0  0  0  0  0  0  0  0  0  0
   19.9604   -9.7361  -13.6443 O   0  0  0  0  0  0  0  0  0  0  0  0
   20.0532   -8.4531  -15.5646 N   0  0  0  0  0  0  0  0  0  0  0  0
   21.4963   -8.4410  -15.6554 C   0  0  1  0  0  0  0  0  0  0  0  0
   21.8805   -8.7879  -17.0537 C   0  0  0  0  0  0  0  0  0  0  0  0
   22.0718  -10.2491  -17.3033 C   0  0  0  0  0  0  0  0  0  0  0  0
   21.0726  -10.8529  -18.2363 C   0  0  0  0  0  0  0  0  0  0  0  0
   21.3840  -12.3362  -18.3492 C   0  0  0  0  0  0  0  0  0  0  0  0
   20.4582  -12.9766  -19.2625 N   0  0  0  0  0  0  0  0  0  0  0  0
   21.9680   -7.0473  -15.3904 C   0  0  0  0  0  0  0  0  0  0  0  0
   23.1682   -6.6983  -15.5363 O   0  0  0  0  0  0  0  0  0  0  0  0
   21.0488   -6.0517  -14.9548 N   0  0  0  0  0  0  0  0  0  0  0  0
   21.4121   -4.7038  -14.6564 C   0  0  0  0  0  0  0  0  0  0  0  0
   21.6131   -4.4517  -13.2227 C   0  0  0  0  0  0  0  0  0  0  0  0
   21.5844   -5.4174  -12.4221 O   0  0  0  0  0  0  0  0  0  0  0  0
   21.8359   -3.1926  -12.6940 O   0  0  0  0  0  0  0  0  0  0  0  0
  2  1  1  0
  3  2  1  0
  3  4  1  6
  5  3  1  0
  6  5  2  0
  7  5  1  0
  8  9  1  6
  8  7  1  0
 10  9  1  0
 11 12  1  0
 11 10  1  0
 13 12  1  0
 14 15  2  0
 14  8  1  0
 16 14  1  0
 17 16  1  0
 18 17  1  0
 18 20  1  0
 19 18  2  0
M  END
$$$$
