SKG.pdb
     RDKit          3D

 20 19  0  0  1  0  0  0  0  0999 V2000
   27.8196  -19.2079  -17.2012 O   0  0  0  0  0  0  0  0  0  0  0  0
   26.7248  -20.0578  -17.0575 C   0  0  0  0  0  0  0  0  0  0  0  0
   27.1459  -21.2349  -16.1950 C   0  0  2  0  0  0  0  0  0  0  0  0
   27.6160  -22.2924  -17.0314 N   0  0  0  0  0  0  0  0  0  0  0  0
   26.0843  -21.6440  -15.2597 C   0  0  0  0  0  0  0  0  0  0  0  0
   25.2102  -22.5181  -15.5688 O   0  0  0  0  0  0  0  0  0  0  0  0
   26.0273  -21.0532  -13.9787 N   0  0  0  0  0  0  0  0  0  0  0  0
   24.9295  -21.2151  -13.0517 C   0  0  1  0  0  0  0  0  0  0  0  0
   25.4146  -20.8660  -11.6857 C   0  0  0  0  0  0  0  0  0  0  0  0
   24.4271  -21.1136  -10.5913 C   0  0  0  0  0  0  0  0  0  0  0  0
   24.9335  -20.8033   -9.2199 C   0  0  0  0  0  0  0  0  0  0  0  0
   23.8314  -21.1486   -8.2319 C   0  0  0  0  0  0  0  0  0  0  0  0
   24.2072  -20.7352   -6.8942 N   0  0  0  0  0  0  0  0  0  0  0  0
   23.8631  -20.2329  -13.4164 C   0  0  0  0  0  0  0  0  0  0  0  0
   24.0987  -19.0088  -13.5884 O   0  0  0  0  0  0  0  0  0  0  0  0
   22.5177  -20.6667  -13.5835 N   0  0  0  0  0  0  0  0  0  0  0  0
   21.4197  -19.7891  -13.8319 C   0  0  0  0  0  0  0  0  0  0  0  0
   20.1446  -20.4872  -14.0469 C   0  0  0  0  0  0  0  0  0  0  0  0
   19.5082  -20.9175  -13.0546 O   0  0  0  0  0  0  0  0  0  0  0  0
   19.5946  -20.7022  -15.2981 O   0  0  0  0  0  0  0  0  0  0  0  0
  2  1  1  0
  3  2  1  0
  3  4  1  6
  5  3  1  0
  6  5  2  0
  7  5  1  0
  8  9  1  1
  8  7  1  0
 10  9  1  0
 11 12  1  0
 11 10  1  0
 13 12  1  0
 14 15  2  0
 14  8  1  0
 16 14  1  0
 17 16  1  0
 18 17  1  0
 18 20  1  0
 19 18  2  0
M  END
$$$$
