SKG.pdb
     RDKit          3D

 20 19  0  0  1  0  0  0  0  0999 V2000
   24.7438   -9.1143  -19.9590 O   0  0  0  0  0  0  0  0  0  0  0  0
   23.8804   -8.3878  -19.1417 C   0  0  0  0  0  0  0  0  0  0  0  0
   22.5543   -9.1253  -19.0751 C   0  0  2  0  0  0  0  0  0  0  0  0
   22.0735   -9.3584  -20.3993 N   0  0  0  0  0  0  0  0  0  0  0  0
   21.5842   -8.4429  -18.2020 C   0  0  0  0  0  0  0  0  0  0  0  0
   20.9148   -7.4322  -18.5945 O   0  0  0  0  0  0  0  0  0  0  0  0
   21.3846   -8.9182  -16.8876 N   0  0  0  0  0  0  0  0  0  0  0  0
   20.4577   -8.3392  -15.9407 C   0  0  1  0  0  0  0  0  0  0  0  0
   19.8565   -9.4432  -15.1390 C   0  0  0  0  0  0  0  0  0  0  0  0
   18.5634   -9.9688  -15.6734 C   0  0  0  0  0  0  0  0  0  0  0  0
   18.0013  -11.1225  -14.9075 C   0  0  0  0  0  0  0  0  0  0  0  0
   16.6601  -11.4786  -15.5275 C   0  0  0  0  0  0  0  0  0  0  0  0
   16.1198  -12.6720  -14.9069 N   0  0  0  0  0  0  0  0  0  0  0  0
   21.2323   -7.4704  -15.0025 C   0  0  0  0  0  0  0  0  0  0  0  0
   22.3990   -7.7521  -14.6242 O   0  0  0  0  0  0  0  0  0  0  0  0
   20.6565   -6.2700  -14.4988 N   0  0  0  0  0  0  0  0  0  0  0  0
   21.3363   -5.3577  -13.6365 C   0  0  0  0  0  0  0  0  0  0  0  0
   22.1586   -4.3724  -14.3523 C   0  0  0  0  0  0  0  0  0  0  0  0
   22.2899   -4.4736  -15.5961 O   0  0  0  0  0  0  0  0  0  0  0  0
   22.8073   -3.3225  -13.7268 O   0  0  0  0  0  0  0  0  0  0  0  0
  2  1  1  0
  3  2  1  0
  3  4  1  6
  5  3  1  0
  6  5  2  0
  7  5  1  0
  8  9  1  1
  8  7  1  0
 10  9  1  0
 11 12  1  0
 11 10  1  0
 13 12  1  0
 14 15  2  0
 14  8  1  0
 16 14  1  0
 17 16  1  0
 18 17  1  0
 18 20  1  0
 19 18  2  0
M  END
$$$$
