SKG.pdb
     RDKit          3D

 20 19  0  0  1  0  0  0  0  0999 V2000
   15.8207   -6.6786  -15.7372 O   0  0  0  0  0  0  0  0  0  0  0  0
   16.8490   -7.0612  -14.8784 C   0  0  0  0  0  0  0  0  0  0  0  0
   17.1423   -8.5328  -15.1126 C   0  0  2  0  0  0  0  0  0  0  0  0
   16.0687   -9.3194  -14.5952 N   0  0  0  0  0  0  0  0  0  0  0  0
   18.4662   -8.9225  -14.5981 C   0  0  0  0  0  0  0  0  0  0  0  0
   18.6114   -9.4978  -13.4705 O   0  0  0  0  0  0  0  0  0  0  0  0
   19.6149   -8.6530  -15.3735 N   0  0  0  0  0  0  0  0  0  0  0  0
   20.9449   -9.1229  -15.0553 C   0  0  1  0  0  0  0  0  0  0  0  0
   21.5690   -9.6440  -16.3051 C   0  0  0  0  0  0  0  0  0  0  0  0
   21.0324  -10.9601  -16.7678 C   0  0  0  0  0  0  0  0  0  0  0  0
   21.6369  -11.4615  -18.0393 C   0  0  0  0  0  0  0  0  0  0  0  0
   21.0469  -12.8335  -18.3212 C   0  0  0  0  0  0  0  0  0  0  0  0
   21.5789  -13.3651  -19.5605 N   0  0  0  0  0  0  0  0  0  0  0  0
   21.7559   -7.9524  -14.6001 C   0  0  0  0  0  0  0  0  0  0  0  0
   22.9768   -8.0452  -14.3092 O   0  0  0  0  0  0  0  0  0  0  0  0
   21.1539   -6.6682  -14.4802 N   0  0  0  0  0  0  0  0  0  0  0  0
   21.8245   -5.5151  -13.9719 C   0  0  0  0  0  0  0  0  0  0  0  0
   21.0441   -4.2764  -14.0983 C   0  0  0  0  0  0  0  0  0  0  0  0
   21.5216   -3.2047  -13.6530 O   0  0  0  0  0  0  0  0  0  0  0  0
   19.7939   -4.2198  -14.6883 O   0  0  0  0  0  0  0  0  0  0  0  0
  2  1  1  0
  3  2  1  0
  3  4  1  1
  5  3  1  0
  6  5  2  0
  7  5  1  0
  8  9  1  6
  8  7  1  0
 10  9  1  0
 11 12  1  0
 11 10  1  0
 13 12  1  0
 14 15  2  0
 14  8  1  0
 16 14  1  0
 17 16  1  0
 18 17  1  0
 18 20  1  0
 19 18  2  0
M  END
$$$$
