SKG.pdb
     RDKit          3D

 20 19  0  0  1  0  0  0  0  0999 V2000
   26.2264  -13.6797  -17.6634 O   0  0  0  0  0  0  0  0  0  0  0  0
   25.1218  -12.8631  -17.8964 C   0  0  0  0  0  0  0  0  0  0  0  0
   25.3574  -11.5336  -17.2009 C   0  0  2  0  0  0  0  0  0  0  0  0
   25.7469  -11.7680  -15.8473 N   0  0  0  0  0  0  0  0  0  0  0  0
   24.2069  -10.6245  -17.3394 C   0  0  0  0  0  0  0  0  0  0  0  0
   23.7873  -10.2327  -18.4770 O   0  0  0  0  0  0  0  0  0  0  0  0
   23.5434  -10.1689  -16.1794 N   0  0  0  0  0  0  0  0  0  0  0  0
   22.4264   -9.2507  -16.1839 C   0  0  1  0  0  0  0  0  0  0  0  0
   21.2314   -9.9645  -15.6494 C   0  0  0  0  0  0  0  0  0  0  0  0
   19.9657   -9.1700  -15.6795 C   0  0  0  0  0  0  0  0  0  0  0  0
   18.7496   -9.9285  -15.2561 C   0  0  0  0  0  0  0  0  0  0  0  0
   17.5481   -9.0170  -15.4449 C   0  0  0  0  0  0  0  0  0  0  0  0
   16.3233   -9.7285  -15.1365 N   0  0  0  0  0  0  0  0  0  0  0  0
   22.7403   -8.1307  -15.2447 C   0  0  0  0  0  0  0  0  0  0  0  0
   23.1539   -8.3247  -14.0721 O   0  0  0  0  0  0  0  0  0  0  0  0
   22.5758   -6.7798  -15.6620 N   0  0  0  0  0  0  0  0  0  0  0  0
   22.7833   -5.6502  -14.8142 C   0  0  0  0  0  0  0  0  0  0  0  0
   21.6512   -5.3684  -13.9207 C   0  0  0  0  0  0  0  0  0  0  0  0
   21.7602   -4.4580  -13.0641 O   0  0  0  0  0  0  0  0  0  0  0  0
   20.4526   -6.0580  -13.9681 O   0  0  0  0  0  0  0  0  0  0  0  0
  2  1  1  0
  3  2  1  0
  3  4  1  1
  5  3  1  0
  6  5  2  0
  7  5  1  0
  8  9  1  1
  8  7  1  0
 10  9  1  0
 11 12  1  0
 11 10  1  0
 13 12  1  0
 14 15  2  0
 14  8  1  0
 16 14  1  0
 17 16  1  0
 18 17  1  0
 18 20  1  0
 19 18  2  0
M  END
$$$$
