SKG.pdb
     RDKit          3D

 20 19  0  0  1  0  0  0  0  0999 V2000
   17.0669   -5.8120  -16.7421 O   0  0  0  0  0  0  0  0  0  0  0  0
   16.9965   -6.6476  -17.8547 C   0  0  0  0  0  0  0  0  0  0  0  0
   16.8660   -8.0801  -17.3669 C   0  0  2  0  0  0  0  0  0  0  0  0
   15.6056   -8.2476  -16.7171 N   0  0  0  0  0  0  0  0  0  0  0  0
   18.0173   -8.4928  -16.5464 C   0  0  0  0  0  0  0  0  0  0  0  0
   17.9085   -8.7319  -15.2996 O   0  0  0  0  0  0  0  0  0  0  0  0
   19.2845   -8.6297  -17.1538 N   0  0  0  0  0  0  0  0  0  0  0  0
   20.4705   -9.1008  -16.4740 C   0  0  1  0  0  0  0  0  0  0  0  0
   21.2720   -9.9095  -17.4367 C   0  0  0  0  0  0  0  0  0  0  0  0
   20.7037  -11.2576  -17.7427 C   0  0  0  0  0  0  0  0  0  0  0  0
   21.5346  -12.0824  -18.6716 C   0  0  0  0  0  0  0  0  0  0  0  0
   20.7671  -13.3608  -18.9657 C   0  0  0  0  0  0  0  0  0  0  0  0
   21.4774  -14.1605  -19.9440 N   0  0  0  0  0  0  0  0  0  0  0  0
   21.2913   -7.9115  -16.0909 C   0  0  0  0  0  0  0  0  0  0  0  0
   21.5093   -6.9555  -16.8797 O   0  0  0  0  0  0  0  0  0  0  0  0
   21.8631   -7.8258  -14.7902 N   0  0  0  0  0  0  0  0  0  0  0  0
   22.6337   -6.7170  -14.3271 C   0  0  0  0  0  0  0  0  0  0  0  0
   21.8240   -5.6439  -13.7335 C   0  0  0  0  0  0  0  0  0  0  0  0
   20.5747   -5.6894  -13.8417 O   0  0  0  0  0  0  0  0  0  0  0  0
   22.3653   -4.5688  -13.0512 O   0  0  0  0  0  0  0  0  0  0  0  0
  2  1  1  0
  3  2  1  0
  3  4  1  1
  5  3  1  0
  6  5  2  0
  7  5  1  0
  8  9  1  6
  8  7  1  0
 10  9  1  0
 11 12  1  0
 11 10  1  0
 13 12  1  0
 14 15  2  0
 14  8  1  0
 16 14  1  0
 17 16  1  0
 18 17  1  0
 18 20  1  0
 19 18  2  0
M  END
$$$$
