SKG.pdb
     RDKit          3D

 20 19  0  0  1  0  0  0  0  0999 V2000
   14.0236  -10.2060  -10.6434 O   0  0  0  0  0  0  0  0  0  0  0  0
   15.2626  -10.3635  -11.2611 C   0  0  0  0  0  0  0  0  0  0  0  0
   16.1781   -9.2501  -10.7825 C   0  0  2  0  0  0  0  0  0  0  0  0
   15.5197   -7.9930  -10.9402 N   0  0  0  0  0  0  0  0  0  0  0  0
   17.5042   -9.3108  -11.4205 C   0  0  0  0  0  0  0  0  0  0  0  0
   18.2961  -10.2931  -11.2430 O   0  0  0  0  0  0  0  0  0  0  0  0
   17.9174   -8.2506  -12.2563 N   0  0  0  0  0  0  0  0  0  0  0  0
   19.1224   -8.2614  -13.0555 C   0  0  1  0  0  0  0  0  0  0  0  0
   18.7313   -8.3587  -14.4910 C   0  0  0  0  0  0  0  0  0  0  0  0
   19.0778   -9.6575  -15.1448 C   0  0  0  0  0  0  0  0  0  0  0  0
   18.5636   -9.8035  -16.5404 C   0  0  0  0  0  0  0  0  0  0  0  0
   18.8608  -11.2228  -16.9956 C   0  0  0  0  0  0  0  0  0  0  0  0
   18.4169  -11.4164  -18.3619 N   0  0  0  0  0  0  0  0  0  0  0  0
   19.8192   -6.9525  -12.8654 C   0  0  0  0  0  0  0  0  0  0  0  0
   19.1989   -5.8792  -12.6486 O   0  0  0  0  0  0  0  0  0  0  0  0
   21.2396   -6.8827  -12.9261 N   0  0  0  0  0  0  0  0  0  0  0  0
   21.9955   -5.7071  -12.6358 C   0  0  0  0  0  0  0  0  0  0  0  0
   21.8243   -4.6368  -13.6280 C   0  0  0  0  0  0  0  0  0  0  0  0
   22.4435   -3.5562  -13.4748 O   0  0  0  0  0  0  0  0  0  0  0  0
   21.0080   -4.7509  -14.7393 O   0  0  0  0  0  0  0  0  0  0  0  0
  2  1  1  0
  3  2  1  0
  3  4  1  6
  5  3  1  0
  6  5  2  0
  7  5  1  0
  8  9  1  6
  8  7  1  0
 10  9  1  0
 11 12  1  0
 11 10  1  0
 13 12  1  0
 14 15  2  0
 14  8  1  0
 16 14  1  0
 17 16  1  0
 18 17  1  0
 18 20  1  0
 19 18  2  0
M  END
$$$$
