SKG.pdb
     RDKit          3D

 20 19  0  0  1  0  0  0  0  0999 V2000
   11.2389   -9.5624  -11.4814 O   0  0  0  0  0  0  0  0  0  0  0  0
   12.6168   -9.3704  -11.5571 C   0  0  0  0  0  0  0  0  0  0  0  0
   13.2873  -10.7332  -11.5724 C   0  0  2  0  0  0  0  0  0  0  0  0
   12.9662  -11.4340  -10.3704 N   0  0  0  0  0  0  0  0  0  0  0  0
   14.7331  -10.6362  -11.8358 C   0  0  0  0  0  0  0  0  0  0  0  0
   15.5793  -10.4438  -10.9028 O   0  0  0  0  0  0  0  0  0  0  0  0
   15.2032  -10.7595  -13.1614 N   0  0  0  0  0  0  0  0  0  0  0  0
   16.5955  -10.6880  -13.5451 C   0  0  1  0  0  0  0  0  0  0  0  0
   16.8380  -11.6951  -14.6175 C   0  0  0  0  0  0  0  0  0  0  0  0
   16.8534  -13.1140  -14.1480 C   0  0  0  0  0  0  0  0  0  0  0  0
   17.0855  -14.1201  -15.2285 C   0  0  0  0  0  0  0  0  0  0  0  0
   17.0576  -15.4987  -14.5892 C   0  0  0  0  0  0  0  0  0  0  0  0
   17.2452  -16.5243  -15.5963 N   0  0  0  0  0  0  0  0  0  0  0  0
   16.8485   -9.3358  -14.1304 C   0  0  0  0  0  0  0  0  0  0  0  0
   16.0338   -8.7682  -14.9035 O   0  0  0  0  0  0  0  0  0  0  0  0
   18.0486   -8.6356  -13.8212 N   0  0  0  0  0  0  0  0  0  0  0  0
   18.4193   -7.3873  -14.4062 C   0  0  0  0  0  0  0  0  0  0  0  0
   17.7646   -6.2279  -13.7843 C   0  0  0  0  0  0  0  0  0  0  0  0
   16.8832   -6.4187  -12.9117 O   0  0  0  0  0  0  0  0  0  0  0  0
   18.0667   -4.9172  -14.1083 O   0  0  0  0  0  0  0  0  0  0  0  0
  2  1  1  0
  3  2  1  0
  3  4  1  1
  5  3  1  0
  6  5  2  0
  7  5  1  0
  8  9  1  6
  8  7  1  0
 10  9  1  0
 11 12  1  0
 11 10  1  0
 13 12  1  0
 14 15  2  0
 14  8  1  0
 16 14  1  0
 17 16  1  0
 18 17  1  0
 18 20  1  0
 19 18  2  0
M  END
$$$$
