SKG.pdb
     RDKit          3D

 20 19  0  0  1  0  0  0  0  0999 V2000
   15.5613  -10.2432  -14.7760 O   0  0  0  0  0  0  0  0  0  0  0  0
   16.8788  -10.0305  -14.3755 C   0  0  0  0  0  0  0  0  0  0  0  0
   17.7983  -10.6243  -15.4284 C   0  0  2  0  0  0  0  0  0  0  0  0
   17.7907  -12.0479  -15.3173 N   0  0  0  0  0  0  0  0  0  0  0  0
   19.1460  -10.0319  -15.3845 C   0  0  0  0  0  0  0  0  0  0  0  0
   20.0934  -10.5548  -14.7117 O   0  0  0  0  0  0  0  0  0  0  0  0
   19.4035   -8.8474  -16.1084 N   0  0  0  0  0  0  0  0  0  0  0  0
   20.7009   -8.2172  -16.2105 C   0  0  1  0  0  0  0  0  0  0  0  0
   20.8091   -7.5835  -17.5558 C   0  0  0  0  0  0  0  0  0  0  0  0
   21.0798   -8.5375  -18.6742 C   0  0  0  0  0  0  0  0  0  0  0  0
   21.1167   -7.9074  -20.0289 C   0  0  0  0  0  0  0  0  0  0  0  0
   21.2776   -9.0204  -21.0513 C   0  0  0  0  0  0  0  0  0  0  0  0
   21.2422   -8.4781  -22.3952 N   0  0  0  0  0  0  0  0  0  0  0  0
   20.7703   -7.1261  -15.1910 C   0  0  0  0  0  0  0  0  0  0  0  0
   19.8193   -6.3276  -14.9863 O   0  0  0  0  0  0  0  0  0  0  0  0
   21.9439   -6.9562  -14.4037 N   0  0  0  0  0  0  0  0  0  0  0  0
   22.1137   -5.9221  -13.4344 C   0  0  0  0  0  0  0  0  0  0  0  0
   22.2524   -4.5819  -14.0209 C   0  0  0  0  0  0  0  0  0  0  0  0
   22.5312   -3.6132  -13.2736 O   0  0  0  0  0  0  0  0  0  0  0  0
   22.0914   -4.3197  -15.3699 O   0  0  0  0  0  0  0  0  0  0  0  0
  2  1  1  0
  3  2  1  0
  3  4  1  1
  5  3  1  0
  6  5  2  0
  7  5  1  0
  8  9  1  6
  8  7  1  0
 10  9  1  0
 11 12  1  0
 11 10  1  0
 13 12  1  0
 14 15  2  0
 14  8  1  0
 16 14  1  0
 17 16  1  0
 18 17  1  0
 18 20  1  0
 19 18  2  0
M  END
$$$$
