SKG.pdb
     RDKit          3D

 20 19  0  0  1  0  0  0  0  0999 V2000
   23.4713  -12.1965  -14.6427 O   0  0  0  0  0  0  0  0  0  0  0  0
   23.1861  -10.9633  -15.2252 C   0  0  0  0  0  0  0  0  0  0  0  0
   22.7012  -11.2074  -16.6436 C   0  0  2  0  0  0  0  0  0  0  0  0
   23.6828  -11.9585  -17.3585 N   0  0  0  0  0  0  0  0  0  0  0  0
   22.3028   -9.9587  -17.3154 C   0  0  0  0  0  0  0  0  0  0  0  0
   22.8973   -9.5324  -18.3587 O   0  0  0  0  0  0  0  0  0  0  0  0
   21.2294   -9.2054  -16.7924 N   0  0  0  0  0  0  0  0  0  0  0  0
   20.6951   -8.0093  -17.4046 C   0  0  1  0  0  0  0  0  0  0  0  0
   19.2272   -7.9668  -17.1466 C   0  0  0  0  0  0  0  0  0  0  0  0
   18.4090   -8.8221  -18.0594 C   0  0  0  0  0  0  0  0  0  0  0  0
   17.2565   -9.5058  -17.3978 C   0  0  0  0  0  0  0  0  0  0  0  0
   16.5599  -10.3562  -18.4474 C   0  0  0  0  0  0  0  0  0  0  0  0
   15.4402  -11.0644  -17.8593 N   0  0  0  0  0  0  0  0  0  0  0  0
   21.3068   -6.8258  -16.7263 C   0  0  0  0  0  0  0  0  0  0  0  0
   21.0425   -5.6414  -17.0596 O   0  0  0  0  0  0  0  0  0  0  0  0
   22.2286   -7.0111  -15.6575 N   0  0  0  0  0  0  0  0  0  0  0  0
   22.8797   -5.9434  -14.9692 C   0  0  0  0  0  0  0  0  0  0  0  0
   22.1430   -5.4665  -13.7905 C   0  0  0  0  0  0  0  0  0  0  0  0
   20.9837   -5.8974  -13.5784 O   0  0  0  0  0  0  0  0  0  0  0  0
   22.6594   -4.5561  -12.8856 O   0  0  0  0  0  0  0  0  0  0  0  0
  2  1  1  0
  3  2  1  0
  3  4  1  6
  5  3  1  0
  6  5  2  0
  7  5  1  0
  8  9  1  1
  8  7  1  0
 10  9  1  0
 11 12  1  0
 11 10  1  0
 13 12  1  0
 14 15  2  0
 14  8  1  0
 16 14  1  0
 17 16  1  0
 18 17  1  0
 18 20  1  0
 19 18  2  0
M  END
$$$$
