SKG.pdb
     RDKit          3D

 20 19  0  0  1  0  0  0  0  0999 V2000
   27.7397  -11.3738  -15.2999 O   0  0  0  0  0  0  0  0  0  0  0  0
   26.8984  -10.3308  -15.6815 C   0  0  0  0  0  0  0  0  0  0  0  0
   25.7033  -10.9242  -16.4071 C   0  0  2  0  0  0  0  0  0  0  0  0
   26.1494  -11.6002  -17.5831 N   0  0  0  0  0  0  0  0  0  0  0  0
   24.6548   -9.9212  -16.6598 C   0  0  0  0  0  0  0  0  0  0  0  0
   24.6408   -9.2082  -17.7157 O   0  0  0  0  0  0  0  0  0  0  0  0
   23.6297   -9.7388  -15.7061 N   0  0  0  0  0  0  0  0  0  0  0  0
   22.5436   -8.7941  -15.8438 C   0  0  1  0  0  0  0  0  0  0  0  0
   21.2620   -9.5149  -15.5969 C   0  0  0  0  0  0  0  0  0  0  0  0
   20.8082  -10.3838  -16.7253 C   0  0  0  0  0  0  0  0  0  0  0  0
   19.5329  -11.1184  -16.4655 C   0  0  0  0  0  0  0  0  0  0  0  0
   19.3246  -12.0996  -17.6074 C   0  0  0  0  0  0  0  0  0  0  0  0
   18.2083  -12.9781  -17.3187 N   0  0  0  0  0  0  0  0  0  0  0  0
   22.6906   -7.7568  -14.7773 C   0  0  0  0  0  0  0  0  0  0  0  0
   22.7795   -8.0475  -13.5562 O   0  0  0  0  0  0  0  0  0  0  0  0
   22.7350   -6.3767  -15.1230 N   0  0  0  0  0  0  0  0  0  0  0  0
   22.8175   -5.3163  -14.1710 C   0  0  0  0  0  0  0  0  0  0  0  0
   21.5391   -4.6283  -13.9434 C   0  0  0  0  0  0  0  0  0  0  0  0
   20.5087   -5.0442  -14.5263 O   0  0  0  0  0  0  0  0  0  0  0  0
   21.4011   -3.5316  -13.1113 O   0  0  0  0  0  0  0  0  0  0  0  0
  2  1  1  0
  3  2  1  0
  3  4  1  6
  5  3  1  0
  6  5  2  0
  7  5  1  0
  8  9  1  1
  8  7  1  0
 10  9  1  0
 11 12  1  0
 11 10  1  0
 13 12  1  0
 14 15  2  0
 14  8  1  0
 16 14  1  0
 17 16  1  0
 18 17  1  0
 18 20  1  0
 19 18  2  0
M  END
$$$$
