SKG.pdb
     RDKit          3D

 20 19  0  0  1  0  0  0  0  0999 V2000
   26.9228  -11.2052  -15.3325 O   0  0  0  0  0  0  0  0  0  0  0  0
   26.0344  -10.1515  -15.5364 C   0  0  0  0  0  0  0  0  0  0  0  0
   24.7411  -10.7201  -16.0941 C   0  0  2  0  0  0  0  0  0  0  0  0
   25.0167  -11.4316  -17.3011 N   0  0  0  0  0  0  0  0  0  0  0  0
   23.6988   -9.6894  -16.2364 C   0  0  0  0  0  0  0  0  0  0  0  0
   23.5195   -9.0545  -17.3264 O   0  0  0  0  0  0  0  0  0  0  0  0
   22.8684   -9.3905  -15.1344 N   0  0  0  0  0  0  0  0  0  0  0  0
   21.7844   -8.4339  -15.1632 C   0  0  1  0  0  0  0  0  0  0  0  0
   20.5275   -9.1387  -14.7803 C   0  0  0  0  0  0  0  0  0  0  0  0
   19.7815   -9.7476  -15.9235 C   0  0  0  0  0  0  0  0  0  0  0  0
   18.4960  -10.4073  -15.5414 C   0  0  0  0  0  0  0  0  0  0  0  0
   17.9059  -11.0297  -16.7961 C   0  0  0  0  0  0  0  0  0  0  0  0
   16.6926  -11.7552  -16.4751 N   0  0  0  0  0  0  0  0  0  0  0  0
   22.0532   -7.3940  -14.1233 C   0  0  0  0  0  0  0  0  0  0  0  0
   22.5235   -7.6737  -12.9901 O   0  0  0  0  0  0  0  0  0  0  0  0
   21.7773   -6.0239  -14.3936 N   0  0  0  0  0  0  0  0  0  0  0  0
   22.1148   -4.9517  -13.5137 C   0  0  0  0  0  0  0  0  0  0  0  0
   21.8075   -3.6226  -14.0600 C   0  0  0  0  0  0  0  0  0  0  0  0
   21.3333   -3.5322  -15.2182 O   0  0  0  0  0  0  0  0  0  0  0  0
   22.0129   -2.4455  -13.3624 O   0  0  0  0  0  0  0  0  0  0  0  0
  2  1  1  0
  3  2  1  0
  3  4  1  6
  5  3  1  0
  6  5  2  0
  7  5  1  0
  8  9  1  1
  8  7  1  0
 10  9  1  0
 11 12  1  0
 11 10  1  0
 13 12  1  0
 14 15  2  0
 14  8  1  0
 16 14  1  0
 17 16  1  0
 18 17  1  0
 18 20  1  0
 19 18  2  0
M  END
$$$$
