SKG.pdb
     RDKit          3D

 20 19  0  0  1  0  0  0  0  0999 V2000
   27.6347  -10.5565  -15.2568 O   0  0  0  0  0  0  0  0  0  0  0  0
   26.6219   -9.7936  -15.8343 C   0  0  0  0  0  0  0  0  0  0  0  0
   25.9723  -10.6175  -16.9324 C   0  0  2  0  0  0  0  0  0  0  0  0
   26.9552  -10.9700  -17.9063 N   0  0  0  0  0  0  0  0  0  0  0  0
   24.7875   -9.9503  -17.4983 C   0  0  0  0  0  0  0  0  0  0  0  0
   24.8013   -9.4117  -18.6530 O   0  0  0  0  0  0  0  0  0  0  0  0
   23.5956   -9.9021  -16.7430 N   0  0  0  0  0  0  0  0  0  0  0  0
   22.3777   -9.2551  -17.1777 C   0  0  1  0  0  0  0  0  0  0  0  0
   21.2207  -10.0045  -16.6095 C   0  0  0  0  0  0  0  0  0  0  0  0
   20.9575  -11.3270  -17.2543 C   0  0  0  0  0  0  0  0  0  0  0  0
   19.8310  -12.0980  -16.6459 C   0  0  0  0  0  0  0  0  0  0  0  0
   19.7493  -13.4370  -17.3602 C   0  0  0  0  0  0  0  0  0  0  0  0
   18.7493  -14.2804  -16.7356 N   0  0  0  0  0  0  0  0  0  0  0  0
   22.3505   -7.8768  -16.5993 C   0  0  0  0  0  0  0  0  0  0  0  0
   21.4482   -7.0437  -16.8741 O   0  0  0  0  0  0  0  0  0  0  0  0
   23.3706   -7.4586  -15.6990 N   0  0  0  0  0  0  0  0  0  0  0  0
   23.5485   -6.1112  -15.2624 C   0  0  0  0  0  0  0  0  0  0  0  0
   22.6869   -5.7398  -14.1314 C   0  0  0  0  0  0  0  0  0  0  0  0
   21.7828   -6.5298  -13.7663 O   0  0  0  0  0  0  0  0  0  0  0  0
   22.8147   -4.5520  -13.4335 O   0  0  0  0  0  0  0  0  0  0  0  0
  2  1  1  0
  3  2  1  0
  3  4  1  6
  5  3  1  0
  6  5  2  0
  7  5  1  0
  8  9  1  1
  8  7  1  0
 10  9  1  0
 11 12  1  0
 11 10  1  0
 13 12  1  0
 14 15  2  0
 14  8  1  0
 16 14  1  0
 17 16  1  0
 18 17  1  0
 18 20  1  0
 19 18  2  0
M  END
$$$$
