SKG.pdb
     RDKit          3D

 20 19  0  0  1  0  0  0  0  0999 V2000
   17.0763  -11.3589  -14.7402 O   0  0  0  0  0  0  0  0  0  0  0  0
   18.3342  -10.7749  -14.6058 C   0  0  0  0  0  0  0  0  0  0  0  0
   19.1374  -11.0810  -15.8580 C   0  0  2  0  0  0  0  0  0  0  0  0
   19.4047  -12.4823  -15.9202 N   0  0  0  0  0  0  0  0  0  0  0  0
   20.3427  -10.2409  -15.9621 C   0  0  0  0  0  0  0  0  0  0  0  0
   21.5083  -10.6975  -15.7244 O   0  0  0  0  0  0  0  0  0  0  0  0
   20.2097   -8.8861  -16.3365 N   0  0  0  0  0  0  0  0  0  0  0  0
   21.3129   -7.9590  -16.4568 C   0  0  1  0  0  0  0  0  0  0  0  0
   21.1210   -7.1620  -17.7023 C   0  0  0  0  0  0  0  0  0  0  0  0
   21.4788   -7.8804  -18.9633 C   0  0  0  0  0  0  0  0  0  0  0  0
   21.2382   -7.0948  -20.2117 C   0  0  0  0  0  0  0  0  0  0  0  0
   21.5664   -7.9934  -21.3928 C   0  0  0  0  0  0  0  0  0  0  0  0
   21.2787   -7.3113  -22.6391 N   0  0  0  0  0  0  0  0  0  0  0  0
   21.2537   -7.0121  -15.3016 C   0  0  0  0  0  0  0  0  0  0  0  0
   20.1696   -6.5579  -14.8519 O   0  0  0  0  0  0  0  0  0  0  0  0
   22.4525   -6.5875  -14.6624 N   0  0  0  0  0  0  0  0  0  0  0  0
   22.4884   -5.8054  -13.4688 C   0  0  0  0  0  0  0  0  0  0  0  0
   21.9083   -4.4644  -13.6257 C   0  0  0  0  0  0  0  0  0  0  0  0
   20.6795   -4.3030  -13.4296 O   0  0  0  0  0  0  0  0  0  0  0  0
   22.6479   -3.3507  -13.9824 O   0  0  0  0  0  0  0  0  0  0  0  0
  2  1  1  0
  3  2  1  0
  3  4  1  1
  5  3  1  0
  6  5  2  0
  7  5  1  0
  8  9  1  6
  8  7  1  0
 10  9  1  0
 11 12  1  0
 11 10  1  0
 13 12  1  0
 14 15  2  0
 14  8  1  0
 16 14  1  0
 17 16  1  0
 18 17  1  0
 18 20  1  0
 19 18  2  0
M  END
$$$$
