RYY.pdb
     RDKit          3D

 36 37  0  0  1  0  0  0  0  0999 V2000
    9.1615  -14.3769   15.8876 N   0  0  0  0  0  0  0  0  0  0  0  0
    8.3583  -13.3062   16.3480 C   0  0  0  0  0  0  0  0  0  0  0  0
    8.0841  -12.2881   15.5874 N   0  0  0  0  0  0  0  0  0  0  0  0
    7.8333  -13.3248   17.6608 N   0  0  0  0  0  0  0  0  0  0  0  0
    8.2805  -14.3532   18.6130 C   0  0  0  0  0  0  0  0  0  0  0  0
    7.3386  -15.5011   18.5089 C   0  0  0  0  0  0  0  0  0  0  0  0
    6.9546  -16.0593   19.8339 C   0  0  0  0  0  0  0  0  0  0  0  0
    8.0250  -16.9017   20.4365 C   0  0  2  0  0  0  0  0  0  0  0  0
    7.4987  -18.0983   21.1204 N   0  0  0  0  0  0  0  0  0  0  0  0
    8.7526  -16.1569   21.5216 C   0  0  0  0  0  0  0  0  0  0  0  0
    9.3903  -15.1089   21.3110 O   0  0  0  0  0  0  0  0  0  0  0  0
    7.5184  -11.4789   15.8711 O   0  0  0  0  0  0  0  0  0  0  0  0
   11.1841  -14.4814   29.9013 C   0  0  0  0  0  0  0  0  0  0  0  0
   10.5653  -14.9389   28.7380 C   0  0  0  0  0  0  0  0  0  0  0  0
    9.6798  -14.1672   28.0333 C   0  0  0  0  0  0  0  0  0  0  0  0
    9.0731  -14.6424   26.8749 C   0  0  0  0  0  0  0  0  0  0  0  0
    9.3556  -15.9092   26.4132 C   0  0  0  0  0  0  0  0  0  0  0  0
    8.7121  -16.4104   25.1977 C   0  0  1  0  0  0  0  0  0  0  0  0
    9.4220  -16.0551   23.9148 N   0  0  0  0  0  0  0  0  0  0  0  0
    8.6901  -16.6963   22.8300 C   0  0  0  0  0  0  0  0  0  0  0  0
   10.7946  -16.5968   23.9166 O   0  0  0  0  0  0  0  0  0  0  0  0
   11.0337  -17.8348   23.7891 C   0  0  0  0  0  0  0  0  0  0  0  0
   10.2491  -16.6698   27.1360 C   0  0  0  0  0  0  0  0  0  0  0  0
   10.8552  -16.1967   28.2920 O   0  0  0  0  0  0  0  0  0  0  0  0
   12.1882  -15.7470   17.6570 C   0  0  0  0  0  0  0  0  0  0  0  0
   12.6382  -15.6414   18.9700 C   0  0  0  0  0  0  0  0  0  0  0  0
   13.5753  -16.5093   19.4540 C   0  0  0  0  0  0  0  0  0  0  0  0
   14.0460  -16.4414   20.7391 C   0  0  0  0  0  0  0  0  0  0  0  0
   13.5631  -15.4563   21.6018 C   0  0  0  0  0  0  0  0  0  0  0  0
   14.0539  -15.3840   22.9746 C   0  0  2  0  0  0  0  0  0  0  0  0
   13.3029  -16.2707   23.9067 N   0  0  0  0  0  0  0  0  0  0  0  0
   11.9286  -15.7585   24.0613 C   0  0  0  0  0  0  0  0  0  0  0  0
   13.9276  -16.4996   25.2125 O   0  0  0  0  0  0  0  0  0  0  0  0
   13.3318  -16.1739   26.2939 C   0  0  0  0  0  0  0  0  0  0  0  0
   12.6159  -14.5682   21.1356 C   0  0  0  0  0  0  0  0  0  0  0  0
   12.1710  -14.6731   19.8364 O   0  0  0  0  0  0  0  0  0  0  0  0
  2  1  1  0
  2  3  2  0
  4  5  1  0
  4  2  1  0
  5  6  1  0
  6  7  1  0
  7  8  1  0
  8 10  1  0
  8  9  1  1
 10 19  1  0
 11 10  2  0
 13 12  1  0
 13 14  2  0
 15 14  1  0
 16 15  2  0
 17 16  1  0
 18 17  1  6
 18 20  1  0
 19 18  1  0
 20 21  2  0
 20 31  1  0
 22 23  2  0
 22 16  1  0
 23 13  1  0
 25 24  1  0
 25 35  2  0
 26 25  1  0
 27 26  2  0
 27 28  1  0
 28 34  2  0
 29 28  1  0
 30 29  1  6
 30 32  1  0
 31 30  1  0
 32 36  1  0
 33 32  2  0
 34 35  1  0
M  END
$$$$
