RYY.pdb
     RDKit          3D

 36 37  0  0  1  0  0  0  0  0999 V2000
   11.5060  -18.8186   17.9108 N   0  0  0  0  0  0  0  0  0  0  0  0
   10.1612  -18.6962   18.3348 C   0  0  0  0  0  0  0  0  0  0  0  0
    9.6191  -19.5688   19.1317 N   0  0  0  0  0  0  0  0  0  0  0  0
    9.3727  -17.6086   17.8932 N   0  0  0  0  0  0  0  0  0  0  0  0
    9.6183  -17.0173   16.5686 C   0  0  0  0  0  0  0  0  0  0  0  0
    8.6567  -15.8947   16.3932 C   0  0  0  0  0  0  0  0  0  0  0  0
    9.0812  -14.6517   17.0928 C   0  0  0  0  0  0  0  0  0  0  0  0
    8.0068  -14.0770   17.9494 C   0  0  2  0  0  0  0  0  0  0  0  0
    7.6291  -12.7062   17.5561 N   0  0  0  0  0  0  0  0  0  0  0  0
    8.4707  -13.9290   19.3722 C   0  0  0  0  0  0  0  0  0  0  0  0
    9.4867  -13.2827   19.6878 O   0  0  0  0  0  0  0  0  0  0  0  0
    8.6582  -19.5179   19.4913 O   0  0  0  0  0  0  0  0  0  0  0  0
    7.6331  -13.7911   28.1505 C   0  0  0  0  0  0  0  0  0  0  0  0
    7.4292  -13.9315   26.7778 C   0  0  0  0  0  0  0  0  0  0  0  0
    7.1354  -15.1410   26.2059 C   0  0  0  0  0  0  0  0  0  0  0  0
    6.9356  -15.2598   24.8342 C   0  0  0  0  0  0  0  0  0  0  0  0
    7.0309  -14.1522   24.0205 C   0  0  0  0  0  0  0  0  0  0  0  0
    6.8265  -14.2794   22.5767 C   0  0  2  0  0  0  0  0  0  0  0  0
    8.0909  -14.4562   21.7729 N   0  0  0  0  0  0  0  0  0  0  0  0
    7.6963  -14.5637   20.3743 C   0  0  0  0  0  0  0  0  0  0  0  0
    8.7710  -15.7106   22.1489 O   0  0  0  0  0  0  0  0  0  0  0  0
    8.8971  -16.6799   21.3424 C   0  0  0  0  0  0  0  0  0  0  0  0
    7.3270  -12.9446   24.6149 C   0  0  0  0  0  0  0  0  0  0  0  0
    7.5266  -12.8248   25.9836 O   0  0  0  0  0  0  0  0  0  0  0  0
   13.7585  -15.7270   18.0434 C   0  0  0  0  0  0  0  0  0  0  0  0
   13.1961  -15.5066   19.2975 C   0  0  0  0  0  0  0  0  0  0  0  0
   13.4509  -16.3614   20.3320 C   0  0  0  0  0  0  0  0  0  0  0  0
   12.9185  -16.1824   21.5818 C   0  0  0  0  0  0  0  0  0  0  0  0
   12.0823  -15.0924   21.8281 C   0  0  0  0  0  0  0  0  0  0  0  0
   11.5049  -14.9008   23.1549 C   0  0  2  0  0  0  0  0  0  0  0  0
   10.7713  -16.1002   23.6472 N   0  0  0  0  0  0  0  0  0  0  0  0
    9.3247  -15.9026   23.4397 C   0  0  0  0  0  0  0  0  0  0  0  0
   11.0538  -16.4988   25.0289 O   0  0  0  0  0  0  0  0  0  0  0  0
   10.1491  -16.4435   25.9284 C   0  0  0  0  0  0  0  0  0  0  0  0
   11.8101  -14.2153   20.7986 C   0  0  0  0  0  0  0  0  0  0  0  0
   12.3670  -14.4337   19.5580 O   0  0  0  0  0  0  0  0  0  0  0  0
  2  1  1  0
  2  3  2  0
  4  5  1  0
  4  2  1  0
  5  6  1  0
  6  7  1  0
  7  8  1  0
  8 10  1  0
  8  9  1  6
 10 19  1  0
 11 10  2  0
 13 12  1  0
 13 14  2  0
 15 14  1  0
 16 15  2  0
 17 16  1  0
 18 17  1  6
 18 20  1  0
 19 18  1  0
 20 21  2  0
 20 31  1  0
 22 23  2  0
 22 16  1  0
 23 13  1  0
 25 24  1  0
 25 35  2  0
 26 25  1  0
 27 26  2  0
 27 28  1  0
 28 34  2  0
 29 28  1  0
 30 29  1  6
 30 32  1  0
 31 30  1  0
 32 36  1  0
 33 32  2  0
 34 35  1  0
M  END
$$$$
