RYY.pdb
     RDKit          3D

 36 37  0  0  1  0  0  0  0  0999 V2000
   10.0329  -22.1157   19.1259 N   0  0  0  0  0  0  0  0  0  0  0  0
    9.2449  -23.2295   19.5024 C   0  0  0  0  0  0  0  0  0  0  0  0
    9.1289  -24.2700   18.7316 N   0  0  0  0  0  0  0  0  0  0  0  0
    8.5603  -23.2303   20.7397 N   0  0  0  0  0  0  0  0  0  0  0  0
    8.7011  -22.0866   21.6544 C   0  0  0  0  0  0  0  0  0  0  0  0
    8.4473  -20.8489   20.8675 C   0  0  0  0  0  0  0  0  0  0  0  0
    8.5387  -19.6104   21.6875 C   0  0  0  0  0  0  0  0  0  0  0  0
    8.2334  -18.3788   20.9074 C   0  0  2  0  0  0  0  0  0  0  0  0
    8.5838  -18.5007   19.4795 N   0  0  0  0  0  0  0  0  0  0  0  0
    9.0615  -17.2176   21.3841 C   0  0  0  0  0  0  0  0  0  0  0  0
   10.2593  -17.0714   21.0786 O   0  0  0  0  0  0  0  0  0  0  0  0
    8.5811  -25.1093   18.9570 O   0  0  0  0  0  0  0  0  0  0  0  0
    7.4518  -12.9587   16.8680 C   0  0  0  0  0  0  0  0  0  0  0  0
    7.6505  -13.1995   18.2273 C   0  0  0  0  0  0  0  0  0  0  0  0
    6.7509  -13.9069   18.9801 C   0  0  0  0  0  0  0  0  0  0  0  0
    6.9679  -14.1362   20.3350 C   0  0  0  0  0  0  0  0  0  0  0  0
    8.1021  -13.6508   20.9481 C   0  0  0  0  0  0  0  0  0  0  0  0
    8.3265  -13.8874   22.3751 C   0  0  2  0  0  0  0  0  0  0  0  0
    9.1622  -15.1033   22.6899 N   0  0  0  0  0  0  0  0  0  0  0  0
    8.4219  -16.2651   22.2150 C   0  0  0  0  0  0  0  0  0  0  0  0
    9.3395  -15.2450   24.1481 O   0  0  0  0  0  0  0  0  0  0  0  0
    9.9582  -14.3834   24.8413 C   0  0  0  0  0  0  0  0  0  0  0  0
    8.9950  -12.9419   20.1738 C   0  0  0  0  0  0  0  0  0  0  0  0
    8.7796  -12.7124   18.8216 O   0  0  0  0  0  0  0  0  0  0  0  0
    5.9884  -10.9132   26.5004 C   0  0  0  0  0  0  0  0  0  0  0  0
    6.3963  -12.2390   26.6168 C   0  0  0  0  0  0  0  0  0  0  0  0
    7.5762  -12.5504   27.2305 C   0  0  0  0  0  0  0  0  0  0  0  0
    8.0157  -13.8411   27.3668 C   0  0  0  0  0  0  0  0  0  0  0  0
    7.2442  -14.8912   26.8669 C   0  0  0  0  0  0  0  0  0  0  0  0
    7.7109  -16.2678   27.0010 C   0  0  2  0  0  0  0  0  0  0  0  0
    9.0104  -16.5094   26.3139 N   0  0  0  0  0  0  0  0  0  0  0  0
    8.8247  -16.3584   24.8587 C   0  0  0  0  0  0  0  0  0  0  0  0
    9.6734  -17.7777   26.6296 O   0  0  0  0  0  0  0  0  0  0  0  0
    9.9537  -18.0922   27.8350 C   0  0  0  0  0  0  0  0  0  0  0  0
    6.0486  -14.6014   26.2427 C   0  0  0  0  0  0  0  0  0  0  0  0
    5.6454  -13.2895   26.1279 O   0  0  0  0  0  0  0  0  0  0  0  0
  2  1  1  0
  2  3  2  0
  4  5  1  0
  4  2  1  0
  5  6  1  0
  6  7  1  0
  7  8  1  0
  8 10  1  0
  8  9  1  6
 10 19  1  0
 11 10  2  0
 13 12  1  0
 13 14  2  0
 15 14  1  0
 16 15  2  0
 17 16  1  0
 18 17  1  6
 18 20  1  0
 19 18  1  0
 20 21  2  0
 20 31  1  0
 22 23  2  0
 22 16  1  0
 23 13  1  0
 25 24  1  0
 25 35  2  0
 26 25  1  0
 27 26  2  0
 27 28  1  0
 28 34  2  0
 29 28  1  0
 30 29  1  1
 30 32  1  0
 31 30  1  0
 32 36  1  0
 33 32  2  0
 34 35  1  0
M  END
$$$$
