RYY.pdb
     RDKit          3D

 36 37  0  0  1  0  0  0  0  0999 V2000
   12.3616  -12.6688    8.5564 N   0  0  0  0  0  0  0  0  0  0  0  0
   11.0819  -13.0056    9.0587 C   0  0  0  0  0  0  0  0  0  0  0  0
   10.0489  -12.2446    8.8487 N   0  0  0  0  0  0  0  0  0  0  0  0
   10.9018  -14.1911    9.8082 N   0  0  0  0  0  0  0  0  0  0  0  0
   12.0652  -15.0241   10.1503 C   0  0  0  0  0  0  0  0  0  0  0  0
   11.5515  -16.3273   10.6536 C   0  0  0  0  0  0  0  0  0  0  0  0
   12.0413  -16.6562   12.0198 C   0  0  0  0  0  0  0  0  0  0  0  0
   10.9459  -16.7076   13.0278 C   0  0  2  0  0  0  0  0  0  0  0  0
   10.2257  -15.4270   13.1606 N   0  0  0  0  0  0  0  0  0  0  0  0
   11.4913  -16.9593   14.4065 C   0  0  0  0  0  0  0  0  0  0  0  0
   12.1022  -16.0936   15.0598 O   0  0  0  0  0  0  0  0  0  0  0  0
    9.0946  -12.4488    9.1693 O   0  0  0  0  0  0  0  0  0  0  0  0
   11.6239  -21.2631   22.1641 C   0  0  0  0  0  0  0  0  0  0  0  0
   11.3784  -20.8195   20.8647 C   0  0  0  0  0  0  0  0  0  0  0  0
   10.6852  -19.6663   20.6083 C   0  0  0  0  0  0  0  0  0  0  0  0
   10.4508  -19.2412   19.3045 C   0  0  0  0  0  0  0  0  0  0  0  0
   10.9166  -19.9804   18.2393 C   0  0  0  0  0  0  0  0  0  0  0  0
   10.6642  -19.5355   16.8679 C   0  0  1  0  0  0  0  0  0  0  0  0
   11.6371  -18.5058   16.3488 N   0  0  0  0  0  0  0  0  0  0  0  0
   11.2840  -18.2472   14.9589 C   0  0  0  0  0  0  0  0  0  0  0  0
   13.0138  -19.0365   16.3746 O   0  0  0  0  0  0  0  0  0  0  0  0
   13.4021  -19.9491   15.5859 C   0  0  0  0  0  0  0  0  0  0  0  0
   11.6118  -21.1372   18.5180 C   0  0  0  0  0  0  0  0  0  0  0  0
   11.8463  -21.5624   19.8187 O   0  0  0  0  0  0  0  0  0  0  0  0
   16.4843  -18.1713   11.2766 C   0  0  0  0  0  0  0  0  0  0  0  0
   16.4500  -18.1819   12.6681 C   0  0  0  0  0  0  0  0  0  0  0  0
   16.7639  -19.3163   13.3611 C   0  0  0  0  0  0  0  0  0  0  0  0
   16.7431  -19.3711   14.7300 C   0  0  0  0  0  0  0  0  0  0  0  0
   16.3907  -18.2365   15.4626 C   0  0  0  0  0  0  0  0  0  0  0  0
   16.3581  -18.2906   16.9210 C   0  0  2  0  0  0  0  0  0  0  0  0
   15.3001  -19.1994   17.4443 N   0  0  0  0  0  0  0  0  0  0  0  0
   13.9842  -18.5522   17.2876 C   0  0  0  0  0  0  0  0  0  0  0  0
   15.4901  -19.6767   18.8169 O   0  0  0  0  0  0  0  0  0  0  0  0
   14.6143  -19.4536   19.7189 C   0  0  0  0  0  0  0  0  0  0  0  0
   16.0693  -17.0788   14.7847 C   0  0  0  0  0  0  0  0  0  0  0  0
   16.1035  -17.0688   13.4079 O   0  0  0  0  0  0  0  0  0  0  0  0
  2  1  1  0
  2  3  2  0
  4  5  1  0
  4  2  1  0
  5  6  1  0
  6  7  1  0
  7  8  1  0
  8 10  1  0
  8  9  1  1
 10 19  1  0
 11 10  2  0
 13 12  1  0
 13 14  2  0
 15 14  1  0
 16 15  2  0
 17 16  1  0
 18 17  1  1
 18 20  1  0
 19 18  1  0
 20 21  2  0
 20 31  1  0
 22 23  2  0
 22 16  1  0
 23 13  1  0
 25 24  1  0
 25 35  2  0
 26 25  1  0
 27 26  2  0
 27 28  1  0
 28 34  2  0
 29 28  1  0
 30 29  1  6
 30 32  1  0
 31 30  1  0
 32 36  1  0
 33 32  2  0
 34 35  1  0
M  END
$$$$
