RYY.pdb
     RDKit          3D

 36 37  0  0  1  0  0  0  0  0999 V2000
    8.3932  -12.5717   18.7466 N   0  0  0  0  0  0  0  0  0  0  0  0
    7.3963  -13.1549   17.9285 C   0  0  0  0  0  0  0  0  0  0  0  0
    6.1350  -13.0712   18.2324 N   0  0  0  0  0  0  0  0  0  0  0  0
    7.7590  -13.8485   16.7509 N   0  0  0  0  0  0  0  0  0  0  0  0
    9.1706  -14.1814   16.5034 C   0  0  0  0  0  0  0  0  0  0  0  0
    9.8148  -14.4152   17.8247 C   0  0  0  0  0  0  0  0  0  0  0  0
   10.5340  -15.7159   17.8982 C   0  0  0  0  0  0  0  0  0  0  0  0
   11.8411  -15.6929   17.1843 C   0  0  2  0  0  0  0  0  0  0  0  0
   11.9270  -16.6994   16.1091 N   0  0  0  0  0  0  0  0  0  0  0  0
   12.9691  -16.0567   18.1098 C   0  0  0  0  0  0  0  0  0  0  0  0
   13.5174  -17.1742   18.1002 O   0  0  0  0  0  0  0  0  0  0  0  0
    5.3659  -13.4203   17.6477 O   0  0  0  0  0  0  0  0  0  0  0  0
   18.2508  -13.3156   14.9528 C   0  0  0  0  0  0  0  0  0  0  0  0
   17.5673  -13.5087   16.1532 C   0  0  0  0  0  0  0  0  0  0  0  0
   18.0046  -14.3906   17.1057 C   0  0  0  0  0  0  0  0  0  0  0  0
   17.3080  -14.5687   18.2968 C   0  0  0  0  0  0  0  0  0  0  0  0
   16.1557  -13.8541   18.5403 C   0  0  0  0  0  0  0  0  0  0  0  0
   15.4203  -14.0466   19.7911 C   0  0  2  0  0  0  0  0  0  0  0  0
   14.5826  -15.3003   19.8448 N   0  0  0  0  0  0  0  0  0  0  0  0
   13.4049  -15.0627   19.0202 C   0  0  0  0  0  0  0  0  0  0  0  0
   14.1249  -15.5573   21.2239 O   0  0  0  0  0  0  0  0  0  0  0  0
   13.9469  -14.6242   22.0627 C   0  0  0  0  0  0  0  0  0  0  0  0
   15.7323  -12.9718   17.5699 C   0  0  0  0  0  0  0  0  0  0  0  0
   16.4266  -12.7932   16.3810 O   0  0  0  0  0  0  0  0  0  0  0  0
    8.2372  -13.8281   21.9054 C   0  0  0  0  0  0  0  0  0  0  0  0
    9.2019  -14.7852   22.2071 C   0  0  0  0  0  0  0  0  0  0  0  0
    9.6670  -14.9229   23.4840 C   0  0  0  0  0  0  0  0  0  0  0  0
   10.6154  -15.8512   23.8249 C   0  0  0  0  0  0  0  0  0  0  0  0
   11.1388  -16.6973   22.8460 C   0  0  0  0  0  0  0  0  0  0  0  0
   12.1558  -17.6824   23.2008 C   0  0  2  0  0  0  0  0  0  0  0  0
   13.5421  -17.1459   23.1039 N   0  0  0  0  0  0  0  0  0  0  0  0
   13.8570  -16.8690   21.6901 C   0  0  0  0  0  0  0  0  0  0  0  0
   14.5880  -17.9639   23.7242 O   0  0  0  0  0  0  0  0  0  0  0  0
   15.5524  -18.4352   23.0325 C   0  0  0  0  0  0  0  0  0  0  0  0
   10.6847  -16.5769   21.5489 C   0  0  0  0  0  0  0  0  0  0  0  0
    9.7301  -15.6298   21.2510 O   0  0  0  0  0  0  0  0  0  0  0  0
  2  1  1  0
  2  3  2  0
  4  5  1  0
  4  2  1  0
  5  6  1  0
  6  7  1  0
  7  8  1  0
  8 10  1  0
  8  9  1  6
 10 19  1  0
 11 10  2  0
 13 12  1  0
 13 14  2  0
 15 14  1  0
 16 15  2  0
 17 16  1  0
 18 17  1  6
 18 20  1  0
 19 18  1  0
 20 21  2  0
 20 31  1  0
 22 23  2  0
 22 16  1  0
 23 13  1  0
 25 24  1  0
 25 35  2  0
 26 25  1  0
 27 26  2  0
 27 28  1  0
 28 34  2  0
 29 28  1  0
 30 29  1  1
 30 32  1  0
 31 30  1  0
 32 36  1  0
 33 32  2  0
 34 35  1  0
M  END
$$$$
