RYY.pdb
     RDKit          3D

 36 37  0  0  1  0  0  0  0  0999 V2000
   12.0947  -16.0498   14.1133 N   0  0  0  0  0  0  0  0  0  0  0  0
   11.7473  -17.3620   14.5143 C   0  0  0  0  0  0  0  0  0  0  0  0
   11.9919  -18.3899   13.7567 N   0  0  0  0  0  0  0  0  0  0  0  0
   11.1194  -17.5813   15.7621 N   0  0  0  0  0  0  0  0  0  0  0  0
   10.9015  -16.4523   16.6799 C   0  0  0  0  0  0  0  0  0  0  0  0
   10.0224  -15.4724   15.9851 C   0  0  0  0  0  0  0  0  0  0  0  0
    9.7862  -14.2375   16.7812 C   0  0  0  0  0  0  0  0  0  0  0  0
    8.5694  -14.3265   17.6355 C   0  0  2  0  0  0  0  0  0  0  0  0
    7.5562  -13.3074   17.3015 N   0  0  0  0  0  0  0  0  0  0  0  0
    8.8988  -14.0489   19.0763 C   0  0  0  0  0  0  0  0  0  0  0  0
    9.9459  -13.4776   19.4320 O   0  0  0  0  0  0  0  0  0  0  0  0
   11.7492  -19.3608   13.9884 O   0  0  0  0  0  0  0  0  0  0  0  0
    7.1188  -13.4079   27.7441 C   0  0  0  0  0  0  0  0  0  0  0  0
    7.0498  -13.6157   26.3666 C   0  0  0  0  0  0  0  0  0  0  0  0
    6.7159  -14.8309   25.8298 C   0  0  0  0  0  0  0  0  0  0  0  0
    6.6528  -15.0174   24.4526 C   0  0  0  0  0  0  0  0  0  0  0  0
    6.9278  -13.9728   23.5975 C   0  0  0  0  0  0  0  0  0  0  0  0
    6.8670  -14.1717   22.1486 C   0  0  1  0  0  0  0  0  0  0  0  0
    8.2088  -14.2141   21.4601 N   0  0  0  0  0  0  0  0  0  0  0  0
    7.9560  -14.4672   20.0475 C   0  0  0  0  0  0  0  0  0  0  0  0
    9.0220  -15.3297   21.9812 O   0  0  0  0  0  0  0  0  0  0  0  0
    8.8155  -16.5333   21.6427 C   0  0  0  0  0  0  0  0  0  0  0  0
    7.2615  -12.7583   24.1569 C   0  0  0  0  0  0  0  0  0  0  0  0
    7.3248  -12.5709   25.5311 O   0  0  0  0  0  0  0  0  0  0  0  0
   14.2270  -14.1304   18.2767 C   0  0  0  0  0  0  0  0  0  0  0  0
   13.7677  -14.5062   19.5358 C   0  0  0  0  0  0  0  0  0  0  0  0
   13.8310  -15.8105   19.9366 C   0  0  0  0  0  0  0  0  0  0  0  0
   13.3906  -16.2240   21.1664 C   0  0  0  0  0  0  0  0  0  0  0  0
   12.8537  -15.2938   22.0578 C   0  0  0  0  0  0  0  0  0  0  0  0
   12.3746  -15.7291   23.3661 C   0  0  2  0  0  0  0  0  0  0  0  0
   10.9662  -16.2135   23.3365 N   0  0  0  0  0  0  0  0  0  0  0  0
   10.0855  -15.1165   22.8940 C   0  0  0  0  0  0  0  0  0  0  0  0
   10.4718  -16.8152   24.5780 O   0  0  0  0  0  0  0  0  0  0  0  0
    9.4439  -16.3466   25.1733 C   0  0  0  0  0  0  0  0  0  0  0  0
   12.7791  -13.9704   21.6753 C   0  0  0  0  0  0  0  0  0  0  0  0
   13.2338  -13.5991   20.4294 O   0  0  0  0  0  0  0  0  0  0  0  0
  2  1  1  0
  2  3  2  0
  4  5  1  0
  4  2  1  0
  5  6  1  0
  6  7  1  0
  7  8  1  0
  8 10  1  0
  8  9  1  6
 10 19  1  0
 11 10  2  0
 13 12  1  0
 13 14  2  0
 15 14  1  0
 16 15  2  0
 17 16  1  0
 18 17  1  6
 18 20  1  0
 19 18  1  0
 20 21  2  0
 20 31  1  0
 22 23  2  0
 22 16  1  0
 23 13  1  0
 25 24  1  0
 25 35  2  0
 26 25  1  0
 27 26  2  0
 27 28  1  0
 28 34  2  0
 29 28  1  0
 30 29  1  6
 30 32  1  0
 31 30  1  0
 32 36  1  0
 33 32  2  0
 34 35  1  0
M  END
$$$$
