RYY.pdb
     RDKit          3D

 36 37  0  0  1  0  0  0  0  0999 V2000
    8.2276  -16.4518   14.2283 N   0  0  0  0  0  0  0  0  0  0  0  0
    9.5617  -16.7261   14.6131 C   0  0  0  0  0  0  0  0  0  0  0  0
   10.5713  -16.2837   13.9236 N   0  0  0  0  0  0  0  0  0  0  0  0
    9.8239  -17.4967   15.7694 N   0  0  0  0  0  0  0  0  0  0  0  0
    8.7053  -18.0242   16.5661 C   0  0  0  0  0  0  0  0  0  0  0  0
    9.2754  -18.9521   17.5808 C   0  0  0  0  0  0  0  0  0  0  0  0
   10.2314  -18.2849   18.5057 C   0  0  0  0  0  0  0  0  0  0  0  0
    9.6901  -18.1362   19.8853 C   0  0  2  0  0  0  0  0  0  0  0  0
    8.2169  -18.0657   19.9207 N   0  0  0  0  0  0  0  0  0  0  0  0
   10.1282  -16.8359   20.5009 C   0  0  0  0  0  0  0  0  0  0  0  0
   11.2911  -16.4019   20.4070 O   0  0  0  0  0  0  0  0  0  0  0  0
   11.5563  -16.4971   14.1222 O   0  0  0  0  0  0  0  0  0  0  0  0
    7.0968  -13.8802   15.9902 C   0  0  0  0  0  0  0  0  0  0  0  0
    7.4582  -13.8776   17.3374 C   0  0  0  0  0  0  0  0  0  0  0  0
    8.4461  -14.6902   17.8273 C   0  0  0  0  0  0  0  0  0  0  0  0
    8.7914  -14.6724   19.1749 C   0  0  0  0  0  0  0  0  0  0  0  0
    8.1391  -13.8291   20.0474 C   0  0  0  0  0  0  0  0  0  0  0  0
    8.4991  -13.8156   21.4661 C   0  0  2  0  0  0  0  0  0  0  0  0
    9.5228  -14.8484   21.8679 N   0  0  0  0  0  0  0  0  0  0  0  0
    9.1518  -16.0953   21.2115 C   0  0  0  0  0  0  0  0  0  0  0  0
    9.4834  -15.0752   23.3255 O   0  0  0  0  0  0  0  0  0  0  0  0
    8.5260  -14.6666   24.0482 C   0  0  0  0  0  0  0  0  0  0  0  0
    7.1485  -13.0194   19.5352 C   0  0  0  0  0  0  0  0  0  0  0  0
    6.8030  -13.0362   18.1906 O   0  0  0  0  0  0  0  0  0  0  0  0
   10.9436  -14.8972   31.7285 C   0  0  0  0  0  0  0  0  0  0  0  0
   10.6379  -14.9850   30.3734 C   0  0  0  0  0  0  0  0  0  0  0  0
   10.4025  -16.1987   29.7926 C   0  0  0  0  0  0  0  0  0  0  0  0
   10.0985  -16.3309   28.4631 C   0  0  0  0  0  0  0  0  0  0  0  0
   10.0216  -15.1958   27.6546 C   0  0  0  0  0  0  0  0  0  0  0  0
    9.7069  -15.3305   26.2356 C   0  0  1  0  0  0  0  0  0  0  0  0
   10.9215  -15.4184   25.3777 N   0  0  0  0  0  0  0  0  0  0  0  0
   10.5193  -15.7668   24.0023 C   0  0  0  0  0  0  0  0  0  0  0  0
   11.9789  -16.3125   25.8578 O   0  0  0  0  0  0  0  0  0  0  0  0
   12.5820  -16.0867   26.9605 C   0  0  0  0  0  0  0  0  0  0  0  0
   10.2557  -13.9588   28.2187 C   0  0  0  0  0  0  0  0  0  0  0  0
   10.5580  -13.8724   29.5596 O   0  0  0  0  0  0  0  0  0  0  0  0
  2  1  1  0
  2  3  2  0
  4  5  1  0
  4  2  1  0
  5  6  1  0
  6  7  1  0
  7  8  1  0
  8 10  1  0
  8  9  1  6
 10 19  1  0
 11 10  2  0
 13 12  1  0
 13 14  2  0
 15 14  1  0
 16 15  2  0
 17 16  1  0
 18 17  1  6
 18 20  1  0
 19 18  1  0
 20 21  2  0
 20 31  1  0
 22 23  2  0
 22 16  1  0
 23 13  1  0
 25 24  1  0
 25 35  2  0
 26 25  1  0
 27 26  2  0
 27 28  1  0
 28 34  2  0
 29 28  1  0
 30 29  1  6
 30 32  1  0
 31 30  1  0
 32 36  1  0
 33 32  2  0
 34 35  1  0
M  END
$$$$
