RYY.pdb
     RDKit          3D

 36 37  0  0  1  0  0  0  0  0999 V2000
    7.1880  -14.9051   15.1004 N   0  0  0  0  0  0  0  0  0  0  0  0
    8.4856  -14.3422   15.0500 C   0  0  0  0  0  0  0  0  0  0  0  0
    9.2529  -14.4984   14.0122 N   0  0  0  0  0  0  0  0  0  0  0  0
    8.9772  -13.5902   16.1420 N   0  0  0  0  0  0  0  0  0  0  0  0
    8.0829  -13.2547   17.2609 C   0  0  0  0  0  0  0  0  0  0  0  0
    8.3772  -14.2025   18.3703 C   0  0  0  0  0  0  0  0  0  0  0  0
    9.7734  -14.7164   18.3401 C   0  0  0  0  0  0  0  0  0  0  0  0
   10.0728  -15.6385   19.4708 C   0  0  2  0  0  0  0  0  0  0  0  0
    9.0828  -16.7241   19.6053 N   0  0  0  0  0  0  0  0  0  0  0  0
   10.0002  -14.9188   20.7892 C   0  0  0  0  0  0  0  0  0  0  0  0
   10.6852  -13.9122   21.0480 O   0  0  0  0  0  0  0  0  0  0  0  0
   10.1534  -14.0245   13.8713 O   0  0  0  0  0  0  0  0  0  0  0  0
    6.0015  -11.2228   27.5647 C   0  0  0  0  0  0  0  0  0  0  0  0
    6.3649  -12.0040   26.4679 C   0  0  0  0  0  0  0  0  0  0  0  0
    7.0235  -11.4796   25.3874 C   0  0  0  0  0  0  0  0  0  0  0  0
    7.3771  -12.2761   24.3029 C   0  0  0  0  0  0  0  0  0  0  0  0
    7.0678  -13.6185   24.2978 C   0  0  0  0  0  0  0  0  0  0  0  0
    7.4349  -14.4544   23.1536 C   0  0  2  0  0  0  0  0  0  0  0  0
    8.9129  -14.7251   23.0176 N   0  0  0  0  0  0  0  0  0  0  0  0
    9.1033  -15.4325   21.7580 C   0  0  0  0  0  0  0  0  0  0  0  0
    9.3793  -15.6057   24.1060 O   0  0  0  0  0  0  0  0  0  0  0  0
    9.4632  -16.8629   23.9703 C   0  0  0  0  0  0  0  0  0  0  0  0
    6.4054  -14.1272   25.3940 C   0  0  0  0  0  0  0  0  0  0  0  0
    6.0519  -13.3334   26.4768 O   0  0  0  0  0  0  0  0  0  0  0  0
   12.7830  -18.1145   31.8917 C   0  0  0  0  0  0  0  0  0  0  0  0
   12.3779  -17.3872   30.7761 C   0  0  0  0  0  0  0  0  0  0  0  0
   11.1978  -16.6994   30.7875 C   0  0  0  0  0  0  0  0  0  0  0  0
   10.7610  -15.9711   29.7122 C   0  0  0  0  0  0  0  0  0  0  0  0
   11.5356  -15.9170   28.5524 C   0  0  0  0  0  0  0  0  0  0  0  0
   11.0718  -15.1501   27.4002 C   0  0  1  0  0  0  0  0  0  0  0  0
   10.2668  -15.9644   26.4473 N   0  0  0  0  0  0  0  0  0  0  0  0
    9.7618  -15.0921   25.3707 C   0  0  0  0  0  0  0  0  0  0  0  0
    9.1805  -16.7506   27.0387 O   0  0  0  0  0  0  0  0  0  0  0  0
    7.9878  -16.2967   27.0835 C   0  0  0  0  0  0  0  0  0  0  0  0
   12.7315  -16.6038   28.5171 C   0  0  0  0  0  0  0  0  0  0  0  0
   13.1319  -17.3232   29.6212 O   0  0  0  0  0  0  0  0  0  0  0  0
  2  1  1  0
  2  3  2  0
  4  5  1  0
  4  2  1  0
  5  6  1  0
  6  7  1  0
  7  8  1  0
  8 10  1  0
  8  9  1  1
 10 19  1  0
 11 10  2  0
 13 12  1  0
 13 14  2  0
 15 14  1  0
 16 15  2  0
 17 16  1  0
 18 17  1  6
 18 20  1  0
 19 18  1  0
 20 21  2  0
 20 31  1  0
 22 23  2  0
 22 16  1  0
 23 13  1  0
 25 24  1  0
 25 35  2  0
 26 25  1  0
 27 26  2  0
 27 28  1  0
 28 34  2  0
 29 28  1  0
 30 29  1  6
 30 32  1  0
 31 30  1  0
 32 36  1  0
 33 32  2  0
 34 35  1  0
M  END
$$$$
