RYY.pdb
     RDKit          3D

 36 37  0  0  1  0  0  0  0  0999 V2000
    9.4168  -13.3765   18.5608 N   0  0  0  0  0  0  0  0  0  0  0  0
    8.4756  -12.5420   19.2096 C   0  0  0  0  0  0  0  0  0  0  0  0
    8.5050  -11.2497   19.0700 N   0  0  0  0  0  0  0  0  0  0  0  0
    7.4735  -13.1062   20.0324 N   0  0  0  0  0  0  0  0  0  0  0  0
    7.6835  -14.4309   20.6370 C   0  0  0  0  0  0  0  0  0  0  0  0
    6.6068  -15.3285   20.1362 C   0  0  0  0  0  0  0  0  0  0  0  0
    6.0083  -16.1710   21.2069 C   0  0  0  0  0  0  0  0  0  0  0  0
    6.9381  -17.2262   21.6974 C   0  0  2  0  0  0  0  0  0  0  0  0
    6.5792  -18.5757   21.2214 N   0  0  0  0  0  0  0  0  0  0  0  0
    6.8796  -17.3448   23.1954 C   0  0  0  0  0  0  0  0  0  0  0  0
    5.8316  -17.6123   23.8115 O   0  0  0  0  0  0  0  0  0  0  0  0
    7.8340  -10.5980   19.4946 O   0  0  0  0  0  0  0  0  0  0  0  0
    8.0958  -21.7019   30.2500 C   0  0  0  0  0  0  0  0  0  0  0  0
    8.0935  -21.0708   29.0061 C   0  0  0  0  0  0  0  0  0  0  0  0
    9.2457  -20.8551   28.2976 C   0  0  0  0  0  0  0  0  0  0  0  0
    9.2219  -20.2235   27.0582 C   0  0  0  0  0  0  0  0  0  0  0  0
    8.0274  -19.8004   26.5178 C   0  0  0  0  0  0  0  0  0  0  0  0
    8.0040  -19.1306   25.2165 C   0  0  2  0  0  0  0  0  0  0  0  0
    8.2190  -17.6383   25.2703 N   0  0  0  0  0  0  0  0  0  0  0  0
    8.0863  -17.1383   23.9081 C   0  0  0  0  0  0  0  0  0  0  0  0
    9.5852  -17.3294   25.7346 O   0  0  0  0  0  0  0  0  0  0  0  0
   10.4986  -18.2065   25.7810 C   0  0  0  0  0  0  0  0  0  0  0  0
    6.8794  -20.0268   27.2458 C   0  0  0  0  0  0  0  0  0  0  0  0
    6.9019  -20.6570   28.4827 O   0  0  0  0  0  0  0  0  0  0  0  0
    6.1770  -11.0658   25.4426 C   0  0  0  0  0  0  0  0  0  0  0  0
    6.7711  -12.1450   26.0906 C   0  0  0  0  0  0  0  0  0  0  0  0
    7.9233  -11.9766   26.8047 C   0  0  0  0  0  0  0  0  0  0  0  0
    8.5413  -13.0107   27.4576 C   0  0  0  0  0  0  0  0  0  0  0  0
    7.9896  -14.2916   27.4035 C   0  0  0  0  0  0  0  0  0  0  0  0
    8.6478  -15.3992   28.0895 C   0  0  2  0  0  0  0  0  0  0  0  0
   10.0243  -15.6595   27.5830 N   0  0  0  0  0  0  0  0  0  0  0  0
    9.9545  -16.0273   26.1566 C   0  0  0  0  0  0  0  0  0  0  0  0
   10.8085  -16.6393   28.3400 O   0  0  0  0  0  0  0  0  0  0  0  0
   11.9053  -16.3102   28.9049 C   0  0  0  0  0  0  0  0  0  0  0  0
    6.8262  -14.4863   26.6880 C   0  0  0  0  0  0  0  0  0  0  0  0
    6.2387  -13.4182   26.0471 O   0  0  0  0  0  0  0  0  0  0  0  0
  2  1  1  0
  2  3  2  0
  4  5  1  0
  4  2  1  0
  5  6  1  0
  6  7  1  0
  7  8  1  0
  8 10  1  0
  8  9  1  6
 10 19  1  0
 11 10  2  0
 13 12  1  0
 13 14  2  0
 15 14  1  0
 16 15  2  0
 17 16  1  0
 18 17  1  1
 18 20  1  0
 19 18  1  0
 20 21  2  0
 20 31  1  0
 22 23  2  0
 22 16  1  0
 23 13  1  0
 25 24  1  0
 25 35  2  0
 26 25  1  0
 27 26  2  0
 27 28  1  0
 28 34  2  0
 29 28  1  0
 30 29  1  6
 30 32  1  0
 31 30  1  0
 32 36  1  0
 33 32  2  0
 34 35  1  0
M  END
$$$$
