RYY.pdb
     RDKit          3D

 36 37  0  0  1  0  0  0  0  0999 V2000
    9.8847  -17.5156   14.0785 N   0  0  0  0  0  0  0  0  0  0  0  0
    8.7244  -16.9054   13.5449 C   0  0  0  0  0  0  0  0  0  0  0  0
    8.5350  -16.8140   12.2620 N   0  0  0  0  0  0  0  0  0  0  0  0
    7.7378  -16.3769   14.4091 N   0  0  0  0  0  0  0  0  0  0  0  0
    8.0606  -15.2315   15.2742 C   0  0  0  0  0  0  0  0  0  0  0  0
    9.2900  -15.5788   16.0382 C   0  0  0  0  0  0  0  0  0  0  0  0
    9.7088  -14.5078   16.9826 C   0  0  0  0  0  0  0  0  0  0  0  0
    8.5689  -13.9463   17.7596 C   0  0  2  0  0  0  0  0  0  0  0  0
    8.2429  -12.5581   17.3810 N   0  0  0  0  0  0  0  0  0  0  0  0
    8.9059  -13.8515   19.2221 C   0  0  0  0  0  0  0  0  0  0  0  0
    9.9270  -13.2784   19.6444 O   0  0  0  0  0  0  0  0  0  0  0  0
    7.7149  -16.3822   11.8190 O   0  0  0  0  0  0  0  0  0  0  0  0
    7.2933  -14.1579   27.9109 C   0  0  0  0  0  0  0  0  0  0  0  0
    7.2073  -14.1994   26.5194 C   0  0  0  0  0  0  0  0  0  0  0  0
    7.0709  -15.3774   25.8337 C   0  0  0  0  0  0  0  0  0  0  0  0
    6.9869  -15.3972   24.4451 C   0  0  0  0  0  0  0  0  0  0  0  0
    7.0401  -14.2210   23.7298 C   0  0  0  0  0  0  0  0  0  0  0  0
    6.9577  -14.2435   22.2685 C   0  0  1  0  0  0  0  0  0  0  0  0
    8.2813  -14.4101   21.5638 N   0  0  0  0  0  0  0  0  0  0  0  0
    8.0019  -14.4496   20.1342 C   0  0  0  0  0  0  0  0  0  0  0  0
    8.9081  -15.6926   21.9379 O   0  0  0  0  0  0  0  0  0  0  0  0
    9.0266  -16.6522   21.1188 C   0  0  0  0  0  0  0  0  0  0  0  0
    7.1773  -13.0467   24.4378 C   0  0  0  0  0  0  0  0  0  0  0  0
    7.2612  -13.0256   25.8235 O   0  0  0  0  0  0  0  0  0  0  0  0
   13.9441  -15.9958   17.9481 C   0  0  0  0  0  0  0  0  0  0  0  0
   13.3551  -15.6920   19.1721 C   0  0  0  0  0  0  0  0  0  0  0  0
   13.1415  -16.6704   20.1010 C   0  0  0  0  0  0  0  0  0  0  0  0
   12.5652  -16.4158   21.3178 C   0  0  0  0  0  0  0  0  0  0  0  0
   12.1746  -15.1152   21.6399 C   0  0  0  0  0  0  0  0  0  0  0  0
   11.5521  -14.8387   22.9309 C   0  0  2  0  0  0  0  0  0  0  0  0
   10.8624  -16.0261   23.5086 N   0  0  0  0  0  0  0  0  0  0  0  0
    9.4158  -15.9240   23.2411 C   0  0  0  0  0  0  0  0  0  0  0  0
   11.1168  -16.2838   24.9287 O   0  0  0  0  0  0  0  0  0  0  0  0
   12.3084  -16.3727   25.3788 C   0  0  0  0  0  0  0  0  0  0  0  0
   12.3800  -14.1100   20.7176 C   0  0  0  0  0  0  0  0  0  0  0  0
   12.9629  -14.4111   19.5066 O   0  0  0  0  0  0  0  0  0  0  0  0
  2  1  1  0
  2  3  2  0
  4  5  1  0
  4  2  1  0
  5  6  1  0
  6  7  1  0
  7  8  1  0
  8 10  1  0
  8  9  1  6
 10 19  1  0
 11 10  2  0
 13 12  1  0
 13 14  2  0
 15 14  1  0
 16 15  2  0
 17 16  1  0
 18 17  1  6
 18 20  1  0
 19 18  1  0
 20 21  2  0
 20 31  1  0
 22 23  2  0
 22 16  1  0
 23 13  1  0
 25 24  1  0
 25 35  2  0
 26 25  1  0
 27 26  2  0
 27 28  1  0
 28 34  2  0
 29 28  1  0
 30 29  1  6
 30 32  1  0
 31 30  1  0
 32 36  1  0
 33 32  2  0
 34 35  1  0
M  END
$$$$
