RYY.pdb
     RDKit          3D

 36 37  0  0  1  0  0  0  0  0999 V2000
    8.1802  -12.8463   17.2112 N   0  0  0  0  0  0  0  0  0  0  0  0
    8.0404  -13.6829   16.0782 C   0  0  0  0  0  0  0  0  0  0  0  0
    8.4451  -13.3051   14.9019 N   0  0  0  0  0  0  0  0  0  0  0  0
    7.4497  -14.9612   16.2069 N   0  0  0  0  0  0  0  0  0  0  0  0
    7.3462  -15.5891   17.5334 C   0  0  0  0  0  0  0  0  0  0  0  0
    8.6905  -15.5193   18.1689 C   0  0  0  0  0  0  0  0  0  0  0  0
    8.7650  -16.2667   19.4536 C   0  0  0  0  0  0  0  0  0  0  0  0
    9.7055  -17.4202   19.3956 C   0  0  2  0  0  0  0  0  0  0  0  0
    9.0944  -18.6323   18.8177 N   0  0  0  0  0  0  0  0  0  0  0  0
   10.1213  -17.8490   20.7757 C   0  0  0  0  0  0  0  0  0  0  0  0
    9.5814  -18.7931   21.3812 O   0  0  0  0  0  0  0  0  0  0  0  0
    8.3612  -13.8647   14.0445 O   0  0  0  0  0  0  0  0  0  0  0  0
   15.5225  -21.8560   20.1599 C   0  0  0  0  0  0  0  0  0  0  0  0
   14.9230  -20.7807   20.8156 C   0  0  0  0  0  0  0  0  0  0  0  0
   14.3414  -20.9131   22.0487 C   0  0  0  0  0  0  0  0  0  0  0  0
   13.7485  -19.8277   22.6858 C   0  0  0  0  0  0  0  0  0  0  0  0
   13.7363  -18.5899   22.0812 C   0  0  0  0  0  0  0  0  0  0  0  0
   13.1068  -17.4500   22.7498 C   0  0  2  0  0  0  0  0  0  0  0  0
   11.5983  -17.4660   22.7397 N   0  0  0  0  0  0  0  0  0  0  0  0
   11.1766  -17.1279   21.3865 C   0  0  0  0  0  0  0  0  0  0  0  0
   11.0644  -16.4352   23.6508 O   0  0  0  0  0  0  0  0  0  0  0  0
   11.4692  -15.2346   23.6256 C   0  0  0  0  0  0  0  0  0  0  0  0
   14.3266  -18.4772   20.8411 C   0  0  0  0  0  0  0  0  0  0  0  0
   14.9187  -19.5595   20.2042 O   0  0  0  0  0  0  0  0  0  0  0  0
    5.7850  -10.9772   27.6994 C   0  0  0  0  0  0  0  0  0  0  0  0
    6.4054  -11.9906   26.9743 C   0  0  0  0  0  0  0  0  0  0  0  0
    7.4813  -11.7156   26.1789 C   0  0  0  0  0  0  0  0  0  0  0  0
    8.1217  -12.6820   25.4486 C   0  0  0  0  0  0  0  0  0  0  0  0
    7.6740  -14.0028   25.5054 C   0  0  0  0  0  0  0  0  0  0  0  0
    8.3464  -15.0355   24.7230 C   0  0  1  0  0  0  0  0  0  0  0  0
    9.4643  -15.6870   25.4612 N   0  0  0  0  0  0  0  0  0  0  0  0
   10.0635  -16.7316   24.6100 C   0  0  0  0  0  0  0  0  0  0  0  0
    9.1311  -16.2170   26.7863 O   0  0  0  0  0  0  0  0  0  0  0  0
    8.5631  -17.3530   26.9176 C   0  0  0  0  0  0  0  0  0  0  0  0
    6.5889  -14.3049   26.3018 C   0  0  0  0  0  0  0  0  0  0  0  0
    5.9754  -13.3019   27.0192 O   0  0  0  0  0  0  0  0  0  0  0  0
  2  1  1  0
  2  3  2  0
  4  5  1  0
  4  2  1  0
  5  6  1  0
  6  7  1  0
  7  8  1  0
  8 10  1  0
  8  9  1  1
 10 19  1  0
 11 10  2  0
 13 12  1  0
 13 14  2  0
 15 14  1  0
 16 15  2  0
 17 16  1  0
 18 17  1  6
 18 20  1  0
 19 18  1  0
 20 21  2  0
 20 31  1  0
 22 23  2  0
 22 16  1  0
 23 13  1  0
 25 24  1  0
 25 35  2  0
 26 25  1  0
 27 26  2  0
 27 28  1  0
 28 34  2  0
 29 28  1  0
 30 29  1  6
 30 32  1  0
 31 30  1  0
 32 36  1  0
 33 32  2  0
 34 35  1  0
M  END
$$$$
