RYY.pdb
     RDKit          3D

 36 37  0  0  1  0  0  0  0  0999 V2000
   12.5115  -21.9275   20.6623 N   0  0  0  0  0  0  0  0  0  0  0  0
   13.1479  -21.2984   19.5657 C   0  0  0  0  0  0  0  0  0  0  0  0
   14.4433  -21.2234   19.4850 N   0  0  0  0  0  0  0  0  0  0  0  0
   12.3760  -20.7323   18.5249 N   0  0  0  0  0  0  0  0  0  0  0  0
   10.9690  -20.3776   18.7674 C   0  0  0  0  0  0  0  0  0  0  0  0
   10.9539  -19.1875   19.6613 C   0  0  0  0  0  0  0  0  0  0  0  0
    9.5808  -18.7865   20.0714 C   0  0  0  0  0  0  0  0  0  0  0  0
    9.1398  -17.5116   19.4400 C   0  0  2  0  0  0  0  0  0  0  0  0
    9.9864  -17.1114   18.3000 N   0  0  0  0  0  0  0  0  0  0  0  0
    9.2621  -16.3615   20.4012 C   0  0  0  0  0  0  0  0  0  0  0  0
   10.2610  -15.6200   20.4439 O   0  0  0  0  0  0  0  0  0  0  0  0
   14.9584  -20.7626   18.7250 O   0  0  0  0  0  0  0  0  0  0  0  0
    6.6658  -11.2955   27.2279 C   0  0  0  0  0  0  0  0  0  0  0  0
    6.7328  -12.2507   26.2138 C   0  0  0  0  0  0  0  0  0  0  0  0
    6.3625  -13.5539   26.4161 C   0  0  0  0  0  0  0  0  0  0  0  0
    6.4370  -14.4915   25.3909 C   0  0  0  0  0  0  0  0  0  0  0  0
    6.8888  -14.1212   24.1433 C   0  0  0  0  0  0  0  0  0  0  0  0
    6.9725  -15.1098   23.0671 C   0  0  1  0  0  0  0  0  0  0  0  0
    8.2452  -15.0572   22.2586 N   0  0  0  0  0  0  0  0  0  0  0  0
    8.1764  -16.1374   21.2830 C   0  0  0  0  0  0  0  0  0  0  0  0
    9.4165  -15.3016   23.1223 O   0  0  0  0  0  0  0  0  0  0  0  0
   10.3397  -14.4459   23.2684 C   0  0  0  0  0  0  0  0  0  0  0  0
    7.2563  -12.8057   23.9598 C   0  0  0  0  0  0  0  0  0  0  0  0
    7.1824  -11.8691   24.9820 O   0  0  0  0  0  0  0  0  0  0  0  0
   11.5296  -15.6480   31.3536 C   0  0  0  0  0  0  0  0  0  0  0  0
   10.9862  -15.7193   30.0741 C   0  0  0  0  0  0  0  0  0  0  0  0
   10.9791  -14.6216   29.2612 C   0  0  0  0  0  0  0  0  0  0  0  0
   10.4548  -14.6473   27.9956 C   0  0  0  0  0  0  0  0  0  0  0  0
    9.9025  -15.8291   27.4993 C   0  0  0  0  0  0  0  0  0  0  0  0
    9.3344  -15.8610   26.1551 C   0  0  2  0  0  0  0  0  0  0  0  0
   10.2115  -16.5544   25.1707 N   0  0  0  0  0  0  0  0  0  0  0  0
    9.5751  -16.5132   23.8410 C   0  0  0  0  0  0  0  0  0  0  0  0
   10.6079  -17.9212   25.5208 O   0  0  0  0  0  0  0  0  0  0  0  0
   11.8153  -18.1978   25.8311 C   0  0  0  0  0  0  0  0  0  0  0  0
    9.8980  -16.9511   28.3020 C   0  0  0  0  0  0  0  0  0  0  0  0
   10.4359  -16.8801   29.5679 O   0  0  0  0  0  0  0  0  0  0  0  0
  2  1  1  0
  2  3  2  0
  4  5  1  0
  4  2  1  0
  5  6  1  0
  6  7  1  0
  7  8  1  0
  8 10  1  0
  8  9  1  6
 10 19  1  0
 11 10  2  0
 13 12  1  0
 13 14  2  0
 15 14  1  0
 16 15  2  0
 17 16  1  0
 18 17  1  6
 18 20  1  0
 19 18  1  0
 20 21  2  0
 20 31  1  0
 22 23  2  0
 22 16  1  0
 23 13  1  0
 25 24  1  0
 25 35  2  0
 26 25  1  0
 27 26  2  0
 27 28  1  0
 28 34  2  0
 29 28  1  0
 30 29  1  6
 30 32  1  0
 31 30  1  0
 32 36  1  0
 33 32  2  0
 34 35  1  0
M  END
$$$$
