SGP.pdb
     RDKit          3D

 18 18  0  0  1  0  0  0  0  0999 V2000
    0.7578  -27.2194   27.6926 O   0  0  0  0  0  0  0  0  0  0  0  0
   -0.5268  -26.7614   27.4820 C   0  0  0  0  0  0  0  0  0  0  0  0
   -0.9735  -26.0787   28.7735 C   0  0  2  0  0  0  0  0  0  0  0  0
   -1.3182  -27.0589   29.7788 N   0  0  0  0  0  0  0  0  0  0  0  0
   -2.1851  -25.3024   28.4381 C   0  0  0  0  0  0  0  0  0  0  0  0
   -2.0590  -24.2462   27.7775 O   0  0  0  0  0  0  0  0  0  0  0  0
   -3.4529  -25.7653   28.8673 N   0  0  0  0  0  0  0  0  0  0  0  0
   -4.6123  -24.9885   28.4449 C   0  0  0  0  0  0  0  0  0  0  0  0
   -5.2617  -24.3560   29.6185 C   0  0  0  0  0  0  0  0  0  0  0  0
   -4.7431  -24.4725   30.7479 O   0  0  0  0  0  0  0  0  0  0  0  0
   -6.4488  -23.6407   29.4194 N   0  0  0  0  0  0  0  0  0  0  0  0
   -7.1042  -23.4265   28.1473 C   0  0  0  0  0  0  0  0  0  0  0  0
   -7.3831  -21.9224   28.2296 C   0  0  0  0  0  0  0  0  0  0  0  0
   -7.7821  -21.7612   29.6644 C   0  0  0  0  0  0  0  0  0  0  0  0
   -7.2650  -22.9740   30.4078 C   0  0  1  0  0  0  0  0  0  0  0  0
   -8.4087  -23.8324   30.8169 C   0  0  0  0  0  0  0  0  0  0  0  0
   -8.9833  -23.7376   31.9233 O   0  0  0  0  0  0  0  0  0  0  0  0
   -8.8376  -24.7846   29.8912 O   0  0  0  0  0  0  0  0  0  0  0  0
  1  2  1  0
  3  4  1  1
  3  2  1  0
  5  3  1  0
  6  5  2  0
  7  5  1  0
  8  7  1  0
  9  8  1  0
  9 11  1  0
 10  9  2  0
 11 12  1  0
 13 12  1  0
 14 13  1  0
 15 16  1  6
 15 11  1  0
 15 14  1  0
 16 18  1  0
 17 16  2  0
M  END
$$$$
