SGP.pdb
     RDKit          3D

 18 18  0  0  1  0  0  0  0  0999 V2000
   10.3222  -17.8567   19.4839 O   0  0  0  0  0  0  0  0  0  0  0  0
    9.6373  -16.7273   19.8833 C   0  0  0  0  0  0  0  0  0  0  0  0
    8.3846  -17.2024   20.6172 C   0  0  2  0  0  0  0  0  0  0  0  0
    7.3590  -17.5976   19.6779 N   0  0  0  0  0  0  0  0  0  0  0  0
    7.8914  -16.0461   21.3935 C   0  0  0  0  0  0  0  0  0  0  0  0
    7.8004  -14.9343   20.8246 O   0  0  0  0  0  0  0  0  0  0  0  0
    7.5350  -16.2179   22.7534 N   0  0  0  0  0  0  0  0  0  0  0  0
    7.0336  -15.0415   23.4538 C   0  0  0  0  0  0  0  0  0  0  0  0
    8.0806  -14.4920   24.3489 C   0  0  0  0  0  0  0  0  0  0  0  0
    9.2837  -14.6190   24.0418 O   0  0  0  0  0  0  0  0  0  0  0  0
    7.6810  -13.8412   25.5224 N   0  0  0  0  0  0  0  0  0  0  0  0
    6.3169  -13.5430   25.9020 C   0  0  0  0  0  0  0  0  0  0  0  0
    6.4611  -12.0772   26.3231 C   0  0  0  0  0  0  0  0  0  0  0  0
    7.7780  -12.0899   27.0370 C   0  0  0  0  0  0  0  0  0  0  0  0
    8.5134  -13.3348   26.5893 C   0  0  1  0  0  0  0  0  0  0  0  0
    8.5812  -14.3050   27.7146 C   0  0  0  0  0  0  0  0  0  0  0  0
    7.7723  -15.2464   27.8656 O   0  0  0  0  0  0  0  0  0  0  0  0
    9.6165  -14.1251   28.6330 O   0  0  0  0  0  0  0  0  0  0  0  0
  1  2  1  0
  3  4  1  6
  3  2  1  0
  5  3  1  0
  6  5  2  0
  7  5  1  0
  8  7  1  0
  9  8  1  0
  9 11  1  0
 10  9  2  0
 11 12  1  0
 13 12  1  0
 14 13  1  0
 15 16  1  1
 15 11  1  0
 15 14  1  0
 16 18  1  0
 17 16  2  0
M  END
$$$$
