SGP.pdb
     RDKit          3D

 18 18  0  0  1  0  0  0  0  0999 V2000
   10.4855  -16.4173   20.4549 O   0  0  0  0  0  0  0  0  0  0  0  0
    9.4037  -17.1165   20.9501 C   0  0  0  0  0  0  0  0  0  0  0  0
    8.1475  -16.4234   20.4256 C   0  0  2  0  0  0  0  0  0  0  0  0
    8.3738  -15.8839   19.1035 N   0  0  0  0  0  0  0  0  0  0  0  0
    7.8713  -15.3041   21.3497 C   0  0  0  0  0  0  0  0  0  0  0  0
    8.4746  -14.2202   21.1789 O   0  0  0  0  0  0  0  0  0  0  0  0
    6.9379  -15.4791   22.4003 N   0  0  0  0  0  0  0  0  0  0  0  0
    6.6435  -14.3084   23.2181 C   0  0  0  0  0  0  0  0  0  0  0  0
    7.7191  -14.0961   24.2167 C   0  0  0  0  0  0  0  0  0  0  0  0
    8.8932  -14.4129   23.9357 O   0  0  0  0  0  0  0  0  0  0  0  0
    7.3788  -13.5411   25.4563 N   0  0  0  0  0  0  0  0  0  0  0  0
    6.0439  -13.1837   25.8855 C   0  0  0  0  0  0  0  0  0  0  0  0
    6.3006  -11.7832   26.4505 C   0  0  0  0  0  0  0  0  0  0  0  0
    7.6186  -11.9655   27.1387 C   0  0  0  0  0  0  0  0  0  0  0  0
    8.2554  -13.2088   26.5558 C   0  0  1  0  0  0  0  0  0  0  0  0
    8.2596  -14.2912   27.5758 C   0  0  0  0  0  0  0  0  0  0  0  0
    7.4063  -15.2041   27.6188 O   0  0  0  0  0  0  0  0  0  0  0  0
    9.2859  -14.2550   28.5208 O   0  0  0  0  0  0  0  0  0  0  0  0
  1  2  1  0
  3  4  1  6
  3  2  1  0
  5  3  1  0
  6  5  2  0
  7  5  1  0
  8  7  1  0
  9  8  1  0
  9 11  1  0
 10  9  2  0
 11 12  1  0
 13 12  1  0
 14 13  1  0
 15 16  1  1
 15 11  1  0
 15 14  1  0
 16 18  1  0
 17 16  2  0
M  END
$$$$
