SGP.pdb
     RDKit          3D

 18 18  0  0  1  0  0  0  0  0999 V2000
    9.8845  -17.2357   21.9710 O   0  0  0  0  0  0  0  0  0  0  0  0
    9.6245  -16.9229   20.6523 C   0  0  0  0  0  0  0  0  0  0  0  0
    8.1161  -16.7133   20.5334 C   0  0  2  0  0  0  0  0  0  0  0  0
    7.7407  -16.4566   19.1610 N   0  0  0  0  0  0  0  0  0  0  0  0
    7.7955  -15.5180   21.3405 C   0  0  0  0  0  0  0  0  0  0  0  0
    8.1175  -14.3908   20.9001 O   0  0  0  0  0  0  0  0  0  0  0  0
    7.1364  -15.6707   22.5847 N   0  0  0  0  0  0  0  0  0  0  0  0
    6.7325  -14.4475   23.2676 C   0  0  0  0  0  0  0  0  0  0  0  0
    7.7755  -14.0322   24.2366 C   0  0  0  0  0  0  0  0  0  0  0  0
    8.9806  -14.1741   23.9445 O   0  0  0  0  0  0  0  0  0  0  0  0
    7.3698  -13.4883   25.4614 N   0  0  0  0  0  0  0  0  0  0  0  0
    6.0018  -13.3326   25.9064 C   0  0  0  0  0  0  0  0  0  0  0  0
    6.0381  -11.8869   26.4117 C   0  0  0  0  0  0  0  0  0  0  0  0
    7.3791  -11.8267   27.0767 C   0  0  0  0  0  0  0  0  0  0  0  0
    8.1987  -12.9745   26.5276 C   0  0  1  0  0  0  0  0  0  0  0  0
    8.3938  -13.9992   27.5878 C   0  0  0  0  0  0  0  0  0  0  0  0
    9.2341  -13.8913   28.5074 O   0  0  0  0  0  0  0  0  0  0  0  0
    7.5778  -15.1294   27.5220 O   0  0  0  0  0  0  0  0  0  0  0  0
  1  2  1  0
  3  4  1  6
  3  2  1  0
  5  3  1  0
  6  5  2  0
  7  5  1  0
  8  7  1  0
  9  8  1  0
  9 11  1  0
 10  9  2  0
 11 12  1  0
 13 12  1  0
 14 13  1  0
 15 16  1  1
 15 11  1  0
 15 14  1  0
 16 18  1  0
 17 16  2  0
M  END
$$$$
