SGP.pdb
     RDKit          3D

 18 18  0  0  1  0  0  0  0  0999 V2000
   -4.4145  -28.1440   24.6426 O   0  0  0  0  0  0  0  0  0  0  0  0
   -4.0586  -27.2565   25.6375 C   0  0  0  0  0  0  0  0  0  0  0  0
   -3.5033  -26.0123   24.9466 C   0  0  2  0  0  0  0  0  0  0  0  0
   -2.1439  -26.2336   24.5071 N   0  0  0  0  0  0  0  0  0  0  0  0
   -3.5011  -24.9375   25.9604 C   0  0  0  0  0  0  0  0  0  0  0  0
   -2.4057  -24.5635   26.4382 O   0  0  0  0  0  0  0  0  0  0  0  0
   -4.7276  -24.3577   26.3670 N   0  0  0  0  0  0  0  0  0  0  0  0
   -4.6482  -23.2502   27.3121 C   0  0  0  0  0  0  0  0  0  0  0  0
   -5.5086  -23.5178   28.4900 C   0  0  0  0  0  0  0  0  0  0  0  0
   -6.0899  -24.6176   28.5923 O   0  0  0  0  0  0  0  0  0  0  0  0
   -5.6423  -22.5169   29.4599 N   0  0  0  0  0  0  0  0  0  0  0  0
   -4.9291  -21.2581   29.4806 C   0  0  0  0  0  0  0  0  0  0  0  0
   -4.4707  -21.2237   30.9419 C   0  0  0  0  0  0  0  0  0  0  0  0
   -5.6699  -21.7707   31.6537 C   0  0  0  0  0  0  0  0  0  0  0  0
   -6.4964  -22.5124   30.6253 C   0  0  1  0  0  0  0  0  0  0  0  0
   -7.7519  -21.7608   30.3592 C   0  0  0  0  0  0  0  0  0  0  0  0
   -7.8559  -20.8774   29.4804 O   0  0  0  0  0  0  0  0  0  0  0  0
   -8.8539  -22.0846   31.1520 O   0  0  0  0  0  0  0  0  0  0  0  0
  1  2  1  0
  3  4  1  1
  3  2  1  0
  5  3  1  0
  6  5  2  0
  7  5  1  0
  8  7  1  0
  9  8  1  0
  9 11  1  0
 10  9  2  0
 11 12  1  0
 13 12  1  0
 14 13  1  0
 15 16  1  6
 15 11  1  0
 15 14  1  0
 16 18  1  0
 17 16  2  0
M  END
$$$$
