SGP.pdb
     RDKit          3D

 18 18  0  0  1  0  0  0  0  0999 V2000
   10.0763  -14.4275   18.3840 O   0  0  0  0  0  0  0  0  0  0  0  0
    9.4663  -14.6207   19.6067 C   0  0  0  0  0  0  0  0  0  0  0  0
    8.0488  -14.0635   19.4901 C   0  0  2  0  0  0  0  0  0  0  0  0
    8.0101  -12.9489   18.5701 N   0  0  0  0  0  0  0  0  0  0  0  0
    7.6795  -13.5764   20.8352 C   0  0  0  0  0  0  0  0  0  0  0  0
    8.1076  -12.4608   21.2095 O   0  0  0  0  0  0  0  0  0  0  0  0
    6.8559  -14.3748   21.6660 N   0  0  0  0  0  0  0  0  0  0  0  0
    6.4032  -13.7725   22.9143 C   0  0  0  0  0  0  0  0  0  0  0  0
    7.4947  -13.7900   23.9182 C   0  0  0  0  0  0  0  0  0  0  0  0
    8.6508  -14.1031   23.5671 O   0  0  0  0  0  0  0  0  0  0  0  0
    7.1894  -13.4509   25.2419 N   0  0  0  0  0  0  0  0  0  0  0  0
    5.8709  -13.1470   25.7549 C   0  0  0  0  0  0  0  0  0  0  0  0
    6.1698  -11.8705   26.5472 C   0  0  0  0  0  0  0  0  0  0  0  0
    7.4953  -12.1948   27.1652 C   0  0  0  0  0  0  0  0  0  0  0  0
    8.0928  -13.3309   26.3631 C   0  0  1  0  0  0  0  0  0  0  0  0
    8.0903  -14.5731   27.1809 C   0  0  0  0  0  0  0  0  0  0  0  0
    7.2111  -15.4577   27.0921 O   0  0  0  0  0  0  0  0  0  0  0  0
    9.1411  -14.7272   28.0863 O   0  0  0  0  0  0  0  0  0  0  0  0
  1  2  1  0
  3  4  1  6
  3  2  1  0
  5  3  1  0
  6  5  2  0
  7  5  1  0
  8  7  1  0
  9  8  1  0
  9 11  1  0
 10  9  2  0
 11 12  1  0
 13 12  1  0
 14 13  1  0
 15 16  1  1
 15 11  1  0
 15 14  1  0
 16 18  1  0
 17 16  2  0
M  END
$$$$
