SGP.pdb
     RDKit          3D

 18 18  0  0  1  0  0  0  0  0999 V2000
    7.9684  -19.5827   21.9077 O   0  0  0  0  0  0  0  0  0  0  0  0
    8.2951  -19.0928   23.1558 C   0  0  0  0  0  0  0  0  0  0  0  0
    7.2158  -19.5789   24.1214 C   0  0  2  0  0  0  0  0  0  0  0  0
    6.2909  -20.4660   23.4521 N   0  0  0  0  0  0  0  0  0  0  0  0
    6.4789  -18.3771   24.5636 C   0  0  0  0  0  0  0  0  0  0  0  0
    5.4488  -18.0387   23.9370 O   0  0  0  0  0  0  0  0  0  0  0  0
    6.9489  -17.6393   25.6773 N   0  0  0  0  0  0  0  0  0  0  0  0
    6.2455  -16.4003   25.9876 C   0  0  0  0  0  0  0  0  0  0  0  0
    6.7838  -15.2859   25.1705 C   0  0  0  0  0  0  0  0  0  0  0  0
    7.0053  -15.4631   23.9550 O   0  0  0  0  0  0  0  0  0  0  0  0
    7.0287  -14.0575   25.7961 N   0  0  0  0  0  0  0  0  0  0  0  0
    6.6996  -13.7249   27.1654 C   0  0  0  0  0  0  0  0  0  0  0  0
    6.0350  -12.3591   26.9662 C   0  0  0  0  0  0  0  0  0  0  0  0
    6.9013  -11.7463   25.9088 C   0  0  0  0  0  0  0  0  0  0  0  0
    7.6468  -12.8782   25.2350 C   0  0  1  0  0  0  0  0  0  0  0  0
    9.0876  -12.8114   25.5982 C   0  0  0  0  0  0  0  0  0  0  0  0
    9.6075  -13.5097   26.4956 O   0  0  0  0  0  0  0  0  0  0  0  0
    9.8722  -11.9096   24.8779 O   0  0  0  0  0  0  0  0  0  0  0  0
  1  2  1  0
  3  4  1  6
  3  2  1  0
  5  3  1  0
  6  5  2  0
  7  5  1  0
  8  7  1  0
  9  8  1  0
  9 11  1  0
 10  9  2  0
 11 12  1  0
 13 12  1  0
 14 13  1  0
 15 16  1  1
 15 11  1  0
 15 14  1  0
 16 18  1  0
 17 16  2  0
M  END
$$$$
