SGP.pdb
     RDKit          3D

 18 18  0  0  1  0  0  0  0  0999 V2000
    9.3394  -15.7679   18.5259 O   0  0  0  0  0  0  0  0  0  0  0  0
    9.3333  -14.8077   19.5171 C   0  0  0  0  0  0  0  0  0  0  0  0
    7.9818  -14.0996   19.4427 C   0  0  2  0  0  0  0  0  0  0  0  0
    8.0413  -12.9754   18.5356 N   0  0  0  0  0  0  0  0  0  0  0  0
    7.7001  -13.5933   20.8018 C   0  0  0  0  0  0  0  0  0  0  0  0
    8.2398  -12.5249   21.1696 O   0  0  0  0  0  0  0  0  0  0  0  0
    6.8330  -14.3208   21.6530 N   0  0  0  0  0  0  0  0  0  0  0  0
    6.4240  -13.6643   22.8890 C   0  0  0  0  0  0  0  0  0  0  0  0
    7.5010  -13.7637   23.9037 C   0  0  0  0  0  0  0  0  0  0  0  0
    8.6385  -14.1463   23.5607 O   0  0  0  0  0  0  0  0  0  0  0  0
    7.2035  -13.4214   25.2284 N   0  0  0  0  0  0  0  0  0  0  0  0
    5.8941  -13.0787   25.7400 C   0  0  0  0  0  0  0  0  0  0  0  0
    6.2310  -11.8158   26.5390 C   0  0  0  0  0  0  0  0  0  0  0  0
    7.5443  -12.1843   27.1581 C   0  0  0  0  0  0  0  0  0  0  0  0
    8.1077  -13.3348   26.3520 C   0  0  1  0  0  0  0  0  0  0  0  0
    8.0645  -14.5801   27.1640 C   0  0  0  0  0  0  0  0  0  0  0  0
    7.1541  -15.4325   27.0749 O   0  0  0  0  0  0  0  0  0  0  0  0
    9.1130  -14.7757   28.0641 O   0  0  0  0  0  0  0  0  0  0  0  0
  1  2  1  0
  3  4  1  6
  3  2  1  0
  5  3  1  0
  6  5  2  0
  7  5  1  0
  8  7  1  0
  9  8  1  0
  9 11  1  0
 10  9  2  0
 11 12  1  0
 13 12  1  0
 14 13  1  0
 15 16  1  1
 15 11  1  0
 15 14  1  0
 16 18  1  0
 17 16  2  0
M  END
$$$$
