SGP.pdb
     RDKit          3D

 18 18  0  0  1  0  0  0  0  0999 V2000
   10.7121  -13.1247   19.4716 O   0  0  0  0  0  0  0  0  0  0  0  0
    9.9859  -14.2968   19.4144 C   0  0  0  0  0  0  0  0  0  0  0  0
    8.5109  -13.9042   19.3531 C   0  0  2  0  0  0  0  0  0  0  0  0
    8.3673  -12.4766   19.1751 N   0  0  0  0  0  0  0  0  0  0  0  0
    7.9247  -14.2772   20.6570 C   0  0  0  0  0  0  0  0  0  0  0  0
    7.7643  -15.4911   20.9192 O   0  0  0  0  0  0  0  0  0  0  0  0
    7.5597  -13.2626   21.5752 N   0  0  0  0  0  0  0  0  0  0  0  0
    6.8808  -13.6923   22.7920 C   0  0  0  0  0  0  0  0  0  0  0  0
    7.8340  -13.7242   23.9277 C   0  0  0  0  0  0  0  0  0  0  0  0
    9.0303  -14.0144   23.7212 O   0  0  0  0  0  0  0  0  0  0  0  0
    7.3556  -13.4243   25.2089 N   0  0  0  0  0  0  0  0  0  0  0  0
    5.9858  -13.1031   25.5469 C   0  0  0  0  0  0  0  0  0  0  0  0
    6.1999  -11.8642   26.4221 C   0  0  0  0  0  0  0  0  0  0  0  0
    7.4195  -12.2462   27.2035 C   0  0  0  0  0  0  0  0  0  0  0  0
    8.0973  -13.3688   26.4477 C   0  0  1  0  0  0  0  0  0  0  0  0
    7.9542  -14.6388   27.2083 C   0  0  0  0  0  0  0  0  0  0  0  0
    7.0429  -15.4697   27.0016 O   0  0  0  0  0  0  0  0  0  0  0  0
    8.9059  -14.8844   28.1990 O   0  0  0  0  0  0  0  0  0  0  0  0
  1  2  1  0
  3  4  1  1
  3  2  1  0
  5  3  1  0
  6  5  2  0
  7  5  1  0
  8  7  1  0
  9  8  1  0
  9 11  1  0
 10  9  2  0
 11 12  1  0
 13 12  1  0
 14 13  1  0
 15 16  1  1
 15 11  1  0
 15 14  1  0
 16 18  1  0
 17 16  2  0
M  END
$$$$
