SGP.pdb
     RDKit          3D

 18 18  0  0  1  0  0  0  0  0999 V2000
   10.2328  -18.4855   21.7198 O   0  0  0  0  0  0  0  0  0  0  0  0
   10.2926  -17.1489   21.3817 C   0  0  0  0  0  0  0  0  0  0  0  0
    8.9092  -16.7579   20.8650 C   0  0  2  0  0  0  0  0  0  0  0  0
    8.9767  -16.3448   19.4812 N   0  0  0  0  0  0  0  0  0  0  0  0
    8.4694  -15.6061   21.6791 C   0  0  0  0  0  0  0  0  0  0  0  0
    9.0048  -14.4913   21.4827 O   0  0  0  0  0  0  0  0  0  0  0  0
    7.4601  -15.7855   22.6563 N   0  0  0  0  0  0  0  0  0  0  0  0
    6.9827  -14.5861   23.3342 C   0  0  0  0  0  0  0  0  0  0  0  0
    7.9504  -14.1659   24.3764 C   0  0  0  0  0  0  0  0  0  0  0  0
    9.1717  -14.3472   24.1935 O   0  0  0  0  0  0  0  0  0  0  0  0
    7.4571  -13.5729   25.5449 N   0  0  0  0  0  0  0  0  0  0  0  0
    6.0618  -13.3488   25.8559 C   0  0  0  0  0  0  0  0  0  0  0  0
    6.1142  -11.8928   26.3291 C   0  0  0  0  0  0  0  0  0  0  0  0
    7.3890  -11.8702   27.1155 C   0  0  0  0  0  0  0  0  0  0  0  0
    8.2051  -13.0653   26.6721 C   0  0  1  0  0  0  0  0  0  0  0  0
    8.2560  -14.0683   27.7692 C   0  0  0  0  0  0  0  0  0  0  0  0
    7.4947  -15.0578   27.8373 O   0  0  0  0  0  0  0  0  0  0  0  0
    9.2177  -13.8627   28.7594 O   0  0  0  0  0  0  0  0  0  0  0  0
  1  2  1  0
  3  4  1  6
  3  2  1  0
  5  3  1  0
  6  5  2  0
  7  5  1  0
  8  7  1  0
  9  8  1  0
  9 11  1  0
 10  9  2  0
 11 12  1  0
 13 12  1  0
 14 13  1  0
 15 16  1  1
 15 11  1  0
 15 14  1  0
 16 18  1  0
 17 16  2  0
M  END
$$$$
