SGP.pdb
     RDKit          3D

 18 18  0  0  1  0  0  0  0  0999 V2000
    7.7393  -14.1781   17.5129 O   0  0  0  0  0  0  0  0  0  0  0  0
    8.0127  -13.2513   18.4981 C   0  0  0  0  0  0  0  0  0  0  0  0
    8.6243  -14.0153   19.6710 C   0  0  2  0  0  0  0  0  0  0  0  0
    8.3545  -15.4311   19.5571 N   0  0  0  0  0  0  0  0  0  0  0  0
    7.9636  -13.5069   20.8907 C   0  0  0  0  0  0  0  0  0  0  0  0
    8.1583  -12.3170   21.2288 O   0  0  0  0  0  0  0  0  0  0  0  0
    7.1309  -14.3686   21.6456 N   0  0  0  0  0  0  0  0  0  0  0  0
    6.5851  -13.8323   22.8868 C   0  0  0  0  0  0  0  0  0  0  0  0
    7.6327  -13.7988   23.9360 C   0  0  0  0  0  0  0  0  0  0  0  0
    8.8088  -14.0975   23.6434 O   0  0  0  0  0  0  0  0  0  0  0  0
    7.2643  -13.4291   25.2352 N   0  0  0  0  0  0  0  0  0  0  0  0
    5.9128  -13.2003   25.6987 C   0  0  0  0  0  0  0  0  0  0  0  0
    6.0966  -11.8745   26.4437 C   0  0  0  0  0  0  0  0  0  0  0  0
    7.4224  -12.0773   27.1108 C   0  0  0  0  0  0  0  0  0  0  0  0
    8.1227  -13.1990   26.3745 C   0  0  1  0  0  0  0  0  0  0  0  0
    8.1834  -14.4040   27.2442 C   0  0  0  0  0  0  0  0  0  0  0  0
    8.9917  -14.5348   28.1891 O   0  0  0  0  0  0  0  0  0  0  0  0
    7.2743  -15.4246   26.9619 O   0  0  0  0  0  0  0  0  0  0  0  0
  1  2  1  0
  3  4  1  6
  3  2  1  0
  5  3  1  0
  6  5  2  0
  7  5  1  0
  8  7  1  0
  9  8  1  0
  9 11  1  0
 10  9  2  0
 11 12  1  0
 13 12  1  0
 14 13  1  0
 15 16  1  1
 15 11  1  0
 15 14  1  0
 16 18  1  0
 17 16  2  0
M  END
$$$$
