TGK.pdb
     RDKit          3D

 21 20  0  0  1  0  0  0  0  0999 V2000
    5.4851  -19.0314   20.7810 C   0  0  0  0  0  0  0  0  0  0  0  0
    6.4625  -17.9065   20.9982 C   0  0  1  0  0  0  0  0  0  0  0  0
    7.0217  -18.1008   22.2743 O   0  0  0  0  0  0  0  0  0  0  0  0
    7.6109  -18.0044   20.0158 C   0  0  2  0  0  0  0  0  0  0  0  0
    8.2022  -19.3106   20.1630 N   0  0  0  0  0  0  0  0  0  0  0  0
    8.6201  -16.9706   20.2130 C   0  0  0  0  0  0  0  0  0  0  0  0
    8.4282  -15.7564   19.9275 O   0  0  0  0  0  0  0  0  0  0  0  0
    9.8952  -17.3091   20.7513 N   0  0  0  0  0  0  0  0  0  0  0  0
   10.8889  -16.3113   21.0641 C   0  0  0  0  0  0  0  0  0  0  0  0
   10.7911  -15.9671   22.5040 C   0  0  0  0  0  0  0  0  0  0  0  0
   11.6941  -15.2140   23.0171 O   0  0  0  0  0  0  0  0  0  0  0  0
    9.7369  -16.4437   23.3191 N   0  0  0  0  0  0  0  0  0  0  0  0
    9.7244  -16.0475   24.7230 C   0  0  1  0  0  0  0  0  0  0  0  0
    8.3239  -15.6903   25.1479 C   0  0  0  0  0  0  0  0  0  0  0  0
    8.1743  -14.2158   25.2820 C   0  0  0  0  0  0  0  0  0  0  0  0
    6.7999  -13.8275   25.8198 C   0  0  0  0  0  0  0  0  0  0  0  0
    6.6493  -12.3266   25.8978 C   0  0  0  0  0  0  0  0  0  0  0  0
    5.3577  -11.9368   26.3807 N   0  0  0  0  0  0  0  0  0  0  0  0
   10.2174  -17.1735   25.5434 C   0  0  0  0  0  0  0  0  0  0  0  0
   10.1629  -18.3402   25.0181 O   0  0  0  0  0  0  0  0  0  0  0  0
   10.7318  -17.0822   26.8151 O   0  0  0  0  0  0  0  0  0  0  0  0
  2  1  1  6
  2  3  1  0
  4  2  1  0
  4  5  1  1
  6  7  2  0
  6  4  1  0
  8  6  1  0
  9  8  1  0
  9 10  1  0
 10 11  2  0
 12 10  1  0
 12 13  1  0
 13 14  1  1
 14 15  1  0
 15 16  1  0
 16 17  1  0
 17 18  1  0
 19 13  1  0
 19 21  1  0
 20 19  2  0
M  END
$$$$
