TGK.pdb
     RDKit          3D

 21 20  0  0  1  0  0  0  0  0999 V2000
    9.0425  -12.3901   17.6822 C   0  0  0  0  0  0  0  0  0  0  0  0
    8.7902  -13.2215   18.9122 C   0  0  1  0  0  0  0  0  0  0  0  0
    7.4203  -13.0978   19.2067 O   0  0  0  0  0  0  0  0  0  0  0  0
    9.0272  -14.6882   18.6190 C   0  0  2  0  0  0  0  0  0  0  0  0
    8.2457  -15.0340   17.4585 N   0  0  0  0  0  0  0  0  0  0  0  0
    8.6787  -15.5570   19.7369 C   0  0  0  0  0  0  0  0  0  0  0  0
    7.5093  -15.9876   19.9371 O   0  0  0  0  0  0  0  0  0  0  0  0
    9.6787  -15.9603   20.6683 N   0  0  0  0  0  0  0  0  0  0  0  0
    9.3838  -16.8115   21.7950 C   0  0  0  0  0  0  0  0  0  0  0  0
    9.4784  -16.0124   23.0417 C   0  0  0  0  0  0  0  0  0  0  0  0
   10.5202  -15.2872   23.2275 O   0  0  0  0  0  0  0  0  0  0  0  0
    8.4582  -16.0292   24.0224 N   0  0  0  0  0  0  0  0  0  0  0  0
    8.6508  -15.2251   25.2242 C   0  0  1  0  0  0  0  0  0  0  0  0
    7.3269  -14.6970   25.7118 C   0  0  0  0  0  0  0  0  0  0  0  0
    7.4906  -13.3511   26.3253 C   0  0  0  0  0  0  0  0  0  0  0  0
    6.1493  -12.7270   26.7000 C   0  0  0  0  0  0  0  0  0  0  0  0
    6.3416  -11.4157   27.4245 C   0  0  0  0  0  0  0  0  0  0  0  0
    5.1122  -10.6951   27.5747 N   0  0  0  0  0  0  0  0  0  0  0  0
    9.2626  -16.0683   26.2725 C   0  0  0  0  0  0  0  0  0  0  0  0
    9.2315  -17.3352   26.0879 O   0  0  0  0  0  0  0  0  0  0  0  0
    9.8640  -15.6172   27.4235 O   0  0  0  0  0  0  0  0  0  0  0  0
  2  1  1  6
  2  3  1  0
  4  2  1  0
  4  5  1  6
  6  7  2  0
  6  4  1  0
  8  6  1  0
  9  8  1  0
  9 10  1  0
 10 11  2  0
 12 10  1  0
 12 13  1  0
 13 14  1  1
 14 15  1  0
 15 16  1  0
 16 17  1  0
 17 18  1  0
 19 13  1  0
 19 21  1  0
 20 19  2  0
M  END
$$$$
