TGK.pdb
     RDKit          3D

 21 20  0  0  1  0  0  0  0  0999 V2000
    7.7192  -12.3096   18.8508 C   0  0  0  0  0  0  0  0  0  0  0  0
    7.4559  -13.6667   18.2537 C   0  0  1  0  0  0  0  0  0  0  0  0
    7.7770  -13.5736   16.8873 O   0  0  0  0  0  0  0  0  0  0  0  0
    8.3999  -14.6961   18.8389 C   0  0  2  0  0  0  0  0  0  0  0  0
    8.0551  -15.9766   18.2744 N   0  0  0  0  0  0  0  0  0  0  0  0
    8.3456  -14.7574   20.2948 C   0  0  0  0  0  0  0  0  0  0  0  0
    8.7416  -13.8188   21.0397 O   0  0  0  0  0  0  0  0  0  0  0  0
    7.8274  -15.9156   20.9431 N   0  0  0  0  0  0  0  0  0  0  0  0
    7.6429  -15.9808   22.3723 C   0  0  0  0  0  0  0  0  0  0  0  0
    8.9684  -15.9012   23.0344 C   0  0  0  0  0  0  0  0  0  0  0  0
    9.9448  -15.3741   22.3904 O   0  0  0  0  0  0  0  0  0  0  0  0
    9.1818  -16.3872   24.3463 N   0  0  0  0  0  0  0  0  0  0  0  0
   10.3925  -15.9674   25.0432 C   0  0  1  0  0  0  0  0  0  0  0  0
   10.0437  -15.0271   26.1673 C   0  0  0  0  0  0  0  0  0  0  0  0
   10.4846  -15.5834   27.4752 C   0  0  0  0  0  0  0  0  0  0  0  0
   10.1431  -14.6534   28.6360 C   0  0  0  0  0  0  0  0  0  0  0  0
   10.6583  -15.2037   29.9450 C   0  0  0  0  0  0  0  0  0  0  0  0
   10.4151  -14.3119   31.0399 N   0  0  0  0  0  0  0  0  0  0  0  0
   11.0694  -17.1618   25.5906 C   0  0  0  0  0  0  0  0  0  0  0  0
   12.3129  -17.0442   25.8732 O   0  0  0  0  0  0  0  0  0  0  0  0
   10.4858  -18.3840   25.8270 O   0  0  0  0  0  0  0  0  0  0  0  0
  2  1  1  1
  2  3  1  0
  4  2  1  0
  4  5  1  6
  6  7  2  0
  6  4  1  0
  8  6  1  0
  9  8  1  0
  9 10  1  0
 10 11  2  0
 12 10  1  0
 12 13  1  0
 13 14  1  1
 14 15  1  0
 15 16  1  0
 16 17  1  0
 17 18  1  0
 19 13  1  0
 19 21  1  0
 20 19  2  0
M  END
$$$$
