TGK.pdb
     RDKit          3D

 21 20  0  0  1  0  0  0  0  0999 V2000
    7.0026  -12.7046   17.2356 C   0  0  0  0  0  0  0  0  0  0  0  0
    7.6769  -14.0023   16.8764 C   0  0  1  0  0  0  0  0  0  0  0  0
    8.3110  -13.7963   15.6378 O   0  0  0  0  0  0  0  0  0  0  0  0
    8.7786  -14.3194   17.8659 C   0  0  2  0  0  0  0  0  0  0  0  0
    9.5785  -15.3791   17.3051 N   0  0  0  0  0  0  0  0  0  0  0  0
    8.2731  -14.7107   19.1765 C   0  0  0  0  0  0  0  0  0  0  0  0
    7.8413  -15.8689   19.4312 O   0  0  0  0  0  0  0  0  0  0  0  0
    8.2500  -13.7683   20.2448 N   0  0  0  0  0  0  0  0  0  0  0  0
    7.6532  -14.0677   21.5235 C   0  0  0  0  0  0  0  0  0  0  0  0
    8.7201  -14.4754   22.4707 C   0  0  0  0  0  0  0  0  0  0  0  0
    9.9036  -14.0115   22.2978 O   0  0  0  0  0  0  0  0  0  0  0  0
    8.4683  -15.3549   23.5505 N   0  0  0  0  0  0  0  0  0  0  0  0
    9.5357  -15.5698   24.5214 C   0  0  1  0  0  0  0  0  0  0  0  0
    8.9969  -16.2828   25.7342 C   0  0  0  0  0  0  0  0  0  0  0  0
    8.2627  -17.5149   25.3377 C   0  0  0  0  0  0  0  0  0  0  0  0
    7.7090  -18.2641   26.5465 C   0  0  0  0  0  0  0  0  0  0  0  0
    7.1348  -19.6016   26.1428 C   0  0  0  0  0  0  0  0  0  0  0  0
    6.5424  -20.2924   27.2496 N   0  0  0  0  0  0  0  0  0  0  0  0
   10.5946  -16.3897   23.8963 C   0  0  0  0  0  0  0  0  0  0  0  0
   10.2817  -17.0236   22.8285 O   0  0  0  0  0  0  0  0  0  0  0  0
   11.8834  -16.5304   24.3538 O   0  0  0  0  0  0  0  0  0  0  0  0
  2  1  1  1
  2  3  1  0
  4  2  1  0
  4  5  1  6
  6  7  2  0
  6  4  1  0
  8  6  1  0
  9  8  1  0
  9 10  1  0
 10 11  2  0
 12 10  1  0
 12 13  1  0
 13 14  1  1
 14 15  1  0
 15 16  1  0
 16 17  1  0
 17 18  1  0
 19 13  1  0
 19 21  1  0
 20 19  2  0
M  END
$$$$
