TGK.pdb
     RDKit          3D

 21 20  0  0  1  0  0  0  0  0999 V2000
    8.0181  -12.7503   16.8226 C   0  0  0  0  0  0  0  0  0  0  0  0
    8.0025  -13.9043   17.7900 C   0  0  1  0  0  0  0  0  0  0  0  0
    8.7655  -14.9304   17.2036 O   0  0  0  0  0  0  0  0  0  0  0  0
    8.7147  -13.5306   19.0731 C   0  0  2  0  0  0  0  0  0  0  0  0
   10.0872  -13.2400   18.7427 N   0  0  0  0  0  0  0  0  0  0  0  0
    8.6524  -14.5777   20.0860 C   0  0  0  0  0  0  0  0  0  0  0  0
    7.5795  -14.9271   20.6513 O   0  0  0  0  0  0  0  0  0  0  0  0
    9.8381  -15.2612   20.4822 N   0  0  0  0  0  0  0  0  0  0  0  0
    9.8276  -16.3138   21.4685 C   0  0  0  0  0  0  0  0  0  0  0  0
    9.7778  -15.7072   22.8217 C   0  0  0  0  0  0  0  0  0  0  0  0
   10.8811  -15.3746   23.3854 O   0  0  0  0  0  0  0  0  0  0  0  0
    8.5556  -15.4879   23.5007 N   0  0  0  0  0  0  0  0  0  0  0  0
    8.5967  -14.7681   24.7687 C   0  0  1  0  0  0  0  0  0  0  0  0
    7.3441  -13.9489   24.9402 C   0  0  0  0  0  0  0  0  0  0  0  0
    7.3723  -13.2076   26.2302 C   0  0  0  0  0  0  0  0  0  0  0  0
    6.1049  -12.3848   26.4443 C   0  0  0  0  0  0  0  0  0  0  0  0
    6.1727  -11.6055   27.7364 C   0  0  0  0  0  0  0  0  0  0  0  0
    4.9477  -10.9177   28.0183 N   0  0  0  0  0  0  0  0  0  0  0  0
    8.7024  -15.7457   25.8720 C   0  0  0  0  0  0  0  0  0  0  0  0
    8.2629  -16.9267   25.6433 O   0  0  0  0  0  0  0  0  0  0  0  0
    9.2319  -15.5044   27.1176 O   0  0  0  0  0  0  0  0  0  0  0  0
  2  1  1  6
  2  3  1  0
  4  2  1  0
  4  5  1  6
  6  7  2  0
  6  4  1  0
  8  6  1  0
  9  8  1  0
  9 10  1  0
 10 11  2  0
 12 10  1  0
 12 13  1  0
 13 14  1  1
 14 15  1  0
 15 16  1  0
 16 17  1  0
 17 18  1  0
 19 13  1  0
 19 21  1  0
 20 19  2  0
M  END
$$$$
