TGK.pdb
     RDKit          3D

 21 20  0  0  1  0  0  0  0  0999 V2000
    6.9423  -12.9170   19.2149 C   0  0  0  0  0  0  0  0  0  0  0  0
    8.1421  -13.5795   19.8387 C   0  0  1  0  0  0  0  0  0  0  0  0
    8.0747  -13.3154   21.2188 O   0  0  0  0  0  0  0  0  0  0  0  0
    8.0528  -15.0842   19.6931 C   0  0  2  0  0  0  0  0  0  0  0  0
    6.7912  -15.5034   20.2499 N   0  0  0  0  0  0  0  0  0  0  0  0
    9.1497  -15.7869   20.3483 C   0  0  0  0  0  0  0  0  0  0  0  0
    9.4777  -16.9717   20.0629 O   0  0  0  0  0  0  0  0  0  0  0  0
    9.9100  -15.1379   21.3636 N   0  0  0  0  0  0  0  0  0  0  0  0
   11.0433  -15.7659   21.9976 C   0  0  0  0  0  0  0  0  0  0  0  0
   10.7939  -15.8511   23.4578 C   0  0  0  0  0  0  0  0  0  0  0  0
   11.8014  -15.8685   24.2519 O   0  0  0  0  0  0  0  0  0  0  0  0
    9.4851  -15.9130   23.9927 N   0  0  0  0  0  0  0  0  0  0  0  0
    9.3405  -15.9712   25.4431 C   0  0  1  0  0  0  0  0  0  0  0  0
    8.0041  -15.4099   25.8534 C   0  0  0  0  0  0  0  0  0  0  0  0
    8.0177  -13.9230   25.7968 C   0  0  0  0  0  0  0  0  0  0  0  0
    6.6682  -13.3240   26.1830 C   0  0  0  0  0  0  0  0  0  0  0  0
    6.6986  -11.8159   26.1046 C   0  0  0  0  0  0  0  0  0  0  0  0
    5.4100  -11.2358   26.3416 N   0  0  0  0  0  0  0  0  0  0  0  0
    9.4394  -17.3799   25.8788 C   0  0  0  0  0  0  0  0  0  0  0  0
    8.7669  -17.7137   26.9163 O   0  0  0  0  0  0  0  0  0  0  0  0
   10.1830  -18.3635   25.2708 O   0  0  0  0  0  0  0  0  0  0  0  0
  2  1  1  6
  2  3  1  0
  4  2  1  0
  4  5  1  1
  6  7  2  0
  6  4  1  0
  8  6  1  0
  9  8  1  0
  9 10  1  0
 10 11  2  0
 12 10  1  0
 12 13  1  0
 13 14  1  6
 14 15  1  0
 15 16  1  0
 16 17  1  0
 17 18  1  0
 19 13  1  0
 19 21  1  0
 20 19  2  0
M  END
$$$$
