TGK.pdb
     RDKit          3D

 21 20  0  0  1  0  0  0  0  0999 V2000
    9.2861  -12.6954   19.2317 C   0  0  0  0  0  0  0  0  0  0  0  0
    8.4448  -13.4568   18.2416 C   0  0  1  0  0  0  0  0  0  0  0  0
    8.7447  -12.9313   16.9716 O   0  0  0  0  0  0  0  0  0  0  0  0
    8.8583  -14.9131   18.2032 C   0  0  2  0  0  0  0  0  0  0  0  0
    8.1341  -15.5451   17.1292 N   0  0  0  0  0  0  0  0  0  0  0  0
    8.6063  -15.6110   19.4584 C   0  0  0  0  0  0  0  0  0  0  0  0
    7.4504  -15.9372   19.8459 O   0  0  0  0  0  0  0  0  0  0  0  0
    9.6913  -15.9578   20.3143 N   0  0  0  0  0  0  0  0  0  0  0  0
    9.4930  -16.6241   21.5783 C   0  0  0  0  0  0  0  0  0  0  0  0
    9.4362  -15.6067   22.6568 C   0  0  0  0  0  0  0  0  0  0  0  0
   10.2584  -14.6228   22.6155 O   0  0  0  0  0  0  0  0  0  0  0  0
    8.5067  -15.6926   23.7206 N   0  0  0  0  0  0  0  0  0  0  0  0
    8.5771  -14.6860   24.7740 C   0  0  1  0  0  0  0  0  0  0  0  0
    7.2071  -14.1199   25.0419 C   0  0  0  0  0  0  0  0  0  0  0  0
    7.2705  -13.0572   26.0818 C   0  0  0  0  0  0  0  0  0  0  0  0
    5.9050  -12.4255   26.3374 C   0  0  0  0  0  0  0  0  0  0  0  0
    6.0145  -11.2564   27.2875 C   0  0  0  0  0  0  0  0  0  0  0  0
    4.7304  -10.7633   27.6888 N   0  0  0  0  0  0  0  0  0  0  0  0
    9.1008  -15.3152   26.0045 C   0  0  0  0  0  0  0  0  0  0  0  0
    9.1464  -14.5837   27.0547 O   0  0  0  0  0  0  0  0  0  0  0  0
    9.5390  -16.6127   26.1249 O   0  0  0  0  0  0  0  0  0  0  0  0
  2  1  1  1
  2  3  1  0
  4  2  1  0
  4  5  1  6
  6  7  2  0
  6  4  1  0
  8  6  1  0
  9  8  1  0
  9 10  1  0
 10 11  2  0
 12 10  1  0
 12 13  1  0
 13 14  1  1
 14 15  1  0
 15 16  1  0
 16 17  1  0
 17 18  1  0
 19 13  1  0
 19 21  1  0
 20 19  2  0
M  END
$$$$
