TGK.pdb
     RDKit          3D

 21 20  0  0  1  0  0  0  0  0999 V2000
    8.0941  -15.9022   15.7497 C   0  0  0  0  0  0  0  0  0  0  0  0
    8.8173  -14.7393   16.3761 C   0  0  1  0  0  0  0  0  0  0  0  0
    9.0434  -13.8060   15.3481 O   0  0  0  0  0  0  0  0  0  0  0  0
    7.9294  -14.0449   17.3875 C   0  0  2  0  0  0  0  0  0  0  0  0
    8.6578  -12.9141   17.9053 N   0  0  0  0  0  0  0  0  0  0  0  0
    7.5158  -14.9190   18.4788 C   0  0  0  0  0  0  0  0  0  0  0  0
    6.7631  -15.9185   18.3141 O   0  0  0  0  0  0  0  0  0  0  0  0
    7.9624  -14.6645   19.8077 N   0  0  0  0  0  0  0  0  0  0  0  0
    7.5904  -15.5047   20.9197 C   0  0  0  0  0  0  0  0  0  0  0  0
    8.2489  -14.9982   22.1491 C   0  0  0  0  0  0  0  0  0  0  0  0
    9.4446  -14.5416   22.0606 O   0  0  0  0  0  0  0  0  0  0  0  0
    7.5981  -15.0055   23.4058 N   0  0  0  0  0  0  0  0  0  0  0  0
    8.3966  -14.7164   24.5918 C   0  0  1  0  0  0  0  0  0  0  0  0
    7.5023  -14.5688   25.7950 C   0  0  0  0  0  0  0  0  0  0  0  0
    7.6263  -13.2057   26.3792 C   0  0  0  0  0  0  0  0  0  0  0  0
    6.2752  -12.5039   26.4840 C   0  0  0  0  0  0  0  0  0  0  0  0
    6.4181  -11.1369   27.1103 C   0  0  0  0  0  0  0  0  0  0  0  0
    5.1533  -10.4860   27.2832 N   0  0  0  0  0  0  0  0  0  0  0  0
    9.3446  -15.8282   24.8144 C   0  0  0  0  0  0  0  0  0  0  0  0
    9.0199  -16.9707   24.3356 O   0  0  0  0  0  0  0  0  0  0  0  0
   10.5425  -15.7468   25.4840 O   0  0  0  0  0  0  0  0  0  0  0  0
  2  1  1  6
  2  3  1  0
  4  2  1  0
  4  5  1  1
  6  7  2  0
  6  4  1  0
  8  6  1  0
  9  8  1  0
  9 10  1  0
 10 11  2  0
 12 10  1  0
 12 13  1  0
 13 14  1  1
 14 15  1  0
 15 16  1  0
 16 17  1  0
 17 18  1  0
 19 13  1  0
 19 21  1  0
 20 19  2  0
M  END
$$$$
