TGK.pdb
     RDKit          3D

 21 20  0  0  1  0  0  0  0  0999 V2000
    8.7161  -12.3768   19.5111 C   0  0  0  0  0  0  0  0  0  0  0  0
    8.2965  -13.3038   18.4009 C   0  0  1  0  0  0  0  0  0  0  0  0
    8.9729  -12.8768   17.2437 O   0  0  0  0  0  0  0  0  0  0  0  0
    8.7794  -14.7126   18.6752 C   0  0  2  0  0  0  0  0  0  0  0  0
    8.5657  -15.4887   17.4796 N   0  0  0  0  0  0  0  0  0  0  0  0
    8.1044  -15.3369   19.8070 C   0  0  0  0  0  0  0  0  0  0  0  0
    7.0743  -16.0557   19.6845 O   0  0  0  0  0  0  0  0  0  0  0  0
    8.6021  -15.1493   21.1288 N   0  0  0  0  0  0  0  0  0  0  0  0
    7.9802  -15.7572   22.2797 C   0  0  0  0  0  0  0  0  0  0  0  0
    8.7506  -15.3922   23.4941 C   0  0  0  0  0  0  0  0  0  0  0  0
    9.8895  -14.8198   23.3486 O   0  0  0  0  0  0  0  0  0  0  0  0
    8.2662  -15.6567   24.7972 N   0  0  0  0  0  0  0  0  0  0  0  0
    9.0556  -15.1853   25.9297 C   0  0  1  0  0  0  0  0  0  0  0  0
    8.1841  -14.4068   26.8804 C   0  0  0  0  0  0  0  0  0  0  0  0
    7.4449  -13.3352   26.1596 C   0  0  0  0  0  0  0  0  0  0  0  0
    6.5830  -12.5013   27.1035 C   0  0  0  0  0  0  0  0  0  0  0  0
    5.7958  -11.4589   26.3451 C   0  0  0  0  0  0  0  0  0  0  0  0
    5.0296  -10.6190   27.2173 N   0  0  0  0  0  0  0  0  0  0  0  0
    9.6324  -16.3515   26.6308 C   0  0  0  0  0  0  0  0  0  0  0  0
   10.4458  -16.1068   27.5893 O   0  0  0  0  0  0  0  0  0  0  0  0
    9.3729  -17.6722   26.3508 O   0  0  0  0  0  0  0  0  0  0  0  0
  2  1  1  1
  2  3  1  0
  4  2  1  0
  4  5  1  6
  6  7  2  0
  6  4  1  0
  8  6  1  0
  9  8  1  0
  9 10  1  0
 10 11  2  0
 12 10  1  0
 12 13  1  0
 13 14  1  1
 14 15  1  0
 15 16  1  0
 16 17  1  0
 17 18  1  0
 19 13  1  0
 19 21  1  0
 20 19  2  0
M  END
$$$$
