TGK.pdb
     RDKit          3D

 21 20  0  0  1  0  0  0  0  0999 V2000
    7.4156  -14.1629   16.8390 C   0  0  0  0  0  0  0  0  0  0  0  0
    8.7924  -14.5447   17.3150 C   0  0  1  0  0  0  0  0  0  0  0  0
    9.6674  -14.3178   16.2372 O   0  0  0  0  0  0  0  0  0  0  0  0
    9.2447  -13.6208   18.4264 C   0  0  2  0  0  0  0  0  0  0  0  0
   10.6158  -13.9430   18.7321 N   0  0  0  0  0  0  0  0  0  0  0  0
    8.4236  -13.7275   19.6266 C   0  0  0  0  0  0  0  0  0  0  0  0
    7.1763  -13.5349   19.6281 O   0  0  0  0  0  0  0  0  0  0  0  0
    9.0222  -14.0632   20.8753 N   0  0  0  0  0  0  0  0  0  0  0  0
    8.2397  -14.3389   22.0554 C   0  0  0  0  0  0  0  0  0  0  0  0
    9.1561  -14.6333   23.1846 C   0  0  0  0  0  0  0  0  0  0  0  0
    8.6548  -14.7998   24.3537 O   0  0  0  0  0  0  0  0  0  0  0  0
   10.5565  -14.7345   23.0071 N   0  0  0  0  0  0  0  0  0  0  0  0
   11.2753  -15.7336   23.7900 C   0  0  1  0  0  0  0  0  0  0  0  0
   10.8183  -17.1175   23.4087 C   0  0  0  0  0  0  0  0  0  0  0  0
   11.5668  -18.1494   24.1764 C   0  0  0  0  0  0  0  0  0  0  0  0
   11.1158  -19.5638   23.8227 C   0  0  0  0  0  0  0  0  0  0  0  0
   11.8969  -20.5958   24.6014 C   0  0  0  0  0  0  0  0  0  0  0  0
   11.3589  -21.9144   24.4430 N   0  0  0  0  0  0  0  0  0  0  0  0
   12.7230  -15.6007   23.5241 C   0  0  0  0  0  0  0  0  0  0  0  0
   13.0621  -15.1749   22.3649 O   0  0  0  0  0  0  0  0  0  0  0  0
   13.7365  -15.8885   24.4072 O   0  0  0  0  0  0  0  0  0  0  0  0
  2  1  1  6
  2  3  1  0
  4  2  1  0
  4  5  1  1
  6  7  2  0
  6  4  1  0
  8  6  1  0
  9  8  1  0
  9 10  1  0
 10 11  2  0
 12 10  1  0
 12 13  1  0
 13 14  1  6
 14 15  1  0
 15 16  1  0
 16 17  1  0
 17 18  1  0
 19 13  1  0
 19 21  1  0
 20 19  2  0
M  END
$$$$
