TGK.pdb
     RDKit          3D

 21 20  0  0  1  0  0  0  0  0999 V2000
    7.8257  -12.1935   18.2726 C   0  0  0  0  0  0  0  0  0  0  0  0
    8.0544  -13.5737   18.8298 C   0  0  1  0  0  0  0  0  0  0  0  0
    8.6093  -14.3403   17.7889 O   0  0  0  0  0  0  0  0  0  0  0  0
    9.0970  -13.5367   19.9275 C   0  0  2  0  0  0  0  0  0  0  0  0
   10.3556  -13.1783   19.3233 N   0  0  0  0  0  0  0  0  0  0  0  0
    9.2231  -14.8040   20.6376 C   0  0  0  0  0  0  0  0  0  0  0  0
    8.2943  -15.2996   21.3336 O   0  0  0  0  0  0  0  0  0  0  0  0
   10.4370  -15.5465   20.5659 N   0  0  0  0  0  0  0  0  0  0  0  0
   10.6391  -16.7663   21.3089 C   0  0  0  0  0  0  0  0  0  0  0  0
   11.2405  -16.4365   22.6246 C   0  0  0  0  0  0  0  0  0  0  0  0
   12.2353  -15.6271   22.6584 O   0  0  0  0  0  0  0  0  0  0  0  0
   10.7496  -16.9866   23.8326 N   0  0  0  0  0  0  0  0  0  0  0  0
   11.5214  -16.7628   25.0500 C   0  0  1  0  0  0  0  0  0  0  0  0
   10.6684  -17.0347   26.2615 C   0  0  0  0  0  0  0  0  0  0  0  0
   11.0306  -16.1186   27.3769 C   0  0  0  0  0  0  0  0  0  0  0  0
    9.9500  -15.0710   27.6297 C   0  0  0  0  0  0  0  0  0  0  0  0
   10.3886  -14.0781   28.6801 C   0  0  0  0  0  0  0  0  0  0  0  0
    9.3508  -13.1473   29.0116 N   0  0  0  0  0  0  0  0  0  0  0  0
   12.6871  -17.6713   25.0527 C   0  0  0  0  0  0  0  0  0  0  0  0
   12.5837  -18.7481   24.3673 O   0  0  0  0  0  0  0  0  0  0  0  0
   13.8714  -17.4642   25.7196 O   0  0  0  0  0  0  0  0  0  0  0  0
  2  1  1  6
  2  3  1  0
  4  2  1  0
  4  5  1  6
  6  7  2  0
  6  4  1  0
  8  6  1  0
  9  8  1  0
  9 10  1  0
 10 11  2  0
 12 10  1  0
 12 13  1  0
 13 14  1  1
 14 15  1  0
 15 16  1  0
 16 17  1  0
 17 18  1  0
 19 13  1  0
 19 21  1  0
 20 19  2  0
M  END
$$$$
