NRG.pdb
     RDKit          3D

 24 23  0  0  1  0  0  0  0  0999 V2000
    9.2701  -21.4414   21.2350 N   0  0  0  0  0  0  0  0  0  0  0  0
    9.9468  -21.2586   22.4765 C   0  0  0  0  0  0  0  0  0  0  0  0
   10.1357  -22.2313   23.2277 O   0  0  0  0  0  0  0  0  0  0  0  0
   10.4194  -19.9241   22.8675 C   0  0  0  0  0  0  0  0  0  0  0  0
   10.0839  -18.8677   21.8454 C   0  0  2  0  0  0  0  0  0  0  0  0
   11.0245  -18.9052   20.7302 N   0  0  0  0  0  0  0  0  0  0  0  0
   10.0798  -17.5369   22.4877 C   0  0  0  0  0  0  0  0  0  0  0  0
   11.1172  -16.8487   22.5644 O   0  0  0  0  0  0  0  0  0  0  0  0
    6.9465  -13.7537   18.0910 N   0  0  0  0  0  0  0  0  0  0  0  0
    7.7483  -13.0032   19.0029 C   0  0  0  0  0  0  0  0  0  0  0  0
    7.5210  -11.7534   19.2326 N   0  0  0  0  0  0  0  0  0  0  0  0
    8.8383  -13.5932   19.7003 N   0  0  0  0  0  0  0  0  0  0  0  0
    8.7988  -13.8136   21.1233 C   0  0  0  0  0  0  0  0  0  0  0  0
    7.6711  -14.6928   21.5851 C   0  0  0  0  0  0  0  0  0  0  0  0
    7.6795  -14.8914   23.0836 C   0  0  0  0  0  0  0  0  0  0  0  0
    8.8856  -15.6163   23.5680 C   0  0  2  0  0  0  0  0  0  0  0  0
    8.8838  -16.9654   23.0577 N   0  0  0  0  0  0  0  0  0  0  0  0
    9.0035  -15.5961   25.0547 C   0  0  0  0  0  0  0  0  0  0  0  0
    8.7400  -14.6179   25.7595 O   0  0  0  0  0  0  0  0  0  0  0  0
    8.1284  -11.2059   19.8593 N   0  0  0  0  0  0  0  0  0  0  0  0
    9.4498  -16.7858   25.7023 C   0  0  0  0  0  0  0  0  0  0  0  0
    9.5654  -16.8749   27.1454 C   0  0  0  0  0  0  0  0  0  0  0  0
    9.9306  -18.2257   27.5984 O   0  0  0  0  0  0  0  0  0  0  0  0
   10.1300  -19.1090   26.7295 O   0  0  0  0  0  0  0  0  0  0  0  0
  1  2  1  0
  2  3  2  0
  4  2  1  0
  5  4  1  0
  5  6  1  6
  7  5  1  0
  7  8  2  0
  9 10  1  0
 10 12  1  0
 11 10  2  0
 12 13  1  0
 13 14  1  0
 15 14  1  0
 16 15  1  1
 16 17  1  0
 17  7  1  0
 18 20  1  0
 18 16  1  0
 19 18  2  0
 21 22  1  0
 21 20  1  0
 22 24  1  0
 23 22  2  0
M  END
$$$$
