NRG.pdb
     RDKit          3D

 24 23  0  0  1  0  0  0  0  0999 V2000
   14.0235  -13.8106   18.7259 N   0  0  0  0  0  0  0  0  0  0  0  0
   14.1912  -15.1890   19.0491 C   0  0  0  0  0  0  0  0  0  0  0  0
   15.2302  -15.5700   19.6160 O   0  0  0  0  0  0  0  0  0  0  0  0
   13.1391  -16.1570   18.7126 C   0  0  0  0  0  0  0  0  0  0  0  0
   12.9359  -17.1907   19.7911 C   0  0  2  0  0  0  0  0  0  0  0  0
   12.0528  -18.2573   19.3302 N   0  0  0  0  0  0  0  0  0  0  0  0
   12.3939  -16.5444   21.0044 C   0  0  0  0  0  0  0  0  0  0  0  0
   13.0762  -15.7439   21.6749 O   0  0  0  0  0  0  0  0  0  0  0  0
    8.2695  -11.9114   20.2184 N   0  0  0  0  0  0  0  0  0  0  0  0
    8.3404  -12.8910   19.1826 C   0  0  0  0  0  0  0  0  0  0  0  0
    8.8161  -12.6084   18.0162 N   0  0  0  0  0  0  0  0  0  0  0  0
    7.8880  -14.2243   19.3823 N   0  0  0  0  0  0  0  0  0  0  0  0
    7.9786  -14.8724   20.6656 C   0  0  0  0  0  0  0  0  0  0  0  0
    9.3233  -14.7573   21.3265 C   0  0  0  0  0  0  0  0  0  0  0  0
    9.3861  -15.5222   22.6287 C   0  0  0  0  0  0  0  0  0  0  0  0
   10.6286  -16.3290   22.7706 C   0  0  2  0  0  0  0  0  0  0  0  0
   11.0552  -16.8027   21.4767 N   0  0  0  0  0  0  0  0  0  0  0  0
   10.4702  -17.4537   23.7374 C   0  0  0  0  0  0  0  0  0  0  0  0
    9.5183  -18.2392   23.7399 O   0  0  0  0  0  0  0  0  0  0  0  0
    8.8708  -13.3210   17.2742 N   0  0  0  0  0  0  0  0  0  0  0  0
   11.4860  -17.6315   24.7225 C   0  0  0  0  0  0  0  0  0  0  0  0
   11.2178  -18.2834   25.9901 C   0  0  0  0  0  0  0  0  0  0  0  0
   12.3973  -18.3135   26.8682 O   0  0  0  0  0  0  0  0  0  0  0  0
   13.4908  -17.9055   26.4068 O   0  0  0  0  0  0  0  0  0  0  0  0
  1  2  1  0
  2  3  2  0
  4  2  1  0
  5  4  1  0
  5  6  1  6
  7  5  1  0
  7  8  2  0
  9 10  1  0
 10 12  1  0
 11 10  2  0
 12 13  1  0
 13 14  1  0
 15 14  1  0
 16 15  1  6
 16 17  1  0
 17  7  1  0
 18 20  1  0
 18 16  1  0
 19 18  2  0
 21 22  1  0
 21 20  1  0
 22 24  1  0
 23 22  2  0
M  END
$$$$
