NRG.pdb
     RDKit          3D

 24 23  0  0  1  0  0  0  0  0999 V2000
   15.0996  -16.2240   14.3870 N   0  0  0  0  0  0  0  0  0  0  0  0
   15.4332  -16.9389   15.5746 C   0  0  0  0  0  0  0  0  0  0  0  0
   15.6780  -18.1566   15.5161 O   0  0  0  0  0  0  0  0  0  0  0  0
   15.4871  -16.2385   16.8645 C   0  0  0  0  0  0  0  0  0  0  0  0
   14.9670  -14.8259   16.7794 C   0  0  2  0  0  0  0  0  0  0  0  0
   16.0640  -13.8757   16.6263 N   0  0  0  0  0  0  0  0  0  0  0  0
   14.1654  -14.5172   17.9818 C   0  0  0  0  0  0  0  0  0  0  0  0
   14.7066  -14.2552   19.0745 O   0  0  0  0  0  0  0  0  0  0  0  0
    7.4733  -15.1568   21.3621 N   0  0  0  0  0  0  0  0  0  0  0  0
    7.1028  -13.8023   21.6185 C   0  0  0  0  0  0  0  0  0  0  0  0
    6.3770  -13.4811   22.6367 N   0  0  0  0  0  0  0  0  0  0  0  0
    7.5112  -12.7410   20.7646 N   0  0  0  0  0  0  0  0  0  0  0  0
    8.3940  -12.9622   19.6480 C   0  0  0  0  0  0  0  0  0  0  0  0
    9.7302  -13.5419   20.0173 C   0  0  0  0  0  0  0  0  0  0  0  0
   10.6476  -13.6671   18.8224 C   0  0  0  0  0  0  0  0  0  0  0  0
   11.9702  -14.2580   19.1634 C   0  0  2  0  0  0  0  0  0  0  0  0
   12.7227  -14.5026   17.9574 N   0  0  0  0  0  0  0  0  0  0  0  0
   11.8462  -15.4944   19.9883 C   0  0  0  0  0  0  0  0  0  0  0  0
   11.2167  -16.4988   19.6448 O   0  0  0  0  0  0  0  0  0  0  0  0
    6.1008  -12.5037   22.8092 N   0  0  0  0  0  0  0  0  0  0  0  0
   12.4981  -15.5155   21.2567 C   0  0  0  0  0  0  0  0  0  0  0  0
   12.3666  -16.6372   22.1667 C   0  0  0  0  0  0  0  0  0  0  0  0
   13.2197  -16.4994   23.3568 O   0  0  0  0  0  0  0  0  0  0  0  0
   14.0723  -15.5786   23.3721 O   0  0  0  0  0  0  0  0  0  0  0  0
  1  2  1  0
  2  3  2  0
  4  2  1  0
  5  4  1  0
  5  6  1  1
  7  5  1  0
  7  8  2  0
  9 10  1  0
 10 12  1  0
 11 10  2  0
 12 13  1  0
 13 14  1  0
 15 14  1  0
 16 15  1  6
 16 17  1  0
 17  7  1  0
 18 20  1  0
 18 16  1  0
 19 18  2  0
 21 22  1  0
 21 20  1  0
 22 24  1  0
 23 22  2  0
M  END
$$$$
