NRG.pdb
     RDKit          3D

 24 23  0  0  1  0  0  0  0  0999 V2000
   13.0304  -19.9286   19.1657 N   0  0  0  0  0  0  0  0  0  0  0  0
   12.9931  -18.5760   18.7166 C   0  0  0  0  0  0  0  0  0  0  0  0
   13.3920  -18.2919   17.5736 O   0  0  0  0  0  0  0  0  0  0  0  0
   12.4849  -17.5203   19.6024 C   0  0  0  0  0  0  0  0  0  0  0  0
   12.2800  -17.9994   21.0171 C   0  0  2  0  0  0  0  0  0  0  0  0
   11.3362  -19.1118   21.0584 N   0  0  0  0  0  0  0  0  0  0  0  0
   11.8121  -16.8789   21.8594 C   0  0  0  0  0  0  0  0  0  0  0  0
   12.4981  -15.8482   22.0102 O   0  0  0  0  0  0  0  0  0  0  0  0
    9.0324  -13.3277   18.2794 N   0  0  0  0  0  0  0  0  0  0  0  0
    8.1725  -12.8347   19.3066 C   0  0  0  0  0  0  0  0  0  0  0  0
    8.2649  -11.6229   19.7419 N   0  0  0  0  0  0  0  0  0  0  0  0
    7.1748  -13.6537   19.9035 N   0  0  0  0  0  0  0  0  0  0  0  0
    7.3172  -14.1708   21.2404 C   0  0  0  0  0  0  0  0  0  0  0  0
    8.6122  -14.8896   21.4942 C   0  0  0  0  0  0  0  0  0  0  0  0
    8.6999  -15.4260   22.9047 C   0  0  0  0  0  0  0  0  0  0  0  0
   10.0884  -15.7783   23.3082 C   0  0  2  0  0  0  0  0  0  0  0  0
   10.5452  -16.9163   22.5488 N   0  0  0  0  0  0  0  0  0  0  0  0
   10.2120  -16.0171   24.7753 C   0  0  0  0  0  0  0  0  0  0  0  0
    9.8425  -15.2206   25.6426 O   0  0  0  0  0  0  0  0  0  0  0  0
    7.6784  -11.2881   20.5199 N   0  0  0  0  0  0  0  0  0  0  0  0
   10.7952  -17.2467   25.2019 C   0  0  0  0  0  0  0  0  0  0  0  0
   10.9831  -17.5588   26.6058 C   0  0  0  0  0  0  0  0  0  0  0  0
   11.6416  -18.8579   26.8104 O   0  0  0  0  0  0  0  0  0  0  0  0
   11.9825  -19.5160   25.7976 O   0  0  0  0  0  0  0  0  0  0  0  0
  1  2  1  0
  2  3  2  0
  4  2  1  0
  5  4  1  0
  5  6  1  6
  7  5  1  0
  7  8  2  0
  9 10  1  0
 10 12  1  0
 11 10  2  0
 12 13  1  0
 13 14  1  0
 15 14  1  0
 16 15  1  1
 16 17  1  0
 17  7  1  0
 18 20  1  0
 18 16  1  0
 19 18  2  0
 21 22  1  0
 21 20  1  0
 22 24  1  0
 23 22  2  0
M  END
$$$$
