NRG.pdb
     RDKit          3D

 24 23  0  0  1  0  0  0  0  0999 V2000
    8.3508  -13.1676   15.2052 N   0  0  0  0  0  0  0  0  0  0  0  0
    7.6684  -14.1560   15.9734 C   0  0  0  0  0  0  0  0  0  0  0  0
    7.0708  -15.0829   15.3990 O   0  0  0  0  0  0  0  0  0  0  0  0
    7.6709  -14.0792   17.4402 C   0  0  0  0  0  0  0  0  0  0  0  0
    8.5733  -15.1079   18.0730 C   0  0  2  0  0  0  0  0  0  0  0  0
    7.9654  -16.4338   18.0246 N   0  0  0  0  0  0  0  0  0  0  0  0
    8.8751  -14.7163   19.4655 C   0  0  0  0  0  0  0  0  0  0  0  0
    9.6099  -13.7416   19.7222 O   0  0  0  0  0  0  0  0  0  0  0  0
    5.0541  -12.7002   27.0148 N   0  0  0  0  0  0  0  0  0  0  0  0
    6.4511  -12.4095   27.0547 C   0  0  0  0  0  0  0  0  0  0  0  0
    6.9364  -11.5333   27.8691 N   0  0  0  0  0  0  0  0  0  0  0  0
    7.3763  -13.0670   26.1979 N   0  0  0  0  0  0  0  0  0  0  0  0
    6.9952  -13.5455   24.8937 C   0  0  0  0  0  0  0  0  0  0  0  0
    8.0666  -14.3181   24.1775 C   0  0  0  0  0  0  0  0  0  0  0  0
    7.6557  -14.6946   22.7723 C   0  0  0  0  0  0  0  0  0  0  0  0
    8.7984  -15.1475   21.9333 C   0  0  2  0  0  0  0  0  0  0  0  0
    8.3402  -15.4354   20.5963 N   0  0  0  0  0  0  0  0  0  0  0  0
    9.5139  -16.3137   22.5271 C   0  0  0  0  0  0  0  0  0  0  0  0
    9.1339  -17.4841   22.4319 O   0  0  0  0  0  0  0  0  0  0  0  0
    7.9443  -11.3209   27.8875 N   0  0  0  0  0  0  0  0  0  0  0  0
   10.7155  -16.0580   23.2516 C   0  0  0  0  0  0  0  0  0  0  0  0
   11.5554  -17.1323   23.7453 C   0  0  0  0  0  0  0  0  0  0  0  0
   11.2529  -17.4876   25.1401 O   0  0  0  0  0  0  0  0  0  0  0  0
   10.0669  -17.3789   25.5360 O   0  0  0  0  0  0  0  0  0  0  0  0
  1  2  1  0
  2  3  2  0
  4  2  1  0
  5  4  1  0
  5  6  1  1
  7  5  1  0
  7  8  2  0
  9 10  1  0
 10 12  1  0
 11 10  2  0
 12 13  1  0
 13 14  1  0
 15 14  1  0
 16 15  1  1
 16 17  1  0
 17  7  1  0
 18 20  1  0
 18 16  1  0
 19 18  2  0
 21 22  1  0
 21 20  1  0
 22 24  1  0
 23 22  2  0
M  END
$$$$
