NRG.pdb
     RDKit          3D

 24 23  0  0  1  0  0  0  0  0999 V2000
    7.7470  -12.4114   17.0720 N   0  0  0  0  0  0  0  0  0  0  0  0
    6.9416  -13.1672   17.9736 C   0  0  0  0  0  0  0  0  0  0  0  0
    5.7035  -13.0579   17.9383 O   0  0  0  0  0  0  0  0  0  0  0  0
    7.5731  -14.0728   18.9423 C   0  0  0  0  0  0  0  0  0  0  0  0
    9.0745  -13.9374   18.9692 C   0  0  2  0  0  0  0  0  0  0  0  0
    9.6508  -14.2745   17.6714 N   0  0  0  0  0  0  0  0  0  0  0  0
    9.6330  -14.7966   20.0338 C   0  0  0  0  0  0  0  0  0  0  0  0
    9.3040  -14.6493   21.2278 O   0  0  0  0  0  0  0  0  0  0  0  0
   10.2862  -22.6477   17.7830 N   0  0  0  0  0  0  0  0  0  0  0  0
    9.0759  -21.8972   17.8807 C   0  0  0  0  0  0  0  0  0  0  0  0
    7.9608  -22.3487   17.4125 N   0  0  0  0  0  0  0  0  0  0  0  0
    9.0387  -20.6150   18.4947 N   0  0  0  0  0  0  0  0  0  0  0  0
   10.2197  -20.0046   19.0494 C   0  0  0  0  0  0  0  0  0  0  0  0
    9.9735  -18.6988   19.7510 C   0  0  0  0  0  0  0  0  0  0  0  0
   11.2497  -18.0873   20.2824 C   0  0  0  0  0  0  0  0  0  0  0  0
   11.0600  -16.7071   20.8056 C   0  0  2  0  0  0  0  0  0  0  0  0
   10.5831  -15.8453   19.7519 N   0  0  0  0  0  0  0  0  0  0  0  0
   12.2965  -16.1624   21.4372 C   0  0  0  0  0  0  0  0  0  0  0  0
   13.1097  -15.4356   20.8596 O   0  0  0  0  0  0  0  0  0  0  0  0
    7.0935  -21.7957   17.4708 N   0  0  0  0  0  0  0  0  0  0  0  0
   12.5543  -16.5047   22.7975 C   0  0  0  0  0  0  0  0  0  0  0  0
   13.6900  -15.9655   23.5208 C   0  0  0  0  0  0  0  0  0  0  0  0
   13.7200  -16.3994   24.9258 O   0  0  0  0  0  0  0  0  0  0  0  0
   12.7698  -17.1009   25.3503 O   0  0  0  0  0  0  0  0  0  0  0  0
  1  2  1  0
  2  3  2  0
  4  2  1  0
  5  4  1  0
  5  6  1  6
  7  5  1  0
  7  8  2  0
  9 10  1  0
 10 12  1  0
 11 10  2  0
 12 13  1  0
 13 14  1  0
 15 14  1  0
 16 15  1  6
 16 17  1  0
 17  7  1  0
 18 20  1  0
 18 16  1  0
 19 18  2  0
 21 22  1  0
 21 20  1  0
 22 24  1  0
 23 22  2  0
M  END
$$$$
