NRG.pdb
     RDKit          3D

 24 23  0  0  1  0  0  0  0  0999 V2000
   10.6596  -23.0751   23.3918 N   0  0  0  0  0  0  0  0  0  0  0  0
   10.2815  -22.1802   22.3483 C   0  0  0  0  0  0  0  0  0  0  0  0
    9.4139  -22.5203   21.5251 O   0  0  0  0  0  0  0  0  0  0  0  0
   10.9159  -20.8595   22.2457 C   0  0  0  0  0  0  0  0  0  0  0  0
   10.2612  -19.9807   21.2102 C   0  0  2  0  0  0  0  0  0  0  0  0
   10.5601  -20.4534   19.8622 N   0  0  0  0  0  0  0  0  0  0  0  0
   10.7061  -18.5831   21.3900 C   0  0  0  0  0  0  0  0  0  0  0  0
   11.6250  -18.0992   20.6993 O   0  0  0  0  0  0  0  0  0  0  0  0
    7.6599  -14.3613   18.7013 N   0  0  0  0  0  0  0  0  0  0  0  0
    7.6405  -13.1052   19.3792 C   0  0  0  0  0  0  0  0  0  0  0  0
    7.6849  -11.9880   18.7340 N   0  0  0  0  0  0  0  0  0  0  0  0
    7.5749  -13.0221   20.7974 N   0  0  0  0  0  0  0  0  0  0  0  0
    7.5801  -14.1991   21.6278 C   0  0  0  0  0  0  0  0  0  0  0  0
    8.7678  -15.0973   21.4255 C   0  0  0  0  0  0  0  0  0  0  0  0
    9.4627  -15.4258   22.7270 C   0  0  0  0  0  0  0  0  0  0  0  0
   10.6026  -16.3673   22.5569 C   0  0  2  0  0  0  0  0  0  0  0  0
   10.1060  -17.7083   22.3681 N   0  0  0  0  0  0  0  0  0  0  0  0
   11.5714  -16.2993   23.6889 C   0  0  0  0  0  0  0  0  0  0  0  0
   11.2494  -16.3024   24.8803 O   0  0  0  0  0  0  0  0  0  0  0  0
    7.6656  -11.0842   19.2281 N   0  0  0  0  0  0  0  0  0  0  0  0
   12.9600  -16.2263   23.3720 C   0  0  0  0  0  0  0  0  0  0  0  0
   13.9806  -16.2073   24.4023 C   0  0  0  0  0  0  0  0  0  0  0  0
   15.3414  -16.1649   23.8459 O   0  0  0  0  0  0  0  0  0  0  0  0
   15.4747  -16.2269   22.5995 O   0  0  0  0  0  0  0  0  0  0  0  0
  1  2  1  0
  2  3  2  0
  4  2  1  0
  5  4  1  0
  5  6  1  6
  7  5  1  0
  7  8  2  0
  9 10  1  0
 10 12  1  0
 11 10  2  0
 12 13  1  0
 13 14  1  0
 15 14  1  0
 16 15  1  1
 16 17  1  0
 17  7  1  0
 18 20  1  0
 18 16  1  0
 19 18  2  0
 21 22  1  0
 21 20  1  0
 22 24  1  0
 23 22  2  0
M  END
$$$$
