NRG.pdb
     RDKit          3D

 24 23  0  0  1  0  0  0  0  0999 V2000
   17.8511  -14.9230   17.8077 N   0  0  0  0  0  0  0  0  0  0  0  0
   16.7775  -13.9923   17.6908 C   0  0  0  0  0  0  0  0  0  0  0  0
   16.7894  -13.1443   16.7814 O   0  0  0  0  0  0  0  0  0  0  0  0
   15.6598  -14.0348   18.6428 C   0  0  0  0  0  0  0  0  0  0  0  0
   15.1423  -15.4330   18.8673 C   0  0  2  0  0  0  0  0  0  0  0  0
   14.4257  -15.9177   17.6919 N   0  0  0  0  0  0  0  0  0  0  0  0
   14.2731  -15.4564   20.0621 C   0  0  0  0  0  0  0  0  0  0  0  0
   14.7049  -15.1333   21.1868 O   0  0  0  0  0  0  0  0  0  0  0  0
    7.4136  -12.9291   20.4470 N   0  0  0  0  0  0  0  0  0  0  0  0
    8.2382  -12.5622   19.3410 C   0  0  0  0  0  0  0  0  0  0  0  0
    8.4334  -11.3262   19.0239 N   0  0  0  0  0  0  0  0  0  0  0  0
    8.8821  -13.5388   18.5323 N   0  0  0  0  0  0  0  0  0  0  0  0
    9.3573  -14.7838   19.0793 C   0  0  0  0  0  0  0  0  0  0  0  0
   10.1831  -14.6398   20.3265 C   0  0  0  0  0  0  0  0  0  0  0  0
   10.6530  -15.9750   20.8567 C   0  0  0  0  0  0  0  0  0  0  0  0
   12.1021  -15.9895   21.1954 C   0  0  2  0  0  0  0  0  0  0  0  0
   12.8872  -15.8520   19.9933 N   0  0  0  0  0  0  0  0  0  0  0  0
   12.4947  -17.2043   21.9666 C   0  0  0  0  0  0  0  0  0  0  0  0
   12.9684  -18.2255   21.4608 O   0  0  0  0  0  0  0  0  0  0  0  0
    9.0800  -11.0645   18.2658 N   0  0  0  0  0  0  0  0  0  0  0  0
   12.3101  -17.1825   23.3806 C   0  0  0  0  0  0  0  0  0  0  0  0
   12.5553  -18.3518   24.2030 C   0  0  0  0  0  0  0  0  0  0  0  0
   12.1269  -18.1594   25.5968 O   0  0  0  0  0  0  0  0  0  0  0  0
   11.7759  -17.0093   25.9561 O   0  0  0  0  0  0  0  0  0  0  0  0
  1  2  1  0
  2  3  2  0
  4  2  1  0
  5  4  1  0
  5  6  1  6
  7  5  1  0
  7  8  2  0
  9 10  1  0
 10 12  1  0
 11 10  2  0
 12 13  1  0
 13 14  1  0
 15 14  1  0
 16 15  1  6
 16 17  1  0
 17  7  1  0
 18 20  1  0
 18 16  1  0
 19 18  2  0
 21 22  1  0
 21 20  1  0
 22 24  1  0
 23 22  2  0
M  END
$$$$
