NRG.pdb
     RDKit          3D

 24 23  0  0  1  0  0  0  0  0999 V2000
    1.2939  -19.6959   20.5552 N   0  0  0  0  0  0  0  0  0  0  0  0
    2.2851  -20.0680   21.5100 C   0  0  0  0  0  0  0  0  0  0  0  0
    1.9750  -20.7863   22.4765 O   0  0  0  0  0  0  0  0  0  0  0  0
    3.6696  -19.6035   21.3526 C   0  0  0  0  0  0  0  0  0  0  0  0
    4.2434  -19.0475   22.6311 C   0  0  2  0  0  0  0  0  0  0  0  0
    3.2606  -18.2237   23.3278 N   0  0  0  0  0  0  0  0  0  0  0  0
    5.4654  -18.2720   22.3325 C   0  0  0  0  0  0  0  0  0  0  0  0
    6.4921  -18.8224   21.8868 O   0  0  0  0  0  0  0  0  0  0  0  0
    9.5300  -14.6892   19.5988 N   0  0  0  0  0  0  0  0  0  0  0  0
    9.4258  -13.3747   19.0520 C   0  0  0  0  0  0  0  0  0  0  0  0
   10.2911  -12.9235   18.2069 N   0  0  0  0  0  0  0  0  0  0  0  0
    8.3671  -12.4966   19.4129 N   0  0  0  0  0  0  0  0  0  0  0  0
    7.4137  -12.8380   20.4374 C   0  0  0  0  0  0  0  0  0  0  0  0
    7.7263  -14.1067   21.1796 C   0  0  0  0  0  0  0  0  0  0  0  0
    6.4781  -14.8803   21.5379 C   0  0  0  0  0  0  0  0  0  0  0  0
    6.7644  -16.1289   22.2953 C   0  0  2  0  0  0  0  0  0  0  0  0
    5.5369  -16.8458   22.5394 N   0  0  0  0  0  0  0  0  0  0  0  0
    7.5049  -15.8687   23.5636 C   0  0  0  0  0  0  0  0  0  0  0  0
    6.9911  -15.4060   24.5859 O   0  0  0  0  0  0  0  0  0  0  0  0
   10.1909  -11.9880   17.7872 N   0  0  0  0  0  0  0  0  0  0  0  0
    8.8974  -16.1752   23.5954 C   0  0  0  0  0  0  0  0  0  0  0  0
    9.6943  -15.9939   24.7935 C   0  0  0  0  0  0  0  0  0  0  0  0
   11.0945  -16.4029   24.6055 O   0  0  0  0  0  0  0  0  0  0  0  0
   11.4386  -16.8404   23.4806 O   0  0  0  0  0  0  0  0  0  0  0  0
  1  2  1  0
  2  3  2  0
  4  2  1  0
  5  4  1  0
  5  6  1  6
  7  5  1  0
  7  8  2  0
  9 10  1  0
 10 12  1  0
 11 10  2  0
 12 13  1  0
 13 14  1  0
 15 14  1  0
 16 15  1  1
 16 17  1  0
 17  7  1  0
 18 20  1  0
 18 16  1  0
 19 18  2  0
 21 22  1  0
 21 20  1  0
 22 24  1  0
 23 22  2  0
M  END
$$$$
