NRG.pdb
     RDKit          3D

 24 23  0  0  1  0  0  0  0  0999 V2000
    6.4503   -9.8353   49.4123 N   0  0  0  0  0  0  0  0  0  0  0  0
    6.5339  -10.3395   48.0814 C   0  0  0  0  0  0  0  0  0  0  0  0
    5.5133  -10.3888   47.3727 O   0  0  0  0  0  0  0  0  0  0  0  0
    7.8228  -10.8003   47.5486 C   0  0  0  0  0  0  0  0  0  0  0  0
    8.1181  -10.2400   46.1804 C   0  0  2  0  0  0  0  0  0  0  0  0
    7.1590  -10.7339   45.1976 N   0  0  0  0  0  0  0  0  0  0  0  0
    9.5004  -10.5855   45.7887 C   0  0  0  0  0  0  0  0  0  0  0  0
   10.4782  -10.2422   46.4829 O   0  0  0  0  0  0  0  0  0  0  0  0
   14.8293  -13.1124   40.0088 N   0  0  0  0  0  0  0  0  0  0  0  0
   14.5205  -14.4571   40.3749 C   0  0  0  0  0  0  0  0  0  0  0  0
   14.6981  -15.4387   39.5555 N   0  0  0  0  0  0  0  0  0  0  0  0
   13.9992  -14.7818   41.6575 N   0  0  0  0  0  0  0  0  0  0  0  0
   12.6754  -14.3829   42.0620 C   0  0  0  0  0  0  0  0  0  0  0  0
   12.6347  -13.1658   42.9424 C   0  0  0  0  0  0  0  0  0  0  0  0
   11.2293  -12.8290   43.3853 C   0  0  0  0  0  0  0  0  0  0  0  0
   11.1567  -11.5808   44.1924 C   0  0  2  0  0  0  0  0  0  0  0  0
    9.7924  -11.3333   44.5898 N   0  0  0  0  0  0  0  0  0  0  0  0
   11.7380  -10.4068   43.4794 C   0  0  0  0  0  0  0  0  0  0  0  0
   11.2705   -9.9200   42.4461 O   0  0  0  0  0  0  0  0  0  0  0  0
   14.3730  -16.3897   39.7819 N   0  0  0  0  0  0  0  0  0  0  0  0
   12.9104   -9.8090   44.0289 C   0  0  0  0  0  0  0  0  0  0  0  0
   13.6375   -8.7662   43.3306 C   0  0  0  0  0  0  0  0  0  0  0  0
   12.8663   -7.5186   43.2216 O   0  0  0  0  0  0  0  0  0  0  0  0
   11.7070   -7.4941   43.7017 O   0  0  0  0  0  0  0  0  0  0  0  0
  1  2  1  0
  2  3  2  0
  4  2  1  0
  5  4  1  0
  5  6  1  6
  7  5  1  0
  7  8  2  0
  9 10  1  0
 10 12  1  0
 11 10  2  0
 12 13  1  0
 13 14  1  0
 15 14  1  0
 16 15  1  6
 16 17  1  0
 17  7  1  0
 18 20  1  0
 18 16  1  0
 19 18  2  0
 21 22  1  0
 21 20  1  0
 22 24  1  0
 23 22  2  0
M  END
$$$$
