NRG.pdb
     RDKit          3D

 24 23  0  0  1  0  0  0  0  0999 V2000
   17.3153  -15.6136   15.9677 N   0  0  0  0  0  0  0  0  0  0  0  0
   16.2181  -16.2381   16.6299 C   0  0  0  0  0  0  0  0  0  0  0  0
   15.7999  -17.3393   16.2315 O   0  0  0  0  0  0  0  0  0  0  0  0
   15.5827  -15.5821   17.7803 C   0  0  0  0  0  0  0  0  0  0  0  0
   14.0829  -15.5041   17.6476 C   0  0  2  0  0  0  0  0  0  0  0  0
   13.7041  -14.7368   16.4654 N   0  0  0  0  0  0  0  0  0  0  0  0
   13.5052  -14.9088   18.8705 C   0  0  0  0  0  0  0  0  0  0  0  0
   13.9158  -13.8204   19.3204 O   0  0  0  0  0  0  0  0  0  0  0  0
    7.8111  -15.1003   16.6239 N   0  0  0  0  0  0  0  0  0  0  0  0
    7.8510  -13.7107   16.9482 C   0  0  0  0  0  0  0  0  0  0  0  0
    7.8447  -12.8020   16.0312 N   0  0  0  0  0  0  0  0  0  0  0  0
    7.9029  -13.2585   18.2955 N   0  0  0  0  0  0  0  0  0  0  0  0
    8.4138  -14.0893   19.3557 C   0  0  0  0  0  0  0  0  0  0  0  0
    9.8857  -13.9324   19.6140 C   0  0  0  0  0  0  0  0  0  0  0  0
   10.3878  -14.9014   20.6599 C   0  0  0  0  0  0  0  0  0  0  0  0
   11.8717  -14.9203   20.7714 C   0  0  2  0  0  0  0  0  0  0  0  0
   12.4422  -15.5500   19.6059 N   0  0  0  0  0  0  0  0  0  0  0  0
   12.3402  -15.5734   22.0278 C   0  0  0  0  0  0  0  0  0  0  0  0
   11.6456  -16.3186   22.7245 O   0  0  0  0  0  0  0  0  0  0  0  0
    7.8844  -11.8008   16.2705 N   0  0  0  0  0  0  0  0  0  0  0  0
   13.6784  -15.3190   22.4503 C   0  0  0  0  0  0  0  0  0  0  0  0
   14.2222  -15.8998   23.6629 C   0  0  0  0  0  0  0  0  0  0  0  0
   15.6484  -15.5900   23.8450 O   0  0  0  0  0  0  0  0  0  0  0  0
   16.2450  -14.9801   22.9246 O   0  0  0  0  0  0  0  0  0  0  0  0
  1  2  1  0
  2  3  2  0
  4  2  1  0
  5  4  1  0
  5  6  1  6
  7  5  1  0
  7  8  2  0
  9 10  1  0
 10 12  1  0
 11 10  2  0
 12 13  1  0
 13 14  1  0
 15 14  1  0
 16 15  1  6
 16 17  1  0
 17  7  1  0
 18 20  1  0
 18 16  1  0
 19 18  2  0
 21 22  1  0
 21 20  1  0
 22 24  1  0
 23 22  2  0
M  END
$$$$
