NRG.pdb
     RDKit          3D

 24 23  0  0  1  0  0  0  0  0999 V2000
   16.0492  -13.6214   15.8463 N   0  0  0  0  0  0  0  0  0  0  0  0
   16.1826  -14.4057   17.0294 C   0  0  0  0  0  0  0  0  0  0  0  0
   17.0314  -15.3131   17.0783 O   0  0  0  0  0  0  0  0  0  0  0  0
   15.3189  -14.1427   18.1879 C   0  0  0  0  0  0  0  0  0  0  0  0
   14.9942  -15.3934   18.9648 C   0  0  2  0  0  0  0  0  0  0  0  0
   14.5017  -16.4433   18.0788 N   0  0  0  0  0  0  0  0  0  0  0  0
   14.0039  -15.0831   20.0167 C   0  0  0  0  0  0  0  0  0  0  0  0
   14.1603  -14.1197   20.7933 O   0  0  0  0  0  0  0  0  0  0  0  0
    7.1754  -13.8947   18.1467 N   0  0  0  0  0  0  0  0  0  0  0  0
    7.9235  -12.9675   18.9331 C   0  0  0  0  0  0  0  0  0  0  0  0
    7.4891  -11.7745   19.1668 N   0  0  0  0  0  0  0  0  0  0  0  0
    9.1843  -13.3100   19.4946 N   0  0  0  0  0  0  0  0  0  0  0  0
    9.3493  -13.5382   20.9073 C   0  0  0  0  0  0  0  0  0  0  0  0
    9.3550  -14.9869   21.3064 C   0  0  0  0  0  0  0  0  0  0  0  0
   10.4501  -15.7651   20.6134 C   0  0  0  0  0  0  0  0  0  0  0  0
   11.8049  -15.4716   21.1549 C   0  0  2  0  0  0  0  0  0  0  0  0
   12.8105  -15.8727   20.2018 N   0  0  0  0  0  0  0  0  0  0  0  0
   12.0346  -16.1017   22.4871 C   0  0  0  0  0  0  0  0  0  0  0  0
   11.3167  -15.9207   23.4745 O   0  0  0  0  0  0  0  0  0  0  0  0
    7.9949  -11.1354   19.7970 N   0  0  0  0  0  0  0  0  0  0  0  0
   13.1575  -16.9698   22.6272 C   0  0  0  0  0  0  0  0  0  0  0  0
   13.3661  -17.7653   23.8218 C   0  0  0  0  0  0  0  0  0  0  0  0
   14.3895  -17.1915   24.7087 O   0  0  0  0  0  0  0  0  0  0  0  0
   14.9558  -16.1298   24.3518 O   0  0  0  0  0  0  0  0  0  0  0  0
  1  2  1  0
  2  3  2  0
  4  2  1  0
  5  4  1  0
  5  6  1  6
  7  5  1  0
  7  8  2  0
  9 10  1  0
 10 12  1  0
 11 10  2  0
 12 13  1  0
 13 14  1  0
 15 14  1  0
 16 15  1  6
 16 17  1  0
 17  7  1  0
 18 20  1  0
 18 16  1  0
 19 18  2  0
 21 22  1  0
 21 20  1  0
 22 24  1  0
 23 22  2  0
M  END
$$$$
