NRG.pdb
     RDKit          3D

 24 23  0  0  1  0  0  0  0  0999 V2000
   15.5714  -15.3884   15.9333 N   0  0  0  0  0  0  0  0  0  0  0  0
   16.0852  -16.2030   16.9844 C   0  0  0  0  0  0  0  0  0  0  0  0
   16.9395  -17.0711   16.7338 O   0  0  0  0  0  0  0  0  0  0  0  0
   15.6063  -16.0175   18.3605 C   0  0  0  0  0  0  0  0  0  0  0  0
   14.4817  -15.0176   18.4530 C   0  0  2  0  0  0  0  0  0  0  0  0
   14.9836  -13.6549   18.3088 N   0  0  0  0  0  0  0  0  0  0  0  0
   13.7711  -15.1850   19.7378 C   0  0  0  0  0  0  0  0  0  0  0  0
   14.3210  -14.9172   20.8248 O   0  0  0  0  0  0  0  0  0  0  0  0
    7.6661  -12.4219   17.0142 N   0  0  0  0  0  0  0  0  0  0  0  0
    8.0698  -13.1256   18.1887 C   0  0  0  0  0  0  0  0  0  0  0  0
    8.6721  -12.5279   19.1616 N   0  0  0  0  0  0  0  0  0  0  0  0
    7.8321  -14.5191   18.3441 N   0  0  0  0  0  0  0  0  0  0  0  0
    8.3336  -15.2528   19.4778 C   0  0  0  0  0  0  0  0  0  0  0  0
    9.8059  -15.0835   19.7259 C   0  0  0  0  0  0  0  0  0  0  0  0
   10.2881  -15.9195   20.8893 C   0  0  0  0  0  0  0  0  0  0  0  0
   11.7631  -15.8591   21.0778 C   0  0  2  0  0  0  0  0  0  0  0  0
   12.4118  -15.6646   19.8043 N   0  0  0  0  0  0  0  0  0  0  0  0
   12.2968  -17.0598   21.7835 C   0  0  0  0  0  0  0  0  0  0  0  0
   12.7112  -18.0734   21.2142 O   0  0  0  0  0  0  0  0  0  0  0  0
    8.9504  -13.0382   20.0122 N   0  0  0  0  0  0  0  0  0  0  0  0
   12.3299  -17.0331   23.2090 C   0  0  0  0  0  0  0  0  0  0  0  0
   12.7304  -18.1895   23.9875 C   0  0  0  0  0  0  0  0  0  0  0  0
   12.6546  -17.9465   25.4361 O   0  0  0  0  0  0  0  0  0  0  0  0
   12.4061  -16.7810   25.8298 O   0  0  0  0  0  0  0  0  0  0  0  0
  1  2  1  0
  2  3  2  0
  4  2  1  0
  5  4  1  0
  5  6  1  1
  7  5  1  0
  7  8  2  0
  9 10  1  0
 10 12  1  0
 11 10  2  0
 12 13  1  0
 13 14  1  0
 15 14  1  0
 16 15  1  6
 16 17  1  0
 17  7  1  0
 18 20  1  0
 18 16  1  0
 19 18  2  0
 21 22  1  0
 21 20  1  0
 22 24  1  0
 23 22  2  0
M  END
$$$$
