AFT.pdb
     RDKit          3D

 24 24  0  0  1  0  0  0  0  0999 V2000
   27.3007  -20.6696  -17.4968 C   0  0  0  0  0  0  0  0  0  0  0  0
   28.1211  -21.4909  -16.5232 C   0  0  2  0  0  0  0  0  0  0  0  0
   28.5186  -22.7540  -17.0772 N   0  0  0  0  0  0  0  0  0  0  0  0
   27.3038  -21.7311  -15.3128 C   0  0  0  0  0  0  0  0  0  0  0  0
   26.6527  -22.8033  -15.2413 O   0  0  0  0  0  0  0  0  0  0  0  0
   27.2499  -20.7887  -14.2617 N   0  0  0  0  0  0  0  0  0  0  0  0
   26.4748  -21.1135  -13.0328 C   0  0  1  0  0  0  0  0  0  0  0  0
   27.2587  -20.4467  -11.9356 C   0  0  0  0  0  0  0  0  0  0  0  0
   26.6595  -20.4146  -10.6179 C   0  0  0  0  0  0  0  0  0  0  0  0
   25.8944  -19.3797  -10.1641 C   0  0  0  0  0  0  0  0  0  0  0  0
   25.3575  -19.4256   -8.8777 C   0  0  0  0  0  0  0  0  0  0  0  0
   25.5779  -20.4904   -8.0478 C   0  0  0  0  0  0  0  0  0  0  0  0
   26.3464  -21.5341   -8.4988 C   0  0  0  0  0  0  0  0  0  0  0  0
   26.8794  -21.4930   -9.7702 C   0  0  0  0  0  0  0  0  0  0  0  0
   25.1343  -20.5574  -13.2349 C   0  0  0  0  0  0  0  0  0  0  0  0
   25.0573  -19.3628  -13.6824 O   0  0  0  0  0  0  0  0  0  0  0  0
   22.7217  -20.5701  -15.7312 C   0  0  0  0  0  0  0  0  0  0  0  0
   21.9759  -20.9448  -14.4964 C   0  0  1  0  0  0  0  0  0  0  0  0
   21.8053  -22.3250  -14.4093 O   0  0  0  0  0  0  0  0  0  0  0  0
   22.6641  -20.4764  -13.2213 C   0  0  2  0  0  0  0  0  0  0  0  0
   23.8928  -21.2055  -12.9932 N   0  0  0  0  0  0  0  0  0  0  0  0
   21.7210  -20.7467  -12.1270 C   0  0  0  0  0  0  0  0  0  0  0  0
   21.9661  -21.5896  -11.2146 O   0  0  0  0  0  0  0  0  0  0  0  0
   20.5187  -20.0707  -12.0669 O   0  0  0  0  0  0  0  0  0  0  0  0
  2  1  1  6
  3  2  1  0
  4  5  2  0
  4  2  1  0
  6  4  1  0
  7  6  1  0
  7  8  1  1
  8  9  1  0
  9 14  2  0
 10 11  2  0
 10  9  1  0
 11 12  1  0
 12 13  2  0
 14 13  1  0
 15  7  1  0
 16 15  2  0
 18 17  1  6
 18 20  1  0
 19 18  1  0
 20 22  1  0
 20 21  1  1
 21 15  1  0
 22 24  1  0
 23 22  2  0
M  END
$$$$
