AFT.pdb
     RDKit          3D

 24 24  0  0  1  0  0  0  0  0999 V2000
   27.1889  -20.5837  -16.6366 C   0  0  0  0  0  0  0  0  0  0  0  0
   27.8754  -21.6112  -15.7601 C   0  0  2  0  0  0  0  0  0  0  0  0
   27.9988  -22.8852  -16.4099 N   0  0  0  0  0  0  0  0  0  0  0  0
   27.0782  -21.7757  -14.5239 C   0  0  0  0  0  0  0  0  0  0  0  0
   26.1500  -22.6224  -14.5263 O   0  0  0  0  0  0  0  0  0  0  0  0
   27.3446  -21.0080  -13.3683 N   0  0  0  0  0  0  0  0  0  0  0  0
   26.5132  -21.2140  -12.1507 C   0  0  1  0  0  0  0  0  0  0  0  0
   27.3795  -20.6872  -11.0394 C   0  0  0  0  0  0  0  0  0  0  0  0
   26.7616  -20.5157   -9.7413 C   0  0  0  0  0  0  0  0  0  0  0  0
   27.2234  -19.6455   -8.7969 C   0  0  0  0  0  0  0  0  0  0  0  0
   26.5716  -19.5447   -7.5681 C   0  0  0  0  0  0  0  0  0  0  0  0
   25.4696  -20.3016   -7.2784 C   0  0  0  0  0  0  0  0  0  0  0  0
   25.0005  -21.1783   -8.2242 C   0  0  0  0  0  0  0  0  0  0  0  0
   25.6421  -21.2813   -9.4408 C   0  0  0  0  0  0  0  0  0  0  0  0
   25.2802  -20.4511  -12.3624 C   0  0  0  0  0  0  0  0  0  0  0  0
   25.4008  -19.2139  -12.6593 O   0  0  0  0  0  0  0  0  0  0  0  0
   23.3971  -19.8745  -15.0486 C   0  0  0  0  0  0  0  0  0  0  0  0
   22.3758  -20.2557  -14.0323 C   0  0  1  0  0  0  0  0  0  0  0  0
   22.0027  -21.5914  -14.1684 O   0  0  0  0  0  0  0  0  0  0  0  0
   22.8539  -20.0462  -12.6017 C   0  0  2  0  0  0  0  0  0  0  0  0
   23.9474  -20.9375  -12.2810 N   0  0  0  0  0  0  0  0  0  0  0  0
   21.7028  -20.3490  -11.7396 C   0  0  0  0  0  0  0  0  0  0  0  0
   21.6764  -21.3580  -10.9751 O   0  0  0  0  0  0  0  0  0  0  0  0
   20.5988  -19.5201  -11.7427 O   0  0  0  0  0  0  0  0  0  0  0  0
  2  1  1  6
  3  2  1  0
  4  5  2  0
  4  2  1  0
  6  4  1  0
  7  6  1  0
  7  8  1  1
  8  9  1  0
  9 14  2  0
 10 11  2  0
 10  9  1  0
 11 12  1  0
 12 13  2  0
 14 13  1  0
 15  7  1  0
 16 15  2  0
 18 17  1  6
 18 20  1  0
 19 18  1  0
 20 22  1  0
 20 21  1  1
 21 15  1  0
 22 24  1  0
 23 22  2  0
M  END
$$$$
