AFT.pdb
     RDKit          3D

 24 24  0  0  1  0  0  0  0  0999 V2000
   22.6186   -8.8592  -21.2228 C   0  0  0  0  0  0  0  0  0  0  0  0
   23.4935   -9.3825  -20.1020 C   0  0  2  0  0  0  0  0  0  0  0  0
   23.5029  -10.8167  -20.0436 N   0  0  0  0  0  0  0  0  0  0  0  0
   22.9763   -8.8512  -18.8210 C   0  0  0  0  0  0  0  0  0  0  0  0
   22.0318   -9.4645  -18.2640 O   0  0  0  0  0  0  0  0  0  0  0  0
   23.5215   -7.6884  -18.2323 N   0  0  0  0  0  0  0  0  0  0  0  0
   23.0057   -7.2309  -16.9129 C   0  0  1  0  0  0  0  0  0  0  0  0
   24.2525   -7.0501  -16.0908 C   0  0  0  0  0  0  0  0  0  0  0  0
   24.9108   -8.2477  -15.6124 C   0  0  0  0  0  0  0  0  0  0  0  0
   24.3546   -9.1003  -14.7036 C   0  0  0  0  0  0  0  0  0  0  0  0
   25.0591  -10.2311  -14.2912 C   0  0  0  0  0  0  0  0  0  0  0  0
   26.3061  -10.5140  -14.7770 C   0  0  0  0  0  0  0  0  0  0  0  0
   26.8705   -9.6602  -15.6913 C   0  0  0  0  0  0  0  0  0  0  0  0
   26.1774   -8.5407  -16.1019 C   0  0  0  0  0  0  0  0  0  0  0  0
   22.2707   -5.9893  -17.1682 C   0  0  0  0  0  0  0  0  0  0  0  0
   22.8754   -5.0758  -17.8265 O   0  0  0  0  0  0  0  0  0  0  0  0
   19.1253   -5.4509  -19.2633 C   0  0  0  0  0  0  0  0  0  0  0  0
   18.9789   -4.7938  -17.9336 C   0  0  1  0  0  0  0  0  0  0  0  0
   18.2443   -5.5889  -17.0562 O   0  0  0  0  0  0  0  0  0  0  0  0
   20.3158   -4.4810  -17.2748 C   0  0  2  0  0  0  0  0  0  0  0  0
   20.9420   -5.6827  -16.7682 N   0  0  0  0  0  0  0  0  0  0  0  0
   20.0167   -3.5734  -16.1582 C   0  0  0  0  0  0  0  0  0  0  0  0
   20.0709   -3.9463  -14.9495 O   0  0  0  0  0  0  0  0  0  0  0  0
   19.6628   -2.2624  -16.4077 O   0  0  0  0  0  0  0  0  0  0  0  0
  2  1  1  6
  3  2  1  0
  4  5  2  0
  4  2  1  0
  6  4  1  0
  7  6  1  0
  7  8  1  1
  8  9  1  0
  9 14  2  0
 10 11  2  0
 10  9  1  0
 11 12  1  0
 12 13  2  0
 14 13  1  0
 15  7  1  0
 16 15  2  0
 18 17  1  6
 18 20  1  0
 19 18  1  0
 20 22  1  0
 20 21  1  1
 21 15  1  0
 22 24  1  0
 23 22  2  0
M  END
$$$$
