AFT.pdb
     RDKit          3D

 24 24  0  0  1  0  0  0  0  0999 V2000
   35.6150  -28.2036  -21.2059 C   0  0  0  0  0  0  0  0  0  0  0  0
   34.8896  -27.0498  -20.5440 C   0  0  2  0  0  0  0  0  0  0  0  0
   35.7788  -26.2030  -19.8006 N   0  0  0  0  0  0  0  0  0  0  0  0
   33.8719  -27.6059  -19.6244 C   0  0  0  0  0  0  0  0  0  0  0  0
   34.0837  -27.5255  -18.3886 O   0  0  0  0  0  0  0  0  0  0  0  0
   32.6923  -28.2120  -20.1112 N   0  0  0  0  0  0  0  0  0  0  0  0
   31.6372  -28.6281  -19.1469 C   0  0  1  0  0  0  0  0  0  0  0  0
   30.8478  -27.3672  -18.9229 C   0  0  0  0  0  0  0  0  0  0  0  0
   29.5850  -27.4906  -18.2254 C   0  0  0  0  0  0  0  0  0  0  0  0
   29.4808  -27.5807  -16.8676 C   0  0  0  0  0  0  0  0  0  0  0  0
   28.2244  -27.7021  -16.2746 C   0  0  0  0  0  0  0  0  0  0  0  0
   27.0798  -27.7337  -17.0229 C   0  0  0  0  0  0  0  0  0  0  0  0
   27.1784  -27.6433  -18.3887 C   0  0  0  0  0  0  0  0  0  0  0  0
   28.4188  -27.5232  -18.9795 C   0  0  0  0  0  0  0  0  0  0  0  0
   30.8824  -29.6994  -19.8023 C   0  0  0  0  0  0  0  0  0  0  0  0
   30.6043  -29.5469  -21.0403 O   0  0  0  0  0  0  0  0  0  0  0  0
   31.5198  -33.5886  -20.0246 C   0  0  0  0  0  0  0  0  0  0  0  0
   30.0979  -33.2882  -19.6942 C   0  0  1  0  0  0  0  0  0  0  0  0
   29.8389  -33.4993  -18.3414 O   0  0  0  0  0  0  0  0  0  0  0  0
   29.6992  -31.8573  -20.0298 C   0  0  2  0  0  0  0  0  0  0  0  0
   30.4235  -30.9083  -19.2126 N   0  0  0  0  0  0  0  0  0  0  0  0
   28.2613  -31.7576  -19.7429 C   0  0  0  0  0  0  0  0  0  0  0  0
   27.3854  -32.3076  -20.4732 O   0  0  0  0  0  0  0  0  0  0  0  0
   27.8227  -31.0463  -18.6439 O   0  0  0  0  0  0  0  0  0  0  0  0
  2  1  1  1
  3  2  1  0
  4  5  2  0
  4  2  1  0
  6  4  1  0
  7  6  1  0
  7  8  1  6
  8  9  1  0
  9 14  2  0
 10 11  2  0
 10  9  1  0
 11 12  1  0
 12 13  2  0
 14 13  1  0
 15  7  1  0
 16 15  2  0
 18 17  1  1
 18 20  1  0
 19 18  1  0
 20 22  1  0
 20 21  1  1
 21 15  1  0
 22 24  1  0
 23 22  2  0
M  END
$$$$
