AFT.pdb
     RDKit          3D

 24 24  0  0  1  0  0  0  0  0999 V2000
   28.5215  -19.5848  -13.1530 C   0  0  0  0  0  0  0  0  0  0  0  0
   29.0727  -20.3608  -11.9742 C   0  0  2  0  0  0  0  0  0  0  0  0
   29.7869  -21.5369  -12.3832 N   0  0  0  0  0  0  0  0  0  0  0  0
   27.9400  -20.7609  -11.1095 C   0  0  0  0  0  0  0  0  0  0  0  0
   27.4590  -21.9119  -11.2589 O   0  0  0  0  0  0  0  0  0  0  0  0
   27.4070  -19.8818  -10.1405 N   0  0  0  0  0  0  0  0  0  0  0  0
   26.2481  -20.3235   -9.3170 C   0  0  1  0  0  0  0  0  0  0  0  0
   26.2745  -19.3862   -8.1407 C   0  0  0  0  0  0  0  0  0  0  0  0
   27.1074  -19.7571   -7.0158 C   0  0  0  0  0  0  0  0  0  0  0  0
   27.3979  -21.0497   -6.6883 C   0  0  0  0  0  0  0  0  0  0  0  0
   28.2056  -21.3211   -5.5843 C   0  0  0  0  0  0  0  0  0  0  0  0
   28.7215  -20.3176   -4.8110 C   0  0  0  0  0  0  0  0  0  0  0  0
   28.4330  -19.0158   -5.1357 C   0  0  0  0  0  0  0  0  0  0  0  0
   27.6345  -18.7427   -6.2266 C   0  0  0  0  0  0  0  0  0  0  0  0
   25.0636  -20.1841  -10.1681 C   0  0  0  0  0  0  0  0  0  0  0  0
   24.6457  -18.9988  -10.4003 O   0  0  0  0  0  0  0  0  0  0  0  0
   23.2164  -23.3079  -12.4913 C   0  0  0  0  0  0  0  0  0  0  0  0
   23.3858  -21.8977  -12.9430 C   0  0  1  0  0  0  0  0  0  0  0  0
   22.3988  -21.5393  -13.8590 O   0  0  0  0  0  0  0  0  0  0  0  0
   23.3458  -20.8972  -11.7956 C   0  0  2  0  0  0  0  0  0  0  0  0
   24.3198  -21.2297  -10.7789 N   0  0  0  0  0  0  0  0  0  0  0  0
   21.9928  -20.9829  -11.2280 C   0  0  0  0  0  0  0  0  0  0  0  0
   21.7794  -21.3735  -10.0427 O   0  0  0  0  0  0  0  0  0  0  0  0
   20.8982  -20.6299  -11.9918 O   0  0  0  0  0  0  0  0  0  0  0  0
  2  1  1  6
  3  2  1  0
  4  5  2  0
  4  2  1  0
  6  4  1  0
  7  6  1  0
  7  8  1  1
  8  9  1  0
  9 14  2  0
 10 11  2  0
 10  9  1  0
 11 12  1  0
 12 13  2  0
 14 13  1  0
 15  7  1  0
 16 15  2  0
 18 17  1  1
 18 20  1  0
 19 18  1  0
 20 22  1  0
 20 21  1  1
 21 15  1  0
 22 24  1  0
 23 22  2  0
M  END
$$$$
