AFT.pdb
     RDKit          3D

 24 24  0  0  1  0  0  0  0  0999 V2000
   27.0459  -20.7243  -17.4905 C   0  0  0  0  0  0  0  0  0  0  0  0
   27.9406  -21.4189  -16.4843 C   0  0  2  0  0  0  0  0  0  0  0  0
   28.4570  -22.6621  -16.9827 N   0  0  0  0  0  0  0  0  0  0  0  0
   27.1497  -21.6812  -15.2610 C   0  0  0  0  0  0  0  0  0  0  0  0
   26.4943  -22.7512  -15.1979 O   0  0  0  0  0  0  0  0  0  0  0  0
   27.1252  -20.7616  -14.1888 N   0  0  0  0  0  0  0  0  0  0  0  0
   26.3697  -21.1055  -12.9530 C   0  0  1  0  0  0  0  0  0  0  0  0
   27.1944  -20.4929  -11.8542 C   0  0  0  0  0  0  0  0  0  0  0  0
   26.6427  -20.5224  -10.5158 C   0  0  0  0  0  0  0  0  0  0  0  0
   26.6307  -21.6389   -9.7311 C   0  0  0  0  0  0  0  0  0  0  0  0
   26.0747  -21.5832   -8.4533 C   0  0  0  0  0  0  0  0  0  0  0  0
   25.5347  -20.4283   -7.9576 C   0  0  0  0  0  0  0  0  0  0  0  0
   25.5441  -19.3023   -8.7421 C   0  0  0  0  0  0  0  0  0  0  0  0
   26.0928  -19.3528  -10.0064 C   0  0  0  0  0  0  0  0  0  0  0  0
   25.0394  -20.5106  -13.1069 C   0  0  0  0  0  0  0  0  0  0  0  0
   24.9826  -19.3025  -13.5200 O   0  0  0  0  0  0  0  0  0  0  0  0
   22.6180  -20.3423  -15.5508 C   0  0  0  0  0  0  0  0  0  0  0  0
   21.8707  -20.7635  -14.3320 C   0  0  1  0  0  0  0  0  0  0  0  0
   21.6751  -22.1430  -14.3117 O   0  0  0  0  0  0  0  0  0  0  0  0
   22.5729  -20.3708  -13.0391 C   0  0  2  0  0  0  0  0  0  0  0  0
   23.7878  -21.1337  -12.8523 N   0  0  0  0  0  0  0  0  0  0  0  0
   21.6288  -20.6752  -11.9546 C   0  0  0  0  0  0  0  0  0  0  0  0
   21.8846  -21.5271  -11.0535 O   0  0  0  0  0  0  0  0  0  0  0  0
   20.4135  -20.0231  -11.8916 O   0  0  0  0  0  0  0  0  0  0  0  0
  2  1  1  6
  3  2  1  0
  4  5  2  0
  4  2  1  0
  6  4  1  0
  7  6  1  0
  7  8  1  1
  8  9  1  0
  9 14  2  0
 10 11  2  0
 10  9  1  0
 11 12  1  0
 12 13  2  0
 14 13  1  0
 15  7  1  0
 16 15  2  0
 18 17  1  6
 18 20  1  0
 19 18  1  0
 20 22  1  0
 20 21  1  1
 21 15  1  0
 22 24  1  0
 23 22  2  0
M  END
$$$$
