AFT.pdb
     RDKit          3D

 24 24  0  0  1  0  0  0  0  0999 V2000
   22.0016  -13.2140  -17.4282 C   0  0  0  0  0  0  0  0  0  0  0  0
   22.8452  -12.0665  -16.9114 C   0  0  2  0  0  0  0  0  0  0  0  0
   23.3332  -12.3054  -15.5828 N   0  0  0  0  0  0  0  0  0  0  0  0
   22.0134  -10.8423  -16.9067 C   0  0  0  0  0  0  0  0  0  0  0  0
   21.5645  -10.4273  -18.0043 O   0  0  0  0  0  0  0  0  0  0  0  0
   21.7259  -10.1521  -15.7080 N   0  0  0  0  0  0  0  0  0  0  0  0
   20.7587   -9.0206  -15.7345 C   0  0  1  0  0  0  0  0  0  0  0  0
   19.6480   -9.4856  -14.8328 C   0  0  0  0  0  0  0  0  0  0  0  0
   18.4813  -10.0666  -15.4635 C   0  0  0  0  0  0  0  0  0  0  0  0
   17.6703   -9.3822  -16.3216 C   0  0  0  0  0  0  0  0  0  0  0  0
   16.5619  -10.0157  -16.8830 C   0  0  0  0  0  0  0  0  0  0  0  0
   16.2603  -11.3185  -16.5952 C   0  0  0  0  0  0  0  0  0  0  0  0
   17.0724  -12.0118  -15.7331 C   0  0  0  0  0  0  0  0  0  0  0  0
   18.1695  -11.3894  -15.1756 C   0  0  0  0  0  0  0  0  0  0  0  0
   21.4846   -7.8492  -15.2362 C   0  0  0  0  0  0  0  0  0  0  0  0
   22.3331   -8.0409  -14.2999 O   0  0  0  0  0  0  0  0  0  0  0  0
   23.0560   -3.1396  -15.4119 C   0  0  0  0  0  0  0  0  0  0  0  0
   22.1933   -4.2217  -15.9651 C   0  0  1  0  0  0  0  0  0  0  0  0
   22.5702   -4.5524  -17.2652 O   0  0  0  0  0  0  0  0  0  0  0  0
   22.2270   -5.4943  -15.1294 C   0  0  2  0  0  0  0  0  0  0  0  0
   21.3563   -6.5071  -15.6856 N   0  0  0  0  0  0  0  0  0  0  0  0
   21.7501   -5.1156  -13.7919 C   0  0  0  0  0  0  0  0  0  0  0  0
   20.5407   -5.2490  -13.4414 O   0  0  0  0  0  0  0  0  0  0  0  0
   22.6308   -4.5947  -12.8650 O   0  0  0  0  0  0  0  0  0  0  0  0
  2  1  1  1
  3  2  1  0
  4  5  2  0
  4  2  1  0
  6  4  1  0
  7  6  1  0
  7  8  1  1
  8  9  1  0
  9 14  2  0
 10 11  2  0
 10  9  1  0
 11 12  1  0
 12 13  2  0
 14 13  1  0
 15  7  1  0
 16 15  2  0
 18 17  1  1
 18 20  1  0
 19 18  1  0
 20 22  1  0
 20 21  1  6
 21 15  1  0
 22 24  1  0
 23 22  2  0
M  END
$$$$
