AFT.pdb
     RDKit          3D

 24 24  0  0  1  0  0  0  0  0999 V2000
   19.7224   -8.6896  -19.5184 C   0  0  0  0  0  0  0  0  0  0  0  0
   21.0121   -8.8729  -18.7447 C   0  0  2  0  0  0  0  0  0  0  0  0
   21.2000  -10.2292  -18.3141 N   0  0  0  0  0  0  0  0  0  0  0  0
   20.9716   -7.9910  -17.5567 C   0  0  0  0  0  0  0  0  0  0  0  0
   20.1452   -8.2583  -16.6489 O   0  0  0  0  0  0  0  0  0  0  0  0
   21.8330   -6.8777  -17.4364 N   0  0  0  0  0  0  0  0  0  0  0  0
   21.7848   -6.0513  -16.1990 C   0  0  1  0  0  0  0  0  0  0  0  0
   23.1748   -6.1765  -15.6377 C   0  0  0  0  0  0  0  0  0  0  0  0
   23.5684   -7.4718  -15.1240 C   0  0  0  0  0  0  0  0  0  0  0  0
   24.5793   -8.2175  -15.6574 C   0  0  0  0  0  0  0  0  0  0  0  0
   24.8919   -9.4591  -15.1046 C   0  0  0  0  0  0  0  0  0  0  0  0
   24.2068   -9.9573  -14.0305 C   0  0  0  0  0  0  0  0  0  0  0  0
   23.1893   -9.2118  -13.4899 C   0  0  0  0  0  0  0  0  0  0  0  0
   22.8766   -7.9834  -14.0333 C   0  0  0  0  0  0  0  0  0  0  0  0
   21.4305   -4.6950  -16.6256 C   0  0  0  0  0  0  0  0  0  0  0  0
   22.2629   -4.0811  -17.3764 O   0  0  0  0  0  0  0  0  0  0  0  0
   18.2807   -3.3052  -18.5726 C   0  0  0  0  0  0  0  0  0  0  0  0
   18.5943   -2.5071  -17.3536 C   0  0  1  0  0  0  0  0  0  0  0  0
   17.7600   -2.8562  -16.2935 O   0  0  0  0  0  0  0  0  0  0  0  0
   20.0353   -2.6721  -16.8896 C   0  0  2  0  0  0  0  0  0  0  0  0
   20.2481   -3.9765  -16.3010 N   0  0  0  0  0  0  0  0  0  0  0  0
   20.2579   -1.6321  -15.8753 C   0  0  0  0  0  0  0  0  0  0  0  0
   20.3012   -0.4007  -16.1665 O   0  0  0  0  0  0  0  0  0  0  0  0
   20.4275   -1.9823  -14.5506 O   0  0  0  0  0  0  0  0  0  0  0  0
  2  1  1  1
  3  2  1  0
  4  5  2  0
  4  2  1  0
  6  4  1  0
  7  6  1  0
  7  8  1  6
  8  9  1  0
  9 14  2  0
 10 11  2  0
 10  9  1  0
 11 12  1  0
 12 13  2  0
 14 13  1  0
 15  7  1  0
 16 15  2  0
 18 17  1  6
 18 20  1  0
 19 18  1  0
 20 22  1  0
 20 21  1  1
 21 15  1  0
 22 24  1  0
 23 22  2  0
M  END
$$$$
