AFT.pdb
     RDKit          3D

 24 24  0  0  1  0  0  0  0  0999 V2000
   16.5196   -7.7996  -16.9349 C   0  0  0  0  0  0  0  0  0  0  0  0
   17.9805   -8.0612  -16.6308 C   0  0  2  0  0  0  0  0  0  0  0  0
   18.4106   -9.3495  -17.0954 N   0  0  0  0  0  0  0  0  0  0  0  0
   18.1711   -7.9891  -15.1648 C   0  0  0  0  0  0  0  0  0  0  0  0
   17.6851   -8.9076  -14.4588 O   0  0  0  0  0  0  0  0  0  0  0  0
   18.8777   -6.9224  -14.5658 N   0  0  0  0  0  0  0  0  0  0  0  0
   19.1181   -6.9435  -13.0967 C   0  0  1  0  0  0  0  0  0  0  0  0
   20.6086   -6.7759  -12.9814 C   0  0  0  0  0  0  0  0  0  0  0  0
   21.4233   -7.9628  -13.1368 C   0  0  0  0  0  0  0  0  0  0  0  0
   21.4877   -8.9587  -12.2060 C   0  0  0  0  0  0  0  0  0  0  0  0
   22.3024  -10.0679  -12.4317 C   0  0  0  0  0  0  0  0  0  0  0  0
   23.0477  -10.1882  -13.5725 C   0  0  0  0  0  0  0  0  0  0  0  0
   22.9868   -9.1899  -14.5121 C   0  0  0  0  0  0  0  0  0  0  0  0
   22.1825   -8.0911  -14.2931 C   0  0  0  0  0  0  0  0  0  0  0  0
   18.3448   -5.8310  -12.5389 C   0  0  0  0  0  0  0  0  0  0  0  0
   18.6175   -4.6570  -12.9643 O   0  0  0  0  0  0  0  0  0  0  0  0
   14.6340   -4.8368  -12.7768 C   0  0  0  0  0  0  0  0  0  0  0  0
   15.0887   -4.8927  -11.3585 C   0  0  1  0  0  0  0  0  0  0  0  0
   14.7472   -6.1071  -10.7667 O   0  0  0  0  0  0  0  0  0  0  0  0
   16.5924   -4.7049  -11.2086 C   0  0  2  0  0  0  0  0  0  0  0  0
   17.3075   -5.9093  -11.5705 N   0  0  0  0  0  0  0  0  0  0  0  0
   16.8253   -4.4017   -9.7896 C   0  0  0  0  0  0  0  0  0  0  0  0
   17.4712   -5.1802   -9.0280 O   0  0  0  0  0  0  0  0  0  0  0  0
   16.3345   -3.2332   -9.2419 O   0  0  0  0  0  0  0  0  0  0  0  0
  2  1  1  1
  3  2  1  0
  4  5  2  0
  4  2  1  0
  6  4  1  0
  7  6  1  0
  7  8  1  6
  8  9  1  0
  9 14  2  0
 10 11  2  0
 10  9  1  0
 11 12  1  0
 12 13  2  0
 14 13  1  0
 15  7  1  0
 16 15  2  0
 18 17  1  6
 18 20  1  0
 19 18  1  0
 20 22  1  0
 20 21  1  1
 21 15  1  0
 22 24  1  0
 23 22  2  0
M  END
$$$$
