AFT.pdb
     RDKit          3D

 24 24  0  0  1  0  0  0  0  0999 V2000
   29.0331  -22.0668  -14.3684 C   0  0  0  0  0  0  0  0  0  0  0  0
   27.9881  -21.0682  -13.9143 C   0  0  2  0  0  0  0  0  0  0  0  0
   28.4828  -19.7207  -13.9243 N   0  0  0  0  0  0  0  0  0  0  0  0
   27.5753  -21.4200  -12.5371 C   0  0  0  0  0  0  0  0  0  0  0  0
   27.0781  -22.5568  -12.3403 O   0  0  0  0  0  0  0  0  0  0  0  0
   27.7314  -20.5111  -11.4668 N   0  0  0  0  0  0  0  0  0  0  0  0
   27.2442  -20.8919  -10.1126 C   0  0  1  0  0  0  0  0  0  0  0  0
   28.3270  -20.3925   -9.1955 C   0  0  0  0  0  0  0  0  0  0  0  0
   27.9831  -20.2106   -7.8008 C   0  0  0  0  0  0  0  0  0  0  0  0
   27.4265  -19.0670   -7.3058 C   0  0  0  0  0  0  0  0  0  0  0  0
   27.1297  -18.9717   -5.9465 C   0  0  0  0  0  0  0  0  0  0  0  0
   27.3831  -20.0032   -5.0846 C   0  0  0  0  0  0  0  0  0  0  0  0
   27.9425  -21.1557   -5.5767 C   0  0  0  0  0  0  0  0  0  0  0  0
   28.2378  -21.2544   -6.9202 C   0  0  0  0  0  0  0  0  0  0  0  0
   25.9536  -20.2205   -9.9376 C   0  0  0  0  0  0  0  0  0  0  0  0
   25.9333  -18.9488  -10.0635 O   0  0  0  0  0  0  0  0  0  0  0  0
   23.3519  -22.1278  -11.9041 C   0  0  0  0  0  0  0  0  0  0  0  0
   23.3579  -20.6534  -11.6861 C   0  0  1  0  0  0  0  0  0  0  0  0
   22.1913  -20.0668  -12.1725 O   0  0  0  0  0  0  0  0  0  0  0  0
   23.4987  -20.2700  -10.2191 C   0  0  2  0  0  0  0  0  0  0  0  0
   24.7033  -20.8303   -9.6465 N   0  0  0  0  0  0  0  0  0  0  0  0
   22.3231  -20.8299   -9.5376 C   0  0  0  0  0  0  0  0  0  0  0  0
   22.4185  -21.7313   -8.6535 O   0  0  0  0  0  0  0  0  0  0  0  0
   21.0584  -20.3741   -9.8522 O   0  0  0  0  0  0  0  0  0  0  0  0
  2  1  1  1
  3  2  1  0
  4  5  2  0
  4  2  1  0
  6  4  1  0
  7  6  1  0
  7  8  1  1
  8  9  1  0
  9 14  2  0
 10 11  2  0
 10  9  1  0
 11 12  1  0
 12 13  2  0
 14 13  1  0
 15  7  1  0
 16 15  2  0
 18 17  1  1
 18 20  1  0
 19 18  1  0
 20 22  1  0
 20 21  1  1
 21 15  1  0
 22 24  1  0
 23 22  2  0
M  END
$$$$
