AFT.pdb
     RDKit          3D

 24 24  0  0  1  0  0  0  0  0999 V2000
   19.6151  -34.0850  -14.4807 C   0  0  0  0  0  0  0  0  0  0  0  0
   20.6264  -32.9839  -14.2351 C   0  0  2  0  0  0  0  0  0  0  0  0
   21.5692  -32.8616  -15.3105 N   0  0  0  0  0  0  0  0  0  0  0  0
   21.3574  -33.2932  -12.9859 C   0  0  0  0  0  0  0  0  0  0  0  0
   22.2510  -34.1754  -13.0259 O   0  0  0  0  0  0  0  0  0  0  0  0
   21.0668  -32.6219  -11.7772 N   0  0  0  0  0  0  0  0  0  0  0  0
   21.8325  -32.9711  -10.5492 C   0  0  1  0  0  0  0  0  0  0  0  0
   22.8197  -31.8438  -10.4173 C   0  0  0  0  0  0  0  0  0  0  0  0
   24.0723  -32.1338   -9.7513 C   0  0  0  0  0  0  0  0  0  0  0  0
   24.3157  -31.8338   -8.4424 C   0  0  0  0  0  0  0  0  0  0  0  0
   25.5530  -32.1431   -7.8781 C   0  0  0  0  0  0  0  0  0  0  0  0
   26.5414  -32.7456   -8.6069 C   0  0  0  0  0  0  0  0  0  0  0  0
   26.3023  -33.0497   -9.9236 C   0  0  0  0  0  0  0  0  0  0  0  0
   25.0802  -32.7456  -10.4858 C   0  0  0  0  0  0  0  0  0  0  0  0
   20.8532  -33.0406   -9.4614 C   0  0  0  0  0  0  0  0  0  0  0  0
   19.9534  -32.1336   -9.4249 O   0  0  0  0  0  0  0  0  0  0  0  0
   18.2682  -35.8777   -8.1560 C   0  0  0  0  0  0  0  0  0  0  0  0
   19.1856  -35.3288   -7.1175 C   0  0  1  0  0  0  0  0  0  0  0  0
   20.2811  -36.1667   -6.9184 O   0  0  0  0  0  0  0  0  0  0  0  0
   19.7128  -33.9425   -7.4629 C   0  0  2  0  0  0  0  0  0  0  0  0
   20.7842  -34.0180   -8.4321 N   0  0  0  0  0  0  0  0  0  0  0  0
   20.2244  -33.3770   -6.2066 C   0  0  0  0  0  0  0  0  0  0  0  0
   21.4529  -33.1290   -6.0265 O   0  0  0  0  0  0  0  0  0  0  0  0
   19.3566  -33.0955   -5.1703 O   0  0  0  0  0  0  0  0  0  0  0  0
  2  1  1  6
  3  2  1  0
  4  5  2  0
  4  2  1  0
  6  4  1  0
  7  6  1  0
  7  8  1  1
  8  9  1  0
  9 14  2  0
 10 11  2  0
 10  9  1  0
 11 12  1  0
 12 13  2  0
 14 13  1  0
 15  7  1  0
 16 15  2  0
 18 17  1  6
 18 20  1  0
 19 18  1  0
 20 22  1  0
 20 21  1  6
 21 15  1  0
 22 24  1  0
 23 22  2  0
M  END
$$$$
