NPQ.pdb
     RDKit          3D

 25 25  0  0  1  0  0  0  0  0999 V2000
   22.4382  -35.2366  -13.8560 N   0  0  0  0  0  0  0  0  0  0  0  0
   22.5596  -35.9093  -12.6143 C   0  0  0  0  0  0  0  0  0  0  0  0
   21.8761  -36.9256  -12.4005 O   0  0  0  0  0  0  0  0  0  0  0  0
   23.4843  -35.4298  -11.5606 C   0  0  0  0  0  0  0  0  0  0  0  0
   24.2300  -34.1952  -12.0339 C   0  0  2  0  0  0  0  0  0  0  0  0
   25.0160  -34.5603  -13.1590 N   0  0  0  0  0  0  0  0  0  0  0  0
   24.9746  -33.5443  -10.9688 C   0  0  0  0  0  0  0  0  0  0  0  0
   26.2542  -33.6181  -11.0504 O   0  0  0  0  0  0  0  0  0  0  0  0
   24.4363  -32.8536   -9.8761 N   0  0  0  0  0  0  0  0  0  0  0  0
   23.0948  -32.6450   -9.4005 C   0  0  0  0  0  0  0  0  0  0  0  0
   23.1007  -31.1148   -9.2038 C   0  0  0  0  0  0  0  0  0  0  0  0
   24.3827  -30.9516   -8.4288 C   0  0  0  0  0  0  0  0  0  0  0  0
   25.2405  -32.1159   -8.8612 C   0  0  1  0  0  0  0  0  0  0  0  0
   25.4360  -33.0188   -7.6984 C   0  0  0  0  0  0  0  0  0  0  0  0
   24.6575  -33.9729   -7.4411 O   0  0  0  0  0  0  0  0  0  0  0  0
   31.2902  -33.6432   -6.9058 N   0  0  0  0  0  0  0  0  0  0  0  0
   30.8836  -34.7080   -6.0533 C   0  0  0  0  0  0  0  0  0  0  0  0
   31.7306  -35.5100   -5.6114 O   0  0  0  0  0  0  0  0  0  0  0  0
   29.4592  -34.8484   -5.7028 C   0  0  0  0  0  0  0  0  0  0  0  0
   28.6692  -33.7764   -6.3940 C   0  0  0  0  0  0  0  0  0  0  0  0
   27.1790  -33.9131   -6.1715 C   0  0  2  0  0  0  0  0  0  0  0  0
   26.5393  -32.8010   -6.8445 N   0  0  0  0  0  0  0  0  0  0  0  0
   26.8185  -33.8800   -4.7459 C   0  0  0  0  0  0  0  0  0  0  0  0
   26.5829  -34.9325   -4.1299 O   0  0  0  0  0  0  0  0  0  0  0  0
   26.7420  -32.6731   -4.0911 O   0  0  0  0  0  0  0  0  0  0  0  0
  1  2  1  0
  2  3  2  0
  4  2  1  0
  5  4  1  0
  5  6  1  6
  7  5  1  0
  7  8  2  0
  9  7  1  0
 10  9  1  0
 11 10  1  0
 11 12  1  0
 12 13  1  0
 13  9  1  0
 13 14  1  1
 15 14  2  0
 16 17  1  0
 17 19  1  0
 18 17  2  0
 19 20  1  0
 21 20  1  1
 21 22  1  0
 21 23  1  0
 22 14  1  0
 23 25  1  0
 24 23  2  0
M  END
$$$$
