NPQ.pdb
     RDKit          3D

 25 25  0  0  1  0  0  0  0  0999 V2000
   19.2745  -13.3608  -19.6877 N   0  0  0  0  0  0  0  0  0  0  0  0
   18.9810  -13.8485  -18.3895 C   0  0  0  0  0  0  0  0  0  0  0  0
   18.1508  -14.7639  -18.2539 O   0  0  0  0  0  0  0  0  0  0  0  0
   19.6415  -13.2924  -17.1854 C   0  0  0  0  0  0  0  0  0  0  0  0
   20.6273  -12.2067  -17.5774 C   0  0  2  0  0  0  0  0  0  0  0  0
   21.7289  -12.8258  -18.2258 N   0  0  0  0  0  0  0  0  0  0  0  0
   20.9932  -11.3491  -16.4625 C   0  0  0  0  0  0  0  0  0  0  0  0
   20.0208  -10.9107  -15.7471 O   0  0  0  0  0  0  0  0  0  0  0  0
   22.2883  -10.9601  -16.0991 N   0  0  0  0  0  0  0  0  0  0  0  0
   23.5917  -11.2244  -16.6476 C   0  0  0  0  0  0  0  0  0  0  0  0
   24.3473  -11.6659  -15.3771 C   0  0  0  0  0  0  0  0  0  0  0  0
   23.9579  -10.5546  -14.4368 C   0  0  0  0  0  0  0  0  0  0  0  0
   22.6150  -10.0830  -14.9394 C   0  0  1  0  0  0  0  0  0  0  0  0
   22.7599   -8.6960  -15.4502 C   0  0  0  0  0  0  0  0  0  0  0  0
   23.0261   -8.4396  -16.6527 O   0  0  0  0  0  0  0  0  0  0  0  0
   18.6390   -6.6975  -17.1642 N   0  0  0  0  0  0  0  0  0  0  0  0
   19.1085   -5.3657  -16.9863 C   0  0  0  0  0  0  0  0  0  0  0  0
   18.4542   -4.4081  -17.4455 O   0  0  0  0  0  0  0  0  0  0  0  0
   20.3685   -5.1357  -16.2576 C   0  0  0  0  0  0  0  0  0  0  0  0
   20.9028   -6.4474  -15.7625 C   0  0  0  0  0  0  0  0  0  0  0  0
   22.2253   -6.3052  -15.0416 C   0  0  2  0  0  0  0  0  0  0  0  0
   22.5929   -7.6185  -14.5530 N   0  0  0  0  0  0  0  0  0  0  0  0
   22.1477   -5.3766  -13.9034 C   0  0  0  0  0  0  0  0  0  0  0  0
   21.8407   -5.7886  -12.7726 O   0  0  0  0  0  0  0  0  0  0  0  0
   22.4174   -4.0418  -14.0946 O   0  0  0  0  0  0  0  0  0  0  0  0
  1  2  1  0
  2  3  2  0
  4  2  1  0
  5  4  1  0
  5  6  1  1
  7  5  1  0
  7  8  2  0
  9  7  1  0
 10  9  1  0
 11 10  1  0
 11 12  1  0
 12 13  1  0
 13  9  1  0
 13 14  1  6
 15 14  2  0
 16 17  1  0
 17 19  1  0
 18 17  2  0
 19 20  1  0
 21 20  1  1
 21 22  1  0
 21 23  1  0
 22 14  1  0
 23 25  1  0
 24 23  2  0
M  END
$$$$
