NPQ.pdb
     RDKit          3D

 25 25  0  0  1  0  0  0  0  0999 V2000
   16.1782  -12.3066  -11.5323 N   0  0  0  0  0  0  0  0  0  0  0  0
   17.0811  -11.2775  -11.8996 C   0  0  0  0  0  0  0  0  0  0  0  0
   18.2389  -11.5740  -12.2422 O   0  0  0  0  0  0  0  0  0  0  0  0
   16.6782   -9.8517  -11.8853 C   0  0  0  0  0  0  0  0  0  0  0  0
   15.2823   -9.7030  -11.3078 C   0  0  2  0  0  0  0  0  0  0  0  0
   14.3931  -10.4754  -12.1015 N   0  0  0  0  0  0  0  0  0  0  0  0
   14.8860   -8.3143  -11.1434 C   0  0  0  0  0  0  0  0  0  0  0  0
   14.1465   -7.8263  -12.0732 O   0  0  0  0  0  0  0  0  0  0  0  0
   15.2296   -7.4688  -10.0814 N   0  0  0  0  0  0  0  0  0  0  0  0
   16.1343   -7.5934   -8.9699 C   0  0  0  0  0  0  0  0  0  0  0  0
   15.2097   -7.1782   -7.8067 C   0  0  0  0  0  0  0  0  0  0  0  0
   14.6238   -5.9104   -8.3727 C   0  0  0  0  0  0  0  0  0  0  0  0
   14.6675   -6.1050   -9.8689 C   0  0  1  0  0  0  0  0  0  0  0  0
   15.6252   -5.1279  -10.4467 C   0  0  0  0  0  0  0  0  0  0  0  0
   16.8717   -5.2455  -10.3246 O   0  0  0  0  0  0  0  0  0  0  0  0
   16.2208   -2.2809  -15.7022 N   0  0  0  0  0  0  0  0  0  0  0  0
   15.7830   -3.6110  -15.4477 C   0  0  0  0  0  0  0  0  0  0  0  0
   15.6813   -4.4239  -16.3884 O   0  0  0  0  0  0  0  0  0  0  0  0
   15.4540   -4.0114  -14.0682 C   0  0  0  0  0  0  0  0  0  0  0  0
   15.4656   -2.8000  -13.1830 C   0  0  0  0  0  0  0  0  0  0  0  0
   16.0225   -3.0876  -11.8060 C   0  0  2  0  0  0  0  0  0  0  0  0
   15.1202   -4.0208  -11.1628 N   0  0  0  0  0  0  0  0  0  0  0  0
   16.1270   -1.8763  -10.9781 C   0  0  0  0  0  0  0  0  0  0  0  0
   15.2395   -1.5954  -10.1557 O   0  0  0  0  0  0  0  0  0  0  0  0
   17.2167   -1.0491  -11.1168 O   0  0  0  0  0  0  0  0  0  0  0  0
  1  2  1  0
  2  3  2  0
  4  2  1  0
  5  4  1  0
  5  6  1  6
  7  5  1  0
  7  8  2  0
  9  7  1  0
 10  9  1  0
 11 10  1  0
 11 12  1  0
 12 13  1  0
 13  9  1  0
 13 14  1  6
 15 14  2  0
 16 17  1  0
 17 19  1  0
 18 17  2  0
 19 20  1  0
 21 20  1  6
 21 22  1  0
 21 23  1  0
 22 14  1  0
 23 25  1  0
 24 23  2  0
M  END
$$$$
