NPQ.pdb
     RDKit          3D

 25 25  0  0  1  0  0  0  0  0999 V2000
   29.8920  -22.4070  -16.5635 N   0  0  0  0  0  0  0  0  0  0  0  0
   29.1010  -21.6956  -17.5002 C   0  0  0  0  0  0  0  0  0  0  0  0
   29.3953  -21.7402  -18.7073 O   0  0  0  0  0  0  0  0  0  0  0  0
   27.9277  -20.8969  -17.0750 C   0  0  0  0  0  0  0  0  0  0  0  0
   27.7509  -20.9777  -15.5696 C   0  0  2  0  0  0  0  0  0  0  0  0
   27.5735  -22.3428  -15.2200 N   0  0  0  0  0  0  0  0  0  0  0  0
   26.7086  -20.0928  -15.0766 C   0  0  0  0  0  0  0  0  0  0  0  0
   25.9662  -20.5644  -14.1407 O   0  0  0  0  0  0  0  0  0  0  0  0
   26.4402  -18.7918  -15.5197 N   0  0  0  0  0  0  0  0  0  0  0  0
   27.0162  -17.9545  -16.5377 C   0  0  0  0  0  0  0  0  0  0  0  0
   27.2512  -16.6576  -15.7357 C   0  0  0  0  0  0  0  0  0  0  0  0
   25.9040  -16.5043  -15.0780 C   0  0  0  0  0  0  0  0  0  0  0  0
   25.3718  -17.9124  -14.9664 C   0  0  1  0  0  0  0  0  0  0  0  0
   24.1821  -18.0411  -15.8460 C   0  0  0  0  0  0  0  0  0  0  0  0
   24.2719  -18.2419  -17.0846 O   0  0  0  0  0  0  0  0  0  0  0  0
   20.7033  -22.3039  -14.8170 N   0  0  0  0  0  0  0  0  0  0  0  0
   20.7027  -21.3311  -13.7780 C   0  0  0  0  0  0  0  0  0  0  0  0
   20.3771  -21.6579  -12.6190 O   0  0  0  0  0  0  0  0  0  0  0  0
   21.0891  -19.9433  -14.0881 C   0  0  0  0  0  0  0  0  0  0  0  0
   21.5004  -19.8519  -15.5282 C   0  0  0  0  0  0  0  0  0  0  0  0
   21.7322  -18.4270  -15.9806 C   0  0  2  0  0  0  0  0  0  0  0  0
   22.8961  -17.9343  -15.2726 N   0  0  0  0  0  0  0  0  0  0  0  0
   20.5878  -17.5510  -15.6864 C   0  0  0  0  0  0  0  0  0  0  0  0
   20.6642  -16.6915  -14.7930 O   0  0  0  0  0  0  0  0  0  0  0  0
   19.4245  -17.6859  -16.4072 O   0  0  0  0  0  0  0  0  0  0  0  0
  1  2  1  0
  2  3  2  0
  4  2  1  0
  5  4  1  0
  5  6  1  6
  7  5  1  0
  7  8  2  0
  9  7  1  0
 10  9  1  0
 11 10  1  0
 11 12  1  0
 12 13  1  0
 13  9  1  0
 13 14  1  6
 15 14  2  0
 16 17  1  0
 17 19  1  0
 18 17  2  0
 19 20  1  0
 21 20  1  1
 21 22  1  0
 21 23  1  0
 22 14  1  0
 23 25  1  0
 24 23  2  0
M  END
$$$$
