NPQ.pdb
     RDKit          3D

 25 25  0  0  1  0  0  0  0  0999 V2000
   19.9991  -23.4454  -13.7767 N   0  0  0  0  0  0  0  0  0  0  0  0
   20.7607  -23.2795  -14.9606 C   0  0  0  0  0  0  0  0  0  0  0  0
   20.5521  -24.0279  -15.9313 O   0  0  0  0  0  0  0  0  0  0  0  0
   21.8032  -22.2325  -15.0708 C   0  0  0  0  0  0  0  0  0  0  0  0
   21.9675  -21.5091  -13.7465 C   0  0  2  0  0  0  0  0  0  0  0  0
   20.7486  -20.8405  -13.4561 N   0  0  0  0  0  0  0  0  0  0  0  0
   23.1423  -20.6539  -13.7139 C   0  0  0  0  0  0  0  0  0  0  0  0
   22.9446  -19.4154  -13.9907 O   0  0  0  0  0  0  0  0  0  0  0  0
   24.4523  -21.0470  -13.4135 N   0  0  0  0  0  0  0  0  0  0  0  0
   25.0439  -22.2960  -13.0145 C   0  0  0  0  0  0  0  0  0  0  0  0
   25.8697  -21.8389  -11.7941 C   0  0  0  0  0  0  0  0  0  0  0  0
   26.5697  -20.6403  -12.3808 C   0  0  0  0  0  0  0  0  0  0  0  0
   25.6386  -20.1461  -13.4611 C   0  0  1  0  0  0  0  0  0  0  0  0
   26.2967  -20.3373  -14.7787 C   0  0  0  0  0  0  0  0  0  0  0  0
   26.3870  -21.4615  -15.3359 O   0  0  0  0  0  0  0  0  0  0  0  0
   24.2368  -17.5436  -19.7796 N   0  0  0  0  0  0  0  0  0  0  0  0
   23.9665  -18.3643  -18.6486 C   0  0  0  0  0  0  0  0  0  0  0  0
   22.9604  -19.1018  -18.6405 O   0  0  0  0  0  0  0  0  0  0  0  0
   24.8845  -18.3309  -17.4964 C   0  0  0  0  0  0  0  0  0  0  0  0
   25.8140  -19.5067  -17.5673 C   0  0  0  0  0  0  0  0  0  0  0  0
   27.1261  -19.2582  -16.8564 C   0  0  2  0  0  0  0  0  0  0  0  0
   26.8447  -19.2141  -15.4359 N   0  0  0  0  0  0  0  0  0  0  0  0
   27.7518  -17.9894  -17.2590 C   0  0  0  0  0  0  0  0  0  0  0  0
   28.3086  -17.8830  -18.3642 O   0  0  0  0  0  0  0  0  0  0  0  0
   27.7191  -16.9130  -16.4038 O   0  0  0  0  0  0  0  0  0  0  0  0
  1  2  1  0
  2  3  2  0
  4  2  1  0
  5  4  1  0
  5  6  1  6
  7  5  1  0
  7  8  2  0
  9  7  1  0
 10  9  1  0
 11 10  1  0
 11 12  1  0
 12 13  1  0
 13  9  1  0
 13 14  1  6
 15 14  2  0
 16 17  1  0
 17 19  1  0
 18 17  2  0
 19 20  1  0
 21 20  1  6
 21 22  1  0
 21 23  1  0
 22 14  1  0
 23 25  1  0
 24 23  2  0
M  END
$$$$
