NPQ.pdb
     RDKit          3D

 25 25  0  0  1  0  0  0  0  0999 V2000
   16.2838  -13.1723  -18.3828 N   0  0  0  0  0  0  0  0  0  0  0  0
   17.2013  -12.0919  -18.3709 C   0  0  0  0  0  0  0  0  0  0  0  0
   17.8343  -11.8163  -19.4050 O   0  0  0  0  0  0  0  0  0  0  0  0
   17.4259  -11.2796  -17.1523 C   0  0  0  0  0  0  0  0  0  0  0  0
   18.6259  -11.8017  -16.3831 C   0  0  2  0  0  0  0  0  0  0  0  0
   18.2861  -13.0723  -15.8470 N   0  0  0  0  0  0  0  0  0  0  0  0
   19.1230  -10.8512  -15.4023 C   0  0  0  0  0  0  0  0  0  0  0  0
   18.6684  -10.9848  -14.2086 O   0  0  0  0  0  0  0  0  0  0  0  0
   20.0385   -9.8169  -15.6323 N   0  0  0  0  0  0  0  0  0  0  0  0
   20.7326   -9.3518  -16.8033 C   0  0  0  0  0  0  0  0  0  0  0  0
   22.1771   -9.2843  -16.2658 C   0  0  0  0  0  0  0  0  0  0  0  0
   21.9471   -8.5339  -14.9794 C   0  0  0  0  0  0  0  0  0  0  0  0
   20.5290   -8.8727  -14.5889 C   0  0  1  0  0  0  0  0  0  0  0  0
   19.7058   -7.6395  -14.6745 C   0  0  0  0  0  0  0  0  0  0  0  0
   19.2085   -7.2286  -15.7545 O   0  0  0  0  0  0  0  0  0  0  0  0
   15.8038   -6.1909  -10.4263 N   0  0  0  0  0  0  0  0  0  0  0  0
   17.1710   -6.1842  -10.0306 C   0  0  0  0  0  0  0  0  0  0  0  0
   17.4717   -6.3171   -8.8273 O   0  0  0  0  0  0  0  0  0  0  0  0
   18.2180   -6.0194  -11.0543 C   0  0  0  0  0  0  0  0  0  0  0  0
   17.5790   -5.9301  -12.4089 C   0  0  0  0  0  0  0  0  0  0  0  0
   18.5886   -5.7450  -13.5204 C   0  0  2  0  0  0  0  0  0  0  0  0
   19.4693   -6.8951  -13.4982 N   0  0  0  0  0  0  0  0  0  0  0  0
   19.3922   -4.5246  -13.3519 C   0  0  0  0  0  0  0  0  0  0  0  0
   20.5955   -4.5976  -13.0528 O   0  0  0  0  0  0  0  0  0  0  0  0
   18.8050   -3.2936  -13.5274 O   0  0  0  0  0  0  0  0  0  0  0  0
  1  2  1  0
  2  3  2  0
  4  2  1  0
  5  4  1  0
  5  6  1  1
  7  5  1  0
  7  8  2  0
  9  7  1  0
 10  9  1  0
 11 10  1  0
 11 12  1  0
 12 13  1  0
 13  9  1  0
 13 14  1  6
 15 14  2  0
 16 17  1  0
 17 19  1  0
 18 17  2  0
 19 20  1  0
 21 20  1  1
 21 22  1  0
 21 23  1  0
 22 14  1  0
 23 25  1  0
 24 23  2  0
M  END
$$$$
