NPQ.pdb
     RDKit          3D

 25 25  0  0  1  0  0  0  0  0999 V2000
   21.1557  -21.5087  -12.3586 N   0  0  0  0  0  0  0  0  0  0  0  0
   21.9364  -22.4701  -13.0482 C   0  0  0  0  0  0  0  0  0  0  0  0
   21.6547  -23.6764  -12.9415 O   0  0  0  0  0  0  0  0  0  0  0  0
   23.0842  -22.0719  -13.8963 C   0  0  0  0  0  0  0  0  0  0  0  0
   23.2373  -20.5617  -13.9031 C   0  0  2  0  0  0  0  0  0  0  0  0
   22.0093  -19.9969  -14.3391 N   0  0  0  0  0  0  0  0  0  0  0  0
   24.4007  -20.1171  -14.6523 C   0  0  0  0  0  0  0  0  0  0  0  0
   24.1806  -19.7344  -15.8584 O   0  0  0  0  0  0  0  0  0  0  0  0
   25.7216  -20.0672  -14.1902 N   0  0  0  0  0  0  0  0  0  0  0  0
   26.3474  -20.4150  -12.9425 C   0  0  0  0  0  0  0  0  0  0  0  0
   27.1645  -19.1348  -12.6711 C   0  0  0  0  0  0  0  0  0  0  0  0
   27.8306  -18.9559  -14.0110 C   0  0  0  0  0  0  0  0  0  0  0  0
   26.8834  -19.5965  -14.9962 C   0  0  1  0  0  0  0  0  0  0  0  0
   27.5423  -20.7935  -15.5783 C   0  0  0  0  0  0  0  0  0  0  0  0
   28.1717  -21.6292  -14.8797 O   0  0  0  0  0  0  0  0  0  0  0  0
   26.3878  -25.7038  -16.1253 N   0  0  0  0  0  0  0  0  0  0  0  0
   25.4764  -24.7819  -16.7128 C   0  0  0  0  0  0  0  0  0  0  0  0
   24.2675  -25.0750  -16.8061 O   0  0  0  0  0  0  0  0  0  0  0  0
   25.9769  -23.4864  -17.2054 C   0  0  0  0  0  0  0  0  0  0  0  0
   27.4512  -23.3911  -16.9435 C   0  0  0  0  0  0  0  0  0  0  0  0
   28.0794  -22.1686  -17.5757 C   0  0  2  0  0  0  0  0  0  0  0  0
   27.4613  -21.0058  -16.9719 N   0  0  0  0  0  0  0  0  0  0  0  0
   27.8710  -22.1189  -19.0309 C   0  0  0  0  0  0  0  0  0  0  0  0
   27.1284  -21.2593  -19.5331 O   0  0  0  0  0  0  0  0  0  0  0  0
   28.5044  -23.0323  -19.8406 O   0  0  0  0  0  0  0  0  0  0  0  0
  1  2  1  0
  2  3  2  0
  4  2  1  0
  5  4  1  0
  5  6  1  6
  7  5  1  0
  7  8  2  0
  9  7  1  0
 10  9  1  0
 11 10  1  0
 11 12  1  0
 12 13  1  0
 13  9  1  0
 13 14  1  1
 15 14  2  0
 16 17  1  0
 17 19  1  0
 18 17  2  0
 19 20  1  0
 21 20  1  1
 21 22  1  0
 21 23  1  0
 22 14  1  0
 23 25  1  0
 24 23  2  0
M  END
$$$$
