NPQ.pdb
     RDKit          3D

 25 25  0  0  1  0  0  0  0  0999 V2000
   22.6364  -15.2152  -20.4028 N   0  0  0  0  0  0  0  0  0  0  0  0
   23.7351  -14.4864  -19.8823 C   0  0  0  0  0  0  0  0  0  0  0  0
   24.8848  -14.7506  -20.2749 O   0  0  0  0  0  0  0  0  0  0  0  0
   23.5470  -13.4132  -18.8782 C   0  0  0  0  0  0  0  0  0  0  0  0
   24.2993  -13.7456  -17.6024 C   0  0  2  0  0  0  0  0  0  0  0  0
   23.8498  -15.0124  -17.1438 N   0  0  0  0  0  0  0  0  0  0  0  0
   24.2203  -12.6867  -16.6099 C   0  0  0  0  0  0  0  0  0  0  0  0
   23.2905  -12.8065  -15.7320 O   0  0  0  0  0  0  0  0  0  0  0  0
   25.0506  -11.5626  -16.5213 N   0  0  0  0  0  0  0  0  0  0  0  0
   26.1917  -11.1134  -17.2732 C   0  0  0  0  0  0  0  0  0  0  0  0
   27.1788  -10.8041  -16.1286 C   0  0  0  0  0  0  0  0  0  0  0  0
   26.2932   -9.9810  -15.2292 C   0  0  0  0  0  0  0  0  0  0  0  0
   24.8954  -10.4723  -15.5173 C   0  0  1  0  0  0  0  0  0  0  0  0
   24.1294   -9.3740  -16.1597 C   0  0  0  0  0  0  0  0  0  0  0  0
   24.1837   -9.1403  -17.3946 O   0  0  0  0  0  0  0  0  0  0  0  0
   19.8359  -11.5519  -16.9787 N   0  0  0  0  0  0  0  0  0  0  0  0
   19.5070  -10.2145  -16.6196 C   0  0  0  0  0  0  0  0  0  0  0  0
   18.4252   -9.7177  -16.9924 O   0  0  0  0  0  0  0  0  0  0  0  0
   20.4548   -9.4311  -15.8076 C   0  0  0  0  0  0  0  0  0  0  0  0
   21.3467   -8.6354  -16.7145 C   0  0  0  0  0  0  0  0  0  0  0  0
   22.2856   -7.7223  -15.9571 C   0  0  2  0  0  0  0  0  0  0  0  0
   23.3056   -8.5566  -15.3554 N   0  0  0  0  0  0  0  0  0  0  0  0
   21.6006   -6.9661  -14.8976 C   0  0  0  0  0  0  0  0  0  0  0  0
   20.8643   -6.0071  -15.1819 O   0  0  0  0  0  0  0  0  0  0  0  0
   21.7780   -7.3250  -13.5820 O   0  0  0  0  0  0  0  0  0  0  0  0
  1  2  1  0
  2  3  2  0
  4  2  1  0
  5  4  1  0
  5  6  1  1
  7  5  1  0
  7  8  2  0
  9  7  1  0
 10  9  1  0
 11 10  1  0
 11 12  1  0
 12 13  1  0
 13  9  1  0
 13 14  1  6
 15 14  2  0
 16 17  1  0
 17 19  1  0
 18 17  2  0
 19 20  1  0
 21 20  1  1
 21 22  1  0
 21 23  1  0
 22 14  1  0
 23 25  1  0
 24 23  2  0
M  END
$$$$
