NPQ.pdb
     RDKit          3D

 25 25  0  0  1  0  0  0  0  0999 V2000
   29.5110  -27.0245  -21.6724 N   0  0  0  0  0  0  0  0  0  0  0  0
   28.3463  -27.3454  -20.9310 C   0  0  0  0  0  0  0  0  0  0  0  0
   27.5237  -28.1495  -21.4028 O   0  0  0  0  0  0  0  0  0  0  0  0
   28.0835  -26.7442  -19.6025 C   0  0  0  0  0  0  0  0  0  0  0  0
   29.0998  -27.2379  -18.5887 C   0  0  2  0  0  0  0  0  0  0  0  0
   28.7964  -28.5917  -18.2850 N   0  0  0  0  0  0  0  0  0  0  0  0
   29.2021  -26.3716  -17.4262 C   0  0  0  0  0  0  0  0  0  0  0  0
   28.6105  -26.7840  -16.3634 O   0  0  0  0  0  0  0  0  0  0  0  0
   29.8753  -25.1458  -17.3558 N   0  0  0  0  0  0  0  0  0  0  0  0
   30.5973  -24.3566  -18.3176 C   0  0  0  0  0  0  0  0  0  0  0  0
   31.8985  -24.0811  -17.5357 C   0  0  0  0  0  0  0  0  0  0  0  0
   31.3254  -23.6220  -16.2197 C   0  0  0  0  0  0  0  0  0  0  0  0
   29.9846  -24.3091  -16.1274 C   0  0  1  0  0  0  0  0  0  0  0  0
   28.9177  -23.2778  -16.1885 C   0  0  0  0  0  0  0  0  0  0  0  0
   28.3504  -22.9504  -17.2625 O   0  0  0  0  0  0  0  0  0  0  0  0
   26.1293  -21.7468  -10.9007 N   0  0  0  0  0  0  0  0  0  0  0  0
   25.2059  -21.1880  -11.8286 C   0  0  0  0  0  0  0  0  0  0  0  0
   24.1143  -20.7379  -11.4265 O   0  0  0  0  0  0  0  0  0  0  0  0
   25.5549  -21.1489  -13.2597 C   0  0  0  0  0  0  0  0  0  0  0  0
   26.8787  -21.8241  -13.4671 C   0  0  0  0  0  0  0  0  0  0  0  0
   27.2627  -21.9216  -14.9273 C   0  0  2  0  0  0  0  0  0  0  0  0
   28.5211  -22.6362  -14.9948 N   0  0  0  0  0  0  0  0  0  0  0  0
   27.4288  -20.6013  -15.5538 C   0  0  0  0  0  0  0  0  0  0  0  0
   26.4373  -19.9315  -15.8870 O   0  0  0  0  0  0  0  0  0  0  0  0
   28.6929  -20.1057  -15.7719 O   0  0  0  0  0  0  0  0  0  0  0  0
  1  2  1  0
  2  3  2  0
  4  2  1  0
  5  4  1  0
  5  6  1  1
  7  5  1  0
  7  8  2  0
  9  7  1  0
 10  9  1  0
 11 10  1  0
 11 12  1  0
 12 13  1  0
 13  9  1  0
 13 14  1  6
 15 14  2  0
 16 17  1  0
 17 19  1  0
 18 17  2  0
 19 20  1  0
 21 20  1  1
 21 22  1  0
 21 23  1  0
 22 14  1  0
 23 25  1  0
 24 23  2  0
M  END
$$$$
