NPQ.pdb
     RDKit          3D

 25 25  0  0  1  0  0  0  0  0999 V2000
   19.6028   -8.7875  -18.1512 N   0  0  0  0  0  0  0  0  0  0  0  0
   18.3170   -8.9388  -17.5740 C   0  0  0  0  0  0  0  0  0  0  0  0
   17.3509   -9.2278  -18.3013 O   0  0  0  0  0  0  0  0  0  0  0  0
   18.0946   -8.7604  -16.1201 C   0  0  0  0  0  0  0  0  0  0  0  0
   19.2959   -9.2580  -15.3368 C   0  0  2  0  0  0  0  0  0  0  0  0
   19.4393  -10.6486  -15.5874 N   0  0  0  0  0  0  0  0  0  0  0  0
   19.2346   -8.9063  -13.9279 C   0  0  0  0  0  0  0  0  0  0  0  0
   18.7163   -9.7873  -13.1502 O   0  0  0  0  0  0  0  0  0  0  0  0
   19.6807   -7.7136  -13.3455 N   0  0  0  0  0  0  0  0  0  0  0  0
   20.1662   -6.4708  -13.8831 C   0  0  0  0  0  0  0  0  0  0  0  0
   21.4579   -6.2930  -13.0583 C   0  0  0  0  0  0  0  0  0  0  0  0
   20.9243   -6.5445  -11.6716 C   0  0  0  0  0  0  0  0  0  0  0  0
   19.7409   -7.4584  -11.8785 C   0  0  1  0  0  0  0  0  0  0  0  0
   18.5051   -6.7283  -11.4971 C   0  0  0  0  0  0  0  0  0  0  0  0
   17.9602   -5.8778  -12.2470 O   0  0  0  0  0  0  0  0  0  0  0  0
   14.1886   -9.9051   -9.2052 N   0  0  0  0  0  0  0  0  0  0  0  0
   13.6252   -8.6528   -8.8308 C   0  0  0  0  0  0  0  0  0  0  0  0
   12.5075   -8.6130   -8.2784 O   0  0  0  0  0  0  0  0  0  0  0  0
   14.3750   -7.4137   -9.1028 C   0  0  0  0  0  0  0  0  0  0  0  0
   15.7583   -7.7617   -9.5679 C   0  0  0  0  0  0  0  0  0  0  0  0
   16.5699   -6.5438   -9.9512 C   0  0  2  0  0  0  0  0  0  0  0  0
   17.9147   -6.9967  -10.2429 N   0  0  0  0  0  0  0  0  0  0  0  0
   16.6256   -5.5440   -8.8738 C   0  0  0  0  0  0  0  0  0  0  0  0
   17.5436   -5.5680   -8.0374 O   0  0  0  0  0  0  0  0  0  0  0  0
   15.6527   -4.5756   -8.7931 O   0  0  0  0  0  0  0  0  0  0  0  0
  1  2  1  0
  2  3  2  0
  4  2  1  0
  5  4  1  0
  5  6  1  1
  7  5  1  0
  7  8  2  0
  9  7  1  0
 10  9  1  0
 11 10  1  0
 11 12  1  0
 12 13  1  0
 13  9  1  0
 13 14  1  6
 15 14  2  0
 16 17  1  0
 17 19  1  0
 18 17  2  0
 19 20  1  0
 21 20  1  1
 21 22  1  0
 21 23  1  0
 22 14  1  0
 23 25  1  0
 24 23  2  0
M  END
$$$$
