NPQ.pdb
     RDKit          3D

 25 25  0  0  1  0  0  0  0  0999 V2000
   28.9532  -20.8319  -15.9762 N   0  0  0  0  0  0  0  0  0  0  0  0
   27.7755  -20.0485  -16.0690 C   0  0  0  0  0  0  0  0  0  0  0  0
   27.7742  -19.0292  -16.7810 O   0  0  0  0  0  0  0  0  0  0  0  0
   26.5413  -20.4153  -15.3359 C   0  0  0  0  0  0  0  0  0  0  0  0
   26.7509  -21.7026  -14.5594 C   0  0  2  0  0  0  0  0  0  0  0  0
   27.0741  -22.7284  -15.4869 N   0  0  0  0  0  0  0  0  0  0  0  0
   25.6365  -22.0183  -13.6813 C   0  0  0  0  0  0  0  0  0  0  0  0
   25.0113  -23.1109  -13.9363 O   0  0  0  0  0  0  0  0  0  0  0  0
   25.1855  -21.2543  -12.5980 N   0  0  0  0  0  0  0  0  0  0  0  0
   25.6388  -20.0303  -11.9932 C   0  0  0  0  0  0  0  0  0  0  0  0
   25.6817  -20.4490  -10.5089 C   0  0  0  0  0  0  0  0  0  0  0  0
   24.3240  -21.0888  -10.3741 C   0  0  0  0  0  0  0  0  0  0  0  0
   23.9995  -21.5902  -11.7603 C   0  0  1  0  0  0  0  0  0  0  0  0
   22.8440  -20.8190  -12.2855 C   0  0  0  0  0  0  0  0  0  0  0  0
   22.9691  -19.6851  -12.8157 O   0  0  0  0  0  0  0  0  0  0  0  0
   17.6332  -23.9348  -13.3915 N   0  0  0  0  0  0  0  0  0  0  0  0
   17.2707  -22.6789  -13.9547 C   0  0  0  0  0  0  0  0  0  0  0  0
   16.1448  -22.5295  -14.4704 O   0  0  0  0  0  0  0  0  0  0  0  0
   18.2365  -21.5665  -13.9203 C   0  0  0  0  0  0  0  0  0  0  0  0
   19.4171  -21.9591  -13.0817 C   0  0  0  0  0  0  0  0  0  0  0  0
   20.4681  -20.8734  -13.0072 C   0  0  2  0  0  0  0  0  0  0  0  0
   21.5509  -21.3776  -12.1875 N   0  0  0  0  0  0  0  0  0  0  0  0
   19.9529  -19.6329  -12.4078 C   0  0  0  0  0  0  0  0  0  0  0  0
   19.5010  -18.7254  -13.1254 O   0  0  0  0  0  0  0  0  0  0  0  0
   19.9723  -19.4782  -11.0415 O   0  0  0  0  0  0  0  0  0  0  0  0
  1  2  1  0
  2  3  2  0
  4  2  1  0
  5  4  1  0
  5  6  1  6
  7  5  1  0
  7  8  2  0
  9  7  1  0
 10  9  1  0
 11 10  1  0
 11 12  1  0
 12 13  1  0
 13  9  1  0
 13 14  1  6
 15 14  2  0
 16 17  1  0
 17 19  1  0
 18 17  2  0
 19 20  1  0
 21 20  1  1
 21 22  1  0
 21 23  1  0
 22 14  1  0
 23 25  1  0
 24 23  2  0
M  END
$$$$
