NPQ.pdb
     RDKit          3D

 25 25  0  0  1  0  0  0  0  0999 V2000
   25.7365  -23.7267  -11.9717 N   0  0  0  0  0  0  0  0  0  0  0  0
   25.2441  -23.5382  -13.2875 C   0  0  0  0  0  0  0  0  0  0  0  0
   25.0887  -24.5241  -14.0289 O   0  0  0  0  0  0  0  0  0  0  0  0
   24.9087  -22.1904  -13.8034 C   0  0  0  0  0  0  0  0  0  0  0  0
   25.3627  -21.1221  -12.8252 C   0  0  2  0  0  0  0  0  0  0  0  0
   24.8436  -21.4492  -11.5443 N   0  0  0  0  0  0  0  0  0  0  0  0
   25.0462  -19.7765  -13.2741 C   0  0  0  0  0  0  0  0  0  0  0  0
   24.0151  -19.2317  -12.7360 O   0  0  0  0  0  0  0  0  0  0  0  0
   25.7495  -19.0273  -14.2254 N   0  0  0  0  0  0  0  0  0  0  0  0
   26.9565  -19.2595  -14.9727 C   0  0  0  0  0  0  0  0  0  0  0  0
   27.7086  -17.9384  -14.7099 C   0  0  0  0  0  0  0  0  0  0  0  0
   26.6175  -16.9457  -15.0181 C   0  0  0  0  0  0  0  0  0  0  0  0
   25.3352  -17.6839  -14.7201 C   0  0  1  0  0  0  0  0  0  0  0  0
   24.5945  -17.8810  -15.9922 C   0  0  0  0  0  0  0  0  0  0  0  0
   24.8526  -18.8189  -16.7899 O   0  0  0  0  0  0  0  0  0  0  0  0
   21.6818  -20.9883  -15.3619 N   0  0  0  0  0  0  0  0  0  0  0  0
   20.4466  -20.3705  -15.7064 C   0  0  0  0  0  0  0  0  0  0  0  0
   19.4333  -21.0711  -15.9025 O   0  0  0  0  0  0  0  0  0  0  0  0
   20.3822  -18.9033  -15.8271 C   0  0  0  0  0  0  0  0  0  0  0  0
   21.7392  -18.3225  -15.5582 C   0  0  0  0  0  0  0  0  0  0  0  0
   22.2495  -17.4747  -16.7027 C   0  0  2  0  0  0  0  0  0  0  0  0
   23.5578  -16.9815  -16.3234 N   0  0  0  0  0  0  0  0  0  0  0  0
   21.3716  -16.3296  -16.9885 C   0  0  0  0  0  0  0  0  0  0  0  0
   21.6066  -15.2152  -16.4931 O   0  0  0  0  0  0  0  0  0  0  0  0
   20.2823  -16.4960  -17.8111 O   0  0  0  0  0  0  0  0  0  0  0  0
  1  2  1  0
  2  3  2  0
  4  2  1  0
  5  4  1  0
  5  6  1  1
  7  5  1  0
  7  8  2  0
  9  7  1  0
 10  9  1  0
 11 10  1  0
 11 12  1  0
 12 13  1  0
 13  9  1  0
 13 14  1  6
 15 14  2  0
 16 17  1  0
 17 19  1  0
 18 17  2  0
 19 20  1  0
 21 20  1  1
 21 22  1  0
 21 23  1  0
 22 14  1  0
 23 25  1  0
 24 23  2  0
M  END
$$$$
