NPQ.pdb
     RDKit          3D

 25 25  0  0  1  0  0  0  0  0999 V2000
   28.9610  -25.1725  -20.2091 N   0  0  0  0  0  0  0  0  0  0  0  0
   28.8374  -23.8017  -19.8701 C   0  0  0  0  0  0  0  0  0  0  0  0
   29.1575  -22.9352  -20.7022 O   0  0  0  0  0  0  0  0  0  0  0  0
   28.3341  -23.3741  -18.5438 C   0  0  0  0  0  0  0  0  0  0  0  0
   29.4482  -22.7304  -17.7384 C   0  0  2  0  0  0  0  0  0  0  0  0
   30.3666  -23.7478  -17.3663 N   0  0  0  0  0  0  0  0  0  0  0  0
   28.9527  -21.9351  -16.6273 C   0  0  0  0  0  0  0  0  0  0  0  0
   29.1489  -22.4221  -15.4552 O   0  0  0  0  0  0  0  0  0  0  0  0
   28.2900  -20.7045  -16.7123 N   0  0  0  0  0  0  0  0  0  0  0  0
   27.8389  -19.8974  -17.8143 C   0  0  0  0  0  0  0  0  0  0  0  0
   28.4209  -18.5255  -17.4150 C   0  0  0  0  0  0  0  0  0  0  0  0
   27.9669  -18.4518  -15.9800 C   0  0  0  0  0  0  0  0  0  0  0  0
   27.8600  -19.8916  -15.5396 C   0  0  1  0  0  0  0  0  0  0  0  0
   26.4319  -20.2022  -15.2754 C   0  0  0  0  0  0  0  0  0  0  0  0
   25.6392  -20.5727  -16.1792 O   0  0  0  0  0  0  0  0  0  0  0  0
   25.0077  -21.5948   -9.4434 N   0  0  0  0  0  0  0  0  0  0  0  0
   24.9054  -20.2208   -9.8003 C   0  0  0  0  0  0  0  0  0  0  0  0
   24.8898  -19.3459   -8.9113 O   0  0  0  0  0  0  0  0  0  0  0  0
   24.8189  -19.8492  -11.2237 C   0  0  0  0  0  0  0  0  0  0  0  0
   24.8946  -21.0883  -12.0663 C   0  0  0  0  0  0  0  0  0  0  0  0
   24.7535  -20.7993  -13.5447 C   0  0  2  0  0  0  0  0  0  0  0  0
   25.9401  -20.0780  -13.9577 N   0  0  0  0  0  0  0  0  0  0  0  0
   23.5684  -19.9822  -13.8467 C   0  0  0  0  0  0  0  0  0  0  0  0
   22.4279  -20.4646  -13.7503 O   0  0  0  0  0  0  0  0  0  0  0  0
   23.7260  -18.6736  -14.2390 O   0  0  0  0  0  0  0  0  0  0  0  0
  1  2  1  0
  2  3  2  0
  4  2  1  0
  5  4  1  0
  5  6  1  1
  7  5  1  0
  7  8  2  0
  9  7  1  0
 10  9  1  0
 11 10  1  0
 11 12  1  0
 12 13  1  0
 13  9  1  0
 13 14  1  6
 15 14  2  0
 16 17  1  0
 17 19  1  0
 18 17  2  0
 19 20  1  0
 21 20  1  1
 21 22  1  0
 21 23  1  0
 22 14  1  0
 23 25  1  0
 24 23  2  0
M  END
$$$$
