DEE.pdb
     RDKit          3D

 27 26  0  0  1  0  0  0  0  0999 V2000
   17.6729  -10.1967  -16.8103 N   0  0  0  0  0  0  0  0  0  0  0  0
   17.6848  -10.0687  -15.3773 C   0  0  1  0  0  0  0  0  0  0  0  0
   17.4139  -11.4334  -14.7758 C   0  0  0  0  0  0  0  0  0  0  0  0
   16.0364  -11.8819  -15.0835 C   0  0  0  0  0  0  0  0  0  0  0  0
   15.0952  -11.0765  -15.0109 O   0  0  0  0  0  0  0  0  0  0  0  0
   19.0141   -9.6183  -14.9038 C   0  0  0  0  0  0  0  0  0  0  0  0
   19.2220   -9.5416  -13.6644 O   0  0  0  0  0  0  0  0  0  0  0  0
   15.8191  -13.1943  -15.4480 O   0  0  0  0  0  0  0  0  0  0  0  0
   19.9860   -9.2960  -15.8546 N   0  0  0  0  0  0  0  0  0  0  0  0
   21.2787   -8.7629  -15.4117 C   0  0  1  0  0  0  0  0  0  0  0  0
   22.3808   -9.4441  -16.1667 C   0  0  0  0  0  0  0  0  0  0  0  0
   21.9630  -10.6455  -16.9566 C   0  0  0  0  0  0  0  0  0  0  0  0
   23.0537  -11.2746  -17.7305 C   0  0  0  0  0  0  0  0  0  0  0  0
   23.2091  -11.2251  -18.9627 O   0  0  0  0  0  0  0  0  0  0  0  0
   21.2934   -7.2786  -15.5480 C   0  0  0  0  0  0  0  0  0  0  0  0
   20.8893   -6.7847  -16.6285 O   0  0  0  0  0  0  0  0  0  0  0  0
   24.0208  -12.0055  -17.0216 O   0  0  0  0  0  0  0  0  0  0  0  0
   21.7392   -6.4195  -14.5206 N   0  0  0  0  0  0  0  0  0  0  0  0
   21.5007   -4.9732  -14.6534 C   0  0  1  0  0  0  0  0  0  0  0  0
   20.0412   -4.7025  -14.8184 C   0  0  0  0  0  0  0  0  0  0  0  0
   19.8137   -3.2219  -14.9416 C   0  0  0  0  0  0  0  0  0  0  0  0
   18.3878   -2.8952  -15.1879 C   0  0  0  0  0  0  0  0  0  0  0  0
   18.0644   -2.2184  -16.1736 O   0  0  0  0  0  0  0  0  0  0  0  0
   22.1256   -4.2956  -13.5111 C   0  0  0  0  0  0  0  0  0  0  0  0
   22.3953   -4.9687  -12.4719 O   0  0  0  0  0  0  0  0  0  0  0  0
   17.4417   -3.3533  -14.3102 O   0  0  0  0  0  0  0  0  0  0  0  0
   22.4442   -2.9651  -13.4955 O   0  0  0  0  0  0  0  0  0  0  0  0
  2  6  1  0
  2  1  1  6
  3  2  1  0
  4  3  1  0
  5  4  2  0
  6  7  2  0
  8  4  1  0
  9  6  1  0
 10  9  1  0
 10 11  1  6
 11 12  1  0
 13 17  1  0
 13 12  1  0
 14 13  2  0
 15 10  1  0
 16 15  2  0
 18 15  1  0
 19 20  1  1
 19 18  1  0
 20 21  1  0
 21 22  1  0
 22 26  1  0
 23 22  2  0
 24 19  1  0
 25 24  2  0
 27 24  1  0
M  END
$$$$
