DEE.pdb
     RDKit          3D

 27 26  0  0  1  0  0  0  0  0999 V2000
   24.8968  -12.8781  -18.4987 N   0  0  0  0  0  0  0  0  0  0  0  0
   24.4167  -12.6634  -17.1595 C   0  0  1  0  0  0  0  0  0  0  0  0
   25.5784  -12.1915  -16.3079 C   0  0  0  0  0  0  0  0  0  0  0  0
   26.5960  -13.2581  -16.1655 C   0  0  0  0  0  0  0  0  0  0  0  0
   27.7887  -13.0073  -16.3992 O   0  0  0  0  0  0  0  0  0  0  0  0
   23.3789  -11.6067  -17.1395 C   0  0  0  0  0  0  0  0  0  0  0  0
   23.4802  -10.6424  -17.9427 O   0  0  0  0  0  0  0  0  0  0  0  0
   26.2013  -14.5201  -15.7734 O   0  0  0  0  0  0  0  0  0  0  0  0
   22.3267  -11.7233  -16.2275 N   0  0  0  0  0  0  0  0  0  0  0  0
   21.2358  -10.7434  -16.2565 C   0  0  1  0  0  0  0  0  0  0  0  0
   19.9892  -11.3729  -15.7101 C   0  0  0  0  0  0  0  0  0  0  0  0
   18.8010  -10.4653  -15.6288 C   0  0  0  0  0  0  0  0  0  0  0  0
   17.5817  -11.1055  -15.0921 C   0  0  0  0  0  0  0  0  0  0  0  0
   16.7321  -11.7381  -15.7424 O   0  0  0  0  0  0  0  0  0  0  0  0
   21.6420   -9.5043  -15.5345 C   0  0  0  0  0  0  0  0  0  0  0  0
   22.3551   -9.6297  -14.5095 O   0  0  0  0  0  0  0  0  0  0  0  0
   17.3411  -10.9997  -13.7126 O   0  0  0  0  0  0  0  0  0  0  0  0
   21.2594   -8.2124  -15.9551 N   0  0  0  0  0  0  0  0  0  0  0  0
   21.7922   -7.0457  -15.2331 C   0  0  1  0  0  0  0  0  0  0  0  0
   21.7098   -5.8251  -16.0898 C   0  0  0  0  0  0  0  0  0  0  0  0
   22.2308   -4.6385  -15.3284 C   0  0  0  0  0  0  0  0  0  0  0  0
   22.1172   -3.3817  -16.1083 C   0  0  0  0  0  0  0  0  0  0  0  0
   21.8029   -3.4172  -17.3059 O   0  0  0  0  0  0  0  0  0  0  0  0
   21.0938   -6.9409  -13.9462 C   0  0  0  0  0  0  0  0  0  0  0  0
   19.8686   -7.2589  -13.8862 O   0  0  0  0  0  0  0  0  0  0  0  0
   22.3648   -2.1888  -15.4829 O   0  0  0  0  0  0  0  0  0  0  0  0
   21.6888   -6.5192  -12.7885 O   0  0  0  0  0  0  0  0  0  0  0  0
  2  6  1  0
  2  1  1  6
  3  2  1  0
  4  3  1  0
  5  4  2  0
  6  7  2  0
  8  4  1  0
  9  6  1  0
 10  9  1  0
 10 11  1  1
 11 12  1  0
 13 17  1  0
 13 12  1  0
 14 13  2  0
 15 10  1  0
 16 15  2  0
 18 15  1  0
 19 20  1  6
 19 18  1  0
 20 21  1  0
 21 22  1  0
 22 26  1  0
 23 22  2  0
 24 19  1  0
 25 24  2  0
 27 24  1  0
M  END
$$$$
