DEE.pdb
     RDKit          3D

 27 26  0  0  1  0  0  0  0  0999 V2000
   15.6718  -13.0805  -14.0088 N   0  0  0  0  0  0  0  0  0  0  0  0
   15.4413  -11.9375  -14.8517 C   0  0  1  0  0  0  0  0  0  0  0  0
   13.9960  -11.5104  -14.6889 C   0  0  0  0  0  0  0  0  0  0  0  0
   13.0986  -12.3645  -15.5005 C   0  0  0  0  0  0  0  0  0  0  0  0
   13.1362  -13.5979  -15.3689 O   0  0  0  0  0  0  0  0  0  0  0  0
   16.3002  -10.8030  -14.4402 C   0  0  0  0  0  0  0  0  0  0  0  0
   16.0194  -10.1834  -13.3807 O   0  0  0  0  0  0  0  0  0  0  0  0
   12.2305  -11.7737  -16.3946 O   0  0  0  0  0  0  0  0  0  0  0  0
   17.3901  -10.4656  -15.2468 N   0  0  0  0  0  0  0  0  0  0  0  0
   18.2652   -9.3576  -14.8495 C   0  0  1  0  0  0  0  0  0  0  0  0
   19.6566   -9.6239  -15.3413 C   0  0  0  0  0  0  0  0  0  0  0  0
   20.6512   -8.5422  -15.0535 C   0  0  0  0  0  0  0  0  0  0  0  0
   22.0245   -8.8406  -15.5110 C   0  0  0  0  0  0  0  0  0  0  0  0
   23.0003   -8.0718  -15.4700 O   0  0  0  0  0  0  0  0  0  0  0  0
   17.7021   -8.0638  -15.3297 C   0  0  0  0  0  0  0  0  0  0  0  0
   17.0874   -8.0615  -16.4237 O   0  0  0  0  0  0  0  0  0  0  0  0
   22.2721  -10.1141  -16.0486 O   0  0  0  0  0  0  0  0  0  0  0  0
   17.8330   -6.8570  -14.6092 N   0  0  0  0  0  0  0  0  0  0  0  0
   17.2478   -5.6292  -15.1717 C   0  0  1  0  0  0  0  0  0  0  0  0
   15.8343   -5.4736  -14.7155 C   0  0  0  0  0  0  0  0  0  0  0  0
   15.2773   -4.1768  -15.2327 C   0  0  0  0  0  0  0  0  0  0  0  0
   13.9543   -3.8622  -14.6402 C   0  0  0  0  0  0  0  0  0  0  0  0
   13.4917   -2.7160  -14.7206 O   0  0  0  0  0  0  0  0  0  0  0  0
   18.1284   -4.5033  -14.8377 C   0  0  0  0  0  0  0  0  0  0  0  0
   17.8713   -3.3601  -15.3201 O   0  0  0  0  0  0  0  0  0  0  0  0
   13.2583   -4.8569  -14.0064 O   0  0  0  0  0  0  0  0  0  0  0  0
   19.2236   -4.6079  -14.0243 O   0  0  0  0  0  0  0  0  0  0  0  0
  2  6  1  0
  2  1  1  1
  3  2  1  0
  4  3  1  0
  5  4  2  0
  6  7  2  0
  8  4  1  0
  9  6  1  0
 10  9  1  0
 10 11  1  6
 11 12  1  0
 13 17  1  0
 13 12  1  0
 14 13  2  0
 15 10  1  0
 16 15  2  0
 18 15  1  0
 19 20  1  1
 19 18  1  0
 20 21  1  0
 21 22  1  0
 22 26  1  0
 23 22  2  0
 24 19  1  0
 25 24  2  0
 27 24  1  0
M  END
$$$$
