DEE.pdb
     RDKit          3D

 27 26  0  0  1  0  0  0  0  0999 V2000
   14.6386  -12.4982  -14.1683 N   0  0  0  0  0  0  0  0  0  0  0  0
   15.5625  -12.1875  -13.1100 C   0  0  1  0  0  0  0  0  0  0  0  0
   16.9659  -12.4792  -13.6031 C   0  0  0  0  0  0  0  0  0  0  0  0
   17.1907  -13.9381  -13.7230 C   0  0  0  0  0  0  0  0  0  0  0  0
   16.2806  -14.7284  -13.4277 O   0  0  0  0  0  0  0  0  0  0  0  0
   15.4926  -10.7498  -12.7605 C   0  0  0  0  0  0  0  0  0  0  0  0
   15.4021   -9.9041  -13.6889 O   0  0  0  0  0  0  0  0  0  0  0  0
   18.4139  -14.3990  -14.1632 O   0  0  0  0  0  0  0  0  0  0  0  0
   15.5299  -10.3895  -11.4110 N   0  0  0  0  0  0  0  0  0  0  0  0
   15.3165   -8.9886  -11.0328 C   0  0  1  0  0  0  0  0  0  0  0  0
   14.2716   -8.9184   -9.9594 C   0  0  0  0  0  0  0  0  0  0  0  0
   14.0356   -7.5542   -9.3892 C   0  0  0  0  0  0  0  0  0  0  0  0
   13.0052   -7.5068   -8.3306 C   0  0  0  0  0  0  0  0  0  0  0  0
   12.7637   -6.5483   -7.5771 O   0  0  0  0  0  0  0  0  0  0  0  0
   16.6113   -8.3609  -10.6442 C   0  0  0  0  0  0  0  0  0  0  0  0
   17.2818   -8.9120   -9.7379 O   0  0  0  0  0  0  0  0  0  0  0  0
   12.2095   -8.6483   -8.1415 O   0  0  0  0  0  0  0  0  0  0  0  0
   17.1048   -7.1852  -11.2497 N   0  0  0  0  0  0  0  0  0  0  0  0
   18.4254   -6.6791  -10.8421 C   0  0  1  0  0  0  0  0  0  0  0  0
   19.3336   -6.5918  -12.0245 C   0  0  0  0  0  0  0  0  0  0  0  0
   20.6184   -5.9217  -11.6251 C   0  0  0  0  0  0  0  0  0  0  0  0
   21.5583   -5.7930  -12.7656 C   0  0  0  0  0  0  0  0  0  0  0  0
   21.2641   -6.2650  -13.8724 O   0  0  0  0  0  0  0  0  0  0  0  0
   18.2329   -5.4152  -10.1210 C   0  0  0  0  0  0  0  0  0  0  0  0
   19.1079   -5.0497   -9.2805 O   0  0  0  0  0  0  0  0  0  0  0  0
   22.7501   -5.1465  -12.5727 O   0  0  0  0  0  0  0  0  0  0  0  0
   17.1557   -4.5912  -10.3019 O   0  0  0  0  0  0  0  0  0  0  0  0
  2  6  1  0
  2  1  1  6
  3  2  1  0
  4  3  1  0
  5  4  2  0
  6  7  2  0
  8  4  1  0
  9  6  1  0
 10  9  1  0
 10 11  1  1
 11 12  1  0
 13 17  1  0
 13 12  1  0
 14 13  2  0
 15 10  1  0
 16 15  2  0
 18 15  1  0
 19 20  1  6
 19 18  1  0
 20 21  1  0
 21 22  1  0
 22 26  1  0
 23 22  2  0
 24 19  1  0
 25 24  2  0
 27 24  1  0
M  END
$$$$
