DEE.pdb
     RDKit          3D

 27 26  0  0  1  0  0  0  0  0999 V2000
   17.2872  -11.6108  -10.4682 N   0  0  0  0  0  0  0  0  0  0  0  0
   16.6553  -10.4774  -11.0896 C   0  0  1  0  0  0  0  0  0  0  0  0
   15.1534  -10.6551  -10.9875 C   0  0  0  0  0  0  0  0  0  0  0  0
   14.6948  -11.7733  -11.8435 C   0  0  0  0  0  0  0  0  0  0  0  0
   13.8853  -12.6005  -11.3957 O   0  0  0  0  0  0  0  0  0  0  0  0
   17.0146   -9.2261  -10.3829 C   0  0  0  0  0  0  0  0  0  0  0  0
   17.0641   -9.2334   -9.1249 O   0  0  0  0  0  0  0  0  0  0  0  0
   15.1764  -11.8793  -13.1315 O   0  0  0  0  0  0  0  0  0  0  0  0
   17.2848   -8.0854  -11.1433 N   0  0  0  0  0  0  0  0  0  0  0  0
   17.7520   -6.8669  -10.4738 C   0  0  1  0  0  0  0  0  0  0  0  0
   18.8613   -6.2547  -11.2760 C   0  0  0  0  0  0  0  0  0  0  0  0
   20.2266   -6.3821  -10.6747 C   0  0  0  0  0  0  0  0  0  0  0  0
   21.3105   -5.8057  -11.4979 C   0  0  0  0  0  0  0  0  0  0  0  0
   22.2979   -6.4114  -11.9485 O   0  0  0  0  0  0  0  0  0  0  0  0
   16.6073   -5.9417  -10.2388 C   0  0  0  0  0  0  0  0  0  0  0  0
   15.7818   -5.7813  -11.1702 O   0  0  0  0  0  0  0  0  0  0  0  0
   21.2356   -4.4393  -11.8132 O   0  0  0  0  0  0  0  0  0  0  0  0
   16.4199   -5.2484   -9.0237 N   0  0  0  0  0  0  0  0  0  0  0  0
   15.2473   -4.3700   -8.8829 C   0  0  1  0  0  0  0  0  0  0  0  0
   14.7481   -4.3950   -7.4755 C   0  0  0  0  0  0  0  0  0  0  0  0
   13.5501   -3.4959   -7.3494 C   0  0  0  0  0  0  0  0  0  0  0  0
   13.0537   -3.4207   -5.9535 C   0  0  0  0  0  0  0  0  0  0  0  0
   13.6531   -4.0130   -5.0457 O   0  0  0  0  0  0  0  0  0  0  0  0
   15.6059   -3.0377   -9.3837 C   0  0  0  0  0  0  0  0  0  0  0  0
   16.8209   -2.6788   -9.3551 O   0  0  0  0  0  0  0  0  0  0  0  0
   11.9269   -2.6886   -5.6892 O   0  0  0  0  0  0  0  0  0  0  0  0
   14.7012   -2.1451   -9.8904 O   0  0  0  0  0  0  0  0  0  0  0  0
  2  6  1  0
  2  1  1  1
  3  2  1  0
  4  3  1  0
  5  4  2  0
  6  7  2  0
  8  4  1  0
  9  6  1  0
 10  9  1  0
 10 11  1  6
 11 12  1  0
 13 17  1  0
 13 12  1  0
 14 13  2  0
 15 10  1  0
 16 15  2  0
 18 15  1  0
 19 20  1  1
 19 18  1  0
 20 21  1  0
 21 22  1  0
 22 26  1  0
 23 22  2  0
 24 19  1  0
 25 24  2  0
 27 24  1  0
M  END
$$$$
