DEE.pdb
     RDKit          3D

 27 26  0  0  1  0  0  0  0  0999 V2000
   24.3596  -34.3329  -10.5929 N   0  0  0  0  0  0  0  0  0  0  0  0
   25.4730  -34.5476   -9.7074 C   0  0  1  0  0  0  0  0  0  0  0  0
   26.1356  -33.2101   -9.4437 C   0  0  0  0  0  0  0  0  0  0  0  0
   25.1413  -32.2072   -8.9975 C   0  0  0  0  0  0  0  0  0  0  0  0
   25.4976  -31.0373   -8.7870 O   0  0  0  0  0  0  0  0  0  0  0  0
   25.0109  -35.0905   -8.4090 C   0  0  0  0  0  0  0  0  0  0  0  0
   23.7841  -35.0362   -8.1315 O   0  0  0  0  0  0  0  0  0  0  0  0
   23.8280  -32.5902   -8.8217 O   0  0  0  0  0  0  0  0  0  0  0  0
   25.9581  -35.6422   -7.5425 N   0  0  0  0  0  0  0  0  0  0  0  0
   25.5119  -36.2851   -6.3019 C   0  0  1  0  0  0  0  0  0  0  0  0
   26.5584  -37.2560   -5.8425 C   0  0  0  0  0  0  0  0  0  0  0  0
   26.2029  -38.0433   -4.6195 C   0  0  0  0  0  0  0  0  0  0  0  0
   26.0874  -39.4994   -4.8451 C   0  0  0  0  0  0  0  0  0  0  0  0
   26.7934  -40.1881   -5.6015 O   0  0  0  0  0  0  0  0  0  0  0  0
   25.1722  -35.2509   -5.2837 C   0  0  0  0  0  0  0  0  0  0  0  0
   25.9162  -34.2438   -5.1995 O   0  0  0  0  0  0  0  0  0  0  0  0
   25.0866  -40.1920   -4.1446 O   0  0  0  0  0  0  0  0  0  0  0  0
   24.0596  -35.3608   -4.4221 N   0  0  0  0  0  0  0  0  0  0  0  0
   23.7992  -34.2778   -3.4599 C   0  0  1  0  0  0  0  0  0  0  0  0
   22.3570  -34.2661   -3.0720 C   0  0  0  0  0  0  0  0  0  0  0  0
   22.0749  -33.0635   -2.2156 C   0  0  0  0  0  0  0  0  0  0  0  0
   20.6802  -33.0533   -1.7101 C   0  0  0  0  0  0  0  0  0  0  0  0
   19.8637  -33.8914   -2.1164 O   0  0  0  0  0  0  0  0  0  0  0  0
   24.7355  -34.4216   -2.3386 C   0  0  0  0  0  0  0  0  0  0  0  0
   25.1039  -35.5838   -1.9931 O   0  0  0  0  0  0  0  0  0  0  0  0
   20.3150  -32.1057   -0.7915 O   0  0  0  0  0  0  0  0  0  0  0  0
   25.2473  -33.3669   -1.6333 O   0  0  0  0  0  0  0  0  0  0  0  0
  2  6  1  0
  2  1  1  6
  3  2  1  0
  4  3  1  0
  5  4  2  0
  6  7  2  0
  8  4  1  0
  9  6  1  0
 10  9  1  0
 10 11  1  1
 11 12  1  0
 13 17  1  0
 13 12  1  0
 14 13  2  0
 15 10  1  0
 16 15  2  0
 18 15  1  0
 19 20  1  1
 19 18  1  0
 20 21  1  0
 21 22  1  0
 22 26  1  0
 23 22  2  0
 24 19  1  0
 25 24  2  0
 27 24  1  0
M  END
$$$$
