DEE.pdb
     RDKit          3D

 27 26  0  0  1  0  0  0  0  0999 V2000
   15.9151  -10.9252  -14.8145 N   0  0  0  0  0  0  0  0  0  0  0  0
   16.5319   -9.9714  -15.6977 C   0  0  1  0  0  0  0  0  0  0  0  0
   15.5759   -8.8103  -15.8860 C   0  0  0  0  0  0  0  0  0  0  0  0
   14.3030   -9.2672  -16.4897 C   0  0  0  0  0  0  0  0  0  0  0  0
   14.3199   -9.9107  -17.5506 O   0  0  0  0  0  0  0  0  0  0  0  0
   17.7809   -9.4409  -15.1039 C   0  0  0  0  0  0  0  0  0  0  0  0
   17.8091   -9.1973  -13.8689 O   0  0  0  0  0  0  0  0  0  0  0  0
   13.1121   -8.9693  -15.8609 O   0  0  0  0  0  0  0  0  0  0  0  0
   18.8802   -9.2317  -15.9407 N   0  0  0  0  0  0  0  0  0  0  0  0
   20.1250   -8.6998  -15.3761 C   0  0  1  0  0  0  0  0  0  0  0  0
   21.2779   -9.5400  -15.8385 C   0  0  0  0  0  0  0  0  0  0  0  0
   22.6269   -9.0734  -15.3865 C   0  0  0  0  0  0  0  0  0  0  0  0
   23.7527   -9.8898  -15.8872 C   0  0  0  0  0  0  0  0  0  0  0  0
   24.6282   -9.5269  -16.6913 O   0  0  0  0  0  0  0  0  0  0  0  0
   20.2661   -7.2561  -15.7189 C   0  0  0  0  0  0  0  0  0  0  0  0
   20.1767   -6.9286  -16.9270 O   0  0  0  0  0  0  0  0  0  0  0  0
   23.8615  -11.2096  -15.4198 O   0  0  0  0  0  0  0  0  0  0  0  0
   20.4934   -6.2571  -14.7480 N   0  0  0  0  0  0  0  0  0  0  0  0
   20.6191   -4.8580  -15.1874 C   0  0  1  0  0  0  0  0  0  0  0  0
   19.4455   -4.0614  -14.7197 C   0  0  0  0  0  0  0  0  0  0  0  0
   19.6026   -2.6305  -15.1526 C   0  0  0  0  0  0  0  0  0  0  0  0
   18.4569   -1.7900  -14.7264 C   0  0  0  0  0  0  0  0  0  0  0  0
   17.3752   -1.8601  -15.3257 O   0  0  0  0  0  0  0  0  0  0  0  0
   21.9226   -4.3500  -14.7430 C   0  0  0  0  0  0  0  0  0  0  0  0
   22.3586   -4.6945  -13.6041 O   0  0  0  0  0  0  0  0  0  0  0  0
   18.6170   -0.9403  -13.6645 O   0  0  0  0  0  0  0  0  0  0  0  0
   22.7115   -3.5188  -15.4904 O   0  0  0  0  0  0  0  0  0  0  0  0
  2  6  1  0
  2  1  1  1
  3  2  1  0
  4  3  1  0
  5  4  2  0
  6  7  2  0
  8  4  1  0
  9  6  1  0
 10  9  1  0
 10 11  1  6
 11 12  1  0
 13 17  1  0
 13 12  1  0
 14 13  2  0
 15 10  1  0
 16 15  2  0
 18 15  1  0
 19 20  1  1
 19 18  1  0
 20 21  1  0
 21 22  1  0
 22 26  1  0
 23 22  2  0
 24 19  1  0
 25 24  2  0
 27 24  1  0
M  END
$$$$
