DEE.pdb
     RDKit          3D

 27 26  0  0  1  0  0  0  0  0999 V2000
   15.0491  -12.6316  -13.9675 N   0  0  0  0  0  0  0  0  0  0  0  0
   15.2648  -11.5970  -14.9437 C   0  0  1  0  0  0  0  0  0  0  0  0
   13.9160  -11.0348  -15.3466 C   0  0  0  0  0  0  0  0  0  0  0  0
   13.2690  -11.8936  -16.3650 C   0  0  0  0  0  0  0  0  0  0  0  0
   13.9434  -12.7329  -16.9820 O   0  0  0  0  0  0  0  0  0  0  0  0
   16.0643  -10.4919  -14.3660 C   0  0  0  0  0  0  0  0  0  0  0  0
   15.6692   -9.9509  -13.3000 O   0  0  0  0  0  0  0  0  0  0  0  0
   11.9204  -11.7471  -16.6139 O   0  0  0  0  0  0  0  0  0  0  0  0
   17.2277  -10.0936  -15.0296 N   0  0  0  0  0  0  0  0  0  0  0  0
   17.9959   -8.9542  -14.5167 C   0  0  1  0  0  0  0  0  0  0  0  0
   19.4404   -9.1257  -14.8813 C   0  0  0  0  0  0  0  0  0  0  0  0
   20.3371   -7.9970  -14.4766 C   0  0  0  0  0  0  0  0  0  0  0  0
   21.7680   -8.2206  -14.7714 C   0  0  0  0  0  0  0  0  0  0  0  0
   22.6966   -7.4176  -14.5773 O   0  0  0  0  0  0  0  0  0  0  0  0
   17.4059   -7.6769  -15.0085 C   0  0  0  0  0  0  0  0  0  0  0  0
   17.0623   -7.6151  -16.2139 O   0  0  0  0  0  0  0  0  0  0  0  0
   22.1355   -9.4572  -15.3264 O   0  0  0  0  0  0  0  0  0  0  0  0
   17.2218   -6.5491  -14.1799 N   0  0  0  0  0  0  0  0  0  0  0  0
   16.5981   -5.3446  -14.7512 C   0  0  1  0  0  0  0  0  0  0  0  0
   15.5087   -4.8520  -13.8563 C   0  0  0  0  0  0  0  0  0  0  0  0
   14.9322   -3.5816  -14.4158 C   0  0  0  0  0  0  0  0  0  0  0  0
   13.9171   -2.9848  -13.5135 C   0  0  0  0  0  0  0  0  0  0  0  0
   13.3373   -1.9380  -13.8330 O   0  0  0  0  0  0  0  0  0  0  0  0
   17.6553   -4.3647  -15.0284 C   0  0  0  0  0  0  0  0  0  0  0  0
   18.7709   -4.4837  -14.4393 O   0  0  0  0  0  0  0  0  0  0  0  0
   13.6351   -3.6095  -12.3279 O   0  0  0  0  0  0  0  0  0  0  0  0
   17.5144   -3.3170  -15.8969 O   0  0  0  0  0  0  0  0  0  0  0  0
  2  6  1  0
  2  1  1  1
  3  2  1  0
  4  3  1  0
  5  4  2  0
  6  7  2  0
  8  4  1  0
  9  6  1  0
 10  9  1  0
 10 11  1  6
 11 12  1  0
 13 17  1  0
 13 12  1  0
 14 13  2  0
 15 10  1  0
 16 15  2  0
 18 15  1  0
 19 20  1  1
 19 18  1  0
 20 21  1  0
 21 22  1  0
 22 26  1  0
 23 22  2  0
 24 19  1  0
 25 24  2  0
 27 24  1  0
M  END
$$$$
