DEE.pdb
     RDKit          3D

 27 26  0  0  1  0  0  0  0  0999 V2000
   22.6355  -20.6767  -13.6994 N   0  0  0  0  0  0  0  0  0  0  0  0
   21.5053  -20.2117  -14.4587 C   0  0  1  0  0  0  0  0  0  0  0  0
   20.2467  -20.5080  -13.6677 C   0  0  0  0  0  0  0  0  0  0  0  0
   19.9766  -21.9638  -13.6314 C   0  0  0  0  0  0  0  0  0  0  0  0
   20.7532  -22.7491  -14.1970 O   0  0  0  0  0  0  0  0  0  0  0  0
   21.5800  -18.7465  -14.6631 C   0  0  0  0  0  0  0  0  0  0  0  0
   21.1575  -17.9854  -13.7535 O   0  0  0  0  0  0  0  0  0  0  0  0
   18.8607  -22.4272  -12.9662 O   0  0  0  0  0  0  0  0  0  0  0  0
   22.1180  -18.2673  -15.8603 N   0  0  0  0  0  0  0  0  0  0  0  0
   22.1767  -16.8208  -16.0961 C   0  0  1  0  0  0  0  0  0  0  0  0
   23.1073  -16.5421  -17.2385 C   0  0  0  0  0  0  0  0  0  0  0  0
   23.1853  -15.1075  -17.6603 C   0  0  0  0  0  0  0  0  0  0  0  0
   23.9813  -14.8752  -18.8838 C   0  0  0  0  0  0  0  0  0  0  0  0
   23.5688  -14.3949  -19.9534 O   0  0  0  0  0  0  0  0  0  0  0  0
   20.8030  -16.2803  -16.3026 C   0  0  0  0  0  0  0  0  0  0  0  0
   20.0333  -16.9107  -17.0674 O   0  0  0  0  0  0  0  0  0  0  0  0
   25.3409  -15.2253  -18.8552 O   0  0  0  0  0  0  0  0  0  0  0  0
   20.3420  -15.1013  -15.6782 N   0  0  0  0  0  0  0  0  0  0  0  0
   18.9860  -14.6198  -15.9875 C   0  0  1  0  0  0  0  0  0  0  0  0
   18.1140  -14.7178  -14.7789 C   0  0  0  0  0  0  0  0  0  0  0  0
   17.6457  -16.1359  -14.6086 C   0  0  0  0  0  0  0  0  0  0  0  0
   16.7410  -16.2883  -13.4429 C   0  0  0  0  0  0  0  0  0  0  0  0
   16.5447  -15.3348  -12.6771 O   0  0  0  0  0  0  0  0  0  0  0  0
   19.0940  -13.2722  -16.5592 C   0  0  0  0  0  0  0  0  0  0  0  0
   18.0341  -12.6546  -16.8770 O   0  0  0  0  0  0  0  0  0  0  0  0
   16.1307  -17.4958  -13.2308 O   0  0  0  0  0  0  0  0  0  0  0  0
   20.2820  -12.6276  -16.7716 O   0  0  0  0  0  0  0  0  0  0  0  0
  2  6  1  0
  2  1  1  1
  3  2  1  0
  4  3  1  0
  5  4  2  0
  6  7  2  0
  8  4  1  0
  9  6  1  0
 10  9  1  0
 10 11  1  6
 11 12  1  0
 13 17  1  0
 13 12  1  0
 14 13  2  0
 15 10  1  0
 16 15  2  0
 18 15  1  0
 19 20  1  1
 19 18  1  0
 20 21  1  0
 21 22  1  0
 22 26  1  0
 23 22  2  0
 24 19  1  0
 25 24  2  0
 27 24  1  0
M  END
$$$$
