DEE.pdb
     RDKit          3D

 27 26  0  0  1  0  0  0  0  0999 V2000
   19.7984  -11.4086  -15.5059 N   0  0  0  0  0  0  0  0  0  0  0  0
   19.5829  -10.1175  -16.1031 C   0  0  1  0  0  0  0  0  0  0  0  0
   18.1583   -9.6902  -15.8108 C   0  0  0  0  0  0  0  0  0  0  0  0
   17.1896  -10.6212  -16.4339 C   0  0  0  0  0  0  0  0  0  0  0  0
   16.3972  -11.2553  -15.7198 O   0  0  0  0  0  0  0  0  0  0  0  0
   20.4913   -9.1091  -15.5098 C   0  0  0  0  0  0  0  0  0  0  0  0
   20.5414   -9.0014  -14.2564 O   0  0  0  0  0  0  0  0  0  0  0  0
   17.1824  -10.7704  -17.8051 O   0  0  0  0  0  0  0  0  0  0  0  0
   21.2579   -8.3161  -16.3677 N   0  0  0  0  0  0  0  0  0  0  0  0
   22.2158   -7.3602  -15.8022 C   0  0  1  0  0  0  0  0  0  0  0  0
   23.5631   -7.5829  -16.4219 C   0  0  0  0  0  0  0  0  0  0  0  0
   24.2785   -8.8157  -15.9634 C   0  0  0  0  0  0  0  0  0  0  0  0
   25.5877   -9.0368  -16.6127 C   0  0  0  0  0  0  0  0  0  0  0  0
   26.1183   -8.3117  -17.4715 O   0  0  0  0  0  0  0  0  0  0  0  0
   21.7078   -5.9687  -15.9675 C   0  0  0  0  0  0  0  0  0  0  0  0
   21.1606   -5.6695  -17.0565 O   0  0  0  0  0  0  0  0  0  0  0  0
   26.3207  -10.1737  -16.2354 O   0  0  0  0  0  0  0  0  0  0  0  0
   21.8179   -4.9881  -14.9582 N   0  0  0  0  0  0  0  0  0  0  0  0
   21.0313   -3.7505  -15.0843 C   0  0  1  0  0  0  0  0  0  0  0  0
   19.5980   -4.0734  -15.3528 C   0  0  0  0  0  0  0  0  0  0  0  0
   18.8084   -2.8002  -15.4738 C   0  0  0  0  0  0  0  0  0  0  0  0
   17.3814   -3.0566  -15.7879 C   0  0  0  0  0  0  0  0  0  0  0  0
   16.7443   -3.9037  -15.1470 O   0  0  0  0  0  0  0  0  0  0  0  0
   21.2627   -2.9327  -13.8875 C   0  0  0  0  0  0  0  0  0  0  0  0
   21.7612   -3.4793  -12.8587 O   0  0  0  0  0  0  0  0  0  0  0  0
   16.7855   -2.3433  -16.7936 O   0  0  0  0  0  0  0  0  0  0  0  0
   20.9743   -1.5975  -13.8097 O   0  0  0  0  0  0  0  0  0  0  0  0
  2  6  1  0
  2  1  1  1
  3  2  1  0
  4  3  1  0
  5  4  2  0
  6  7  2  0
  8  4  1  0
  9  6  1  0
 10  9  1  0
 10 11  1  6
 11 12  1  0
 13 17  1  0
 13 12  1  0
 14 13  2  0
 15 10  1  0
 16 15  2  0
 18 15  1  0
 19 20  1  1
 19 18  1  0
 20 21  1  0
 21 22  1  0
 22 26  1  0
 23 22  2  0
 24 19  1  0
 25 24  2  0
 27 24  1  0
M  END
$$$$
