DEE.pdb
     RDKit          3D

 27 26  0  0  1  0  0  0  0  0999 V2000
   17.4557  -13.8850  -15.5506 N   0  0  0  0  0  0  0  0  0  0  0  0
   17.1585  -12.5276  -15.9236 C   0  0  1  0  0  0  0  0  0  0  0  0
   16.2790  -11.9208  -14.8485 C   0  0  0  0  0  0  0  0  0  0  0  0
   14.9746  -12.6186  -14.7775 C   0  0  0  0  0  0  0  0  0  0  0  0
   14.3332  -12.8338  -15.8178 O   0  0  0  0  0  0  0  0  0  0  0  0
   18.4000  -11.7237  -16.0034 C   0  0  0  0  0  0  0  0  0  0  0  0
   19.1360  -11.6425  -14.9850 O   0  0  0  0  0  0  0  0  0  0  0  0
   14.4897  -13.0207  -13.5505 O   0  0  0  0  0  0  0  0  0  0  0  0
   18.7049  -11.0863  -17.2089 N   0  0  0  0  0  0  0  0  0  0  0  0
   19.9492  -10.3183  -17.3236 C   0  0  1  0  0  0  0  0  0  0  0  0
   20.5922  -10.6108  -18.6464 C   0  0  0  0  0  0  0  0  0  0  0  0
   21.8195   -9.8081  -18.9486 C   0  0  0  0  0  0  0  0  0  0  0  0
   22.4423  -10.1161  -20.2532 C   0  0  0  0  0  0  0  0  0  0  0  0
   22.0446   -9.7395  -21.3689 O   0  0  0  0  0  0  0  0  0  0  0  0
   19.6781   -8.8695  -17.1015 C   0  0  0  0  0  0  0  0  0  0  0  0
   18.7075   -8.3546  -17.7079 O   0  0  0  0  0  0  0  0  0  0  0  0
   23.5993  -10.9120  -20.2535 O   0  0  0  0  0  0  0  0  0  0  0  0
   20.4622   -8.0659  -16.2460 N   0  0  0  0  0  0  0  0  0  0  0  0
   20.0470   -6.6748  -16.0035 C   0  0  1  0  0  0  0  0  0  0  0  0
   20.3466   -6.2837  -14.5936 C   0  0  0  0  0  0  0  0  0  0  0  0
   21.8301   -6.3409  -14.3589 C   0  0  0  0  0  0  0  0  0  0  0  0
   22.1902   -5.9605  -12.9709 C   0  0  0  0  0  0  0  0  0  0  0  0
   22.0332   -4.7947  -12.5832 O   0  0  0  0  0  0  0  0  0  0  0  0
   20.6708   -5.8227  -17.0230 C   0  0  0  0  0  0  0  0  0  0  0  0
   20.2805   -4.6229  -17.1413 O   0  0  0  0  0  0  0  0  0  0  0  0
   22.6965   -6.9169  -12.1317 O   0  0  0  0  0  0  0  0  0  0  0  0
   21.6639   -6.2441  -17.8646 O   0  0  0  0  0  0  0  0  0  0  0  0
  2  6  1  0
  2  1  1  1
  3  2  1  0
  4  3  1  0
  5  4  2  0
  6  7  2  0
  8  4  1  0
  9  6  1  0
 10  9  1  0
 10 11  1  6
 11 12  1  0
 13 17  1  0
 13 12  1  0
 14 13  2  0
 15 10  1  0
 16 15  2  0
 18 15  1  0
 19 20  1  1
 19 18  1  0
 20 21  1  0
 21 22  1  0
 22 26  1  0
 23 22  2  0
 24 19  1  0
 25 24  2  0
 27 24  1  0
M  END
$$$$
