DEE.pdb
     RDKit          3D

 27 26  0  0  1  0  0  0  0  0999 V2000
   16.4291   -8.0402  -19.0528 N   0  0  0  0  0  0  0  0  0  0  0  0
   16.5470   -6.8543  -18.2467 C   0  0  1  0  0  0  0  0  0  0  0  0
   15.1519   -6.3471  -17.9403 C   0  0  0  0  0  0  0  0  0  0  0  0
   14.5388   -5.7313  -19.1396 C   0  0  0  0  0  0  0  0  0  0  0  0
   15.2436   -5.0810  -19.9272 O   0  0  0  0  0  0  0  0  0  0  0  0
   17.2125   -7.1614  -16.9595 C   0  0  0  0  0  0  0  0  0  0  0  0
   16.9199   -6.4732  -15.9466 O   0  0  0  0  0  0  0  0  0  0  0  0
   13.1873   -5.8904  -19.3644 O   0  0  0  0  0  0  0  0  0  0  0  0
   18.1406   -8.2053  -16.9216 N   0  0  0  0  0  0  0  0  0  0  0  0
   18.8548   -8.4898  -15.6725 C   0  0  1  0  0  0  0  0  0  0  0  0
   19.1742   -9.9535  -15.6063 C   0  0  0  0  0  0  0  0  0  0  0  0
   17.9954  -10.8533  -15.3993 C   0  0  0  0  0  0  0  0  0  0  0  0
   18.3240  -12.2943  -15.3886 C   0  0  0  0  0  0  0  0  0  0  0  0
   18.9534  -12.9020  -14.5058 O   0  0  0  0  0  0  0  0  0  0  0  0
   20.0550   -7.6134  -15.5588 C   0  0  0  0  0  0  0  0  0  0  0  0
   20.7959   -7.4997  -16.5653 O   0  0  0  0  0  0  0  0  0  0  0  0
   17.8908  -13.0715  -16.4751 O   0  0  0  0  0  0  0  0  0  0  0  0
   20.3850   -6.9160  -14.3768 N   0  0  0  0  0  0  0  0  0  0  0  0
   21.6065   -6.0951  -14.3563 C   0  0  1  0  0  0  0  0  0  0  0  0
   21.4828   -4.9594  -15.3183 C   0  0  0  0  0  0  0  0  0  0  0  0
   20.4164   -4.0116  -14.8452 C   0  0  0  0  0  0  0  0  0  0  0  0
   20.3132   -2.8111  -15.7106 C   0  0  0  0  0  0  0  0  0  0  0  0
   19.2026   -2.3502  -16.0075 O   0  0  0  0  0  0  0  0  0  0  0  0
   21.8724   -5.6980  -12.9684 C   0  0  0  0  0  0  0  0  0  0  0  0
   22.9274   -5.0458  -12.7090 O   0  0  0  0  0  0  0  0  0  0  0  0
   21.4621   -2.2260  -16.1721 O   0  0  0  0  0  0  0  0  0  0  0  0
   21.0415   -5.9874  -11.9206 O   0  0  0  0  0  0  0  0  0  0  0  0
  2  6  1  0
  2  1  1  6
  3  2  1  0
  4  3  1  0
  5  4  2  0
  6  7  2  0
  8  4  1  0
  9  6  1  0
 10  9  1  0
 10 11  1  6
 11 12  1  0
 13 17  1  0
 13 12  1  0
 14 13  2  0
 15 10  1  0
 16 15  2  0
 18 15  1  0
 19 20  1  6
 19 18  1  0
 20 21  1  0
 21 22  1  0
 22 26  1  0
 23 22  2  0
 24 19  1  0
 25 24  2  0
 27 24  1  0
M  END
$$$$
