DEE.pdb
     RDKit          3D

 27 26  0  0  1  0  0  0  0  0999 V2000
   18.4593  -12.3271  -15.6362 N   0  0  0  0  0  0  0  0  0  0  0  0
   18.5693  -11.1123  -16.3992 C   0  0  1  0  0  0  0  0  0  0  0  0
   17.2798  -10.3318  -16.2389 C   0  0  0  0  0  0  0  0  0  0  0  0
   16.1624  -11.0095  -16.9356 C   0  0  0  0  0  0  0  0  0  0  0  0
   15.6608  -12.0333  -16.4455 O   0  0  0  0  0  0  0  0  0  0  0  0
   19.6765  -10.2721  -15.8873 C   0  0  0  0  0  0  0  0  0  0  0  0
   19.6770   -9.9450  -14.6714 O   0  0  0  0  0  0  0  0  0  0  0  0
   15.6936  -10.4904  -18.1243 O   0  0  0  0  0  0  0  0  0  0  0  0
   20.6783   -9.8755  -16.7770 N   0  0  0  0  0  0  0  0  0  0  0  0
   21.7661   -9.0148  -16.3005 C   0  0  1  0  0  0  0  0  0  0  0  0
   23.0037   -9.2905  -17.1013 C   0  0  0  0  0  0  0  0  0  0  0  0
   24.1936   -8.4560  -16.7414 C   0  0  0  0  0  0  0  0  0  0  0  0
   25.3677   -8.6611  -17.6155 C   0  0  0  0  0  0  0  0  0  0  0  0
   25.4737   -9.5012  -18.5253 O   0  0  0  0  0  0  0  0  0  0  0  0
   21.3409   -7.5866  -16.3356 C   0  0  0  0  0  0  0  0  0  0  0  0
   20.5839   -7.2227  -17.2679 O   0  0  0  0  0  0  0  0  0  0  0  0
   26.4849   -7.8345  -17.4138 O   0  0  0  0  0  0  0  0  0  0  0  0
   21.7526   -6.6410  -15.3719 N   0  0  0  0  0  0  0  0  0  0  0  0
   21.1118   -5.3160  -15.3610 C   0  0  1  0  0  0  0  0  0  0  0  0
   19.6316   -5.4582  -15.2223 C   0  0  0  0  0  0  0  0  0  0  0  0
   19.0014   -4.0972  -15.1223 C   0  0  0  0  0  0  0  0  0  0  0  0
   17.5447   -4.1353  -15.4001 C   0  0  0  0  0  0  0  0  0  0  0  0
   16.9566   -5.2211  -15.4966 O   0  0  0  0  0  0  0  0  0  0  0  0
   21.7509   -4.5029  -14.3193 C   0  0  0  0  0  0  0  0  0  0  0  0
   22.2349   -5.0815  -13.3011 O   0  0  0  0  0  0  0  0  0  0  0  0
   16.8668   -2.9545  -15.5468 O   0  0  0  0  0  0  0  0  0  0  0  0
   21.8632   -3.1406  -14.3778 O   0  0  0  0  0  0  0  0  0  0  0  0
  2  6  1  0
  2  1  1  1
  3  2  1  0
  4  3  1  0
  5  4  2  0
  6  7  2  0
  8  4  1  0
  9  6  1  0
 10  9  1  0
 10 11  1  6
 11 12  1  0
 13 17  1  0
 13 12  1  0
 14 13  2  0
 15 10  1  0
 16 15  2  0
 18 15  1  0
 19 20  1  1
 19 18  1  0
 20 21  1  0
 21 22  1  0
 22 26  1  0
 23 22  2  0
 24 19  1  0
 25 24  2  0
 27 24  1  0
M  END
$$$$
