DEE.pdb
     RDKit          3D

 27 26  0  0  1  0  0  0  0  0999 V2000
   19.1504  -12.6152  -17.3151 N   0  0  0  0  0  0  0  0  0  0  0  0
   19.6896  -11.3377  -17.6987 C   0  0  1  0  0  0  0  0  0  0  0  0
   18.5601  -10.3269  -17.7036 C   0  0  0  0  0  0  0  0  0  0  0  0
   17.5834  -10.6319  -18.7743 C   0  0  0  0  0  0  0  0  0  0  0  0
   17.9084  -11.3786  -19.7106 O   0  0  0  0  0  0  0  0  0  0  0  0
   20.7032  -10.8828  -16.7190 C   0  0  0  0  0  0  0  0  0  0  0  0
   20.4551  -11.0026  -15.4904 O   0  0  0  0  0  0  0  0  0  0  0  0
   16.3212  -10.0789  -18.7147 O   0  0  0  0  0  0  0  0  0  0  0  0
   21.8967  -10.3377  -17.1994 N   0  0  0  0  0  0  0  0  0  0  0  0
   22.8896   -9.8262  -16.2487 C   0  0  1  0  0  0  0  0  0  0  0  0
   24.2009  -10.5153  -16.4824 C   0  0  0  0  0  0  0  0  0  0  0  0
   25.3504   -9.9833  -15.6839 C   0  0  0  0  0  0  0  0  0  0  0  0
   26.6304  -10.6841  -15.9184 C   0  0  0  0  0  0  0  0  0  0  0  0
   27.7467  -10.3473  -15.4880 O   0  0  0  0  0  0  0  0  0  0  0  0
   22.9726   -8.3411  -16.3456 C   0  0  0  0  0  0  0  0  0  0  0  0
   23.2889   -7.8422  -17.4527 O   0  0  0  0  0  0  0  0  0  0  0  0
   26.6039  -11.8484  -16.7032 O   0  0  0  0  0  0  0  0  0  0  0  0
   22.7121   -7.4865  -15.2528 N   0  0  0  0  0  0  0  0  0  0  0  0
   22.7027   -6.0320  -15.4777 C   0  0  1  0  0  0  0  0  0  0  0  0
   21.6807   -5.6740  -16.5063 C   0  0  0  0  0  0  0  0  0  0  0  0
   20.3089   -5.7277  -15.8943 C   0  0  0  0  0  0  0  0  0  0  0  0
   19.2586   -5.2747  -16.8389 C   0  0  0  0  0  0  0  0  0  0  0  0
   18.4783   -4.3685  -16.5160 O   0  0  0  0  0  0  0  0  0  0  0  0
   22.5286   -5.3657  -14.1814 C   0  0  0  0  0  0  0  0  0  0  0  0
   22.2653   -6.0695  -13.1610 O   0  0  0  0  0  0  0  0  0  0  0  0
   19.1686   -5.8737  -18.0671 O   0  0  0  0  0  0  0  0  0  0  0  0
   22.6370   -4.0141  -13.9988 O   0  0  0  0  0  0  0  0  0  0  0  0
  2  6  1  0
  2  1  1  1
  3  2  1  0
  4  3  1  0
  5  4  2  0
  6  7  2  0
  8  4  1  0
  9  6  1  0
 10  9  1  0
 10 11  1  6
 11 12  1  0
 13 17  1  0
 13 12  1  0
 14 13  2  0
 15 10  1  0
 16 15  2  0
 18 15  1  0
 19 20  1  6
 19 18  1  0
 20 21  1  0
 21 22  1  0
 22 26  1  0
 23 22  2  0
 24 19  1  0
 25 24  2  0
 27 24  1  0
M  END
$$$$
