GTK.pdb
     RDKit          3D

 21 20  0  0  1  0  0  0  0  0999 V2000
   18.8706  -10.7821  -16.2937 N   0  0  0  0  0  0  0  0  0  0  0  0
   17.9940   -9.7190  -15.8577 C   0  0  0  0  0  0  0  0  0  0  0  0
   18.1801   -9.5656  -14.3908 C   0  0  0  0  0  0  0  0  0  0  0  0
   17.9239  -10.4988  -13.5705 O   0  0  0  0  0  0  0  0  0  0  0  0
   21.1741   -8.5458  -12.4406 C   0  0  0  0  0  0  0  0  0  0  0  0
   20.1042   -7.5345  -12.0890 C   0  0  1  0  0  0  0  0  0  0  0  0
   20.3210   -6.3854  -12.8266 O   0  0  0  0  0  0  0  0  0  0  0  0
   18.7226   -8.1270  -12.3985 C   0  0  2  0  0  0  0  0  0  0  0  0
   18.6630   -8.3477  -13.8074 N   0  0  0  0  0  0  0  0  0  0  0  0
   17.6723   -7.2115  -11.8987 C   0  0  0  0  0  0  0  0  0  0  0  0
   17.2106   -6.3251  -12.6550 O   0  0  0  0  0  0  0  0  0  0  0  0
   17.1781   -7.3145  -10.5865 N   0  0  0  0  0  0  0  0  0  0  0  0
   16.0913   -6.4645  -10.0714 C   0  0  1  0  0  0  0  0  0  0  0  0
   15.1121   -7.3963   -9.4517 C   0  0  0  0  0  0  0  0  0  0  0  0
   13.9223   -6.7938   -8.7995 C   0  0  0  0  0  0  0  0  0  0  0  0
   13.0618   -7.9751   -8.3233 C   0  0  0  0  0  0  0  0  0  0  0  0
   11.7821   -7.4865   -7.6934 C   0  0  0  0  0  0  0  0  0  0  0  0
   11.0172   -8.6627   -7.3219 N   0  0  0  0  0  0  0  0  0  0  0  0
   16.6041   -5.5421   -9.0288 C   0  0  0  0  0  0  0  0  0  0  0  0
   17.6494   -5.8745   -8.4156 O   0  0  0  0  0  0  0  0  0  0  0  0
   16.0178   -4.3493   -8.6855 O   0  0  0  0  0  0  0  0  0  0  0  0
  1  2  1  0
  2  3  1  0
  3  4  2  0
  6  5  1  6
  6  8  1  0
  7  6  1  0
  8 10  1  0
  9  3  1  0
  8  9  1  6
 10 12  1  0
 10 11  2  0
 12 13  1  0
 13 19  1  0
 13 14  1  1
 14 15  1  0
 15 16  1  0
 16 17  1  0
 17 18  1  0
 19 21  1  0
 20 19  2  0
M  END
$$$$
