GTK.pdb
     RDKit          3D

 21 20  0  0  1  0  0  0  0  0999 V2000
   15.8917  -14.5307  -14.1382 N   0  0  0  0  0  0  0  0  0  0  0  0
   15.9787  -14.3454  -15.5689 C   0  0  0  0  0  0  0  0  0  0  0  0
   17.2448  -13.6168  -15.8445 C   0  0  0  0  0  0  0  0  0  0  0  0
   18.0455  -13.2702  -14.9236 O   0  0  0  0  0  0  0  0  0  0  0  0
   20.5956  -12.1578  -19.1456 C   0  0  0  0  0  0  0  0  0  0  0  0
   19.2774  -12.8461  -18.8632 C   0  0  1  0  0  0  0  0  0  0  0  0
   19.4605  -14.2127  -18.9636 O   0  0  0  0  0  0  0  0  0  0  0  0
   18.7949  -12.4638  -17.4572 C   0  0  2  0  0  0  0  0  0  0  0  0
   17.6431  -13.2580  -17.1748 N   0  0  0  0  0  0  0  0  0  0  0  0
   18.5358  -11.0073  -17.4059 C   0  0  0  0  0  0  0  0  0  0  0  0
   17.5298  -10.5354  -17.9859 O   0  0  0  0  0  0  0  0  0  0  0  0
   19.3979  -10.1361  -16.7171 N   0  0  0  0  0  0  0  0  0  0  0  0
   19.1508   -8.6887  -16.6045 C   0  0  1  0  0  0  0  0  0  0  0  0
   20.1725   -8.1798  -15.6514 C   0  0  0  0  0  0  0  0  0  0  0  0
   20.1584   -6.7251  -15.3555 C   0  0  0  0  0  0  0  0  0  0  0  0
   21.2511   -6.5017  -14.2978 C   0  0  0  0  0  0  0  0  0  0  0  0
   21.3320   -5.0470  -13.9098 C   0  0  0  0  0  0  0  0  0  0  0  0
   22.2609   -4.9565  -12.7983 N   0  0  0  0  0  0  0  0  0  0  0  0
   19.3448   -8.0256  -17.9173 C   0  0  0  0  0  0  0  0  0  0  0  0
   20.1702   -8.5370  -18.7152 O   0  0  0  0  0  0  0  0  0  0  0  0
   18.6862   -6.8920  -18.3237 O   0  0  0  0  0  0  0  0  0  0  0  0
  1  2  1  0
  2  3  1  0
  3  4  2  0
  6  5  1  1
  6  8  1  0
  7  6  1  0
  8 10  1  0
  9  3  1  0
  8  9  1  6
 10 12  1  0
 10 11  2  0
 12 13  1  0
 13 19  1  0
 13 14  1  1
 14 15  1  0
 15 16  1  0
 16 17  1  0
 17 18  1  0
 19 21  1  0
 20 19  2  0
M  END
$$$$
