GTK.pdb
     RDKit          3D

 21 20  0  0  1  0  0  0  0  0999 V2000
   15.7564  -14.3992  -15.0355 N   0  0  0  0  0  0  0  0  0  0  0  0
   15.5360  -13.0052  -14.7241 C   0  0  0  0  0  0  0  0  0  0  0  0
   16.4853  -12.2123  -15.5488 C   0  0  0  0  0  0  0  0  0  0  0  0
   16.9351  -12.6289  -16.6594 O   0  0  0  0  0  0  0  0  0  0  0  0
   15.8986   -9.2080  -17.1741 C   0  0  0  0  0  0  0  0  0  0  0  0
   17.0901   -8.8477  -16.3129 C   0  0  1  0  0  0  0  0  0  0  0  0
   16.6387   -8.1853  -15.1865 O   0  0  0  0  0  0  0  0  0  0  0  0
   17.8436  -10.1276  -15.9259 C   0  0  2  0  0  0  0  0  0  0  0  0
   16.9547  -10.9204  -15.1394 N   0  0  0  0  0  0  0  0  0  0  0  0
   19.0946   -9.7671  -15.2213 C   0  0  0  0  0  0  0  0  0  0  0  0
   19.0750   -9.5708  -13.9836 O   0  0  0  0  0  0  0  0  0  0  0  0
   20.3116   -9.6391  -15.9136 N   0  0  0  0  0  0  0  0  0  0  0  0
   21.5940   -9.3809  -15.2372 C   0  0  1  0  0  0  0  0  0  0  0  0
   22.6318   -9.4642  -16.2988 C   0  0  0  0  0  0  0  0  0  0  0  0
   24.0374   -9.2099  -15.8941 C   0  0  0  0  0  0  0  0  0  0  0  0
   24.7914  -10.5251  -16.1481 C   0  0  0  0  0  0  0  0  0  0  0  0
   26.2164  -10.4277  -15.6654 C   0  0  0  0  0  0  0  0  0  0  0  0
   26.8810  -11.6569  -16.0574 N   0  0  0  0  0  0  0  0  0  0  0  0
   21.6084   -8.0159  -14.6563 C   0  0  0  0  0  0  0  0  0  0  0  0
   21.0525   -7.0963  -15.3080 O   0  0  0  0  0  0  0  0  0  0  0  0
   22.1859   -7.6849  -13.4559 O   0  0  0  0  0  0  0  0  0  0  0  0
  1  2  1  0
  2  3  1  0
  3  4  2  0
  6  5  1  6
  6  8  1  0
  7  6  1  0
  8 10  1  0
  9  3  1  0
  8  9  1  1
 10 12  1  0
 10 11  2  0
 12 13  1  0
 13 19  1  0
 13 14  1  6
 14 15  1  0
 15 16  1  0
 16 17  1  0
 17 18  1  0
 19 21  1  0
 20 19  2  0
M  END
$$$$
