GTK.pdb
     RDKit          3D

 21 20  0  0  1  0  0  0  0  0999 V2000
   13.0107  -11.5486  -14.2098 N   0  0  0  0  0  0  0  0  0  0  0  0
   13.1818  -10.1927  -13.7396 C   0  0  0  0  0  0  0  0  0  0  0  0
   14.3116   -9.5993  -14.5021 C   0  0  0  0  0  0  0  0  0  0  0  0
   14.6165   -9.9787  -15.6736 O   0  0  0  0  0  0  0  0  0  0  0  0
   14.3994   -6.1484  -15.3324 C   0  0  0  0  0  0  0  0  0  0  0  0
   15.7432   -6.3616  -14.6691 C   0  0  1  0  0  0  0  0  0  0  0  0
   15.6649   -5.9262  -13.3593 O   0  0  0  0  0  0  0  0  0  0  0  0
   16.1081   -7.8513  -14.7263 C   0  0  2  0  0  0  0  0  0  0  0  0
   15.1320   -8.5556  -13.9592 N   0  0  0  0  0  0  0  0  0  0  0  0
   17.4922   -8.0371  -14.2356 C   0  0  0  0  0  0  0  0  0  0  0  0
   17.6921   -8.2944  -13.0253 O   0  0  0  0  0  0  0  0  0  0  0  0
   18.5944   -7.9308  -15.1019 N   0  0  0  0  0  0  0  0  0  0  0  0
   19.9872   -8.0797  -14.6473 C   0  0  1  0  0  0  0  0  0  0  0  0
   20.6314   -9.0002  -15.6214 C   0  0  0  0  0  0  0  0  0  0  0  0
   22.0532   -9.3538  -15.3817 C   0  0  0  0  0  0  0  0  0  0  0  0
   22.4505  -10.2954  -16.5299 C   0  0  0  0  0  0  0  0  0  0  0  0
   23.8658  -10.7850  -16.3561 C   0  0  0  0  0  0  0  0  0  0  0  0
   24.0753  -11.8317  -17.3396 N   0  0  0  0  0  0  0  0  0  0  0  0
   20.6877   -6.7725  -14.6849 C   0  0  0  0  0  0  0  0  0  0  0  0
   20.2461   -5.8940  -15.4674 O   0  0  0  0  0  0  0  0  0  0  0  0
   21.7851   -6.4532  -13.9246 O   0  0  0  0  0  0  0  0  0  0  0  0
  1  2  1  0
  2  3  1  0
  3  4  2  0
  6  5  1  1
  6  8  1  0
  7  6  1  0
  8 10  1  0
  9  3  1  0
  8  9  1  1
 10 12  1  0
 10 11  2  0
 12 13  1  0
 13 19  1  0
 13 14  1  6
 14 15  1  0
 15 16  1  0
 16 17  1  0
 17 18  1  0
 19 21  1  0
 20 19  2  0
M  END
$$$$
