GTK.pdb
     RDKit          3D

 21 20  0  0  1  0  0  0  0  0999 V2000
   15.4699  -10.8874  -14.8607 N   0  0  0  0  0  0  0  0  0  0  0  0
   14.8208   -9.5987  -14.7795 C   0  0  0  0  0  0  0  0  0  0  0  0
   15.0866   -9.0542  -13.4220 C   0  0  0  0  0  0  0  0  0  0  0  0
   14.6282   -9.5944  -12.3696 O   0  0  0  0  0  0  0  0  0  0  0  0
   18.5052   -8.3075  -12.2215 C   0  0  0  0  0  0  0  0  0  0  0  0
   17.7151   -7.0489  -11.9340 C   0  0  1  0  0  0  0  0  0  0  0  0
   18.0005   -6.1134  -12.9112 O   0  0  0  0  0  0  0  0  0  0  0  0
   16.2167   -7.3809  -11.9199 C   0  0  2  0  0  0  0  0  0  0  0  0
   15.8815   -7.8785  -13.2150 N   0  0  0  0  0  0  0  0  0  0  0  0
   15.4500   -6.1752  -11.5333 C   0  0  0  0  0  0  0  0  0  0  0  0
   15.0643   -5.3752  -12.4178 O   0  0  0  0  0  0  0  0  0  0  0  0
   15.1429   -5.9054  -10.1881 N   0  0  0  0  0  0  0  0  0  0  0  0
   14.3836   -4.7174   -9.7630 C   0  0  1  0  0  0  0  0  0  0  0  0
   13.5054   -5.1774   -8.6547 C   0  0  0  0  0  0  0  0  0  0  0  0
   12.6748   -4.1502   -7.9771 C   0  0  0  0  0  0  0  0  0  0  0  0
   11.8634   -4.9036   -6.9109 C   0  0  0  0  0  0  0  0  0  0  0  0
   10.9155   -3.9709   -6.2005 C   0  0  0  0  0  0  0  0  0  0  0  0
   10.1541   -4.7750   -5.2624 N   0  0  0  0  0  0  0  0  0  0  0  0
   15.3015   -3.6722   -9.2474 C   0  0  0  0  0  0  0  0  0  0  0  0
   16.4060   -4.0434   -8.7768 O   0  0  0  0  0  0  0  0  0  0  0  0
   15.0306   -2.3265   -9.2479 O   0  0  0  0  0  0  0  0  0  0  0  0
  1  2  1  0
  2  3  1  0
  3  4  2  0
  6  5  1  6
  6  8  1  0
  7  6  1  0
  8 10  1  0
  9  3  1  0
  8  9  1  6
 10 12  1  0
 10 11  2  0
 12 13  1  0
 13 19  1  0
 13 14  1  1
 14 15  1  0
 15 16  1  0
 16 17  1  0
 17 18  1  0
 19 21  1  0
 20 19  2  0
M  END
$$$$
