GTK.pdb
     RDKit          3D

 21 20  0  0  1  0  0  0  0  0999 V2000
   20.4488  -14.8247  -16.6226 N   0  0  0  0  0  0  0  0  0  0  0  0
   19.9464  -13.6064  -17.2158 C   0  0  0  0  0  0  0  0  0  0  0  0
   20.1556  -12.5147  -16.2287 C   0  0  0  0  0  0  0  0  0  0  0  0
   19.5368  -12.4691  -15.1222 O   0  0  0  0  0  0  0  0  0  0  0  0
   23.1019  -11.4080  -14.4214 C   0  0  0  0  0  0  0  0  0  0  0  0
   22.6849  -10.1934  -15.2227 C   0  0  1  0  0  0  0  0  0  0  0  0
   23.4709  -10.1199  -16.3577 O   0  0  0  0  0  0  0  0  0  0  0  0
   21.2010  -10.3148  -15.5956 C   0  0  2  0  0  0  0  0  0  0  0  0
   21.0742  -11.4391  -16.4658 N   0  0  0  0  0  0  0  0  0  0  0  0
   20.7410   -9.0444  -16.2003 C   0  0  0  0  0  0  0  0  0  0  0  0
   20.8622   -8.8653  -17.4349 O   0  0  0  0  0  0  0  0  0  0  0  0
   20.1676   -8.0281  -15.4161 N   0  0  0  0  0  0  0  0  0  0  0  0
   19.7757   -6.7187  -15.9645 C   0  0  1  0  0  0  0  0  0  0  0  0
   18.2998   -6.6404  -15.8010 C   0  0  0  0  0  0  0  0  0  0  0  0
   17.4684   -7.3667  -16.7936 C   0  0  0  0  0  0  0  0  0  0  0  0
   16.1854   -7.7715  -16.0500 C   0  0  0  0  0  0  0  0  0  0  0  0
   15.2518   -8.5249  -16.9631 C   0  0  0  0  0  0  0  0  0  0  0  0
   14.1254   -8.9552  -16.1553 N   0  0  0  0  0  0  0  0  0  0  0  0
   20.4046   -5.6220  -15.1884 C   0  0  0  0  0  0  0  0  0  0  0  0
   20.9767   -5.9211  -14.1101 O   0  0  0  0  0  0  0  0  0  0  0  0
   20.4069   -4.3018  -15.5644 O   0  0  0  0  0  0  0  0  0  0  0  0
  1  2  1  0
  2  3  1  0
  3  4  2  0
  6  5  1  6
  6  8  1  0
  7  6  1  0
  8 10  1  0
  9  3  1  0
  8  9  1  6
 10 12  1  0
 10 11  2  0
 12 13  1  0
 13 19  1  0
 13 14  1  1
 14 15  1  0
 15 16  1  0
 16 17  1  0
 17 18  1  0
 19 21  1  0
 20 19  2  0
M  END
$$$$
