GTK.pdb
     RDKit          3D

 21 20  0  0  1  0  0  0  0  0999 V2000
   24.5008  -20.3510   -8.7315 N   0  0  0  0  0  0  0  0  0  0  0  0
   25.2181  -21.2036   -9.6521 C   0  0  0  0  0  0  0  0  0  0  0  0
   25.5749  -20.3764  -10.8347 C   0  0  0  0  0  0  0  0  0  0  0  0
   25.2869  -19.1436  -10.9155 O   0  0  0  0  0  0  0  0  0  0  0  0
   28.9668  -20.2052  -12.2855 C   0  0  0  0  0  0  0  0  0  0  0  0
   28.0721  -20.5011  -13.4701 C   0  0  1  0  0  0  0  0  0  0  0  0
   28.1875  -21.8414  -13.7889 O   0  0  0  0  0  0  0  0  0  0  0  0
   26.6215  -20.1501  -13.1121 C   0  0  2  0  0  0  0  0  0  0  0  0
   26.2704  -20.9221  -11.9641 N   0  0  0  0  0  0  0  0  0  0  0  0
   25.7517  -20.4028  -14.2829 C   0  0  0  0  0  0  0  0  0  0  0  0
   25.0795  -21.4591  -14.3399 O   0  0  0  0  0  0  0  0  0  0  0  0
   25.6622  -19.4789  -15.3389 N   0  0  0  0  0  0  0  0  0  0  0  0
   24.5120  -19.4213  -16.2568 C   0  0  1  0  0  0  0  0  0  0  0  0
   23.4121  -18.7867  -15.4830 C   0  0  0  0  0  0  0  0  0  0  0  0
   22.0238  -19.1825  -15.8293 C   0  0  0  0  0  0  0  0  0  0  0  0
   21.5468  -20.0868  -14.6814 C   0  0  0  0  0  0  0  0  0  0  0  0
   20.1848  -20.6597  -14.9811 C   0  0  0  0  0  0  0  0  0  0  0  0
   19.7660  -21.3946  -13.8017 N   0  0  0  0  0  0  0  0  0  0  0  0
   24.8273  -18.5708  -17.4307 C   0  0  0  0  0  0  0  0  0  0  0  0
   25.6909  -17.6694  -17.2857 O   0  0  0  0  0  0  0  0  0  0  0  0
   24.2427  -18.6983  -18.6661 O   0  0  0  0  0  0  0  0  0  0  0  0
  1  2  1  0
  2  3  1  0
  3  4  2  0
  6  5  1  1
  6  8  1  0
  7  6  1  0
  8 10  1  0
  9  3  1  0
  8  9  1  1
 10 12  1  0
 10 11  2  0
 12 13  1  0
 13 19  1  0
 13 14  1  1
 14 15  1  0
 15 16  1  0
 16 17  1  0
 17 18  1  0
 19 21  1  0
 20 19  2  0
M  END
$$$$
