GTK.pdb
     RDKit          3D

 21 20  0  0  1  0  0  0  0  0999 V2000
   29.3660  -22.8574  -16.2570 N   0  0  0  0  0  0  0  0  0  0  0  0
   28.4516  -21.9288  -16.8817 C   0  0  0  0  0  0  0  0  0  0  0  0
   27.4168  -21.5805  -15.8728 C   0  0  0  0  0  0  0  0  0  0  0  0
   27.3127  -22.1906  -14.7654 O   0  0  0  0  0  0  0  0  0  0  0  0
   26.8450  -18.0042  -14.8384 C   0  0  0  0  0  0  0  0  0  0  0  0
   25.4766  -18.5699  -15.1520 C   0  0  1  0  0  0  0  0  0  0  0  0
   25.0972  -18.1406  -16.4103 O   0  0  0  0  0  0  0  0  0  0  0  0
   25.5344  -20.1026  -15.0947 C   0  0  2  0  0  0  0  0  0  0  0  0
   26.4665  -20.5282  -16.0883 N   0  0  0  0  0  0  0  0  0  0  0  0
   24.1737  -20.6530  -15.2863 C   0  0  0  0  0  0  0  0  0  0  0  0
   23.7238  -20.8055  -16.4462 O   0  0  0  0  0  0  0  0  0  0  0  0
   23.3697  -21.0108  -14.1898 N   0  0  0  0  0  0  0  0  0  0  0  0
   21.9934  -21.5136  -14.3366 C   0  0  1  0  0  0  0  0  0  0  0  0
   21.5437  -21.8602  -12.9622 C   0  0  0  0  0  0  0  0  0  0  0  0
   20.1531  -22.3571  -12.8091 C   0  0  0  0  0  0  0  0  0  0  0  0
   19.9443  -22.5605  -11.2999 C   0  0  0  0  0  0  0  0  0  0  0  0
   18.5144  -22.9346  -11.0023 C   0  0  0  0  0  0  0  0  0  0  0  0
   18.4231  -23.1523   -9.5703 N   0  0  0  0  0  0  0  0  0  0  0  0
   21.1089  -20.4533  -14.8792 C   0  0  0  0  0  0  0  0  0  0  0  0
   20.1486  -20.8081  -15.6080 O   0  0  0  0  0  0  0  0  0  0  0  0
   21.2643  -19.1103  -14.6415 O   0  0  0  0  0  0  0  0  0  0  0  0
  1  2  1  0
  2  3  1  0
  3  4  2  0
  6  5  1  6
  6  8  1  0
  7  6  1  0
  8 10  1  0
  9  3  1  0
  8  9  1  6
 10 12  1  0
 10 11  2  0
 12 13  1  0
 13 19  1  0
 13 14  1  1
 14 15  1  0
 15 16  1  0
 16 17  1  0
 17 18  1  0
 19 21  1  0
 20 19  2  0
M  END
$$$$
