GTK.pdb
     RDKit          3D

 21 20  0  0  1  0  0  0  0  0999 V2000
   22.4129  -20.3818  -15.1177 N   0  0  0  0  0  0  0  0  0  0  0  0
   23.1425  -19.5659  -16.0614 C   0  0  0  0  0  0  0  0  0  0  0  0
   23.1268  -18.1717  -15.5457 C   0  0  0  0  0  0  0  0  0  0  0  0
   22.3058  -17.7821  -14.6605 O   0  0  0  0  0  0  0  0  0  0  0  0
   26.2989  -16.0595  -14.6368 C   0  0  0  0  0  0  0  0  0  0  0  0
   25.4521  -15.2895  -15.6273 C   0  0  1  0  0  0  0  0  0  0  0  0
   25.9921  -15.4486  -16.8900 O   0  0  0  0  0  0  0  0  0  0  0  0
   24.0110  -15.8159  -15.5818 C   0  0  2  0  0  0  0  0  0  0  0  0
   24.0429  -17.1745  -16.0181 N   0  0  0  0  0  0  0  0  0  0  0  0
   23.1449  -14.9486  -16.4117 C   0  0  0  0  0  0  0  0  0  0  0  0
   22.9177  -15.2584  -17.6048 O   0  0  0  0  0  0  0  0  0  0  0  0
   22.5678  -13.7781  -15.8886 N   0  0  0  0  0  0  0  0  0  0  0  0
   21.6767  -12.9058  -16.6720 C   0  0  1  0  0  0  0  0  0  0  0  0
   21.0751  -11.9626  -15.6924 C   0  0  0  0  0  0  0  0  0  0  0  0
   20.1418  -10.9376  -16.2236 C   0  0  0  0  0  0  0  0  0  0  0  0
   18.8581  -11.0659  -15.3878 C   0  0  0  0  0  0  0  0  0  0  0  0
   17.7635  -10.1946  -15.9496 C   0  0  0  0  0  0  0  0  0  0  0  0
   16.6553  -10.2512  -15.0141 N   0  0  0  0  0  0  0  0  0  0  0  0
   22.4547  -12.1316  -17.6700 C   0  0  0  0  0  0  0  0  0  0  0  0
   21.8469  -11.7067  -18.6845 O   0  0  0  0  0  0  0  0  0  0  0  0
   23.7930  -11.8453  -17.5644 O   0  0  0  0  0  0  0  0  0  0  0  0
  1  2  1  0
  2  3  1  0
  3  4  2  0
  6  5  1  1
  6  8  1  0
  7  6  1  0
  8 10  1  0
  9  3  1  0
  8  9  1  6
 10 12  1  0
 10 11  2  0
 12 13  1  0
 13 19  1  0
 13 14  1  1
 14 15  1  0
 15 16  1  0
 16 17  1  0
 17 18  1  0
 19 21  1  0
 20 19  2  0
M  END
$$$$
