GTK.pdb
     RDKit          3D

 21 20  0  0  1  0  0  0  0  0999 V2000
   21.9538  -23.6244  -15.1000 N   0  0  0  0  0  0  0  0  0  0  0  0
   23.2540  -24.0373  -14.6228 C   0  0  0  0  0  0  0  0  0  0  0  0
   23.9132  -24.7848  -15.7259 C   0  0  0  0  0  0  0  0  0  0  0  0
   23.2583  -25.3304  -16.6655 O   0  0  0  0  0  0  0  0  0  0  0  0
   26.0628  -23.6630  -18.2869 C   0  0  0  0  0  0  0  0  0  0  0  0
   26.9080  -24.6995  -17.5781 C   0  0  1  0  0  0  0  0  0  0  0  0
   27.7580  -24.0530  -16.7001 O   0  0  0  0  0  0  0  0  0  0  0  0
   25.9921  -25.6767  -16.8285 C   0  0  2  0  0  0  0  0  0  0  0  0
   25.3375  -24.9371  -15.7981 N   0  0  0  0  0  0  0  0  0  0  0  0
   26.7952  -26.8123  -16.3220 C   0  0  0  0  0  0  0  0  0  0  0  0
   27.2101  -26.8001  -15.1393 O   0  0  0  0  0  0  0  0  0  0  0  0
   27.1050  -27.9110  -17.1427 N   0  0  0  0  0  0  0  0  0  0  0  0
   27.9255  -29.0454  -16.6857 C   0  0  1  0  0  0  0  0  0  0  0  0
   27.1424  -30.2658  -17.0152 C   0  0  0  0  0  0  0  0  0  0  0  0
   27.7722  -31.5765  -16.7159 C   0  0  0  0  0  0  0  0  0  0  0  0
   26.9284  -32.2003  -15.5926 C   0  0  0  0  0  0  0  0  0  0  0  0
   27.4883  -33.5386  -15.1820 C   0  0  0  0  0  0  0  0  0  0  0  0
   26.5871  -34.0864  -14.1848 N   0  0  0  0  0  0  0  0  0  0  0  0
   29.2120  -29.0854  -17.4234 C   0  0  0  0  0  0  0  0  0  0  0  0
   30.0741  -29.9208  -17.0520 O   0  0  0  0  0  0  0  0  0  0  0  0
   29.5285  -28.2742  -18.4845 O   0  0  0  0  0  0  0  0  0  0  0  0
  1  2  1  0
  2  3  1  0
  3  4  2  0
  6  5  1  1
  6  8  1  0
  7  6  1  0
  8 10  1  0
  9  3  1  0
  8  9  1  1
 10 12  1  0
 10 11  2  0
 12 13  1  0
 13 19  1  0
 13 14  1  6
 14 15  1  0
 15 16  1  0
 16 17  1  0
 17 18  1  0
 19 21  1  0
 20 19  2  0
M  END
$$$$
