QKL.pdb
     RDKit          3D

 27 26  0  0  1  0  0  0  0  0999 V2000
   27.7971  -30.5998  -16.4613 N   0  0  0  0  0  0  0  0  0  0  0  0
   28.3057  -31.9055  -16.1365 C   0  0  0  0  0  0  0  0  0  0  0  0
   29.5059  -32.1152  -16.3387 O   0  0  0  0  0  0  0  0  0  0  0  0
   27.4194  -32.9324  -15.5937 C   0  0  0  0  0  0  0  0  0  0  0  0
   26.0320  -32.5046  -15.3361 C   0  0  0  0  0  0  0  0  0  0  0  0
   24.9988  -33.0312  -16.2639 C   0  0  2  0  0  0  0  0  0  0  0  0
   25.1351  -32.4942  -17.5865 N   0  0  0  0  0  0  0  0  0  0  0  0
   23.6347  -32.7710  -15.7122 C   0  0  0  0  0  0  0  0  0  0  0  0
   23.1498  -31.6252  -15.9239 O   0  0  0  0  0  0  0  0  0  0  0  0
   22.8727  -33.6919  -14.9901 N   0  0  0  0  0  0  0  0  0  0  0  0
   21.4532  -33.3747  -14.5564 C   0  0  1  0  0  0  0  0  0  0  0  0
   20.6766  -34.4344  -15.1924 C   0  0  0  0  0  0  0  0  0  0  0  0
   19.4302  -34.2958  -15.9114 C   0  0  0  0  0  0  0  0  0  0  0  0
   18.9656  -32.9495  -16.3540 C   0  0  0  0  0  0  0  0  0  0  0  0
   17.6168  -32.9970  -17.0429 C   0  0  0  0  0  0  0  0  0  0  0  0
   17.1809  -31.6664  -17.4353 N   0  0  0  0  0  0  0  0  0  0  0  0
   21.5570  -33.2699  -13.1143 C   0  0  0  0  0  0  0  0  0  0  0  0
   22.5434  -33.6900  -12.4865 O   0  0  0  0  0  0  0  0  0  0  0  0
   22.8163  -31.8657   -8.5602 C   0  0  0  0  0  0  0  0  0  0  0  0
   22.6341  -31.1883   -9.8576 C   0  0  2  0  0  0  0  0  0  0  0  0
   23.0434  -29.6993   -9.6590 C   0  0  0  0  0  0  0  0  0  0  0  0
   21.3503  -31.2413  -10.5606 C   0  0  0  0  0  0  0  0  0  0  0  0
   20.7224  -32.5339  -10.8310 C   0  0  2  0  0  0  0  0  0  0  0  0
   20.5386  -32.6797  -12.3184 N   0  0  0  0  0  0  0  0  0  0  0  0
   19.4223  -32.7789  -10.2067 C   0  0  0  0  0  0  0  0  0  0  0  0
   19.3479  -33.4456   -8.9412 O   0  0  0  0  0  0  0  0  0  0  0  0
   18.2952  -32.4709  -10.6458 O   0  0  0  0  0  0  0  0  0  0  0  0
  1  2  1  0
  2  4  1  0
  2  3  2  0
  4  5  1  0
  5  6  1  0
  6  7  1  6
  6  8  1  0
  8  9  2  0
 10  8  1  0
 10 11  1  0
 11 12  1  1
 13 12  1  0
 14 15  1  0
 14 13  1  0
 16 15  1  0
 17 24  1  0
 17 11  1  0
 18 17  2  0
 20 19  1  1
 20 22  1  0
 21 20  1  0
 23 22  1  6
 23 25  1  0
 23 24  1  0
 25 26  1  0
 27 25  2  0
M  END
$$$$
