QKL.pdb
     RDKit          3D

 27 26  0  0  1  0  0  0  0  0999 V2000
   27.0017  -12.0070  -15.3139 N   0  0  0  0  0  0  0  0  0  0  0  0
   27.6635  -12.4458  -16.5132 C   0  0  0  0  0  0  0  0  0  0  0  0
   28.6187  -13.2182  -16.3860 O   0  0  0  0  0  0  0  0  0  0  0  0
   27.2111  -11.9802  -17.8222 C   0  0  0  0  0  0  0  0  0  0  0  0
   26.0367  -11.0889  -17.8100 C   0  0  0  0  0  0  0  0  0  0  0  0
   24.7082  -11.7524  -17.7830 C   0  0  2  0  0  0  0  0  0  0  0  0
   24.4792  -12.5521  -18.9510 N   0  0  0  0  0  0  0  0  0  0  0  0
   23.6302  -10.7330  -17.6054 C   0  0  0  0  0  0  0  0  0  0  0  0
   23.4019   -9.9762  -18.5892 O   0  0  0  0  0  0  0  0  0  0  0  0
   22.8715  -10.5623  -16.4455 N   0  0  0  0  0  0  0  0  0  0  0  0
   21.7265   -9.5674  -16.3902 C   0  0  1  0  0  0  0  0  0  0  0  0
   20.7101  -10.2866  -15.6285 C   0  0  0  0  0  0  0  0  0  0  0  0
   19.6527  -11.1227  -16.1505 C   0  0  0  0  0  0  0  0  0  0  0  0
   18.6665  -11.7500  -15.2241 C   0  0  0  0  0  0  0  0  0  0  0  0
   17.5575  -12.4752  -15.9592 C   0  0  0  0  0  0  0  0  0  0  0  0
   16.6032  -13.0558  -15.0284 N   0  0  0  0  0  0  0  0  0  0  0  0
   22.3504   -8.3637  -15.8771 C   0  0  0  0  0  0  0  0  0  0  0  0
   23.2956   -8.3965  -15.0713 O   0  0  0  0  0  0  0  0  0  0  0  0
   22.8947   -2.6597  -15.6688 C   0  0  0  0  0  0  0  0  0  0  0  0
   23.6566   -3.6873  -16.4029 C   0  0  2  0  0  0  0  0  0  0  0  0
   24.1710   -3.0266  -17.7155 C   0  0  0  0  0  0  0  0  0  0  0  0
   23.0554   -4.9837  -16.7243 C   0  0  0  0  0  0  0  0  0  0  0  0
   22.5620   -5.8428  -15.6489 C   0  0  2  0  0  0  0  0  0  0  0  0
   21.9251   -7.0631  -16.2595 N   0  0  0  0  0  0  0  0  0  0  0  0
   21.5851   -5.2560  -14.7316 C   0  0  0  0  0  0  0  0  0  0  0  0
   22.0272   -4.5746  -13.5519 O   0  0  0  0  0  0  0  0  0  0  0  0
   20.3412   -5.2636  -14.8351 O   0  0  0  0  0  0  0  0  0  0  0  0
  1  2  1  0
  2  4  1  0
  2  3  2  0
  4  5  1  0
  5  6  1  0
  6  7  1  6
  6  8  1  0
  8  9  2  0
 10  8  1  0
 10 11  1  0
 11 12  1  1
 13 12  1  0
 14 15  1  0
 14 13  1  0
 16 15  1  0
 17 24  1  0
 17 11  1  0
 18 17  2  0
 20 19  1  6
 20 22  1  0
 21 20  1  0
 23 22  1  6
 23 25  1  0
 23 24  1  0
 25 26  1  0
 27 25  2  0
M  END
$$$$
