QKL.pdb
     RDKit          3D

 27 26  0  0  1  0  0  0  0  0999 V2000
   25.9427  -25.8255  -15.8885 N   0  0  0  0  0  0  0  0  0  0  0  0
   26.8536  -26.1245  -16.9606 C   0  0  0  0  0  0  0  0  0  0  0  0
   27.1953  -27.3026  -17.1052 O   0  0  0  0  0  0  0  0  0  0  0  0
   27.3484  -25.0608  -17.8314 C   0  0  0  0  0  0  0  0  0  0  0  0
   26.7880  -23.7203  -17.5805 C   0  0  0  0  0  0  0  0  0  0  0  0
   27.7699  -22.6213  -17.3961 C   0  0  2  0  0  0  0  0  0  0  0  0
   29.0726  -23.1119  -17.0518 N   0  0  0  0  0  0  0  0  0  0  0  0
   27.2688  -21.6531  -16.3742 C   0  0  0  0  0  0  0  0  0  0  0  0
   28.1432  -21.0426  -15.6991 O   0  0  0  0  0  0  0  0  0  0  0  0
   25.9230  -21.3822  -16.1183 N   0  0  0  0  0  0  0  0  0  0  0  0
   25.5036  -20.1925  -15.2743 C   0  0  1  0  0  0  0  0  0  0  0  0
   24.4638  -19.5697  -16.0877 C   0  0  0  0  0  0  0  0  0  0  0  0
   23.5664  -18.5057  -15.6977 C   0  0  0  0  0  0  0  0  0  0  0  0
   22.5340  -18.0080  -16.6521 C   0  0  0  0  0  0  0  0  0  0  0  0
   21.7255  -16.8579  -16.0868 C   0  0  0  0  0  0  0  0  0  0  0  0
   20.6758  -16.4519  -17.0077 N   0  0  0  0  0  0  0  0  0  0  0  0
   25.2072  -20.7825  -13.9838 C   0  0  0  0  0  0  0  0  0  0  0  0
   24.7739  -21.9410  -13.8663 O   0  0  0  0  0  0  0  0  0  0  0  0
   24.4986  -20.5854   -8.3232 C   0  0  0  0  0  0  0  0  0  0  0  0
   25.7820  -20.7084   -9.0396 C   0  0  2  0  0  0  0  0  0  0  0  0
   26.8690  -20.0337   -8.1522 C   0  0  0  0  0  0  0  0  0  0  0  0
   25.9243  -20.2294  -10.4163 C   0  0  0  0  0  0  0  0  0  0  0  0
   25.0126  -20.7131  -11.4522 C   0  0  2  0  0  0  0  0  0  0  0  0
   25.3914  -20.0778  -12.7638 N   0  0  0  0  0  0  0  0  0  0  0  0
   23.5863  -20.4632  -11.2444 C   0  0  0  0  0  0  0  0  0  0  0  0
   22.7299  -21.5205  -10.7969 O   0  0  0  0  0  0  0  0  0  0  0  0
   22.9674  -19.3922  -11.4115 O   0  0  0  0  0  0  0  0  0  0  0  0
  1  2  1  0
  2  4  1  0
  2  3  2  0
  4  5  1  0
  5  6  1  0
  6  7  1  1
  6  8  1  0
  8  9  2  0
 10  8  1  0
 10 11  1  0
 11 12  1  6
 13 12  1  0
 14 15  1  0
 14 13  1  0
 16 15  1  0
 17 24  1  0
 17 11  1  0
 18 17  2  0
 20 19  1  1
 20 22  1  0
 21 20  1  0
 23 22  1  1
 23 25  1  0
 23 24  1  0
 25 26  1  0
 27 25  2  0
M  END
$$$$
