QKL.pdb
     RDKit          3D

 27 26  0  0  1  0  0  0  0  0999 V2000
   25.1685  -20.6358  -19.2726 N   0  0  0  0  0  0  0  0  0  0  0  0
   25.3284  -19.2135  -19.4146 C   0  0  0  0  0  0  0  0  0  0  0  0
   25.0601  -18.7175  -20.5134 O   0  0  0  0  0  0  0  0  0  0  0  0
   25.7964  -18.4043  -18.2916 C   0  0  0  0  0  0  0  0  0  0  0  0
   26.0947  -19.1464  -17.0529 C   0  0  0  0  0  0  0  0  0  0  0  0
   27.5170  -19.1674  -16.6257 C   0  0  2  0  0  0  0  0  0  0  0  0
   28.3775  -19.7100  -17.6363 N   0  0  0  0  0  0  0  0  0  0  0  0
   27.6543  -19.9155  -15.3395 C   0  0  0  0  0  0  0  0  0  0  0  0
   27.1344  -21.0648  -15.2971 O   0  0  0  0  0  0  0  0  0  0  0  0
   28.3061  -19.4387  -14.2002 N   0  0  0  0  0  0  0  0  0  0  0  0
   28.4060  -20.2767  -12.9387 C   0  0  1  0  0  0  0  0  0  0  0  0
   29.7045  -19.8899  -12.3957 C   0  0  0  0  0  0  0  0  0  0  0  0
   30.9927  -20.4635  -12.7134 C   0  0  0  0  0  0  0  0  0  0  0  0
   31.2666  -21.9000  -12.4205 C   0  0  0  0  0  0  0  0  0  0  0  0
   32.6939  -22.2968  -12.7390 C   0  0  0  0  0  0  0  0  0  0  0  0
   32.9220  -23.7052  -12.4584 N   0  0  0  0  0  0  0  0  0  0  0  0
   27.1713  -19.9809  -12.2390 C   0  0  0  0  0  0  0  0  0  0  0  0
   26.8703  -18.8304  -11.8793 O   0  0  0  0  0  0  0  0  0  0  0  0
   22.6702  -19.7013  -13.0614 C   0  0  0  0  0  0  0  0  0  0  0  0
   23.2592  -21.0383  -12.8597 C   0  0  2  0  0  0  0  0  0  0  0  0
   22.1612  -22.0821  -13.2187 C   0  0  0  0  0  0  0  0  0  0  0  0
   23.8686  -21.4069  -11.5799 C   0  0  0  0  0  0  0  0  0  0  0  0
   25.0150  -20.6517  -11.0763 C   0  0  2  0  0  0  0  0  0  0  0  0
   26.2196  -20.9852  -11.9159 N   0  0  0  0  0  0  0  0  0  0  0  0
   25.3860  -20.8704   -9.6783 C   0  0  0  0  0  0  0  0  0  0  0  0
   24.6448  -20.2339   -8.6308 O   0  0  0  0  0  0  0  0  0  0  0  0
   26.3154  -21.5775   -9.2374 O   0  0  0  0  0  0  0  0  0  0  0  0
  1  2  1  0
  2  4  1  0
  2  3  2  0
  4  5  1  0
  5  6  1  0
  6  7  1  6
  6  8  1  0
  8  9  2  0
 10  8  1  0
 10 11  1  0
 11 12  1  1
 13 12  1  0
 14 15  1  0
 14 13  1  0
 16 15  1  0
 17 24  1  0
 17 11  1  0
 18 17  2  0
 20 19  1  1
 20 22  1  0
 21 20  1  0
 23 22  1  6
 23 25  1  0
 23 24  1  0
 25 26  1  0
 27 25  2  0
M  END
$$$$
