QKL.pdb
     RDKit          3D

 27 26  0  0  1  0  0  0  0  0999 V2000
   29.0033  -21.7553  -15.8415 N   0  0  0  0  0  0  0  0  0  0  0  0
   29.5280  -20.5896  -16.5008 C   0  0  0  0  0  0  0  0  0  0  0  0
   30.2944  -20.7705  -17.4522 O   0  0  0  0  0  0  0  0  0  0  0  0
   29.1604  -19.2513  -16.0442 C   0  0  0  0  0  0  0  0  0  0  0  0
   28.2276  -19.2016  -14.9035 C   0  0  0  0  0  0  0  0  0  0  0  0
   26.8253  -19.6029  -15.1832 C   0  0  2  0  0  0  0  0  0  0  0  0
   26.2350  -18.8156  -16.2262 N   0  0  0  0  0  0  0  0  0  0  0  0
   26.0140  -19.5363  -13.9301 C   0  0  0  0  0  0  0  0  0  0  0  0
   25.6832  -18.3850  -13.5328 O   0  0  0  0  0  0  0  0  0  0  0  0
   25.6042  -20.6411  -13.1806 N   0  0  0  0  0  0  0  0  0  0  0  0
   24.5990  -20.5008  -12.0520 C   0  0  1  0  0  0  0  0  0  0  0  0
   23.4452  -21.2411  -12.5530 C   0  0  0  0  0  0  0  0  0  0  0  0
   22.2029  -21.5003  -11.8609 C   0  0  0  0  0  0  0  0  0  0  0  0
   20.9727  -20.7357  -12.2166 C   0  0  0  0  0  0  0  0  0  0  0  0
   19.7688  -21.1576  -11.3989 C   0  0  0  0  0  0  0  0  0  0  0  0
   18.6221  -20.3076  -11.6763 N   0  0  0  0  0  0  0  0  0  0  0  0
   25.3377  -20.9433  -10.8858 C   0  0  0  0  0  0  0  0  0  0  0  0
   26.0672  -21.9489  -10.9032 O   0  0  0  0  0  0  0  0  0  0  0  0
   28.8886  -20.7087   -7.5895 C   0  0  0  0  0  0  0  0  0  0  0  0
   27.8948  -19.6318   -7.7564 C   0  0  2  0  0  0  0  0  0  0  0  0
   28.3219  -18.4642   -6.8191 C   0  0  0  0  0  0  0  0  0  0  0  0
   26.4651  -19.8922   -7.5741 C   0  0  0  0  0  0  0  0  0  0  0  0
   25.8016  -20.9092   -8.3888 C   0  0  2  0  0  0  0  0  0  0  0  0
   25.2793  -20.2585   -9.6423 N   0  0  0  0  0  0  0  0  0  0  0  0
   24.6836  -21.6226   -7.7715 C   0  0  0  0  0  0  0  0  0  0  0  0
   23.3471  -21.4032   -8.2375 O   0  0  0  0  0  0  0  0  0  0  0  0
   24.7288  -22.4485   -6.8368 O   0  0  0  0  0  0  0  0  0  0  0  0
  1  2  1  0
  2  4  1  0
  2  3  2  0
  4  5  1  0
  5  6  1  0
  6  7  1  6
  6  8  1  0
  8  9  2  0
 10  8  1  0
 10 11  1  0
 11 12  1  6
 13 12  1  0
 14 15  1  0
 14 13  1  0
 16 15  1  0
 17 24  1  0
 17 11  1  0
 18 17  2  0
 20 19  1  1
 20 22  1  0
 21 20  1  0
 23 22  1  1
 23 25  1  0
 23 24  1  0
 25 26  1  0
 27 25  2  0
M  END
$$$$
