QKL.pdb
     RDKit          3D

 27 26  0  0  1  0  0  0  0  0999 V2000
   30.0603  -23.0403  -15.5289 N   0  0  0  0  0  0  0  0  0  0  0  0
   30.0396  -22.3049  -16.7648 C   0  0  0  0  0  0  0  0  0  0  0  0
   30.6755  -22.7713  -17.7153 O   0  0  0  0  0  0  0  0  0  0  0  0
   29.2929  -21.0535  -16.8704 C   0  0  0  0  0  0  0  0  0  0  0  0
   28.5918  -20.6252  -15.6460 C   0  0  0  0  0  0  0  0  0  0  0  0
   27.4837  -21.4989  -15.1833 C   0  0  2  0  0  0  0  0  0  0  0  0
   26.5223  -21.7472  -16.2179 N   0  0  0  0  0  0  0  0  0  0  0  0
   26.8360  -20.9074  -13.9736 C   0  0  0  0  0  0  0  0  0  0  0  0
   27.3396  -19.8385  -13.5300 O   0  0  0  0  0  0  0  0  0  0  0  0
   25.7315  -21.4467  -13.3108 N   0  0  0  0  0  0  0  0  0  0  0  0
   24.9984  -20.6672  -12.2344 C   0  0  1  0  0  0  0  0  0  0  0  0
   23.5981  -20.9713  -12.5120 C   0  0  0  0  0  0  0  0  0  0  0  0
   22.5921  -20.0712  -13.0289 C   0  0  0  0  0  0  0  0  0  0  0  0
   21.2046  -20.5594  -13.2755 C   0  0  0  0  0  0  0  0  0  0  0  0
   20.3330  -19.5192  -13.9495 C   0  0  0  0  0  0  0  0  0  0  0  0
   19.0148  -20.0542  -14.2503 N   0  0  0  0  0  0  0  0  0  0  0  0
   25.6411  -21.0990  -11.0088 C   0  0  0  0  0  0  0  0  0  0  0  0
   26.0396  -22.2639  -10.8420 O   0  0  0  0  0  0  0  0  0  0  0  0
   27.2750  -20.2321   -5.5761 C   0  0  0  0  0  0  0  0  0  0  0  0
   28.0591  -20.1117   -6.8194 C   0  0  2  0  0  0  0  0  0  0  0  0
   29.1546  -19.0343   -6.5682 C   0  0  0  0  0  0  0  0  0  0  0  0
   27.4026  -19.8364   -8.0994 C   0  0  0  0  0  0  0  0  0  0  0  0
   26.3796  -20.7515   -8.6035 C   0  0  2  0  0  0  0  0  0  0  0  0
   25.8603  -20.2208   -9.9135 N   0  0  0  0  0  0  0  0  0  0  0  0
   25.2220  -20.9864   -7.7406 C   0  0  0  0  0  0  0  0  0  0  0  0
   25.2069  -22.1074   -6.8491 O   0  0  0  0  0  0  0  0  0  0  0  0
   24.1777  -20.3071   -7.6636 O   0  0  0  0  0  0  0  0  0  0  0  0
  1  2  1  0
  2  4  1  0
  2  3  2  0
  4  5  1  0
  5  6  1  0
  6  7  1  6
  6  8  1  0
  8  9  2  0
 10  8  1  0
 10 11  1  0
 11 12  1  1
 13 12  1  0
 14 15  1  0
 14 13  1  0
 16 15  1  0
 17 24  1  0
 17 11  1  0
 18 17  2  0
 20 19  1  1
 20 22  1  0
 21 20  1  0
 23 22  1  1
 23 25  1  0
 23 24  1  0
 25 26  1  0
 27 25  2  0
M  END
$$$$
