QKL.pdb
     RDKit          3D

 27 26  0  0  1  0  0  0  0  0999 V2000
   21.9227  -15.1162  -22.8772 N   0  0  0  0  0  0  0  0  0  0  0  0
   20.5383  -15.4987  -22.9532 C   0  0  0  0  0  0  0  0  0  0  0  0
   19.8585  -14.9990  -23.8552 O   0  0  0  0  0  0  0  0  0  0  0  0
   19.9751  -16.4398  -21.9879 C   0  0  0  0  0  0  0  0  0  0  0  0
   20.9345  -17.0204  -21.0306 C   0  0  0  0  0  0  0  0  0  0  0  0
   20.3769  -17.9732  -20.0372 C   0  0  2  0  0  0  0  0  0  0  0  0
   20.0171  -19.2270  -20.6329 N   0  0  0  0  0  0  0  0  0  0  0  0
   19.2131  -17.3554  -19.3324 C   0  0  0  0  0  0  0  0  0  0  0  0
   18.1930  -17.1117  -20.0345 O   0  0  0  0  0  0  0  0  0  0  0  0
   19.1771  -17.0337  -17.9739 N   0  0  0  0  0  0  0  0  0  0  0  0
   17.9109  -16.5125  -17.3192 C   0  0  1  0  0  0  0  0  0  0  0  0
   17.8738  -17.2460  -16.0578 C   0  0  0  0  0  0  0  0  0  0  0  0
   17.0722  -18.4069  -15.7429 C   0  0  0  0  0  0  0  0  0  0  0  0
   17.6823  -19.7676  -15.7641 C   0  0  0  0  0  0  0  0  0  0  0  0
   17.1597  -20.6569  -14.6542 C   0  0  0  0  0  0  0  0  0  0  0  0
   16.8860  -21.9991  -15.1420 N   0  0  0  0  0  0  0  0  0  0  0  0
   18.0801  -15.0732  -17.3564 C   0  0  0  0  0  0  0  0  0  0  0  0
   19.1940  -14.5321  -17.2560 O   0  0  0  0  0  0  0  0  0  0  0  0
   15.3595   -9.8201  -19.1706 C   0  0  0  0  0  0  0  0  0  0  0  0
   16.4002  -10.5404  -18.4133 C   0  0  2  0  0  0  0  0  0  0  0  0
   17.7774  -10.0015  -18.9000 C   0  0  0  0  0  0  0  0  0  0  0  0
   16.4396  -12.0043  -18.3941 C   0  0  0  0  0  0  0  0  0  0  0  0
   17.1806  -12.6979  -17.3414 C   0  0  2  0  0  0  0  0  0  0  0  0
   16.9849  -14.1813  -17.5103 N   0  0  0  0  0  0  0  0  0  0  0  0
   16.8288  -12.3679  -15.9604 C   0  0  0  0  0  0  0  0  0  0  0  0
   17.3881  -11.2070  -15.3349 O   0  0  0  0  0  0  0  0  0  0  0  0
   16.0618  -12.9920  -15.1987 O   0  0  0  0  0  0  0  0  0  0  0  0
  1  2  1  0
  2  4  1  0
  2  3  2  0
  4  5  1  0
  5  6  1  0
  6  7  1  6
  6  8  1  0
  8  9  2  0
 10  8  1  0
 10 11  1  0
 11 12  1  1
 13 12  1  0
 14 15  1  0
 14 13  1  0
 16 15  1  0
 17 24  1  0
 17 11  1  0
 18 17  2  0
 20 19  1  6
 20 22  1  0
 21 20  1  0
 23 22  1  6
 23 25  1  0
 23 24  1  0
 25 26  1  0
 27 25  2  0
M  END
$$$$
