QKL.pdb
     RDKit          3D

 27 26  0  0  1  0  0  0  0  0999 V2000
   24.1208  -28.4361  -22.0437 N   0  0  0  0  0  0  0  0  0  0  0  0
   24.1295  -27.0302  -21.7399 C   0  0  0  0  0  0  0  0  0  0  0  0
   23.4963  -26.2818  -22.4911 O   0  0  0  0  0  0  0  0  0  0  0  0
   24.8691  -26.5258  -20.5853 C   0  0  0  0  0  0  0  0  0  0  0  0
   25.5558  -27.5471  -19.7733 C   0  0  0  0  0  0  0  0  0  0  0  0
   24.6940  -28.3728  -18.8895 C   0  0  2  0  0  0  0  0  0  0  0  0
   24.2821  -27.6596  -17.7157 N   0  0  0  0  0  0  0  0  0  0  0  0
   25.3948  -29.6433  -18.5325 C   0  0  0  0  0  0  0  0  0  0  0  0
   25.8732  -30.3119  -19.4901 O   0  0  0  0  0  0  0  0  0  0  0  0
   25.5537  -30.1340  -17.2348 N   0  0  0  0  0  0  0  0  0  0  0  0
   26.2948  -31.4311  -16.9662 C   0  0  1  0  0  0  0  0  0  0  0  0
   27.4642  -30.9855  -16.2149 C   0  0  0  0  0  0  0  0  0  0  0  0
   28.5770  -31.7920  -15.7669 C   0  0  0  0  0  0  0  0  0  0  0  0
   29.4422  -32.4932  -16.7590 C   0  0  0  0  0  0  0  0  0  0  0  0
   30.5233  -33.3268  -16.1016 C   0  0  0  0  0  0  0  0  0  0  0  0
   31.4049  -33.9200  -17.0942 N   0  0  0  0  0  0  0  0  0  0  0  0
   25.2837  -32.2789  -16.3658 C   0  0  0  0  0  0  0  0  0  0  0  0
   24.5601  -31.8918  -15.4329 O   0  0  0  0  0  0  0  0  0  0  0  0
   21.5702  -34.3424  -17.9947 C   0  0  0  0  0  0  0  0  0  0  0  0
   22.8058  -35.1344  -18.1409 C   0  0  2  0  0  0  0  0  0  0  0  0
   22.4393  -36.4098  -18.9552 C   0  0  0  0  0  0  0  0  0  0  0  0
   23.5922  -35.5254  -16.9688 C   0  0  0  0  0  0  0  0  0  0  0  0
   24.0922  -34.5002  -16.0538 C   0  0  2  0  0  0  0  0  0  0  0  0
   25.0496  -33.6107  -16.8018 N   0  0  0  0  0  0  0  0  0  0  0  0
   24.7830  -34.9688  -14.8525 C   0  0  0  0  0  0  0  0  0  0  0  0
   26.2145  -34.9710  -14.8024 O   0  0  0  0  0  0  0  0  0  0  0  0
   24.2723  -35.3946  -13.7961 O   0  0  0  0  0  0  0  0  0  0  0  0
  1  2  1  0
  2  4  1  0
  2  3  2  0
  4  5  1  0
  5  6  1  0
  6  7  1  1
  6  8  1  0
  8  9  2  0
 10  8  1  0
 10 11  1  0
 11 12  1  1
 13 12  1  0
 14 15  1  0
 14 13  1  0
 16 15  1  0
 17 24  1  0
 17 11  1  0
 18 17  2  0
 20 19  1  1
 20 22  1  0
 21 20  1  0
 23 22  1  6
 23 25  1  0
 23 24  1  0
 25 26  1  0
 27 25  2  0
M  END
$$$$
