QKL.pdb
     RDKit          3D

 27 26  0  0  1  0  0  0  0  0999 V2000
   21.5220  -21.9418  -13.0810 N   0  0  0  0  0  0  0  0  0  0  0  0
   21.3750  -21.6024  -14.4710 C   0  0  0  0  0  0  0  0  0  0  0  0
   21.9555  -20.5895  -14.8739 O   0  0  0  0  0  0  0  0  0  0  0  0
   20.5618  -22.4340  -15.3552 C   0  0  0  0  0  0  0  0  0  0  0  0
   20.0425  -23.6786  -14.7590 C   0  0  0  0  0  0  0  0  0  0  0  0
   20.9479  -24.8551  -14.8008 C   0  0  2  0  0  0  0  0  0  0  0  0
   21.1699  -25.3196  -16.1391 N   0  0  0  0  0  0  0  0  0  0  0  0
   20.4109  -25.9456  -13.9316 C   0  0  0  0  0  0  0  0  0  0  0  0
   19.5247  -26.6869  -14.4395 O   0  0  0  0  0  0  0  0  0  0  0  0
   20.8144  -26.1963  -12.6185 N   0  0  0  0  0  0  0  0  0  0  0  0
   20.2734  -27.3808  -11.8386 C   0  0  1  0  0  0  0  0  0  0  0  0
   21.3806  -27.7140  -10.9478 C   0  0  0  0  0  0  0  0  0  0  0  0
   21.8274  -29.0334  -10.5617 C   0  0  0  0  0  0  0  0  0  0  0  0
   20.8791  -29.9876   -9.9178 C   0  0  0  0  0  0  0  0  0  0  0  0
   21.5437  -31.2906   -9.5223 C   0  0  0  0  0  0  0  0  0  0  0  0
   20.5736  -32.2342   -8.9905 N   0  0  0  0  0  0  0  0  0  0  0  0
   19.0061  -26.8971  -11.3274 C   0  0  0  0  0  0  0  0  0  0  0  0
   18.8691  -25.7518  -10.8657 O   0  0  0  0  0  0  0  0  0  0  0  0
   13.3663  -26.7422  -11.2458 C   0  0  0  0  0  0  0  0  0  0  0  0
   14.4839  -25.9857  -11.8407 C   0  0  2  0  0  0  0  0  0  0  0  0
   13.9903  -25.4418  -13.2135 C   0  0  0  0  0  0  0  0  0  0  0  0
   15.8008  -26.6022  -12.0166 C   0  0  0  0  0  0  0  0  0  0  0  0
   16.5206  -27.1231  -10.8552 C   0  0  2  0  0  0  0  0  0  0  0  0
   17.8328  -27.6984  -11.3186 N   0  0  0  0  0  0  0  0  0  0  0  0
   15.8460  -28.1570  -10.0705 C   0  0  0  0  0  0  0  0  0  0  0  0
   15.0024  -27.7892   -8.9729 O   0  0  0  0  0  0  0  0  0  0  0  0
   15.9028  -29.3938  -10.2294 O   0  0  0  0  0  0  0  0  0  0  0  0
  1  2  1  0
  2  4  1  0
  2  3  2  0
  4  5  1  0
  5  6  1  0
  6  7  1  6
  6  8  1  0
  8  9  2  0
 10  8  1  0
 10 11  1  0
 11 12  1  1
 13 12  1  0
 14 15  1  0
 14 13  1  0
 16 15  1  0
 17 24  1  0
 17 11  1  0
 18 17  2  0
 20 19  1  6
 20 22  1  0
 21 20  1  0
 23 22  1  6
 23 25  1  0
 23 24  1  0
 25 26  1  0
 27 25  2  0
M  END
$$$$
