QKL.pdb
     RDKit          3D

 27 26  0  0  1  0  0  0  0  0999 V2000
   25.2458  -13.5256  -14.8612 N   0  0  0  0  0  0  0  0  0  0  0  0
   24.5245  -12.6836  -15.7775 C   0  0  0  0  0  0  0  0  0  0  0  0
   24.8166  -11.4838  -15.7983 O   0  0  0  0  0  0  0  0  0  0  0  0
   23.4861  -13.2443  -16.6389 C   0  0  0  0  0  0  0  0  0  0  0  0
   23.2850  -14.7008  -16.5284 C   0  0  0  0  0  0  0  0  0  0  0  0
   24.3328  -15.5573  -17.1401 C   0  0  2  0  0  0  0  0  0  0  0  0
   24.2251  -15.6066  -18.5691 N   0  0  0  0  0  0  0  0  0  0  0  0
   24.2850  -16.9277  -16.5463 C   0  0  0  0  0  0  0  0  0  0  0  0
   23.5021  -17.7526  -17.0936 O   0  0  0  0  0  0  0  0  0  0  0  0
   25.0333  -17.3513  -15.4460 N   0  0  0  0  0  0  0  0  0  0  0  0
   24.9217  -18.7682  -14.9133 C   0  0  1  0  0  0  0  0  0  0  0  0
   26.2166  -18.9755  -14.2725 C   0  0  0  0  0  0  0  0  0  0  0  0
   27.4020  -19.5570  -14.8610 C   0  0  0  0  0  0  0  0  0  0  0  0
   27.3061  -20.8205  -15.6475 C   0  0  0  0  0  0  0  0  0  0  0  0
   28.6630  -21.3521  -16.0623 C   0  0  0  0  0  0  0  0  0  0  0  0
   28.5378  -22.6179  -16.7669 N   0  0  0  0  0  0  0  0  0  0  0  0
   23.6905  -18.7447  -14.1484 C   0  0  0  0  0  0  0  0  0  0  0  0
   23.5080  -17.9549  -13.2068 O   0  0  0  0  0  0  0  0  0  0  0  0
   18.6742  -16.6718  -14.6303 C   0  0  0  0  0  0  0  0  0  0  0  0
   19.3819  -17.7090  -13.8566 C   0  0  2  0  0  0  0  0  0  0  0  0
   19.3300  -17.2806  -12.3606 C   0  0  0  0  0  0  0  0  0  0  0  0
   20.7532  -18.0962  -14.1954 C   0  0  0  0  0  0  0  0  0  0  0  0
   21.2650  -19.4003  -13.7763 C   0  0  2  0  0  0  0  0  0  0  0  0
   22.6072  -19.6224  -14.4218 N   0  0  0  0  0  0  0  0  0  0  0  0
   20.4358  -20.5648  -14.0867 C   0  0  0  0  0  0  0  0  0  0  0  0
   20.6698  -21.3139  -15.2849 O   0  0  0  0  0  0  0  0  0  0  0  0
   19.4927  -21.0304  -13.4146 O   0  0  0  0  0  0  0  0  0  0  0  0
  1  2  1  0
  2  4  1  0
  2  3  2  0
  4  5  1  0
  5  6  1  0
  6  7  1  6
  6  8  1  0
  8  9  2  0
 10  8  1  0
 10 11  1  0
 11 12  1  1
 13 12  1  0
 14 15  1  0
 14 13  1  0
 16 15  1  0
 17 24  1  0
 17 11  1  0
 18 17  2  0
 20 19  1  6
 20 22  1  0
 21 20  1  0
 23 22  1  6
 23 25  1  0
 23 24  1  0
 25 26  1  0
 27 25  2  0
M  END
$$$$
