QKL.pdb
     RDKit          3D

 27 26  0  0  1  0  0  0  0  0999 V2000
   28.8028  -22.2384  -15.8070 N   0  0  0  0  0  0  0  0  0  0  0  0
   28.8414  -20.9290  -16.4009 C   0  0  0  0  0  0  0  0  0  0  0  0
   29.9296  -20.5292  -16.8268 O   0  0  0  0  0  0  0  0  0  0  0  0
   27.6300  -20.1164  -16.4832 C   0  0  0  0  0  0  0  0  0  0  0  0
   26.4164  -20.7223  -15.9054 C   0  0  0  0  0  0  0  0  0  0  0  0
   26.0271  -22.0520  -16.4403 C   0  0  2  0  0  0  0  0  0  0  0  0
   26.2319  -22.1466  -17.8564 N   0  0  0  0  0  0  0  0  0  0  0  0
   24.6097  -22.3552  -16.0771 C   0  0  0  0  0  0  0  0  0  0  0  0
   23.7216  -21.6576  -16.6406 O   0  0  0  0  0  0  0  0  0  0  0  0
   24.2068  -23.3395  -15.1722 N   0  0  0  0  0  0  0  0  0  0  0  0
   22.7393  -23.6629  -14.9587 C   0  0  1  0  0  0  0  0  0  0  0  0
   22.7826  -25.0159  -14.4129 C   0  0  0  0  0  0  0  0  0  0  0  0
   22.8484  -26.2567  -15.1516 C   0  0  0  0  0  0  0  0  0  0  0  0
   24.1664  -26.7977  -15.5928 C   0  0  0  0  0  0  0  0  0  0  0  0
   24.0266  -28.0145  -16.4848 C   0  0  0  0  0  0  0  0  0  0  0  0
   25.3252  -28.4795  -16.9452 N   0  0  0  0  0  0  0  0  0  0  0  0
   22.2579  -22.5425  -14.1749 C   0  0  0  0  0  0  0  0  0  0  0  0
   22.8848  -22.0951  -13.1999 O   0  0  0  0  0  0  0  0  0  0  0  0
   19.0982  -17.9017  -13.4138 C   0  0  0  0  0  0  0  0  0  0  0  0
   20.5235  -18.2089  -13.6362 C   0  0  2  0  0  0  0  0  0  0  0  0
   21.1215  -17.0354  -14.4665 C   0  0  0  0  0  0  0  0  0  0  0  0
   20.9345  -19.4788  -14.2390 C   0  0  0  0  0  0  0  0  0  0  0  0
   20.5620  -20.7407  -13.6010 C   0  0  2  0  0  0  0  0  0  0  0  0
   21.0364  -21.8779  -14.4666 N   0  0  0  0  0  0  0  0  0  0  0  0
   19.1378  -20.9548  -13.3447 C   0  0  0  0  0  0  0  0  0  0  0  0
   18.5682  -20.5669  -12.0890 O   0  0  0  0  0  0  0  0  0  0  0  0
   18.2922  -21.4593  -14.1117 O   0  0  0  0  0  0  0  0  0  0  0  0
  1  2  1  0
  2  4  1  0
  2  3  2  0
  4  5  1  0
  5  6  1  0
  6  7  1  6
  6  8  1  0
  8  9  2  0
 10  8  1  0
 10 11  1  0
 11 12  1  1
 13 12  1  0
 14 15  1  0
 14 13  1  0
 16 15  1  0
 17 24  1  0
 17 11  1  0
 18 17  2  0
 20 19  1  6
 20 22  1  0
 21 20  1  0
 23 22  1  6
 23 25  1  0
 23 24  1  0
 25 26  1  0
 27 25  2  0
M  END
$$$$
