QKL.pdb
     RDKit          3D

 27 26  0  0  1  0  0  0  0  0999 V2000
   15.3378  -11.7039  -14.1686 N   0  0  0  0  0  0  0  0  0  0  0  0
   14.8217  -12.7337  -15.0300 C   0  0  0  0  0  0  0  0  0  0  0  0
   13.7346  -13.2361  -14.7282 O   0  0  0  0  0  0  0  0  0  0  0  0
   15.5721  -13.1587  -16.2094 C   0  0  0  0  0  0  0  0  0  0  0  0
   16.8838  -12.5118  -16.3966 C   0  0  0  0  0  0  0  0  0  0  0  0
   17.6285  -12.8800  -17.6277 C   0  0  2  0  0  0  0  0  0  0  0  0
   18.0590  -14.2477  -17.6109 N   0  0  0  0  0  0  0  0  0  0  0  0
   18.7828  -11.9518  -17.8247 C   0  0  0  0  0  0  0  0  0  0  0  0
   19.9065  -12.3540  -17.4142 O   0  0  0  0  0  0  0  0  0  0  0  0
   18.7055  -10.6913  -18.4208 N   0  0  0  0  0  0  0  0  0  0  0  0
   19.9409   -9.8302  -18.6103 C   0  0  1  0  0  0  0  0  0  0  0  0
   19.6545   -9.1237  -19.8550 C   0  0  0  0  0  0  0  0  0  0  0  0
   20.5699   -8.3270  -20.6405 C   0  0  0  0  0  0  0  0  0  0  0  0
   21.2608   -8.9234  -21.8200 C   0  0  0  0  0  0  0  0  0  0  0  0
   22.1550   -7.9301  -22.5340 C   0  0  0  0  0  0  0  0  0  0  0  0
   22.8069   -8.5412  -23.6812 N   0  0  0  0  0  0  0  0  0  0  0  0
   20.0589   -9.1277  -17.3477 C   0  0  0  0  0  0  0  0  0  0  0  0
   19.0710   -8.8461  -16.6488 O   0  0  0  0  0  0  0  0  0  0  0  0
   21.2635   -9.8926  -12.9278 C   0  0  0  0  0  0  0  0  0  0  0  0
   22.3008   -9.7886  -13.9710 C   0  0  2  0  0  0  0  0  0  0  0  0
   23.6530  -10.1959  -13.3155 C   0  0  0  0  0  0  0  0  0  0  0  0
   22.4896   -8.5462  -14.7233 C   0  0  0  0  0  0  0  0  0  0  0  0
   21.3825   -7.9919  -15.5012 C   0  0  2  0  0  0  0  0  0  0  0  0
   21.3117   -8.7124  -16.8215 N   0  0  0  0  0  0  0  0  0  0  0  0
   21.4324   -6.5588  -15.7906 C   0  0  0  0  0  0  0  0  0  0  0  0
   21.0566   -5.6099  -14.7855 O   0  0  0  0  0  0  0  0  0  0  0  0
   21.7776   -6.0074  -16.8559 O   0  0  0  0  0  0  0  0  0  0  0  0
  1  2  1  0
  2  4  1  0
  2  3  2  0
  4  5  1  0
  5  6  1  0
  6  7  1  1
  6  8  1  0
  8  9  2  0
 10  8  1  0
 10 11  1  0
 11 12  1  6
 13 12  1  0
 14 15  1  0
 14 13  1  0
 16 15  1  0
 17 24  1  0
 17 11  1  0
 18 17  2  0
 20 19  1  1
 20 22  1  0
 21 20  1  0
 23 22  1  6
 23 25  1  0
 23 24  1  0
 25 26  1  0
 27 25  2  0
M  END
$$$$
