RII.pdb
     RDKit          3D

 28 27  0  0  1  0  0  0  0  0999 V2000
    7.8456  -17.9125   17.5394 N   0  0  0  0  0  0  0  0  0  0  0  0
    7.9669  -19.3241   17.4590 C   0  0  0  0  0  0  0  0  0  0  0  0
    8.0490  -19.9593   16.3559 N   0  0  0  0  0  0  0  0  0  0  0  0
    7.9959  -20.0334   18.6947 N   0  0  0  0  0  0  0  0  0  0  0  0
    7.9942  -19.3349   19.9494 C   0  0  0  0  0  0  0  0  0  0  0  0
    8.3530  -17.8572   19.7827 C   0  0  0  0  0  0  0  0  0  0  0  0
    8.2520  -17.2455   21.1582 C   0  0  0  0  0  0  0  0  0  0  0  0
    8.4620  -15.7306   21.1106 C   0  0  2  0  0  0  0  0  0  0  0  0
    9.6055  -15.5352   20.2294 N   0  0  0  0  0  0  0  0  0  0  0  0
    8.8021  -15.2763   22.4789 C   0  0  0  0  0  0  0  0  0  0  0  0
    9.9957  -15.1427   22.7994 O   0  0  0  0  0  0  0  0  0  0  0  0
    8.1871  -20.9799   16.2739 C   0  0  0  0  0  0  0  0  0  0  0  0
    5.2784  -12.1139   25.4601 C   0  0  0  0  0  0  0  0  0  0  0  0
    6.4752  -12.6823   24.7311 C   0  0  2  0  0  0  0  0  0  0  0  0
    7.1507  -13.7879   25.5200 C   0  0  0  0  0  0  0  0  0  0  0  0
    7.6196  -13.2627   26.8472 C   0  0  2  0  0  0  0  0  0  0  0  0
    8.2252  -14.4847   24.7395 N   0  0  0  0  0  0  0  0  0  0  0  0
    7.8480  -14.9771   23.4694 C   0  0  0  0  0  0  0  0  0  0  0  0
    8.8051  -15.5274   25.6131 O   0  0  0  0  0  0  0  0  0  0  0  0
    8.3806  -16.6927   25.5290 C   0  0  0  0  0  0  0  0  0  0  0  0
   11.3554  -14.1902   30.5219 C   0  0  0  0  0  0  0  0  0  0  0  0
   10.5384  -14.7490   29.4046 C   0  0  2  0  0  0  0  0  0  0  0  0
   11.2174  -15.5784   28.3915 C   0  0  0  0  0  0  0  0  0  0  0  0
   12.4021  -14.7997   27.7702 C   0  0  1  0  0  0  0  0  0  0  0  0
   10.4408  -16.2850   27.3667 N   0  0  0  0  0  0  0  0  0  0  0  0
    9.8201  -15.2200   26.5284 C   0  0  0  0  0  0  0  0  0  0  0  0
    9.4307  -17.2626   27.7265 O   0  0  0  0  0  0  0  0  0  0  0  0
    8.2004  -17.0832   27.7901 O   0  0  0  0  0  0  0  0  0  0  0  0
  2  4  1  0
  2  1  1  0
  3  2  2  0
  5  4  1  0
  6  5  1  0
  7  6  1  0
  8 10  1  0
  8  7  1  0
  8  9  1  6
 10 11  2  0
 13 12  1  0
 14 13  1  0
 14 16  1  0
 14 15  1  6
 16 18  1  0
 17 10  1  0
 16 17  1  6
 18 19  2  0
 20 21  1  0
 21 22  1  0
 22 24  1  0
 22 23  1  1
 24 26  1  0
 25 18  1  0
 24 25  1  6
 26 27  2  0
 26 28  1  0
M  END
$$$$
