RII.pdb
     RDKit          3D

 28 27  0  0  1  0  0  0  0  0999 V2000
   13.9676  -22.1549   19.4018 N   0  0  0  0  0  0  0  0  0  0  0  0
   14.7121  -21.3160   18.5326 C   0  0  0  0  0  0  0  0  0  0  0  0
   15.2243  -21.7198   17.4363 N   0  0  0  0  0  0  0  0  0  0  0  0
   14.8736  -19.9595   18.9386 N   0  0  0  0  0  0  0  0  0  0  0  0
   14.2792  -19.4744   20.1525 C   0  0  0  0  0  0  0  0  0  0  0  0
   12.7574  -19.3652   20.0412 C   0  0  0  0  0  0  0  0  0  0  0  0
   12.3784  -18.0854   20.7446 C   0  0  0  0  0  0  0  0  0  0  0  0
   11.0507  -17.5342   20.2203 C   0  0  2  0  0  0  0  0  0  0  0  0
   11.3849  -16.8744   18.9652 N   0  0  0  0  0  0  0  0  0  0  0  0
   10.5582  -16.5335   21.1952 C   0  0  0  0  0  0  0  0  0  0  0  0
   11.3094  -15.6116   21.5570 O   0  0  0  0  0  0  0  0  0  0  0  0
   15.7639  -21.1260   16.7855 C   0  0  0  0  0  0  0  0  0  0  0  0
    7.9379  -13.2772   21.0835 C   0  0  0  0  0  0  0  0  0  0  0  0
    7.0907  -14.5009   21.3507 C   0  0  1  0  0  0  0  0  0  0  0  0
    7.4415  -15.1596   22.6714 C   0  0  0  0  0  0  0  0  0  0  0  0
    7.0430  -14.2694   23.8142 C   0  0  2  0  0  0  0  0  0  0  0  0
    8.8710  -15.6091   22.7341 N   0  0  0  0  0  0  0  0  0  0  0  0
    9.2679  -16.5503   21.7572 C   0  0  0  0  0  0  0  0  0  0  0  0
    9.1336  -16.0666   24.1156 O   0  0  0  0  0  0  0  0  0  0  0  0
    9.4153  -17.2607   24.3148 C   0  0  0  0  0  0  0  0  0  0  0  0
    9.4534  -11.8296   27.7276 C   0  0  0  0  0  0  0  0  0  0  0  0
    9.7662  -12.9977   26.8525 C   0  0  2  0  0  0  0  0  0  0  0  0
    9.4753  -14.3500   27.3643 C   0  0  0  0  0  0  0  0  0  0  0  0
   10.1182  -14.5431   28.7590 C   0  0  2  0  0  0  0  0  0  0  0  0
    9.6751  -15.5271   26.5115 N   0  0  0  0  0  0  0  0  0  0  0  0
    9.0689  -15.1764   25.1955 C   0  0  0  0  0  0  0  0  0  0  0  0
    9.2121  -16.8406   26.9188 O   0  0  0  0  0  0  0  0  0  0  0  0
    8.0695  -17.3129   26.7735 O   0  0  0  0  0  0  0  0  0  0  0  0
  2  4  1  0
  2  1  1  0
  3  2  2  0
  5  4  1  0
  6  5  1  0
  7  6  1  0
  8 10  1  0
  8  7  1  0
  8  9  1  6
 10 11  2  0
 13 12  1  0
 14 13  1  0
 14 16  1  0
 14 15  1  6
 16 18  1  0
 17 10  1  0
 16 17  1  6
 18 19  2  0
 20 21  1  0
 21 22  1  0
 22 24  1  0
 22 23  1  6
 24 26  1  0
 25 18  1  0
 24 25  1  6
 26 27  2  0
 26 28  1  0
M  END
$$$$
