RII.pdb
     RDKit          3D

 28 27  0  0  1  0  0  0  0  0999 V2000
   12.4529  -19.7903   22.6776 N   0  0  0  0  0  0  0  0  0  0  0  0
   12.0477  -19.4196   21.3692 C   0  0  0  0  0  0  0  0  0  0  0  0
   12.8059  -18.8056   20.5475 N   0  0  0  0  0  0  0  0  0  0  0  0
   10.7193  -19.7691   20.9897 N   0  0  0  0  0  0  0  0  0  0  0  0
    9.8409  -18.8019   20.3936 C   0  0  0  0  0  0  0  0  0  0  0  0
   10.1489  -17.3802   20.8671 C   0  0  0  0  0  0  0  0  0  0  0  0
    9.1066  -16.4937   20.2313 C   0  0  0  0  0  0  0  0  0  0  0  0
    7.9380  -16.2363   21.1850 C   0  0  2  0  0  0  0  0  0  0  0  0
    7.0059  -15.4127   20.4267 N   0  0  0  0  0  0  0  0  0  0  0  0
    8.4564  -15.4690   22.3413 C   0  0  0  0  0  0  0  0  0  0  0  0
    9.4724  -14.7664   22.2024 O   0  0  0  0  0  0  0  0  0  0  0  0
   13.8221  -18.6692   20.6744 C   0  0  0  0  0  0  0  0  0  0  0  0
    5.5432  -12.2917   25.3591 C   0  0  0  0  0  0  0  0  0  0  0  0
    6.6798  -12.9458   24.6060 C   0  0  2  0  0  0  0  0  0  0  0  0
    7.4673  -13.9024   25.4811 C   0  0  0  0  0  0  0  0  0  0  0  0
    8.1176  -13.1535   26.6096 C   0  0  2  0  0  0  0  0  0  0  0  0
    8.4235  -14.7520   24.6980 N   0  0  0  0  0  0  0  0  0  0  0  0
    7.8677  -15.4773   23.6197 C   0  0  0  0  0  0  0  0  0  0  0  0
    9.1455  -15.6122   25.6601 O   0  0  0  0  0  0  0  0  0  0  0  0
    8.7079  -16.7502   25.9016 C   0  0  0  0  0  0  0  0  0  0  0  0
   10.3548  -13.9598   30.6075 C   0  0  0  0  0  0  0  0  0  0  0  0
   10.1056  -14.9013   29.4764 C   0  0  2  0  0  0  0  0  0  0  0  0
   11.1805  -15.1022   28.4867 C   0  0  0  0  0  0  0  0  0  0  0  0
   11.7660  -13.7377   28.0494 C   0  0  1  0  0  0  0  0  0  0  0  0
   10.9782  -15.9940   27.3394 N   0  0  0  0  0  0  0  0  0  0  0  0
   10.3087  -15.1629   26.2986 C   0  0  0  0  0  0  0  0  0  0  0  0
   10.2692  -17.2525   27.4783 O   0  0  0  0  0  0  0  0  0  0  0  0
   10.6968  -18.3031   27.9913 O   0  0  0  0  0  0  0  0  0  0  0  0
  2  4  1  0
  2  1  1  0
  3  2  2  0
  5  4  1  0
  6  5  1  0
  7  6  1  0
  8 10  1  0
  8  7  1  0
  8  9  1  6
 10 11  2  0
 13 12  1  0
 14 13  1  0
 14 16  1  0
 14 15  1  1
 16 18  1  0
 17 10  1  0
 16 17  1  6
 18 19  2  0
 20 21  1  0
 21 22  1  0
 22 24  1  0
 22 23  1  1
 24 26  1  0
 25 18  1  0
 24 25  1  6
 26 27  2  0
 26 28  1  0
M  END
$$$$
