RII.pdb
     RDKit          3D

 28 27  0  0  1  0  0  0  0  0999 V2000
   10.7289  -21.4983   20.1461 N   0  0  0  0  0  0  0  0  0  0  0  0
    9.9255  -21.2931   18.9946 C   0  0  0  0  0  0  0  0  0  0  0  0
    9.0379  -22.1208   18.6020 N   0  0  0  0  0  0  0  0  0  0  0  0
   10.1501  -20.0890   18.2661 N   0  0  0  0  0  0  0  0  0  0  0  0
   10.4862  -18.8670   18.9415 C   0  0  0  0  0  0  0  0  0  0  0  0
   10.0920  -18.9023   20.4191 C   0  0  0  0  0  0  0  0  0  0  0  0
   10.6435  -17.6370   21.0284 C   0  0  0  0  0  0  0  0  0  0  0  0
    9.6294  -16.4937   20.9507 C   0  0  2  0  0  0  0  0  0  0  0  0
   10.1127  -15.6321   19.8801 N   0  0  0  0  0  0  0  0  0  0  0  0
    9.6707  -15.7622   22.2381 C   0  0  0  0  0  0  0  0  0  0  0  0
   10.7043  -15.1517   22.5612 O   0  0  0  0  0  0  0  0  0  0  0  0
    8.4112  -21.9719   17.7943 C   0  0  0  0  0  0  0  0  0  0  0  0
    6.4012  -12.6576   26.3209 C   0  0  0  0  0  0  0  0  0  0  0  0
    7.6188  -13.5232   26.0864 C   0  0  2  0  0  0  0  0  0  0  0  0
    7.4088  -14.5066   24.9508 C   0  0  0  0  0  0  0  0  0  0  0  0
    6.4778  -15.6036   25.3834 C   0  0  2  0  0  0  0  0  0  0  0  0
    8.6980  -15.0100   24.3730 N   0  0  0  0  0  0  0  0  0  0  0  0
    8.5974  -15.7059   23.1469 C   0  0  0  0  0  0  0  0  0  0  0  0
    9.3825  -15.7917   25.4252 O   0  0  0  0  0  0  0  0  0  0  0  0
    9.6403  -16.9899   25.2182 C   0  0  0  0  0  0  0  0  0  0  0  0
   10.5601  -12.8964   30.0675 C   0  0  0  0  0  0  0  0  0  0  0  0
   10.6515  -13.6843   28.8030 C   0  0  2  0  0  0  0  0  0  0  0  0
   10.4843  -15.1477   28.8797 C   0  0  0  0  0  0  0  0  0  0  0  0
   11.3989  -15.7328   29.9830 C   0  0  2  0  0  0  0  0  0  0  0  0
   10.5189  -15.9653   27.6619 N   0  0  0  0  0  0  0  0  0  0  0  0
    9.7411  -15.2023   26.6445 C   0  0  0  0  0  0  0  0  0  0  0  0
   10.0755  -17.3469   27.6684 O   0  0  0  0  0  0  0  0  0  0  0  0
    8.9068  -17.7614   27.5581 O   0  0  0  0  0  0  0  0  0  0  0  0
  2  4  1  0
  2  1  1  0
  3  2  2  0
  5  4  1  0
  6  5  1  0
  7  6  1  0
  8 10  1  0
  8  7  1  0
  8  9  1  6
 10 11  2  0
 13 12  1  0
 14 13  1  0
 14 16  1  0
 14 15  1  6
 16 18  1  0
 17 10  1  0
 16 17  1  1
 18 19  2  0
 20 21  1  0
 21 22  1  0
 22 24  1  0
 22 23  1  1
 24 26  1  0
 25 18  1  0
 24 25  1  6
 26 27  2  0
 26 28  1  0
M  END
$$$$
