RII.pdb
     RDKit          3D

 28 27  0  0  1  0  0  0  0  0999 V2000
    8.9153  -14.9993   14.5583 N   0  0  0  0  0  0  0  0  0  0  0  0
    7.9604  -14.0146   14.9218 C   0  0  0  0  0  0  0  0  0  0  0  0
    7.0610  -13.5826   14.1270 N   0  0  0  0  0  0  0  0  0  0  0  0
    8.0416  -13.5071   16.2509 N   0  0  0  0  0  0  0  0  0  0  0  0
    9.0246  -14.0019   17.1735 C   0  0  0  0  0  0  0  0  0  0  0  0
    8.4208  -14.9782   18.1846 C   0  0  0  0  0  0  0  0  0  0  0  0
    8.7985  -14.4537   19.5479 C   0  0  0  0  0  0  0  0  0  0  0  0
    9.0799  -15.5966   20.5257 C   0  0  2  0  0  0  0  0  0  0  0  0
    7.9198  -16.4722   20.4274 N   0  0  0  0  0  0  0  0  0  0  0  0
    9.1567  -15.0198   21.8880 C   0  0  0  0  0  0  0  0  0  0  0  0
   10.0684  -14.2207   22.1627 O   0  0  0  0  0  0  0  0  0  0  0  0
    6.3945  -12.8252   14.3493 C   0  0  0  0  0  0  0  0  0  0  0  0
    5.9779  -12.8226   26.5324 C   0  0  0  0  0  0  0  0  0  0  0  0
    7.2896  -13.3586   26.0042 C   0  0  2  0  0  0  0  0  0  0  0  0
    7.0863  -14.3524   24.8764 C   0  0  0  0  0  0  0  0  0  0  0  0
    6.2855  -15.5273   25.3616 C   0  0  2  0  0  0  0  0  0  0  0  0
    8.3707  -14.7403   24.2060 N   0  0  0  0  0  0  0  0  0  0  0  0
    8.2494  -15.3180   22.9218 C   0  0  0  0  0  0  0  0  0  0  0  0
    9.1274  -15.5894   25.1510 O   0  0  0  0  0  0  0  0  0  0  0  0
    9.4179  -16.7521   24.8212 C   0  0  0  0  0  0  0  0  0  0  0  0
   10.9014  -12.8336   29.5968 C   0  0  0  0  0  0  0  0  0  0  0  0
   10.9594  -13.7053   28.3865 C   0  0  2  0  0  0  0  0  0  0  0  0
   10.5511  -15.1159   28.5230 C   0  0  0  0  0  0  0  0  0  0  0  0
   11.4531  -15.8359   29.5544 C   0  0  2  0  0  0  0  0  0  0  0  0
   10.3271  -15.9440   27.3327 N   0  0  0  0  0  0  0  0  0  0  0  0
    9.5180  -15.1027   26.4053 C   0  0  0  0  0  0  0  0  0  0  0  0
    9.7273  -17.2615   27.4327 O   0  0  0  0  0  0  0  0  0  0  0  0
    8.5173  -17.5292   27.5517 O   0  0  0  0  0  0  0  0  0  0  0  0
  2  4  1  0
  2  1  1  0
  3  2  2  0
  5  4  1  0
  6  5  1  0
  7  6  1  0
  8 10  1  0
  8  7  1  0
  8  9  1  1
 10 11  2  0
 13 12  1  0
 14 13  1  0
 14 16  1  0
 14 15  1  6
 16 18  1  0
 17 10  1  0
 16 17  1  1
 18 19  2  0
 20 21  1  0
 21 22  1  0
 22 24  1  0
 22 23  1  1
 24 26  1  0
 25 18  1  0
 24 25  1  6
 26 27  2  0
 26 28  1  0
M  END
$$$$
