RII.pdb
     RDKit          3D

 28 27  0  0  1  0  0  0  0  0999 V2000
    4.6179  -19.2995   19.6719 N   0  0  0  0  0  0  0  0  0  0  0  0
    5.6212  -19.7927   18.7980 C   0  0  0  0  0  0  0  0  0  0  0  0
    5.3642  -20.3776   17.6939 N   0  0  0  0  0  0  0  0  0  0  0  0
    6.9730  -19.6056   19.2085 N   0  0  0  0  0  0  0  0  0  0  0  0
    7.2859  -18.9876   20.4665 C   0  0  0  0  0  0  0  0  0  0  0  0
    7.3818  -17.4655   20.3486 C   0  0  0  0  0  0  0  0  0  0  0  0
    7.7782  -16.9652   21.7156 C   0  0  0  0  0  0  0  0  0  0  0  0
    7.8011  -15.4360   21.7637 C   0  0  2  0  0  0  0  0  0  0  0  0
    8.6837  -15.0369   20.6756 N   0  0  0  0  0  0  0  0  0  0  0  0
    8.3922  -15.0315   23.0605 C   0  0  0  0  0  0  0  0  0  0  0  0
    9.6278  -15.0348   23.1964 O   0  0  0  0  0  0  0  0  0  0  0  0
    6.0769  -20.7622   17.0524 C   0  0  0  0  0  0  0  0  0  0  0  0
    6.0946  -11.3133   26.5203 C   0  0  0  0  0  0  0  0  0  0  0  0
    7.0653  -12.1019   25.6702 C   0  0  2  0  0  0  0  0  0  0  0  0
    7.4573  -13.4144   26.3217 C   0  0  0  0  0  0  0  0  0  0  0  0
    8.1300  -13.1559   27.6399 C   0  0  2  0  0  0  0  0  0  0  0  0
    8.2513  -14.3011   25.4091 N   0  0  0  0  0  0  0  0  0  0  0  0
    7.6377  -14.6334   24.1799 C   0  0  0  0  0  0  0  0  0  0  0  0
    8.6617  -15.4889   26.1884 O   0  0  0  0  0  0  0  0  0  0  0  0
    7.7882  -16.2575   26.6258 C   0  0  0  0  0  0  0  0  0  0  0  0
   13.2067  -19.3964   25.7795 C   0  0  0  0  0  0  0  0  0  0  0  0
   12.1739  -18.8273   26.6946 C   0  0  2  0  0  0  0  0  0  0  0  0
   11.4591  -17.6097   26.2679 C   0  0  0  0  0  0  0  0  0  0  0  0
   12.4664  -16.5473   25.7655 C   0  0  2  0  0  0  0  0  0  0  0  0
   10.4295  -17.0125   27.1257 N   0  0  0  0  0  0  0  0  0  0  0  0
   10.0139  -15.7566   26.4383 C   0  0  0  0  0  0  0  0  0  0  0  0
   10.6846  -16.7315   28.5262 O   0  0  0  0  0  0  0  0  0  0  0  0
   10.9094  -15.6205   29.0408 O   0  0  0  0  0  0  0  0  0  0  0  0
  2  4  1  0
  2  1  1  0
  3  2  2  0
  5  4  1  0
  6  5  1  0
  7  6  1  0
  8 10  1  0
  8  7  1  0
  8  9  1  6
 10 11  2  0
 13 12  1  0
 14 13  1  0
 14 16  1  0
 14 15  1  6
 16 18  1  0
 17 10  1  0
 16 17  1  6
 18 19  2  0
 20 21  1  0
 21 22  1  0
 22 24  1  0
 22 23  1  6
 24 26  1  0
 25 18  1  0
 24 25  1  1
 26 27  2  0
 26 28  1  0
M  END
$$$$
