RII.pdb
     RDKit          3D

 28 27  0  0  1  0  0  0  0  0999 V2000
    7.7767  -21.3013   19.7104 N   0  0  0  0  0  0  0  0  0  0  0  0
    8.5836  -21.2096   18.5466 C   0  0  0  0  0  0  0  0  0  0  0  0
    8.6126  -22.1072   17.6408 N   0  0  0  0  0  0  0  0  0  0  0  0
    9.3879  -20.0403   18.4184 N   0  0  0  0  0  0  0  0  0  0  0  0
    9.6994  -19.2271   19.5603 C   0  0  0  0  0  0  0  0  0  0  0  0
    8.5271  -18.3298   19.9613 C   0  0  0  0  0  0  0  0  0  0  0  0
    8.9907  -17.5522   21.1683 C   0  0  0  0  0  0  0  0  0  0  0  0
    8.5010  -16.1033   21.1187 C   0  0  2  0  0  0  0  0  0  0  0  0
    9.2492  -15.4887   20.0303 N   0  0  0  0  0  0  0  0  0  0  0  0
    8.8639  -15.4576   22.4016 C   0  0  0  0  0  0  0  0  0  0  0  0
    9.9646  -14.8902   22.5104 O   0  0  0  0  0  0  0  0  0  0  0  0
    9.1486  -22.0370   16.7604 C   0  0  0  0  0  0  0  0  0  0  0  0
    5.4319  -12.3436   25.1009 C   0  0  0  0  0  0  0  0  0  0  0  0
    6.6325  -12.9996   24.4567 C   0  0  2  0  0  0  0  0  0  0  0  0
    7.3219  -13.9724   25.3945 C   0  0  0  0  0  0  0  0  0  0  0  0
    7.7847  -13.2567   26.6317 C   0  0  2  0  0  0  0  0  0  0  0  0
    8.4048  -14.7606   24.7196 N   0  0  0  0  0  0  0  0  0  0  0  0
    8.0320  -15.4388   23.5368 C   0  0  0  0  0  0  0  0  0  0  0  0
    9.0018  -15.6560   25.7338 O   0  0  0  0  0  0  0  0  0  0  0  0
    8.8776  -16.8860   25.6039 C   0  0  0  0  0  0  0  0  0  0  0  0
   11.0419  -13.0485   30.1641 C   0  0  0  0  0  0  0  0  0  0  0  0
   11.0051  -13.8164   28.8846 C   0  0  2  0  0  0  0  0  0  0  0  0
   10.7299  -15.2640   28.9479 C   0  0  0  0  0  0  0  0  0  0  0  0
   11.7576  -15.9634   29.8703 C   0  0  2  0  0  0  0  0  0  0  0  0
   10.4990  -16.0317   27.7192 N   0  0  0  0  0  0  0  0  0  0  0  0
    9.7007  -15.1384   26.8321 C   0  0  0  0  0  0  0  0  0  0  0  0
    9.8850  -17.3460   27.7553 O   0  0  0  0  0  0  0  0  0  0  0  0
    8.6864  -17.6097   27.9643 O   0  0  0  0  0  0  0  0  0  0  0  0
  2  4  1  0
  2  1  1  0
  3  2  2  0
  5  4  1  0
  6  5  1  0
  7  6  1  0
  8 10  1  0
  8  7  1  0
  8  9  1  6
 10 11  2  0
 13 12  1  0
 14 13  1  0
 14 16  1  0
 14 15  1  1
 16 18  1  0
 17 10  1  0
 16 17  1  6
 18 19  2  0
 20 21  1  0
 21 22  1  0
 22 24  1  0
 22 23  1  1
 24 26  1  0
 25 18  1  0
 24 25  1  6
 26 27  2  0
 26 28  1  0
M  END
$$$$
