RII.pdb
     RDKit          3D

 28 27  0  0  1  0  0  0  0  0999 V2000
   11.1643  -23.3637   20.9452 N   0  0  0  0  0  0  0  0  0  0  0  0
   11.0531  -23.0715   19.5611 C   0  0  0  0  0  0  0  0  0  0  0  0
   11.8152  -23.5798   18.6734 N   0  0  0  0  0  0  0  0  0  0  0  0
   10.0251  -22.1602   19.1819 N   0  0  0  0  0  0  0  0  0  0  0  0
    9.8539  -20.9103   19.8680 C   0  0  0  0  0  0  0  0  0  0  0  0
   11.1899  -20.2118   20.1274 C   0  0  0  0  0  0  0  0  0  0  0  0
   10.8616  -18.9554   20.8956 C   0  0  0  0  0  0  0  0  0  0  0  0
   10.5841  -17.7828   19.9525 C   0  0  2  0  0  0  0  0  0  0  0  0
   11.8483  -17.5389   19.2708 N   0  0  0  0  0  0  0  0  0  0  0  0
   10.2288  -16.6078   20.7817 C   0  0  0  0  0  0  0  0  0  0  0  0
   11.1321  -15.9377   21.3111 O   0  0  0  0  0  0  0  0  0  0  0  0
   11.8000  -24.5712   18.3831 C   0  0  0  0  0  0  0  0  0  0  0  0
    6.4945  -12.7992   19.5252 C   0  0  0  0  0  0  0  0  0  0  0  0
    7.7042  -13.5679   20.0073 C   0  0  2  0  0  0  0  0  0  0  0  0
    7.4721  -14.2022   21.3655 C   0  0  0  0  0  0  0  0  0  0  0  0
    7.0743  -13.1527   22.3643 C   0  0  2  0  0  0  0  0  0  0  0  0
    8.6255  -15.0488   21.8154 N   0  0  0  0  0  0  0  0  0  0  0  0
    8.9084  -16.1831   21.0210 C   0  0  0  0  0  0  0  0  0  0  0  0
    8.4043  -15.3825   23.2389 O   0  0  0  0  0  0  0  0  0  0  0  0
    7.6355  -16.3149   23.5299 C   0  0  0  0  0  0  0  0  0  0  0  0
    7.6450  -12.5051   28.4150 C   0  0  0  0  0  0  0  0  0  0  0  0
    8.3448  -13.6757   27.8084 C   0  0  2  0  0  0  0  0  0  0  0  0
    8.3883  -13.7767   26.3376 C   0  0  0  0  0  0  0  0  0  0  0  0
    7.0632  -13.2597   25.7272 C   0  0  2  0  0  0  0  0  0  0  0  0
    8.8323  -15.0160   25.6899 N   0  0  0  0  0  0  0  0  0  0  0  0
    9.0461  -14.6652   24.2569 C   0  0  0  0  0  0  0  0  0  0  0  0
    8.0479  -16.2339   25.7743 O   0  0  0  0  0  0  0  0  0  0  0  0
    7.0835  -16.5576   25.0567 O   0  0  0  0  0  0  0  0  0  0  0  0
  2  4  1  0
  2  1  1  0
  3  2  2  0
  5  4  1  0
  6  5  1  0
  7  6  1  0
  8 10  1  0
  8  7  1  0
  8  9  1  1
 10 11  2  0
 13 12  1  0
 14 13  1  0
 14 16  1  0
 14 15  1  1
 16 18  1  0
 17 10  1  0
 16 17  1  1
 18 19  2  0
 20 21  1  0
 21 22  1  0
 22 24  1  0
 22 23  1  6
 24 26  1  0
 25 18  1  0
 24 25  1  1
 26 27  2  0
 26 28  1  0
M  END
$$$$
