RII.pdb
     RDKit          3D

 28 27  0  0  1  0  0  0  0  0999 V2000
   13.5439  -21.6862   17.9969 N   0  0  0  0  0  0  0  0  0  0  0  0
   14.7159  -21.5656   18.7879 C   0  0  0  0  0  0  0  0  0  0  0  0
   15.8684  -21.9479   18.3971 N   0  0  0  0  0  0  0  0  0  0  0  0
   14.5574  -20.9819   20.0782 N   0  0  0  0  0  0  0  0  0  0  0  0
   13.2662  -20.5645   20.5484 C   0  0  0  0  0  0  0  0  0  0  0  0
   12.8360  -19.2318   19.9329 C   0  0  0  0  0  0  0  0  0  0  0  0
   11.4836  -18.9169   20.5230 C   0  0  0  0  0  0  0  0  0  0  0  0
   10.8656  -17.6790   19.8695 C   0  0  2  0  0  0  0  0  0  0  0  0
   11.9059  -17.1543   18.9950 N   0  0  0  0  0  0  0  0  0  0  0  0
   10.5720  -16.6990   20.9408 C   0  0  0  0  0  0  0  0  0  0  0  0
   11.5038  -16.0524   21.4496 O   0  0  0  0  0  0  0  0  0  0  0  0
   16.7337  -21.8729   18.9564 C   0  0  0  0  0  0  0  0  0  0  0  0
    6.6774  -13.0650   20.5220 C   0  0  0  0  0  0  0  0  0  0  0  0
    7.9530  -13.8122   20.8406 C   0  0  2  0  0  0  0  0  0  0  0  0
    7.8671  -14.5476   22.1645 C   0  0  0  0  0  0  0  0  0  0  0  0
    7.6097  -13.5745   23.2799 C   0  0  2  0  0  0  0  0  0  0  0  0
    9.0473  -15.4400   22.4103 N   0  0  0  0  0  0  0  0  0  0  0  0
    9.2814  -16.4392   21.4385 C   0  0  0  0  0  0  0  0  0  0  0  0
    8.9155  -15.9857   23.7783 O   0  0  0  0  0  0  0  0  0  0  0  0
    8.2237  -17.0022   23.9607 C   0  0  0  0  0  0  0  0  0  0  0  0
    9.4984  -12.8552   28.5986 C   0  0  0  0  0  0  0  0  0  0  0  0
    9.0054  -13.8346   27.5859 C   0  0  2  0  0  0  0  0  0  0  0  0
    9.9230  -14.9010   27.1429 C   0  0  0  0  0  0  0  0  0  0  0  0
   11.2615  -14.2891   26.6634 C   0  0  1  0  0  0  0  0  0  0  0  0
    9.4562  -15.9541   26.2342 N   0  0  0  0  0  0  0  0  0  0  0  0
    9.5563  -15.3750   24.8642 C   0  0  0  0  0  0  0  0  0  0  0  0
    8.1534  -16.5710   26.4008 O   0  0  0  0  0  0  0  0  0  0  0  0
    7.0882  -16.2376   25.8494 O   0  0  0  0  0  0  0  0  0  0  0  0
  2  4  1  0
  2  1  1  0
  3  2  2  0
  5  4  1  0
  6  5  1  0
  7  6  1  0
  8 10  1  0
  8  7  1  0
  8  9  1  6
 10 11  2  0
 13 12  1  0
 14 13  1  0
 14 16  1  0
 14 15  1  1
 16 18  1  0
 17 10  1  0
 16 17  1  1
 18 19  2  0
 20 21  1  0
 21 22  1  0
 22 24  1  0
 22 23  1  1
 24 26  1  0
 25 18  1  0
 24 25  1  6
 26 27  2  0
 26 28  1  0
M  END
$$$$
