RII.pdb
     RDKit          3D

 28 27  0  0  1  0  0  0  0  0999 V2000
   14.5856  -14.6166   18.5233 N   0  0  0  0  0  0  0  0  0  0  0  0
   14.0984  -14.3217   19.8231 C   0  0  0  0  0  0  0  0  0  0  0  0
   14.8583  -14.1067   20.8249 N   0  0  0  0  0  0  0  0  0  0  0  0
   12.6827  -14.2709   19.9775 N   0  0  0  0  0  0  0  0  0  0  0  0
   11.8101  -14.8667   19.0049 C   0  0  0  0  0  0  0  0  0  0  0  0
   10.8107  -13.8570   18.4375 C   0  0  0  0  0  0  0  0  0  0  0  0
    9.8403  -13.5582   19.5534 C   0  0  0  0  0  0  0  0  0  0  0  0
    8.4935  -14.2457   19.3190 C   0  0  2  0  0  0  0  0  0  0  0  0
    7.6612  -13.2372   18.6768 N   0  0  0  0  0  0  0  0  0  0  0  0
    7.9255  -14.5940   20.6420 C   0  0  0  0  0  0  0  0  0  0  0  0
    7.2906  -13.7362   21.2795 O   0  0  0  0  0  0  0  0  0  0  0  0
   14.5318  -14.0090   21.8002 C   0  0  0  0  0  0  0  0  0  0  0  0
    5.8053  -19.5752   21.5871 C   0  0  0  0  0  0  0  0  0  0  0  0
    6.0518  -18.0848   21.5179 C   0  0  2  0  0  0  0  0  0  0  0  0
    6.9798  -17.6089   22.6194 C   0  0  0  0  0  0  0  0  0  0  0  0
    6.3806  -17.9077   23.9643 C   0  0  2  0  0  0  0  0  0  0  0  0
    7.3911  -16.1762   22.4532 N   0  0  0  0  0  0  0  0  0  0  0  0
    8.0552  -15.8583   21.2467 C   0  0  0  0  0  0  0  0  0  0  0  0
    8.1630  -15.7923   23.6547 O   0  0  0  0  0  0  0  0  0  0  0  0
    9.3863  -16.0107   23.6837 C   0  0  0  0  0  0  0  0  0  0  0  0
    5.9256  -11.7767   26.6255 C   0  0  0  0  0  0  0  0  0  0  0  0
    6.9009  -12.6507   25.9093 C   0  0  2  0  0  0  0  0  0  0  0  0
    7.4914  -13.7849   26.6443 C   0  0  0  0  0  0  0  0  0  0  0  0
    8.1688  -13.2852   27.9433 C   0  0  2  0  0  0  0  0  0  0  0  0
    8.3251  -14.7702   25.9468 N   0  0  0  0  0  0  0  0  0  0  0  0
    7.5364  -15.1899   24.7534 C   0  0  0  0  0  0  0  0  0  0  0  0
    8.8295  -15.9482   26.6276 O   0  0  0  0  0  0  0  0  0  0  0  0
    8.2321  -17.0255   26.8075 O   0  0  0  0  0  0  0  0  0  0  0  0
  2  4  1  0
  2  1  1  0
  3  2  2  0
  5  4  1  0
  6  5  1  0
  7  6  1  0
  8 10  1  0
  8  7  1  0
  8  9  1  1
 10 11  2  0
 13 12  1  0
 14 13  1  0
 14 16  1  0
 14 15  1  6
 16 18  1  0
 17 10  1  0
 16 17  1  1
 18 19  2  0
 20 21  1  0
 21 22  1  0
 22 24  1  0
 22 23  1  1
 24 26  1  0
 25 18  1  0
 24 25  1  6
 26 27  2  0
 26 28  1  0
M  END
$$$$
