RII.pdb
     RDKit          3D

 28 27  0  0  1  0  0  0  0  0999 V2000
   10.6673  -23.1280   16.4252 N   0  0  0  0  0  0  0  0  0  0  0  0
   11.1616  -22.7359   15.1541 C   0  0  0  0  0  0  0  0  0  0  0  0
   11.3820  -23.5572   14.2034 N   0  0  0  0  0  0  0  0  0  0  0  0
   11.4115  -21.3453   14.9680 N   0  0  0  0  0  0  0  0  0  0  0  0
   11.2447  -20.4123   16.0469 C   0  0  0  0  0  0  0  0  0  0  0  0
    9.8949  -19.6956   15.9807 C   0  0  0  0  0  0  0  0  0  0  0  0
    9.7942  -18.8777   17.2445 C   0  0  0  0  0  0  0  0  0  0  0  0
    9.5578  -17.3984   16.9329 C   0  0  2  0  0  0  0  0  0  0  0  0
   10.5681  -17.0550   15.9411 N   0  0  0  0  0  0  0  0  0  0  0  0
    9.7961  -16.6290   18.1761 C   0  0  0  0  0  0  0  0  0  0  0  0
   10.9582  -16.4890   18.5948 O   0  0  0  0  0  0  0  0  0  0  0  0
   11.7529  -23.2963   13.2751 C   0  0  0  0  0  0  0  0  0  0  0  0
    6.8171  -12.2019   19.7050 C   0  0  0  0  0  0  0  0  0  0  0  0
    7.9659  -13.1464   19.4310 C   0  0  2  0  0  0  0  0  0  0  0  0
    8.0734  -14.2333   20.4836 C   0  0  0  0  0  0  0  0  0  0  0  0
    8.3260  -13.6225   21.8327 C   0  0  2  0  0  0  0  0  0  0  0  0
    9.0606  -15.3011   20.1165 N   0  0  0  0  0  0  0  0  0  0  0  0
    8.7766  -16.0289   18.9386 C   0  0  0  0  0  0  0  0  0  0  0  0
    9.2396  -16.1682   21.3009 O   0  0  0  0  0  0  0  0  0  0  0  0
    8.3981  -17.0520   21.5371 C   0  0  0  0  0  0  0  0  0  0  0  0
   14.0071  -18.2556   22.0917 C   0  0  0  0  0  0  0  0  0  0  0  0
   12.5471  -17.9451   22.0881 C   0  0  2  0  0  0  0  0  0  0  0  0
   11.9722  -17.2831   23.2741 C   0  0  0  0  0  0  0  0  0  0  0  0
   12.4035  -18.0255   24.5620 C   0  0  2  0  0  0  0  0  0  0  0  0
   10.5499  -16.9248   23.3097 N   0  0  0  0  0  0  0  0  0  0  0  0
   10.3386  -16.0065   22.1546 C   0  0  0  0  0  0  0  0  0  0  0  0
    9.9467  -16.3492   24.4974 O   0  0  0  0  0  0  0  0  0  0  0  0
    9.7962  -15.1402   24.7529 O   0  0  0  0  0  0  0  0  0  0  0  0
  2  4  1  0
  2  1  1  0
  3  2  2  0
  5  4  1  0
  6  5  1  0
  7  6  1  0
  8 10  1  0
  8  7  1  0
  8  9  1  6
 10 11  2  0
 13 12  1  0
 14 13  1  0
 14 16  1  0
 14 15  1  6
 16 18  1  0
 17 10  1  0
 16 17  1  6
 18 19  2  0
 20 21  1  0
 21 22  1  0
 22 24  1  0
 22 23  1  1
 24 26  1  0
 25 18  1  0
 24 25  1  6
 26 27  2  0
 26 28  1  0
M  END
$$$$
