RII.pdb
     RDKit          3D

 28 27  0  0  1  0  0  0  0  0999 V2000
   10.6680  -18.9727   17.7153 N   0  0  0  0  0  0  0  0  0  0  0  0
    9.9793  -20.2131   17.7404 C   0  0  0  0  0  0  0  0  0  0  0  0
    9.8452  -20.9618   16.7164 N   0  0  0  0  0  0  0  0  0  0  0  0
    9.4236  -20.6092   18.9915 N   0  0  0  0  0  0  0  0  0  0  0  0
    9.5467  -19.7745   20.1536 C   0  0  0  0  0  0  0  0  0  0  0  0
    8.9636  -18.3795   19.9211 C   0  0  0  0  0  0  0  0  0  0  0  0
    9.1252  -17.6372   21.2246 C   0  0  0  0  0  0  0  0  0  0  0  0
    8.4549  -16.2627   21.1693 C   0  0  2  0  0  0  0  0  0  0  0  0
    9.0683  -15.5886   20.0329 N   0  0  0  0  0  0  0  0  0  0  0  0
    8.7923  -15.5427   22.4191 C   0  0  0  0  0  0  0  0  0  0  0  0
    9.9283  -15.0570   22.5570 O   0  0  0  0  0  0  0  0  0  0  0  0
    9.2230  -21.7851   16.6673 C   0  0  0  0  0  0  0  0  0  0  0  0
    5.8302  -11.7541   25.2635 C   0  0  0  0  0  0  0  0  0  0  0  0
    7.0441  -12.4777   24.7254 C   0  0  2  0  0  0  0  0  0  0  0  0
    7.1932  -13.8636   25.3239 C   0  0  0  0  0  0  0  0  0  0  0  0
    7.3456  -13.7682   26.8155 C   0  0  2  0  0  0  0  0  0  0  0  0
    8.2727  -14.6682   24.6630 N   0  0  0  0  0  0  0  0  0  0  0  0
    7.8977  -15.3633   23.4908 C   0  0  0  0  0  0  0  0  0  0  0  0
    8.8639  -15.5502   25.6920 O   0  0  0  0  0  0  0  0  0  0  0  0
    8.2642  -16.5898   26.0157 C   0  0  0  0  0  0  0  0  0  0  0  0
   10.5873  -13.1780   29.9109 C   0  0  0  0  0  0  0  0  0  0  0  0
   10.7307  -13.8974   28.6109 C   0  0  2  0  0  0  0  0  0  0  0  0
   10.5716  -15.3636   28.6041 C   0  0  0  0  0  0  0  0  0  0  0  0
   11.4383  -16.0002   29.7175 C   0  0  2  0  0  0  0  0  0  0  0  0
   10.6692  -16.1167   27.3488 N   0  0  0  0  0  0  0  0  0  0  0  0
   10.0835  -15.2305   26.3029 C   0  0  0  0  0  0  0  0  0  0  0  0
   10.1048  -17.4474   27.2218 O   0  0  0  0  0  0  0  0  0  0  0  0
    8.9111  -17.7417   27.0256 O   0  0  0  0  0  0  0  0  0  0  0  0
  2  4  1  0
  2  1  1  0
  3  2  2  0
  5  4  1  0
  6  5  1  0
  7  6  1  0
  8 10  1  0
  8  7  1  0
  8  9  1  6
 10 11  2  0
 13 12  1  0
 14 13  1  0
 14 16  1  0
 14 15  1  6
 16 18  1  0
 17 10  1  0
 16 17  1  1
 18 19  2  0
 20 21  1  0
 21 22  1  0
 22 24  1  0
 22 23  1  1
 24 26  1  0
 25 18  1  0
 24 25  1  6
 26 27  2  0
 26 28  1  0
M  END
$$$$
