RII.pdb
     RDKit          3D

 28 27  0  0  1  0  0  0  0  0999 V2000
    7.1198  -18.9932   17.0556 N   0  0  0  0  0  0  0  0  0  0  0  0
    8.2104  -19.1330   17.9526 C   0  0  0  0  0  0  0  0  0  0  0  0
    9.3545  -19.5754   17.6024 N   0  0  0  0  0  0  0  0  0  0  0  0
    7.9776  -18.7486   19.3049 N   0  0  0  0  0  0  0  0  0  0  0  0
    6.6883  -18.2799   19.7298 C   0  0  0  0  0  0  0  0  0  0  0  0
    6.6410  -16.7548   19.8394 C   0  0  0  0  0  0  0  0  0  0  0  0
    7.4960  -16.3954   21.0294 C   0  0  0  0  0  0  0  0  0  0  0  0
    7.3715  -14.9101   21.3760 C   0  0  2  0  0  0  0  0  0  0  0  0
    8.0993  -14.2142   20.3233 N   0  0  0  0  0  0  0  0  0  0  0  0
    8.0435  -14.6900   22.6777 C   0  0  0  0  0  0  0  0  0  0  0  0
    9.2851  -14.6550   22.7262 O   0  0  0  0  0  0  0  0  0  0  0  0
   10.1484  -19.7272   18.2457 C   0  0  0  0  0  0  0  0  0  0  0  0
    5.6738  -11.7547   26.6150 C   0  0  0  0  0  0  0  0  0  0  0  0
    6.7947  -12.2612   25.7352 C   0  0  2  0  0  0  0  0  0  0  0  0
    7.3155  -13.6095   26.1955 C   0  0  0  0  0  0  0  0  0  0  0  0
    8.1071  -13.4520   27.4626 C   0  0  2  0  0  0  0  0  0  0  0  0
    8.0536  -14.3455   25.1171 N   0  0  0  0  0  0  0  0  0  0  0  0
    7.3615  -14.5131   23.8961 C   0  0  0  0  0  0  0  0  0  0  0  0
    8.5250  -15.6235   25.6927 O   0  0  0  0  0  0  0  0  0  0  0  0
    7.6945  -16.5065   25.9678 C   0  0  0  0  0  0  0  0  0  0  0  0
   12.7122  -17.5747   23.2326 C   0  0  0  0  0  0  0  0  0  0  0  0
   11.4780  -17.3194   24.0322 C   0  0  2  0  0  0  0  0  0  0  0  0
   11.5569  -17.4547   25.4988 C   0  0  0  0  0  0  0  0  0  0  0  0
   12.2402  -18.7913   25.8761 C   0  0  2  0  0  0  0  0  0  0  0  0
   10.3783  -17.1978   26.3340 N   0  0  0  0  0  0  0  0  0  0  0  0
    9.8870  -15.8494   25.9305 C   0  0  0  0  0  0  0  0  0  0  0  0
   10.4498  -17.2694   27.7816 O   0  0  0  0  0  0  0  0  0  0  0  0
   10.7016  -16.3381   28.5684 O   0  0  0  0  0  0  0  0  0  0  0  0
  2  4  1  0
  2  1  1  0
  3  2  2  0
  5  4  1  0
  6  5  1  0
  7  6  1  0
  8 10  1  0
  8  7  1  0
  8  9  1  6
 10 11  2  0
 13 12  1  0
 14 13  1  0
 14 16  1  0
 14 15  1  6
 16 18  1  0
 17 10  1  0
 16 17  1  6
 18 19  2  0
 20 21  1  0
 21 22  1  0
 22 24  1  0
 22 23  1  1
 24 26  1  0
 25 18  1  0
 24 25  1  6
 26 27  2  0
 26 28  1  0
M  END
$$$$
