RII.pdb
     RDKit          3D

 28 27  0  0  1  0  0  0  0  0999 V2000
    8.8467  -18.2775   17.3302 N   0  0  0  0  0  0  0  0  0  0  0  0
    8.0124  -19.4241   17.3839 C   0  0  0  0  0  0  0  0  0  0  0  0
    7.7290  -20.1338   16.3626 N   0  0  0  0  0  0  0  0  0  0  0  0
    7.4839  -19.7692   18.6616 N   0  0  0  0  0  0  0  0  0  0  0  0
    7.6700  -18.9093   19.7966 C   0  0  0  0  0  0  0  0  0  0  0  0
    9.1257  -18.8880   20.2663 C   0  0  0  0  0  0  0  0  0  0  0  0
    9.1513  -18.0296   21.5068 C   0  0  0  0  0  0  0  0  0  0  0  0
    9.2750  -16.5457   21.1544 C   0  0  2  0  0  0  0  0  0  0  0  0
   10.5123  -16.4401   20.3928 N   0  0  0  0  0  0  0  0  0  0  0  0
    9.4014  -15.7876   22.4208 C   0  0  0  0  0  0  0  0  0  0  0  0
   10.5209  -15.6560   22.9451 O   0  0  0  0  0  0  0  0  0  0  0  0
    7.1874  -21.0132   16.3896 C   0  0  0  0  0  0  0  0  0  0  0  0
    6.4515  -12.1630   26.5640 C   0  0  0  0  0  0  0  0  0  0  0  0
    7.6284  -12.9928   26.1024 C   0  0  2  0  0  0  0  0  0  0  0  0
    7.2936  -13.8260   24.8799 C   0  0  0  0  0  0  0  0  0  0  0  0
    6.0797  -14.6700   25.1469 C   0  0  2  0  0  0  0  0  0  0  0  0
    8.4672  -14.6104   24.3729 N   0  0  0  0  0  0  0  0  0  0  0  0
    8.3186  -15.1895   23.0922 C   0  0  0  0  0  0  0  0  0  0  0  0
    8.8262  -15.5975   25.4138 O   0  0  0  0  0  0  0  0  0  0  0  0
    8.7755  -16.8094   25.1422 C   0  0  0  0  0  0  0  0  0  0  0  0
   10.6216  -13.0782   29.9989 C   0  0  0  0  0  0  0  0  0  0  0  0
   10.6887  -13.8622   28.7305 C   0  0  2  0  0  0  0  0  0  0  0  0
   10.3227  -15.2903   28.7734 C   0  0  0  0  0  0  0  0  0  0  0  0
   11.2570  -16.0525   29.7440 C   0  0  2  0  0  0  0  0  0  0  0  0
   10.1087  -16.0411   27.5311 N   0  0  0  0  0  0  0  0  0  0  0  0
    9.2197  -15.1861   26.6939 C   0  0  0  0  0  0  0  0  0  0  0  0
    9.5929  -17.3973   27.5489 O   0  0  0  0  0  0  0  0  0  0  0  0
    8.3994  -17.7465   27.6071 O   0  0  0  0  0  0  0  0  0  0  0  0
  2  4  1  0
  2  1  1  0
  3  2  2  0
  5  4  1  0
  6  5  1  0
  7  6  1  0
  8 10  1  0
  8  7  1  0
  8  9  1  6
 10 11  2  0
 13 12  1  0
 14 13  1  0
 14 16  1  0
 14 15  1  6
 16 18  1  0
 17 10  1  0
 16 17  1  1
 18 19  2  0
 20 21  1  0
 21 22  1  0
 22 24  1  0
 22 23  1  1
 24 26  1  0
 25 18  1  0
 24 25  1  6
 26 27  2  0
 26 28  1  0
M  END
$$$$
