RII.pdb
     RDKit          3D

 28 27  0  0  1  0  0  0  0  0999 V2000
    9.3898  -14.5276   17.0134 N   0  0  0  0  0  0  0  0  0  0  0  0
    8.3996  -14.0354   16.1241 C   0  0  0  0  0  0  0  0  0  0  0  0
    8.6701  -13.5179   14.9900 N   0  0  0  0  0  0  0  0  0  0  0  0
    7.0454  -14.1428   16.5545 N   0  0  0  0  0  0  0  0  0  0  0  0
    6.7244  -14.5473   17.8945 C   0  0  0  0  0  0  0  0  0  0  0  0
    7.1250  -13.4888   18.9237 C   0  0  0  0  0  0  0  0  0  0  0  0
    6.6971  -14.0290   20.2659 C   0  0  0  0  0  0  0  0  0  0  0  0
    7.6233  -15.1533   20.7344 C   0  0  2  0  0  0  0  0  0  0  0  0
    6.7487  -16.2985   20.9489 N   0  0  0  0  0  0  0  0  0  0  0  0
    8.2268  -14.7374   22.0218 C   0  0  0  0  0  0  0  0  0  0  0  0
    9.1138  -13.8665   22.0277 O   0  0  0  0  0  0  0  0  0  0  0  0
    7.9831  -13.0445   14.3807 C   0  0  0  0  0  0  0  0  0  0  0  0
    5.3026  -12.8231   25.7943 C   0  0  0  0  0  0  0  0  0  0  0  0
    6.4158  -13.2104   24.8469 C   0  0  2  0  0  0  0  0  0  0  0  0
    7.3531  -14.2348   25.4576 C   0  0  0  0  0  0  0  0  0  0  0  0
    7.9563  -13.6934   26.7227 C   0  0  2  0  0  0  0  0  0  0  0  0
    8.3706  -14.7454   24.4812 N   0  0  0  0  0  0  0  0  0  0  0  0
    7.8602  -15.2699   23.2720 C   0  0  0  0  0  0  0  0  0  0  0  0
    9.2399  -15.7000   25.2022 O   0  0  0  0  0  0  0  0  0  0  0  0
    9.4610  -16.8156   24.7005 C   0  0  0  0  0  0  0  0  0  0  0  0
   11.0822  -13.5481   29.8208 C   0  0  0  0  0  0  0  0  0  0  0  0
   11.2654  -14.1985   28.4898 C   0  0  2  0  0  0  0  0  0  0  0  0
   11.0853  -15.6594   28.3970 C   0  0  0  0  0  0  0  0  0  0  0  0
   12.2472  -16.3876   29.1151 C   0  0  2  0  0  0  0  0  0  0  0  0
   10.7680  -16.2896   27.1106 N   0  0  0  0  0  0  0  0  0  0  0  0
    9.8132  -15.3648   26.4357 C   0  0  0  0  0  0  0  0  0  0  0  0
   10.2541  -17.6448   27.0412 O   0  0  0  0  0  0  0  0  0  0  0  0
    9.0862  -18.0176   27.2577 O   0  0  0  0  0  0  0  0  0  0  0  0
  2  4  1  0
  2  1  1  0
  3  2  2  0
  5  4  1  0
  6  5  1  0
  7  6  1  0
  8 10  1  0
  8  7  1  0
  8  9  1  1
 10 11  2  0
 13 12  1  0
 14 13  1  0
 14 16  1  0
 14 15  1  1
 16 18  1  0
 17 10  1  0
 16 17  1  6
 18 19  2  0
 20 21  1  0
 21 22  1  0
 22 24  1  0
 22 23  1  1
 24 26  1  0
 25 18  1  0
 24 25  1  6
 26 27  2  0
 26 28  1  0
M  END
$$$$
