HFV.pdb
     RDKit          3D

 29 30  0  0  1  0  0  0  0  0999 V2000
   27.3718  -23.8302  -17.0421 N   0  0  0  0  0  0  0  0  0  0  0  0
   27.4675  -22.4549  -16.6437 C   0  0  1  0  0  0  0  0  0  0  0  0
   26.8472  -21.5167  -17.6595 C   0  0  0  0  0  0  0  0  0  0  0  0
   27.6946  -21.3377  -18.8587 C   0  0  0  0  0  0  0  0  0  0  0  0
   28.7995  -20.4968  -18.8886 C   0  0  0  0  0  0  0  0  0  0  0  0
   29.3108  -20.5895  -20.1189 N   0  0  0  0  0  0  0  0  0  0  0  0
   28.5550  -21.4533  -20.8271 C   0  0  0  0  0  0  0  0  0  0  0  0
   27.5468  -21.9255  -20.0546 N   0  0  0  0  0  0  0  0  0  0  0  0
   26.7149  -22.2696  -15.3782 C   0  0  0  0  0  0  0  0  0  0  0  0
   25.6384  -22.8742  -15.2067 O   0  0  0  0  0  0  0  0  0  0  0  0
   27.1746  -21.4189  -14.3350 N   0  0  0  0  0  0  0  0  0  0  0  0
   26.4271  -21.3557  -13.0958 C   0  0  1  0  0  0  0  0  0  0  0  0
   27.2332  -20.7306  -11.9847 C   0  0  0  0  0  0  0  0  0  0  0  0
   26.4950  -20.5911  -10.7271 C   0  0  0  0  0  0  0  0  0  0  0  0
   26.1512  -21.7082  -10.0028 C   0  0  0  0  0  0  0  0  0  0  0  0
   25.4572  -21.6238   -8.8150 C   0  0  0  0  0  0  0  0  0  0  0  0
   25.0838  -20.4012   -8.3139 C   0  0  0  0  0  0  0  0  0  0  0  0
   25.4193  -19.2703   -9.0253 C   0  0  0  0  0  0  0  0  0  0  0  0
   26.1246  -19.3592  -10.2322 C   0  0  0  0  0  0  0  0  0  0  0  0
   25.1957  -20.5262  -13.2561 C   0  0  0  0  0  0  0  0  0  0  0  0
   25.2836  -19.3353  -13.6404 O   0  0  0  0  0  0  0  0  0  0  0  0
   21.3241  -21.9279  -14.2794 C   0  0  0  0  0  0  0  0  0  0  0  0
   21.9093  -20.5416  -14.3233 C   0  0  2  0  0  0  0  0  0  0  0  0
   22.7168  -20.2871  -15.5648 C   0  0  0  0  0  0  0  0  0  0  0  0
   22.7067  -20.2513  -13.0625 C   0  0  2  0  0  0  0  0  0  0  0  0
   23.8997  -21.0382  -12.9865 N   0  0  0  0  0  0  0  0  0  0  0  0
   21.8246  -20.3979  -11.8891 C   0  0  0  0  0  0  0  0  0  0  0  0
   22.0105  -21.3945  -11.1459 O   0  0  0  0  0  0  0  0  0  0  0  0
   20.8179  -19.5084  -11.5685 O   0  0  0  0  0  0  0  0  0  0  0  0
  2  1  1  6
  2  3  1  0
  4  8  1  0
  4  3  1  0
  5  4  2  0
  6  5  1  0
  6  7  1  0
  7  8  2  0
  9  2  1  0
 10  9  2  0
 11  9  1  0
 12 11  1  0
 12 13  1  1
 13 14  1  0
 14 15  2  0
 15 16  1  0
 17 16  2  0
 18 17  1  0
 19 14  1  0
 19 18  2  0
 20 12  1  0
 21 20  2  0
 23 22  1  1
 23 24  1  0
 23 25  1  0
 25 27  1  0
 25 26  1  1
 26 20  1  0
 27 29  1  0
 28 27  2  0
M  END
$$$$
