HFV.pdb
     RDKit          3D

 29 30  0  0  1  0  0  0  0  0999 V2000
   14.1508  -10.3119  -12.9197 N   0  0  0  0  0  0  0  0  0  0  0  0
   15.5854  -10.3500  -12.9199 C   0  0  1  0  0  0  0  0  0  0  0  0
   16.1529  -10.6573  -14.2911 C   0  0  0  0  0  0  0  0  0  0  0  0
   15.8905  -12.0500  -14.7151 C   0  0  0  0  0  0  0  0  0  0  0  0
   16.8706  -13.0336  -14.7390 C   0  0  0  0  0  0  0  0  0  0  0  0
   16.2754  -14.1489  -15.1697 N   0  0  0  0  0  0  0  0  0  0  0  0
   14.9767  -13.8715  -15.4047 C   0  0  0  0  0  0  0  0  0  0  0  0
   14.7248  -12.5695  -15.1259 N   0  0  0  0  0  0  0  0  0  0  0  0
   16.0998   -9.0119  -12.5366 C   0  0  0  0  0  0  0  0  0  0  0  0
   15.5554   -7.9878  -12.9931 O   0  0  0  0  0  0  0  0  0  0  0  0
   17.2049   -8.8430  -11.6570 N   0  0  0  0  0  0  0  0  0  0  0  0
   17.6817   -7.5049  -11.3728 C   0  0  1  0  0  0  0  0  0  0  0  0
   17.6893   -7.2137   -9.8929 C   0  0  0  0  0  0  0  0  0  0  0  0
   16.3553   -6.9965   -9.3279 C   0  0  0  0  0  0  0  0  0  0  0  0
   15.8822   -5.7176   -9.1509 C   0  0  0  0  0  0  0  0  0  0  0  0
   14.6340   -5.4669   -8.6230 C   0  0  0  0  0  0  0  0  0  0  0  0
   13.8147   -6.5049   -8.2532 C   0  0  0  0  0  0  0  0  0  0  0  0
   14.2712   -7.7935   -8.4229 C   0  0  0  0  0  0  0  0  0  0  0  0
   15.5402   -8.0452   -8.9596 C   0  0  0  0  0  0  0  0  0  0  0  0
   19.0828   -7.3230  -11.8566 C   0  0  0  0  0  0  0  0  0  0  0  0
   19.9976   -8.0701  -11.4338 O   0  0  0  0  0  0  0  0  0  0  0  0
   22.2464   -6.1417  -15.2955 C   0  0  0  0  0  0  0  0  0  0  0  0
   20.8310   -6.2932  -14.8060 C   0  0  2  0  0  0  0  0  0  0  0  0
   19.8681   -5.3791  -15.5099 C   0  0  0  0  0  0  0  0  0  0  0  0
   20.7609   -6.1316  -13.2964 C   0  0  2  0  0  0  0  0  0  0  0  0
   19.4332   -6.3182  -12.7958 N   0  0  0  0  0  0  0  0  0  0  0  0
   21.3587   -4.8361  -12.9213 C   0  0  0  0  0  0  0  0  0  0  0  0
   20.5745   -3.8792  -12.6992 O   0  0  0  0  0  0  0  0  0  0  0  0
   22.7181   -4.6226  -12.8030 O   0  0  0  0  0  0  0  0  0  0  0  0
  2  1  1  6
  2  3  1  0
  4  8  1  0
  4  3  1  0
  5  4  2  0
  6  5  1  0
  6  7  1  0
  7  8  2  0
  9  2  1  0
 10  9  2  0
 11  9  1  0
 12 11  1  0
 12 13  1  1
 13 14  1  0
 14 15  2  0
 15 16  1  0
 17 16  2  0
 18 17  1  0
 19 14  1  0
 19 18  2  0
 20 12  1  0
 21 20  2  0
 23 22  1  6
 23 24  1  0
 23 25  1  0
 25 27  1  0
 25 26  1  6
 26 20  1  0
 27 29  1  0
 28 27  2  0
M  END
$$$$
