HFV.pdb
     RDKit          3D

 29 30  0  0  1  0  0  0  0  0999 V2000
   28.4999  -21.3087  -15.0322 N   0  0  0  0  0  0  0  0  0  0  0  0
   27.7433  -20.2437  -14.4383 C   0  0  1  0  0  0  0  0  0  0  0  0
   27.1719  -19.2963  -15.4740 C   0  0  0  0  0  0  0  0  0  0  0  0
   28.2218  -18.5525  -16.2037 C   0  0  0  0  0  0  0  0  0  0  0  0
   28.9057  -17.4737  -15.6587 C   0  0  0  0  0  0  0  0  0  0  0  0
   29.7656  -17.0609  -16.5935 N   0  0  0  0  0  0  0  0  0  0  0  0
   29.6233  -17.8507  -17.6773 C   0  0  0  0  0  0  0  0  0  0  0  0
   28.6663  -18.7822  -17.4476 N   0  0  0  0  0  0  0  0  0  0  0  0
   26.5882  -20.8252  -13.7104 C   0  0  0  0  0  0  0  0  0  0  0  0
   26.0212  -21.8390  -14.1625 O   0  0  0  0  0  0  0  0  0  0  0  0
   26.0909  -20.2681  -12.4996 N   0  0  0  0  0  0  0  0  0  0  0  0
   24.9962  -20.9275  -11.8175 C   0  0  1  0  0  0  0  0  0  0  0  0
   24.9438  -20.5618  -10.3552 C   0  0  0  0  0  0  0  0  0  0  0  0
   26.1975  -20.8116   -9.6396 C   0  0  0  0  0  0  0  0  0  0  0  0
   27.1411  -21.6549  -10.1772 C   0  0  0  0  0  0  0  0  0  0  0  0
   28.3339  -21.9185   -9.5389 C   0  0  0  0  0  0  0  0  0  0  0  0
   28.6174  -21.3362   -8.3281 C   0  0  0  0  0  0  0  0  0  0  0  0
   27.6842  -20.4882   -7.7733 C   0  0  0  0  0  0  0  0  0  0  0  0
   26.4729  -20.2223   -8.4244 C   0  0  0  0  0  0  0  0  0  0  0  0
   23.6830  -20.5333  -12.4092 C   0  0  0  0  0  0  0  0  0  0  0  0
   23.4705  -19.3402  -12.7335 O   0  0  0  0  0  0  0  0  0  0  0  0
   20.7077  -23.4834  -13.6980 C   0  0  0  0  0  0  0  0  0  0  0  0
   20.9757  -22.1286  -14.2971 C   0  0  2  0  0  0  0  0  0  0  0  0
   21.9703  -22.1736  -15.4227 C   0  0  0  0  0  0  0  0  0  0  0  0
   21.3840  -21.1338  -13.2232 C   0  0  2  0  0  0  0  0  0  0  0  0
   22.6401  -21.4713  -12.6260 N   0  0  0  0  0  0  0  0  0  0  0  0
   20.2837  -20.9951  -12.2503 C   0  0  0  0  0  0  0  0  0  0  0  0
   20.4924  -21.3996  -11.0786 O   0  0  0  0  0  0  0  0  0  0  0  0
   19.0518  -20.4507  -12.5559 O   0  0  0  0  0  0  0  0  0  0  0  0
  2  1  1  6
  2  3  1  0
  4  8  1  0
  4  3  1  0
  5  4  2  0
  6  5  1  0
  6  7  1  0
  7  8  2  0
  9  2  1  0
 10  9  2  0
 11  9  1  0
 12 11  1  0
 12 13  1  1
 13 14  1  0
 14 15  2  0
 15 16  1  0
 17 16  2  0
 18 17  1  0
 19 14  1  0
 19 18  2  0
 20 12  1  0
 21 20  2  0
 23 22  1  1
 23 24  1  0
 23 25  1  0
 25 27  1  0
 25 26  1  1
 26 20  1  0
 27 29  1  0
 28 27  2  0
M  END
$$$$
