HFV.pdb
     RDKit          3D

 29 30  0  0  1  0  0  0  0  0999 V2000
   16.4965  -27.4118   -3.8593 N   0  0  0  0  0  0  0  0  0  0  0  0
   17.3211  -26.3488   -3.3596 C   0  0  1  0  0  0  0  0  0  0  0  0
   17.0534  -25.0334   -4.0629 C   0  0  0  0  0  0  0  0  0  0  0  0
   17.2551  -25.1203   -5.5258 C   0  0  0  0  0  0  0  0  0  0  0  0
   18.5008  -25.0035   -6.1285 C   0  0  0  0  0  0  0  0  0  0  0  0
   18.2978  -25.1319   -7.4422 N   0  0  0  0  0  0  0  0  0  0  0  0
   16.9788  -25.3212   -7.6498 C   0  0  0  0  0  0  0  0  0  0  0  0
   16.3195  -25.3160   -6.4659 N   0  0  0  0  0  0  0  0  0  0  0  0
   17.0092  -26.1352   -1.9246 C   0  0  0  0  0  0  0  0  0  0  0  0
   17.4883  -25.1504   -1.3293 O   0  0  0  0  0  0  0  0  0  0  0  0
   16.1742  -27.0187   -1.1859 N   0  0  0  0  0  0  0  0  0  0  0  0
   15.9450  -26.7609    0.2210 C   0  0  1  0  0  0  0  0  0  0  0  0
   14.7068  -27.4588    0.7256 C   0  0  0  0  0  0  0  0  0  0  0  0
   14.4196  -27.2019    2.1390 C   0  0  0  0  0  0  0  0  0  0  0  0
   13.8151  -26.0259    2.5163 C   0  0  0  0  0  0  0  0  0  0  0  0
   13.5266  -25.7426    3.8339 C   0  0  0  0  0  0  0  0  0  0  0  0
   13.8403  -26.6423    4.8227 C   0  0  0  0  0  0  0  0  0  0  0  0
   14.4464  -27.8263    4.4644 C   0  0  0  0  0  0  0  0  0  0  0  0
   14.7384  -28.1113    3.1245 C   0  0  0  0  0  0  0  0  0  0  0  0
   17.0867  -27.2543    1.0476 C   0  0  0  0  0  0  0  0  0  0  0  0
   17.5331  -28.4143    0.8773 O   0  0  0  0  0  0  0  0  0  0  0  0
   20.4505  -25.4150    4.0186 C   0  0  0  0  0  0  0  0  0  0  0  0
   20.0107  -25.9289    2.6737 C   0  0  2  0  0  0  0  0  0  0  0  0
   19.7287  -24.8277    1.6908 C   0  0  0  0  0  0  0  0  0  0  0  0
   18.8291  -26.8740    2.8162 C   0  0  2  0  0  0  0  0  0  0  0  0
   17.7035  -26.4496    2.0408 N   0  0  0  0  0  0  0  0  0  0  0  0
   18.5269  -27.0564    4.2486 C   0  0  0  0  0  0  0  0  0  0  0  0
   17.6022  -26.3600    4.7385 O   0  0  0  0  0  0  0  0  0  0  0  0
   19.1985  -27.9414    5.0690 O   0  0  0  0  0  0  0  0  0  0  0  0
  2  1  1  6
  2  3  1  0
  4  8  1  0
  4  3  1  0
  5  4  2  0
  6  5  1  0
  6  7  1  0
  7  8  2  0
  9  2  1  0
 10  9  2  0
 11  9  1  0
 12 11  1  0
 12 13  1  1
 13 14  1  0
 14 15  2  0
 15 16  1  0
 17 16  2  0
 18 17  1  0
 19 14  1  0
 19 18  2  0
 20 12  1  0
 21 20  2  0
 23 22  1  1
 23 24  1  0
 23 25  1  0
 25 27  1  0
 25 26  1  6
 26 20  1  0
 27 29  1  0
 28 27  2  0
M  END
$$$$
