HFV.pdb
     RDKit          3D

 29 30  0  0  1  0  0  0  0  0999 V2000
   25.8356  -22.0946  -12.4507 N   0  0  0  0  0  0  0  0  0  0  0  0
   25.7628  -20.8521  -11.7363 C   0  0  1  0  0  0  0  0  0  0  0  0
   24.3386  -20.3560  -11.5878 C   0  0  0  0  0  0  0  0  0  0  0  0
   23.7317  -19.9763  -12.8823 C   0  0  0  0  0  0  0  0  0  0  0  0
   24.0215  -18.7858  -13.5363 C   0  0  0  0  0  0  0  0  0  0  0  0
   23.2981  -18.7864  -14.6589 N   0  0  0  0  0  0  0  0  0  0  0  0
   22.5863  -19.9310  -14.7028 C   0  0  0  0  0  0  0  0  0  0  0  0
   22.8471  -20.6795  -13.6036 N   0  0  0  0  0  0  0  0  0  0  0  0
   26.2871  -21.0578  -10.3634 C   0  0  0  0  0  0  0  0  0  0  0  0
   25.8777  -22.0198   -9.6845 O   0  0  0  0  0  0  0  0  0  0  0  0
   27.2518  -20.1919   -9.7776 N   0  0  0  0  0  0  0  0  0  0  0  0
   27.6738  -20.4276   -8.4121 C   0  0  1  0  0  0  0  0  0  0  0  0
   28.8761  -19.5946   -8.0440 C   0  0  0  0  0  0  0  0  0  0  0  0
   29.2553  -19.6977   -6.6327 C   0  0  0  0  0  0  0  0  0  0  0  0
   28.9403  -18.6838   -5.7591 C   0  0  0  0  0  0  0  0  0  0  0  0
   29.2773  -18.7388   -4.4238 C   0  0  0  0  0  0  0  0  0  0  0  0
   29.9483  -19.8261   -3.9208 C   0  0  0  0  0  0  0  0  0  0  0  0
   30.2727  -20.8523   -4.7807 C   0  0  0  0  0  0  0  0  0  0  0  0
   29.9288  -20.7935   -6.1372 C   0  0  0  0  0  0  0  0  0  0  0  0
   26.5897  -20.0715   -7.4488 C   0  0  0  0  0  0  0  0  0  0  0  0
   25.9085  -19.0325   -7.6223 O   0  0  0  0  0  0  0  0  0  0  0  0
   24.5272  -22.8846   -4.9964 C   0  0  0  0  0  0  0  0  0  0  0  0
   24.1074  -21.4952   -5.3956 C   0  0  2  0  0  0  0  0  0  0  0  0
   23.4069  -21.4554   -6.7246 C   0  0  0  0  0  0  0  0  0  0  0  0
   25.2887  -20.5400   -5.3520 C   0  0  2  0  0  0  0  0  0  0  0  0
   26.2890  -20.8760   -6.3187 N   0  0  0  0  0  0  0  0  0  0  0  0
   25.8006  -20.4683   -3.9703 C   0  0  0  0  0  0  0  0  0  0  0  0
   26.9438  -20.9427   -3.7509 O   0  0  0  0  0  0  0  0  0  0  0  0
   25.0981  -19.9139   -2.9183 O   0  0  0  0  0  0  0  0  0  0  0  0
  2  1  1  6
  2  3  1  0
  4  8  1  0
  4  3  1  0
  5  4  2  0
  6  5  1  0
  6  7  1  0
  7  8  2  0
  9  2  1  0
 10  9  2  0
 11  9  1  0
 12 11  1  0
 12 13  1  1
 13 14  1  0
 14 15  2  0
 15 16  1  0
 17 16  2  0
 18 17  1  0
 19 14  1  0
 19 18  2  0
 20 12  1  0
 21 20  2  0
 23 22  1  6
 23 24  1  0
 23 25  1  0
 25 27  1  0
 25 26  1  6
 26 20  1  0
 27 29  1  0
 28 27  2  0
M  END
$$$$
