HFV.pdb
     RDKit          3D

 29 30  0  0  1  0  0  0  0  0999 V2000
   25.8116  -19.9878  -18.4862 N   0  0  0  0  0  0  0  0  0  0  0  0
   25.3158  -19.0971  -17.4761 C   0  0  1  0  0  0  0  0  0  0  0  0
   23.8270  -18.8470  -17.6095 C   0  0  0  0  0  0  0  0  0  0  0  0
   23.4995  -17.9656  -18.7514 C   0  0  0  0  0  0  0  0  0  0  0  0
   22.6989  -16.8370  -18.6338 C   0  0  0  0  0  0  0  0  0  0  0  0
   22.6245  -16.2983  -19.8536 N   0  0  0  0  0  0  0  0  0  0  0  0
   23.3496  -17.0607  -20.6974 C   0  0  0  0  0  0  0  0  0  0  0  0
   23.8988  -18.1006  -20.0241 N   0  0  0  0  0  0  0  0  0  0  0  0
   25.5251  -19.7188  -16.1450 C   0  0  0  0  0  0  0  0  0  0  0  0
   25.0268  -20.8348  -15.9001 O   0  0  0  0  0  0  0  0  0  0  0  0
   26.2817  -19.0876  -15.1190 N   0  0  0  0  0  0  0  0  0  0  0  0
   26.3224  -19.6887  -13.8016 C   0  0  1  0  0  0  0  0  0  0  0  0
   27.2845  -18.9727  -12.8869 C   0  0  0  0  0  0  0  0  0  0  0  0
   27.3659  -19.5545  -11.5448 C   0  0  0  0  0  0  0  0  0  0  0  0
   28.0144  -20.7513  -11.3512 C   0  0  0  0  0  0  0  0  0  0  0  0
   28.1150  -21.3348  -10.1066 C   0  0  0  0  0  0  0  0  0  0  0  0
   27.5609  -20.7266   -9.0073 C   0  0  0  0  0  0  0  0  0  0  0  0
   26.9070  -19.5267   -9.1813 C   0  0  0  0  0  0  0  0  0  0  0  0
   26.8064  -18.9362  -10.4473 C   0  0  0  0  0  0  0  0  0  0  0  0
   24.9812  -19.6334  -13.1474 C   0  0  0  0  0  0  0  0  0  0  0  0
   24.3216  -18.5664  -13.1510 O   0  0  0  0  0  0  0  0  0  0  0  0
   22.3436  -22.8649  -12.6411 C   0  0  0  0  0  0  0  0  0  0  0  0
   22.0442  -21.4034  -12.4401 C   0  0  2  0  0  0  0  0  0  0  0  0
   21.6612  -20.7046  -13.7142 C   0  0  0  0  0  0  0  0  0  0  0  0
   23.1990  -20.7064  -11.7398 C   0  0  2  0  0  0  0  0  0  0  0  0
   24.4062  -20.7618  -12.5064 N   0  0  0  0  0  0  0  0  0  0  0  0
   23.3373  -21.2529  -10.3765 C   0  0  0  0  0  0  0  0  0  0  0  0
   24.3945  -21.8776  -10.1077 O   0  0  0  0  0  0  0  0  0  0  0  0
   22.3779  -21.1157   -9.3926 O   0  0  0  0  0  0  0  0  0  0  0  0
  2  1  1  6
  2  3  1  0
  4  8  1  0
  4  3  1  0
  5  4  2  0
  6  5  1  0
  6  7  1  0
  7  8  2  0
  9  2  1  0
 10  9  2  0
 11  9  1  0
 12 11  1  0
 12 13  1  1
 13 14  1  0
 14 15  2  0
 15 16  1  0
 17 16  2  0
 18 17  1  0
 19 14  1  0
 19 18  2  0
 20 12  1  0
 21 20  2  0
 23 22  1  6
 23 24  1  0
 23 25  1  0
 25 27  1  0
 25 26  1  6
 26 20  1  0
 27 29  1  0
 28 27  2  0
M  END
$$$$
