HFV.pdb
     RDKit          3D

 29 30  0  0  1  0  0  0  0  0999 V2000
   27.9211  -19.9494  -18.6235 N   0  0  0  0  0  0  0  0  0  0  0  0
   27.4063  -18.9572  -17.7235 C   0  0  1  0  0  0  0  0  0  0  0  0
   26.2786  -18.1524  -18.3378 C   0  0  0  0  0  0  0  0  0  0  0  0
   26.7590  -17.1709  -19.3347 C   0  0  0  0  0  0  0  0  0  0  0  0
   26.8282  -15.8066  -19.0844 C   0  0  0  0  0  0  0  0  0  0  0  0
   27.3022  -15.2422  -20.1982 N   0  0  0  0  0  0  0  0  0  0  0  0
   27.5196  -16.2156  -21.1060 C   0  0  0  0  0  0  0  0  0  0  0  0
   27.1858  -17.4195  -20.5812 N   0  0  0  0  0  0  0  0  0  0  0  0
   26.8428  -19.6383  -16.5316 C   0  0  0  0  0  0  0  0  0  0  0  0
   26.0742  -20.6081  -16.6813 O   0  0  0  0  0  0  0  0  0  0  0  0
   27.1456  -19.2270  -15.2039 N   0  0  0  0  0  0  0  0  0  0  0  0
   26.5307  -19.9236  -14.0926 C   0  0  1  0  0  0  0  0  0  0  0  0
   27.1825  -19.5710  -12.7788 C   0  0  0  0  0  0  0  0  0  0  0  0
   26.5241  -20.1690  -11.6147 C   0  0  0  0  0  0  0  0  0  0  0  0
   26.6002  -21.5252  -11.4017 C   0  0  0  0  0  0  0  0  0  0  0  0
   25.9964  -22.1300  -10.3203 C   0  0  0  0  0  0  0  0  0  0  0  0
   25.2903  -21.3819   -9.4107 C   0  0  0  0  0  0  0  0  0  0  0  0
   25.2028  -20.0213   -9.6072 C   0  0  0  0  0  0  0  0  0  0  0  0
   25.8175  -19.4096  -10.7071 C   0  0  0  0  0  0  0  0  0  0  0  0
   25.0867  -19.5635  -13.9693 C   0  0  0  0  0  0  0  0  0  0  0  0
   24.7411  -18.3596  -13.8983 O   0  0  0  0  0  0  0  0  0  0  0  0
   21.8125  -21.9791  -15.2889 C   0  0  0  0  0  0  0  0  0  0  0  0
   21.8516  -20.5071  -14.9766 C   0  0  2  0  0  0  0  0  0  0  0  0
   22.3112  -19.6747  -16.1402 C   0  0  0  0  0  0  0  0  0  0  0  0
   22.6798  -20.2406  -13.7305 C   0  0  2  0  0  0  0  0  0  0  0  0
   24.0639  -20.5467  -13.9281 N   0  0  0  0  0  0  0  0  0  0  0  0
   22.0738  -20.9494  -12.5874 C   0  0  0  0  0  0  0  0  0  0  0  0
   20.9918  -20.4980  -12.1338 O   0  0  0  0  0  0  0  0  0  0  0  0
   22.6263  -22.0691  -11.9970 O   0  0  0  0  0  0  0  0  0  0  0  0
  2  1  1  6
  2  3  1  0
  4  8  1  0
  4  3  1  0
  5  4  2  0
  6  5  1  0
  6  7  1  0
  7  8  2  0
  9  2  1  0
 10  9  2  0
 11  9  1  0
 12 11  1  0
 12 13  1  1
 13 14  1  0
 14 15  2  0
 15 16  1  0
 17 16  2  0
 18 17  1  0
 19 14  1  0
 19 18  2  0
 20 12  1  0
 21 20  2  0
 23 22  1  6
 23 24  1  0
 23 25  1  0
 25 27  1  0
 25 26  1  6
 26 20  1  0
 27 29  1  0
 28 27  2  0
M  END
$$$$
