HFV.pdb
     RDKit          3D

 29 30  0  0  1  0  0  0  0  0999 V2000
   23.3549  -12.5662  -18.6934 N   0  0  0  0  0  0  0  0  0  0  0  0
   22.8953  -11.2838  -19.1448 C   0  0  1  0  0  0  0  0  0  0  0  0
   21.5992  -11.3785  -19.9245 C   0  0  0  0  0  0  0  0  0  0  0  0
   21.7712  -12.0473  -21.2326 C   0  0  0  0  0  0  0  0  0  0  0  0
   21.2015  -13.2767  -21.5372 C   0  0  0  0  0  0  0  0  0  0  0  0
   21.5675  -13.5623  -22.7894 N   0  0  0  0  0  0  0  0  0  0  0  0
   22.3345  -12.5516  -23.2467 C   0  0  0  0  0  0  0  0  0  0  0  0
   22.4686  -11.6034  -22.2880 N   0  0  0  0  0  0  0  0  0  0  0  0
   22.6190  -10.4309  -17.9622 C   0  0  0  0  0  0  0  0  0  0  0  0
   22.0124  -10.9100  -16.9843 O   0  0  0  0  0  0  0  0  0  0  0  0
   23.0221   -9.0684  -17.8936 N   0  0  0  0  0  0  0  0  0  0  0  0
   22.8333   -8.3387  -16.6566 C   0  0  1  0  0  0  0  0  0  0  0  0
   24.1180   -7.7163  -16.1698 C   0  0  0  0  0  0  0  0  0  0  0  0
   25.1990   -8.6825  -15.9602 C   0  0  0  0  0  0  0  0  0  0  0  0
   25.1936   -9.4916  -14.8485 C   0  0  0  0  0  0  0  0  0  0  0  0
   26.1897  -10.4142  -14.6114 C   0  0  0  0  0  0  0  0  0  0  0  0
   27.2325  -10.5529  -15.4939 C   0  0  0  0  0  0  0  0  0  0  0  0
   27.2555   -9.7511  -16.6137 C   0  0  0  0  0  0  0  0  0  0  0  0
   26.2417   -8.8144  -16.8520 C   0  0  0  0  0  0  0  0  0  0  0  0
   21.8545   -7.2254  -16.8370 C   0  0  0  0  0  0  0  0  0  0  0  0
   22.0341   -6.3674  -17.7345 O   0  0  0  0  0  0  0  0  0  0  0  0
   18.1090   -7.6410  -17.1613 C   0  0  0  0  0  0  0  0  0  0  0  0
   18.3145   -6.5637  -16.1302 C   0  0  2  0  0  0  0  0  0  0  0  0
   17.3110   -5.4506  -16.2398 C   0  0  0  0  0  0  0  0  0  0  0  0
   19.7416   -6.0425  -16.1700 C   0  0  2  0  0  0  0  0  0  0  0  0
   20.7027   -7.0920  -16.0184 N   0  0  0  0  0  0  0  0  0  0  0  0
   19.8872   -4.9583  -15.1802 C   0  0  0  0  0  0  0  0  0  0  0  0
   20.2549   -5.2777  -14.0214 O   0  0  0  0  0  0  0  0  0  0  0  0
   19.6438   -3.6273  -15.4570 O   0  0  0  0  0  0  0  0  0  0  0  0
  2  1  1  1
  2  3  1  0
  4  8  1  0
  4  3  1  0
  5  4  2  0
  6  5  1  0
  6  7  1  0
  7  8  2  0
  9  2  1  0
 10  9  2  0
 11  9  1  0
 12 11  1  0
 12 13  1  6
 13 14  1  0
 14 15  2  0
 15 16  1  0
 17 16  2  0
 18 17  1  0
 19 14  1  0
 19 18  2  0
 20 12  1  0
 21 20  2  0
 23 22  1  6
 23 24  1  0
 23 25  1  0
 25 27  1  0
 25 26  1  1
 26 20  1  0
 27 29  1  0
 28 27  2  0
M  END
$$$$
