HFV.pdb
     RDKit          3D

 29 30  0  0  1  0  0  0  0  0999 V2000
   28.4174  -22.3331  -18.2858 N   0  0  0  0  0  0  0  0  0  0  0  0
   27.2122  -21.5673  -18.1427 C   0  0  1  0  0  0  0  0  0  0  0  0
   26.1639  -21.9465  -19.1693 C   0  0  0  0  0  0  0  0  0  0  0  0
   26.5344  -21.5303  -20.5396 C   0  0  0  0  0  0  0  0  0  0  0  0
   26.1405  -20.3213  -21.0982 C   0  0  0  0  0  0  0  0  0  0  0  0
   26.6537  -20.2903  -22.3308 N   0  0  0  0  0  0  0  0  0  0  0  0
   27.3398  -21.4338  -22.5322 C   0  0  0  0  0  0  0  0  0  0  0  0
   27.2731  -22.2133  -21.4257 N   0  0  0  0  0  0  0  0  0  0  0  0
   26.6229  -21.8466  -16.8097 C   0  0  0  0  0  0  0  0  0  0  0  0
   26.6422  -23.0081  -16.3579 O   0  0  0  0  0  0  0  0  0  0  0  0
   26.0272  -20.8311  -16.0113 N   0  0  0  0  0  0  0  0  0  0  0  0
   25.5057  -21.1767  -14.7048 C   0  0  1  0  0  0  0  0  0  0  0  0
   25.7338  -20.0755  -13.6997 C   0  0  0  0  0  0  0  0  0  0  0  0
   25.2680  -20.4033  -12.3499 C   0  0  0  0  0  0  0  0  0  0  0  0
   24.0150  -20.0128  -11.9399 C   0  0  0  0  0  0  0  0  0  0  0  0
   23.5363  -20.2995  -10.6797 C   0  0  0  0  0  0  0  0  0  0  0  0
   24.3106  -20.9947   -9.7839 C   0  0  0  0  0  0  0  0  0  0  0  0
   25.5691  -21.3946  -10.1763 C   0  0  0  0  0  0  0  0  0  0  0  0
   26.0529  -21.1017  -11.4577 C   0  0  0  0  0  0  0  0  0  0  0  0
   24.0320  -21.4112  -14.7625 C   0  0  0  0  0  0  0  0  0  0  0  0
   23.2888  -20.6047  -15.3715 O   0  0  0  0  0  0  0  0  0  0  0  0
   22.4678  -24.9587  -15.3246 C   0  0  0  0  0  0  0  0  0  0  0  0
   21.7053  -24.2783  -14.2193 C   0  0  2  0  0  0  0  0  0  0  0  0
   20.2268  -24.5401  -14.2820 C   0  0  0  0  0  0  0  0  0  0  0  0
   22.0136  -22.7905  -14.1861 C   0  0  2  0  0  0  0  0  0  0  0  0
   23.4208  -22.5329  -14.1439 N   0  0  0  0  0  0  0  0  0  0  0  0
   21.2638  -22.1667  -13.0794 C   0  0  0  0  0  0  0  0  0  0  0  0
   21.6702  -22.3836  -11.9099 O   0  0  0  0  0  0  0  0  0  0  0  0
   20.1523  -21.3667  -13.2590 O   0  0  0  0  0  0  0  0  0  0  0  0
  2  1  1  6
  2  3  1  0
  4  8  1  0
  4  3  1  0
  5  4  2  0
  6  5  1  0
  6  7  1  0
  7  8  2  0
  9  2  1  0
 10  9  2  0
 11  9  1  0
 12 11  1  0
 12 13  1  1
 13 14  1  0
 14 15  2  0
 15 16  1  0
 17 16  2  0
 18 17  1  0
 19 14  1  0
 19 18  2  0
 20 12  1  0
 21 20  2  0
 23 22  1  6
 23 24  1  0
 23 25  1  0
 25 27  1  0
 25 26  1  1
 26 20  1  0
 27 29  1  0
 28 27  2  0
M  END
$$$$
