HFV.pdb
     RDKit          3D

 29 30  0  0  1  0  0  0  0  0999 V2000
   28.6036  -20.6060  -14.6107 N   0  0  0  0  0  0  0  0  0  0  0  0
   27.7378  -19.6878  -13.9274 C   0  0  1  0  0  0  0  0  0  0  0  0
   26.9086  -18.8567  -14.8857 C   0  0  0  0  0  0  0  0  0  0  0  0
   27.7335  -17.9390  -15.7014 C   0  0  0  0  0  0  0  0  0  0  0  0
   28.1195  -18.2215  -17.0053 C   0  0  0  0  0  0  0  0  0  0  0  0
   28.8451  -17.1790  -17.4181 N   0  0  0  0  0  0  0  0  0  0  0  0
   28.9087  -16.2831  -16.4121 C   0  0  0  0  0  0  0  0  0  0  0  0
   28.2214  -16.7440  -15.3391 N   0  0  0  0  0  0  0  0  0  0  0  0
   26.7811  -20.4601  -13.0965 C   0  0  0  0  0  0  0  0  0  0  0  0
   26.4121  -21.5905  -13.4704 O   0  0  0  0  0  0  0  0  0  0  0  0
   26.2575  -19.9598  -11.8722 N   0  0  0  0  0  0  0  0  0  0  0  0
   25.2110  -20.7004  -11.1978 C   0  0  1  0  0  0  0  0  0  0  0  0
   25.0745  -20.2905   -9.7527 C   0  0  0  0  0  0  0  0  0  0  0  0
   26.3065  -20.4491   -8.9759 C   0  0  0  0  0  0  0  0  0  0  0  0
   26.6942  -19.4698   -8.0921 C   0  0  0  0  0  0  0  0  0  0  0  0
   27.8450  -19.5772   -7.3412 C   0  0  0  0  0  0  0  0  0  0  0  0
   28.6494  -20.6840   -7.4572 C   0  0  0  0  0  0  0  0  0  0  0  0
   28.2775  -21.6761   -8.3376 C   0  0  0  0  0  0  0  0  0  0  0  0
   27.1074  -21.5641   -9.0993 C   0  0  0  0  0  0  0  0  0  0  0  0
   23.8857  -20.4600  -11.8425 C   0  0  0  0  0  0  0  0  0  0  0  0
   23.5717  -19.3081  -12.2276 O   0  0  0  0  0  0  0  0  0  0  0  0
   21.4418  -23.7259  -13.3733 C   0  0  0  0  0  0  0  0  0  0  0  0
   21.5655  -22.3194  -13.8953 C   0  0  2  0  0  0  0  0  0  0  0  0
   22.6643  -22.1665  -14.9090 C   0  0  0  0  0  0  0  0  0  0  0  0
   21.7116  -21.3293  -12.7516 C   0  0  2  0  0  0  0  0  0  0  0  0
   22.9433  -21.5021  -12.0436 N   0  0  0  0  0  0  0  0  0  0  0  0
   20.5169  -21.4076  -11.8897 C   0  0  0  0  0  0  0  0  0  0  0  0
   20.6777  -21.8198  -10.7131 O   0  0  0  0  0  0  0  0  0  0  0  0
   19.2468  -21.0562  -12.3030 O   0  0  0  0  0  0  0  0  0  0  0  0
  2  1  1  6
  2  3  1  0
  4  8  1  0
  4  3  1  0
  5  4  2  0
  6  5  1  0
  6  7  1  0
  7  8  2  0
  9  2  1  0
 10  9  2  0
 11  9  1  0
 12 11  1  0
 12 13  1  1
 13 14  1  0
 14 15  2  0
 15 16  1  0
 17 16  2  0
 18 17  1  0
 19 14  1  0
 19 18  2  0
 20 12  1  0
 21 20  2  0
 23 22  1  1
 23 24  1  0
 23 25  1  0
 25 27  1  0
 25 26  1  1
 26 20  1  0
 27 29  1  0
 28 27  2  0
M  END
$$$$
