HFV.pdb
     RDKit          3D

 29 30  0  0  1  0  0  0  0  0999 V2000
   27.2896  -16.7563  -17.8949 N   0  0  0  0  0  0  0  0  0  0  0  0
   27.0032  -18.1058  -17.4995 C   0  0  1  0  0  0  0  0  0  0  0  0
   28.2142  -18.8034  -16.9135 C   0  0  0  0  0  0  0  0  0  0  0  0
   29.2543  -19.0830  -17.9274 C   0  0  0  0  0  0  0  0  0  0  0  0
   30.2849  -18.1997  -18.2211 C   0  0  0  0  0  0  0  0  0  0  0  0
   31.0201  -18.7807  -19.1727 N   0  0  0  0  0  0  0  0  0  0  0  0
   30.4698  -19.9779  -19.4604 C   0  0  0  0  0  0  0  0  0  0  0  0
   29.3711  -20.1777  -18.6927 N   0  0  0  0  0  0  0  0  0  0  0  0
   25.9687  -18.0837  -16.4358 C   0  0  0  0  0  0  0  0  0  0  0  0
   26.0371  -17.2340  -15.5264 O   0  0  0  0  0  0  0  0  0  0  0  0
   24.8845  -19.0041  -16.4071 N   0  0  0  0  0  0  0  0  0  0  0  0
   23.8616  -18.8572  -15.3920 C   0  0  1  0  0  0  0  0  0  0  0  0
   22.4866  -18.7172  -15.9961 C   0  0  0  0  0  0  0  0  0  0  0  0
   21.4205  -18.5554  -15.0045 C   0  0  0  0  0  0  0  0  0  0  0  0
   20.6229  -19.6243  -14.6702 C   0  0  0  0  0  0  0  0  0  0  0  0
   19.6087  -19.5174  -13.7430 C   0  0  0  0  0  0  0  0  0  0  0  0
   19.3629  -18.3201  -13.1171 C   0  0  0  0  0  0  0  0  0  0  0  0
   20.1517  -17.2375  -13.4389 C   0  0  0  0  0  0  0  0  0  0  0  0
   21.1816  -17.3493  -14.3815 C   0  0  0  0  0  0  0  0  0  0  0  0
   23.8211  -20.0521  -14.4973 C   0  0  0  0  0  0  0  0  0  0  0  0
   23.6944  -21.2009  -14.9851 O   0  0  0  0  0  0  0  0  0  0  0  0
   24.6721  -19.8909  -10.1635 C   0  0  0  0  0  0  0  0  0  0  0  0
   24.9148  -21.0230  -11.1255 C   0  0  2  0  0  0  0  0  0  0  0  0
   26.2942  -20.9984  -11.7212 C   0  0  0  0  0  0  0  0  0  0  0  0
   23.8382  -21.0617  -12.1975 C   0  0  2  0  0  0  0  0  0  0  0  0
   23.9222  -19.9427  -13.0858 N   0  0  0  0  0  0  0  0  0  0  0  0
   22.5196  -21.2081  -11.5522 C   0  0  0  0  0  0  0  0  0  0  0  0
   22.2548  -22.3160  -11.0208 O   0  0  0  0  0  0  0  0  0  0  0  0
   21.5728  -20.2038  -11.5023 O   0  0  0  0  0  0  0  0  0  0  0  0
  2  1  1  1
  2  3  1  0
  4  8  1  0
  4  3  1  0
  5  4  2  0
  6  5  1  0
  6  7  1  0
  7  8  2  0
  9  2  1  0
 10  9  2  0
 11  9  1  0
 12 11  1  0
 12 13  1  6
 13 14  1  0
 14 15  2  0
 15 16  1  0
 17 16  2  0
 18 17  1  0
 19 14  1  0
 19 18  2  0
 20 12  1  0
 21 20  2  0
 23 22  1  6
 23 24  1  0
 23 25  1  0
 25 27  1  0
 25 26  1  1
 26 20  1  0
 27 29  1  0
 28 27  2  0
M  END
$$$$
