HFV.pdb
     RDKit          3D

 29 30  0  0  1  0  0  0  0  0999 V2000
   26.1585  -22.0322  -13.2078 N   0  0  0  0  0  0  0  0  0  0  0  0
   25.9170  -20.8208  -12.4773 C   0  0  1  0  0  0  0  0  0  0  0  0
   24.4816  -20.3505  -12.6006 C   0  0  0  0  0  0  0  0  0  0  0  0
   24.1575  -19.8667  -13.9604 C   0  0  0  0  0  0  0  0  0  0  0  0
   24.7919  -18.7817  -14.5512 C   0  0  0  0  0  0  0  0  0  0  0  0
   24.2472  -18.6397  -15.7622 N   0  0  0  0  0  0  0  0  0  0  0  0
   23.3110  -19.5976  -15.9198 C   0  0  0  0  0  0  0  0  0  0  0  0
   23.2457  -20.3671  -14.8063 N   0  0  0  0  0  0  0  0  0  0  0  0
   26.1590  -21.0750  -11.0354 C   0  0  0  0  0  0  0  0  0  0  0  0
   25.6495  -22.0740  -10.4912 O   0  0  0  0  0  0  0  0  0  0  0  0
   26.9597  -20.2154  -10.2333 N   0  0  0  0  0  0  0  0  0  0  0  0
   27.1070  -20.5034   -8.8213 C   0  0  1  0  0  0  0  0  0  0  0  0
   28.1881  -19.6647   -8.1867 C   0  0  0  0  0  0  0  0  0  0  0  0
   28.2839  -19.8269   -6.7339 C   0  0  0  0  0  0  0  0  0  0  0  0
   27.8692  -18.8160   -5.8992 C   0  0  0  0  0  0  0  0  0  0  0  0
   27.9411  -18.9256   -4.5272 C   0  0  0  0  0  0  0  0  0  0  0  0
   28.4373  -20.0666   -3.9464 C   0  0  0  0  0  0  0  0  0  0  0  0
   28.8578  -21.0906   -4.7663 C   0  0  0  0  0  0  0  0  0  0  0  0
   28.7835  -20.9763   -6.1603 C   0  0  0  0  0  0  0  0  0  0  0  0
   25.8430  -20.2114   -8.0816 C   0  0  0  0  0  0  0  0  0  0  0  0
   25.2530  -19.1171   -8.2492 O   0  0  0  0  0  0  0  0  0  0  0  0
   22.6165  -21.3066   -8.3942 C   0  0  0  0  0  0  0  0  0  0  0  0
   22.8821  -21.6510   -6.9530 C   0  0  2  0  0  0  0  0  0  0  0  0
   21.6728  -21.4770   -6.0781 C   0  0  0  0  0  0  0  0  0  0  0  0
   24.0775  -20.8764   -6.4235 C   0  0  2  0  0  0  0  0  0  0  0  0
   25.2661  -21.1395   -7.1759 N   0  0  0  0  0  0  0  0  0  0  0  0
   24.2209  -21.1383   -4.9788 C   0  0  0  0  0  0  0  0  0  0  0  0
   25.1799  -21.8646   -4.6143 O   0  0  0  0  0  0  0  0  0  0  0  0
   23.3670  -20.6334   -4.0178 O   0  0  0  0  0  0  0  0  0  0  0  0
  2  1  1  6
  2  3  1  0
  4  8  1  0
  4  3  1  0
  5  4  2  0
  6  5  1  0
  6  7  1  0
  7  8  2  0
  9  2  1  0
 10  9  2  0
 11  9  1  0
 12 11  1  0
 12 13  1  1
 13 14  1  0
 14 15  2  0
 15 16  1  0
 17 16  2  0
 18 17  1  0
 19 14  1  0
 19 18  2  0
 20 12  1  0
 21 20  2  0
 23 22  1  6
 23 24  1  0
 23 25  1  0
 25 27  1  0
 25 26  1  6
 26 20  1  0
 27 29  1  0
 28 27  2  0
M  END
$$$$
