HFV.pdb
     RDKit          3D

 29 30  0  0  1  0  0  0  0  0999 V2000
   22.1220  -13.3357  -18.6893 N   0  0  0  0  0  0  0  0  0  0  0  0
   22.4240  -11.9737  -19.0255 C   0  0  1  0  0  0  0  0  0  0  0  0
   21.7203  -11.5232  -20.2899 C   0  0  0  0  0  0  0  0  0  0  0  0
   22.1433  -12.2928  -21.4802 C   0  0  0  0  0  0  0  0  0  0  0  0
   22.9834  -11.7770  -22.4584 C   0  0  0  0  0  0  0  0  0  0  0  0
   23.1433  -12.7433  -23.3662 N   0  0  0  0  0  0  0  0  0  0  0  0
   22.4315  -13.8180  -22.9697 C   0  0  0  0  0  0  0  0  0  0  0  0
   21.8051  -13.5505  -21.7983 N   0  0  0  0  0  0  0  0  0  0  0  0
   21.9417  -11.0927  -17.9331 C   0  0  0  0  0  0  0  0  0  0  0  0
   20.8080  -11.2756  -17.4483 O   0  0  0  0  0  0  0  0  0  0  0  0
   22.7283  -10.0312  -17.4058 N   0  0  0  0  0  0  0  0  0  0  0  0
   22.1834   -9.2100  -16.3442 C   0  0  1  0  0  0  0  0  0  0  0  0
   23.2143   -8.9014  -15.2873 C   0  0  0  0  0  0  0  0  0  0  0  0
   22.6936   -8.1123  -14.1682 C   0  0  0  0  0  0  0  0  0  0  0  0
   22.6952   -6.7389  -14.2342 C   0  0  0  0  0  0  0  0  0  0  0  0
   22.2154   -5.9574  -13.2054 C   0  0  0  0  0  0  0  0  0  0  0  0
   21.7140   -6.5388  -12.0669 C   0  0  0  0  0  0  0  0  0  0  0  0
   21.7039   -7.9137  -11.9821 C   0  0  0  0  0  0  0  0  0  0  0  0
   22.1923   -8.7053  -13.0294 C   0  0  0  0  0  0  0  0  0  0  0  0
   21.7029   -7.8996  -16.8753 C   0  0  0  0  0  0  0  0  0  0  0  0
   22.4127   -7.2458  -17.6768 O   0  0  0  0  0  0  0  0  0  0  0  0
   17.5728   -6.7121  -17.0146 C   0  0  0  0  0  0  0  0  0  0  0  0
   18.7351   -6.1964  -17.8203 C   0  0  2  0  0  0  0  0  0  0  0  0
   18.9933   -7.0073  -19.0589 C   0  0  0  0  0  0  0  0  0  0  0  0
   19.9797   -6.0741  -16.9567 C   0  0  2  0  0  0  0  0  0  0  0  0
   20.4487   -7.3483  -16.5043 N   0  0  0  0  0  0  0  0  0  0  0  0
   19.7173   -5.1176  -15.8646 C   0  0  0  0  0  0  0  0  0  0  0  0
   19.4940   -5.5908  -14.7216 O   0  0  0  0  0  0  0  0  0  0  0  0
   19.7042   -3.7466  -16.0304 O   0  0  0  0  0  0  0  0  0  0  0  0
  2  1  1  1
  2  3  1  0
  4  8  1  0
  4  3  1  0
  5  4  2  0
  6  5  1  0
  6  7  1  0
  7  8  2  0
  9  2  1  0
 10  9  2  0
 11  9  1  0
 12 11  1  0
 12 13  1  1
 13 14  1  0
 14 15  2  0
 15 16  1  0
 17 16  2  0
 18 17  1  0
 19 14  1  0
 19 18  2  0
 20 12  1  0
 21 20  2  0
 23 22  1  1
 23 24  1  0
 23 25  1  0
 25 27  1  0
 25 26  1  1
 26 20  1  0
 27 29  1  0
 28 27  2  0
M  END
$$$$
