HSS.pdb
     RDKit          3D

 23 23  0  0  1  0  0  0  0  0999 V2000
   17.8753  -11.3416  -16.5927 N   0  0  0  0  0  0  0  0  0  0  0  0
   18.5974  -10.3000  -17.2756 C   0  0  1  0  0  0  0  0  0  0  0  0
   17.6601   -9.5108  -18.1329 C   0  0  0  0  0  0  0  0  0  0  0  0
   17.0665  -10.4462  -19.1314 C   0  0  0  0  0  0  0  0  0  0  0  0
   15.7690  -10.9017  -19.2336 C   0  0  0  0  0  0  0  0  0  0  0  0
   15.6406  -11.7406  -20.2829 N   0  0  0  0  0  0  0  0  0  0  0  0
   16.8576  -11.8091  -20.8360 C   0  0  0  0  0  0  0  0  0  0  0  0
   17.7288  -11.0436  -20.1657 N   0  0  0  0  0  0  0  0  0  0  0  0
   19.4071   -9.4707  -16.3589 C   0  0  0  0  0  0  0  0  0  0  0  0
   18.7874   -8.7726  -15.5148 O   0  0  0  0  0  0  0  0  0  0  0  0
   22.8017  -10.3000  -14.3610 O   0  0  0  0  0  0  0  0  0  0  0  0
   22.9390   -9.1570  -15.1523 C   0  0  0  0  0  0  0  0  0  0  0  0
   21.5417   -8.6293  -15.4026 C   0  0  2  0  0  0  0  0  0  0  0  0
   20.8114   -9.4064  -16.3625 N   0  0  0  0  0  0  0  0  0  0  0  0
   21.5633   -7.1799  -15.7529 C   0  0  0  0  0  0  0  0  0  0  0  0
   21.8407   -6.8367  -16.9160 O   0  0  0  0  0  0  0  0  0  0  0  0
   20.0081   -4.5808  -13.0424 O   0  0  0  0  0  0  0  0  0  0  0  0
   19.9723   -4.2329  -14.3943 C   0  0  0  0  0  0  0  0  0  0  0  0
   21.2302   -4.7767  -15.0705 C   0  0  2  0  0  0  0  0  0  0  0  0
   21.2717   -6.1961  -14.7758 N   0  0  0  0  0  0  0  0  0  0  0  0
   22.4077   -4.0673  -14.5475 C   0  0  0  0  0  0  0  0  0  0  0  0
   23.2401   -4.6127  -13.7868 O   0  0  0  0  0  0  0  0  0  0  0  0
   22.6060   -2.7483  -14.9074 O   0  0  0  0  0  0  0  0  0  0  0  0
  2  1  1  1
  3  2  1  0
  3  4  1  0
  4  8  1  0
  5  4  2  0
  5  6  1  0
  6  7  1  0
  8  7  2  0
  9  2  1  0
  9 14  1  0
 10  9  2  0
 11 12  1  0
 13 15  1  0
 13 14  1  0
 13 12  1  6
 15 20  1  0
 16 15  2  0
 17 18  1  0
 19 18  1  1
 19 21  1  0
 20 19  1  0
 21 22  2  0
 21 23  1  0
M  END
$$$$
