HSS.pdb
     RDKit          3D

 23 23  0  0  1  0  0  0  0  0999 V2000
   18.3567  -13.0323  -15.6866 N   0  0  0  0  0  0  0  0  0  0  0  0
   18.1044  -11.6784  -16.1061 C   0  0  1  0  0  0  0  0  0  0  0  0
   16.9619  -11.1100  -15.3265 C   0  0  0  0  0  0  0  0  0  0  0  0
   15.7440  -11.8985  -15.6716 C   0  0  0  0  0  0  0  0  0  0  0  0
   15.0854  -11.9994  -16.8789 C   0  0  0  0  0  0  0  0  0  0  0  0
   14.0194  -12.8200  -16.7722 N   0  0  0  0  0  0  0  0  0  0  0  0
   14.0120  -13.2316  -15.4985 C   0  0  0  0  0  0  0  0  0  0  0  0
   15.0337  -12.6945  -14.8188 N   0  0  0  0  0  0  0  0  0  0  0  0
   19.3190  -10.8370  -16.0816 C   0  0  0  0  0  0  0  0  0  0  0  0
   19.9347  -10.7462  -14.9878 O   0  0  0  0  0  0  0  0  0  0  0  0
   22.0833  -10.3718  -18.9200 O   0  0  0  0  0  0  0  0  0  0  0  0
   21.6852   -9.1193  -18.4467 C   0  0  0  0  0  0  0  0  0  0  0  0
   21.0299   -9.3494  -17.1009 C   0  0  2  0  0  0  0  0  0  0  0  0
   19.8325  -10.1353  -17.1862 N   0  0  0  0  0  0  0  0  0  0  0  0
   20.8078   -8.0640  -16.3782 C   0  0  0  0  0  0  0  0  0  0  0  0
   19.7114   -7.4859  -16.4831 O   0  0  0  0  0  0  0  0  0  0  0  0
   22.5183   -5.2684  -12.8213 O   0  0  0  0  0  0  0  0  0  0  0  0
   22.6457   -6.4069  -13.6198 C   0  0  0  0  0  0  0  0  0  0  0  0
   21.6356   -6.3154  -14.7629 C   0  0  2  0  0  0  0  0  0  0  0  0
   21.8311   -7.4996  -15.5770 N   0  0  0  0  0  0  0  0  0  0  0  0
   21.8706   -5.0768  -15.5204 C   0  0  0  0  0  0  0  0  0  0  0  0
   22.7364   -4.9922  -16.4218 O   0  0  0  0  0  0  0  0  0  0  0  0
   21.1087   -3.9619  -15.2289 O   0  0  0  0  0  0  0  0  0  0  0  0
  2  1  1  1
  3  2  1  0
  3  4  1  0
  4  8  1  0
  5  4  2  0
  5  6  1  0
  6  7  1  0
  8  7  2  0
  9  2  1  0
  9 14  1  0
 10  9  2  0
 11 12  1  0
 13 15  1  0
 13 14  1  0
 13 12  1  6
 15 20  1  0
 16 15  2  0
 17 18  1  0
 19 18  1  1
 19 21  1  0
 20 19  1  0
 21 22  2  0
 21 23  1  0
M  END
$$$$
