HSS.pdb
     RDKit          3D

 23 23  0  0  1  0  0  0  0  0999 V2000
   17.7430  -11.3550  -17.7078 N   0  0  0  0  0  0  0  0  0  0  0  0
   18.8989  -11.2468  -16.8564 C   0  0  1  0  0  0  0  0  0  0  0  0
   20.1264  -11.6400  -17.6146 C   0  0  0  0  0  0  0  0  0  0  0  0
   20.0584  -13.1110  -17.8511 C   0  0  0  0  0  0  0  0  0  0  0  0
   20.7747  -14.1236  -17.2486 C   0  0  0  0  0  0  0  0  0  0  0  0
   20.4135  -15.3240  -17.7482 N   0  0  0  0  0  0  0  0  0  0  0  0
   19.4719  -15.0614  -18.6626 C   0  0  0  0  0  0  0  0  0  0  0  0
   19.2411  -13.7444  -18.7433 N   0  0  0  0  0  0  0  0  0  0  0  0
   19.0023   -9.9277  -16.1986 C   0  0  0  0  0  0  0  0  0  0  0  0
   18.9469   -8.9101  -16.9369 O   0  0  0  0  0  0  0  0  0  0  0  0
   18.7033   -7.0764  -12.3859 O   0  0  0  0  0  0  0  0  0  0  0  0
   18.8593   -8.4138  -12.7579 C   0  0  0  0  0  0  0  0  0  0  0  0
   19.2025   -8.4192  -14.2330 C   0  0  2  0  0  0  0  0  0  0  0  0
   19.1572   -9.7296  -14.8155 N   0  0  0  0  0  0  0  0  0  0  0  0
   20.5020   -7.7345  -14.4907 C   0  0  0  0  0  0  0  0  0  0  0  0
   21.5592   -8.3870  -14.4271 O   0  0  0  0  0  0  0  0  0  0  0  0
   21.1256   -5.2058  -17.3283 O   0  0  0  0  0  0  0  0  0  0  0  0
   21.4275   -4.5724  -16.1209 C   0  0  0  0  0  0  0  0  0  0  0  0
   21.7728   -5.6404  -15.0838 C   0  0  2  0  0  0  0  0  0  0  0  0
   20.5410   -6.3536  -14.8058 N   0  0  0  0  0  0  0  0  0  0  0  0
   22.3210   -4.9917  -13.8830 C   0  0  0  0  0  0  0  0  0  0  0  0
   21.6850   -4.9198  -12.8062 O   0  0  0  0  0  0  0  0  0  0  0  0
   23.5859   -4.4393  -13.9419 O   0  0  0  0  0  0  0  0  0  0  0  0
  2  1  1  6
  3  2  1  0
  3  4  1  0
  4  8  1  0
  5  4  2  0
  5  6  1  0
  6  7  1  0
  8  7  2  0
  9  2  1  0
  9 14  1  0
 10  9  2  0
 11 12  1  0
 13 15  1  0
 13 14  1  0
 13 12  1  1
 15 20  1  0
 16 15  2  0
 17 18  1  0
 19 18  1  6
 19 21  1  0
 20 19  1  0
 21 22  2  0
 21 23  1  0
M  END
$$$$
