HSS.pdb
     RDKit          3D

 23 23  0  0  1  0  0  0  0  0999 V2000
   21.6114  -10.7477  -17.6376 N   0  0  0  0  0  0  0  0  0  0  0  0
   22.1371   -9.8700  -16.6247 C   0  0  1  0  0  0  0  0  0  0  0  0
   23.5537   -9.5150  -16.9462 C   0  0  0  0  0  0  0  0  0  0  0  0
   24.3445  -10.7795  -16.9550 C   0  0  0  0  0  0  0  0  0  0  0  0
   25.0472  -11.3597  -17.9900 C   0  0  0  0  0  0  0  0  0  0  0  0
   25.6291  -12.5079  -17.5850 N   0  0  0  0  0  0  0  0  0  0  0  0
   25.2901  -12.6450  -16.2974 C   0  0  0  0  0  0  0  0  0  0  0  0
   24.5216  -11.6238  -15.8962 N   0  0  0  0  0  0  0  0  0  0  0  0
   21.2708   -8.6985  -16.3784 C   0  0  0  0  0  0  0  0  0  0  0  0
   21.2082   -7.8278  -17.2849 O   0  0  0  0  0  0  0  0  0  0  0  0
   19.4802   -7.7785  -12.7635 O   0  0  0  0  0  0  0  0  0  0  0  0
   18.6991   -7.4914  -13.8855 C   0  0  0  0  0  0  0  0  0  0  0  0
   19.6504   -7.3551  -15.0560 C   0  0  2  0  0  0  0  0  0  0  0  0
   20.5165   -8.4885  -15.2109 N   0  0  0  0  0  0  0  0  0  0  0  0
   20.4092   -6.0729  -14.9927 C   0  0  0  0  0  0  0  0  0  0  0  0
   21.4970   -6.0360  -14.3905 O   0  0  0  0  0  0  0  0  0  0  0  0
   21.3268   -1.9679  -17.1603 O   0  0  0  0  0  0  0  0  0  0  0  0
   20.5996   -3.1573  -17.0787 C   0  0  0  0  0  0  0  0  0  0  0  0
   20.6230   -3.6439  -15.6303 C   0  0  2  0  0  0  0  0  0  0  0  0
   19.9027   -4.9025  -15.6102 N   0  0  0  0  0  0  0  0  0  0  0  0
   19.9947   -2.6316  -14.7679 C   0  0  0  0  0  0  0  0  0  0  0  0
   18.7603   -2.5980  -14.5575 O   0  0  0  0  0  0  0  0  0  0  0  0
   20.7942   -1.6798  -14.1651 O   0  0  0  0  0  0  0  0  0  0  0  0
  2  1  1  6
  3  2  1  0
  3  4  1  0
  4  8  1  0
  5  4  2  0
  5  6  1  0
  6  7  1  0
  8  7  2  0
  9  2  1  0
  9 14  1  0
 10  9  2  0
 11 12  1  0
 13 15  1  0
 13 14  1  0
 13 12  1  1
 15 20  1  0
 16 15  2  0
 17 18  1  0
 19 18  1  6
 19 21  1  0
 20 19  1  0
 21 22  2  0
 21 23  1  0
M  END
$$$$
