HSS.pdb
     RDKit          3D

 23 23  0  0  1  0  0  0  0  0999 V2000
   19.5628   -8.8762  -18.0917 N   0  0  0  0  0  0  0  0  0  0  0  0
   19.7362   -8.1268  -16.8748 C   0  0  1  0  0  0  0  0  0  0  0  0
   20.6231   -8.8810  -15.9363 C   0  0  0  0  0  0  0  0  0  0  0  0
   19.9698  -10.1917  -15.6539 C   0  0  0  0  0  0  0  0  0  0  0  0
   18.8208  -10.4556  -14.9387 C   0  0  0  0  0  0  0  0  0  0  0  0
   18.5678  -11.7809  -14.9169 N   0  0  0  0  0  0  0  0  0  0  0  0
   19.5586  -12.3449  -15.6184 C   0  0  0  0  0  0  0  0  0  0  0  0
   20.4107  -11.4154  -16.0703 N   0  0  0  0  0  0  0  0  0  0  0  0
   20.1721   -6.7359  -17.1177 C   0  0  0  0  0  0  0  0  0  0  0  0
   21.2665   -6.5717  -17.7170 O   0  0  0  0  0  0  0  0  0  0  0  0
   17.9683   -3.4157  -16.0433 O   0  0  0  0  0  0  0  0  0  0  0  0
   18.6927   -3.3060  -17.2327 C   0  0  0  0  0  0  0  0  0  0  0  0
   19.8555   -4.2704  -17.1259 C   0  0  2  0  0  0  0  0  0  0  0  0
   19.4560   -5.5902  -16.7295 N   0  0  0  0  0  0  0  0  0  0  0  0
   20.9353   -3.7247  -16.2539 C   0  0  0  0  0  0  0  0  0  0  0  0
   20.9808   -4.0588  -15.0565 O   0  0  0  0  0  0  0  0  0  0  0  0
   24.9789   -1.0149  -16.2489 O   0  0  0  0  0  0  0  0  0  0  0  0
   23.8547   -1.4700  -16.9409 C   0  0  0  0  0  0  0  0  0  0  0  0
   23.0030   -2.3084  -15.9885 C   0  0  2  0  0  0  0  0  0  0  0  0
   21.9046   -2.8332  -16.7767 N   0  0  0  0  0  0  0  0  0  0  0  0
   22.5354   -1.4605  -14.8813 C   0  0  0  0  0  0  0  0  0  0  0  0
   21.5211   -0.7312  -14.9730 O   0  0  0  0  0  0  0  0  0  0  0  0
   23.2401   -1.4666  -13.6930 O   0  0  0  0  0  0  0  0  0  0  0  0
  2  1  1  6
  3  2  1  0
  3  4  1  0
  4  8  1  0
  5  4  2  0
  5  6  1  0
  6  7  1  0
  8  7  2  0
  9  2  1  0
  9 14  1  0
 10  9  2  0
 11 12  1  0
 13 15  1  0
 13 14  1  0
 13 12  1  1
 15 20  1  0
 16 15  2  0
 17 18  1  0
 19 18  1  6
 19 21  1  0
 20 19  1  0
 21 22  2  0
 21 23  1  0
M  END
$$$$
