HSS.pdb
     RDKit          3D

 23 23  0  0  1  0  0  0  0  0999 V2000
   28.5852  -22.3348  -17.2487 N   0  0  0  0  0  0  0  0  0  0  0  0
   27.2827  -22.6175  -16.7045 C   0  0  1  0  0  0  0  0  0  0  0  0
   27.4117  -23.5305  -15.5272 C   0  0  0  0  0  0  0  0  0  0  0  0
   27.9940  -24.8144  -16.0141 C   0  0  0  0  0  0  0  0  0  0  0  0
   27.3496  -25.9455  -16.4689 C   0  0  0  0  0  0  0  0  0  0  0  0
   28.2435  -26.8942  -16.8183 N   0  0  0  0  0  0  0  0  0  0  0  0
   29.4460  -26.3558  -16.5819 C   0  0  0  0  0  0  0  0  0  0  0  0
   29.3242  -25.1118  -16.1002 N   0  0  0  0  0  0  0  0  0  0  0  0
   26.5020  -21.3941  -16.4263 C   0  0  0  0  0  0  0  0  0  0  0  0
   26.9640  -20.5990  -15.5671 O   0  0  0  0  0  0  0  0  0  0  0  0
   24.5731  -19.1085  -18.8730 O   0  0  0  0  0  0  0  0  0  0  0  0
   24.8072  -18.6984  -17.5583 C   0  0  0  0  0  0  0  0  0  0  0  0
   24.5337  -19.8959  -16.6724 C   0  0  2  0  0  0  0  0  0  0  0  0
   25.2876  -21.0571  -17.0492 N   0  0  0  0  0  0  0  0  0  0  0  0
   23.0728  -20.1805  -16.5797 C   0  0  0  0  0  0  0  0  0  0  0  0
   22.5326  -20.8904  -17.4467 O   0  0  0  0  0  0  0  0  0  0  0  0
   21.0902  -18.0842  -13.8175 O   0  0  0  0  0  0  0  0  0  0  0  0
   20.4569  -19.3083  -14.0423 C   0  0  0  0  0  0  0  0  0  0  0  0
   20.8623  -19.8197  -15.4240 C   0  0  2  0  0  0  0  0  0  0  0  0
   22.2997  -19.6509  -15.5169 N   0  0  0  0  0  0  0  0  0  0  0  0
   20.1462  -19.0529  -16.4549 C   0  0  0  0  0  0  0  0  0  0  0  0
   20.6986  -18.1561  -17.1329 O   0  0  0  0  0  0  0  0  0  0  0  0
   18.8128  -19.3303  -16.6866 O   0  0  0  0  0  0  0  0  0  0  0  0
  2  1  1  1
  3  2  1  0
  3  4  1  0
  4  8  1  0
  5  4  2  0
  5  6  1  0
  6  7  1  0
  8  7  2  0
  9  2  1  0
  9 14  1  0
 10  9  2  0
 11 12  1  0
 13 15  1  0
 13 14  1  0
 13 12  1  6
 15 20  1  0
 16 15  2  0
 17 18  1  0
 19 18  1  1
 19 21  1  0
 20 19  1  0
 21 22  2  0
 21 23  1  0
M  END
$$$$
