HSS.pdb
     RDKit          3D

 23 23  0  0  1  0  0  0  0  0999 V2000
   24.7801  -19.0784  -18.7516 N   0  0  0  0  0  0  0  0  0  0  0  0
   24.6425  -18.5142  -17.4343 C   0  0  1  0  0  0  0  0  0  0  0  0
   24.6317  -17.0213  -17.5202 C   0  0  0  0  0  0  0  0  0  0  0  0
   26.0044  -16.5818  -17.9038 C   0  0  0  0  0  0  0  0  0  0  0  0
   27.1449  -17.3380  -18.0737 C   0  0  0  0  0  0  0  0  0  0  0  0
   28.1867  -16.5553  -18.4245 N   0  0  0  0  0  0  0  0  0  0  0  0
   27.6972  -15.3105  -18.4737 C   0  0  0  0  0  0  0  0  0  0  0  0
   26.3934  -15.2993  -18.1662 N   0  0  0  0  0  0  0  0  0  0  0  0
   23.4968  -19.0760  -16.6891 C   0  0  0  0  0  0  0  0  0  0  0  0
   22.4131  -19.2102  -17.3146 O   0  0  0  0  0  0  0  0  0  0  0  0
   23.7189  -21.4981  -13.5197 O   0  0  0  0  0  0  0  0  0  0  0  0
   22.6879  -20.5787  -13.3122 C   0  0  0  0  0  0  0  0  0  0  0  0
   22.3697  -19.9684  -14.6612 C   0  0  2  0  0  0  0  0  0  0  0  0
   23.5310  -19.4687  -15.3397 N   0  0  0  0  0  0  0  0  0  0  0  0
   21.2966  -18.9386  -14.5518 C   0  0  0  0  0  0  0  0  0  0  0  0
   21.5733  -17.8140  -14.0976 O   0  0  0  0  0  0  0  0  0  0  0  0
   19.3877  -17.4761  -17.0753 O   0  0  0  0  0  0  0  0  0  0  0  0
   18.3829  -18.0829  -16.3190 C   0  0  0  0  0  0  0  0  0  0  0  0
   18.8917  -18.2643  -14.8895 C   0  0  2  0  0  0  0  0  0  0  0  0
   19.9713  -19.2303  -14.9592 N   0  0  0  0  0  0  0  0  0  0  0  0
   17.7871  -18.7280  -14.0361 C   0  0  0  0  0  0  0  0  0  0  0  0
   17.7096  -19.9051  -13.6149 O   0  0  0  0  0  0  0  0  0  0  0  0
   16.7954  -17.8330  -13.6839 O   0  0  0  0  0  0  0  0  0  0  0  0
  2  1  1  6
  3  2  1  0
  3  4  1  0
  4  8  1  0
  5  4  2  0
  5  6  1  0
  6  7  1  0
  8  7  2  0
  9  2  1  0
  9 14  1  0
 10  9  2  0
 11 12  1  0
 13 15  1  0
 13 14  1  0
 13 12  1  1
 15 20  1  0
 16 15  2  0
 17 18  1  0
 19 18  1  6
 19 21  1  0
 20 19  1  0
 21 22  2  0
 21 23  1  0
M  END
$$$$
