HSS.pdb
     RDKit          3D

 23 23  0  0  1  0  0  0  0  0999 V2000
   17.5569  -11.1417  -17.3271 N   0  0  0  0  0  0  0  0  0  0  0  0
   18.4150  -11.0527  -16.1745 C   0  0  1  0  0  0  0  0  0  0  0  0
   19.7521  -11.6432  -16.4904 C   0  0  0  0  0  0  0  0  0  0  0  0
   19.5500  -13.0949  -16.7665 C   0  0  0  0  0  0  0  0  0  0  0  0
   19.2624  -14.1167  -15.8864 C   0  0  0  0  0  0  0  0  0  0  0  0
   19.1570  -15.2923  -16.5404 N   0  0  0  0  0  0  0  0  0  0  0  0
   19.3787  -15.0050  -17.8288 C   0  0  0  0  0  0  0  0  0  0  0  0
   19.6164  -13.6967  -17.9907 N   0  0  0  0  0  0  0  0  0  0  0  0
   18.4843   -9.6855  -15.6181 C   0  0  0  0  0  0  0  0  0  0  0  0
   18.8432   -8.7644  -16.3969 O   0  0  0  0  0  0  0  0  0  0  0  0
   18.4163   -8.6994  -11.5622 O   0  0  0  0  0  0  0  0  0  0  0  0
   17.7444   -7.8155  -12.4099 C   0  0  0  0  0  0  0  0  0  0  0  0
   18.3324   -8.0052  -13.7926 C   0  0  2  0  0  0  0  0  0  0  0  0
   18.1799   -9.3426  -14.2893 N   0  0  0  0  0  0  0  0  0  0  0  0
   19.7494   -7.5436  -13.8482 C   0  0  0  0  0  0  0  0  0  0  0  0
   20.6674   -8.3802  -13.7795 O   0  0  0  0  0  0  0  0  0  0  0  0
   23.1342   -5.5934  -15.7782 O   0  0  0  0  0  0  0  0  0  0  0  0
   21.8370   -6.0625  -15.5605 C   0  0  0  0  0  0  0  0  0  0  0  0
   21.4079   -5.6696  -14.1475 C   0  0  2  0  0  0  0  0  0  0  0  0
   20.0559   -6.1663  -13.9778 N   0  0  0  0  0  0  0  0  0  0  0  0
   21.4831   -4.2075  -14.0061 C   0  0  0  0  0  0  0  0  0  0  0  0
   20.5305   -3.4516  -14.3064 O   0  0  0  0  0  0  0  0  0  0  0  0
   22.6482   -3.6432  -13.5238 O   0  0  0  0  0  0  0  0  0  0  0  0
  2  1  1  6
  3  2  1  0
  3  4  1  0
  4  8  1  0
  5  4  2  0
  5  6  1  0
  6  7  1  0
  8  7  2  0
  9  2  1  0
  9 14  1  0
 10  9  2  0
 11 12  1  0
 13 15  1  0
 13 14  1  0
 13 12  1  1
 15 20  1  0
 16 15  2  0
 17 18  1  0
 19 18  1  6
 19 21  1  0
 20 19  1  0
 21 22  2  0
 21 23  1  0
M  END
$$$$
