HSS.pdb
     RDKit          3D

 23 23  0  0  1  0  0  0  0  0999 V2000
   28.3200  -24.6955  -16.9799 N   0  0  0  0  0  0  0  0  0  0  0  0
   29.2505  -25.7929  -16.9301 C   0  0  1  0  0  0  0  0  0  0  0  0
   28.9167  -26.7902  -17.9932 C   0  0  0  0  0  0  0  0  0  0  0  0
   27.7126  -27.5453  -17.5409 C   0  0  0  0  0  0  0  0  0  0  0  0
   27.6368  -28.7850  -16.9418 C   0  0  0  0  0  0  0  0  0  0  0  0
   26.3526  -29.1128  -16.6879 N   0  0  0  0  0  0  0  0  0  0  0  0
   25.6264  -28.0782  -17.1282 C   0  0  0  0  0  0  0  0  0  0  0  0
   26.4166  -27.1269  -17.6432 N   0  0  0  0  0  0  0  0  0  0  0  0
   30.6596  -25.3483  -16.9522 C   0  0  0  0  0  0  0  0  0  0  0  0
   30.9357  -24.3445  -17.6592 O   0  0  0  0  0  0  0  0  0  0  0  0
   33.4425  -25.5620  -14.0480 O   0  0  0  0  0  0  0  0  0  0  0  0
   33.9566  -26.0509  -15.2514 C   0  0  0  0  0  0  0  0  0  0  0  0
   33.0666  -25.5177  -16.3547 C   0  0  2  0  0  0  0  0  0  0  0  0
   31.7071  -25.9629  -16.2442 N   0  0  0  0  0  0  0  0  0  0  0  0
   33.6424  -25.7999  -17.7010 C   0  0  0  0  0  0  0  0  0  0  0  0
   33.1313  -26.6846  -18.4106 O   0  0  0  0  0  0  0  0  0  0  0  0
   37.2850  -24.6559  -20.7229 O   0  0  0  0  0  0  0  0  0  0  0  0
   36.6807  -24.5055  -19.4731 C   0  0  0  0  0  0  0  0  0  0  0  0
   35.4098  -25.3536  -19.4415 C   0  0  2  0  0  0  0  0  0  0  0  0
   34.7614  -25.0715  -18.1753 N   0  0  0  0  0  0  0  0  0  0  0  0
   35.7701  -26.7733  -19.5757 C   0  0  0  0  0  0  0  0  0  0  0  0
   36.2470  -27.4399  -18.6285 O   0  0  0  0  0  0  0  0  0  0  0  0
   35.5762  -27.3985  -20.7923 O   0  0  0  0  0  0  0  0  0  0  0  0
  2  1  1  6
  3  2  1  0
  3  4  1  0
  4  8  1  0
  5  4  2  0
  5  6  1  0
  6  7  1  0
  8  7  2  0
  9  2  1  0
  9 14  1  0
 10  9  2  0
 11 12  1  0
 13 15  1  0
 13 14  1  0
 13 12  1  1
 15 20  1  0
 16 15  2  0
 17 18  1  0
 19 18  1  1
 19 21  1  0
 20 19  1  0
 21 22  2  0
 21 23  1  0
M  END
$$$$
