HSS.pdb
     RDKit          3D

 23 23  0  0  1  0  0  0  0  0999 V2000
   19.2253  -12.5981  -17.9618 N   0  0  0  0  0  0  0  0  0  0  0  0
   19.9999  -11.4146  -18.2300 C   0  0  1  0  0  0  0  0  0  0  0  0
   19.4720  -10.7279  -19.4490 C   0  0  0  0  0  0  0  0  0  0  0  0
   19.6594  -11.6525  -20.6042 C   0  0  0  0  0  0  0  0  0  0  0  0
   20.7338  -11.7691  -21.4606 C   0  0  0  0  0  0  0  0  0  0  0  0
   20.5080  -12.7318  -22.3788 N   0  0  0  0  0  0  0  0  0  0  0  0
   19.2928  -13.2167  -22.0960 C   0  0  0  0  0  0  0  0  0  0  0  0
   18.7636  -12.5875  -21.0384 N   0  0  0  0  0  0  0  0  0  0  0  0
   20.1178  -10.5300  -17.0522 C   0  0  0  0  0  0  0  0  0  0  0  0
   19.0502  -10.0807  -16.5604 O   0  0  0  0  0  0  0  0  0  0  0  0
   23.4820  -10.1033  -14.7052 O   0  0  0  0  0  0  0  0  0  0  0  0
   22.2182   -9.8348  -14.1741 C   0  0  0  0  0  0  0  0  0  0  0  0
   21.3766   -9.2855  -15.3070 C   0  0  2  0  0  0  0  0  0  0  0  0
   21.3300  -10.1570  -16.4459 N   0  0  0  0  0  0  0  0  0  0  0  0
   21.7969   -7.9027  -15.6748 C   0  0  0  0  0  0  0  0  0  0  0  0
   22.6789   -7.7415  -16.5371 O   0  0  0  0  0  0  0  0  0  0  0  0
   19.4610   -4.8249  -14.5615 O   0  0  0  0  0  0  0  0  0  0  0  0
   20.3850   -4.6007  -15.5842 C   0  0  0  0  0  0  0  0  0  0  0  0
   21.6435   -5.4165  -15.2908 C   0  0  2  0  0  0  0  0  0  0  0  0
   21.2022   -6.7773  -15.0524 N   0  0  0  0  0  0  0  0  0  0  0  0
   22.3318   -4.8444  -14.1237 C   0  0  0  0  0  0  0  0  0  0  0  0
   22.4142   -5.4461  -13.0282 O   0  0  0  0  0  0  0  0  0  0  0  0
   22.9108   -3.5952  -14.2371 O   0  0  0  0  0  0  0  0  0  0  0  0
  2  1  1  1
  3  2  1  0
  3  4  1  0
  4  8  1  0
  5  4  2  0
  5  6  1  0
  6  7  1  0
  8  7  2  0
  9  2  1  0
  9 14  1  0
 10  9  2  0
 11 12  1  0
 13 15  1  0
 13 14  1  0
 13 12  1  1
 15 20  1  0
 16 15  2  0
 17 18  1  0
 19 18  1  1
 19 21  1  0
 20 19  1  0
 21 22  2  0
 21 23  1  0
M  END
$$$$
