HSS.pdb
     RDKit          3D

 23 23  0  0  1  0  0  0  0  0999 V2000
   18.1109  -10.9652  -15.3267 N   0  0  0  0  0  0  0  0  0  0  0  0
   19.0826  -10.1236  -15.9748 C   0  0  1  0  0  0  0  0  0  0  0  0
   18.8260  -10.0934  -17.4477 C   0  0  0  0  0  0  0  0  0  0  0  0
   19.0368  -11.4743  -17.9704 C   0  0  0  0  0  0  0  0  0  0  0  0
   20.1998  -12.0706  -18.4101 C   0  0  0  0  0  0  0  0  0  0  0  0
   19.9640  -13.3394  -18.8047 N   0  0  0  0  0  0  0  0  0  0  0  0
   18.6541  -13.5357  -18.6116 C   0  0  0  0  0  0  0  0  0  0  0  0
   18.0763  -12.4347  -18.1130 N   0  0  0  0  0  0  0  0  0  0  0  0
   19.1785   -8.7835  -15.3596 C   0  0  0  0  0  0  0  0  0  0  0  0
   18.1037   -8.1538  -15.1805 O   0  0  0  0  0  0  0  0  0  0  0  0
   22.6189   -7.2717  -13.7566 O   0  0  0  0  0  0  0  0  0  0  0  0
   21.4296   -6.7254  -13.2681 C   0  0  0  0  0  0  0  0  0  0  0  0
   20.4024   -6.8579  -14.3729 C   0  0  2  0  0  0  0  0  0  0  0  0
   20.3772   -8.1658  -14.9626 N   0  0  0  0  0  0  0  0  0  0  0  0
   20.5626   -5.7840  -15.3951 C   0  0  0  0  0  0  0  0  0  0  0  0
   21.2203   -6.0147  -16.4255 O   0  0  0  0  0  0  0  0  0  0  0  0
   17.8478   -3.4049  -16.6042 O   0  0  0  0  0  0  0  0  0  0  0  0
   18.8728   -2.5974  -16.1068 C   0  0  0  0  0  0  0  0  0  0  0  0
   20.1729   -3.4004  -16.1153 C   0  0  2  0  0  0  0  0  0  0  0  0
   19.9744   -4.5095  -15.2022 N   0  0  0  0  0  0  0  0  0  0  0  0
   21.2834   -2.5308  -15.6981 C   0  0  0  0  0  0  0  0  0  0  0  0
   21.9075   -2.7025  -14.6257 O   0  0  0  0  0  0  0  0  0  0  0  0
   21.6547   -1.4832  -16.5187 O   0  0  0  0  0  0  0  0  0  0  0  0
  2  1  1  1
  3  2  1  0
  3  4  1  0
  4  8  1  0
  5  4  2  0
  5  6  1  0
  6  7  1  0
  8  7  2  0
  9  2  1  0
  9 14  1  0
 10  9  2  0
 11 12  1  0
 13 15  1  0
 13 14  1  0
 13 12  1  1
 15 20  1  0
 16 15  2  0
 17 18  1  0
 19 18  1  1
 19 21  1  0
 20 19  1  0
 21 22  2  0
 21 23  1  0
M  END
$$$$
