HSS.pdb
     RDKit          3D

 23 23  0  0  1  0  0  0  0  0999 V2000
   17.3656  -11.2065  -17.4801 N   0  0  0  0  0  0  0  0  0  0  0  0
   17.8031  -10.5819  -16.2590 C   0  0  1  0  0  0  0  0  0  0  0  0
   18.6357  -11.5402  -15.4687 C   0  0  0  0  0  0  0  0  0  0  0  0
   17.7779  -12.7136  -15.1346 C   0  0  0  0  0  0  0  0  0  0  0  0
   16.4983  -12.7385  -14.6212 C   0  0  0  0  0  0  0  0  0  0  0  0
   16.0742  -14.0096  -14.4621 N   0  0  0  0  0  0  0  0  0  0  0  0
   17.0886  -14.7787  -14.8759 C   0  0  0  0  0  0  0  0  0  0  0  0
   18.1200  -14.0274  -15.2833 N   0  0  0  0  0  0  0  0  0  0  0  0
   18.4542   -9.2752  -16.4872 C   0  0  0  0  0  0  0  0  0  0  0  0
   19.5984   -9.2856  -17.0112 O   0  0  0  0  0  0  0  0  0  0  0  0
   16.9902   -5.6252  -15.1468 O   0  0  0  0  0  0  0  0  0  0  0  0
   17.6698   -5.5871  -16.3667 C   0  0  0  0  0  0  0  0  0  0  0  0
   18.5835   -6.7945  -16.3950 C   0  0  2  0  0  0  0  0  0  0  0  0
   17.8903   -8.0291  -16.1628 N   0  0  0  0  0  0  0  0  0  0  0  0
   19.7432   -6.6196  -15.4739 C   0  0  0  0  0  0  0  0  0  0  0  0
   19.6768   -7.0696  -14.3161 O   0  0  0  0  0  0  0  0  0  0  0  0
   24.4207   -5.3680  -15.2673 O   0  0  0  0  0  0  0  0  0  0  0  0
   23.2478   -5.4703  -16.0181 C   0  0  0  0  0  0  0  0  0  0  0  0
   22.0922   -5.7985  -15.0736 C   0  0  2  0  0  0  0  0  0  0  0  0
   20.9139   -5.9483  -15.9057 N   0  0  0  0  0  0  0  0  0  0  0  0
   21.9437   -4.7128  -14.0925 C   0  0  0  0  0  0  0  0  0  0  0  0
   21.3186   -3.6571  -14.3453 O   0  0  0  0  0  0  0  0  0  0  0  0
   22.5146   -4.8602  -12.8431 O   0  0  0  0  0  0  0  0  0  0  0  0
  2  1  1  6
  3  2  1  0
  3  4  1  0
  4  8  1  0
  5  4  2  0
  5  6  1  0
  6  7  1  0
  8  7  2  0
  9  2  1  0
  9 14  1  0
 10  9  2  0
 11 12  1  0
 13 15  1  0
 13 14  1  0
 13 12  1  1
 15 20  1  0
 16 15  2  0
 17 18  1  0
 19 18  1  6
 19 21  1  0
 20 19  1  0
 21 22  2  0
 21 23  1  0
M  END
$$$$
