HSS.pdb
     RDKit          3D

 23 23  0  0  1  0  0  0  0  0999 V2000
   17.8118  -10.8394  -15.6126 N   0  0  0  0  0  0  0  0  0  0  0  0
   18.6710   -9.9494  -16.3490 C   0  0  1  0  0  0  0  0  0  0  0  0
   18.2788   -9.9437  -17.7920 C   0  0  0  0  0  0  0  0  0  0  0  0
   18.5248  -11.3124  -18.3314 C   0  0  0  0  0  0  0  0  0  0  0  0
   19.6759  -11.8386  -18.8785 C   0  0  0  0  0  0  0  0  0  0  0  0
   19.4833  -13.1221  -19.2482 N   0  0  0  0  0  0  0  0  0  0  0  0
   18.2121  -13.3976  -18.9322 C   0  0  0  0  0  0  0  0  0  0  0  0
   17.6166  -12.3312  -18.3821 N   0  0  0  0  0  0  0  0  0  0  0  0
   18.7475   -8.6017  -15.7475 C   0  0  0  0  0  0  0  0  0  0  0  0
   17.6599   -8.0280  -15.4799 O   0  0  0  0  0  0  0  0  0  0  0  0
   22.1864   -7.0589  -14.2933 O   0  0  0  0  0  0  0  0  0  0  0  0
   21.0219   -6.5045  -13.7567 C   0  0  0  0  0  0  0  0  0  0  0  0
   19.9482   -6.6342  -14.8169 C   0  0  2  0  0  0  0  0  0  0  0  0
   19.9412   -7.9193  -15.4549 N   0  0  0  0  0  0  0  0  0  0  0  0
   20.0212   -5.5179  -15.8031 C   0  0  0  0  0  0  0  0  0  0  0  0
   20.4456   -5.7433  -16.9504 O   0  0  0  0  0  0  0  0  0  0  0  0
   18.6579   -2.4272  -18.4374 O   0  0  0  0  0  0  0  0  0  0  0  0
   18.6681   -3.4663  -17.5045 C   0  0  0  0  0  0  0  0  0  0  0  0
   19.6250   -3.0949  -16.3725 C   0  0  2  0  0  0  0  0  0  0  0  0
   19.6127   -4.2094  -15.4445 N   0  0  0  0  0  0  0  0  0  0  0  0
   19.1714   -1.8449  -15.7437 C   0  0  0  0  0  0  0  0  0  0  0  0
   18.2892   -1.8193  -14.8549 O   0  0  0  0  0  0  0  0  0  0  0  0
   19.7386   -0.6515  -16.1470 O   0  0  0  0  0  0  0  0  0  0  0  0
  2  1  1  1
  3  2  1  0
  3  4  1  0
  4  8  1  0
  5  4  2  0
  5  6  1  0
  6  7  1  0
  8  7  2  0
  9  2  1  0
  9 14  1  0
 10  9  2  0
 11 12  1  0
 13 15  1  0
 13 14  1  0
 13 12  1  1
 15 20  1  0
 16 15  2  0
 17 18  1  0
 19 18  1  6
 19 21  1  0
 20 19  1  0
 21 22  2  0
 21 23  1  0
M  END
$$$$
