NNE.pdb
     RDKit          3D

 26 25  0  0  1  0  0  0  0  0999 V2000
   29.9083  -22.4062   -9.6919 N   0  0  0  0  0  0  0  0  0  0  0  0
   30.2712  -21.7059  -10.8572 C   0  0  0  0  0  0  0  0  0  0  0  0
   31.4710  -21.7344  -11.2280 O   0  0  0  0  0  0  0  0  0  0  0  0
   29.2765  -20.9398  -11.6472 C   0  0  0  0  0  0  0  0  0  0  0  0
   27.9048  -20.9388  -11.0147 C   0  0  2  0  0  0  0  0  0  0  0  0
   27.3655  -22.2530  -10.8702 N   0  0  0  0  0  0  0  0  0  0  0  0
   27.0118  -20.0187  -11.7445 C   0  0  0  0  0  0  0  0  0  0  0  0
   27.2929  -18.7751  -11.8638 O   0  0  0  0  0  0  0  0  0  0  0  0
   26.8175  -17.8957  -14.5669 N   0  0  0  0  0  0  0  0  0  0  0  0
   27.2516  -19.1425  -15.1159 C   0  0  0  0  0  0  0  0  0  0  0  0
   28.2642  -19.1345  -15.8551 O   0  0  0  0  0  0  0  0  0  0  0  0
   26.4634  -20.3307  -14.7604 C   0  0  0  0  0  0  0  0  0  0  0  0
   25.3993  -20.0511  -13.6950 C   0  0  2  0  0  0  0  0  0  0  0  0
   25.7895  -20.3844  -12.3725 N   0  0  0  0  0  0  0  0  0  0  0  0
   24.1406  -20.6220  -14.1756 C   0  0  0  0  0  0  0  0  0  0  0  0
   24.1641  -21.8754  -14.4082 O   0  0  0  0  0  0  0  0  0  0  0  0
   22.9514  -19.9292  -14.3938 N   0  0  0  0  0  0  0  0  0  0  0  0
   21.6863  -20.6920  -14.4294 C   0  0  1  0  0  0  0  0  0  0  0  0
   20.6375  -19.9963  -13.6367 C   0  0  0  0  0  0  0  0  0  0  0  0
   19.3376  -20.7143  -13.6929 C   0  0  0  0  0  0  0  0  0  0  0  0
   18.2383  -19.9233  -13.0403 C   0  0  0  0  0  0  0  0  0  0  0  0
   18.5359  -18.7580  -12.6859 O   0  0  0  0  0  0  0  0  0  0  0  0
   21.2747  -20.8073  -15.8411 C   0  0  0  0  0  0  0  0  0  0  0  0
   20.4154  -21.8456  -16.2666 O   0  0  0  0  0  0  0  0  0  0  0  0
   16.9733  -20.3908  -12.8196 O   0  0  0  0  0  0  0  0  0  0  0  0
   21.6329  -20.0312  -16.7495 O   0  0  0  0  0  0  0  0  0  0  0  0
  2  1  1  0
  2  4  1  0
  3  2  2  0
  5  4  1  0
  5  6  1  6
  7  5  1  0
  8  7  2  0
  9 10  1  0
 10 12  1  0
 11 10  2  0
 13 12  1  6
 13 14  1  0
 14  7  1  0
 15 13  1  0
 15 16  2  0
 17 15  1  0
 18 17  1  0
 19 20  1  0
 18 19  1  1
 20 21  1  0
 21 25  1  0
 21 22  2  0
 23 18  1  0
 24 23  1  0
 26 23  2  0
M  END
$$$$
