NNE.pdb
     RDKit          3D

 26 25  0  0  1  0  0  0  0  0999 V2000
   15.9559  -13.9473  -12.7387 N   0  0  0  0  0  0  0  0  0  0  0  0
   16.4362  -12.8646  -13.4984 C   0  0  0  0  0  0  0  0  0  0  0  0
   17.2106  -13.0994  -14.4591 O   0  0  0  0  0  0  0  0  0  0  0  0
   16.0532  -11.4653  -13.1891 C   0  0  0  0  0  0  0  0  0  0  0  0
   15.1602  -11.3594  -11.9754 C   0  0  2  0  0  0  0  0  0  0  0  0
   13.8983  -12.0003  -12.1642 N   0  0  0  0  0  0  0  0  0  0  0  0
   15.0417   -9.9500  -11.5559 C   0  0  0  0  0  0  0  0  0  0  0  0
   14.2170   -9.1539  -12.1268 O   0  0  0  0  0  0  0  0  0  0  0  0
   14.7509   -5.6913   -8.2162 N   0  0  0  0  0  0  0  0  0  0  0  0
   16.0399   -6.3070   -8.2763 C   0  0  0  0  0  0  0  0  0  0  0  0
   17.0392   -5.5976   -8.0115 O   0  0  0  0  0  0  0  0  0  0  0  0
   16.0762   -7.7285   -8.6468 C   0  0  0  0  0  0  0  0  0  0  0  0
   15.6988   -7.9795  -10.1098 C   0  0  2  0  0  0  0  0  0  0  0  0
   15.7937   -9.3350  -10.5173 N   0  0  0  0  0  0  0  0  0  0  0  0
   16.4163   -6.9948  -10.9202 C   0  0  0  0  0  0  0  0  0  0  0  0
   17.6417   -7.2641  -11.1470 O   0  0  0  0  0  0  0  0  0  0  0  0
   15.8864   -5.8200  -11.4501 N   0  0  0  0  0  0  0  0  0  0  0  0
   16.7653   -4.9521  -12.2612 C   0  0  1  0  0  0  0  0  0  0  0  0
   16.4961   -5.1493  -13.7107 C   0  0  0  0  0  0  0  0  0  0  0  0
   17.3429   -4.2653  -14.5534 C   0  0  0  0  0  0  0  0  0  0  0  0
   17.0827   -4.4802  -16.0184 C   0  0  0  0  0  0  0  0  0  0  0  0
   16.2498   -5.3730  -16.3033 O   0  0  0  0  0  0  0  0  0  0  0  0
   16.4954   -3.5554  -11.8715 C   0  0  0  0  0  0  0  0  0  0  0  0
   17.4213   -2.5272  -12.1596 O   0  0  0  0  0  0  0  0  0  0  0  0
   17.6856   -3.7776  -17.0237 O   0  0  0  0  0  0  0  0  0  0  0  0
   15.4683   -3.1711  -11.2771 O   0  0  0  0  0  0  0  0  0  0  0  0
  2  1  1  0
  2  4  1  0
  3  2  2  0
  5  4  1  0
  5  6  1  6
  7  5  1  0
  8  7  2  0
  9 10  1  0
 10 12  1  0
 11 10  2  0
 13 12  1  1
 13 14  1  0
 14  7  1  0
 15 13  1  0
 15 16  2  0
 17 15  1  0
 18 17  1  0
 19 20  1  0
 18 19  1  6
 20 21  1  0
 21 25  1  0
 21 22  2  0
 23 18  1  0
 24 23  1  0
 26 23  2  0
M  END
$$$$
