NNE.pdb
     RDKit          3D

 26 25  0  0  1  0  0  0  0  0999 V2000
   17.1564  -13.0617  -17.6741 N   0  0  0  0  0  0  0  0  0  0  0  0
   16.0144  -12.3133  -17.3338 C   0  0  0  0  0  0  0  0  0  0  0  0
   14.9401  -12.5432  -17.9428 O   0  0  0  0  0  0  0  0  0  0  0  0
   16.0535  -11.2668  -16.2833 C   0  0  0  0  0  0  0  0  0  0  0  0
   17.4136  -11.1370  -15.6393 C   0  0  2  0  0  0  0  0  0  0  0  0
   17.6799  -12.1816  -14.7030 N   0  0  0  0  0  0  0  0  0  0  0  0
   17.5763   -9.7864  -15.0683 C   0  0  0  0  0  0  0  0  0  0  0  0
   17.2126   -8.7431  -15.7157 O   0  0  0  0  0  0  0  0  0  0  0  0
   16.6870   -9.7947  -10.4091 N   0  0  0  0  0  0  0  0  0  0  0  0
   16.7206   -8.6527  -11.2685 C   0  0  0  0  0  0  0  0  0  0  0  0
   15.6262   -8.1393  -11.6010 O   0  0  0  0  0  0  0  0  0  0  0  0
   18.0475   -8.1805  -11.6879 C   0  0  0  0  0  0  0  0  0  0  0  0
   18.2439   -8.2071  -13.2066 C   0  0  2  0  0  0  0  0  0  0  0  0
   18.1309   -9.4944  -13.7918 N   0  0  0  0  0  0  0  0  0  0  0  0
   19.4624   -7.4525  -13.5019 C   0  0  0  0  0  0  0  0  0  0  0  0
   20.5492   -8.1120  -13.4039 O   0  0  0  0  0  0  0  0  0  0  0  0
   19.5319   -6.1107  -13.8711 N   0  0  0  0  0  0  0  0  0  0  0  0
   20.8357   -5.5629  -14.2994 C   0  0  1  0  0  0  0  0  0  0  0  0
   20.6471   -4.2751  -15.0194 C   0  0  0  0  0  0  0  0  0  0  0  0
   21.9339   -3.7379  -15.5333 C   0  0  0  0  0  0  0  0  0  0  0  0
   21.7481   -2.4114  -16.2160 C   0  0  0  0  0  0  0  0  0  0  0  0
   20.5619   -2.0595  -16.4191 O   0  0  0  0  0  0  0  0  0  0  0  0
   21.6545   -5.3625  -13.0891 C   0  0  0  0  0  0  0  0  0  0  0  0
   23.0636   -5.2853  -13.1678 O   0  0  0  0  0  0  0  0  0  0  0  0
   22.7692   -1.5951  -16.6144 O   0  0  0  0  0  0  0  0  0  0  0  0
   21.1967   -5.2479  -11.9346 O   0  0  0  0  0  0  0  0  0  0  0  0
  2  1  1  0
  2  4  1  0
  3  2  2  0
  5  4  1  0
  5  6  1  1
  7  5  1  0
  8  7  2  0
  9 10  1  0
 10 12  1  0
 11 10  2  0
 13 12  1  1
 13 14  1  0
 14  7  1  0
 15 13  1  0
 15 16  2  0
 17 15  1  0
 18 17  1  0
 19 20  1  0
 18 19  1  1
 20 21  1  0
 21 25  1  0
 21 22  2  0
 23 18  1  0
 24 23  1  0
 26 23  2  0
M  END
$$$$
