NNE.pdb
     RDKit          3D

 26 25  0  0  1  0  0  0  0  0999 V2000
   14.4558  -10.8581  -15.9149 N   0  0  0  0  0  0  0  0  0  0  0  0
   15.2599  -11.3184  -14.8557 C   0  0  0  0  0  0  0  0  0  0  0  0
   14.7770  -12.1543  -14.0521 O   0  0  0  0  0  0  0  0  0  0  0  0
   16.6511  -10.8390  -14.6688 C   0  0  0  0  0  0  0  0  0  0  0  0
   17.0826   -9.8672  -15.7417 C   0  0  2  0  0  0  0  0  0  0  0  0
   17.1677  -10.4747  -17.0311 N   0  0  0  0  0  0  0  0  0  0  0  0
   18.3256   -9.1842  -15.3355 C   0  0  0  0  0  0  0  0  0  0  0  0
   18.3928   -8.5219  -14.2416 O   0  0  0  0  0  0  0  0  0  0  0  0
   23.0851   -7.3233  -15.0122 N   0  0  0  0  0  0  0  0  0  0  0  0
   23.2225   -8.3516  -15.9960 C   0  0  0  0  0  0  0  0  0  0  0  0
   24.3800   -8.6403  -16.3817 O   0  0  0  0  0  0  0  0  0  0  0  0
   21.9826   -8.9820  -16.4700 C   0  0  0  0  0  0  0  0  0  0  0  0
   20.7406   -8.5210  -15.7015 C   0  0  2  0  0  0  0  0  0  0  0  0
   19.5404   -9.1786  -16.0749 N   0  0  0  0  0  0  0  0  0  0  0  0
   20.7282   -7.0580  -15.7304 C   0  0  0  0  0  0  0  0  0  0  0  0
   20.0682   -6.5372  -16.6890 O   0  0  0  0  0  0  0  0  0  0  0  0
   21.3597   -6.2103  -14.8225 N   0  0  0  0  0  0  0  0  0  0  0  0
   21.0101   -4.7746  -14.8362 C   0  0  1  0  0  0  0  0  0  0  0  0
   19.5767   -4.5855  -14.4871 C   0  0  0  0  0  0  0  0  0  0  0  0
   19.2043   -3.1473  -14.4489 C   0  0  0  0  0  0  0  0  0  0  0  0
   17.9858   -2.8675  -15.2839 C   0  0  0  0  0  0  0  0  0  0  0  0
   17.3576   -3.8725  -15.6932 O   0  0  0  0  0  0  0  0  0  0  0  0
   21.8747   -4.0957  -13.8529 C   0  0  0  0  0  0  0  0  0  0  0  0
   22.5539   -4.8276  -12.8526 O   0  0  0  0  0  0  0  0  0  0  0  0
   17.5405   -1.6174  -15.6103 O   0  0  0  0  0  0  0  0  0  0  0  0
   22.0765   -2.8654  -13.8165 O   0  0  0  0  0  0  0  0  0  0  0  0
  2  1  1  0
  2  4  1  0
  3  2  2  0
  5  4  1  0
  5  6  1  6
  7  5  1  0
  8  7  2  0
  9 10  1  0
 10 12  1  0
 11 10  2  0
 13 12  1  6
 13 14  1  0
 14  7  1  0
 15 13  1  0
 15 16  2  0
 17 15  1  0
 18 17  1  0
 19 20  1  0
 18 19  1  1
 20 21  1  0
 21 25  1  0
 21 22  2  0
 23 18  1  0
 24 23  1  0
 26 23  2  0
M  END
$$$$
