NNE.pdb
     RDKit          3D

 26 25  0  0  1  0  0  0  0  0999 V2000
   28.6800  -20.2648  -16.9215 N   0  0  0  0  0  0  0  0  0  0  0  0
   28.6216  -21.5548  -16.3624 C   0  0  0  0  0  0  0  0  0  0  0  0
   29.4963  -22.3941  -16.6916 O   0  0  0  0  0  0  0  0  0  0  0  0
   27.5571  -21.9410  -15.4043 C   0  0  0  0  0  0  0  0  0  0  0  0
   26.5861  -20.8177  -15.1270 C   0  0  2  0  0  0  0  0  0  0  0  0
   27.2367  -19.6251  -14.6875 N   0  0  0  0  0  0  0  0  0  0  0  0
   25.5287  -21.2784  -14.2071 C   0  0  0  0  0  0  0  0  0  0  0  0
   24.9339  -22.3982  -14.3860 O   0  0  0  0  0  0  0  0  0  0  0  0
   26.2395  -21.8371  -10.9637 N   0  0  0  0  0  0  0  0  0  0  0  0
   25.4151  -20.9913  -10.1581 C   0  0  0  0  0  0  0  0  0  0  0  0
   25.8218  -20.7027   -9.0078 O   0  0  0  0  0  0  0  0  0  0  0  0
   24.1539  -20.5334  -10.7575 C   0  0  0  0  0  0  0  0  0  0  0  0
   23.9937  -20.9568  -12.2206 C   0  0  2  0  0  0  0  0  0  0  0  0
   25.0645  -20.5680  -13.0659 N   0  0  0  0  0  0  0  0  0  0  0  0
   22.6466  -20.5701  -12.6414 C   0  0  0  0  0  0  0  0  0  0  0  0
   22.5049  -19.3425  -12.9553 O   0  0  0  0  0  0  0  0  0  0  0  0
   21.5368  -21.4085  -12.7255 N   0  0  0  0  0  0  0  0  0  0  0  0
   20.3163  -20.9002  -13.3855 C   0  0  1  0  0  0  0  0  0  0  0  0
   20.4447  -21.0008  -14.8640 C   0  0  0  0  0  0  0  0  0  0  0  0
   20.6897  -22.3997  -15.3016 C   0  0  0  0  0  0  0  0  0  0  0  0
   20.0481  -22.6854  -16.6309 C   0  0  0  0  0  0  0  0  0  0  0  0
   18.8890  -22.2344  -16.7897 O   0  0  0  0  0  0  0  0  0  0  0  0
   19.1808  -21.7123  -12.9096 C   0  0  0  0  0  0  0  0  0  0  0  0
   17.8473  -21.3179  -13.1617 O   0  0  0  0  0  0  0  0  0  0  0  0
   20.6409  -23.3874  -17.6425 O   0  0  0  0  0  0  0  0  0  0  0  0
   19.2900  -22.7765  -12.2682 O   0  0  0  0  0  0  0  0  0  0  0  0
  2  1  1  0
  2  4  1  0
  3  2  2  0
  5  4  1  0
  5  6  1  1
  7  5  1  0
  8  7  2  0
  9 10  1  0
 10 12  1  0
 11 10  2  0
 13 12  1  1
 13 14  1  0
 14  7  1  0
 15 13  1  0
 15 16  2  0
 17 15  1  0
 18 17  1  0
 19 20  1  0
 18 19  1  6
 20 21  1  0
 21 25  1  0
 21 22  2  0
 23 18  1  0
 24 23  1  0
 26 23  2  0
M  END
$$$$
