NNE.pdb
     RDKit          3D

 26 25  0  0  1  0  0  0  0  0999 V2000
   21.0197  -14.6079  -18.5435 N   0  0  0  0  0  0  0  0  0  0  0  0
   20.2310  -13.4838  -18.2361 C   0  0  0  0  0  0  0  0  0  0  0  0
   19.0890  -13.3903  -18.7508 O   0  0  0  0  0  0  0  0  0  0  0  0
   20.7169  -12.4161  -17.3282 C   0  0  0  0  0  0  0  0  0  0  0  0
   22.1105  -12.6809  -16.8093 C   0  0  2  0  0  0  0  0  0  0  0  0
   22.1481  -13.7386  -15.8508 N   0  0  0  0  0  0  0  0  0  0  0  0
   22.7144  -11.4274  -16.3187 C   0  0  0  0  0  0  0  0  0  0  0  0
   22.1876  -10.7687  -15.3551 O   0  0  0  0  0  0  0  0  0  0  0  0
   25.6322  -11.3532  -14.5815 N   0  0  0  0  0  0  0  0  0  0  0  0
   26.5777  -10.6392  -15.3816 C   0  0  0  0  0  0  0  0  0  0  0  0
   27.7941  -10.8922  -15.2141 O   0  0  0  0  0  0  0  0  0  0  0  0
   26.0321   -9.6642  -16.3362 C   0  0  0  0  0  0  0  0  0  0  0  0
   24.5009   -9.6351  -16.3587 C   0  0  2  0  0  0  0  0  0  0  0  0
   23.8970  -10.8278  -16.8328 N   0  0  0  0  0  0  0  0  0  0  0  0
   24.0981   -8.3876  -17.0089 C   0  0  0  0  0  0  0  0  0  0  0  0
   24.2160   -8.3716  -18.2783 O   0  0  0  0  0  0  0  0  0  0  0  0
   23.6097   -7.2474  -16.3739 N   0  0  0  0  0  0  0  0  0  0  0  0
   23.1529   -6.1160  -17.2074 C   0  0  1  0  0  0  0  0  0  0  0  0
   22.2290   -5.2420  -16.4361 C   0  0  0  0  0  0  0  0  0  0  0  0
   20.8821   -5.8538  -16.2944 C   0  0  0  0  0  0  0  0  0  0  0  0
   19.9403   -4.9538  -15.5439 C   0  0  0  0  0  0  0  0  0  0  0  0
   19.1690   -4.2578  -16.2458 O   0  0  0  0  0  0  0  0  0  0  0  0
   24.3480   -5.3604  -17.6273 C   0  0  0  0  0  0  0  0  0  0  0  0
   24.3255   -4.5448  -18.7814 O   0  0  0  0  0  0  0  0  0  0  0  0
   19.8816   -4.8566  -14.1820 O   0  0  0  0  0  0  0  0  0  0  0  0
   25.4413   -5.3724  -17.0270 O   0  0  0  0  0  0  0  0  0  0  0  0
  2  1  1  0
  2  4  1  0
  3  2  2  0
  5  4  1  0
  5  6  1  1
  7  5  1  0
  8  7  2  0
  9 10  1  0
 10 12  1  0
 11 10  2  0
 13 12  1  6
 13 14  1  0
 14  7  1  0
 15 13  1  0
 15 16  2  0
 17 15  1  0
 18 17  1  0
 19 20  1  0
 18 19  1  1
 20 21  1  0
 21 25  1  0
 21 22  2  0
 23 18  1  0
 24 23  1  0
 26 23  2  0
M  END
$$$$
