NNE.pdb
     RDKit          3D

 26 25  0  0  1  0  0  0  0  0999 V2000
   17.8510  -13.6915  -16.9253 N   0  0  0  0  0  0  0  0  0  0  0  0
   17.0333  -13.1783  -15.9016 C   0  0  0  0  0  0  0  0  0  0  0  0
   15.8065  -13.4476  -15.9185 O   0  0  0  0  0  0  0  0  0  0  0  0
   17.5842  -12.3314  -14.8155 C   0  0  0  0  0  0  0  0  0  0  0  0
   16.9900  -10.9428  -14.7998 C   0  0  2  0  0  0  0  0  0  0  0  0
   17.2417  -10.2239  -16.0075 N   0  0  0  0  0  0  0  0  0  0  0  0
   17.4248  -10.2201  -13.5893 C   0  0  0  0  0  0  0  0  0  0  0  0
   17.2713  -10.7254  -12.4227 O   0  0  0  0  0  0  0  0  0  0  0  0
   20.6711   -9.2037  -13.5386 N   0  0  0  0  0  0  0  0  0  0  0  0
   20.7480   -7.8130  -13.2161 C   0  0  0  0  0  0  0  0  0  0  0  0
   21.8268   -7.2180  -13.4486 O   0  0  0  0  0  0  0  0  0  0  0  0
   19.5441   -7.2021  -12.6356 C   0  0  0  0  0  0  0  0  0  0  0  0
   18.4065   -8.2039  -12.4160 C   0  0  2  0  0  0  0  0  0  0  0  0
   18.0365   -8.9364  -13.5730 N   0  0  0  0  0  0  0  0  0  0  0  0
   17.3355   -7.4995  -11.7102 C   0  0  0  0  0  0  0  0  0  0  0  0
   16.6304   -6.7180  -12.4297 O   0  0  0  0  0  0  0  0  0  0  0  0
   17.0304   -7.6089  -10.3549 N   0  0  0  0  0  0  0  0  0  0  0  0
   15.8150   -6.9383   -9.8485 C   0  0  1  0  0  0  0  0  0  0  0  0
   14.9338   -7.9148   -9.1540 C   0  0  0  0  0  0  0  0  0  0  0  0
   13.7240   -7.2612   -8.5905 C   0  0  0  0  0  0  0  0  0  0  0  0
   12.7735   -8.2665   -8.0022 C   0  0  0  0  0  0  0  0  0  0  0  0
   11.8327   -7.7983   -7.3182 O   0  0  0  0  0  0  0  0  0  0  0  0
   16.2455   -5.8785   -8.9174 C   0  0  0  0  0  0  0  0  0  0  0  0
   15.3377   -4.8947   -8.4641 O   0  0  0  0  0  0  0  0  0  0  0  0
   12.8763   -9.6192   -8.1673 O   0  0  0  0  0  0  0  0  0  0  0  0
   17.4017   -5.7594   -8.4647 O   0  0  0  0  0  0  0  0  0  0  0  0
  2  1  1  0
  2  4  1  0
  3  2  2  0
  5  4  1  0
  5  6  1  6
  7  5  1  0
  8  7  2  0
  9 10  1  0
 10 12  1  0
 11 10  2  0
 13 12  1  6
 13 14  1  0
 14  7  1  0
 15 13  1  0
 15 16  2  0
 17 15  1  0
 18 17  1  0
 19 20  1  0
 18 19  1  1
 20 21  1  0
 21 25  1  0
 21 22  2  0
 23 18  1  0
 24 23  1  0
 26 23  2  0
M  END
$$$$
