NNE.pdb
     RDKit          3D

 26 25  0  0  1  0  0  0  0  0999 V2000
   28.2019  -11.5776  -21.6042 N   0  0  0  0  0  0  0  0  0  0  0  0
   29.3274  -11.5557  -20.7598 C   0  0  0  0  0  0  0  0  0  0  0  0
   30.1551  -12.4976  -20.8349 O   0  0  0  0  0  0  0  0  0  0  0  0
   29.5525  -10.4558  -19.7904 C   0  0  0  0  0  0  0  0  0  0  0  0
   29.9650  -10.9558  -18.4261 C   0  0  2  0  0  0  0  0  0  0  0  0
   28.9206  -11.6692  -17.7635 N   0  0  0  0  0  0  0  0  0  0  0  0
   30.5123   -9.8449  -17.6243 C   0  0  0  0  0  0  0  0  0  0  0  0
   29.7425   -9.0313  -17.0036 O   0  0  0  0  0  0  0  0  0  0  0  0
   33.4171   -6.6057  -14.9941 N   0  0  0  0  0  0  0  0  0  0  0  0
   34.3013   -7.7084  -15.2092 C   0  0  0  0  0  0  0  0  0  0  0  0
   35.4183   -7.6812  -14.6405 O   0  0  0  0  0  0  0  0  0  0  0  0
   33.8156   -8.7831  -16.0859 C   0  0  0  0  0  0  0  0  0  0  0  0
   32.4358   -8.4946  -16.6847 C   0  0  2  0  0  0  0  0  0  0  0  0
   31.8944   -9.5571  -17.4531 N   0  0  0  0  0  0  0  0  0  0  0  0
   32.5059   -7.1828  -17.3293 C   0  0  0  0  0  0  0  0  0  0  0  0
   33.0829   -7.1641  -18.4661 O   0  0  0  0  0  0  0  0  0  0  0  0
   32.0081   -5.9857  -16.8184 N   0  0  0  0  0  0  0  0  0  0  0  0
   31.6698   -4.9013  -17.7634 C   0  0  1  0  0  0  0  0  0  0  0  0
   30.3193   -5.1222  -18.3462 C   0  0  0  0  0  0  0  0  0  0  0  0
   29.9277   -4.0196  -19.2624 C   0  0  0  0  0  0  0  0  0  0  0  0
   28.5821   -4.2675  -19.8853 C   0  0  0  0  0  0  0  0  0  0  0  0
   28.5614   -4.3414  -21.1368 O   0  0  0  0  0  0  0  0  0  0  0  0
   31.7079   -3.6304  -17.0159 C   0  0  0  0  0  0  0  0  0  0  0  0
   31.6443   -3.6139  -15.6040 O   0  0  0  0  0  0  0  0  0  0  0  0
   27.4182   -4.4119  -19.1839 O   0  0  0  0  0  0  0  0  0  0  0  0
   31.7958   -2.5020  -17.5401 O   0  0  0  0  0  0  0  0  0  0  0  0
  2  1  1  0
  2  4  1  0
  3  2  2  0
  5  4  1  0
  5  6  1  1
  7  5  1  0
  8  7  2  0
  9 10  1  0
 10 12  1  0
 11 10  2  0
 13 12  1  6
 13 14  1  0
 14  7  1  0
 15 13  1  0
 15 16  2  0
 17 15  1  0
 18 17  1  0
 19 20  1  0
 18 19  1  1
 20 21  1  0
 21 25  1  0
 21 22  2  0
 23 18  1  0
 24 23  1  0
 26 23  2  0
M  END
$$$$
