NNE.pdb
     RDKit          3D

 26 25  0  0  1  0  0  0  0  0999 V2000
   16.8863  -15.7058  -13.1758 N   0  0  0  0  0  0  0  0  0  0  0  0
   17.9089  -15.7790  -14.1397 C   0  0  0  0  0  0  0  0  0  0  0  0
   18.6482  -16.7943  -14.1576 O   0  0  0  0  0  0  0  0  0  0  0  0
   18.1315  -14.6911  -15.1231 C   0  0  0  0  0  0  0  0  0  0  0  0
   17.0977  -13.5942  -15.0239 C   0  0  2  0  0  0  0  0  0  0  0  0
   15.7681  -14.0721  -15.2305 N   0  0  0  0  0  0  0  0  0  0  0  0
   17.4603  -12.4751  -15.9143 C   0  0  0  0  0  0  0  0  0  0  0  0
   17.5872  -12.6451  -17.1771 O   0  0  0  0  0  0  0  0  0  0  0  0
   15.7404   -8.2678  -18.9823 N   0  0  0  0  0  0  0  0  0  0  0  0
   16.9045   -8.7206  -18.2865 C   0  0  0  0  0  0  0  0  0  0  0  0
   17.9738   -8.0910  -18.4652 O   0  0  0  0  0  0  0  0  0  0  0  0
   16.7397   -9.8941  -17.4175 C   0  0  0  0  0  0  0  0  0  0  0  0
   17.8295  -10.0090  -16.3475 C   0  0  2  0  0  0  0  0  0  0  0  0
   17.7020  -11.1373  -15.4971 N   0  0  0  0  0  0  0  0  0  0  0  0
   17.9424   -8.7025  -15.6982 C   0  0  0  0  0  0  0  0  0  0  0  0
   16.9558   -8.3730  -14.9609 O   0  0  0  0  0  0  0  0  0  0  0  0
   19.0089   -7.8133  -15.8152 N   0  0  0  0  0  0  0  0  0  0  0  0
   19.1088   -6.6996  -14.8492 C   0  0  1  0  0  0  0  0  0  0  0  0
   20.5205   -6.2498  -14.7189 C   0  0  0  0  0  0  0  0  0  0  0  0
   20.6723   -5.2090  -13.6690 C   0  0  0  0  0  0  0  0  0  0  0  0
   22.0963   -4.7413  -13.5532 C   0  0  0  0  0  0  0  0  0  0  0  0
   22.8547   -5.4570  -12.8571 O   0  0  0  0  0  0  0  0  0  0  0  0
   18.2606   -5.6003  -15.3466 C   0  0  0  0  0  0  0  0  0  0  0  0
   17.5119   -4.7980  -14.4560 O   0  0  0  0  0  0  0  0  0  0  0  0
   22.5926   -3.6147  -14.1466 O   0  0  0  0  0  0  0  0  0  0  0  0
   18.1324   -5.2920  -16.5484 O   0  0  0  0  0  0  0  0  0  0  0  0
  2  1  1  0
  2  4  1  0
  3  2  2  0
  5  4  1  0
  5  6  1  6
  7  5  1  0
  8  7  2  0
  9 10  1  0
 10 12  1  0
 11 10  2  0
 13 12  1  6
 13 14  1  0
 14  7  1  0
 15 13  1  0
 15 16  2  0
 17 15  1  0
 18 17  1  0
 19 20  1  0
 18 19  1  6
 20 21  1  0
 21 25  1  0
 21 22  2  0
 23 18  1  0
 24 23  1  0
 26 23  2  0
M  END
$$$$
