NNE.pdb
     RDKit          3D

 26 25  0  0  1  0  0  0  0  0999 V2000
   13.5924  -13.7304  -11.5770 N   0  0  0  0  0  0  0  0  0  0  0  0
   12.6617  -12.6760  -11.6256 C   0  0  0  0  0  0  0  0  0  0  0  0
   11.4481  -12.9512  -11.7969 O   0  0  0  0  0  0  0  0  0  0  0  0
   13.0806  -11.2602  -11.4835 C   0  0  0  0  0  0  0  0  0  0  0  0
   14.5691  -11.1101  -11.2751 C   0  0  2  0  0  0  0  0  0  0  0  0
   15.0470  -11.8662  -10.1621 N   0  0  0  0  0  0  0  0  0  0  0  0
   14.9289   -9.6810  -11.2072 C   0  0  0  0  0  0  0  0  0  0  0  0
   14.7160   -8.8945  -12.1950 O   0  0  0  0  0  0  0  0  0  0  0  0
   15.8810   -4.9474   -9.6979 N   0  0  0  0  0  0  0  0  0  0  0  0
   15.8839   -5.6651   -8.4613 C   0  0  0  0  0  0  0  0  0  0  0  0
   15.8527   -4.9995   -7.3993 O   0  0  0  0  0  0  0  0  0  0  0  0
   15.9240   -7.1315   -8.5489 C   0  0  0  0  0  0  0  0  0  0  0  0
   15.8218   -7.6521   -9.9857 C   0  0  2  0  0  0  0  0  0  0  0  0
   15.5278   -9.0359  -10.0902 N   0  0  0  0  0  0  0  0  0  0  0  0
   16.9998   -7.1711  -10.7084 C   0  0  0  0  0  0  0  0  0  0  0  0
   17.4758   -7.9780  -11.5733 O   0  0  0  0  0  0  0  0  0  0  0  0
   17.6269   -5.9389  -10.5352 N   0  0  0  0  0  0  0  0  0  0  0  0
   18.7862   -5.6102  -11.3906 C   0  0  1  0  0  0  0  0  0  0  0  0
   19.4997   -6.8501  -11.7978 C   0  0  0  0  0  0  0  0  0  0  0  0
   20.5874   -6.5656  -12.7696 C   0  0  0  0  0  0  0  0  0  0  0  0
   21.3147   -7.8187  -13.1706 C   0  0  0  0  0  0  0  0  0  0  0  0
   21.3868   -8.0419  -14.4023 O   0  0  0  0  0  0  0  0  0  0  0  0
   18.2772   -4.8947  -12.5757 C   0  0  0  0  0  0  0  0  0  0  0  0
   19.1562   -4.2148  -13.4489 O   0  0  0  0  0  0  0  0  0  0  0  0
   21.8831   -8.6992  -12.2935 O   0  0  0  0  0  0  0  0  0  0  0  0
   17.0749   -4.8276  -12.9010 O   0  0  0  0  0  0  0  0  0  0  0  0
  2  1  1  0
  2  4  1  0
  3  2  2  0
  5  4  1  0
  5  6  1  1
  7  5  1  0
  8  7  2  0
  9 10  1  0
 10 12  1  0
 11 10  2  0
 13 12  1  1
 13 14  1  0
 14  7  1  0
 15 13  1  0
 15 16  2  0
 17 15  1  0
 18 17  1  0
 19 20  1  0
 18 19  1  6
 20 21  1  0
 21 25  1  0
 21 22  2  0
 23 18  1  0
 24 23  1  0
 26 23  2  0
M  END
$$$$
