NNE.pdb
     RDKit          3D

 26 25  0  0  1  0  0  0  0  0999 V2000
   16.9502  -11.9816  -19.3491 N   0  0  0  0  0  0  0  0  0  0  0  0
   16.5894  -10.8131  -18.6530 C   0  0  0  0  0  0  0  0  0  0  0  0
   15.6089  -10.1450  -19.0652 O   0  0  0  0  0  0  0  0  0  0  0  0
   17.3378  -10.3571  -17.4563 C   0  0  0  0  0  0  0  0  0  0  0  0
   18.4848  -11.2734  -17.1011 C   0  0  2  0  0  0  0  0  0  0  0  0
   18.0502  -12.4789  -16.4713 N   0  0  0  0  0  0  0  0  0  0  0  0
   19.4961  -10.5380  -16.3181 C   0  0  0  0  0  0  0  0  0  0  0  0
   19.2344  -10.0926  -15.1464 O   0  0  0  0  0  0  0  0  0  0  0  0
   23.7333   -8.2826  -14.5657 N   0  0  0  0  0  0  0  0  0  0  0  0
   24.2092   -9.3985  -15.3223 C   0  0  0  0  0  0  0  0  0  0  0  0
   25.4182   -9.7095  -15.2072 O   0  0  0  0  0  0  0  0  0  0  0  0
   23.2283  -10.0854  -16.1741 C   0  0  0  0  0  0  0  0  0  0  0  0
   21.8042   -9.5469  -16.0076 C   0  0  2  0  0  0  0  0  0  0  0  0
   20.8198  -10.2484  -16.7500 N   0  0  0  0  0  0  0  0  0  0  0  0
   21.8620   -8.0966  -16.1934 C   0  0  0  0  0  0  0  0  0  0  0  0
   22.2399   -7.7095  -17.3480 O   0  0  0  0  0  0  0  0  0  0  0  0
   21.5471   -7.1303  -15.2401 N   0  0  0  0  0  0  0  0  0  0  0  0
   21.6416   -5.7056  -15.6210 C   0  0  1  0  0  0  0  0  0  0  0  0
   20.3469   -5.0153  -15.3765 C   0  0  0  0  0  0  0  0  0  0  0  0
   19.3447   -5.3367  -16.4256 C   0  0  0  0  0  0  0  0  0  0  0  0
   18.0320   -4.6508  -16.1674 C   0  0  0  0  0  0  0  0  0  0  0  0
   17.0704   -5.3988  -15.8709 O   0  0  0  0  0  0  0  0  0  0  0  0
   22.7123   -5.0972  -14.8094 C   0  0  0  0  0  0  0  0  0  0  0  0
   23.1925   -3.7986  -15.0933 O   0  0  0  0  0  0  0  0  0  0  0  0
   17.8368   -3.3000  -16.2363 O   0  0  0  0  0  0  0  0  0  0  0  0
   23.2680   -5.6505  -13.8394 O   0  0  0  0  0  0  0  0  0  0  0  0
  2  1  1  0
  2  4  1  0
  3  2  2  0
  5  4  1  0
  5  6  1  1
  7  5  1  0
  8  7  2  0
  9 10  1  0
 10 12  1  0
 11 10  2  0
 13 12  1  6
 13 14  1  0
 14  7  1  0
 15 13  1  0
 15 16  2  0
 17 15  1  0
 18 17  1  0
 19 20  1  0
 18 19  1  1
 20 21  1  0
 21 25  1  0
 21 22  2  0
 23 18  1  0
 24 23  1  0
 26 23  2  0
M  END
$$$$
