NNE.pdb
     RDKit          3D

 26 25  0  0  1  0  0  0  0  0999 V2000
   10.4051  -12.8995  -13.6487 N   0  0  0  0  0  0  0  0  0  0  0  0
   11.4745  -12.2421  -14.2846 C   0  0  0  0  0  0  0  0  0  0  0  0
   11.9381  -12.7320  -15.3443 O   0  0  0  0  0  0  0  0  0  0  0  0
   12.0619  -10.9968  -13.7330 C   0  0  0  0  0  0  0  0  0  0  0  0
   13.5711  -10.9864  -13.7942 C   0  0  2  0  0  0  0  0  0  0  0  0
   14.1542  -12.1282  -13.1656 N   0  0  0  0  0  0  0  0  0  0  0  0
   14.0898   -9.7064  -13.2754 C   0  0  0  0  0  0  0  0  0  0  0  0
   13.3040   -8.7329  -13.0023 O   0  0  0  0  0  0  0  0  0  0  0  0
   15.7840   -9.5778  -10.1039 N   0  0  0  0  0  0  0  0  0  0  0  0
   17.1121   -9.1640  -10.4341 C   0  0  0  0  0  0  0  0  0  0  0  0
   18.0356   -9.4817   -9.6480 O   0  0  0  0  0  0  0  0  0  0  0  0
   17.2749   -8.3963  -11.6766 C   0  0  0  0  0  0  0  0  0  0  0  0
   15.9659   -8.2205  -12.4520 C   0  0  2  0  0  0  0  0  0  0  0  0
   15.4594   -9.4133  -13.0289 N   0  0  0  0  0  0  0  0  0  0  0  0
   16.1399   -7.0762  -13.3474 C   0  0  0  0  0  0  0  0  0  0  0  0
   16.5860   -7.3556  -14.5086 O   0  0  0  0  0  0  0  0  0  0  0  0
   15.8659   -5.7439  -13.0450 N   0  0  0  0  0  0  0  0  0  0  0  0
   16.1629   -4.7137  -14.0619 C   0  0  1  0  0  0  0  0  0  0  0  0
   15.5648   -3.4093  -13.6703 C   0  0  0  0  0  0  0  0  0  0  0  0
   14.0809   -3.4397  -13.7439 C   0  0  0  0  0  0  0  0  0  0  0  0
   13.4784   -2.1224  -13.3415 C   0  0  0  0  0  0  0  0  0  0  0  0
   13.6024   -1.1866  -14.1667 O   0  0  0  0  0  0  0  0  0  0  0  0
   17.6298   -4.5987  -14.1649 C   0  0  0  0  0  0  0  0  0  0  0  0
   18.2330   -3.9306  -15.2546 O   0  0  0  0  0  0  0  0  0  0  0  0
   12.8243   -1.8972  -12.1629 O   0  0  0  0  0  0  0  0  0  0  0  0
   18.4372   -5.0615  -13.3344 O   0  0  0  0  0  0  0  0  0  0  0  0
  2  1  1  0
  2  4  1  0
  3  2  2  0
  5  4  1  0
  5  6  1  1
  7  5  1  0
  8  7  2  0
  9 10  1  0
 10 12  1  0
 11 10  2  0
 13 12  1  6
 13 14  1  0
 14  7  1  0
 15 13  1  0
 15 16  2  0
 17 15  1  0
 18 17  1  0
 19 20  1  0
 18 19  1  1
 20 21  1  0
 21 25  1  0
 21 22  2  0
 23 18  1  0
 24 23  1  0
 26 23  2  0
M  END
$$$$
