NNE.pdb
     RDKit          3D

 26 25  0  0  1  0  0  0  0  0999 V2000
   15.4951  -12.2714  -17.9020 N   0  0  0  0  0  0  0  0  0  0  0  0
   16.0761  -12.7264  -16.7039 C   0  0  0  0  0  0  0  0  0  0  0  0
   15.5319  -13.6808  -16.0951 O   0  0  0  0  0  0  0  0  0  0  0  0
   17.3039  -12.1062  -16.1490 C   0  0  0  0  0  0  0  0  0  0  0  0
   17.8410  -10.9948  -17.0197 C   0  0  2  0  0  0  0  0  0  0  0  0
   18.2321  -11.4518  -18.3147 N   0  0  0  0  0  0  0  0  0  0  0  0
   18.9108  -10.2680  -16.3099 C   0  0  0  0  0  0  0  0  0  0  0  0
   18.6827   -9.6632  -15.2044 O   0  0  0  0  0  0  0  0  0  0  0  0
   23.3600   -8.4803  -14.5897 N   0  0  0  0  0  0  0  0  0  0  0  0
   23.7747   -9.3949  -15.6073 C   0  0  0  0  0  0  0  0  0  0  0  0
   25.0006   -9.6354  -15.7125 O   0  0  0  0  0  0  0  0  0  0  0  0
   22.7160   -9.9749  -16.4453 C   0  0  0  0  0  0  0  0  0  0  0  0
   21.3115   -9.5101  -16.0489 C   0  0  2  0  0  0  0  0  0  0  0  0
   20.2593  -10.1561  -16.7474 N   0  0  0  0  0  0  0  0  0  0  0  0
   21.3152   -8.0469  -16.0670 C   0  0  0  0  0  0  0  0  0  0  0  0
   21.3513   -7.5162  -17.2257 O   0  0  0  0  0  0  0  0  0  0  0  0
   21.2831   -7.2087  -14.9543 N   0  0  0  0  0  0  0  0  0  0  0  0
   21.2762   -5.7471  -15.1714 C   0  0  1  0  0  0  0  0  0  0  0  0
   19.8801   -5.2410  -15.2569 C   0  0  0  0  0  0  0  0  0  0  0  0
   19.8374   -3.7601  -15.3737 C   0  0  0  0  0  0  0  0  0  0  0  0
   18.4248   -3.2488  -15.4310 C   0  0  0  0  0  0  0  0  0  0  0  0
   17.5228   -4.1137  -15.3281 O   0  0  0  0  0  0  0  0  0  0  0  0
   21.9824   -5.1243  -14.0362 C   0  0  0  0  0  0  0  0  0  0  0  0
   22.3759   -3.7675  -14.0794 O   0  0  0  0  0  0  0  0  0  0  0  0
   18.0819   -1.9348  -15.5843 O   0  0  0  0  0  0  0  0  0  0  0  0
   22.2839   -5.7140  -12.9793 O   0  0  0  0  0  0  0  0  0  0  0  0
  2  1  1  0
  2  4  1  0
  3  2  2  0
  5  4  1  0
  5  6  1  6
  7  5  1  0
  8  7  2  0
  9 10  1  0
 10 12  1  0
 11 10  2  0
 13 12  1  6
 13 14  1  0
 14  7  1  0
 15 13  1  0
 15 16  2  0
 17 15  1  0
 18 17  1  0
 19 20  1  0
 18 19  1  1
 20 21  1  0
 21 25  1  0
 21 22  2  0
 23 18  1  0
 24 23  1  0
 26 23  2  0
M  END
$$$$
