NNE.pdb
     RDKit          3D

 26 25  0  0  1  0  0  0  0  0999 V2000
   14.8257  -13.2837  -11.5720 N   0  0  0  0  0  0  0  0  0  0  0  0
   14.9783  -12.0843  -12.2919 C   0  0  0  0  0  0  0  0  0  0  0  0
   15.4794  -12.1321  -13.4427 O   0  0  0  0  0  0  0  0  0  0  0  0
   14.5665  -10.7773  -11.7240 C   0  0  0  0  0  0  0  0  0  0  0  0
   15.7412   -9.9380  -11.2797 C   0  0  2  0  0  0  0  0  0  0  0  0
   16.5992  -10.6306  -10.3725 N   0  0  0  0  0  0  0  0  0  0  0  0
   15.2684   -8.6406  -10.7602 C   0  0  0  0  0  0  0  0  0  0  0  0
   14.5351   -7.8678  -11.4707 O   0  0  0  0  0  0  0  0  0  0  0  0
   14.0415   -4.5870   -7.9456 N   0  0  0  0  0  0  0  0  0  0  0  0
   14.2768   -5.6005   -6.9650 C   0  0  0  0  0  0  0  0  0  0  0  0
   13.9876   -5.3390   -5.7735 O   0  0  0  0  0  0  0  0  0  0  0  0
   14.8418   -6.8682   -7.4479 C   0  0  0  0  0  0  0  0  0  0  0  0
   15.1091   -6.8728   -8.9560 C   0  0  2  0  0  0  0  0  0  0  0  0
   15.5570   -8.1167   -9.4700 N   0  0  0  0  0  0  0  0  0  0  0  0
   15.9308   -5.6999   -9.2568 C   0  0  0  0  0  0  0  0  0  0  0  0
   17.1793   -5.8385   -9.0387 O   0  0  0  0  0  0  0  0  0  0  0  0
   15.4750   -4.4782   -9.7482 N   0  0  0  0  0  0  0  0  0  0  0  0
   16.3116   -3.7551  -10.7284 C   0  0  1  0  0  0  0  0  0  0  0  0
   16.6257   -4.6302  -11.8893 C   0  0  0  0  0  0  0  0  0  0  0  0
   17.3999   -3.9063  -12.9310 C   0  0  0  0  0  0  0  0  0  0  0  0
   17.7689   -4.8089  -14.0753 C   0  0  0  0  0  0  0  0  0  0  0  0
   18.9448   -5.2439  -14.0748 O   0  0  0  0  0  0  0  0  0  0  0  0
   15.5571   -2.5662  -11.1674 C   0  0  0  0  0  0  0  0  0  0  0  0
   16.2254   -1.4050  -11.6175 O   0  0  0  0  0  0  0  0  0  0  0  0
   16.9193   -5.1690  -15.0833 O   0  0  0  0  0  0  0  0  0  0  0  0
   14.3127   -2.4813  -11.1806 O   0  0  0  0  0  0  0  0  0  0  0  0
  2  1  1  0
  2  4  1  0
  3  2  2  0
  5  4  1  0
  5  6  1  1
  7  5  1  0
  8  7  2  0
  9 10  1  0
 10 12  1  0
 11 10  2  0
 13 12  1  1
 13 14  1  0
 14  7  1  0
 15 13  1  0
 15 16  2  0
 17 15  1  0
 18 17  1  0
 19 20  1  0
 18 19  1  6
 20 21  1  0
 21 25  1  0
 21 22  2  0
 23 18  1  0
 24 23  1  0
 26 23  2  0
M  END
$$$$
