VVT.pdb
     RDKit          3D

 22 21  0  0  1  0  0  0  0  0999 V2000
   17.7668  -13.3223  -19.2940 C   0  0  0  0  0  0  0  0  0  0  0  0
   18.0029  -12.4002  -18.1467 C   0  0  2  0  0  0  0  0  0  0  0  0
   18.2969  -10.9833  -18.6525 C   0  0  0  0  0  0  0  0  0  0  0  0
   19.1547  -12.8131  -17.2626 C   0  0  2  0  0  0  0  0  0  0  0  0
   18.8705  -14.0913  -16.7087 N   0  0  0  0  0  0  0  0  0  0  0  0
   19.5305  -11.7874  -16.2881 C   0  0  0  0  0  0  0  0  0  0  0  0
   18.7239  -11.5314  -15.3565 O   0  0  0  0  0  0  0  0  0  0  0  0
   23.5196  -10.1167  -16.0093 C   0  0  0  0  0  0  0  0  0  0  0  0
   22.5473  -10.2163  -14.8764 C   0  0  2  0  0  0  0  0  0  0  0  0
   22.6832  -11.4701  -14.0659 C   0  0  0  0  0  0  0  0  0  0  0  0
   21.1104  -10.0688  -15.3201 C   0  0  2  0  0  0  0  0  0  0  0  0
   20.7411  -11.0524  -16.3098 N   0  0  0  0  0  0  0  0  0  0  0  0
   20.9635   -8.7242  -15.9391 C   0  0  0  0  0  0  0  0  0  0  0  0
   21.5222   -8.4252  -17.0409 O   0  0  0  0  0  0  0  0  0  0  0  0
   18.1266   -7.1530  -17.3140 C   0  0  0  0  0  0  0  0  0  0  0  0
   18.5411   -6.1717  -16.2442 C   0  0  1  0  0  0  0  0  0  0  0  0
   17.7564   -6.3205  -15.1283 O   0  0  0  0  0  0  0  0  0  0  0  0
   20.0202   -6.3842  -15.9385 C   0  0  2  0  0  0  0  0  0  0  0  0
   20.1845   -7.6892  -15.3296 N   0  0  0  0  0  0  0  0  0  0  0  0
   20.5107   -5.2988  -15.0725 C   0  0  0  0  0  0  0  0  0  0  0  0
   20.5402   -3.9891  -15.5234 O   0  0  0  0  0  0  0  0  0  0  0  0
   20.9112   -5.5357  -13.9119 O   0  0  0  0  0  0  0  0  0  0  0  0
  2  1  1  6
  2  3  1  0
  4  2  1  0
  4  6  1  0
  4  5  1  1
  6  7  2  0
  6 12  1  0
  9 11  1  0
  9  8  1  6
 10  9  1  0
 11 13  1  0
 11 12  1  6
 13 19  1  0
 13 14  2  0
 16 15  1  6
 16 18  1  0
 17 16  1  0
 18 20  1  0
 18 19  1  1
 20 21  1  0
 22 20  2  0
M  END
$$$$
