VVT.pdb
     RDKit          3D

 22 21  0  0  1  0  0  0  0  0999 V2000
   15.3053  -13.9039  -17.6691 C   0  0  0  0  0  0  0  0  0  0  0  0
   16.3600  -14.5654  -16.8492 C   0  0  2  0  0  0  0  0  0  0  0  0
   15.7743  -15.7620  -16.0908 C   0  0  0  0  0  0  0  0  0  0  0  0
   16.9991  -13.6529  -15.8305 C   0  0  2  0  0  0  0  0  0  0  0  0
   16.1214  -13.5222  -14.7197 N   0  0  0  0  0  0  0  0  0  0  0  0
   17.4657  -12.3882  -16.4012 C   0  0  0  0  0  0  0  0  0  0  0  0
   18.2478  -12.4355  -17.3862 O   0  0  0  0  0  0  0  0  0  0  0  0
   16.0125   -8.0563  -15.7708 C   0  0  0  0  0  0  0  0  0  0  0  0
   16.4637   -8.9393  -16.8913 C   0  0  2  0  0  0  0  0  0  0  0  0
   15.3628   -9.7452  -17.5125 C   0  0  0  0  0  0  0  0  0  0  0  0
   17.5891   -9.8658  -16.4931 C   0  0  2  0  0  0  0  0  0  0  0  0
   17.1042  -11.1026  -15.9291 N   0  0  0  0  0  0  0  0  0  0  0  0
   18.3955   -9.1764  -15.4504 C   0  0  0  0  0  0  0  0  0  0  0  0
   18.0770   -9.2105  -14.2204 O   0  0  0  0  0  0  0  0  0  0  0  0
   21.8599   -9.9279  -14.7512 C   0  0  0  0  0  0  0  0  0  0  0  0
   21.8652   -8.4380  -14.9947 C   0  0  1  0  0  0  0  0  0  0  0  0
   22.3111   -8.1620  -16.2628 O   0  0  0  0  0  0  0  0  0  0  0  0
   20.4580   -7.9023  -14.7516 C   0  0  2  0  0  0  0  0  0  0  0  0
   19.5770   -8.4346  -15.7720 N   0  0  0  0  0  0  0  0  0  0  0  0
   20.4797   -6.4298  -14.7460 C   0  0  0  0  0  0  0  0  0  0  0  0
   21.1719   -5.7336  -13.7686 O   0  0  0  0  0  0  0  0  0  0  0  0
   19.8739   -5.7762  -15.6231 O   0  0  0  0  0  0  0  0  0  0  0  0
  2  1  1  1
  2  3  1  0
  4  2  1  0
  4  6  1  0
  4  5  1  1
  6  7  2  0
  6 12  1  0
  9 11  1  0
  9  8  1  1
 10  9  1  0
 11 13  1  0
 11 12  1  1
 13 19  1  0
 13 14  2  0
 16 15  1  6
 16 18  1  0
 17 16  1  0
 18 20  1  0
 18 19  1  6
 20 21  1  0
 22 20  2  0
M  END
$$$$
