VVT.pdb
     RDKit          3D

 22 21  0  0  1  0  0  0  0  0999 V2000
   19.8915   -8.8674  -20.4587 C   0  0  0  0  0  0  0  0  0  0  0  0
   21.2084   -9.5633  -20.4004 C   0  0  2  0  0  0  0  0  0  0  0  0
   21.5332  -10.2054  -21.7541 C   0  0  0  0  0  0  0  0  0  0  0  0
   21.2749  -10.6513  -19.3560 C   0  0  2  0  0  0  0  0  0  0  0  0
   20.4911  -11.7537  -19.7938 N   0  0  0  0  0  0  0  0  0  0  0  0
   20.9705  -10.1743  -18.0059 C   0  0  0  0  0  0  0  0  0  0  0  0
   19.7638  -10.1307  -17.6510 O   0  0  0  0  0  0  0  0  0  0  0  0
   22.0054   -9.5624  -13.2807 C   0  0  0  0  0  0  0  0  0  0  0  0
   22.1823  -10.1428  -14.6484 C   0  0  2  0  0  0  0  0  0  0  0  0
   23.6025  -10.4848  -14.9855 C   0  0  0  0  0  0  0  0  0  0  0  0
   21.6144   -9.2635  -15.7383 C   0  0  2  0  0  0  0  0  0  0  0  0
   21.9348   -9.7538  -17.0574 N   0  0  0  0  0  0  0  0  0  0  0  0
   22.2237   -7.9142  -15.5947 C   0  0  0  0  0  0  0  0  0  0  0  0
   23.4536   -7.7013  -15.8347 O   0  0  0  0  0  0  0  0  0  0  0  0
   21.4617   -4.8738  -17.3984 C   0  0  0  0  0  0  0  0  0  0  0  0
   21.2353   -4.4994  -15.9535 C   0  0  1  0  0  0  0  0  0  0  0  0
   19.8959   -4.5275  -15.6561 O   0  0  0  0  0  0  0  0  0  0  0  0
   22.0388   -5.4523  -15.0744 C   0  0  2  0  0  0  0  0  0  0  0  0
   21.4601   -6.7772  -15.1779 N   0  0  0  0  0  0  0  0  0  0  0  0
   22.0542   -4.9571  -13.6876 C   0  0  0  0  0  0  0  0  0  0  0  0
   22.7199   -3.7875  -13.3587 O   0  0  0  0  0  0  0  0  0  0  0  0
   21.4669   -5.5813  -12.7771 O   0  0  0  0  0  0  0  0  0  0  0  0
  2  1  1  6
  2  3  1  0
  4  2  1  0
  4  6  1  0
  4  5  1  6
  6  7  2  0
  6 12  1  0
  9 11  1  0
  9  8  1  1
 10  9  1  0
 11 13  1  0
 11 12  1  6
 13 19  1  0
 13 14  2  0
 16 15  1  6
 16 18  1  0
 17 16  1  0
 18 20  1  0
 18 19  1  1
 20 21  1  0
 22 20  2  0
M  END
$$$$
