VVT.pdb
     RDKit          3D

 22 21  0  0  1  0  0  0  0  0999 V2000
   16.4383  -14.2694  -18.0612 C   0  0  0  0  0  0  0  0  0  0  0  0
   17.4527  -13.5844  -17.2105 C   0  0  2  0  0  0  0  0  0  0  0  0
   17.0880  -12.1063  -17.0305 C   0  0  0  0  0  0  0  0  0  0  0  0
   18.8532  -13.6398  -17.7714 C   0  0  2  0  0  0  0  0  0  0  0  0
   19.2753  -14.9967  -17.8136 N   0  0  0  0  0  0  0  0  0  0  0  0
   19.7794  -12.7252  -17.1016 C   0  0  0  0  0  0  0  0  0  0  0  0
   20.2043  -13.0430  -15.9603 O   0  0  0  0  0  0  0  0  0  0  0  0
   21.9285   -9.0896  -18.8403 C   0  0  0  0  0  0  0  0  0  0  0  0
   22.3235  -10.2498  -17.9820 C   0  0  2  0  0  0  0  0  0  0  0  0
   22.7752  -11.4526  -18.7543 C   0  0  0  0  0  0  0  0  0  0  0  0
   21.2375  -10.6629  -17.0158 C   0  0  2  0  0  0  0  0  0  0  0  0
   20.2406  -11.4990  -17.6404 N   0  0  0  0  0  0  0  0  0  0  0  0
   20.5605   -9.4268  -16.5402 C   0  0  0  0  0  0  0  0  0  0  0  0
   19.6992   -8.8157  -17.2475 O   0  0  0  0  0  0  0  0  0  0  0  0
   18.8717   -8.9569  -13.1055 C   0  0  0  0  0  0  0  0  0  0  0  0
   19.8801   -7.8474  -13.2819 C   0  0  1  0  0  0  0  0  0  0  0  0
   21.0239   -8.1237  -12.5757 O   0  0  0  0  0  0  0  0  0  0  0  0
   20.1534   -7.6734  -14.7723 C   0  0  2  0  0  0  0  0  0  0  0  0
   20.8398   -8.8539  -15.2583 N   0  0  0  0  0  0  0  0  0  0  0  0
   20.9323   -6.4437  -14.9956 C   0  0  0  0  0  0  0  0  0  0  0  0
   22.2148   -6.5002  -15.5165 O   0  0  0  0  0  0  0  0  0  0  0  0
   20.4531   -5.3221  -14.7199 O   0  0  0  0  0  0  0  0  0  0  0  0
  2  1  1  6
  2  3  1  0
  4  2  1  0
  4  6  1  0
  4  5  1  1
  6  7  2  0
  6 12  1  0
  9 11  1  0
  9  8  1  6
 10  9  1  0
 11 13  1  0
 11 12  1  6
 13 19  1  0
 13 14  2  0
 16 15  1  6
 16 18  1  0
 17 16  1  0
 18 20  1  0
 18 19  1  1
 20 21  1  0
 22 20  2  0
M  END
$$$$
