VVT.pdb
     RDKit          3D

 22 21  0  0  1  0  0  0  0  0999 V2000
   19.2503  -12.8651  -17.7657 C   0  0  0  0  0  0  0  0  0  0  0  0
   19.2818  -11.8381  -18.8457 C   0  0  2  0  0  0  0  0  0  0  0  0
   19.5161  -12.5023  -20.2073 C   0  0  0  0  0  0  0  0  0  0  0  0
   20.3566  -10.7944  -18.6604 C   0  0  2  0  0  0  0  0  0  0  0  0
   21.6174  -11.3780  -18.9624 N   0  0  0  0  0  0  0  0  0  0  0  0
   20.2845  -10.1155  -17.3655 C   0  0  0  0  0  0  0  0  0  0  0  0
   19.1818   -9.6181  -17.0179 O   0  0  0  0  0  0  0  0  0  0  0  0
   22.1045   -9.2891  -12.8139 C   0  0  0  0  0  0  0  0  0  0  0  0
   22.1367   -9.9919  -14.1344 C   0  0  2  0  0  0  0  0  0  0  0  0
   23.5160  -10.1787  -14.6912 C   0  0  0  0  0  0  0  0  0  0  0  0
   21.2700   -9.3246  -15.1770 C   0  0  2  0  0  0  0  0  0  0  0  0
   21.3669   -9.9722  -16.4631 N   0  0  0  0  0  0  0  0  0  0  0  0
   21.7490   -7.9253  -15.3356 C   0  0  0  0  0  0  0  0  0  0  0  0
   22.8252   -7.6475  -15.9520 O   0  0  0  0  0  0  0  0  0  0  0  0
   20.1639   -5.1229  -17.0111 C   0  0  0  0  0  0  0  0  0  0  0  0
   20.3721   -4.6251  -15.6011 C   0  0  1  0  0  0  0  0  0  0  0  0
   19.2004   -4.6972  -14.8904 O   0  0  0  0  0  0  0  0  0  0  0  0
   21.4856   -5.4448  -14.9573 C   0  0  2  0  0  0  0  0  0  0  0  0
   21.0255   -6.8105  -14.8031 N   0  0  0  0  0  0  0  0  0  0  0  0
   21.8716   -4.8377  -13.6723 C   0  0  0  0  0  0  0  0  0  0  0  0
   22.4735   -3.5907  -13.6285 O   0  0  0  0  0  0  0  0  0  0  0  0
   21.6645   -5.4345  -12.5932 O   0  0  0  0  0  0  0  0  0  0  0  0
  2  1  1  1
  2  3  1  0
  4  2  1  0
  4  6  1  0
  4  5  1  1
  6  7  2  0
  6 12  1  0
  9 11  1  0
  9  8  1  1
 10  9  1  0
 11 13  1  0
 11 12  1  6
 13 19  1  0
 13 14  2  0
 16 15  1  6
 16 18  1  0
 17 16  1  0
 18 20  1  0
 18 19  1  1
 20 21  1  0
 22 20  2  0
M  END
$$$$
