VVT.pdb
     RDKit          3D

 22 21  0  0  1  0  0  0  0  0999 V2000
   22.9820  -11.9411  -19.5478 C   0  0  0  0  0  0  0  0  0  0  0  0
   22.8740  -13.1084  -18.6270 C   0  0  2  0  0  0  0  0  0  0  0  0
   22.8471  -14.4171  -19.4250 C   0  0  0  0  0  0  0  0  0  0  0  0
   21.6407  -13.0837  -17.7569 C   0  0  2  0  0  0  0  0  0  0  0  0
   20.8080  -14.1797  -18.1128 N   0  0  0  0  0  0  0  0  0  0  0  0
   20.9731  -11.7810  -17.7392 C   0  0  0  0  0  0  0  0  0  0  0  0
   20.5536  -11.3154  -18.8307 O   0  0  0  0  0  0  0  0  0  0  0  0
   18.5874   -9.0223  -14.7063 C   0  0  0  0  0  0  0  0  0  0  0  0
   18.7113   -9.7808  -15.9900 C   0  0  2  0  0  0  0  0  0  0  0  0
   18.2930  -11.2170  -15.8914 C   0  0  0  0  0  0  0  0  0  0  0  0
   20.0997   -9.7108  -16.5826 C   0  0  2  0  0  0  0  0  0  0  0  0
   20.7592  -10.9946  -16.5807 N   0  0  0  0  0  0  0  0  0  0  0  0
   20.9047   -8.7852  -15.7415 C   0  0  0  0  0  0  0  0  0  0  0  0
   21.5042   -9.1779  -14.6917 O   0  0  0  0  0  0  0  0  0  0  0  0
   23.4993   -6.3716  -17.2618 C   0  0  0  0  0  0  0  0  0  0  0  0
   22.6094   -5.5720  -16.3410 C   0  0  1  0  0  0  0  0  0  0  0  0
   21.6799   -4.8688  -17.0655 O   0  0  0  0  0  0  0  0  0  0  0  0
   21.9587   -6.5273  -15.3458 C   0  0  2  0  0  0  0  0  0  0  0  0
   21.0510   -7.3984  -16.0655 N   0  0  0  0  0  0  0  0  0  0  0  0
   21.2759   -5.7587  -14.2913 C   0  0  0  0  0  0  0  0  0  0  0  0
   19.8963   -5.7919  -14.1689 O   0  0  0  0  0  0  0  0  0  0  0  0
   21.9263   -5.0598  -13.4839 O   0  0  0  0  0  0  0  0  0  0  0  0
  2  1  1  6
  2  3  1  0
  4  2  1  0
  4  6  1  0
  4  5  1  6
  6  7  2  0
  6 12  1  0
  9 11  1  0
  9  8  1  1
 10  9  1  0
 11 13  1  0
 11 12  1  1
 13 19  1  0
 13 14  2  0
 16 15  1  6
 16 18  1  0
 17 16  1  0
 18 20  1  0
 18 19  1  6
 20 21  1  0
 22 20  2  0
M  END
$$$$
