VVT.pdb
     RDKit          3D

 22 21  0  0  1  0  0  0  0  0999 V2000
   24.3655  -14.3524  -15.8779 C   0  0  0  0  0  0  0  0  0  0  0  0
   23.9467  -13.0284  -16.4200 C   0  0  2  0  0  0  0  0  0  0  0  0
   24.3950  -11.9017  -15.4821 C   0  0  0  0  0  0  0  0  0  0  0  0
   22.4551  -12.8935  -16.6087 C   0  0  2  0  0  0  0  0  0  0  0  0
   21.9908  -13.9928  -17.3817 N   0  0  0  0  0  0  0  0  0  0  0  0
   22.0531  -11.5762  -17.1046 C   0  0  0  0  0  0  0  0  0  0  0  0
   22.6289  -11.1282  -18.1302 O   0  0  0  0  0  0  0  0  0  0  0  0
   18.5949   -8.1858  -17.5872 C   0  0  0  0  0  0  0  0  0  0  0  0
   19.3328   -9.4819  -17.7057 C   0  0  2  0  0  0  0  0  0  0  0  0
   18.5572  -10.6705  -17.2230 C   0  0  0  0  0  0  0  0  0  0  0  0
   20.6779   -9.4578  -17.0174 C   0  0  2  0  0  0  0  0  0  0  0  0
   21.0582  -10.7569  -16.5169 N   0  0  0  0  0  0  0  0  0  0  0  0
   20.5751   -8.5353  -15.8551 C   0  0  0  0  0  0  0  0  0  0  0  0
   20.0608   -8.8978  -14.7508 O   0  0  0  0  0  0  0  0  0  0  0  0
   21.9476   -4.2472  -13.7881 C   0  0  0  0  0  0  0  0  0  0  0  0
   21.9760   -5.1502  -14.9977 C   0  0  1  0  0  0  0  0  0  0  0  0
   23.2521   -5.5979  -15.2307 O   0  0  0  0  0  0  0  0  0  0  0  0
   20.9977   -6.2977  -14.7687 C   0  0  2  0  0  0  0  0  0  0  0  0
   21.0494   -7.1857  -15.9131 N   0  0  0  0  0  0  0  0  0  0  0  0
   19.6455   -5.7612  -14.5396 C   0  0  0  0  0  0  0  0  0  0  0  0
   19.1555   -5.5964  -13.2543 O   0  0  0  0  0  0  0  0  0  0  0  0
   18.9106   -5.4429  -15.4998 O   0  0  0  0  0  0  0  0  0  0  0  0
  2  1  1  1
  2  3  1  0
  4  2  1  0
  4  6  1  0
  4  5  1  6
  6  7  2  0
  6 12  1  0
  9 11  1  0
  9  8  1  1
 10  9  1  0
 11 13  1  0
 11 12  1  1
 13 19  1  0
 13 14  2  0
 16 15  1  1
 16 18  1  0
 17 16  1  0
 18 20  1  0
 18 19  1  6
 20 21  1  0
 22 20  2  0
M  END
$$$$
