VVT.pdb
     RDKit          3D

 22 21  0  0  1  0  0  0  0  0999 V2000
   18.0309  -12.9521  -16.8065 C   0  0  0  0  0  0  0  0  0  0  0  0
   17.6376  -11.7969  -17.6627 C   0  0  2  0  0  0  0  0  0  0  0  0
   17.1709  -12.2866  -19.0384 C   0  0  0  0  0  0  0  0  0  0  0  0
   18.7504  -10.8025  -17.8899 C   0  0  2  0  0  0  0  0  0  0  0  0
   19.6723  -11.3532  -18.8217 N   0  0  0  0  0  0  0  0  0  0  0  0
   19.3476  -10.3109  -16.6471 C   0  0  0  0  0  0  0  0  0  0  0  0
   18.5754   -9.9484  -15.7217 O   0  0  0  0  0  0  0  0  0  0  0  0
   23.2084   -9.7729  -13.5657 C   0  0  0  0  0  0  0  0  0  0  0  0
   22.5486  -10.3960  -14.7553 C   0  0  2  0  0  0  0  0  0  0  0  0
   23.4592  -10.5742  -15.9328 C   0  0  0  0  0  0  0  0  0  0  0  0
   21.3099   -9.6520  -15.1976 C   0  0  2  0  0  0  0  0  0  0  0  0
   20.7386  -10.2094  -16.4000 N   0  0  0  0  0  0  0  0  0  0  0  0
   21.7056   -8.2484  -15.4909 C   0  0  0  0  0  0  0  0  0  0  0  0
   22.5170   -7.9585  -16.4253 O   0  0  0  0  0  0  0  0  0  0  0  0
   19.7331   -5.4783  -16.6840 C   0  0  0  0  0  0  0  0  0  0  0  0
   20.2702   -4.9980  -15.3573 C   0  0  1  0  0  0  0  0  0  0  0  0
   19.3225   -5.1457  -14.3758 O   0  0  0  0  0  0  0  0  0  0  0  0
   21.5472   -5.7705  -15.0433 C   0  0  2  0  0  0  0  0  0  0  0  0
   21.1953   -7.1429  -14.7379 N   0  0  0  0  0  0  0  0  0  0  0  0
   22.2638   -5.1183  -13.9342 C   0  0  0  0  0  0  0  0  0  0  0  0
   22.8442   -3.8713  -14.0998 O   0  0  0  0  0  0  0  0  0  0  0  0
   22.3639   -5.6758  -12.8195 O   0  0  0  0  0  0  0  0  0  0  0  0
  2  1  1  1
  2  3  1  0
  4  2  1  0
  4  6  1  0
  4  5  1  6
  6  7  2  0
  6 12  1  0
  9 11  1  0
  9  8  1  1
 10  9  1  0
 11 13  1  0
 11 12  1  6
 13 19  1  0
 13 14  2  0
 16 15  1  6
 16 18  1  0
 17 16  1  0
 18 20  1  0
 18 19  1  1
 20 21  1  0
 22 20  2  0
M  END
$$$$
