VVT.pdb
     RDKit          3D

 22 21  0  0  1  0  0  0  0  0999 V2000
   17.2574  -10.9324  -14.8579 C   0  0  0  0  0  0  0  0  0  0  0  0
   17.0754  -10.3736  -16.2278 C   0  0  2  0  0  0  0  0  0  0  0  0
   17.0915  -11.4981  -17.2695 C   0  0  0  0  0  0  0  0  0  0  0  0
   18.1369   -9.3756  -16.6229 C   0  0  2  0  0  0  0  0  0  0  0  0
   19.3002  -10.0833  -17.0316 N   0  0  0  0  0  0  0  0  0  0  0  0
   18.3654   -8.3446  -15.6090 C   0  0  0  0  0  0  0  0  0  0  0  0
   17.3696   -7.7076  -15.1769 O   0  0  0  0  0  0  0  0  0  0  0  0
   22.2165   -7.5062  -13.4488 C   0  0  0  0  0  0  0  0  0  0  0  0
   20.7970   -7.4825  -12.9764 C   0  0  2  0  0  0  0  0  0  0  0  0
   20.3176   -8.7908  -12.4232 C   0  0  0  0  0  0  0  0  0  0  0  0
   19.8313   -7.0127  -14.0395 C   0  0  2  0  0  0  0  0  0  0  0  0
   19.6299   -8.0030  -15.0699 N   0  0  0  0  0  0  0  0  0  0  0  0
   20.4155   -5.8036  -14.6793 C   0  0  0  0  0  0  0  0  0  0  0  0
   21.3188   -5.8826  -15.5700 O   0  0  0  0  0  0  0  0  0  0  0  0
   18.5264   -3.0056  -16.3975 C   0  0  0  0  0  0  0  0  0  0  0  0
   19.3635   -2.3670  -15.3155 C   0  0  1  0  0  0  0  0  0  0  0  0
   18.5924   -2.0906  -14.2144 O   0  0  0  0  0  0  0  0  0  0  0  0
   20.5227   -3.3015  -14.9847 C   0  0  2  0  0  0  0  0  0  0  0  0
   19.9942   -4.4810  -14.3289 N   0  0  0  0  0  0  0  0  0  0  0  0
   21.5098   -2.5947  -14.1511 C   0  0  0  0  0  0  0  0  0  0  0  0
   21.7933   -3.0271  -12.8659 O   0  0  0  0  0  0  0  0  0  0  0  0
   22.1134   -1.5893  -14.5853 O   0  0  0  0  0  0  0  0  0  0  0  0
  2  1  1  1
  2  3  1  0
  4  2  1  0
  4  6  1  0
  4  5  1  1
  6  7  2  0
  6 12  1  0
  9 11  1  0
  9  8  1  6
 10  9  1  0
 11 13  1  0
 11 12  1  6
 13 19  1  0
 13 14  2  0
 16 15  1  6
 16 18  1  0
 17 16  1  0
 18 20  1  0
 18 19  1  1
 20 21  1  0
 22 20  2  0
M  END
$$$$
