VVT.pdb
     RDKit          3D

 22 21  0  0  1  0  0  0  0  0999 V2000
   23.3086  -22.5158  -10.9301 C   0  0  0  0  0  0  0  0  0  0  0  0
   24.6027  -21.7919  -10.7775 C   0  0  2  0  0  0  0  0  0  0  0  0
   24.8469  -21.4394   -9.3057 C   0  0  0  0  0  0  0  0  0  0  0  0
   24.6779  -20.5085  -11.5686 C   0  0  2  0  0  0  0  0  0  0  0  0
   23.7971  -19.5583  -10.9831 N   0  0  0  0  0  0  0  0  0  0  0  0
   24.5035  -20.7072  -13.0084 C   0  0  0  0  0  0  0  0  0  0  0  0
   25.2455  -21.5444  -13.5851 O   0  0  0  0  0  0  0  0  0  0  0  0
   21.6189  -18.6082  -15.8992 C   0  0  0  0  0  0  0  0  0  0  0  0
   21.9051  -20.0511  -15.6254 C   0  0  2  0  0  0  0  0  0  0  0  0
   20.9902  -20.6719  -14.6131 C   0  0  0  0  0  0  0  0  0  0  0  0
   23.3377  -20.2983  -15.2130 C   0  0  2  0  0  0  0  0  0  0  0  0
   23.5572  -20.0260  -13.8127 N   0  0  0  0  0  0  0  0  0  0  0  0
   24.2003  -19.3736  -15.9962 C   0  0  0  0  0  0  0  0  0  0  0  0
   24.4638  -18.1965  -15.5957 O   0  0  0  0  0  0  0  0  0  0  0  0
   27.6899  -19.6506  -16.8349 C   0  0  0  0  0  0  0  0  0  0  0  0
   27.0054  -19.5673  -18.1779 C   0  0  1  0  0  0  0  0  0  0  0  0
   26.8721  -20.8185  -18.7255 O   0  0  0  0  0  0  0  0  0  0  0  0
   25.6590  -18.8749  -17.9934 C   0  0  2  0  0  0  0  0  0  0  0  0
   24.7835  -19.7560  -17.2465 N   0  0  0  0  0  0  0  0  0  0  0  0
   25.0997  -18.5154  -19.3075 C   0  0  0  0  0  0  0  0  0  0  0  0
   25.7717  -17.6462  -20.1515 O   0  0  0  0  0  0  0  0  0  0  0  0
   24.0064  -18.9866  -19.6898 O   0  0  0  0  0  0  0  0  0  0  0  0
  2  1  1  1
  2  3  1  0
  4  2  1  0
  4  6  1  0
  4  5  1  1
  6  7  2  0
  6 12  1  0
  9 11  1  0
  9  8  1  1
 10  9  1  0
 11 13  1  0
 11 12  1  1
 13 19  1  0
 13 14  2  0
 16 15  1  1
 16 18  1  0
 17 16  1  0
 18 20  1  0
 18 19  1  6
 20 21  1  0
 22 20  2  0
M  END
$$$$
