VVT.pdb
     RDKit          3D

 22 21  0  0  1  0  0  0  0  0999 V2000
   19.4867  -13.2805  -17.3744 C   0  0  0  0  0  0  0  0  0  0  0  0
   18.5622  -12.2221  -17.8718 C   0  0  2  0  0  0  0  0  0  0  0  0
   18.0063  -12.6031  -19.2487 C   0  0  0  0  0  0  0  0  0  0  0  0
   19.2085  -10.8644  -18.0046 C   0  0  2  0  0  0  0  0  0  0  0  0
   20.0880  -10.8840  -19.1215 N   0  0  0  0  0  0  0  0  0  0  0  0
   19.8052  -10.3849  -16.7568 C   0  0  0  0  0  0  0  0  0  0  0  0
   19.1017  -10.4152  -15.7136 O   0  0  0  0  0  0  0  0  0  0  0  0
   24.0834   -9.6937  -16.1333 C   0  0  0  0  0  0  0  0  0  0  0  0
   23.0503  -10.0791  -15.1220 C   0  0  2  0  0  0  0  0  0  0  0  0
   22.8693  -11.5595  -14.9703 C   0  0  0  0  0  0  0  0  0  0  0  0
   21.7052   -9.4417  -15.3833 C   0  0  2  0  0  0  0  0  0  0  0  0
   21.1241   -9.8845  -16.6279 N   0  0  0  0  0  0  0  0  0  0  0  0
   21.9114   -7.9715  -15.4757 C   0  0  0  0  0  0  0  0  0  0  0  0
   22.5355   -7.4384  -16.4462 O   0  0  0  0  0  0  0  0  0  0  0  0
   19.9285   -5.3558  -16.2558 C   0  0  0  0  0  0  0  0  0  0  0  0
   20.3566   -4.9370  -14.8699 C   0  0  1  0  0  0  0  0  0  0  0  0
   19.3685   -5.2157  -13.9593 O   0  0  0  0  0  0  0  0  0  0  0  0
   21.6648   -5.6445  -14.5323 C   0  0  2  0  0  0  0  0  0  0  0  0
   21.4187   -7.0718  -14.4770 N   0  0  0  0  0  0  0  0  0  0  0  0
   22.2012   -5.1214  -13.2644 C   0  0  0  0  0  0  0  0  0  0  0  0
   22.6425   -3.8118  -13.1668 O   0  0  0  0  0  0  0  0  0  0  0  0
   22.2698   -5.8476  -12.2489 O   0  0  0  0  0  0  0  0  0  0  0  0
  2  1  1  6
  2  3  1  0
  4  2  1  0
  4  6  1  0
  4  5  1  6
  6  7  2  0
  6 12  1  0
  9 11  1  0
  9  8  1  6
 10  9  1  0
 11 13  1  0
 11 12  1  6
 13 19  1  0
 13 14  2  0
 16 15  1  6
 16 18  1  0
 17 16  1  0
 18 20  1  0
 18 19  1  1
 20 21  1  0
 22 20  2  0
M  END
$$$$
