CPY.pdb
     RDKit          3D

 26 27  0  0  1  0  0  0  0  0999 V2000
   20.8073  -20.6826  -16.0275 N   0  0  0  0  0  0  0  0  0  0  0  0
   21.3872  -21.7312  -15.2376 C   0  0  1  0  0  0  0  0  0  0  0  0
   22.3796  -21.1347  -14.2186 C   0  0  0  0  0  0  0  0  0  0  0  0
   23.7901  -20.5385  -15.2033 S   0  0  0  0  0  0  0  0  0  0  0  0
   20.4413  -22.5915  -14.5323 C   0  0  0  0  0  0  0  0  0  0  0  0
   19.5235  -22.0898  -13.8432 O   0  0  0  0  0  0  0  0  0  0  0  0
   20.5306  -24.0232  -14.6033 N   0  0  0  0  0  0  0  0  0  0  0  0
   21.4126  -24.7112  -15.4860 C   0  0  0  0  0  0  0  0  0  0  0  0
   21.0709  -26.1682  -15.3821 C   0  0  0  0  0  0  0  0  0  0  0  0
   20.3972  -26.2758  -14.0328 C   0  0  0  0  0  0  0  0  0  0  0  0
   19.7539  -24.9349  -13.8217 C   0  0  1  0  0  0  0  0  0  0  0  0
   19.8798  -24.6575  -12.3505 C   0  0  0  0  0  0  0  0  0  0  0  0
   21.0097  -24.4243  -11.8835 O   0  0  0  0  0  0  0  0  0  0  0  0
   20.8009  -18.5815  -11.8624 O   0  0  0  0  0  0  0  0  0  0  0  0
   20.1960  -19.7098  -11.3061 C   0  0  0  0  0  0  0  0  0  0  0  0
   19.0839  -20.2778  -11.8937 C   0  0  0  0  0  0  0  0  0  0  0  0
   18.4703  -21.3818  -11.3731 C   0  0  0  0  0  0  0  0  0  0  0  0
   18.9451  -21.9959  -10.2069 C   0  0  0  0  0  0  0  0  0  0  0  0
   18.2555  -23.1848   -9.6542 C   0  0  0  0  0  0  0  0  0  0  0  0
   18.9055  -24.4933  -10.0317 C   0  0  2  0  0  0  0  0  0  0  0  0
   18.7634  -24.6532  -11.4871 N   0  0  0  0  0  0  0  0  0  0  0  0
   18.2088  -25.5893   -9.3279 C   0  0  0  0  0  0  0  0  0  0  0  0
   18.4339  -25.7676   -7.9716 O   0  0  0  0  0  0  0  0  0  0  0  0
   20.0568  -21.4186   -9.6291 C   0  0  0  0  0  0  0  0  0  0  0  0
   20.6806  -20.2968  -10.1580 C   0  0  0  0  0  0  0  0  0  0  0  0
   17.4158  -26.3766   -9.8962 O   0  0  0  0  0  0  0  0  0  0  0  0
  2  1  1  1
  2  5  1  0
  3  2  1  0
  4  3  1  0
  5  6  2  0
  7  5  1  0
  7 11  1  0
  8  9  1  0
  8  7  1  0
  9 10  1  0
 10 11  1  0
 11 12  1  1
 12 21  1  0
 13 12  2  0
 15 14  1  0
 16 15  2  0
 17 16  1  0
 18 24  1  0
 18 17  2  0
 19 18  1  0
 20 21  1  0
 20 19  1  1
 22 20  1  0
 22 23  1  0
 24 25  2  0
 25 15  1  0
 26 22  2  0
M  END
$$$$
