CPY.pdb
     RDKit          3D

 26 27  0  0  1  0  0  0  0  0999 V2000
   23.1409  -18.2324  -18.8364 N   0  0  0  0  0  0  0  0  0  0  0  0
   23.9310  -17.5829  -17.8297 C   0  0  1  0  0  0  0  0  0  0  0  0
   23.0242  -16.7323  -16.9169 C   0  0  0  0  0  0  0  0  0  0  0  0
   22.8577  -15.1252  -17.7559 S   0  0  0  0  0  0  0  0  0  0  0  0
   24.7496  -18.4626  -17.0000 C   0  0  0  0  0  0  0  0  0  0  0  0
   24.2402  -19.4655  -16.4489 O   0  0  0  0  0  0  0  0  0  0  0  0
   26.1479  -18.2107  -16.7900 N   0  0  0  0  0  0  0  0  0  0  0  0
   26.8737  -17.1954  -17.4775 C   0  0  0  0  0  0  0  0  0  0  0  0
   28.3172  -17.3807  -17.1135 C   0  0  0  0  0  0  0  0  0  0  0  0
   28.2555  -18.1361  -15.8052 C   0  0  0  0  0  0  0  0  0  0  0  0
   26.9877  -18.9374  -15.8890 C   0  0  1  0  0  0  0  0  0  0  0  0
   26.4301  -18.9518  -14.4939 C   0  0  0  0  0  0  0  0  0  0  0  0
   25.8308  -17.9417  -14.0822 O   0  0  0  0  0  0  0  0  0  0  0  0
   22.3496  -21.3271   -7.0986 O   0  0  0  0  0  0  0  0  0  0  0  0
   22.9923  -21.2546   -8.3356 C   0  0  0  0  0  0  0  0  0  0  0  0
   22.3170  -20.8223   -9.4589 C   0  0  0  0  0  0  0  0  0  0  0  0
   22.9188  -20.7404  -10.6826 C   0  0  0  0  0  0  0  0  0  0  0  0
   24.2629  -21.0947  -10.8574 C   0  0  0  0  0  0  0  0  0  0  0  0
   24.8903  -21.0095  -12.1967 C   0  0  0  0  0  0  0  0  0  0  0  0
   26.0596  -20.0578  -12.2595 C   0  0  2  0  0  0  0  0  0  0  0  0
   26.5640  -20.0684  -13.6413 N   0  0  0  0  0  0  0  0  0  0  0  0
   27.1065  -20.5308  -11.3309 C   0  0  0  0  0  0  0  0  0  0  0  0
   28.0288  -21.4647  -11.7769 O   0  0  0  0  0  0  0  0  0  0  0  0
   24.9266  -21.5254   -9.7275 C   0  0  0  0  0  0  0  0  0  0  0  0
   24.3153  -21.6085   -8.4837 C   0  0  0  0  0  0  0  0  0  0  0  0
   27.2081  -20.1294  -10.1475 O   0  0  0  0  0  0  0  0  0  0  0  0
  2  1  1  6
  2  5  1  0
  3  2  1  0
  4  3  1  0
  5  6  2  0
  7  5  1  0
  7 11  1  0
  8  9  1  0
  8  7  1  0
  9 10  1  0
 10 11  1  0
 11 12  1  1
 12 21  1  0
 13 12  2  0
 15 14  1  0
 16 15  2  0
 17 16  1  0
 18 24  1  0
 18 17  2  0
 19 18  1  0
 20 21  1  0
 20 19  1  6
 22 20  1  0
 22 23  1  0
 24 25  2  0
 25 15  1  0
 26 22  2  0
M  END
$$$$
