CPY.pdb
     RDKit          3D

 26 27  0  0  1  0  0  0  0  0999 V2000
   28.6434  -21.6790  -12.9730 N   0  0  0  0  0  0  0  0  0  0  0  0
   28.5454  -20.8419  -11.8114 C   0  0  1  0  0  0  0  0  0  0  0  0
   28.3722  -19.3696  -12.2371 C   0  0  0  0  0  0  0  0  0  0  0  0
   27.0327  -19.3729  -13.4701 S   0  0  0  0  0  0  0  0  0  0  0  0
   27.4892  -21.1905  -10.8652 C   0  0  0  0  0  0  0  0  0  0  0  0
   26.5233  -21.8999  -11.2297 O   0  0  0  0  0  0  0  0  0  0  0  0
   27.5214  -20.7374   -9.5027 N   0  0  0  0  0  0  0  0  0  0  0  0
   28.6569  -20.1126   -8.9106 C   0  0  0  0  0  0  0  0  0  0  0  0
   28.3495  -19.9626   -7.4500 C   0  0  0  0  0  0  0  0  0  0  0  0
   26.8387  -20.0000   -7.4033 C   0  0  0  0  0  0  0  0  0  0  0  0
   26.4440  -20.8595   -8.5703 C   0  0  1  0  0  0  0  0  0  0  0  0
   25.1746  -20.2558   -9.1010 C   0  0  0  0  0  0  0  0  0  0  0  0
   25.2185  -19.1120   -9.5896 O   0  0  0  0  0  0  0  0  0  0  0  0
   18.5981  -19.7476  -14.7085 O   0  0  0  0  0  0  0  0  0  0  0  0
   19.6892  -19.9904  -13.8723 C   0  0  0  0  0  0  0  0  0  0  0  0
   19.9959  -21.2727  -13.4647 C   0  0  0  0  0  0  0  0  0  0  0  0
   21.0569  -21.5416  -12.6471 C   0  0  0  0  0  0  0  0  0  0  0  0
   21.8920  -20.5189  -12.1790 C   0  0  0  0  0  0  0  0  0  0  0  0
   23.0292  -20.8335  -11.2831 C   0  0  0  0  0  0  0  0  0  0  0  0
   22.7749  -20.4890   -9.8362 C   0  0  2  0  0  0  0  0  0  0  0  0
   23.9416  -20.9415   -9.0629 N   0  0  0  0  0  0  0  0  0  0  0  0
   21.5592  -21.1975   -9.3865 C   0  0  0  0  0  0  0  0  0  0  0  0
   20.3249  -20.5901   -9.5578 O   0  0  0  0  0  0  0  0  0  0  0  0
   21.5748  -19.2419  -12.5931 C   0  0  0  0  0  0  0  0  0  0  0  0
   20.4967  -18.9684  -13.4241 C   0  0  0  0  0  0  0  0  0  0  0  0
   21.5824  -22.3313   -8.8520 O   0  0  0  0  0  0  0  0  0  0  0  0
  2  1  1  6
  2  5  1  0
  3  2  1  0
  4  3  1  0
  5  6  2  0
  7  5  1  0
  7 11  1  0
  8  9  1  0
  8  7  1  0
  9 10  1  0
 10 11  1  0
 11 12  1  6
 12 21  1  0
 13 12  2  0
 15 14  1  0
 16 15  2  0
 17 16  1  0
 18 24  1  0
 18 17  2  0
 19 18  1  0
 20 21  1  0
 20 19  1  6
 22 20  1  0
 22 23  1  0
 24 25  2  0
 25 15  1  0
 26 22  2  0
M  END
$$$$
