CPY.pdb
     RDKit          3D

 26 27  0  0  1  0  0  0  0  0999 V2000
   18.5438  -11.4647    4.8726 N   0  0  0  0  0  0  0  0  0  0  0  0
   17.9037  -12.1051    5.9861 C   0  0  1  0  0  0  0  0  0  0  0  0
   16.3719  -12.0522    5.8140 C   0  0  0  0  0  0  0  0  0  0  0  0
   15.8786  -10.3831    6.3480 S   0  0  0  0  0  0  0  0  0  0  0  0
   18.3059  -13.4855    6.2412 C   0  0  0  0  0  0  0  0  0  0  0  0
   18.5696  -14.2533    5.2874 O   0  0  0  0  0  0  0  0  0  0  0  0
   18.4109  -14.0028    7.5770 N   0  0  0  0  0  0  0  0  0  0  0  0
   18.1999  -13.2118    8.7432 C   0  0  0  0  0  0  0  0  0  0  0  0
   18.5791  -14.0681    9.9151 C   0  0  0  0  0  0  0  0  0  0  0  0
   18.4480  -15.4757    9.3788 C   0  0  0  0  0  0  0  0  0  0  0  0
   18.7460  -15.3522    7.9117 C   0  0  1  0  0  0  0  0  0  0  0  0
   17.8372  -16.3382    7.2341 C   0  0  0  0  0  0  0  0  0  0  0  0
   16.6462  -16.0243    7.0553 O   0  0  0  0  0  0  0  0  0  0  0  0
   14.7853  -22.8858    2.1402 O   0  0  0  0  0  0  0  0  0  0  0  0
   15.5921  -21.9900    2.8439 C   0  0  0  0  0  0  0  0  0  0  0  0
   15.3034  -20.6406    2.8596 C   0  0  0  0  0  0  0  0  0  0  0  0
   16.0738  -19.7400    3.5390 C   0  0  0  0  0  0  0  0  0  0  0  0
   17.2045  -20.1471    4.2591 C   0  0  0  0  0  0  0  0  0  0  0  0
   18.0319  -19.1503    4.9778 C   0  0  0  0  0  0  0  0  0  0  0  0
   17.3751  -18.5988    6.2195 C   0  0  2  0  0  0  0  0  0  0  0  0
   18.2895  -17.6015    6.7969 N   0  0  0  0  0  0  0  0  0  0  0  0
   17.1596  -19.7058    7.1736 C   0  0  0  0  0  0  0  0  0  0  0  0
   15.9325  -20.3504    7.1893 O   0  0  0  0  0  0  0  0  0  0  0  0
   17.4826  -21.4980    4.2353 C   0  0  0  0  0  0  0  0  0  0  0  0
   16.6997  -22.4134    3.5450 C   0  0  0  0  0  0  0  0  0  0  0  0
   18.0358  -20.0990    7.9794 O   0  0  0  0  0  0  0  0  0  0  0  0
  2  1  1  6
  2  5  1  0
  3  2  1  0
  4  3  1  0
  5  6  2  0
  7  5  1  0
  7 11  1  0
  8  9  1  0
  8  7  1  0
  9 10  1  0
 10 11  1  0
 11 12  1  6
 12 21  1  0
 13 12  2  0
 15 14  1  0
 16 15  2  0
 17 16  1  0
 18 24  1  0
 18 17  2  0
 19 18  1  0
 20 21  1  0
 20 19  1  6
 22 20  1  0
 22 23  1  0
 24 25  2  0
 25 15  1  0
 26 22  2  0
M  END
$$$$
