CPY.pdb
     RDKit          3D

 26 27  0  0  1  0  0  0  0  0999 V2000
   17.3616  -11.6172    6.0810 N   0  0  0  0  0  0  0  0  0  0  0  0
   18.1643  -12.6456    5.4830 C   0  0  1  0  0  0  0  0  0  0  0  0
   19.3671  -12.9697    6.3924 C   0  0  0  0  0  0  0  0  0  0  0  0
   20.6039  -11.6802    6.0432 S   0  0  0  0  0  0  0  0  0  0  0  0
   17.4666  -13.8864    5.1574 C   0  0  0  0  0  0  0  0  0  0  0  0
   16.6886  -14.4103    5.9876 O   0  0  0  0  0  0  0  0  0  0  0  0
   17.6470  -14.5399    3.8912 N   0  0  0  0  0  0  0  0  0  0  0  0
   18.4703  -14.0203    2.8508 C   0  0  0  0  0  0  0  0  0  0  0  0
   18.2448  -14.8924    1.6512 C   0  0  0  0  0  0  0  0  0  0  0  0
   17.7356  -16.1852    2.2473 C   0  0  0  0  0  0  0  0  0  0  0  0
   17.0282  -15.7702    3.5058 C   0  0  1  0  0  0  0  0  0  0  0  0
   17.2985  -16.8663    4.4972 C   0  0  0  0  0  0  0  0  0  0  0  0
   18.3292  -16.7997    5.1915 O   0  0  0  0  0  0  0  0  0  0  0  0
   11.6924  -22.7114    3.8668 O   0  0  0  0  0  0  0  0  0  0  0  0
   12.6163  -21.8821    4.5048 C   0  0  0  0  0  0  0  0  0  0  0  0
   12.4783  -20.5094    4.4670 C   0  0  0  0  0  0  0  0  0  0  0  0
   13.3658  -19.6722    5.0815 C   0  0  0  0  0  0  0  0  0  0  0  0
   14.4688  -20.1717    5.7861 C   0  0  0  0  0  0  0  0  0  0  0  0
   15.4247  -19.2436    6.4339 C   0  0  0  0  0  0  0  0  0  0  0  0
   16.6915  -19.0278    5.6428 C   0  0  2  0  0  0  0  0  0  0  0  0
   16.4250  -17.9621    4.6644 N   0  0  0  0  0  0  0  0  0  0  0  0
   17.0359  -20.2845    4.9469 C   0  0  0  0  0  0  0  0  0  0  0  0
   17.6296  -21.3102    5.6660 O   0  0  0  0  0  0  0  0  0  0  0  0
   14.5958  -21.5449    5.8162 C   0  0  0  0  0  0  0  0  0  0  0  0
   13.6939  -22.3960    5.1919 C   0  0  0  0  0  0  0  0  0  0  0  0
   16.8184  -20.4767    3.7273 O   0  0  0  0  0  0  0  0  0  0  0  0
  2  1  1  1
  2  5  1  0
  3  2  1  0
  4  3  1  0
  5  6  2  0
  7  5  1  0
  7 11  1  0
  8  9  1  0
  8  7  1  0
  9 10  1  0
 10 11  1  0
 11 12  1  1
 12 21  1  0
 13 12  2  0
 15 14  1  0
 16 15  2  0
 17 16  1  0
 18 24  1  0
 18 17  2  0
 19 18  1  0
 20 21  1  0
 20 19  1  6
 22 20  1  0
 22 23  1  0
 24 25  2  0
 25 15  1  0
 26 22  2  0
M  END
$$$$
