CPY.pdb
     RDKit          3D

 26 27  0  0  1  0  0  0  0  0999 V2000
   39.6263   -1.0564   -8.7749 N   0  0  0  0  0  0  0  0  0  0  0  0
   39.7309   -0.0707   -7.7370 C   0  0  1  0  0  0  0  0  0  0  0  0
   38.9793    1.2110   -8.1511 C   0  0  0  0  0  0  0  0  0  0  0  0
   40.0309    2.0093   -9.4047 S   0  0  0  0  0  0  0  0  0  0  0  0
   39.2674   -0.4878   -6.4166 C   0  0  0  0  0  0  0  0  0  0  0  0
   38.2460   -1.2039   -6.3026 O   0  0  0  0  0  0  0  0  0  0  0  0
   39.9575   -0.0959   -5.2196 N   0  0  0  0  0  0  0  0  0  0  0  0
   41.1818    0.6332   -5.2232 C   0  0  0  0  0  0  0  0  0  0  0  0
   41.6562    0.6793   -3.8008 C   0  0  0  0  0  0  0  0  0  0  0  0
   40.3919    0.4591   -3.0013 C   0  0  0  0  0  0  0  0  0  0  0  0
   39.5247   -0.3881   -3.8882 C   0  0  1  0  0  0  0  0  0  0  0  0
   38.1193    0.0823   -3.6416 C   0  0  0  0  0  0  0  0  0  0  0  0
   37.6966    1.0587   -4.2875 O   0  0  0  0  0  0  0  0  0  0  0  0
   29.6957    0.1763   -0.6836 O   0  0  0  0  0  0  0  0  0  0  0  0
   30.9993   -0.1598   -1.0525 C   0  0  0  0  0  0  0  0  0  0  0  0
   31.8718   -0.7148   -0.1386 C   0  0  0  0  0  0  0  0  0  0  0  0
   33.1530   -1.0543   -0.4698 C   0  0  0  0  0  0  0  0  0  0  0  0
   33.6470   -0.8534   -1.7653 C   0  0  0  0  0  0  0  0  0  0  0  0
   35.0439   -1.2178   -2.0976 C   0  0  0  0  0  0  0  0  0  0  0  0
   35.9220   -0.0316   -2.4119 C   0  0  2  0  0  0  0  0  0  0  0  0
   37.2689   -0.5449   -2.7061 N   0  0  0  0  0  0  0  0  0  0  0  0
   35.9610    0.8556   -1.2314 C   0  0  0  0  0  0  0  0  0  0  0  0
   35.0990    1.9399   -1.1766 O   0  0  0  0  0  0  0  0  0  0  0  0
   32.7654   -0.2978   -2.6692 C   0  0  0  0  0  0  0  0  0  0  0  0
   31.4633    0.0471   -2.3329 C   0  0  0  0  0  0  0  0  0  0  0  0
   36.7401    0.6799   -0.2650 O   0  0  0  0  0  0  0  0  0  0  0  0
  2  1  1  6
  2  5  1  0
  3  2  1  0
  4  3  1  0
  5  6  2  0
  7  5  1  0
  7 11  1  0
  8  9  1  0
  8  7  1  0
  9 10  1  0
 10 11  1  0
 11 12  1  6
 12 21  1  0
 13 12  2  0
 15 14  1  0
 16 15  2  0
 17 16  1  0
 18 24  1  0
 18 17  2  0
 19 18  1  0
 20 21  1  0
 20 19  1  1
 22 20  1  0
 22 23  1  0
 24 25  2  0
 25 15  1  0
 26 22  2  0
M  END
$$$$
