CPY.pdb
     RDKit          3D

 26 27  0  0  1  0  0  0  0  0999 V2000
   23.4233  -16.5934  -16.7879 N   0  0  0  0  0  0  0  0  0  0  0  0
   24.6254  -16.6054  -16.0040 C   0  0  1  0  0  0  0  0  0  0  0  0
   24.4111  -15.8099  -14.7001 C   0  0  0  0  0  0  0  0  0  0  0  0
   24.8332  -14.0860  -15.1057 S   0  0  0  0  0  0  0  0  0  0  0  0
   25.1544  -17.9258  -15.6736 C   0  0  0  0  0  0  0  0  0  0  0  0
   24.3900  -18.8267  -15.2577 O   0  0  0  0  0  0  0  0  0  0  0  0
   26.5508  -18.2319  -15.8120 N   0  0  0  0  0  0  0  0  0  0  0  0
   27.4881  -17.3558  -16.4319 C   0  0  0  0  0  0  0  0  0  0  0  0
   28.7783  -18.1141  -16.5360 C   0  0  0  0  0  0  0  0  0  0  0  0
   28.6511  -19.1727  -15.4640 C   0  0  0  0  0  0  0  0  0  0  0  0
   27.1759  -19.4384  -15.3660 C   0  0  1  0  0  0  0  0  0  0  0  0
   26.9118  -19.6993  -13.9101 C   0  0  0  0  0  0  0  0  0  0  0  0
   27.1794  -18.8048  -13.0872 O   0  0  0  0  0  0  0  0  0  0  0  0
   26.0878  -20.3113   -5.5932 O   0  0  0  0  0  0  0  0  0  0  0  0
   26.1706  -20.2326   -6.9844 C   0  0  0  0  0  0  0  0  0  0  0  0
   27.0863  -19.3977   -7.5919 C   0  0  0  0  0  0  0  0  0  0  0  0
   27.1911  -19.2993   -8.9505 C   0  0  0  0  0  0  0  0  0  0  0  0
   26.3663  -20.0482   -9.7998 C   0  0  0  0  0  0  0  0  0  0  0  0
   26.4899  -19.9152  -11.2701 C   0  0  0  0  0  0  0  0  0  0  0  0
   26.0741  -21.1519  -12.0282 C   0  0  2  0  0  0  0  0  0  0  0  0
   26.3730  -20.9198  -13.4498 N   0  0  0  0  0  0  0  0  0  0  0  0
   24.6238  -21.3588  -11.8393 C   0  0  0  0  0  0  0  0  0  0  0  0
   24.1937  -22.3196  -10.9373 O   0  0  0  0  0  0  0  0  0  0  0  0
   25.4551  -20.8783   -9.1805 C   0  0  0  0  0  0  0  0  0  0  0  0
   25.3485  -20.9786   -7.7999 C   0  0  0  0  0  0  0  0  0  0  0  0
   23.7500  -20.7057  -12.4571 O   0  0  0  0  0  0  0  0  0  0  0  0
  2  1  1  1
  2  5  1  0
  3  2  1  0
  4  3  1  0
  5  6  2  0
  7  5  1  0
  7 11  1  0
  8  9  1  0
  8  7  1  0
  9 10  1  0
 10 11  1  0
 11 12  1  1
 12 21  1  0
 13 12  2  0
 15 14  1  0
 16 15  2  0
 17 16  1  0
 18 24  1  0
 18 17  2  0
 19 18  1  0
 20 21  1  0
 20 19  1  1
 22 20  1  0
 22 23  1  0
 24 25  2  0
 25 15  1  0
 26 22  2  0
M  END
$$$$
