CPY.pdb
     RDKit          3D

 26 27  0  0  1  0  0  0  0  0999 V2000
   26.5346  -17.1804  -18.0928 N   0  0  0  0  0  0  0  0  0  0  0  0
   26.7618  -17.8199  -16.8283 C   0  0  1  0  0  0  0  0  0  0  0  0
   26.4191  -16.8498  -15.6791 C   0  0  0  0  0  0  0  0  0  0  0  0
   27.7995  -15.6646  -15.6136 S   0  0  0  0  0  0  0  0  0  0  0  0
   26.0509  -19.0777  -16.6164 C   0  0  0  0  0  0  0  0  0  0  0  0
   24.8144  -19.1440  -16.8048 O   0  0  0  0  0  0  0  0  0  0  0  0
   26.7364  -20.2655  -16.1898 N   0  0  0  0  0  0  0  0  0  0  0  0
   28.1559  -20.3872  -16.1691 C   0  0  0  0  0  0  0  0  0  0  0  0
   28.4577  -21.8197  -15.8416 C   0  0  0  0  0  0  0  0  0  0  0  0
   27.2014  -22.2932  -15.1461 C   0  0  0  0  0  0  0  0  0  0  0  0
   26.1002  -21.4676  -15.7478 C   0  0  1  0  0  0  0  0  0  0  0  0
   25.1349  -21.2090  -14.6259 C   0  0  0  0  0  0  0  0  0  0  0  0
   25.5682  -20.7103  -13.5712 O   0  0  0  0  0  0  0  0  0  0  0  0
   20.2736  -17.2547  -17.9182 O   0  0  0  0  0  0  0  0  0  0  0  0
   20.8314  -17.8928  -16.8090 C   0  0  0  0  0  0  0  0  0  0  0  0
   22.1854  -17.8131  -16.5544 C   0  0  0  0  0  0  0  0  0  0  0  0
   22.7601  -18.4263  -15.4773 C   0  0  0  0  0  0  0  0  0  0  0  0
   21.9952  -19.1724  -14.5713 C   0  0  0  0  0  0  0  0  0  0  0  0
   22.6427  -19.8388  -13.4175 C   0  0  0  0  0  0  0  0  0  0  0  0
   22.8338  -21.3241  -13.6037 C   0  0  2  0  0  0  0  0  0  0  0  0
   23.7605  -21.5122  -14.7306 N   0  0  0  0  0  0  0  0  0  0  0  0
   21.5250  -21.9356  -13.9123 C   0  0  0  0  0  0  0  0  0  0  0  0
   20.5911  -22.0732  -12.8971 O   0  0  0  0  0  0  0  0  0  0  0  0
   20.6435  -19.2447  -14.8370 C   0  0  0  0  0  0  0  0  0  0  0  0
   20.0592  -18.6215  -15.9314 C   0  0  0  0  0  0  0  0  0  0  0  0
   21.2086  -22.3420  -15.0554 O   0  0  0  0  0  0  0  0  0  0  0  0
  2  1  1  6
  2  5  1  0
  3  2  1  0
  4  3  1  0
  5  6  2  0
  7  5  1  0
  7 11  1  0
  8  9  1  0
  8  7  1  0
  9 10  1  0
 10 11  1  0
 11 12  1  1
 12 21  1  0
 13 12  2  0
 15 14  1  0
 16 15  2  0
 17 16  1  0
 18 24  1  0
 18 17  2  0
 19 18  1  0
 20 21  1  0
 20 19  1  6
 22 20  1  0
 22 23  1  0
 24 25  2  0
 25 15  1  0
 26 22  2  0
M  END
$$$$
