CPY.pdb
     RDKit          3D

 26 27  0  0  1  0  0  0  0  0999 V2000
   25.8725  -20.1914  -15.2040 N   0  0  0  0  0  0  0  0  0  0  0  0
   26.9661  -19.8532  -14.3384 C   0  0  1  0  0  0  0  0  0  0  0  0
   27.0473  -18.3225  -14.1670 C   0  0  0  0  0  0  0  0  0  0  0  0
   27.8984  -17.7097  -15.6552 S   0  0  0  0  0  0  0  0  0  0  0  0
   26.9481  -20.4788  -13.0191 C   0  0  0  0  0  0  0  0  0  0  0  0
   25.8833  -20.5374  -12.3621 O   0  0  0  0  0  0  0  0  0  0  0  0
   28.1353  -21.0404  -12.4376 N   0  0  0  0  0  0  0  0  0  0  0  0
   29.3399  -21.2556  -13.1676 C   0  0  0  0  0  0  0  0  0  0  0  0
   30.2610  -22.0145  -12.2587 C   0  0  0  0  0  0  0  0  0  0  0  0
   29.7343  -21.6946  -10.8780 C   0  0  0  0  0  0  0  0  0  0  0  0
   28.2637  -21.4621  -11.0771 C   0  0  1  0  0  0  0  0  0  0  0  0
   27.8976  -20.3671  -10.1157 C   0  0  0  0  0  0  0  0  0  0  0  0
   28.0984  -19.1864  -10.4542 O   0  0  0  0  0  0  0  0  0  0  0  0
   21.6080  -22.7301   -7.1614 O   0  0  0  0  0  0  0  0  0  0  0  0
   22.6486  -21.8142   -7.3251 C   0  0  0  0  0  0  0  0  0  0  0  0
   22.9171  -21.2629   -8.5614 C   0  0  0  0  0  0  0  0  0  0  0  0
   23.9282  -20.3643   -8.7528 C   0  0  0  0  0  0  0  0  0  0  0  0
   24.7485  -19.9557   -7.6932 C   0  0  0  0  0  0  0  0  0  0  0  0
   25.8467  -18.9895   -7.9277 C   0  0  0  0  0  0  0  0  0  0  0  0
   27.2235  -19.5963   -7.8125 C   0  0  2  0  0  0  0  0  0  0  0  0
   27.3366  -20.6344   -8.8486 N   0  0  0  0  0  0  0  0  0  0  0  0
   27.3662  -20.1973   -6.4707 C   0  0  0  0  0  0  0  0  0  0  0  0
   27.5020  -19.3636   -5.3716 O   0  0  0  0  0  0  0  0  0  0  0  0
   24.4702  -20.5141   -6.4629 C   0  0  0  0  0  0  0  0  0  0  0  0
   23.4427  -21.4272   -6.2681 C   0  0  0  0  0  0  0  0  0  0  0  0
   27.3713  -21.4347   -6.2688 O   0  0  0  0  0  0  0  0  0  0  0  0
  2  1  1  1
  2  5  1  0
  3  2  1  0
  4  3  1  0
  5  6  2  0
  7  5  1  0
  7 11  1  0
  8  9  1  0
  8  7  1  0
  9 10  1  0
 10 11  1  0
 11 12  1  1
 12 21  1  0
 13 12  2  0
 15 14  1  0
 16 15  2  0
 17 16  1  0
 18 24  1  0
 18 17  2  0
 19 18  1  0
 20 21  1  0
 20 19  1  1
 22 20  1  0
 22 23  1  0
 24 25  2  0
 25 15  1  0
 26 22  2  0
M  END
$$$$
