CPY.pdb
     RDKit          3D

 26 27  0  0  1  0  0  0  0  0999 V2000
   23.4778  -20.7040  -18.5494 N   0  0  0  0  0  0  0  0  0  0  0  0
   24.0877  -19.7968  -17.6196 C   0  0  1  0  0  0  0  0  0  0  0  0
   23.0029  -18.9529  -16.9195 C   0  0  0  0  0  0  0  0  0  0  0  0
   22.7538  -17.4979  -17.9851 S   0  0  0  0  0  0  0  0  0  0  0  0
   24.9430  -20.4071  -16.6056 C   0  0  0  0  0  0  0  0  0  0  0  0
   24.5799  -21.4525  -16.0188 O   0  0  0  0  0  0  0  0  0  0  0  0
   26.2125  -19.8367  -16.2510 N   0  0  0  0  0  0  0  0  0  0  0  0
   26.8108  -18.7540  -16.9582 C   0  0  0  0  0  0  0  0  0  0  0  0
   28.1901  -18.5843  -16.3933 C   0  0  0  0  0  0  0  0  0  0  0  0
   28.0878  -19.2124  -15.0218 C   0  0  0  0  0  0  0  0  0  0  0  0
   27.0377  -20.2764  -15.1690 C   0  0  1  0  0  0  0  0  0  0  0  0
   26.2914  -20.2855  -13.8650 C   0  0  0  0  0  0  0  0  0  0  0  0
   25.2774  -19.5723  -13.7547 O   0  0  0  0  0  0  0  0  0  0  0  0
   26.6954  -19.6077   -5.0542 O   0  0  0  0  0  0  0  0  0  0  0  0
   26.8357  -20.0425   -6.3732 C   0  0  0  0  0  0  0  0  0  0  0  0
   27.7721  -19.4706   -7.2103 C   0  0  0  0  0  0  0  0  0  0  0  0
   27.9329  -19.8747   -8.5053 C   0  0  0  0  0  0  0  0  0  0  0  0
   27.1476  -20.8986   -9.0507 C   0  0  0  0  0  0  0  0  0  0  0  0
   27.3318  -21.3112  -10.4615 C   0  0  0  0  0  0  0  0  0  0  0  0
   26.2712  -20.7776  -11.3930 C   0  0  2  0  0  0  0  0  0  0  0  0
   26.7021  -21.0730  -12.7682 N   0  0  0  0  0  0  0  0  0  0  0  0
   26.1583  -19.3179  -11.1965 C   0  0  0  0  0  0  0  0  0  0  0  0
   25.0326  -18.8094  -10.5672 O   0  0  0  0  0  0  0  0  0  0  0  0
   26.2153  -21.4618   -8.2042 C   0  0  0  0  0  0  0  0  0  0  0  0
   26.0518  -21.0514   -6.8880 C   0  0  0  0  0  0  0  0  0  0  0  0
   27.0348  -18.5039  -11.5720 O   0  0  0  0  0  0  0  0  0  0  0  0
  2  1  1  1
  2  5  1  0
  3  2  1  0
  4  3  1  0
  5  6  2  0
  7  5  1  0
  7 11  1  0
  8  9  1  0
  8  7  1  0
  9 10  1  0
 10 11  1  0
 11 12  1  1
 12 21  1  0
 13 12  2  0
 15 14  1  0
 16 15  2  0
 17 16  1  0
 18 24  1  0
 18 17  2  0
 19 18  1  0
 20 21  1  0
 20 19  1  1
 22 20  1  0
 22 23  1  0
 24 25  2  0
 25 15  1  0
 26 22  2  0
M  END
$$$$
