CPY.pdb
     RDKit          3D

 26 27  0  0  1  0  0  0  0  0999 V2000
   29.1048  -25.0898  -16.6831 N   0  0  0  0  0  0  0  0  0  0  0  0
   28.2830  -24.0365  -17.2074 C   0  0  1  0  0  0  0  0  0  0  0  0
   27.1631  -24.6307  -18.0859 C   0  0  0  0  0  0  0  0  0  0  0  0
   27.9380  -24.9748  -19.6970 S   0  0  0  0  0  0  0  0  0  0  0  0
   27.6871  -23.1438  -16.2171 C   0  0  0  0  0  0  0  0  0  0  0  0
   27.0850  -23.6136  -15.2243 O   0  0  0  0  0  0  0  0  0  0  0  0
   27.7698  -21.7158  -16.3466 N   0  0  0  0  0  0  0  0  0  0  0  0
   28.4461  -21.0633  -17.4177 C   0  0  0  0  0  0  0  0  0  0  0  0
   28.4565  -19.5998  -17.0884 C   0  0  0  0  0  0  0  0  0  0  0  0
   27.2975  -19.4471  -16.1296 C   0  0  0  0  0  0  0  0  0  0  0  0
   27.2058  -20.7735  -15.4306 C   0  0  1  0  0  0  0  0  0  0  0  0
   25.7381  -21.0125  -15.2160 C   0  0  0  0  0  0  0  0  0  0  0  0
   25.0744  -21.5103  -16.1437 O   0  0  0  0  0  0  0  0  0  0  0  0
   17.8141  -20.8996  -11.0283 O   0  0  0  0  0  0  0  0  0  0  0  0
   19.1722  -20.8911  -11.3507 C   0  0  0  0  0  0  0  0  0  0  0  0
   19.9230  -19.7407  -11.2186 C   0  0  0  0  0  0  0  0  0  0  0  0
   21.2535  -19.7013  -11.5259 C   0  0  0  0  0  0  0  0  0  0  0  0
   21.9258  -20.8377  -11.9943 C   0  0  0  0  0  0  0  0  0  0  0  0
   23.3663  -20.7675  -12.3330 C   0  0  0  0  0  0  0  0  0  0  0  0
   23.6496  -20.9014  -13.8091 C   0  0  2  0  0  0  0  0  0  0  0  0
   25.0928  -20.6919  -14.0024 N   0  0  0  0  0  0  0  0  0  0  0  0
   22.8827  -19.8683  -14.5348 C   0  0  0  0  0  0  0  0  0  0  0  0
   21.6511  -20.2019  -15.0766 O   0  0  0  0  0  0  0  0  0  0  0  0
   21.1644  -21.9809  -12.1223 C   0  0  0  0  0  0  0  0  0  0  0  0
   19.8123  -22.0211  -11.8099 C   0  0  0  0  0  0  0  0  0  0  0  0
   23.2892  -18.6925  -14.6896 O   0  0  0  0  0  0  0  0  0  0  0  0
  2  1  1  1
  2  5  1  0
  3  2  1  0
  4  3  1  0
  5  6  2  0
  7  5  1  0
  7 11  1  0
  8  9  1  0
  8  7  1  0
  9 10  1  0
 10 11  1  0
 11 12  1  6
 12 21  1  0
 13 12  2  0
 15 14  1  0
 16 15  2  0
 17 16  1  0
 18 24  1  0
 18 17  2  0
 19 18  1  0
 20 21  1  0
 20 19  1  1
 22 20  1  0
 22 23  1  0
 24 25  2  0
 25 15  1  0
 26 22  2  0
M  END
$$$$
