PRN.pdb
     RDKit          3D

 27 27  0  0  1  0  0  0  0  0999 V2000
   24.7557  -21.8693  -11.9673 N   0  0  0  0  0  0  0  0  0  0  0  0
   25.6353  -21.9744  -10.8204 C   0  0  0  0  0  0  0  0  0  0  0  0
   25.7826  -20.4979  -10.4343 C   0  0  0  0  0  0  0  0  0  0  0  0
   24.3102  -20.0702  -10.4813 C   0  0  0  0  0  0  0  0  0  0  0  0
   23.8607  -20.7838  -11.7458 C   0  0  1  0  0  0  0  0  0  0  0  0
   23.9816  -19.8061  -12.8531 C   0  0  0  0  0  0  0  0  0  0  0  0
   23.4120  -18.6946  -12.7298 O   0  0  0  0  0  0  0  0  0  0  0  0
   29.6946  -21.7342  -14.4068 N   0  0  0  0  0  0  0  0  0  0  0  0
   28.9567  -21.9261  -15.6135 C   0  0  0  0  0  0  0  0  0  0  0  0
   28.8147  -23.1183  -16.1270 N   0  0  0  0  0  0  0  0  0  0  0  0
   28.3904  -20.7633  -16.2207 N   0  0  0  0  0  0  0  0  0  0  0  0
   28.5464  -19.5038  -15.5295 C   0  0  0  0  0  0  0  0  0  0  0  0
   27.2800  -19.1647  -14.7535 C   0  0  0  0  0  0  0  0  0  0  0  0
   26.1357  -19.2199  -15.7132 C   0  0  0  0  0  0  0  0  0  0  0  0
   24.7950  -19.0315  -15.0448 C   0  0  2  0  0  0  0  0  0  0  0  0
   24.7035  -20.0632  -14.0355 N   0  0  0  0  0  0  0  0  0  0  0  0
   23.6467  -19.0482  -15.9612 C   0  0  0  0  0  0  0  0  0  0  0  0
   23.1545  -20.1213  -16.3761 O   0  0  0  0  0  0  0  0  0  0  0  0
   28.3072  -23.2567  -17.0239 N   0  0  0  0  0  0  0  0  0  0  0  0
   19.3115  -17.9259  -16.2972 C   0  0  0  0  0  0  0  0  0  0  0  0
   19.8535  -16.6372  -16.6504 O   0  0  0  0  0  0  0  0  0  0  0  0
   19.1847  -15.5925  -16.4847 C   0  0  0  0  0  0  0  0  0  0  0  0
   21.2109  -16.5750  -17.2103 C   0  0  2  0  0  0  0  0  0  0  0  0
   21.8967  -17.9092  -17.3295 N   0  0  0  0  0  0  0  0  0  0  0  0
   23.0464  -17.8449  -16.4152 C   0  0  0  0  0  0  0  0  0  0  0  0
   22.4858  -18.0825  -18.6795 O   0  0  0  0  0  0  0  0  0  0  0  0
   21.7948  -18.5495  -19.6260 O   0  0  0  0  0  0  0  0  0  0  0  0
  1  5  1  0
  1  2  1  0
  2  3  1  0
  4  3  1  0
  5  4  1  0
  6  7  2  0
  5  6  1  6
  8  9  1  0
  9 10  2  0
 11 12  1  0
 11  9  1  0
 13 12  1  0
 13 14  1  0
 15 14  1  6
 15 16  1  0
 16  6  1  0
 17 15  1  0
 18 17  2  0
 19 20  1  0
 20 21  2  0
 23 22  1  1
 22 20  1  0
 23 24  1  0
 24 17  1  0
 25 27  1  0
 25 23  1  0
 26 25  2  0
M  END
$$$$
