PRN.pdb
     RDKit          3D

 27 27  0  0  1  0  0  0  0  0999 V2000
   27.3200  -17.3758  -17.7227 N   0  0  0  0  0  0  0  0  0  0  0  0
   28.6189  -16.7343  -17.6912 C   0  0  0  0  0  0  0  0  0  0  0  0
   29.4875  -17.8697  -17.1370 C   0  0  0  0  0  0  0  0  0  0  0  0
   29.0052  -19.0222  -18.0270 C   0  0  0  0  0  0  0  0  0  0  0  0
   27.5093  -18.7530  -18.0326 C   0  0  1  0  0  0  0  0  0  0  0  0
   26.9215  -19.5893  -16.9594 C   0  0  0  0  0  0  0  0  0  0  0  0
   26.8830  -20.8323  -17.1280 O   0  0  0  0  0  0  0  0  0  0  0  0
   26.2553  -19.4684   -9.4440 N   0  0  0  0  0  0  0  0  0  0  0  0
   25.4777  -20.6637   -9.3793 C   0  0  0  0  0  0  0  0  0  0  0  0
   24.6042  -20.8412   -8.4250 N   0  0  0  0  0  0  0  0  0  0  0  0
   25.7019  -21.6406  -10.3975 N   0  0  0  0  0  0  0  0  0  0  0  0
   26.4787  -21.2415  -11.5489 C   0  0  0  0  0  0  0  0  0  0  0  0
   25.7597  -20.1399  -12.3173 C   0  0  0  0  0  0  0  0  0  0  0  0
   26.5661  -19.8443  -13.5404 C   0  0  0  0  0  0  0  0  0  0  0  0
   25.7632  -19.9439  -14.8152 C   0  0  2  0  0  0  0  0  0  0  0  0
   26.4046  -19.0578  -15.7613 N   0  0  0  0  0  0  0  0  0  0  0  0
   24.3321  -19.6495  -14.6614 C   0  0  0  0  0  0  0  0  0  0  0  0
   23.8919  -18.4802  -14.7316 O   0  0  0  0  0  0  0  0  0  0  0  0
   24.0202  -21.7009   -8.3884 N   0  0  0  0  0  0  0  0  0  0  0  0
   20.6076  -17.0544  -15.8357 C   0  0  0  0  0  0  0  0  0  0  0  0
   20.9418  -18.1318  -14.9375 O   0  0  0  0  0  0  0  0  0  0  0  0
   20.4888  -18.1590  -13.7712 C   0  0  0  0  0  0  0  0  0  0  0  0
   21.8276  -19.2005  -15.4206 C   0  0  2  0  0  0  0  0  0  0  0  0
   21.9499  -20.3761  -14.4892 N   0  0  0  0  0  0  0  0  0  0  0  0
   23.3867  -20.6818  -14.4263 C   0  0  0  0  0  0  0  0  0  0  0  0
   21.3232  -21.5847  -15.0775 O   0  0  0  0  0  0  0  0  0  0  0  0
   22.0239  -22.4390  -15.6864 O   0  0  0  0  0  0  0  0  0  0  0  0
  1  5  1  0
  1  2  1  0
  2  3  1  0
  4  3  1  0
  5  4  1  0
  6  7  2  0
  5  6  1  1
  8  9  1  0
  9 10  2  0
 11 12  1  0
 11  9  1  0
 13 12  1  0
 13 14  1  0
 15 14  1  1
 15 16  1  0
 16  6  1  0
 17 15  1  0
 18 17  2  0
 19 20  1  0
 20 21  2  0
 23 22  1  1
 22 20  1  0
 23 24  1  0
 24 17  1  0
 25 27  1  0
 25 23  1  0
 26 25  2  0
M  END
$$$$
