PRN.pdb
     RDKit          3D

 27 27  0  0  1  0  0  0  0  0999 V2000
   19.9727  -23.3019  -17.1186 N   0  0  0  0  0  0  0  0  0  0  0  0
   19.6026  -21.9173  -16.9051 C   0  0  0  0  0  0  0  0  0  0  0  0
   19.5544  -21.8650  -15.3735 C   0  0  0  0  0  0  0  0  0  0  0  0
   20.8788  -22.5677  -15.0491 C   0  0  0  0  0  0  0  0  0  0  0  0
   20.8400  -23.7006  -16.0615 C   0  0  1  0  0  0  0  0  0  0  0  0
   20.2661  -24.8760  -15.3645 C   0  0  0  0  0  0  0  0  0  0  0  0
   19.0169  -24.9813  -15.3063 O   0  0  0  0  0  0  0  0  0  0  0  0
   23.0397  -28.8304  -10.3489 N   0  0  0  0  0  0  0  0  0  0  0  0
   22.4466  -30.1234  -10.2300 C   0  0  0  0  0  0  0  0  0  0  0  0
   22.3828  -30.7250   -9.0728 N   0  0  0  0  0  0  0  0  0  0  0  0
   21.9344  -30.7155  -11.4252 N   0  0  0  0  0  0  0  0  0  0  0  0
   22.1930  -30.0350  -12.6736 C   0  0  0  0  0  0  0  0  0  0  0  0
   20.9865  -29.1988  -13.0812 C   0  0  0  0  0  0  0  0  0  0  0  0
   21.5002  -27.9464  -13.7145 C   0  0  0  0  0  0  0  0  0  0  0  0
   20.4004  -26.9896  -14.1077 C   0  0  2  0  0  0  0  0  0  0  0  0
   21.0532  -25.8792  -14.7651 N   0  0  0  0  0  0  0  0  0  0  0  0
   19.5444  -26.5516  -12.9969 C   0  0  0  0  0  0  0  0  0  0  0  0
   19.7960  -25.5133  -12.3453 O   0  0  0  0  0  0  0  0  0  0  0  0
   22.0232  -31.6976   -8.9955 N   0  0  0  0  0  0  0  0  0  0  0  0
   15.2421  -25.7160  -10.3155 C   0  0  0  0  0  0  0  0  0  0  0  0
   15.7531  -24.9645  -11.4349 O   0  0  0  0  0  0  0  0  0  0  0  0
   15.2287  -23.8797  -11.7727 C   0  0  0  0  0  0  0  0  0  0  0  0
   16.9057  -25.4997  -12.1733 C   0  0  1  0  0  0  0  0  0  0  0  0
   17.4970  -26.7509  -11.5823 N   0  0  0  0  0  0  0  0  0  0  0  0
   18.3936  -27.2897  -12.6157 C   0  0  0  0  0  0  0  0  0  0  0  0
   16.4560  -27.7902  -11.3938 O   0  0  0  0  0  0  0  0  0  0  0  0
   15.4722  -27.5822  -10.6320 O   0  0  0  0  0  0  0  0  0  0  0  0
  1  5  1  0
  1  2  1  0
  2  3  1  0
  4  3  1  0
  5  4  1  0
  6  7  2  0
  5  6  1  1
  8  9  1  0
  9 10  2  0
 11 12  1  0
 11  9  1  0
 13 12  1  0
 13 14  1  0
 15 14  1  1
 15 16  1  0
 16  6  1  0
 17 15  1  0
 18 17  2  0
 19 20  1  0
 20 21  2  0
 23 22  1  1
 22 20  1  0
 23 24  1  0
 24 17  1  0
 25 27  1  0
 25 23  1  0
 26 25  2  0
M  END
$$$$
