PRN.pdb
     RDKit          3D

 27 27  0  0  1  0  0  0  0  0999 V2000
   22.0079  -12.0017  -15.3642 N   0  0  0  0  0  0  0  0  0  0  0  0
   21.5870  -13.3169  -15.8037 C   0  0  0  0  0  0  0  0  0  0  0  0
   20.3406  -12.9614  -16.6229 C   0  0  0  0  0  0  0  0  0  0  0  0
   20.9011  -11.8022  -17.4566 C   0  0  0  0  0  0  0  0  0  0  0  0
   21.7030  -11.0674  -16.3950 C   0  0  1  0  0  0  0  0  0  0  0  0
   20.8234  -10.0029  -15.8567 C   0  0  0  0  0  0  0  0  0  0  0  0
   20.5442   -9.0303  -16.5991 O   0  0  0  0  0  0  0  0  0  0  0  0
   17.1427   -7.6551   -9.4329 N   0  0  0  0  0  0  0  0  0  0  0  0
   15.8601   -7.5520  -10.0508 C   0  0  0  0  0  0  0  0  0  0  0  0
   15.0163   -6.6242   -9.6871 N   0  0  0  0  0  0  0  0  0  0  0  0
   15.5527   -8.5026  -11.0722 N   0  0  0  0  0  0  0  0  0  0  0  0
   16.6254   -9.3477  -11.5451 C   0  0  0  0  0  0  0  0  0  0  0  0
   17.4516   -8.6172  -12.5961 C   0  0  0  0  0  0  0  0  0  0  0  0
   18.4325   -9.5952  -13.1573 C   0  0  0  0  0  0  0  0  0  0  0  0
   19.3962   -8.9690  -14.1365 C   0  0  2  0  0  0  0  0  0  0  0  0
   20.2862  -10.0295  -14.5544 N   0  0  0  0  0  0  0  0  0  0  0  0
   20.1259   -7.8045  -13.6170 C   0  0  0  0  0  0  0  0  0  0  0  0
   20.9053   -7.9004  -12.6427 O   0  0  0  0  0  0  0  0  0  0  0  0
   14.1062   -6.5082  -10.1765 N   0  0  0  0  0  0  0  0  0  0  0  0
   22.2143   -3.0607  -13.2314 C   0  0  0  0  0  0  0  0  0  0  0  0
   22.3421   -3.6664  -14.5337 O   0  0  0  0  0  0  0  0  0  0  0  0
   23.0646   -3.1482  -15.4144 C   0  0  0  0  0  0  0  0  0  0  0  0
   21.6049   -4.9081  -14.8067 C   0  0  1  0  0  0  0  0  0  0  0  0
   20.7487   -5.3874  -13.6657 N   0  0  0  0  0  0  0  0  0  0  0  0
   19.9767   -6.5190  -14.2000 C   0  0  0  0  0  0  0  0  0  0  0  0
   19.7363   -4.3676  -13.2992 O   0  0  0  0  0  0  0  0  0  0  0  0
   20.0611   -3.3569  -12.6177 O   0  0  0  0  0  0  0  0  0  0  0  0
  1  5  1  0
  1  2  1  0
  2  3  1  0
  4  3  1  0
  5  4  1  0
  6  7  2  0
  5  6  1  1
  8  9  1  0
  9 10  2  0
 11 12  1  0
 11  9  1  0
 13 12  1  0
 13 14  1  0
 15 14  1  1
 15 16  1  0
 16  6  1  0
 17 15  1  0
 18 17  2  0
 19 20  1  0
 20 21  2  0
 23 22  1  1
 22 20  1  0
 23 24  1  0
 24 17  1  0
 25 27  1  0
 25 23  1  0
 26 25  2  0
M  END
$$$$
