PRN.pdb
     RDKit          3D

 27 27  0  0  1  0  0  0  0  0999 V2000
   24.6559  -20.2051  -17.6758 N   0  0  0  0  0  0  0  0  0  0  0  0
   24.7573  -19.8431  -19.0753 C   0  0  0  0  0  0  0  0  0  0  0  0
   23.4310  -19.1007  -19.2775 C   0  0  0  0  0  0  0  0  0  0  0  0
   23.4543  -18.1892  -18.0440 C   0  0  0  0  0  0  0  0  0  0  0  0
   23.9604  -19.1654  -16.9947 C   0  0  1  0  0  0  0  0  0  0  0  0
   22.7648  -19.7255  -16.3214 C   0  0  0  0  0  0  0  0  0  0  0  0
   22.3086  -20.8199  -16.7330 O   0  0  0  0  0  0  0  0  0  0  0  0
   19.5962  -22.3210   -8.9641 N   0  0  0  0  0  0  0  0  0  0  0  0
   19.2375  -21.2051   -9.7788 C   0  0  0  0  0  0  0  0  0  0  0  0
   18.0445  -21.1167  -10.3023 N   0  0  0  0  0  0  0  0  0  0  0  0
   20.2368  -20.2057   -9.9883 N   0  0  0  0  0  0  0  0  0  0  0  0
   19.9649  -19.1829  -10.9724 C   0  0  0  0  0  0  0  0  0  0  0  0
   19.8695  -19.7975  -12.3631 C   0  0  0  0  0  0  0  0  0  0  0  0
   21.0402  -19.3080  -13.1528 C   0  0  0  0  0  0  0  0  0  0  0  0
   21.0100  -19.7578  -14.5938 C   0  0  2  0  0  0  0  0  0  0  0  0
   22.1164  -19.0906  -15.2436 N   0  0  0  0  0  0  0  0  0  0  0  0
   19.7350  -19.5176  -15.2831 C   0  0  0  0  0  0  0  0  0  0  0  0
   19.4238  -18.3831  -15.7097 O   0  0  0  0  0  0  0  0  0  0  0  0
   17.8124  -20.3614  -10.9784 N   0  0  0  0  0  0  0  0  0  0  0  0
   18.1250  -21.0813  -18.7644 C   0  0  0  0  0  0  0  0  0  0  0  0
   17.3789  -22.0137  -17.9563 O   0  0  0  0  0  0  0  0  0  0  0  0
   17.0732  -23.1441  -18.3978 C   0  0  0  0  0  0  0  0  0  0  0  0
   16.9836  -21.6088  -16.6000 C   0  0  2  0  0  0  0  0  0  0  0  0
   17.5256  -20.2737  -16.1661 N   0  0  0  0  0  0  0  0  0  0  0  0
   18.8007  -20.5650  -15.4942 C   0  0  0  0  0  0  0  0  0  0  0  0
   16.6667  -19.6688  -15.1193 O   0  0  0  0  0  0  0  0  0  0  0  0
   16.7433  -20.0589  -13.9220 O   0  0  0  0  0  0  0  0  0  0  0  0
  1  5  1  0
  1  2  1  0
  2  3  1  0
  4  3  1  0
  5  4  1  0
  6  7  2  0
  5  6  1  6
  8  9  1  0
  9 10  2  0
 11 12  1  0
 11  9  1  0
 13 12  1  0
 13 14  1  0
 15 14  1  1
 15 16  1  0
 16  6  1  0
 17 15  1  0
 18 17  2  0
 19 20  1  0
 20 21  2  0
 23 22  1  6
 22 20  1  0
 23 24  1  0
 24 17  1  0
 25 27  1  0
 25 23  1  0
 26 25  2  0
M  END
$$$$
