PRN.pdb
     RDKit          3D

 27 27  0  0  1  0  0  0  0  0999 V2000
   27.7610  -18.5806  -16.5201 N   0  0  0  0  0  0  0  0  0  0  0  0
   28.9076  -18.9392  -17.3304 C   0  0  0  0  0  0  0  0  0  0  0  0
   28.2149  -19.4463  -18.6009 C   0  0  0  0  0  0  0  0  0  0  0  0
   27.2033  -18.3131  -18.8136 C   0  0  0  0  0  0  0  0  0  0  0  0
   26.7392  -18.0915  -17.3834 C   0  0  1  0  0  0  0  0  0  0  0  0
   25.5090  -18.8983  -17.2043 C   0  0  0  0  0  0  0  0  0  0  0  0
   24.4981  -18.6005  -17.8859 O   0  0  0  0  0  0  0  0  0  0  0  0
   27.0377  -21.5145  -12.2654 N   0  0  0  0  0  0  0  0  0  0  0  0
   25.8832  -21.2231  -11.4781 C   0  0  0  0  0  0  0  0  0  0  0  0
   25.9801  -20.5067  -10.3906 N   0  0  0  0  0  0  0  0  0  0  0  0
   24.6356  -21.7482  -11.9352 N   0  0  0  0  0  0  0  0  0  0  0  0
   24.6504  -22.5713  -13.1230 C   0  0  0  0  0  0  0  0  0  0  0  0
   25.3317  -21.8349  -14.2695 C   0  0  0  0  0  0  0  0  0  0  0  0
   24.4578  -21.9711  -15.4743 C   0  0  0  0  0  0  0  0  0  0  0  0
   24.1475  -20.6475  -16.1311 C   0  0  2  0  0  0  0  0  0  0  0  0
   25.4189  -19.9816  -16.3078 N   0  0  0  0  0  0  0  0  0  0  0  0
   23.1812  -19.8146  -15.4025 C   0  0  0  0  0  0  0  0  0  0  0  0
   23.5483  -18.9927  -14.5332 O   0  0  0  0  0  0  0  0  0  0  0  0
   25.1390  -20.2829   -9.8216 N   0  0  0  0  0  0  0  0  0  0  0  0
   20.1229  -15.5313  -14.8744 C   0  0  0  0  0  0  0  0  0  0  0  0
   19.7187  -16.8331  -15.3445 O   0  0  0  0  0  0  0  0  0  0  0  0
   18.5099  -17.1548  -15.3830 C   0  0  0  0  0  0  0  0  0  0  0  0
   20.7578  -17.7774  -15.7789 C   0  0  1  0  0  0  0  0  0  0  0  0
   20.8607  -19.0203  -14.9368 N   0  0  0  0  0  0  0  0  0  0  0  0
   21.7876  -19.9077  -15.6548 C   0  0  0  0  0  0  0  0  0  0  0  0
   19.5698  -19.7499  -14.9104 O   0  0  0  0  0  0  0  0  0  0  0  0
   18.6650  -19.4238  -14.0939 O   0  0  0  0  0  0  0  0  0  0  0  0
  1  5  1  0
  1  2  1  0
  2  3  1  0
  4  3  1  0
  5  4  1  0
  6  7  2  0
  5  6  1  6
  8  9  1  0
  9 10  2  0
 11 12  1  0
 11  9  1  0
 13 12  1  0
 13 14  1  0
 15 14  1  1
 15 16  1  0
 16  6  1  0
 17 15  1  0
 18 17  2  0
 19 20  1  0
 20 21  2  0
 23 22  1  1
 22 20  1  0
 23 24  1  0
 24 17  1  0
 25 27  1  0
 25 23  1  0
 26 25  2  0
M  END
$$$$
