PRN.pdb
     RDKit          3D

 27 27  0  0  1  0  0  0  0  0999 V2000
   23.5776  -15.7854  -18.1213 N   0  0  0  0  0  0  0  0  0  0  0  0
   24.6264  -15.0567  -18.8062 C   0  0  0  0  0  0  0  0  0  0  0  0
   25.5347  -16.2092  -19.2507 C   0  0  0  0  0  0  0  0  0  0  0  0
   24.4812  -17.1572  -19.8374 C   0  0  0  0  0  0  0  0  0  0  0  0
   23.3870  -17.0282  -18.7904 C   0  0  1  0  0  0  0  0  0  0  0  0
   23.5794  -18.1428  -17.8327 C   0  0  0  0  0  0  0  0  0  0  0  0
   23.0742  -19.2580  -18.1090 O   0  0  0  0  0  0  0  0  0  0  0  0
   26.0786  -19.8764  -10.9984 N   0  0  0  0  0  0  0  0  0  0  0  0
   27.0166  -20.9230  -11.2480 C   0  0  0  0  0  0  0  0  0  0  0  0
   27.2321  -21.8531  -10.3571 N   0  0  0  0  0  0  0  0  0  0  0  0
   27.6968  -20.8999  -12.5042 N   0  0  0  0  0  0  0  0  0  0  0  0
   27.3571  -19.8437  -13.4302 C   0  0  0  0  0  0  0  0  0  0  0  0
   26.0251  -20.1406  -14.1073 C   0  0  0  0  0  0  0  0  0  0  0  0
   25.7540  -19.0324  -15.0728 C   0  0  0  0  0  0  0  0  0  0  0  0
   24.4060  -19.1495  -15.7426 C   0  0  2  0  0  0  0  0  0  0  0  0
   24.3005  -18.0120  -16.6294 N   0  0  0  0  0  0  0  0  0  0  0  0
   23.2686  -19.2389  -14.8170 C   0  0  0  0  0  0  0  0  0  0  0  0
   23.2201  -18.5553  -13.7699 O   0  0  0  0  0  0  0  0  0  0  0  0
   27.9520  -22.5868  -10.5142 N   0  0  0  0  0  0  0  0  0  0  0  0
   18.8319  -17.2661  -13.0311 C   0  0  0  0  0  0  0  0  0  0  0  0
   19.1277  -18.5583  -13.5984 O   0  0  0  0  0  0  0  0  0  0  0  0
   18.3252  -19.5110  -13.4779 C   0  0  0  0  0  0  0  0  0  0  0  0
   20.3942  -18.7346  -14.3228 C   0  0  1  0  0  0  0  0  0  0  0  0
   21.0157  -20.0963  -14.1678 N   0  0  0  0  0  0  0  0  0  0  0  0
   22.1747  -20.1064  -15.0725 C   0  0  0  0  0  0  0  0  0  0  0  0
   20.1122  -21.1523  -14.6855 O   0  0  0  0  0  0  0  0  0  0  0  0
   19.0670  -21.4689  -14.0539 O   0  0  0  0  0  0  0  0  0  0  0  0
  1  5  1  0
  1  2  1  0
  2  3  1  0
  4  3  1  0
  5  4  1  0
  6  7  2  0
  5  6  1  1
  8  9  1  0
  9 10  2  0
 11 12  1  0
 11  9  1  0
 13 12  1  0
 13 14  1  0
 15 14  1  1
 15 16  1  0
 16  6  1  0
 17 15  1  0
 18 17  2  0
 19 20  1  0
 20 21  2  0
 23 22  1  1
 22 20  1  0
 23 24  1  0
 24 17  1  0
 25 27  1  0
 25 23  1  0
 26 25  2  0
M  END
$$$$
