PRN.pdb
     RDKit          3D

 27 27  0  0  1  0  0  0  0  0999 V2000
   27.3465  -17.8627  -15.3006 N   0  0  0  0  0  0  0  0  0  0  0  0
   28.6567  -18.2662  -15.7701 C   0  0  0  0  0  0  0  0  0  0  0  0
   28.2737  -19.2497  -16.8823 C   0  0  0  0  0  0  0  0  0  0  0  0
   27.2064  -18.4189  -17.6058 C   0  0  0  0  0  0  0  0  0  0  0  0
   26.4601  -17.8398  -16.4152 C   0  0  1  0  0  0  0  0  0  0  0  0
   25.3104  -18.7380  -16.1544 C   0  0  0  0  0  0  0  0  0  0  0  0
   24.3969  -18.7991  -17.0128 O   0  0  0  0  0  0  0  0  0  0  0  0
   23.8914  -25.8246  -16.1510 N   0  0  0  0  0  0  0  0  0  0  0  0
   25.3029  -25.7147  -15.9688 C   0  0  0  0  0  0  0  0  0  0  0  0
   26.1289  -26.3628  -16.7453 N   0  0  0  0  0  0  0  0  0  0  0  0
   25.7574  -24.8717  -14.9086 N   0  0  0  0  0  0  0  0  0  0  0  0
   24.7659  -24.0996  -14.1950 C   0  0  0  0  0  0  0  0  0  0  0  0
   24.3325  -22.8976  -15.0246 C   0  0  0  0  0  0  0  0  0  0  0  0
   24.5926  -21.6715  -14.2106 C   0  0  0  0  0  0  0  0  0  0  0  0
   24.0598  -20.4129  -14.8521 C   0  0  2  0  0  0  0  0  0  0  0  0
   25.1931  -19.5254  -14.9919 N   0  0  0  0  0  0  0  0  0  0  0  0
   22.9467  -19.7821  -14.1300 C   0  0  0  0  0  0  0  0  0  0  0  0
   23.0947  -19.3093  -12.9808 O   0  0  0  0  0  0  0  0  0  0  0  0
   27.1574  -26.2887  -16.6114 N   0  0  0  0  0  0  0  0  0  0  0  0
   18.2342  -16.3563  -14.8398 C   0  0  0  0  0  0  0  0  0  0  0  0
   18.4996  -17.7191  -14.4506 O   0  0  0  0  0  0  0  0  0  0  0  0
   17.7332  -18.3236  -13.6675 C   0  0  0  0  0  0  0  0  0  0  0  0
   19.6914  -18.3858  -14.9937 C   0  0  1  0  0  0  0  0  0  0  0  0
   20.5740  -19.0252  -13.9560 N   0  0  0  0  0  0  0  0  0  0  0  0
   21.6538  -19.6823  -14.7072 C   0  0  0  0  0  0  0  0  0  0  0  0
   19.8622  -20.1251  -13.2610 O   0  0  0  0  0  0  0  0  0  0  0  0
   19.6865  -21.2368  -13.8309 O   0  0  0  0  0  0  0  0  0  0  0  0
  1  5  1  0
  1  2  1  0
  2  3  1  0
  4  3  1  0
  5  4  1  0
  6  7  2  0
  5  6  1  1
  8  9  1  0
  9 10  2  0
 11 12  1  0
 11  9  1  0
 13 12  1  0
 13 14  1  0
 15 14  1  1
 15 16  1  0
 16  6  1  0
 17 15  1  0
 18 17  2  0
 19 20  1  0
 20 21  2  0
 23 22  1  1
 22 20  1  0
 23 24  1  0
 24 17  1  0
 25 27  1  0
 25 23  1  0
 26 25  2  0
M  END
$$$$
