PRN.pdb
     RDKit          3D

 27 27  0  0  1  0  0  0  0  0999 V2000
   27.6700  -17.3333  -18.1506 N   0  0  0  0  0  0  0  0  0  0  0  0
   28.9666  -16.6915  -18.2327 C   0  0  0  0  0  0  0  0  0  0  0  0
   29.8445  -17.7231  -17.5144 C   0  0  0  0  0  0  0  0  0  0  0  0
   29.3591  -19.0028  -18.2070 C   0  0  0  0  0  0  0  0  0  0  0  0
   27.8621  -18.7417  -18.2411 C   0  0  1  0  0  0  0  0  0  0  0  0
   27.2870  -19.3997  -17.0441 C   0  0  0  0  0  0  0  0  0  0  0  0
   27.2392  -20.6536  -17.0201 O   0  0  0  0  0  0  0  0  0  0  0  0
   26.5112  -20.2161   -8.9532 N   0  0  0  0  0  0  0  0  0  0  0  0
   25.3876  -20.6894   -9.6956 C   0  0  0  0  0  0  0  0  0  0  0  0
   24.1774  -20.5809   -9.2172 N   0  0  0  0  0  0  0  0  0  0  0  0
   25.6525  -21.2790  -10.9698 N   0  0  0  0  0  0  0  0  0  0  0  0
   26.6897  -20.6832  -11.7807 C   0  0  0  0  0  0  0  0  0  0  0  0
   26.2181  -19.3511  -12.3497 C   0  0  0  0  0  0  0  0  0  0  0  0
   26.9725  -19.1106  -13.6173 C   0  0  0  0  0  0  0  0  0  0  0  0
   26.1610  -19.4137  -14.8539 C   0  0  2  0  0  0  0  0  0  0  0  0
   26.7922  -18.6875  -15.9336 N   0  0  0  0  0  0  0  0  0  0  0  0
   24.7298  -19.1025  -14.7379 C   0  0  0  0  0  0  0  0  0  0  0  0
   24.3270  -17.9355  -14.5333 O   0  0  0  0  0  0  0  0  0  0  0  0
   23.3577  -20.9302   -9.7533 N   0  0  0  0  0  0  0  0  0  0  0  0
   19.4334  -20.0609  -17.0060 C   0  0  0  0  0  0  0  0  0  0  0  0
   20.1433  -20.3300  -15.7801 O   0  0  0  0  0  0  0  0  0  0  0  0
   19.5283  -20.4615  -14.6981 C   0  0  0  0  0  0  0  0  0  0  0  0
   21.6075  -20.4472  -15.8269 C   0  0  1  0  0  0  0  0  0  0  0  0
   22.3231  -19.7645  -14.6927 N   0  0  0  0  0  0  0  0  0  0  0  0
   23.7420  -20.1151  -14.8534 C   0  0  0  0  0  0  0  0  0  0  0  0
   21.9261  -20.3485  -13.3886 O   0  0  0  0  0  0  0  0  0  0  0  0
   22.5439  -21.3416  -12.9156 O   0  0  0  0  0  0  0  0  0  0  0  0
  1  5  1  0
  1  2  1  0
  2  3  1  0
  4  3  1  0
  5  4  1  0
  6  7  2  0
  5  6  1  1
  8  9  1  0
  9 10  2  0
 11 12  1  0
 11  9  1  0
 13 12  1  0
 13 14  1  0
 15 14  1  1
 15 16  1  0
 16  6  1  0
 17 15  1  0
 18 17  2  0
 19 20  1  0
 20 21  2  0
 23 22  1  6
 22 20  1  0
 23 24  1  0
 24 17  1  0
 25 27  1  0
 25 23  1  0
 26 25  2  0
M  END
$$$$
