PRN.pdb
     RDKit          3D

 27 27  0  0  1  0  0  0  0  0999 V2000
   26.7874  -21.3350  -14.3905 N   0  0  0  0  0  0  0  0  0  0  0  0
   27.9720  -20.6385  -14.8505 C   0  0  0  0  0  0  0  0  0  0  0  0
   27.7716  -19.2665  -14.1960 C   0  0  0  0  0  0  0  0  0  0  0  0
   27.4079  -19.7094  -12.7732 C   0  0  0  0  0  0  0  0  0  0  0  0
   26.4769  -20.8709  -13.0803 C   0  0  1  0  0  0  0  0  0  0  0  0
   25.0975  -20.3290  -13.0589 C   0  0  0  0  0  0  0  0  0  0  0  0
   24.7040  -19.7452  -12.0200 O   0  0  0  0  0  0  0  0  0  0  0  0
   25.7793  -15.8561  -16.6925 N   0  0  0  0  0  0  0  0  0  0  0  0
   25.0870  -16.5404  -17.7366 C   0  0  0  0  0  0  0  0  0  0  0  0
   25.7219  -16.9515  -18.8011 N   0  0  0  0  0  0  0  0  0  0  0  0
   23.6847  -16.7485  -17.5586 N   0  0  0  0  0  0  0  0  0  0  0  0
   23.1812  -16.7951  -16.2048 C   0  0  0  0  0  0  0  0  0  0  0  0
   23.7898  -17.9723  -15.4533 C   0  0  0  0  0  0  0  0  0  0  0  0
   22.7199  -19.0027  -15.2885 C   0  0  0  0  0  0  0  0  0  0  0  0
   22.8942  -19.8411  -14.0450 C   0  0  2  0  0  0  0  0  0  0  0  0
   24.2079  -20.4372  -14.1462 N   0  0  0  0  0  0  0  0  0  0  0  0
   21.8438  -20.8460  -13.8324 C   0  0  0  0  0  0  0  0  0  0  0  0
   21.9291  -21.9964  -14.3174 O   0  0  0  0  0  0  0  0  0  0  0  0
   25.2085  -17.3823  -19.5962 N   0  0  0  0  0  0  0  0  0  0  0  0
   18.2872  -23.8831  -12.0621 C   0  0  0  0  0  0  0  0  0  0  0  0
   18.9458  -23.1303  -11.0234 O   0  0  0  0  0  0  0  0  0  0  0  0
   18.8255  -23.4550   -9.8209 C   0  0  0  0  0  0  0  0  0  0  0  0
   19.7635  -21.9707  -11.4065 C   0  0  2  0  0  0  0  0  0  0  0  0
   19.6698  -21.5963  -12.8611 N   0  0  0  0  0  0  0  0  0  0  0  0
   20.6855  -20.5531  -13.0661 C   0  0  0  0  0  0  0  0  0  0  0  0
   18.3742  -20.9374  -13.1554 O   0  0  0  0  0  0  0  0  0  0  0  0
   18.2280  -19.6981  -12.9702 O   0  0  0  0  0  0  0  0  0  0  0  0
  1  5  1  0
  1  2  1  0
  2  3  1  0
  4  3  1  0
  5  4  1  0
  6  7  2  0
  5  6  1  6
  8  9  1  0
  9 10  2  0
 11 12  1  0
 11  9  1  0
 13 12  1  0
 13 14  1  0
 15 14  1  6
 15 16  1  0
 16  6  1  0
 17 15  1  0
 18 17  2  0
 19 20  1  0
 20 21  2  0
 23 22  1  6
 22 20  1  0
 23 24  1  0
 24 17  1  0
 25 27  1  0
 25 23  1  0
 26 25  2  0
M  END
$$$$
