PRN.pdb
     RDKit          3D

 27 27  0  0  1  0  0  0  0  0999 V2000
   28.2561  -21.9856  -11.4133 N   0  0  0  0  0  0  0  0  0  0  0  0
   29.5493  -21.4142  -11.0951 C   0  0  0  0  0  0  0  0  0  0  0  0
   29.1370  -20.0163  -10.6189 C   0  0  0  0  0  0  0  0  0  0  0  0
   27.9923  -20.3934   -9.6702 C   0  0  0  0  0  0  0  0  0  0  0  0
   27.3002  -21.4674  -10.4934 C   0  0  1  0  0  0  0  0  0  0  0  0
   26.2077  -20.7968  -11.2372 C   0  0  0  0  0  0  0  0  0  0  0  0
   25.3440  -20.1638  -10.5826 O   0  0  0  0  0  0  0  0  0  0  0  0
   28.4649  -22.4260  -16.8368 N   0  0  0  0  0  0  0  0  0  0  0  0
   27.1934  -22.3194  -17.4767 C   0  0  0  0  0  0  0  0  0  0  0  0
   26.7135  -23.3109  -18.1779 N   0  0  0  0  0  0  0  0  0  0  0  0
   26.4844  -21.0898  -17.3123 N   0  0  0  0  0  0  0  0  0  0  0  0
   27.0757  -20.0850  -16.4584 C   0  0  0  0  0  0  0  0  0  0  0  0
   26.7836  -20.3939  -14.9955 C   0  0  0  0  0  0  0  0  0  0  0  0
   25.4038  -19.9022  -14.6985 C   0  0  0  0  0  0  0  0  0  0  0  0
   24.9761  -20.1677  -13.2751 C   0  0  2  0  0  0  0  0  0  0  0  0
   26.0914  -20.8350  -12.6409 N   0  0  0  0  0  0  0  0  0  0  0  0
   23.7264  -20.9289  -13.1436 C   0  0  0  0  0  0  0  0  0  0  0  0
   23.7162  -22.1802  -13.1578 O   0  0  0  0  0  0  0  0  0  0  0  0
   25.7622  -23.2592  -18.5948 N   0  0  0  0  0  0  0  0  0  0  0  0
   18.6777  -21.6917  -10.7975 C   0  0  0  0  0  0  0  0  0  0  0  0
   18.9596  -20.7998  -11.8950 O   0  0  0  0  0  0  0  0  0  0  0  0
   18.0708  -20.5012  -12.7237 C   0  0  0  0  0  0  0  0  0  0  0  0
   20.3155  -20.2471  -12.0210 C   0  0  1  0  0  0  0  0  0  0  0  0
   21.2507  -21.0771  -12.8584 N   0  0  0  0  0  0  0  0  0  0  0  0
   22.4755  -20.2750  -12.9947 C   0  0  0  0  0  0  0  0  0  0  0  0
   20.7318  -21.2277  -14.2395 O   0  0  0  0  0  0  0  0  0  0  0  0
   19.8644  -22.1038  -14.5071 O   0  0  0  0  0  0  0  0  0  0  0  0
  1  5  1  0
  1  2  1  0
  2  3  1  0
  4  3  1  0
  5  4  1  0
  6  7  2  0
  5  6  1  6
  8  9  1  0
  9 10  2  0
 11 12  1  0
 11  9  1  0
 13 12  1  0
 13 14  1  0
 15 14  1  6
 15 16  1  0
 16  6  1  0
 17 15  1  0
 18 17  2  0
 19 20  1  0
 20 21  2  0
 23 22  1  1
 22 20  1  0
 23 24  1  0
 24 17  1  0
 25 27  1  0
 25 23  1  0
 26 25  2  0
M  END
$$$$
