SPN.pdb
     RDKit          3D

 22 22  0  0  1  0  0  0  0  0999 V2000
   20.0277  -12.6638  -19.7283 O   0  0  0  0  0  0  0  0  0  0  0  0
   20.0802  -11.7496  -18.6793 C   0  0  0  0  0  0  0  0  0  0  0  0
   20.0846  -12.4517  -17.3436 C   0  0  2  0  0  0  0  0  0  0  0  0
   18.8208  -13.1179  -17.1687 N   0  0  0  0  0  0  0  0  0  0  0  0
   20.3752  -11.4784  -16.2612 C   0  0  0  0  0  0  0  0  0  0  0  0
   19.3421  -10.8833  -15.7811 O   0  0  0  0  0  0  0  0  0  0  0  0
   21.6681  -11.1967  -15.7666 N   0  0  0  0  0  0  0  0  0  0  0  0
   22.8766  -11.8878  -16.1367 C   0  0  0  0  0  0  0  0  0  0  0  0
   24.0095  -11.2999  -15.3462 C   0  0  0  0  0  0  0  0  0  0  0  0
   23.3127  -10.6700  -14.1618 C   0  0  0  0  0  0  0  0  0  0  0  0
   22.0129  -10.1842  -14.8178 C   0  0  1  0  0  0  0  0  0  0  0  0
   22.3235   -8.8783  -15.4606 C   0  0  0  0  0  0  0  0  0  0  0  0
   22.4584   -8.8024  -16.7020 O   0  0  0  0  0  0  0  0  0  0  0  0
   21.3305   -3.9538  -15.8823 N   0  0  0  0  0  0  0  0  0  0  0  0
   20.3770   -4.9905  -16.1050 C   0  0  0  0  0  0  0  0  0  0  0  0
   19.3173   -4.6852  -16.6748 O   0  0  0  0  0  0  0  0  0  0  0  0
   20.7008   -6.3578  -15.6491 C   0  0  0  0  0  0  0  0  0  0  0  0
   22.0668   -6.4107  -15.0550 C   0  0  2  0  0  0  0  0  0  0  0  0
   22.4615   -7.7427  -14.6549 N   0  0  0  0  0  0  0  0  0  0  0  0
   22.3132   -5.3899  -13.9894 C   0  0  0  0  0  0  0  0  0  0  0  0
   23.0904   -4.2766  -14.2287 O   0  0  0  0  0  0  0  0  0  0  0  0
   21.8223   -5.5030  -12.8379 O   0  0  0  0  0  0  0  0  0  0  0  0
  1  2  1  0
  2  3  1  0
  3  4  1  1
  5  3  1  0
  6  5  2  0
  7 11  1  0
  7  5  1  0
  8  7  1  0
  9 10  1  0
  9  8  1  0
 10 11  1  0
 11 12  1  6
 12 13  2  0
 12 19  1  0
 15 14  1  0
 15 17  1  0
 16 15  2  0
 18 17  1  1
 18 20  1  0
 19 18  1  0
 20 21  1  0
 22 20  2  0
M  END
$$$$
