SPN.pdb
     RDKit          3D

 22 22  0  0  1  0  0  0  0  0999 V2000
   20.8918  -11.1078  -18.4953 O   0  0  0  0  0  0  0  0  0  0  0  0
   19.6437  -11.6462  -18.1931 C   0  0  0  0  0  0  0  0  0  0  0  0
   19.5878  -12.1245  -16.7631 C   0  0  2  0  0  0  0  0  0  0  0  0
   18.3102  -12.7467  -16.5345 N   0  0  0  0  0  0  0  0  0  0  0  0
   19.8478  -10.9914  -15.8400 C   0  0  0  0  0  0  0  0  0  0  0  0
   18.8456  -10.2086  -15.6534 O   0  0  0  0  0  0  0  0  0  0  0  0
   21.0823  -10.7535  -15.1958 N   0  0  0  0  0  0  0  0  0  0  0  0
   22.2430  -11.6036  -15.2669 C   0  0  0  0  0  0  0  0  0  0  0  0
   23.3139  -11.0021  -14.4036 C   0  0  0  0  0  0  0  0  0  0  0  0
   22.5352  -10.1271  -13.4481 C   0  0  0  0  0  0  0  0  0  0  0  0
   21.4049   -9.6365  -14.3635 C   0  0  1  0  0  0  0  0  0  0  0  0
   21.9511   -8.4864  -15.1341 C   0  0  0  0  0  0  0  0  0  0  0  0
   22.1215   -8.5789  -16.3700 O   0  0  0  0  0  0  0  0  0  0  0  0
   21.5732   -3.5361  -16.0175 N   0  0  0  0  0  0  0  0  0  0  0  0
   20.4870   -4.4558  -16.1062 C   0  0  0  0  0  0  0  0  0  0  0  0
   19.4415   -4.0614  -16.6467 O   0  0  0  0  0  0  0  0  0  0  0  0
   20.6653   -5.8146  -15.5546 C   0  0  0  0  0  0  0  0  0  0  0  0
   22.0289   -5.9788  -14.9756 C   0  0  2  0  0  0  0  0  0  0  0  0
   22.2691   -7.3056  -14.4541 N   0  0  0  0  0  0  0  0  0  0  0  0
   22.4229   -4.9003  -14.0163 C   0  0  0  0  0  0  0  0  0  0  0  0
   21.9939   -4.9139  -12.7062 O   0  0  0  0  0  0  0  0  0  0  0  0
   23.1596   -3.9427  -14.3628 O   0  0  0  0  0  0  0  0  0  0  0  0
  1  2  1  0
  2  3  1  0
  3  4  1  1
  5  3  1  0
  6  5  2  0
  7 11  1  0
  7  5  1  0
  8  7  1  0
  9 10  1  0
  9  8  1  0
 10 11  1  0
 11 12  1  6
 12 13  2  0
 12 19  1  0
 15 14  1  0
 15 17  1  0
 16 15  2  0
 18 17  1  1
 18 20  1  0
 19 18  1  0
 20 21  1  0
 22 20  2  0
M  END
$$$$
