SPN.pdb
     RDKit          3D

 22 22  0  0  1  0  0  0  0  0999 V2000
   19.3887   -9.1078  -17.4751 O   0  0  0  0  0  0  0  0  0  0  0  0
   19.2061   -9.0131  -16.0979 C   0  0  0  0  0  0  0  0  0  0  0  0
   20.5293   -8.9496  -15.3754 C   0  0  2  0  0  0  0  0  0  0  0  0
   21.1867  -10.2235  -15.5042 N   0  0  0  0  0  0  0  0  0  0  0  0
   20.3149   -8.5547  -13.9605 C   0  0  0  0  0  0  0  0  0  0  0  0
   20.0569   -9.5292  -13.1632 O   0  0  0  0  0  0  0  0  0  0  0  0
   20.3797   -7.2266  -13.4837 N   0  0  0  0  0  0  0  0  0  0  0  0
   20.6615   -6.0615  -14.2825 C   0  0  0  0  0  0  0  0  0  0  0  0
   20.6765   -4.8667  -13.3735 C   0  0  0  0  0  0  0  0  0  0  0  0
   20.9426   -5.4715  -12.0139 C   0  0  0  0  0  0  0  0  0  0  0  0
   20.1791   -6.7976  -12.1346 C   0  0  1  0  0  0  0  0  0  0  0  0
   18.7528   -6.4955  -11.8353 C   0  0  0  0  0  0  0  0  0  0  0  0
   17.9948   -6.0732  -12.7364 O   0  0  0  0  0  0  0  0  0  0  0  0
   14.6698   -7.1493   -7.6490 N   0  0  0  0  0  0  0  0  0  0  0  0
   15.0728   -7.7206   -8.8919 C   0  0  0  0  0  0  0  0  0  0  0  0
   14.1833   -8.1530   -9.6419 O   0  0  0  0  0  0  0  0  0  0  0  0
   16.5137   -7.7653   -9.2144 C   0  0  0  0  0  0  0  0  0  0  0  0
   16.8786   -6.6814  -10.1703 C   0  0  2  0  0  0  0  0  0  0  0  0
   18.2778   -6.6914  -10.5338 N   0  0  0  0  0  0  0  0  0  0  0  0
   16.3939   -5.3229   -9.7729 C   0  0  0  0  0  0  0  0  0  0  0  0
   15.0669   -4.9703   -9.8969 O   0  0  0  0  0  0  0  0  0  0  0  0
   17.1722   -4.4516   -9.3094 O   0  0  0  0  0  0  0  0  0  0  0  0
  1  2  1  0
  2  3  1  0
  3  4  1  1
  5  3  1  0
  6  5  2  0
  7 11  1  0
  7  5  1  0
  8  7  1  0
  9 10  1  0
  9  8  1  0
 10 11  1  0
 11 12  1  6
 12 13  2  0
 12 19  1  0
 15 14  1  0
 15 17  1  0
 16 15  2  0
 18 17  1  1
 18 20  1  0
 19 18  1  0
 20 21  1  0
 22 20  2  0
M  END
$$$$
