SPN.pdb
     RDKit          3D

 22 22  0  0  1  0  0  0  0  0999 V2000
   25.9640  -16.2305  -16.9943 O   0  0  0  0  0  0  0  0  0  0  0  0
   27.2409  -16.7124  -16.7176 C   0  0  0  0  0  0  0  0  0  0  0  0
   27.6060  -17.8501  -17.6391 C   0  0  2  0  0  0  0  0  0  0  0  0
   27.4212  -17.4189  -18.9998 N   0  0  0  0  0  0  0  0  0  0  0  0
   26.8014  -19.0515  -17.3033 C   0  0  0  0  0  0  0  0  0  0  0  0
   25.7575  -19.2213  -18.0336 O   0  0  0  0  0  0  0  0  0  0  0  0
   27.1196  -19.9629  -16.2719 N   0  0  0  0  0  0  0  0  0  0  0  0
   28.2311  -19.8462  -15.3631 C   0  0  0  0  0  0  0  0  0  0  0  0
   28.2226  -21.0465  -14.4613 C   0  0  0  0  0  0  0  0  0  0  0  0
   27.4305  -22.0643  -15.2497 C   0  0  0  0  0  0  0  0  0  0  0  0
   26.4048  -21.1566  -15.9425 C   0  0  1  0  0  0  0  0  0  0  0  0
   25.3146  -20.9184  -14.9578 C   0  0  0  0  0  0  0  0  0  0  0  0
   25.5032  -20.1641  -13.9777 O   0  0  0  0  0  0  0  0  0  0  0  0
   21.2818  -19.6292  -12.1891 N   0  0  0  0  0  0  0  0  0  0  0  0
   21.3212  -19.5402  -13.6118 C   0  0  0  0  0  0  0  0  0  0  0  0
   20.2655  -19.2576  -14.2003 O   0  0  0  0  0  0  0  0  0  0  0  0
   22.6050  -19.7873  -14.2996 C   0  0  0  0  0  0  0  0  0  0  0  0
   22.8885  -21.2480  -14.3879 C   0  0  2  0  0  0  0  0  0  0  0  0
   24.0809  -21.5508  -15.1472 N   0  0  0  0  0  0  0  0  0  0  0  0
   21.7139  -22.0778  -14.8005 C   0  0  0  0  0  0  0  0  0  0  0  0
   20.8346  -22.5890  -13.8697 O   0  0  0  0  0  0  0  0  0  0  0  0
   21.4797  -22.3402  -16.0071 O   0  0  0  0  0  0  0  0  0  0  0  0
  1  2  1  0
  2  3  1  0
  3  4  1  6
  5  3  1  0
  6  5  2  0
  7 11  1  0
  7  5  1  0
  8  7  1  0
  9 10  1  0
  9  8  1  0
 10 11  1  0
 11 12  1  1
 12 13  2  0
 12 19  1  0
 15 14  1  0
 15 17  1  0
 16 15  2  0
 18 17  1  6
 18 20  1  0
 19 18  1  0
 20 21  1  0
 22 20  2  0
M  END
$$$$
