SPN.pdb
     RDKit          3D

 22 22  0  0  1  0  0  0  0  0999 V2000
   17.1188  -11.5903  -15.1756 O   0  0  0  0  0  0  0  0  0  0  0  0
   17.0386  -11.8372  -16.5437 C   0  0  0  0  0  0  0  0  0  0  0  0
   18.3251  -12.4261  -17.0681 C   0  0  2  0  0  0  0  0  0  0  0  0
   18.5921  -13.6522  -16.3631 N   0  0  0  0  0  0  0  0  0  0  0  0
   19.4246  -11.4373  -16.9370 C   0  0  0  0  0  0  0  0  0  0  0  0
   20.1885  -11.6141  -15.9185 O   0  0  0  0  0  0  0  0  0  0  0  0
   19.6512  -10.3714  -17.8358 N   0  0  0  0  0  0  0  0  0  0  0  0
   18.7843   -9.9911  -18.9215 C   0  0  0  0  0  0  0  0  0  0  0  0
   19.4226   -8.8414  -19.6458 C   0  0  0  0  0  0  0  0  0  0  0  0
   20.8828   -8.9694  -19.2764 C   0  0  0  0  0  0  0  0  0  0  0  0
   20.7707   -9.4818  -17.8339 C   0  0  1  0  0  0  0  0  0  0  0  0
   20.5516   -8.2868  -16.9742 C   0  0  0  0  0  0  0  0  0  0  0  0
   19.3903   -7.9171  -16.6917 O   0  0  0  0  0  0  0  0  0  0  0  0
   22.2216   -5.3985  -12.4781 N   0  0  0  0  0  0  0  0  0  0  0  0
   22.7132   -5.2019  -13.8022 C   0  0  0  0  0  0  0  0  0  0  0  0
   23.0346   -4.0491  -14.1316 O   0  0  0  0  0  0  0  0  0  0  0  0
   22.8116   -6.3710  -14.6998 C   0  0  0  0  0  0  0  0  0  0  0  0
   21.5875   -6.5008  -15.5403 C   0  0  2  0  0  0  0  0  0  0  0  0
   21.6629   -7.5877  -16.4905 N   0  0  0  0  0  0  0  0  0  0  0  0
   21.1310   -5.2191  -16.1627 C   0  0  0  0  0  0  0  0  0  0  0  0
   20.2552   -4.3773  -15.5108 O   0  0  0  0  0  0  0  0  0  0  0  0
   21.5270   -4.8571  -17.2993 O   0  0  0  0  0  0  0  0  0  0  0  0
  1  2  1  0
  2  3  1  0
  3  4  1  1
  5  3  1  0
  6  5  2  0
  7 11  1  0
  7  5  1  0
  8  7  1  0
  9 10  1  0
  9  8  1  0
 10 11  1  0
 11 12  1  1
 12 13  2  0
 12 19  1  0
 15 14  1  0
 15 17  1  0
 16 15  2  0
 18 17  1  6
 18 20  1  0
 19 18  1  0
 20 21  1  0
 22 20  2  0
M  END
$$$$
