SPN.pdb
     RDKit          3D

 22 22  0  0  1  0  0  0  0  0999 V2000
   18.5374  -11.8223  -18.7372 O   0  0  0  0  0  0  0  0  0  0  0  0
   18.6003  -10.7238  -17.8838 C   0  0  0  0  0  0  0  0  0  0  0  0
   18.6388  -11.1571  -16.4390 C   0  0  2  0  0  0  0  0  0  0  0  0
   17.3472  -11.6811  -16.0801 N   0  0  0  0  0  0  0  0  0  0  0  0
   19.0557  -10.0200  -15.5806 C   0  0  0  0  0  0  0  0  0  0  0  0
   18.0865   -9.3401  -15.0801 O   0  0  0  0  0  0  0  0  0  0  0  0
   20.3983   -9.6757  -15.3079 N   0  0  0  0  0  0  0  0  0  0  0  0
   21.5590  -10.3041  -15.8850 C   0  0  0  0  0  0  0  0  0  0  0  0
   22.7793   -9.6631  -15.2900 C   0  0  0  0  0  0  0  0  0  0  0  0
   22.2630   -9.0730  -13.9975 C   0  0  0  0  0  0  0  0  0  0  0  0
   20.8488   -8.6506  -14.4188 C   0  0  1  0  0  0  0  0  0  0  0  0
   20.9823   -7.3285  -15.0892 C   0  0  0  0  0  0  0  0  0  0  0  0
   21.4445   -7.2531  -16.2492 O   0  0  0  0  0  0  0  0  0  0  0  0
   17.1402   -4.6553  -14.0205 N   0  0  0  0  0  0  0  0  0  0  0  0
   18.2094   -4.6041  -14.9628 C   0  0  0  0  0  0  0  0  0  0  0  0
   18.0065   -5.0823  -16.0900 O   0  0  0  0  0  0  0  0  0  0  0  0
   19.4873   -3.9900  -14.5481 C   0  0  0  0  0  0  0  0  0  0  0  0
   20.6422   -4.8416  -14.9516 C   0  0  2  0  0  0  0  0  0  0  0  0
   20.5834   -6.1772  -14.4013 N   0  0  0  0  0  0  0  0  0  0  0  0
   21.9781   -4.1956  -14.7605 C   0  0  0  0  0  0  0  0  0  0  0  0
   22.9186   -4.7319  -13.9070 O   0  0  0  0  0  0  0  0  0  0  0  0
   22.2979   -3.1434  -15.3690 O   0  0  0  0  0  0  0  0  0  0  0  0
  1  2  1  0
  2  3  1  0
  3  4  1  1
  5  3  1  0
  6  5  2  0
  7 11  1  0
  7  5  1  0
  8  7  1  0
  9 10  1  0
  9  8  1  0
 10 11  1  0
 11 12  1  6
 12 13  2  0
 12 19  1  0
 15 14  1  0
 15 17  1  0
 16 15  2  0
 18 17  1  1
 18 20  1  0
 19 18  1  0
 20 21  1  0
 22 20  2  0
M  END
$$$$
