SPN.pdb
     RDKit          3D

 22 22  0  0  1  0  0  0  0  0999 V2000
   24.0975  -12.7957  -20.7690 O   0  0  0  0  0  0  0  0  0  0  0  0
   23.8178  -12.0164  -19.6494 C   0  0  0  0  0  0  0  0  0  0  0  0
   24.2429  -12.7127  -18.3800 C   0  0  2  0  0  0  0  0  0  0  0  0
   23.5196  -13.9522  -18.2695 N   0  0  0  0  0  0  0  0  0  0  0  0
   24.0288  -11.8173  -17.2156 C   0  0  0  0  0  0  0  0  0  0  0  0
   22.8541  -11.8799  -16.6976 O   0  0  0  0  0  0  0  0  0  0  0  0
   25.0089  -10.9492  -16.6851 N   0  0  0  0  0  0  0  0  0  0  0  0
   26.3729  -10.8484  -17.1368 C   0  0  0  0  0  0  0  0  0  0  0  0
   27.0755   -9.8403  -16.2741 C   0  0  0  0  0  0  0  0  0  0  0  0
   26.2304   -9.8107  -15.0210 C   0  0  0  0  0  0  0  0  0  0  0  0
   24.8300  -10.0196  -15.6135 C   0  0  1  0  0  0  0  0  0  0  0  0
   24.3641   -8.6864  -16.0831 C   0  0  0  0  0  0  0  0  0  0  0  0
   24.6973   -8.2634  -17.2123 O   0  0  0  0  0  0  0  0  0  0  0  0
   20.1261   -5.2479  -16.5448 N   0  0  0  0  0  0  0  0  0  0  0  0
   20.9540   -5.2233  -15.3839 C   0  0  0  0  0  0  0  0  0  0  0  0
   21.0984   -4.1360  -14.8029 O   0  0  0  0  0  0  0  0  0  0  0  0
   21.5879   -6.4822  -14.9417 C   0  0  0  0  0  0  0  0  0  0  0  0
   22.8810   -6.7036  -15.6492 C   0  0  2  0  0  0  0  0  0  0  0  0
   23.5507   -7.9186  -15.2425 N   0  0  0  0  0  0  0  0  0  0  0  0
   23.7903   -5.5155  -15.6531 C   0  0  0  0  0  0  0  0  0  0  0  0
   23.7473   -4.5828  -16.6674 O   0  0  0  0  0  0  0  0  0  0  0  0
   24.6257   -5.3180  -14.7349 O   0  0  0  0  0  0  0  0  0  0  0  0
  1  2  1  0
  2  3  1  0
  3  4  1  1
  5  3  1  0
  6  5  2  0
  7 11  1  0
  7  5  1  0
  8  7  1  0
  9 10  1  0
  9  8  1  0
 10 11  1  0
 11 12  1  6
 12 13  2  0
 12 19  1  0
 15 14  1  0
 15 17  1  0
 16 15  2  0
 18 17  1  1
 18 20  1  0
 19 18  1  0
 20 21  1  0
 22 20  2  0
M  END
$$$$
