SPN.pdb
     RDKit          3D

 22 22  0  0  1  0  0  0  0  0999 V2000
   17.7634  -13.0608  -16.5289 O   0  0  0  0  0  0  0  0  0  0  0  0
   18.7532  -12.0971  -16.3537 C   0  0  0  0  0  0  0  0  0  0  0  0
   20.0665  -12.5509  -16.9420 C   0  0  2  0  0  0  0  0  0  0  0  0
   20.4284  -13.8099  -16.3458 N   0  0  0  0  0  0  0  0  0  0  0  0
   21.0992  -11.5033  -16.7426 C   0  0  0  0  0  0  0  0  0  0  0  0
   21.5944  -11.4546  -15.5575 O   0  0  0  0  0  0  0  0  0  0  0  0
   21.5339  -10.6094  -17.7464 N   0  0  0  0  0  0  0  0  0  0  0  0
   21.0603  -10.5809  -19.1065 C   0  0  0  0  0  0  0  0  0  0  0  0
   21.8152   -9.5101  -19.8397 C   0  0  0  0  0  0  0  0  0  0  0  0
   23.0686   -9.3434  -19.0112 C   0  0  0  0  0  0  0  0  0  0  0  0
   22.5136   -9.5783  -17.5995 C   0  0  1  0  0  0  0  0  0  0  0  0
   21.9236   -8.2864  -17.1544 C   0  0  0  0  0  0  0  0  0  0  0  0
   20.7316   -8.0131  -17.4180 O   0  0  0  0  0  0  0  0  0  0  0  0
   20.6714   -5.0565  -13.0260 N   0  0  0  0  0  0  0  0  0  0  0  0
   21.9469   -4.9988  -13.6611 C   0  0  0  0  0  0  0  0  0  0  0  0
   22.5495   -3.9138  -13.6447 O   0  0  0  0  0  0  0  0  0  0  0  0
   22.4750   -6.2229  -14.2974 C   0  0  0  0  0  0  0  0  0  0  0  0
   22.2190   -6.2120  -15.7658 C   0  0  2  0  0  0  0  0  0  0  0  0
   22.7228   -7.3877  -16.4395 N   0  0  0  0  0  0  0  0  0  0  0  0
   22.6135   -4.9405  -16.4485 C   0  0  0  0  0  0  0  0  0  0  0  0
   21.7518   -3.8666  -16.5181 O   0  0  0  0  0  0  0  0  0  0  0  0
   23.7423   -4.7984  -16.9826 O   0  0  0  0  0  0  0  0  0  0  0  0
  1  2  1  0
  2  3  1  0
  3  4  1  1
  5  3  1  0
  6  5  2  0
  7 11  1  0
  7  5  1  0
  8  7  1  0
  9 10  1  0
  9  8  1  0
 10 11  1  0
 11 12  1  6
 12 13  2  0
 12 19  1  0
 15 14  1  0
 15 17  1  0
 16 15  2  0
 18 17  1  1
 18 20  1  0
 19 18  1  0
 20 21  1  0
 22 20  2  0
M  END
$$$$
