SPN.pdb
     RDKit          3D

 22 22  0  0  1  0  0  0  0  0999 V2000
   35.2303  -25.6397  -20.5403 O   0  0  0  0  0  0  0  0  0  0  0  0
   34.1287  -26.2700  -19.9674 C   0  0  0  0  0  0  0  0  0  0  0  0
   34.4735  -26.8515  -18.6184 C   0  0  2  0  0  0  0  0  0  0  0  0
   35.3073  -28.0082  -18.8143 N   0  0  0  0  0  0  0  0  0  0  0  0
   33.2305  -27.1603  -17.8678 C   0  0  0  0  0  0  0  0  0  0  0  0
   32.8086  -28.3673  -17.9990 O   0  0  0  0  0  0  0  0  0  0  0  0
   32.5335  -26.2331  -17.0615 N   0  0  0  0  0  0  0  0  0  0  0  0
   32.8868  -24.8486  -16.8789 C   0  0  0  0  0  0  0  0  0  0  0  0
   31.9100  -24.2427  -15.9131 C   0  0  0  0  0  0  0  0  0  0  0  0
   31.3726  -25.4432  -15.1679 C   0  0  0  0  0  0  0  0  0  0  0  0
   31.3608  -26.4944  -16.2863 C   0  0  1  0  0  0  0  0  0  0  0  0
   30.1054  -26.2812  -17.0567 C   0  0  0  0  0  0  0  0  0  0  0  0
   30.0652  -25.4331  -17.9755 O   0  0  0  0  0  0  0  0  0  0  0  0
   25.4156  -28.8190  -16.0927 N   0  0  0  0  0  0  0  0  0  0  0  0
   26.7617  -29.0454  -16.5057 C   0  0  0  0  0  0  0  0  0  0  0  0
   27.4734  -29.7596  -15.7818 O   0  0  0  0  0  0  0  0  0  0  0  0
   27.2295  -28.4227  -17.7610 C   0  0  0  0  0  0  0  0  0  0  0  0
   27.7557  -27.0509  -17.5102 C   0  0  2  0  0  0  0  0  0  0  0  0
   28.9764  -27.0429  -16.7358 N   0  0  0  0  0  0  0  0  0  0  0  0
   26.7356  -26.0870  -16.9918 C   0  0  0  0  0  0  0  0  0  0  0  0
   25.6763  -25.6751  -17.7722 O   0  0  0  0  0  0  0  0  0  0  0  0
   26.8003  -25.6166  -15.8281 O   0  0  0  0  0  0  0  0  0  0  0  0
  1  2  1  0
  2  3  1  0
  3  4  1  6
  5  3  1  0
  6  5  2  0
  7 11  1  0
  7  5  1  0
  8  7  1  0
  9 10  1  0
  9  8  1  0
 10 11  1  0
 11 12  1  6
 12 13  2  0
 12 19  1  0
 15 14  1  0
 15 17  1  0
 16 15  2  0
 18 17  1  1
 18 20  1  0
 19 18  1  0
 20 21  1  0
 22 20  2  0
M  END
$$$$
