SPN.pdb
     RDKit          3D

 22 22  0  0  1  0  0  0  0  0999 V2000
   32.3474  -32.5473  -20.7670 O   0  0  0  0  0  0  0  0  0  0  0  0
   31.9284  -31.4435  -20.0286 C   0  0  0  0  0  0  0  0  0  0  0  0
   32.3798  -31.5449  -18.5924 C   0  0  2  0  0  0  0  0  0  0  0  0
   31.7907  -32.7197  -18.0056 N   0  0  0  0  0  0  0  0  0  0  0  0
   32.0286  -30.3009  -17.8625 C   0  0  0  0  0  0  0  0  0  0  0  0
   31.0409  -30.4156  -17.0480 O   0  0  0  0  0  0  0  0  0  0  0  0
   32.6986  -29.0671  -18.0190 N   0  0  0  0  0  0  0  0  0  0  0  0
   33.8175  -28.8254  -18.8933 C   0  0  0  0  0  0  0  0  0  0  0  0
   34.2456  -27.3972  -18.7172 C   0  0  0  0  0  0  0  0  0  0  0  0
   33.7011  -27.0401  -17.3531 C   0  0  0  0  0  0  0  0  0  0  0  0
   32.3930  -27.8431  -17.3462 C   0  0  1  0  0  0  0  0  0  0  0  0
   31.3875  -27.0236  -18.0759 C   0  0  0  0  0  0  0  0  0  0  0  0
   31.1130  -27.2776  -19.2697 O   0  0  0  0  0  0  0  0  0  0  0  0
   26.4515  -26.9015  -17.9937 N   0  0  0  0  0  0  0  0  0  0  0  0
   27.1522  -26.7480  -16.7612 C   0  0  0  0  0  0  0  0  0  0  0  0
   26.4900  -26.4430  -15.7567 O   0  0  0  0  0  0  0  0  0  0  0  0
   28.6143  -26.9588  -16.7491 C   0  0  0  0  0  0  0  0  0  0  0  0
   29.3252  -25.7892  -17.3394 C   0  0  2  0  0  0  0  0  0  0  0  0
   30.7581  -25.9690  -17.4055 N   0  0  0  0  0  0  0  0  0  0  0  0
   28.9342  -24.4710  -16.7495 C   0  0  0  0  0  0  0  0  0  0  0  0
   29.4285  -24.0556  -15.5314 O   0  0  0  0  0  0  0  0  0  0  0  0
   28.1446  -23.6903  -17.3381 O   0  0  0  0  0  0  0  0  0  0  0  0
  1  2  1  0
  2  3  1  0
  3  4  1  1
  5  3  1  0
  6  5  2  0
  7 11  1  0
  7  5  1  0
  8  7  1  0
  9 10  1  0
  9  8  1  0
 10 11  1  0
 11 12  1  6
 12 13  2  0
 12 19  1  0
 15 14  1  0
 15 17  1  0
 16 15  2  0
 18 17  1  1
 18 20  1  0
 19 18  1  0
 20 21  1  0
 22 20  2  0
M  END
$$$$
