SPN.pdb
     RDKit          3D

 22 22  0  0  1  0  0  0  0  0999 V2000
   27.1938  -23.0004  -18.2443 O   0  0  0  0  0  0  0  0  0  0  0  0
   28.4268  -22.4863  -18.6372 C   0  0  0  0  0  0  0  0  0  0  0  0
   29.3329  -22.2742  -17.4494 C   0  0  2  0  0  0  0  0  0  0  0  0
   29.9252  -23.5358  -17.0901 N   0  0  0  0  0  0  0  0  0  0  0  0
   28.5697  -21.6600  -16.3340 C   0  0  0  0  0  0  0  0  0  0  0  0
   28.3383  -22.4457  -15.3436 O   0  0  0  0  0  0  0  0  0  0  0  0
   28.1140  -20.3229  -16.3195 N   0  0  0  0  0  0  0  0  0  0  0  0
   28.2048  -19.3940  -17.4167 C   0  0  0  0  0  0  0  0  0  0  0  0
   27.6436  -18.0785  -16.9601 C   0  0  0  0  0  0  0  0  0  0  0  0
   27.7579  -18.1589  -15.4549 C   0  0  0  0  0  0  0  0  0  0  0  0
   27.4847  -19.6517  -15.2250 C   0  0  1  0  0  0  0  0  0  0  0  0
   26.0058  -19.8180  -15.2247 C   0  0  0  0  0  0  0  0  0  0  0  0
   25.4266  -20.3155  -16.2157 O   0  0  0  0  0  0  0  0  0  0  0  0
   23.8865  -22.0446  -11.2274 N   0  0  0  0  0  0  0  0  0  0  0  0
   25.1710  -21.4764  -10.9807 C   0  0  0  0  0  0  0  0  0  0  0  0
   25.7755  -21.8416   -9.9599 O   0  0  0  0  0  0  0  0  0  0  0  0
   25.7056  -20.4935  -11.9452 C   0  0  0  0  0  0  0  0  0  0  0  0
   24.7705  -20.3105  -13.0915 C   0  0  2  0  0  0  0  0  0  0  0  0
   25.2786  -19.4094  -14.1014 N   0  0  0  0  0  0  0  0  0  0  0  0
   23.3631  -19.9973  -12.6921 C   0  0  0  0  0  0  0  0  0  0  0  0
   22.7039  -18.8950  -13.1931 O   0  0  0  0  0  0  0  0  0  0  0  0
   22.7255  -20.7239  -11.8889 O   0  0  0  0  0  0  0  0  0  0  0  0
  1  2  1  0
  2  3  1  0
  3  4  1  1
  5  3  1  0
  6  5  2  0
  7 11  1  0
  7  5  1  0
  8  7  1  0
  9 10  1  0
  9  8  1  0
 10 11  1  0
 11 12  1  6
 12 13  2  0
 12 19  1  0
 15 14  1  0
 15 17  1  0
 16 15  2  0
 18 17  1  1
 18 20  1  0
 19 18  1  0
 20 21  1  0
 22 20  2  0
M  END
$$$$
