SPN.pdb
     RDKit          3D

 22 22  0  0  1  0  0  0  0  0999 V2000
   15.6449  -12.3316  -16.4176 O   0  0  0  0  0  0  0  0  0  0  0  0
   16.8176  -11.6301  -16.1495 C   0  0  0  0  0  0  0  0  0  0  0  0
   18.0304  -12.3964  -16.6171 C   0  0  2  0  0  0  0  0  0  0  0  0
   18.0881  -13.6467  -15.9065 N   0  0  0  0  0  0  0  0  0  0  0  0
   19.2518  -11.5734  -16.4309 C   0  0  0  0  0  0  0  0  0  0  0  0
   19.7894  -11.6642  -15.2670 O   0  0  0  0  0  0  0  0  0  0  0  0
   19.8137  -10.7422  -17.4253 N   0  0  0  0  0  0  0  0  0  0  0  0
   19.2617  -10.5114  -18.7357 C   0  0  0  0  0  0  0  0  0  0  0  0
   20.1962   -9.6027  -19.4807 C   0  0  0  0  0  0  0  0  0  0  0  0
   21.5104   -9.7928  -18.7584 C   0  0  0  0  0  0  0  0  0  0  0  0
   21.0211   -9.9841  -17.3163 C   0  0  1  0  0  0  0  0  0  0  0  0
   20.7944   -8.6223  -16.7602 C   0  0  0  0  0  0  0  0  0  0  0  0
   19.6786   -8.0695  -16.8801 O   0  0  0  0  0  0  0  0  0  0  0  0
   21.7123   -5.1795  -12.4637 N   0  0  0  0  0  0  0  0  0  0  0  0
   22.5594   -5.2772  -13.6067 C   0  0  0  0  0  0  0  0  0  0  0  0
   23.1381   -4.2459  -13.9840 O   0  0  0  0  0  0  0  0  0  0  0  0
   22.6997   -6.5887  -14.2718 C   0  0  0  0  0  0  0  0  0  0  0  0
   21.7089   -6.7338  -15.3759 C   0  0  2  0  0  0  0  0  0  0  0  0
   21.8472   -7.9747  -16.1045 N   0  0  0  0  0  0  0  0  0  0  0  0
   21.6131   -5.5423  -16.2758 C   0  0  0  0  0  0  0  0  0  0  0  0
   22.3875   -5.4373  -17.4115 O   0  0  0  0  0  0  0  0  0  0  0  0
   20.8247   -4.5933  -16.0362 O   0  0  0  0  0  0  0  0  0  0  0  0
  1  2  1  0
  2  3  1  0
  3  4  1  1
  5  3  1  0
  6  5  2  0
  7 11  1  0
  7  5  1  0
  8  7  1  0
  9 10  1  0
  9  8  1  0
 10 11  1  0
 11 12  1  6
 12 13  2  0
 12 19  1  0
 15 14  1  0
 15 17  1  0
 16 15  2  0
 18 17  1  1
 18 20  1  0
 19 18  1  0
 20 21  1  0
 22 20  2  0
M  END
$$$$
