SPN.pdb
     RDKit          3D

 22 22  0  0  1  0  0  0  0  0999 V2000
   25.6949  -21.9792  -18.3324 O   0  0  0  0  0  0  0  0  0  0  0  0
   26.7282  -22.3121  -17.4603 C   0  0  0  0  0  0  0  0  0  0  0  0
   27.3777  -21.0765  -16.8873 C   0  0  2  0  0  0  0  0  0  0  0  0
   28.5441  -21.4719  -16.1424 N   0  0  0  0  0  0  0  0  0  0  0  0
   26.3976  -20.3254  -16.0633 C   0  0  0  0  0  0  0  0  0  0  0  0
   26.3936  -20.6357  -14.8160 O   0  0  0  0  0  0  0  0  0  0  0  0
   25.5198  -19.3400  -16.5672 N   0  0  0  0  0  0  0  0  0  0  0  0
   25.3869  -18.9639  -17.9513 C   0  0  0  0  0  0  0  0  0  0  0  0
   24.3794  -17.8541  -18.0373 C   0  0  0  0  0  0  0  0  0  0  0  0
   24.3847  -17.2751  -16.6409 C   0  0  0  0  0  0  0  0  0  0  0  0
   24.6103  -18.5425  -15.8049 C   0  0  1  0  0  0  0  0  0  0  0  0
   23.2788  -19.1877  -15.6435 C   0  0  0  0  0  0  0  0  0  0  0  0
   22.7938  -19.8739  -16.5703 O   0  0  0  0  0  0  0  0  0  0  0  0
   22.7832  -20.5066  -10.9871 N   0  0  0  0  0  0  0  0  0  0  0  0
   22.0840  -20.8297  -12.1873 C   0  0  0  0  0  0  0  0  0  0  0  0
   22.3551  -21.9082  -12.7387 O   0  0  0  0  0  0  0  0  0  0  0  0
   21.0850  -19.8712  -12.7025 C   0  0  0  0  0  0  0  0  0  0  0  0
   21.2980  -19.6100  -14.1545 C   0  0  2  0  0  0  0  0  0  0  0  0
   22.5830  -19.0133  -14.4422 N   0  0  0  0  0  0  0  0  0  0  0  0
   20.1659  -18.8956  -14.8226 C   0  0  0  0  0  0  0  0  0  0  0  0
   20.3494  -17.6725  -15.4317 O   0  0  0  0  0  0  0  0  0  0  0  0
   19.0065  -19.3796  -14.8583 O   0  0  0  0  0  0  0  0  0  0  0  0
  1  2  1  0
  2  3  1  0
  3  4  1  1
  5  3  1  0
  6  5  2  0
  7 11  1  0
  7  5  1  0
  8  7  1  0
  9 10  1  0
  9  8  1  0
 10 11  1  0
 11 12  1  6
 12 13  2  0
 12 19  1  0
 15 14  1  0
 15 17  1  0
 16 15  2  0
 18 17  1  1
 18 20  1  0
 19 18  1  0
 20 21  1  0
 22 20  2  0
M  END
$$$$
