VHK.pdb
     RDKit          3D

 27 27  0  0  1  0  0  0  0  0999 V2000
   20.2616  -11.3847  -22.0069 C   0  0  0  0  0  0  0  0  0  0  0  0
   19.8983  -10.6386  -20.7320 C   0  0  1  0  0  0  0  0  0  0  0  0
   19.2266  -11.5788  -19.7459 C   0  0  0  0  0  0  0  0  0  0  0  0
   21.1319  -10.0052  -20.1412 C   0  0  2  0  0  0  0  0  0  0  0  0
   22.2029  -10.9664  -19.9807 N   0  0  0  0  0  0  0  0  0  0  0  0
   20.7509   -9.3994  -18.8277 C   0  0  0  0  0  0  0  0  0  0  0  0
   19.8203   -8.5582  -18.7489 O   0  0  0  0  0  0  0  0  0  0  0  0
   21.4148   -9.7404  -17.6144 N   0  0  0  0  0  0  0  0  0  0  0  0
   21.0501   -9.1734  -16.3278 C   0  0  1  0  0  0  0  0  0  0  0  0
   20.8910  -10.2243  -15.2728 C   0  0  0  0  0  0  0  0  0  0  0  0
   19.7069  -11.0521  -15.5071 C   0  0  0  0  0  0  0  0  0  0  0  0
   18.4080  -10.6694  -15.1906 C   0  0  0  0  0  0  0  0  0  0  0  0
   17.5723  -11.6634  -15.5365 N   0  0  0  0  0  0  0  0  0  0  0  0
   18.3036  -12.6539  -16.0581 C   0  0  0  0  0  0  0  0  0  0  0  0
   19.5771  -12.2901  -16.0410 N   0  0  0  0  0  0  0  0  0  0  0  0
   21.9583   -8.0628  -15.9461 C   0  0  0  0  0  0  0  0  0  0  0  0
   23.1950   -8.2336  -15.9470 O   0  0  0  0  0  0  0  0  0  0  0  0
   21.4717   -6.7903  -15.5728 N   0  0  0  0  0  0  0  0  0  0  0  0
   22.2563   -5.6911  -15.1231 C   0  0  1  0  0  0  0  0  0  0  0  0
   22.1926   -4.5065  -16.0926 C   0  0  0  0  0  0  0  0  0  0  0  0
   20.8231   -3.8591  -16.0431 C   0  0  0  0  0  0  0  0  0  0  0  0
   20.7832   -2.7077  -17.0097 C   0  0  0  0  0  0  0  0  0  0  0  0
   19.4339   -2.0411  -17.0551 C   0  0  0  0  0  0  0  0  0  0  0  0
   19.3624   -1.0539  -18.0952 N   0  0  0  0  0  0  0  0  0  0  0  0
   21.9909   -5.2519  -13.7627 C   0  0  0  0  0  0  0  0  0  0  0  0
   21.0281   -5.7224  -13.1237 O   0  0  0  0  0  0  0  0  0  0  0  0
   22.7940   -4.3113  -13.1552 O   0  0  0  0  0  0  0  0  0  0  0  0
  2  1  1  6
  2  4  1  0
  2  3  1  0
  4  5  1  1
  6  4  1  0
  6  7  2  0
  8  6  1  0
  9  8  1  0
  9 10  1  1
 11 10  1  0
 11 15  1  0
 12 13  1  0
 12 11  2  0
 13 14  1  0
 14 15  2  0
 16  9  1  0
 17 16  2  0
 18 16  1  0
 19 18  1  0
 19 25  1  0
 19 20  1  6
 21 20  1  0
 21 22  1  0
 23 24  1  0
 23 22  1  0
 25 27  1  0
 26 25  2  0
M  END
$$$$
