VHK.pdb
     RDKit          3D

 27 27  0  0  1  0  0  0  0  0999 V2000
   25.5665  -25.9547  -22.0676 C   0  0  0  0  0  0  0  0  0  0  0  0
   25.2046  -25.5128  -23.4775 C   0  0  1  0  0  0  0  0  0  0  0  0
   24.0372  -26.3314  -24.0016 C   0  0  0  0  0  0  0  0  0  0  0  0
   24.8957  -24.0376  -23.4875 C   0  0  2  0  0  0  0  0  0  0  0  0
   26.0947  -23.2383  -23.3448 N   0  0  0  0  0  0  0  0  0  0  0  0
   23.9313  -23.7645  -22.3772 C   0  0  0  0  0  0  0  0  0  0  0  0
   22.8249  -24.3582  -22.3205 O   0  0  0  0  0  0  0  0  0  0  0  0
   24.2138  -22.8293  -21.3405 N   0  0  0  0  0  0  0  0  0  0  0  0
   23.3006  -22.5683  -20.2414 C   0  0  1  0  0  0  0  0  0  0  0  0
   23.9826  -21.8996  -19.0879 C   0  0  0  0  0  0  0  0  0  0  0  0
   23.9708  -20.4422  -19.2225 C   0  0  0  0  0  0  0  0  0  0  0  0
   24.7440  -19.7333  -20.1354 C   0  0  0  0  0  0  0  0  0  0  0  0
   24.4876  -18.4224  -19.9870 N   0  0  0  0  0  0  0  0  0  0  0  0
   23.5812  -18.2875  -19.0131 C   0  0  0  0  0  0  0  0  0  0  0  0
   23.2724  -19.4918  -18.5565 N   0  0  0  0  0  0  0  0  0  0  0  0
   22.0741  -21.8736  -20.7069 C   0  0  0  0  0  0  0  0  0  0  0  0
   22.0873  -21.2197  -21.7704 O   0  0  0  0  0  0  0  0  0  0  0  0
   20.8632  -21.9216  -19.9810 N   0  0  0  0  0  0  0  0  0  0  0  0
   19.6299  -21.3245  -20.3665 C   0  0  1  0  0  0  0  0  0  0  0  0
   19.0928  -21.9123  -21.6754 C   0  0  0  0  0  0  0  0  0  0  0  0
   18.3190  -23.1864  -21.4017 C   0  0  0  0  0  0  0  0  0  0  0  0
   17.9532  -23.8353  -22.7081 C   0  0  0  0  0  0  0  0  0  0  0  0
   17.1525  -25.0964  -22.5198 C   0  0  0  0  0  0  0  0  0  0  0  0
   16.7083  -25.6374  -23.7735 N   0  0  0  0  0  0  0  0  0  0  0  0
   18.5942  -21.3206  -19.3460 C   0  0  0  0  0  0  0  0  0  0  0  0
   18.7745  -21.9095  -18.2611 O   0  0  0  0  0  0  0  0  0  0  0  0
   17.3984  -20.6692  -19.5565 O   0  0  0  0  0  0  0  0  0  0  0  0
  2  1  1  1
  2  4  1  0
  2  3  1  0
  4  5  1  1
  6  4  1  0
  6  7  2  0
  8  6  1  0
  9  8  1  0
  9 10  1  1
 11 10  1  0
 11 15  1  0
 12 13  1  0
 12 11  2  0
 13 14  1  0
 14 15  2  0
 16  9  1  0
 17 16  2  0
 18 16  1  0
 19 18  1  0
 19 25  1  0
 19 20  1  6
 21 20  1  0
 21 22  1  0
 23 24  1  0
 23 22  1  0
 25 27  1  0
 26 25  2  0
M  END
$$$$
