VHK.pdb
     RDKit          3D

 27 27  0  0  1  0  0  0  0  0999 V2000
   24.5730  -15.1427  -21.9408 C   0  0  0  0  0  0  0  0  0  0  0  0
   23.5506  -14.6843  -20.9120 C   0  0  1  0  0  0  0  0  0  0  0  0
   22.9440  -13.3556  -21.3295 C   0  0  0  0  0  0  0  0  0  0  0  0
   22.4937  -15.7442  -20.7341 C   0  0  2  0  0  0  0  0  0  0  0  0
   21.8284  -16.0520  -21.9828 N   0  0  0  0  0  0  0  0  0  0  0  0
   21.5191  -15.2516  -19.7119 C   0  0  0  0  0  0  0  0  0  0  0  0
   21.8974  -14.9407  -18.5543 O   0  0  0  0  0  0  0  0  0  0  0  0
   20.1300  -15.1114  -19.9945 N   0  0  0  0  0  0  0  0  0  0  0  0
   19.1797  -14.5704  -19.0383 C   0  0  1  0  0  0  0  0  0  0  0  0
   18.7772  -13.1677  -19.3749 C   0  0  0  0  0  0  0  0  0  0  0  0
   19.7926  -12.1985  -18.9601 C   0  0  0  0  0  0  0  0  0  0  0  0
   20.6041  -11.4893  -19.8388 C   0  0  0  0  0  0  0  0  0  0  0  0
   21.4177  -10.6939  -19.1234 N   0  0  0  0  0  0  0  0  0  0  0  0
   21.1427  -10.8815  -17.8282 C   0  0  0  0  0  0  0  0  0  0  0  0
   20.1735  -11.7788  -17.7299 N   0  0  0  0  0  0  0  0  0  0  0  0
   18.0380  -15.4946  -18.8242 C   0  0  0  0  0  0  0  0  0  0  0  0
   17.4325  -15.9826  -19.8009 O   0  0  0  0  0  0  0  0  0  0  0  0
   17.5962  -15.8546  -17.5316 N   0  0  0  0  0  0  0  0  0  0  0  0
   16.4573  -16.6519  -17.2262 C   0  0  1  0  0  0  0  0  0  0  0  0
   16.8268  -17.8851  -16.3955 C   0  0  0  0  0  0  0  0  0  0  0  0
   15.6371  -18.8168  -16.2789 C   0  0  0  0  0  0  0  0  0  0  0  0
   16.0375  -20.0375  -15.4972 C   0  0  0  0  0  0  0  0  0  0  0  0
   14.9688  -21.0981  -15.4992 C   0  0  0  0  0  0  0  0  0  0  0  0
   15.3321  -22.2217  -14.6825 N   0  0  0  0  0  0  0  0  0  0  0  0
   15.3448  -15.9410  -16.6171 C   0  0  0  0  0  0  0  0  0  0  0  0
   15.5196  -14.8192  -16.0997 O   0  0  0  0  0  0  0  0  0  0  0  0
   14.0811  -16.4901  -16.5994 O   0  0  0  0  0  0  0  0  0  0  0  0
  2  1  1  6
  2  4  1  0
  2  3  1  0
  4  5  1  6
  6  4  1  0
  6  7  2  0
  8  6  1  0
  9  8  1  0
  9 10  1  6
 11 10  1  0
 11 15  1  0
 12 13  1  0
 12 11  2  0
 13 14  1  0
 14 15  2  0
 16  9  1  0
 17 16  2  0
 18 16  1  0
 19 18  1  0
 19 25  1  0
 19 20  1  1
 21 20  1  0
 21 22  1  0
 23 24  1  0
 23 22  1  0
 25 27  1  0
 26 25  2  0
M  END
$$$$
