VHK.pdb
     RDKit          3D

 27 27  0  0  1  0  0  0  0  0999 V2000
   15.9668  -11.9474  -16.6875 C   0  0  0  0  0  0  0  0  0  0  0  0
   16.5976  -11.2843  -15.4724 C   0  0  1  0  0  0  0  0  0  0  0  0
   18.0414  -10.9142  -15.7656 C   0  0  0  0  0  0  0  0  0  0  0  0
   15.7874  -10.0786  -15.0698 C   0  0  2  0  0  0  0  0  0  0  0  0
   15.7578   -9.0793  -16.1173 N   0  0  0  0  0  0  0  0  0  0  0  0
   16.3834   -9.5252  -13.8145 C   0  0  0  0  0  0  0  0  0  0  0  0
   16.3966  -10.1984  -12.7531 O   0  0  0  0  0  0  0  0  0  0  0  0
   16.9590   -8.2235  -13.7582 N   0  0  0  0  0  0  0  0  0  0  0  0
   17.6107   -7.6982  -12.5710 C   0  0  1  0  0  0  0  0  0  0  0  0
   18.8580   -6.9382  -12.9015 C   0  0  0  0  0  0  0  0  0  0  0  0
   19.9648   -7.8343  -13.2396 C   0  0  0  0  0  0  0  0  0  0  0  0
   19.8811   -9.2223  -13.2271 C   0  0  0  0  0  0  0  0  0  0  0  0
   21.0741   -9.7266  -13.5859 N   0  0  0  0  0  0  0  0  0  0  0  0
   21.9003   -8.7020  -13.8221 C   0  0  0  0  0  0  0  0  0  0  0  0
   21.2394   -7.5729  -13.6158 N   0  0  0  0  0  0  0  0  0  0  0  0
   16.6563   -6.9541  -11.7113 C   0  0  0  0  0  0  0  0  0  0  0  0
   16.0238   -5.9805  -12.1706 O   0  0  0  0  0  0  0  0  0  0  0  0
   16.4273   -7.3085  -10.3631 N   0  0  0  0  0  0  0  0  0  0  0  0
   15.5434   -6.6510   -9.4616 C   0  0  1  0  0  0  0  0  0  0  0  0
   14.5324   -7.6203   -8.8408 C   0  0  0  0  0  0  0  0  0  0  0  0
   13.5342   -6.8641   -7.9870 C   0  0  0  0  0  0  0  0  0  0  0  0
   12.5204   -7.8289   -7.4366 C   0  0  0  0  0  0  0  0  0  0  0  0
   11.4997   -7.1531   -6.5600 C   0  0  0  0  0  0  0  0  0  0  0  0
   10.5125   -8.0791   -6.0809 N   0  0  0  0  0  0  0  0  0  0  0  0
   16.1864   -5.8541   -8.4294 C   0  0  0  0  0  0  0  0  0  0  0  0
   17.2602   -6.2309   -7.9178 O   0  0  0  0  0  0  0  0  0  0  0  0
   15.6248   -4.6722   -7.9978 O   0  0  0  0  0  0  0  0  0  0  0  0
  2  1  1  6
  2  4  1  0
  2  3  1  0
  4  5  1  6
  6  4  1  0
  6  7  2  0
  8  6  1  0
  9  8  1  0
  9 10  1  6
 11 10  1  0
 11 15  1  0
 12 13  1  0
 12 11  2  0
 13 14  1  0
 14 15  2  0
 16  9  1  0
 17 16  2  0
 18 16  1  0
 19 18  1  0
 19 25  1  0
 19 20  1  1
 21 20  1  0
 21 22  1  0
 23 24  1  0
 23 22  1  0
 25 27  1  0
 26 25  2  0
M  END
$$$$
