VHK.pdb
     RDKit          3D

 27 27  0  0  1  0  0  0  0  0999 V2000
   21.8153  -23.2167  -20.7294 C   0  0  0  0  0  0  0  0  0  0  0  0
   21.2576  -22.6985  -19.4124 C   0  0  1  0  0  0  0  0  0  0  0  0
   22.2532  -21.7595  -18.7530 C   0  0  0  0  0  0  0  0  0  0  0  0
   19.9315  -22.0223  -19.6495 C   0  0  2  0  0  0  0  0  0  0  0  0
   20.0442  -20.9444  -20.6098 N   0  0  0  0  0  0  0  0  0  0  0  0
   19.4322  -21.5196  -18.3322 C   0  0  0  0  0  0  0  0  0  0  0  0
   19.1458  -22.3155  -17.4024 O   0  0  0  0  0  0  0  0  0  0  0  0
   19.2577  -20.1309  -18.0673 N   0  0  0  0  0  0  0  0  0  0  0  0
   18.9076  -19.6145  -16.7555 C   0  0  1  0  0  0  0  0  0  0  0  0
   19.6391  -18.3479  -16.4341 C   0  0  0  0  0  0  0  0  0  0  0  0
   21.0021  -18.6122  -15.9705 C   0  0  0  0  0  0  0  0  0  0  0  0
   21.5435  -19.8833  -15.8129 C   0  0  0  0  0  0  0  0  0  0  0  0
   22.8074  -19.7589  -15.3731 N   0  0  0  0  0  0  0  0  0  0  0  0
   23.0745  -18.4544  -15.2505 C   0  0  0  0  0  0  0  0  0  0  0  0
   21.9982  -17.7696  -15.6067 N   0  0  0  0  0  0  0  0  0  0  0  0
   17.4361  -19.5266  -16.5809 C   0  0  0  0  0  0  0  0  0  0  0  0
   16.7703  -18.7144  -17.2561 O   0  0  0  0  0  0  0  0  0  0  0  0
   16.7395  -20.3420  -15.6614 N   0  0  0  0  0  0  0  0  0  0  0  0
   15.3298  -20.3711  -15.4665 C   0  0  1  0  0  0  0  0  0  0  0  0
   14.8987  -21.5377  -14.5719 C   0  0  0  0  0  0  0  0  0  0  0  0
   15.2979  -21.2735  -13.1338 C   0  0  0  0  0  0  0  0  0  0  0  0
   14.8129  -22.4037  -12.2685 C   0  0  0  0  0  0  0  0  0  0  0  0
   15.3005  -22.2913  -10.8484 C   0  0  0  0  0  0  0  0  0  0  0  0
   14.7282  -23.3043  -10.0071 N   0  0  0  0  0  0  0  0  0  0  0  0
   14.7398  -19.1263  -15.0014 C   0  0  0  0  0  0  0  0  0  0  0  0
   15.4625  -18.2142  -14.5515 O   0  0  0  0  0  0  0  0  0  0  0  0
   13.3767  -18.9304  -15.0482 O   0  0  0  0  0  0  0  0  0  0  0  0
  2  1  1  6
  2  4  1  0
  2  3  1  0
  4  5  1  6
  6  4  1  0
  6  7  2  0
  8  6  1  0
  9  8  1  0
  9 10  1  6
 11 10  1  0
 11 15  1  0
 12 13  1  0
 12 11  2  0
 13 14  1  0
 14 15  2  0
 16  9  1  0
 17 16  2  0
 18 16  1  0
 19 18  1  0
 19 25  1  0
 19 20  1  1
 21 20  1  0
 21 22  1  0
 23 24  1  0
 23 22  1  0
 25 27  1  0
 26 25  2  0
M  END
$$$$
