VHK.pdb
     RDKit          3D

 27 27  0  0  1  0  0  0  0  0999 V2000
   25.8856  -23.8248  -13.5350 C   0  0  0  0  0  0  0  0  0  0  0  0
   25.1889  -22.4921  -13.7642 C   0  0  1  0  0  0  0  0  0  0  0  0
   23.6918  -22.6380  -13.5518 C   0  0  0  0  0  0  0  0  0  0  0  0
   25.7779  -21.4443  -12.8548 C   0  0  2  0  0  0  0  0  0  0  0  0
   25.5033  -21.7287  -11.4617 N   0  0  0  0  0  0  0  0  0  0  0  0
   25.2110  -20.1194  -13.2556 C   0  0  0  0  0  0  0  0  0  0  0  0
   24.2040  -19.6435  -12.6730 O   0  0  0  0  0  0  0  0  0  0  0  0
   25.7761  -19.3390  -14.3048 N   0  0  0  0  0  0  0  0  0  0  0  0
   25.2461  -18.0461  -14.7015 C   0  0  1  0  0  0  0  0  0  0  0  0
   26.2249  -17.2620  -15.5199 C   0  0  0  0  0  0  0  0  0  0  0  0
   25.6967  -15.9458  -15.8819 C   0  0  0  0  0  0  0  0  0  0  0  0
   24.4505  -15.4674  -15.4923 C   0  0  0  0  0  0  0  0  0  0  0  0
   24.2884  -14.2329  -15.9983 N   0  0  0  0  0  0  0  0  0  0  0  0
   25.3899  -13.9233  -16.6904 C   0  0  0  0  0  0  0  0  0  0  0  0
   26.2305  -14.9446  -16.6215 N   0  0  0  0  0  0  0  0  0  0  0  0
   23.9033  -18.1759  -15.3212 C   0  0  0  0  0  0  0  0  0  0  0  0
   23.6887  -19.0592  -16.1770 O   0  0  0  0  0  0  0  0  0  0  0  0
   22.8319  -17.3224  -14.9759 N   0  0  0  0  0  0  0  0  0  0  0  0
   21.4823  -17.4530  -15.4092 C   0  0  1  0  0  0  0  0  0  0  0  0
   20.4878  -17.1947  -14.2728 C   0  0  0  0  0  0  0  0  0  0  0  0
   19.0650  -17.3107  -14.7821 C   0  0  0  0  0  0  0  0  0  0  0  0
   18.2521  -18.1146  -13.8051 C   0  0  0  0  0  0  0  0  0  0  0  0
   16.8151  -18.2561  -14.2316 C   0  0  0  0  0  0  0  0  0  0  0  0
   16.0084  -18.8426  -13.1988 N   0  0  0  0  0  0  0  0  0  0  0  0
   21.1277  -16.6742  -16.5846 C   0  0  0  0  0  0  0  0  0  0  0  0
   20.5122  -17.2045  -17.5314 O   0  0  0  0  0  0  0  0  0  0  0  0
   21.4631  -15.3408  -16.6754 O   0  0  0  0  0  0  0  0  0  0  0  0
  2  1  1  1
  2  4  1  0
  2  3  1  0
  4  5  1  1
  6  4  1  0
  6  7  2  0
  8  6  1  0
  9  8  1  0
  9 10  1  6
 11 10  1  0
 11 15  1  0
 12 13  1  0
 12 11  2  0
 13 14  1  0
 14 15  2  0
 16  9  1  0
 17 16  2  0
 18 16  1  0
 19 18  1  0
 19 25  1  0
 19 20  1  1
 21 20  1  0
 21 22  1  0
 23 24  1  0
 23 22  1  0
 25 27  1  0
 26 25  2  0
M  END
$$$$
