VHK.pdb
     RDKit          3D

 27 27  0  0  1  0  0  0  0  0999 V2000
   28.1805  -20.2942  -21.3303 C   0  0  0  0  0  0  0  0  0  0  0  0
   27.2928  -20.9746  -20.2992 C   0  0  1  0  0  0  0  0  0  0  0  0
   28.0683  -22.0596  -19.5719 C   0  0  0  0  0  0  0  0  0  0  0  0
   26.7438  -19.9490  -19.3408 C   0  0  2  0  0  0  0  0  0  0  0  0
   27.7950  -19.1334  -18.7692 N   0  0  0  0  0  0  0  0  0  0  0  0
   25.9876  -20.6770  -18.2752 C   0  0  0  0  0  0  0  0  0  0  0  0
   25.0266  -21.4333  -18.5657 O   0  0  0  0  0  0  0  0  0  0  0  0
   26.3136  -20.5520  -16.8942 N   0  0  0  0  0  0  0  0  0  0  0  0
   25.5910  -21.2503  -15.8453 C   0  0  1  0  0  0  0  0  0  0  0  0
   26.5088  -22.0055  -14.9343 C   0  0  0  0  0  0  0  0  0  0  0  0
   27.1470  -23.1306  -15.6194 C   0  0  0  0  0  0  0  0  0  0  0  0
   26.5446  -24.3671  -15.8240 C   0  0  0  0  0  0  0  0  0  0  0  0
   27.4083  -25.1610  -16.4797 N   0  0  0  0  0  0  0  0  0  0  0  0
   28.5294  -24.4636  -16.6919 C   0  0  0  0  0  0  0  0  0  0  0  0
   28.3743  -23.2523  -16.1791 N   0  0  0  0  0  0  0  0  0  0  0  0
   24.6461  -20.3469  -15.1420 C   0  0  0  0  0  0  0  0  0  0  0  0
   25.0770  -19.3925  -14.4622 O   0  0  0  0  0  0  0  0  0  0  0  0
   23.2463  -20.5247  -15.2105 N   0  0  0  0  0  0  0  0  0  0  0  0
   22.2642  -19.6897  -14.6068 C   0  0  1  0  0  0  0  0  0  0  0  0
   21.5636  -18.7941  -15.6335 C   0  0  0  0  0  0  0  0  0  0  0  0
   20.3473  -19.4973  -16.2021 C   0  0  0  0  0  0  0  0  0  0  0  0
   19.7319  -18.6378  -17.2717 C   0  0  0  0  0  0  0  0  0  0  0  0
   18.5955  -19.3261  -17.9800 C   0  0  0  0  0  0  0  0  0  0  0  0
   17.9209  -18.4423  -18.8885 N   0  0  0  0  0  0  0  0  0  0  0  0
   21.2871  -20.3770  -13.7780 C   0  0  0  0  0  0  0  0  0  0  0  0
   21.1473  -21.6140  -13.8607 O   0  0  0  0  0  0  0  0  0  0  0  0
   20.4996  -19.6784  -12.8889 O   0  0  0  0  0  0  0  0  0  0  0  0
  2  1  1  6
  2  4  1  0
  2  3  1  0
  4  5  1  1
  6  4  1  0
  6  7  2  0
  8  6  1  0
  9  8  1  0
  9 10  1  1
 11 10  1  0
 11 15  1  0
 12 13  1  0
 12 11  2  0
 13 14  1  0
 14 15  2  0
 16  9  1  0
 17 16  2  0
 18 16  1  0
 19 18  1  0
 19 25  1  0
 19 20  1  6
 21 20  1  0
 21 22  1  0
 23 24  1  0
 23 22  1  0
 25 27  1  0
 26 25  2  0
M  END
$$$$
