VHK.pdb
     RDKit          3D

 27 27  0  0  1  0  0  0  0  0999 V2000
   24.6450  -25.4202  -17.4703 C   0  0  0  0  0  0  0  0  0  0  0  0
   25.3623  -24.0872  -17.6211 C   0  0  1  0  0  0  0  0  0  0  0  0
   24.4557  -22.9498  -17.1828 C   0  0  0  0  0  0  0  0  0  0  0  0
   26.6474  -24.1063  -16.8336 C   0  0  2  0  0  0  0  0  0  0  0  0
   27.4148  -22.8944  -17.0317 N   0  0  0  0  0  0  0  0  0  0  0  0
   27.4256  -25.3115  -17.2568 C   0  0  0  0  0  0  0  0  0  0  0  0
   27.8845  -25.4087  -18.4230 O   0  0  0  0  0  0  0  0  0  0  0  0
   27.6833  -26.3970  -16.3712 N   0  0  0  0  0  0  0  0  0  0  0  0
   28.4396  -27.5738  -16.7626 C   0  0  1  0  0  0  0  0  0  0  0  0
   29.6871  -27.7385  -15.9506 C   0  0  0  0  0  0  0  0  0  0  0  0
   30.6996  -26.7426  -16.3049 C   0  0  0  0  0  0  0  0  0  0  0  0
   30.5921  -25.8629  -17.3764 C   0  0  0  0  0  0  0  0  0  0  0  0
   31.6934  -25.0933  -17.4109 N   0  0  0  0  0  0  0  0  0  0  0  0
   32.4853  -25.4617  -16.3983 C   0  0  0  0  0  0  0  0  0  0  0  0
   31.8932  -26.4454  -15.7380 N   0  0  0  0  0  0  0  0  0  0  0  0
   27.5797  -28.7830  -16.8063 C   0  0  0  0  0  0  0  0  0  0  0  0
   26.4339  -28.7578  -16.3111 O   0  0  0  0  0  0  0  0  0  0  0  0
   28.0124  -29.9904  -17.3984 N   0  0  0  0  0  0  0  0  0  0  0  0
   27.2759  -31.2071  -17.4565 C   0  0  1  0  0  0  0  0  0  0  0  0
   27.2081  -31.9020  -16.0928 C   0  0  0  0  0  0  0  0  0  0  0  0
   26.5097  -33.2412  -16.2187 C   0  0  0  0  0  0  0  0  0  0  0  0
   26.3052  -33.8251  -14.8481 C   0  0  0  0  0  0  0  0  0  0  0  0
   25.6185  -35.1644  -14.8898 C   0  0  0  0  0  0  0  0  0  0  0  0
   25.3366  -35.6596  -13.5719 N   0  0  0  0  0  0  0  0  0  0  0  0
   25.9497  -31.1047  -18.0435 C   0  0  0  0  0  0  0  0  0  0  0  0
   25.2132  -30.1343  -17.7744 O   0  0  0  0  0  0  0  0  0  0  0  0
   25.4823  -32.0733  -18.9049 O   0  0  0  0  0  0  0  0  0  0  0  0
  2  1  1  1
  2  4  1  0
  2  3  1  0
  4  5  1  6
  6  4  1  0
  6  7  2  0
  8  6  1  0
  9  8  1  0
  9 10  1  1
 11 10  1  0
 11 15  1  0
 12 13  1  0
 12 11  2  0
 13 14  1  0
 14 15  2  0
 16  9  1  0
 17 16  2  0
 18 16  1  0
 19 18  1  0
 19 25  1  0
 19 20  1  1
 21 20  1  0
 21 22  1  0
 23 24  1  0
 23 22  1  0
 25 27  1  0
 26 25  2  0
M  END
$$$$
