VHK.pdb
     RDKit          3D

 27 27  0  0  1  0  0  0  0  0999 V2000
   20.0258  -16.5158  -17.4058 C   0  0  0  0  0  0  0  0  0  0  0  0
   20.8496  -15.3610  -16.8563 C   0  0  1  0  0  0  0  0  0  0  0  0
   22.3321  -15.6436  -17.0295 C   0  0  0  0  0  0  0  0  0  0  0  0
   20.4473  -14.0772  -17.5360 C   0  0  2  0  0  0  0  0  0  0  0  0
   20.6711  -14.1350  -18.9654 N   0  0  0  0  0  0  0  0  0  0  0  0
   21.2298  -12.9649  -16.9131 C   0  0  0  0  0  0  0  0  0  0  0  0
   21.1446  -12.7242  -15.6824 O   0  0  0  0  0  0  0  0  0  0  0  0
   22.1004  -12.1322  -17.6732 N   0  0  0  0  0  0  0  0  0  0  0  0
   22.7707  -10.9711  -17.1142 C   0  0  1  0  0  0  0  0  0  0  0  0
   24.1910  -10.8625  -17.5765 C   0  0  0  0  0  0  0  0  0  0  0  0
   25.0477  -11.8598  -16.9332 C   0  0  0  0  0  0  0  0  0  0  0  0
   24.6251  -12.7269  -15.9316 C   0  0  0  0  0  0  0  0  0  0  0  0
   25.6620  -13.5018  -15.5703 N   0  0  0  0  0  0  0  0  0  0  0  0
   26.7178  -13.1492  -16.3112 C   0  0  0  0  0  0  0  0  0  0  0  0
   26.3523  -12.1697  -17.1245 N   0  0  0  0  0  0  0  0  0  0  0  0
   21.9722   -9.7352  -17.3111 C   0  0  0  0  0  0  0  0  0  0  0  0
   21.7085   -9.3341  -18.4637 O   0  0  0  0  0  0  0  0  0  0  0  0
   21.4859   -8.9749  -16.2244 N   0  0  0  0  0  0  0  0  0  0  0  0
   20.7884   -7.7371  -16.3121 C   0  0  1  0  0  0  0  0  0  0  0  0
   19.3610   -7.8435  -15.7661 C   0  0  0  0  0  0  0  0  0  0  0  0
   18.5952   -6.5651  -16.0425 C   0  0  0  0  0  0  0  0  0  0  0  0
   17.1728   -6.7293  -15.5830 C   0  0  0  0  0  0  0  0  0  0  0  0
   16.3060   -5.5588  -15.9647 C   0  0  0  0  0  0  0  0  0  0  0  0
   14.9340   -5.7702  -15.5981 N   0  0  0  0  0  0  0  0  0  0  0  0
   21.4734   -6.5940  -15.7307 C   0  0  0  0  0  0  0  0  0  0  0  0
   22.1630   -6.7284  -14.6997 O   0  0  0  0  0  0  0  0  0  0  0  0
   21.3745   -5.3451  -16.3044 O   0  0  0  0  0  0  0  0  0  0  0  0
  2  1  1  6
  2  4  1  0
  2  3  1  0
  4  5  1  6
  6  4  1  0
  6  7  2  0
  8  6  1  0
  9  8  1  0
  9 10  1  6
 11 10  1  0
 11 15  1  0
 12 13  1  0
 12 11  2  0
 13 14  1  0
 14 15  2  0
 16  9  1  0
 17 16  2  0
 18 16  1  0
 19 18  1  0
 19 25  1  0
 19 20  1  1
 21 20  1  0
 21 22  1  0
 23 24  1  0
 23 22  1  0
 25 27  1  0
 26 25  2  0
M  END
$$$$
