VHK.pdb
     RDKit          3D

 27 27  0  0  1  0  0  0  0  0999 V2000
   14.5197   -8.6984  -15.1359 C   0  0  0  0  0  0  0  0  0  0  0  0
   14.9181  -10.1272  -15.4735 C   0  0  1  0  0  0  0  0  0  0  0  0
   14.2706  -10.5593  -16.7780 C   0  0  0  0  0  0  0  0  0  0  0  0
   16.4200  -10.2375  -15.5375 C   0  0  2  0  0  0  0  0  0  0  0  0
   16.8483  -11.6058  -15.7405 N   0  0  0  0  0  0  0  0  0  0  0  0
   16.9742   -9.6834  -14.2634 C   0  0  0  0  0  0  0  0  0  0  0  0
   16.8121  -10.2850  -13.1717 O   0  0  0  0  0  0  0  0  0  0  0  0
   17.7048   -8.4613  -14.2226 N   0  0  0  0  0  0  0  0  0  0  0  0
   18.3297   -7.9542  -13.0133 C   0  0  1  0  0  0  0  0  0  0  0  0
   19.6314   -7.2695  -13.2953 C   0  0  0  0  0  0  0  0  0  0  0  0
   20.6589   -8.2172  -13.7296 C   0  0  0  0  0  0  0  0  0  0  0  0
   20.4726   -9.5929  -13.8095 C   0  0  0  0  0  0  0  0  0  0  0  0
   21.6145  -10.1554  -14.2405 N   0  0  0  0  0  0  0  0  0  0  0  0
   22.5079   -9.1791  -14.4327 C   0  0  0  0  0  0  0  0  0  0  0  0
   21.9386   -8.0226  -14.1282 N   0  0  0  0  0  0  0  0  0  0  0  0
   17.3800   -7.1449  -12.2089 C   0  0  0  0  0  0  0  0  0  0  0  0
   16.8699   -6.1120  -12.6902 O   0  0  0  0  0  0  0  0  0  0  0  0
   17.0198   -7.5018  -10.8904 N   0  0  0  0  0  0  0  0  0  0  0  0
   16.0904   -6.8145  -10.0597 C   0  0  1  0  0  0  0  0  0  0  0  0
   15.0549   -7.7647   -9.4498 C   0  0  0  0  0  0  0  0  0  0  0  0
   13.9910   -6.9787   -8.7098 C   0  0  0  0  0  0  0  0  0  0  0  0
   12.9526   -7.9277   -8.1781 C   0  0  0  0  0  0  0  0  0  0  0  0
   11.8127   -7.2133   -7.5019 C   0  0  0  0  0  0  0  0  0  0  0  0
   10.8051   -8.1294   -7.0469 N   0  0  0  0  0  0  0  0  0  0  0  0
   16.6792   -5.9728   -9.0306 C   0  0  0  0  0  0  0  0  0  0  0  0
   17.8080   -6.2358   -8.5690 O   0  0  0  0  0  0  0  0  0  0  0  0
   16.0046   -4.8729   -8.5470 O   0  0  0  0  0  0  0  0  0  0  0  0
  2  1  1  6
  2  4  1  0
  2  3  1  0
  4  5  1  1
  6  4  1  0
  6  7  2  0
  8  6  1  0
  9  8  1  0
  9 10  1  6
 11 10  1  0
 11 15  1  0
 12 13  1  0
 12 11  2  0
 13 14  1  0
 14 15  2  0
 16  9  1  0
 17 16  2  0
 18 16  1  0
 19 18  1  0
 19 25  1  0
 19 20  1  1
 21 20  1  0
 21 22  1  0
 23 24  1  0
 23 22  1  0
 25 27  1  0
 26 25  2  0
M  END
$$$$
