VHK.pdb
     RDKit          3D

 27 27  0  0  1  0  0  0  0  0999 V2000
   28.0930  -17.6315  -16.5493 C   0  0  0  0  0  0  0  0  0  0  0  0
   27.2338  -17.8125  -15.3071 C   0  0  1  0  0  0  0  0  0  0  0  0
   25.7636  -17.6612  -15.6582 C   0  0  0  0  0  0  0  0  0  0  0  0
   27.5184  -19.1530  -14.6796 C   0  0  2  0  0  0  0  0  0  0  0  0
   27.3289  -20.2364  -15.6215 N   0  0  0  0  0  0  0  0  0  0  0  0
   26.6166  -19.3049  -13.4959 C   0  0  0  0  0  0  0  0  0  0  0  0
   26.5345  -18.4022  -12.6250 O   0  0  0  0  0  0  0  0  0  0  0  0
   25.8150  -20.4655  -13.2974 N   0  0  0  0  0  0  0  0  0  0  0  0
   24.8725  -20.5968  -12.1999 C   0  0  1  0  0  0  0  0  0  0  0  0
   23.6785  -21.4184  -12.5766 C   0  0  0  0  0  0  0  0  0  0  0  0
   22.7389  -20.6607  -13.4045 C   0  0  0  0  0  0  0  0  0  0  0  0
   22.9075  -19.3271  -13.7607 C   0  0  0  0  0  0  0  0  0  0  0  0
   21.8635  -18.9510  -14.5189 N   0  0  0  0  0  0  0  0  0  0  0  0
   21.0485  -20.0032  -14.6489 C   0  0  0  0  0  0  0  0  0  0  0  0
   21.5699  -21.0234  -13.9845 N   0  0  0  0  0  0  0  0  0  0  0  0
   25.5469  -21.0417  -10.9545 C   0  0  0  0  0  0  0  0  0  0  0  0
   26.3570  -21.9913  -10.9831 O   0  0  0  0  0  0  0  0  0  0  0  0
   25.3058  -20.4220   -9.7082 N   0  0  0  0  0  0  0  0  0  0  0  0
   25.7877  -20.8648   -8.4441 C   0  0  1  0  0  0  0  0  0  0  0  0
   26.6329  -19.7947   -7.7458 C   0  0  0  0  0  0  0  0  0  0  0  0
   27.0850  -20.2862   -6.3852 C   0  0  0  0  0  0  0  0  0  0  0  0
   27.8490  -19.1926   -5.6911 C   0  0  0  0  0  0  0  0  0  0  0  0
   28.3786  -19.6232   -4.3491 C   0  0  0  0  0  0  0  0  0  0  0  0
   28.9627  -18.5261   -3.6301 N   0  0  0  0  0  0  0  0  0  0  0  0
   24.7754  -21.3859   -7.5397 C   0  0  0  0  0  0  0  0  0  0  0  0
   23.5648  -21.1820   -7.7620 O   0  0  0  0  0  0  0  0  0  0  0  0
   25.1319  -22.1120   -6.4242 O   0  0  0  0  0  0  0  0  0  0  0  0
  2  1  1  6
  2  4  1  0
  2  3  1  0
  4  5  1  6
  6  4  1  0
  6  7  2  0
  8  6  1  0
  9  8  1  0
  9 10  1  6
 11 10  1  0
 11 15  1  0
 12 13  1  0
 12 11  2  0
 13 14  1  0
 14 15  2  0
 16  9  1  0
 17 16  2  0
 18 16  1  0
 19 18  1  0
 19 25  1  0
 19 20  1  1
 21 20  1  0
 21 22  1  0
 23 24  1  0
 23 22  1  0
 25 27  1  0
 26 25  2  0
M  END
$$$$
