VHK.pdb
     RDKit          3D

 27 27  0  0  1  0  0  0  0  0999 V2000
   20.9731  -12.3413  -18.7446 C   0  0  0  0  0  0  0  0  0  0  0  0
   19.8754  -11.7536  -17.8707 C   0  0  1  0  0  0  0  0  0  0  0  0
   19.3867  -12.7894  -16.8727 C   0  0  0  0  0  0  0  0  0  0  0  0
   20.3814  -10.5136  -17.1791 C   0  0  2  0  0  0  0  0  0  0  0  0
   21.5248  -10.7985  -16.3376 N   0  0  0  0  0  0  0  0  0  0  0  0
   19.2533   -9.9430  -16.3796 C   0  0  0  0  0  0  0  0  0  0  0  0
   18.1735   -9.6101  -16.9302 O   0  0  0  0  0  0  0  0  0  0  0  0
   19.3439   -9.7499  -14.9712 N   0  0  0  0  0  0  0  0  0  0  0  0
   18.2542   -9.2119  -14.1756 C   0  0  1  0  0  0  0  0  0  0  0  0
   18.2660   -9.7378  -12.7734 C   0  0  0  0  0  0  0  0  0  0  0  0
   17.0490   -9.3718  -12.0473 C   0  0  0  0  0  0  0  0  0  0  0  0
   15.9483   -8.7496  -12.6262 C   0  0  0  0  0  0  0  0  0  0  0  0
   15.0155   -8.5599  -11.6775 N   0  0  0  0  0  0  0  0  0  0  0  0
   15.4950   -9.0418  -10.5259 C   0  0  0  0  0  0  0  0  0  0  0  0
   16.7080   -9.5263  -10.7457 N   0  0  0  0  0  0  0  0  0  0  0  0
   18.1930   -7.7315  -14.2680 C   0  0  0  0  0  0  0  0  0  0  0  0
   19.2271   -7.0489  -14.1155 O   0  0  0  0  0  0  0  0  0  0  0  0
   16.9858   -7.0452  -14.5275 N   0  0  0  0  0  0  0  0  0  0  0  0
   16.8357   -5.6369  -14.6704 C   0  0  1  0  0  0  0  0  0  0  0  0
   16.6649   -5.2244  -16.1359 C   0  0  0  0  0  0  0  0  0  0  0  0
   16.5121   -3.7204  -16.2448 C   0  0  0  0  0  0  0  0  0  0  0  0
   16.3635   -3.3401  -17.6922 C   0  0  0  0  0  0  0  0  0  0  0  0
   16.1407   -1.8628  -17.8790 C   0  0  0  0  0  0  0  0  0  0  0  0
   15.8572   -1.5359  -19.2480 N   0  0  0  0  0  0  0  0  0  0  0  0
   15.8001   -5.0345  -13.8467 C   0  0  0  0  0  0  0  0  0  0  0  0
   14.7227   -5.6320  -13.6495 O   0  0  0  0  0  0  0  0  0  0  0  0
   15.9875   -3.7971  -13.2701 O   0  0  0  0  0  0  0  0  0  0  0  0
  2  1  1  1
  2  4  1  0
  2  3  1  0
  4  5  1  1
  6  4  1  0
  6  7  2  0
  8  6  1  0
  9  8  1  0
  9 10  1  1
 11 10  1  0
 11 15  1  0
 12 13  1  0
 12 11  2  0
 13 14  1  0
 14 15  2  0
 16  9  1  0
 17 16  2  0
 18 16  1  0
 19 18  1  0
 19 25  1  0
 19 20  1  6
 21 20  1  0
 21 22  1  0
 23 24  1  0
 23 22  1  0
 25 27  1  0
 26 25  2  0
M  END
$$$$
