SPF.pdb
     RDKit          3D

 25 26  0  0  1  0  0  0  0  0999 V2000
    6.5322  -18.8120   23.7330 O   0  0  0  0  0  0  0  0  0  0  0  0
    5.6393  -18.0140   23.0034 C   0  0  0  0  0  0  0  0  0  0  0  0
    6.1762  -17.8551   21.5822 C   0  0  2  0  0  0  0  0  0  0  0  0
    6.0972  -19.0742   20.9131 N   0  0  0  0  0  0  0  0  0  0  0  0
    7.5025  -17.2062   21.6460 C   0  0  0  0  0  0  0  0  0  0  0  0
    8.4839  -17.9409   21.3674 O   0  0  0  0  0  0  0  0  0  0  0  0
    7.7225  -15.8658   21.9873 N   0  0  0  0  0  0  0  0  0  0  0  0
    6.7901  -14.8803   22.5206 C   0  0  0  0  0  0  0  0  0  0  0  0
    7.3787  -13.5356   22.2422 C   0  0  0  0  0  0  0  0  0  0  0  0
    8.5427  -13.8316   21.2947 C   0  0  0  0  0  0  0  0  0  0  0  0
    8.9890  -15.1696   21.8671 C   0  0  1  0  0  0  0  0  0  0  0  0
    9.6323  -15.0108   23.1938 C   0  0  0  0  0  0  0  0  0  0  0  0
   10.6474  -14.2931   23.3538 O   0  0  0  0  0  0  0  0  0  0  0  0
    9.0843  -15.6854   24.2959 N   0  0  0  0  0  0  0  0  0  0  0  0
    9.7458  -15.8548   25.5637 C   0  0  1  0  0  0  0  0  0  0  0  0
    9.6333  -14.5218   26.2829 C   0  0  0  0  0  0  0  0  0  0  0  0
    8.2887  -13.9379   26.1877 C   0  0  0  0  0  0  0  0  0  0  0  0
    8.1411  -12.5673   26.0848 C   0  0  0  0  0  0  0  0  0  0  0  0
    6.8900  -11.9954   25.9903 C   0  0  0  0  0  0  0  0  0  0  0  0
    5.7819  -12.8154   26.0000 C   0  0  0  0  0  0  0  0  0  0  0  0
    5.9327  -14.1935   26.1037 C   0  0  0  0  0  0  0  0  0  0  0  0
    7.1820  -14.7505   26.1971 C   0  0  0  0  0  0  0  0  0  0  0  0
    9.1040  -16.9674   26.2914 C   0  0  0  0  0  0  0  0  0  0  0  0
    8.0363  -17.6955   25.7868 O   0  0  0  0  0  0  0  0  0  0  0  0
    9.5365  -17.2800   27.4250 O   0  0  0  0  0  0  0  0  0  0  0  0
  2  3  1  0
  2  1  1  0
  3  4  1  1
  5  3  1  0
  6  5  2  0
  7  5  1  0
  7 11  1  0
  8  9  1  0
  8  7  1  0
  9 10  1  0
 10 11  1  0
 11 12  1  1
 12 14  1  0
 13 12  2  0
 15 14  1  0
 15 16  1  1
 17 16  1  0
 17 22  1  0
 18 17  2  0
 19 18  1  0
 19 20  2  0
 20 21  1  0
 21 22  2  0
 23 15  1  0
 24 23  1  0
 25 23  2  0
M  END
$$$$
