SPF.pdb
     RDKit          3D

 25 26  0  0  1  0  0  0  0  0999 V2000
    6.0606  -18.3657   23.5716 O   0  0  0  0  0  0  0  0  0  0  0  0
    5.1839  -17.5783   22.8114 C   0  0  0  0  0  0  0  0  0  0  0  0
    5.6530  -17.5903   21.3578 C   0  0  2  0  0  0  0  0  0  0  0  0
    5.3930  -18.8364   20.7924 N   0  0  0  0  0  0  0  0  0  0  0  0
    7.0478  -17.1045   21.3055 C   0  0  0  0  0  0  0  0  0  0  0  0
    7.9161  -17.9671   21.0181 O   0  0  0  0  0  0  0  0  0  0  0  0
    7.4454  -15.7840   21.5492 N   0  0  0  0  0  0  0  0  0  0  0  0
    6.6707  -14.6638   22.0688 C   0  0  0  0  0  0  0  0  0  0  0  0
    7.3963  -13.4186   21.6748 C   0  0  0  0  0  0  0  0  0  0  0  0
    8.4568  -13.9069   20.6864 C   0  0  0  0  0  0  0  0  0  0  0  0
    8.7758  -15.2551   21.3172 C   0  0  1  0  0  0  0  0  0  0  0  0
    9.5132  -15.1016   22.5946 C   0  0  0  0  0  0  0  0  0  0  0  0
   10.5883  -14.4608   22.6636 O   0  0  0  0  0  0  0  0  0  0  0  0
    8.9874  -15.6927   23.7539 N   0  0  0  0  0  0  0  0  0  0  0  0
    9.6631  -15.7458   25.0244 C   0  0  1  0  0  0  0  0  0  0  0  0
    9.7489  -14.3127   25.5201 C   0  0  0  0  0  0  0  0  0  0  0  0
    8.4559  -13.7966   25.9888 C   0  0  0  0  0  0  0  0  0  0  0  0
    7.2831  -14.3818   25.5496 C   0  0  0  0  0  0  0  0  0  0  0  0
    6.0572  -13.9181   25.9780 C   0  0  0  0  0  0  0  0  0  0  0  0
    6.0182  -12.8560   26.8559 C   0  0  0  0  0  0  0  0  0  0  0  0
    7.1989  -12.2689   27.2962 C   0  0  0  0  0  0  0  0  0  0  0  0
    8.4119  -12.7389   26.8631 C   0  0  0  0  0  0  0  0  0  0  0  0
    8.9068  -16.6330   25.9300 C   0  0  0  0  0  0  0  0  0  0  0  0
    7.7262  -17.2663   25.5694 O   0  0  0  0  0  0  0  0  0  0  0  0
    9.3429  -16.8324   27.0876 O   0  0  0  0  0  0  0  0  0  0  0  0
  2  3  1  0
  2  1  1  0
  3  4  1  1
  5  3  1  0
  6  5  2  0
  7  5  1  0
  7 11  1  0
  8  9  1  0
  8  7  1  0
  9 10  1  0
 10 11  1  0
 11 12  1  1
 12 14  1  0
 13 12  2  0
 15 14  1  0
 15 16  1  1
 17 16  1  0
 17 22  1  0
 18 17  2  0
 19 18  1  0
 19 20  2  0
 20 21  1  0
 21 22  2  0
 23 15  1  0
 24 23  1  0
 25 23  2  0
M  END
$$$$
