SPF.pdb
     RDKit          3D

 25 26  0  0  1  0  0  0  0  0999 V2000
    6.8169  -18.3042   21.9728 O   0  0  0  0  0  0  0  0  0  0  0  0
    5.8683  -17.8021   21.0703 C   0  0  0  0  0  0  0  0  0  0  0  0
    6.5969  -17.3036   19.8237 C   0  0  2  0  0  0  0  0  0  0  0  0
    6.7694  -18.3576   18.9296 N   0  0  0  0  0  0  0  0  0  0  0  0
    7.8099  -16.5714   20.2443 C   0  0  0  0  0  0  0  0  0  0  0  0
    8.9038  -17.1406   19.9994 O   0  0  0  0  0  0  0  0  0  0  0  0
    7.8118  -15.3227   20.8785 N   0  0  0  0  0  0  0  0  0  0  0  0
    6.6978  -14.5627   21.4319 C   0  0  0  0  0  0  0  0  0  0  0  0
    7.1521  -13.1428   21.5314 C   0  0  0  0  0  0  0  0  0  0  0  0
    8.4701  -13.1222   20.7549 C   0  0  0  0  0  0  0  0  0  0  0  0
    8.9876  -14.5075   21.1160 C   0  0  1  0  0  0  0  0  0  0  0  0
    9.4046  -14.5835   22.5371 C   0  0  0  0  0  0  0  0  0  0  0  0
   10.4076  -13.9654   22.9649 O   0  0  0  0  0  0  0  0  0  0  0  0
    8.6510  -15.3707   23.4215 N   0  0  0  0  0  0  0  0  0  0  0  0
    8.9366  -15.5279   24.8241 C   0  0  1  0  0  0  0  0  0  0  0  0
    7.6121  -15.3609   25.5486 C   0  0  0  0  0  0  0  0  0  0  0  0
    7.3072  -13.9573   25.8564 C   0  0  0  0  0  0  0  0  0  0  0  0
    8.2573  -13.1688   26.4783 C   0  0  0  0  0  0  0  0  0  0  0  0
    7.9966  -11.8475   26.7742 C   0  0  0  0  0  0  0  0  0  0  0  0
    6.7674  -11.3214   26.4389 C   0  0  0  0  0  0  0  0  0  0  0  0
    5.8135  -12.1161   25.8137 C   0  0  0  0  0  0  0  0  0  0  0  0
    6.0844  -13.4287   25.5244 C   0  0  0  0  0  0  0  0  0  0  0  0
    9.5576  -16.8497   25.0391 C   0  0  0  0  0  0  0  0  0  0  0  0
   10.3781  -17.1421   26.1190 O   0  0  0  0  0  0  0  0  0  0  0  0
    9.3408  -17.7637   24.2099 O   0  0  0  0  0  0  0  0  0  0  0  0
  2  3  1  0
  2  1  1  0
  3  4  1  6
  5  3  1  0
  6  5  2  0
  7  5  1  0
  7 11  1  0
  8  9  1  0
  8  7  1  0
  9 10  1  0
 10 11  1  0
 11 12  1  1
 12 14  1  0
 13 12  2  0
 15 14  1  0
 15 16  1  1
 17 16  1  0
 17 22  1  0
 18 17  2  0
 19 18  1  0
 19 20  2  0
 20 21  1  0
 21 22  2  0
 23 15  1  0
 24 23  1  0
 25 23  2  0
M  END
$$$$
