SPF.pdb
     RDKit          3D

 25 26  0  0  1  0  0  0  0  0999 V2000
    6.6014  -18.9202   22.6048 O   0  0  0  0  0  0  0  0  0  0  0  0
    5.7437  -18.0531   21.9126 C   0  0  0  0  0  0  0  0  0  0  0  0
    6.3872  -17.6957   20.5742 C   0  0  2  0  0  0  0  0  0  0  0  0
    6.5242  -18.8449   19.7992 N   0  0  0  0  0  0  0  0  0  0  0  0
    7.6102  -16.9069   20.8316 C   0  0  0  0  0  0  0  0  0  0  0  0
    8.6922  -17.4514   20.4948 O   0  0  0  0  0  0  0  0  0  0  0  0
    7.6335  -15.6314   21.4094 N   0  0  0  0  0  0  0  0  0  0  0  0
    6.5376  -14.8431   21.9595 C   0  0  0  0  0  0  0  0  0  0  0  0
    6.9985  -13.4221   21.9831 C   0  0  0  0  0  0  0  0  0  0  0  0
    8.2942  -13.4412   21.1699 C   0  0  0  0  0  0  0  0  0  0  0  0
    8.8177  -14.8112   21.5775 C   0  0  1  0  0  0  0  0  0  0  0  0
    9.2743  -14.8258   22.9884 C   0  0  0  0  0  0  0  0  0  0  0  0
   10.2577  -14.1494   23.3712 O   0  0  0  0  0  0  0  0  0  0  0  0
    8.5818  -15.6210   23.9147 N   0  0  0  0  0  0  0  0  0  0  0  0
    8.9220  -15.7376   25.3092 C   0  0  1  0  0  0  0  0  0  0  0  0
    7.6285  -15.5382   26.0799 C   0  0  0  0  0  0  0  0  0  0  0  0
    7.3264  -14.1214   26.3238 C   0  0  0  0  0  0  0  0  0  0  0  0
    6.0466  -13.6453   26.1083 C   0  0  0  0  0  0  0  0  0  0  0  0
    5.7371  -12.3206   26.3336 C   0  0  0  0  0  0  0  0  0  0  0  0
    6.7286  -11.4730   26.7795 C   0  0  0  0  0  0  0  0  0  0  0  0
    8.0150  -11.9540   26.9954 C   0  0  0  0  0  0  0  0  0  0  0  0
    8.3106  -13.2733   26.7678 C   0  0  0  0  0  0  0  0  0  0  0  0
    9.5421  -17.0571   25.5399 C   0  0  0  0  0  0  0  0  0  0  0  0
   10.3998  -17.3241   26.5972 O   0  0  0  0  0  0  0  0  0  0  0  0
    9.2893  -17.9932   24.7463 O   0  0  0  0  0  0  0  0  0  0  0  0
  2  3  1  0
  2  1  1  0
  3  4  1  1
  5  3  1  0
  6  5  2  0
  7  5  1  0
  7 11  1  0
  8  9  1  0
  8  7  1  0
  9 10  1  0
 10 11  1  0
 11 12  1  1
 12 14  1  0
 13 12  2  0
 15 14  1  0
 15 16  1  1
 17 16  1  0
 17 22  1  0
 18 17  2  0
 19 18  1  0
 19 20  2  0
 20 21  1  0
 21 22  2  0
 23 15  1  0
 24 23  1  0
 25 23  2  0
M  END
$$$$
