SPF.pdb
     RDKit          3D

 25 26  0  0  1  0  0  0  0  0999 V2000
    6.5349  -18.5476   22.3228 O   0  0  0  0  0  0  0  0  0  0  0  0
    5.7184  -17.7802   21.4796 C   0  0  0  0  0  0  0  0  0  0  0  0
    6.4792  -17.5020   20.1846 C   0  0  2  0  0  0  0  0  0  0  0  0
    6.5878  -18.6766   19.4441 N   0  0  0  0  0  0  0  0  0  0  0  0
    7.7343  -16.7949   20.5145 C   0  0  0  0  0  0  0  0  0  0  0  0
    8.7956  -17.4209   20.2650 O   0  0  0  0  0  0  0  0  0  0  0  0
    7.8081  -15.5114   21.0701 N   0  0  0  0  0  0  0  0  0  0  0  0
    6.7421  -14.6649   21.5919 C   0  0  0  0  0  0  0  0  0  0  0  0
    7.2664  -13.2658   21.5966 C   0  0  0  0  0  0  0  0  0  0  0  0
    8.5697  -13.3578   20.8009 C   0  0  0  0  0  0  0  0  0  0  0  0
    9.0259  -14.7423   21.2392 C   0  0  1  0  0  0  0  0  0  0  0  0
    9.4641  -14.7519   22.6560 C   0  0  0  0  0  0  0  0  0  0  0  0
   10.4804  -14.1250   23.0371 O   0  0  0  0  0  0  0  0  0  0  0  0
    8.7157  -15.4850   23.5900 N   0  0  0  0  0  0  0  0  0  0  0  0
    9.0067  -15.5546   24.9986 C   0  0  1  0  0  0  0  0  0  0  0  0
    7.6688  -15.4749   25.7131 C   0  0  0  0  0  0  0  0  0  0  0  0
    7.2747  -14.0948   26.0263 C   0  0  0  0  0  0  0  0  0  0  0  0
    8.2331  -13.1797   26.4202 C   0  0  0  0  0  0  0  0  0  0  0  0
    7.8890  -11.8776   26.7158 C   0  0  0  0  0  0  0  0  0  0  0  0
    6.5674  -11.4996   26.6124 C   0  0  0  0  0  0  0  0  0  0  0  0
    5.6053  -12.4215   26.2163 C   0  0  0  0  0  0  0  0  0  0  0  0
    5.9597  -13.7136   25.9249 C   0  0  0  0  0  0  0  0  0  0  0  0
    9.7417  -16.8052   25.2723 C   0  0  0  0  0  0  0  0  0  0  0  0
    9.9011  -17.8182   24.3378 O   0  0  0  0  0  0  0  0  0  0  0  0
   10.2526  -16.9731   26.4040 O   0  0  0  0  0  0  0  0  0  0  0  0
  2  3  1  0
  2  1  1  0
  3  4  1  1
  5  3  1  0
  6  5  2  0
  7  5  1  0
  7 11  1  0
  8  9  1  0
  8  7  1  0
  9 10  1  0
 10 11  1  0
 11 12  1  1
 12 14  1  0
 13 12  2  0
 15 14  1  0
 15 16  1  1
 17 16  1  0
 17 22  1  0
 18 17  2  0
 19 18  1  0
 19 20  2  0
 20 21  1  0
 21 22  2  0
 23 15  1  0
 24 23  1  0
 25 23  2  0
M  END
$$$$
