SPF.pdb
     RDKit          3D

 25 26  0  0  1  0  0  0  0  0999 V2000
   10.6021  -13.9918   18.8895 O   0  0  0  0  0  0  0  0  0  0  0  0
    9.5348  -14.5728   18.1897 C   0  0  0  0  0  0  0  0  0  0  0  0
    8.2580  -13.8019   18.5190 C   0  0  2  0  0  0  0  0  0  0  0  0
    8.3495  -12.5072   18.0134 N   0  0  0  0  0  0  0  0  0  0  0  0
    7.9778  -13.9430   19.9632 C   0  0  0  0  0  0  0  0  0  0  0  0
    8.0973  -12.8952   20.6476 O   0  0  0  0  0  0  0  0  0  0  0  0
    7.5998  -15.1356   20.5927 N   0  0  0  0  0  0  0  0  0  0  0  0
    7.5901  -16.4965   20.0702 C   0  0  0  0  0  0  0  0  0  0  0  0
    6.6651  -17.2849   20.9392 C   0  0  0  0  0  0  0  0  0  0  0  0
    5.9669  -16.2242   21.7923 C   0  0  0  0  0  0  0  0  0  0  0  0
    7.1209  -15.2454   21.9572 C   0  0  1  0  0  0  0  0  0  0  0  0
    8.1771  -15.7881   22.8455 C   0  0  0  0  0  0  0  0  0  0  0  0
    8.9930  -16.6532   22.4492 O   0  0  0  0  0  0  0  0  0  0  0  0
    8.2595  -15.3157   24.1646 N   0  0  0  0  0  0  0  0  0  0  0  0
    9.2787  -15.6959   25.1081 C   0  0  1  0  0  0  0  0  0  0  0  0
    9.5037  -14.4874   26.0002 C   0  0  0  0  0  0  0  0  0  0  0  0
    8.3020  -13.6541   26.1397 C   0  0  0  0  0  0  0  0  0  0  0  0
    8.2064  -12.4649   25.4413 C   0  0  0  0  0  0  0  0  0  0  0  0
    7.0872  -11.6671   25.5524 C   0  0  0  0  0  0  0  0  0  0  0  0
    6.0591  -12.0752   26.3750 C   0  0  0  0  0  0  0  0  0  0  0  0
    6.1575  -13.2714   27.0765 C   0  0  0  0  0  0  0  0  0  0  0  0
    7.2754  -14.0563   26.9578 C   0  0  0  0  0  0  0  0  0  0  0  0
    8.8234  -16.8904   25.8462 C   0  0  0  0  0  0  0  0  0  0  0  0
    7.5565  -17.4384   25.7064 O   0  0  0  0  0  0  0  0  0  0  0  0
    9.6125  -17.4477   26.6442 O   0  0  0  0  0  0  0  0  0  0  0  0
  2  3  1  0
  2  1  1  0
  3  4  1  1
  5  3  1  0
  6  5  2  0
  7  5  1  0
  7 11  1  0
  8  9  1  0
  8  7  1  0
  9 10  1  0
 10 11  1  0
 11 12  1  1
 12 14  1  0
 13 12  2  0
 15 14  1  0
 15 16  1  1
 17 16  1  0
 17 22  1  0
 18 17  2  0
 19 18  1  0
 19 20  2  0
 20 21  1  0
 21 22  2  0
 23 15  1  0
 24 23  1  0
 25 23  2  0
M  END
$$$$
