SPF.pdb
     RDKit          3D

 25 26  0  0  1  0  0  0  0  0999 V2000
   10.4549  -14.6738   18.8260 O   0  0  0  0  0  0  0  0  0  0  0  0
    9.1300  -14.8103   18.3873 C   0  0  0  0  0  0  0  0  0  0  0  0
    8.2801  -13.7337   19.0593 C   0  0  2  0  0  0  0  0  0  0  0  0
    8.6548  -12.4784   18.5861 N   0  0  0  0  0  0  0  0  0  0  0  0
    8.3204  -13.9419   20.5219 C   0  0  0  0  0  0  0  0  0  0  0  0
    8.8464  -13.0167   21.1910 O   0  0  0  0  0  0  0  0  0  0  0  0
    7.8237  -15.0718   21.1838 N   0  0  0  0  0  0  0  0  0  0  0  0
    7.2496  -16.2923   20.6305 C   0  0  0  0  0  0  0  0  0  0  0  0
    6.4535  -16.9278   21.7235 C   0  0  0  0  0  0  0  0  0  0  0  0
    6.4032  -15.8561   22.8140 C   0  0  0  0  0  0  0  0  0  0  0  0
    7.7857  -15.2484   22.6228 C   0  0  1  0  0  0  0  0  0  0  0  0
    8.8566  -16.1716   23.0701 C   0  0  0  0  0  0  0  0  0  0  0  0
    9.3253  -17.0549   22.3142 O   0  0  0  0  0  0  0  0  0  0  0  0
    9.3542  -16.0471   24.3765 N   0  0  0  0  0  0  0  0  0  0  0  0
   10.6428  -16.5215   24.8104 C   0  0  1  0  0  0  0  0  0  0  0  0
   11.3234  -15.3438   25.4861 C   0  0  0  0  0  0  0  0  0  0  0  0
   10.6121  -14.8918   26.6893 C   0  0  0  0  0  0  0  0  0  0  0  0
    9.5639  -13.9981   26.5721 C   0  0  0  0  0  0  0  0  0  0  0  0
    8.8781  -13.5619   27.6860 C   0  0  0  0  0  0  0  0  0  0  0  0
    9.2552  -14.0329   28.9254 C   0  0  0  0  0  0  0  0  0  0  0  0
   10.3096  -14.9315   29.0409 C   0  0  0  0  0  0  0  0  0  0  0  0
   10.9841  -15.3580   27.9259 C   0  0  0  0  0  0  0  0  0  0  0  0
   10.4480  -17.6773   25.7077 C   0  0  0  0  0  0  0  0  0  0  0  0
    9.2009  -18.1180   26.1266 O   0  0  0  0  0  0  0  0  0  0  0  0
   11.4534  -18.3012   26.1200 O   0  0  0  0  0  0  0  0  0  0  0  0
  2  3  1  0
  2  1  1  0
  3  4  1  1
  5  3  1  0
  6  5  2  0
  7  5  1  0
  7 11  1  0
  8  9  1  0
  8  7  1  0
  9 10  1  0
 10 11  1  0
 11 12  1  6
 12 14  1  0
 13 12  2  0
 15 14  1  0
 15 16  1  1
 17 16  1  0
 17 22  1  0
 18 17  2  0
 19 18  1  0
 19 20  2  0
 20 21  1  0
 21 22  2  0
 23 15  1  0
 24 23  1  0
 25 23  2  0
M  END
$$$$
