SPF.pdb
     RDKit          3D

 25 26  0  0  1  0  0  0  0  0999 V2000
    5.3570  -19.2365   21.3225 O   0  0  0  0  0  0  0  0  0  0  0  0
    6.4460  -18.4222   21.6654 C   0  0  0  0  0  0  0  0  0  0  0  0
    7.0105  -17.7996   20.3899 C   0  0  2  0  0  0  0  0  0  0  0  0
    7.3705  -18.8065   19.4974 N   0  0  0  0  0  0  0  0  0  0  0  0
    8.0557  -16.8230   20.7612 C   0  0  0  0  0  0  0  0  0  0  0  0
    9.2420  -17.1962   20.5771 O   0  0  0  0  0  0  0  0  0  0  0  0
    7.8102  -15.5490   21.2886 N   0  0  0  0  0  0  0  0  0  0  0  0
    6.5432  -14.9215   21.6439 C   0  0  0  0  0  0  0  0  0  0  0  0
    6.7878  -13.4481   21.6815 C   0  0  0  0  0  0  0  0  0  0  0  0
    8.1796  -13.2896   21.0666 C   0  0  0  0  0  0  0  0  0  0  0  0
    8.8266  -14.5615   21.5965 C   0  0  1  0  0  0  0  0  0  0  0  0
    9.0649  -14.4870   23.0583 C   0  0  0  0  0  0  0  0  0  0  0  0
    9.2620  -13.3945   23.6404 O   0  0  0  0  0  0  0  0  0  0  0  0
    9.0685  -15.6760   23.8040 N   0  0  0  0  0  0  0  0  0  0  0  0
    9.0036  -15.7412   25.2411 C   0  0  1  0  0  0  0  0  0  0  0  0
    7.6047  -15.2900   25.6239 C   0  0  0  0  0  0  0  0  0  0  0  0
    7.5587  -13.8845   26.0484 C   0  0  0  0  0  0  0  0  0  0  0  0
    6.3639  -13.1909   25.9982 C   0  0  0  0  0  0  0  0  0  0  0  0
    6.2940  -11.8721   26.3947 C   0  0  0  0  0  0  0  0  0  0  0  0
    7.4399  -11.2518   26.8445 C   0  0  0  0  0  0  0  0  0  0  0  0
    8.6404  -11.9511   26.8940 C   0  0  0  0  0  0  0  0  0  0  0  0
    8.6973  -13.2622   26.4970 C   0  0  0  0  0  0  0  0  0  0  0  0
    9.3107  -17.1199   25.6701 C   0  0  0  0  0  0  0  0  0  0  0  0
    9.8323  -17.4341   26.9168 O   0  0  0  0  0  0  0  0  0  0  0  0
    9.0942  -18.0646   24.8761 O   0  0  0  0  0  0  0  0  0  0  0  0
  2  3  1  0
  2  1  1  0
  3  4  1  6
  5  3  1  0
  6  5  2  0
  7  5  1  0
  7 11  1  0
  8  9  1  0
  8  7  1  0
  9 10  1  0
 10 11  1  0
 11 12  1  1
 12 14  1  0
 13 12  2  0
 15 14  1  0
 15 16  1  6
 17 16  1  0
 17 22  1  0
 18 17  2  0
 19 18  1  0
 19 20  2  0
 20 21  1  0
 21 22  2  0
 23 15  1  0
 24 23  1  0
 25 23  2  0
M  END
$$$$
