SPF.pdb
     RDKit          3D

 25 26  0  0  1  0  0  0  0  0999 V2000
   10.3267  -14.3862   19.8635 O   0  0  0  0  0  0  0  0  0  0  0  0
    9.5541  -13.2807   19.4795 C   0  0  0  0  0  0  0  0  0  0  0  0
    8.1055  -13.7338   19.3079 C   0  0  2  0  0  0  0  0  0  0  0  0
    7.3656  -12.7182   18.7070 N   0  0  0  0  0  0  0  0  0  0  0  0
    7.6136  -14.2505   20.6022 C   0  0  0  0  0  0  0  0  0  0  0  0
    7.0442  -13.4107   21.3446 O   0  0  0  0  0  0  0  0  0  0  0  0
    7.7406  -15.5762   21.0356 N   0  0  0  0  0  0  0  0  0  0  0  0
    8.5323  -16.6633   20.4729 C   0  0  0  0  0  0  0  0  0  0  0  0
    7.9450  -17.9361   20.9898 C   0  0  0  0  0  0  0  0  0  0  0  0
    6.6327  -17.4983   21.6428 C   0  0  0  0  0  0  0  0  0  0  0  0
    7.0710  -16.1466   22.1886 C   0  0  1  0  0  0  0  0  0  0  0  0
    8.0111  -16.2936   23.3261 C   0  0  0  0  0  0  0  0  0  0  0  0
    9.2204  -16.5735   23.1513 O   0  0  0  0  0  0  0  0  0  0  0  0
    7.5268  -16.1131   24.6310 N   0  0  0  0  0  0  0  0  0  0  0  0
    8.3520  -16.0549   25.8096 C   0  0  1  0  0  0  0  0  0  0  0  0
    7.4708  -15.5061   26.9183 C   0  0  0  0  0  0  0  0  0  0  0  0
    7.1337  -14.0893   26.7258 C   0  0  0  0  0  0  0  0  0  0  0  0
    5.8175  -13.7181   26.5236 C   0  0  0  0  0  0  0  0  0  0  0  0
    5.4752  -12.3945   26.3444 C   0  0  0  0  0  0  0  0  0  0  0  0
    6.4706  -11.4412   26.3698 C   0  0  0  0  0  0  0  0  0  0  0  0
    7.7935  -11.8168   26.5731 C   0  0  0  0  0  0  0  0  0  0  0  0
    8.1216  -13.1362   26.7502 C   0  0  0  0  0  0  0  0  0  0  0  0
    8.8744  -17.4061   26.0932 C   0  0  0  0  0  0  0  0  0  0  0  0
   10.0104  -17.6422   26.8538 O   0  0  0  0  0  0  0  0  0  0  0  0
    8.2698  -18.4000   25.6280 O   0  0  0  0  0  0  0  0  0  0  0  0
  2  3  1  0
  2  1  1  0
  3  4  1  1
  5  3  1  0
  6  5  2  0
  7  5  1  0
  7 11  1  0
  8  9  1  0
  8  7  1  0
  9 10  1  0
 10 11  1  0
 11 12  1  1
 12 14  1  0
 13 12  2  0
 15 14  1  0
 15 16  1  1
 17 16  1  0
 17 22  1  0
 18 17  2  0
 19 18  1  0
 19 20  2  0
 20 21  1  0
 21 22  2  0
 23 15  1  0
 24 23  1  0
 25 23  2  0
M  END
$$$$
