SPF.pdb
     RDKit          3D

 25 26  0  0  1  0  0  0  0  0999 V2000
    4.0970  -17.7990   21.3332 O   0  0  0  0  0  0  0  0  0  0  0  0
    5.4444  -17.7626   21.7200 C   0  0  0  0  0  0  0  0  0  0  0  0
    6.3029  -17.5353   20.4772 C   0  0  2  0  0  0  0  0  0  0  0  0
    6.4426  -18.7326   19.7795 N   0  0  0  0  0  0  0  0  0  0  0  0
    7.5441  -16.8407   20.8787 C   0  0  0  0  0  0  0  0  0  0  0  0
    8.5866  -17.5432   20.8816 O   0  0  0  0  0  0  0  0  0  0  0  0
    7.6240  -15.4910   21.2440 N   0  0  0  0  0  0  0  0  0  0  0  0
    6.5600  -14.5044   21.3846 C   0  0  0  0  0  0  0  0  0  0  0  0
    7.2060  -13.1596   21.3031 C   0  0  0  0  0  0  0  0  0  0  0  0
    8.6327  -13.4632   20.8422 C   0  0  0  0  0  0  0  0  0  0  0  0
    8.8479  -14.7837   21.5683 C   0  0  1  0  0  0  0  0  0  0  0  0
    8.9732  -14.5894   23.0331 C   0  0  0  0  0  0  0  0  0  0  0  0
    8.8721  -13.4566   23.5601 O   0  0  0  0  0  0  0  0  0  0  0  0
    9.2115  -15.7089   23.8455 N   0  0  0  0  0  0  0  0  0  0  0  0
    9.1925  -15.6944   25.2853 C   0  0  1  0  0  0  0  0  0  0  0  0
    7.7379  -15.5269   25.6891 C   0  0  0  0  0  0  0  0  0  0  0  0
    7.3907  -14.1322   25.9923 C   0  0  0  0  0  0  0  0  0  0  0  0
    6.0997  -13.6848   25.7818 C   0  0  0  0  0  0  0  0  0  0  0  0
    5.7480  -12.3813   26.0622 C   0  0  0  0  0  0  0  0  0  0  0  0
    6.7084  -11.5258   26.5583 C   0  0  0  0  0  0  0  0  0  0  0  0
    8.0060  -11.9779   26.7691 C   0  0  0  0  0  0  0  0  0  0  0  0
    8.3437  -13.2763   26.4865 C   0  0  0  0  0  0  0  0  0  0  0  0
    9.7966  -16.9461   25.7827 C   0  0  0  0  0  0  0  0  0  0  0  0
   10.1466  -18.0060   24.9586 O   0  0  0  0  0  0  0  0  0  0  0  0
   10.0090  -17.0707   27.0113 O   0  0  0  0  0  0  0  0  0  0  0  0
  2  3  1  0
  2  1  1  0
  3  4  1  1
  5  3  1  0
  6  5  2  0
  7  5  1  0
  7 11  1  0
  8  9  1  0
  8  7  1  0
  9 10  1  0
 10 11  1  0
 11 12  1  1
 12 14  1  0
 13 12  2  0
 15 14  1  0
 15 16  1  6
 17 16  1  0
 17 22  1  0
 18 17  2  0
 19 18  1  0
 19 20  2  0
 20 21  1  0
 21 22  2  0
 23 15  1  0
 24 23  1  0
 25 23  2  0
M  END
$$$$
