SPF.pdb
     RDKit          3D

 25 26  0  0  1  0  0  0  0  0999 V2000
   10.6876  -13.4217   19.8161 O   0  0  0  0  0  0  0  0  0  0  0  0
    9.8659  -14.2147   19.0021 C   0  0  0  0  0  0  0  0  0  0  0  0
    8.4275  -13.7166   19.1282 C   0  0  2  0  0  0  0  0  0  0  0  0
    8.3811  -12.3494   18.8662 N   0  0  0  0  0  0  0  0  0  0  0  0
    7.8789  -14.1737   20.4221 C   0  0  0  0  0  0  0  0  0  0  0  0
    7.4577  -13.2691   21.1869 O   0  0  0  0  0  0  0  0  0  0  0  0
    7.8034  -15.5106   20.8323 N   0  0  0  0  0  0  0  0  0  0  0  0
    8.4051  -16.6979   20.2376 C   0  0  0  0  0  0  0  0  0  0  0  0
    7.6341  -17.8723   20.7460 C   0  0  0  0  0  0  0  0  0  0  0  0
    6.4179  -17.2463   21.4312 C   0  0  0  0  0  0  0  0  0  0  0  0
    7.0720  -15.9902   21.9892 C   0  0  1  0  0  0  0  0  0  0  0  0
    7.9964  -16.3035   23.1057 C   0  0  0  0  0  0  0  0  0  0  0  0
    9.1744  -16.6804   22.9018 O   0  0  0  0  0  0  0  0  0  0  0  0
    7.5330  -16.1723   24.4240 N   0  0  0  0  0  0  0  0  0  0  0  0
    8.3793  -16.1199   25.5879 C   0  0  1  0  0  0  0  0  0  0  0  0
    7.5184  -15.5764   26.7149 C   0  0  0  0  0  0  0  0  0  0  0  0
    7.2669  -14.1344   26.5915 C   0  0  0  0  0  0  0  0  0  0  0  0
    5.9690  -13.6591   26.6181 C   0  0  0  0  0  0  0  0  0  0  0  0
    5.7072  -12.3098   26.5081 C   0  0  0  0  0  0  0  0  0  0  0  0
    6.7650  -11.4366   26.3702 C   0  0  0  0  0  0  0  0  0  0  0  0
    8.0693  -11.9168   26.3435 C   0  0  0  0  0  0  0  0  0  0  0  0
    8.3171  -13.2608   26.4539 C   0  0  0  0  0  0  0  0  0  0  0  0
    8.9065  -17.4725   25.8554 C   0  0  0  0  0  0  0  0  0  0  0  0
    8.4333  -18.6153   25.2269 O   0  0  0  0  0  0  0  0  0  0  0  0
    9.8292  -17.6093   26.6919 O   0  0  0  0  0  0  0  0  0  0  0  0
  2  3  1  0
  2  1  1  0
  3  4  1  1
  5  3  1  0
  6  5  2  0
  7  5  1  0
  7 11  1  0
  8  9  1  0
  8  7  1  0
  9 10  1  0
 10 11  1  0
 11 12  1  1
 12 14  1  0
 13 12  2  0
 15 14  1  0
 15 16  1  1
 17 16  1  0
 17 22  1  0
 18 17  2  0
 19 18  1  0
 19 20  2  0
 20 21  1  0
 21 22  2  0
 23 15  1  0
 24 23  1  0
 25 23  2  0
M  END
$$$$
