SPF.pdb
     RDKit          3D

 25 26  0  0  1  0  0  0  0  0999 V2000
    6.0761  -18.4533   21.7152 O   0  0  0  0  0  0  0  0  0  0  0  0
    5.6663  -17.5990   20.6815 C   0  0  0  0  0  0  0  0  0  0  0  0
    6.8424  -17.3842   19.7308 C   0  0  2  0  0  0  0  0  0  0  0  0
    7.2096  -18.5999   19.1586 N   0  0  0  0  0  0  0  0  0  0  0  0
    7.8951  -16.6288   20.4417 C   0  0  0  0  0  0  0  0  0  0  0  0
    8.9726  -17.2462   20.6374 O   0  0  0  0  0  0  0  0  0  0  0  0
    7.7667  -15.3099   20.8950 N   0  0  0  0  0  0  0  0  0  0  0  0
    6.6119  -14.4215   20.8462 C   0  0  0  0  0  0  0  0  0  0  0  0
    7.1330  -13.0292   20.9950 C   0  0  0  0  0  0  0  0  0  0  0  0
    8.6484  -13.1858   20.8562 C   0  0  0  0  0  0  0  0  0  0  0  0
    8.8167  -14.5391   21.5326 C   0  0  1  0  0  0  0  0  0  0  0  0
    8.5933  -14.4518   22.9961 C   0  0  0  0  0  0  0  0  0  0  0  0
    8.0921  -13.4333   23.5279 O   0  0  0  0  0  0  0  0  0  0  0  0
    8.9552  -15.5428   23.8014 N   0  0  0  0  0  0  0  0  0  0  0  0
    9.2726  -15.4558   25.2033 C   0  0  1  0  0  0  0  0  0  0  0  0
    7.9462  -15.4942   25.9422 C   0  0  0  0  0  0  0  0  0  0  0  0
    7.3936  -14.1550   26.1852 C   0  0  0  0  0  0  0  0  0  0  0  0
    8.2055  -13.1595   26.6960 C   0  0  0  0  0  0  0  0  0  0  0  0
    7.7115  -11.8935   26.9291 C   0  0  0  0  0  0  0  0  0  0  0  0
    6.3881  -11.6335   26.6438 C   0  0  0  0  0  0  0  0  0  0  0  0
    5.5734  -12.6361   26.1303 C   0  0  0  0  0  0  0  0  0  0  0  0
    6.0762  -13.8912   25.9026 C   0  0  0  0  0  0  0  0  0  0  0  0
   10.1719  -16.5711   25.5586 C   0  0  0  0  0  0  0  0  0  0  0  0
   10.8419  -16.6564   26.7705 O   0  0  0  0  0  0  0  0  0  0  0  0
   10.3484  -17.4952   24.7310 O   0  0  0  0  0  0  0  0  0  0  0  0
  2  3  1  0
  2  1  1  0
  3  4  1  1
  5  3  1  0
  6  5  2  0
  7  5  1  0
  7 11  1  0
  8  9  1  0
  8  7  1  0
  9 10  1  0
 10 11  1  0
 11 12  1  1
 12 14  1  0
 13 12  2  0
 15 14  1  0
 15 16  1  1
 17 16  1  0
 17 22  1  0
 18 17  2  0
 19 18  1  0
 19 20  2  0
 20 21  1  0
 21 22  2  0
 23 15  1  0
 24 23  1  0
 25 23  2  0
M  END
$$$$
