SPF.pdb
     RDKit          3D

 25 26  0  0  1  0  0  0  0  0999 V2000
   10.6195  -13.4913   19.8152 O   0  0  0  0  0  0  0  0  0  0  0  0
    9.7745  -14.2288   18.9734 C   0  0  0  0  0  0  0  0  0  0  0  0
    8.3459  -13.7163   19.1455 C   0  0  2  0  0  0  0  0  0  0  0  0
    8.3053  -12.3481   18.8879 N   0  0  0  0  0  0  0  0  0  0  0  0
    7.8336  -14.1708   20.4552 C   0  0  0  0  0  0  0  0  0  0  0  0
    7.4458  -13.2637   21.2345 O   0  0  0  0  0  0  0  0  0  0  0  0
    7.7575  -15.5078   20.8650 N   0  0  0  0  0  0  0  0  0  0  0  0
    8.3513  -16.6963   20.2649 C   0  0  0  0  0  0  0  0  0  0  0  0
    7.5809  -17.8689   20.7784 C   0  0  0  0  0  0  0  0  0  0  0  0
    6.3718  -17.2400   21.4732 C   0  0  0  0  0  0  0  0  0  0  0  0
    7.0337  -15.9861   22.0272 C   0  0  1  0  0  0  0  0  0  0  0  0
    7.9657  -16.3029   23.1363 C   0  0  0  0  0  0  0  0  0  0  0  0
    9.1389  -16.6892   22.9231 O   0  0  0  0  0  0  0  0  0  0  0  0
    7.5151  -16.1641   24.4583 N   0  0  0  0  0  0  0  0  0  0  0  0
    8.3735  -16.0884   25.6120 C   0  0  1  0  0  0  0  0  0  0  0  0
    7.5270  -15.5129   26.7341 C   0  0  0  0  0  0  0  0  0  0  0  0
    7.3061  -14.0674   26.5936 C   0  0  0  0  0  0  0  0  0  0  0  0
    6.0235  -13.5579   26.6739 C   0  0  0  0  0  0  0  0  0  0  0  0
    5.7907  -12.2046   26.5491 C   0  0  0  0  0  0  0  0  0  0  0  0
    6.8620  -11.3622   26.3418 C   0  0  0  0  0  0  0  0  0  0  0  0
    8.1509  -11.8768   26.2613 C   0  0  0  0  0  0  0  0  0  0  0  0
    8.3699  -13.2244   26.3870 C   0  0  0  0  0  0  0  0  0  0  0  0
    8.8959  -17.4371   25.9069 C   0  0  0  0  0  0  0  0  0  0  0  0
   10.0517  -17.6658   26.6396 O   0  0  0  0  0  0  0  0  0  0  0  0
    8.2725  -18.4360   25.4784 O   0  0  0  0  0  0  0  0  0  0  0  0
  2  3  1  0
  2  1  1  0
  3  4  1  1
  5  3  1  0
  6  5  2  0
  7  5  1  0
  7 11  1  0
  8  9  1  0
  8  7  1  0
  9 10  1  0
 10 11  1  0
 11 12  1  1
 12 14  1  0
 13 12  2  0
 15 14  1  0
 15 16  1  1
 17 16  1  0
 17 22  1  0
 18 17  2  0
 19 18  1  0
 19 20  2  0
 20 21  1  0
 21 22  2  0
 23 15  1  0
 24 23  1  0
 25 23  2  0
M  END
$$$$
