AKI.pdb
     RDKit          3D

 23 22  0  0  1  0  0  0  0  0999 V2000
   24.7029  -18.3882  -18.5728 C   0  0  0  0  0  0  0  0  0  0  0  0
   24.7983  -19.7001  -17.8214 C   0  0  2  0  0  0  0  0  0  0  0  0
   23.9219  -20.6577  -18.4242 N   0  0  0  0  0  0  0  0  0  0  0  0
   24.5053  -19.5382  -16.3757 C   0  0  0  0  0  0  0  0  0  0  0  0
   25.2037  -18.7270  -15.7210 O   0  0  0  0  0  0  0  0  0  0  0  0
   23.4774  -20.2591  -15.7182 N   0  0  0  0  0  0  0  0  0  0  0  0
   23.1499  -20.0264  -14.3146 C   0  0  1  0  0  0  0  0  0  0  0  0
   21.6907  -20.3498  -14.1232 C   0  0  0  0  0  0  0  0  0  0  0  0
   20.7475  -19.3206  -14.6358 C   0  0  0  0  0  0  0  0  0  0  0  0
   19.3073  -19.7433  -14.4398 C   0  0  0  0  0  0  0  0  0  0  0  0
   18.3564  -18.6603  -14.9542 C   0  0  0  0  0  0  0  0  0  0  0  0
   16.9844  -19.0273  -14.6879 N   0  0  0  0  0  0  0  0  0  0  0  0
   24.0322  -20.7872  -13.4149 C   0  0  0  0  0  0  0  0  0  0  0  0
   24.1113  -22.0270  -13.5569 O   0  0  0  0  0  0  0  0  0  0  0  0
   29.0663  -19.9374  -12.9405 C   0  0  0  0  0  0  0  0  0  0  0  0
   27.6680  -20.5131  -12.9651 C   0  0  0  0  0  0  0  0  0  0  0  0
   27.0896  -20.5843  -11.5765 C   0  0  2  0  0  0  0  0  0  0  0  0
   27.9652  -21.3802  -10.6695 C   0  0  0  0  0  0  0  0  0  0  0  0
   25.6473  -21.0186  -11.5814 C   0  0  2  0  0  0  0  0  0  0  0  0
   24.8069  -20.1900  -12.3847 N   0  0  0  0  0  0  0  0  0  0  0  0
   25.1993  -20.9851  -10.1431 C   0  0  0  0  0  0  0  0  0  0  0  0
   25.3871  -22.0336   -9.2775 O   0  0  0  0  0  0  0  0  0  0  0  0
   24.6298  -19.9508   -9.7226 O   0  0  0  0  0  0  0  0  0  0  0  0
  2  1  1  6
  2  3  1  0
  4  5  2  0
  4  2  1  0
  6  4  1  0
  7  6  1  0
  7  8  1  6
  9 10  1  0
  9  8  1  0
 10 11  1  0
 11 12  1  0
 13  7  1  0
 13 20  1  0
 14 13  2  0
 16 15  1  0
 17 16  1  0
 17 19  1  0
 17 18  1  1
 19 20  1  6
 19 21  1  0
 21 22  1  0
 23 21  2  0
M  END
$$$$
