AKI.pdb
     RDKit          3D

 23 22  0  0  1  0  0  0  0  0999 V2000
   27.9980  -18.8387  -16.0135 C   0  0  0  0  0  0  0  0  0  0  0  0
   28.2810  -19.7283  -14.8205 C   0  0  2  0  0  0  0  0  0  0  0  0
   28.2272  -21.0996  -15.2271 N   0  0  0  0  0  0  0  0  0  0  0  0
   27.3517  -19.4644  -13.6942 C   0  0  0  0  0  0  0  0  0  0  0  0
   27.2899  -18.2949  -13.2439 O   0  0  0  0  0  0  0  0  0  0  0  0
   26.5424  -20.4749  -13.1175 N   0  0  0  0  0  0  0  0  0  0  0  0
   25.5809  -20.1811  -12.0589 C   0  0  1  0  0  0  0  0  0  0  0  0
   24.2267  -20.6501  -12.5245 C   0  0  0  0  0  0  0  0  0  0  0  0
   23.1217  -20.4410  -11.5513 C   0  0  0  0  0  0  0  0  0  0  0  0
   21.8051  -20.9590  -12.0896 C   0  0  0  0  0  0  0  0  0  0  0  0
   20.6797  -20.7098  -11.0831 C   0  0  0  0  0  0  0  0  0  0  0  0
   19.4396  -21.2734  -11.5648 N   0  0  0  0  0  0  0  0  0  0  0  0
   25.9860  -20.7735  -10.7738 C   0  0  0  0  0  0  0  0  0  0  0  0
   26.4256  -21.9441  -10.7631 O   0  0  0  0  0  0  0  0  0  0  0  0
   29.0874  -19.9866   -5.7560 C   0  0  0  0  0  0  0  0  0  0  0  0
   27.9371  -20.7224   -6.4063 C   0  0  0  0  0  0  0  0  0  0  0  0
   27.4481  -19.9878   -7.6266 C   0  0  2  0  0  0  0  0  0  0  0  0
   27.0993  -18.5756   -7.3001 C   0  0  0  0  0  0  0  0  0  0  0  0
   26.3622  -20.7417   -8.3486 C   0  0  2  0  0  0  0  0  0  0  0  0
   25.9064  -20.0871   -9.5325 N   0  0  0  0  0  0  0  0  0  0  0  0
   25.2334  -20.8897   -7.3614 C   0  0  0  0  0  0  0  0  0  0  0  0
   25.3346  -21.6424   -6.2182 O   0  0  0  0  0  0  0  0  0  0  0  0
   24.1552  -20.2966   -7.5992 O   0  0  0  0  0  0  0  0  0  0  0  0
  2  1  1  6
  2  3  1  0
  4  5  2  0
  4  2  1  0
  6  4  1  0
  7  6  1  0
  7  8  1  6
  9 10  1  0
  9  8  1  0
 10 11  1  0
 11 12  1  0
 13  7  1  0
 13 20  1  0
 14 13  2  0
 16 15  1  0
 17 16  1  0
 17 19  1  0
 17 18  1  1
 19 20  1  6
 19 21  1  0
 21 22  1  0
 23 21  2  0
M  END
$$$$
