AKI.pdb
     RDKit          3D

 23 22  0  0  1  0  0  0  0  0999 V2000
   27.7483  -23.0821  -17.4490 C   0  0  0  0  0  0  0  0  0  0  0  0
   27.2256  -21.7272  -17.0179 C   0  0  2  0  0  0  0  0  0  0  0  0
   28.3136  -20.9271  -16.5438 N   0  0  0  0  0  0  0  0  0  0  0  0
   26.1561  -21.8406  -15.9956 C   0  0  0  0  0  0  0  0  0  0  0  0
   25.1613  -22.5577  -16.2617 O   0  0  0  0  0  0  0  0  0  0  0  0
   26.2191  -21.1756  -14.7456 N   0  0  0  0  0  0  0  0  0  0  0  0
   25.1310  -21.2544  -13.7753 C   0  0  1  0  0  0  0  0  0  0  0  0
   25.6968  -20.9132  -12.4211 C   0  0  0  0  0  0  0  0  0  0  0  0
   24.7468  -21.0675  -11.2873 C   0  0  0  0  0  0  0  0  0  0  0  0
   25.4146  -20.7704   -9.9618 C   0  0  0  0  0  0  0  0  0  0  0  0
   24.4292  -20.9723   -8.8085 C   0  0  0  0  0  0  0  0  0  0  0  0
   25.0261  -20.5608   -7.5586 N   0  0  0  0  0  0  0  0  0  0  0  0
   23.9955  -20.3996  -14.1581 C   0  0  0  0  0  0  0  0  0  0  0  0
   24.2289  -19.2693  -14.6392 O   0  0  0  0  0  0  0  0  0  0  0  0
   20.6076  -18.9196  -18.1059 C   0  0  0  0  0  0  0  0  0  0  0  0
   20.5173  -19.0226  -16.5997 C   0  0  0  0  0  0  0  0  0  0  0  0
   21.5725  -19.9507  -16.0583 C   0  0  2  0  0  0  0  0  0  0  0  0
   21.4577  -21.3076  -16.6652 C   0  0  0  0  0  0  0  0  0  0  0  0
   21.6154  -19.9485  -14.5527 C   0  0  2  0  0  0  0  0  0  0  0  0
   22.6365  -20.7869  -14.0119 N   0  0  0  0  0  0  0  0  0  0  0  0
   20.2564  -20.4148  -14.0985 C   0  0  0  0  0  0  0  0  0  0  0  0
   20.0586  -21.5902  -13.4181 O   0  0  0  0  0  0  0  0  0  0  0  0
   19.2644  -19.6930  -14.3560 O   0  0  0  0  0  0  0  0  0  0  0  0
  2  1  1  1
  2  3  1  0
  4  5  2  0
  4  2  1  0
  6  4  1  0
  7  6  1  0
  7  8  1  1
  9 10  1  0
  9  8  1  0
 10 11  1  0
 11 12  1  0
 13  7  1  0
 13 20  1  0
 14 13  2  0
 16 15  1  0
 17 16  1  0
 17 19  1  0
 17 18  1  1
 19 20  1  6
 19 21  1  0
 21 22  1  0
 23 21  2  0
M  END
$$$$
