AKI.pdb
     RDKit          3D

 23 22  0  0  1  0  0  0  0  0999 V2000
   20.7979  -12.4031  -16.4496 C   0  0  0  0  0  0  0  0  0  0  0  0
   19.3019  -12.1818  -16.3619 C   0  0  2  0  0  0  0  0  0  0  0  0
   18.6599  -12.8331  -17.4629 N   0  0  0  0  0  0  0  0  0  0  0  0
   18.9525  -10.7404  -16.3118 C   0  0  0  0  0  0  0  0  0  0  0  0
   19.4081   -9.9929  -17.2108 O   0  0  0  0  0  0  0  0  0  0  0  0
   18.1329  -10.1868  -15.2967 N   0  0  0  0  0  0  0  0  0  0  0  0
   17.7584   -8.7757  -15.2932 C   0  0  1  0  0  0  0  0  0  0  0  0
   16.3541   -8.6740  -14.7564 C   0  0  0  0  0  0  0  0  0  0  0  0
   15.2905   -9.1263  -15.6922 C   0  0  0  0  0  0  0  0  0  0  0  0
   13.9165   -9.0042  -15.0688 C   0  0  0  0  0  0  0  0  0  0  0  0
   12.8418   -9.4970  -16.0403 C   0  0  0  0  0  0  0  0  0  0  0  0
   11.5286   -9.3471  -15.4565 N   0  0  0  0  0  0  0  0  0  0  0  0
   18.7238   -7.9568  -14.5421 C   0  0  0  0  0  0  0  0  0  0  0  0
   18.9900   -8.2721  -13.3618 O   0  0  0  0  0  0  0  0  0  0  0  0
   23.6235   -7.6050  -15.2403 C   0  0  0  0  0  0  0  0  0  0  0  0
   22.1824   -7.5589  -14.7838 C   0  0  0  0  0  0  0  0  0  0  0  0
   21.6979   -6.1376  -14.6702 C   0  0  2  0  0  0  0  0  0  0  0  0
   22.6227   -5.3194  -13.8347 C   0  0  0  0  0  0  0  0  0  0  0  0
   20.2534   -6.0596  -14.2506 C   0  0  2  0  0  0  0  0  0  0  0  0
   19.3774   -6.8181  -15.0845 N   0  0  0  0  0  0  0  0  0  0  0  0
   19.8872   -4.5986  -14.2941 C   0  0  0  0  0  0  0  0  0  0  0  0
   20.0936   -3.7449  -13.2394 O   0  0  0  0  0  0  0  0  0  0  0  0
   19.3711   -4.1469  -15.3432 O   0  0  0  0  0  0  0  0  0  0  0  0
  2  1  1  6
  2  3  1  0
  4  5  2  0
  4  2  1  0
  6  4  1  0
  7  6  1  0
  7  8  1  1
  9 10  1  0
  9  8  1  0
 10 11  1  0
 11 12  1  0
 13  7  1  0
 13 20  1  0
 14 13  2  0
 16 15  1  0
 17 16  1  0
 17 19  1  0
 17 18  1  1
 19 20  1  6
 19 21  1  0
 21 22  1  0
 23 21  2  0
M  END
$$$$
