AKI.pdb
     RDKit          3D

 23 22  0  0  1  0  0  0  0  0999 V2000
   28.0083  -22.7116  -18.0437 C   0  0  0  0  0  0  0  0  0  0  0  0
   27.6810  -22.7740  -16.5659 C   0  0  2  0  0  0  0  0  0  0  0  0
   28.4263  -23.8344  -15.9587 N   0  0  0  0  0  0  0  0  0  0  0  0
   26.2257  -22.9315  -16.3224 C   0  0  0  0  0  0  0  0  0  0  0  0
   25.4349  -22.2603  -17.0285 O   0  0  0  0  0  0  0  0  0  0  0  0
   25.7056  -23.8026  -15.3328 N   0  0  0  0  0  0  0  0  0  0  0  0
   24.2694  -23.9616  -15.1243 C   0  0  1  0  0  0  0  0  0  0  0  0
   24.0547  -25.2421  -14.3597 C   0  0  0  0  0  0  0  0  0  0  0  0
   22.6322  -25.5776  -14.0847 C   0  0  0  0  0  0  0  0  0  0  0  0
   22.5092  -26.8673  -13.3018 C   0  0  0  0  0  0  0  0  0  0  0  0
   21.0371  -27.2189  -13.0765 C   0  0  0  0  0  0  0  0  0  0  0  0
   20.9212  -28.3679  -12.2081 N   0  0  0  0  0  0  0  0  0  0  0  0
   23.6811  -22.7874  -14.4597 C   0  0  0  0  0  0  0  0  0  0  0  0
   24.1867  -22.3864  -13.3886 O   0  0  0  0  0  0  0  0  0  0  0  0
   23.2720  -18.1766  -16.5685 C   0  0  0  0  0  0  0  0  0  0  0  0
   23.3723  -19.3556  -15.6266 C   0  0  0  0  0  0  0  0  0  0  0  0
   22.0305  -19.6811  -15.0253 C   0  0  2  0  0  0  0  0  0  0  0  0
   21.4763  -18.5130  -14.2831 C   0  0  0  0  0  0  0  0  0  0  0  0
   22.0568  -20.9615  -14.2323 C   0  0  2  0  0  0  0  0  0  0  0  0
   22.5618  -22.0757  -14.9683 N   0  0  0  0  0  0  0  0  0  0  0  0
   20.6339  -21.2141  -13.8055 C   0  0  0  0  0  0  0  0  0  0  0  0
   19.7992  -22.0820  -14.4640 O   0  0  0  0  0  0  0  0  0  0  0  0
   20.1972  -20.6015  -12.8029 O   0  0  0  0  0  0  0  0  0  0  0  0
  2  1  1  6
  2  3  1  0
  4  5  2  0
  4  2  1  0
  6  4  1  0
  7  6  1  0
  7  8  1  1
  9 10  1  0
  9  8  1  0
 10 11  1  0
 11 12  1  0
 13  7  1  0
 13 20  1  0
 14 13  2  0
 16 15  1  0
 17 16  1  0
 17 19  1  0
 17 18  1  1
 19 20  1  6
 19 21  1  0
 21 22  1  0
 23 21  2  0
M  END
$$$$
