AKI.pdb
     RDKit          3D

 23 22  0  0  1  0  0  0  0  0999 V2000
   12.6716  -11.8527  -13.2181 C   0  0  0  0  0  0  0  0  0  0  0  0
   14.1377  -12.1335  -13.4753 C   0  0  2  0  0  0  0  0  0  0  0  0
   14.4022  -13.5220  -13.2500 N   0  0  0  0  0  0  0  0  0  0  0  0
   15.0238  -11.2764  -12.6494 C   0  0  0  0  0  0  0  0  0  0  0  0
   15.1036  -11.5231  -11.4217 O   0  0  0  0  0  0  0  0  0  0  0  0
   15.7729  -10.2029  -13.1927 N   0  0  0  0  0  0  0  0  0  0  0  0
   16.7150   -9.4343  -12.3845 C   0  0  1  0  0  0  0  0  0  0  0  0
   17.8309   -8.9781  -13.2886 C   0  0  0  0  0  0  0  0  0  0  0  0
   18.8882   -8.1719  -12.6223 C   0  0  0  0  0  0  0  0  0  0  0  0
   19.8546   -7.5863  -13.6295 C   0  0  0  0  0  0  0  0  0  0  0  0
   20.9466   -6.7830  -12.9197 C   0  0  0  0  0  0  0  0  0  0  0  0
   21.7385   -6.0509  -13.8813 N   0  0  0  0  0  0  0  0  0  0  0  0
   16.0519   -8.3241  -11.6814 C   0  0  0  0  0  0  0  0  0  0  0  0
   15.3805   -7.5060  -12.3473 O   0  0  0  0  0  0  0  0  0  0  0  0
   12.2811   -8.4813   -8.2569 C   0  0  0  0  0  0  0  0  0  0  0  0
   13.2734   -8.0474   -9.3125 C   0  0  0  0  0  0  0  0  0  0  0  0
   14.4385   -7.3226   -8.6919 C   0  0  2  0  0  0  0  0  0  0  0  0
   13.9773   -6.1655   -7.8728 C   0  0  0  0  0  0  0  0  0  0  0  0
   15.5006   -6.9797   -9.7034 C   0  0  2  0  0  0  0  0  0  0  0  0
   16.1304   -8.1253  -10.2770 N   0  0  0  0  0  0  0  0  0  0  0  0
   16.5114   -6.1341   -8.9727 C   0  0  0  0  0  0  0  0  0  0  0  0
   17.7627   -6.5879   -8.6378 O   0  0  0  0  0  0  0  0  0  0  0  0
   16.1905   -4.9639   -8.6586 O   0  0  0  0  0  0  0  0  0  0  0  0
  2  1  1  1
  2  3  1  0
  4  5  2  0
  4  2  1  0
  6  4  1  0
  7  6  1  0
  7  8  1  6
  9 10  1  0
  9  8  1  0
 10 11  1  0
 11 12  1  0
 13  7  1  0
 13 20  1  0
 14 13  2  0
 16 15  1  0
 17 16  1  0
 17 19  1  0
 17 18  1  6
 19 20  1  1
 19 21  1  0
 21 22  1  0
 23 21  2  0
M  END
$$$$
