AKI.pdb
     RDKit          3D

 23 22  0  0  1  0  0  0  0  0999 V2000
   24.2883  -10.7633  -20.0677 C   0  0  0  0  0  0  0  0  0  0  0  0
   23.3391  -11.4778  -19.1279 C   0  0  2  0  0  0  0  0  0  0  0  0
   22.6596  -12.5176  -19.8391 N   0  0  0  0  0  0  0  0  0  0  0  0
   22.3771  -10.5451  -18.4903 C   0  0  0  0  0  0  0  0  0  0  0  0
   22.2923   -9.3811  -18.9512 O   0  0  0  0  0  0  0  0  0  0  0  0
   21.5618  -10.9192  -17.3930 N   0  0  0  0  0  0  0  0  0  0  0  0
   20.4903  -10.0584  -16.9006 C   0  0  1  0  0  0  0  0  0  0  0  0
   19.3020  -10.9328  -16.5943 C   0  0  0  0  0  0  0  0  0  0  0  0
   18.1291  -10.2194  -16.0223 C   0  0  0  0  0  0  0  0  0  0  0  0
   16.9937  -11.1741  -15.7213 C   0  0  0  0  0  0  0  0  0  0  0  0
   15.7896  -10.4146  -15.1603 C   0  0  0  0  0  0  0  0  0  0  0  0
   14.6348  -11.2805  -15.0935 N   0  0  0  0  0  0  0  0  0  0  0  0
   20.9245   -9.2510  -15.7490 C   0  0  0  0  0  0  0  0  0  0  0  0
   21.6549   -9.7815  -14.8838 O   0  0  0  0  0  0  0  0  0  0  0  0
   23.5255   -4.8116  -16.1306 C   0  0  0  0  0  0  0  0  0  0  0  0
   22.8862   -6.1259  -15.7421 C   0  0  0  0  0  0  0  0  0  0  0  0
   21.7656   -5.9108  -14.7593 C   0  0  2  0  0  0  0  0  0  0  0  0
   22.2312   -5.1350  -13.5744 C   0  0  0  0  0  0  0  0  0  0  0  0
   21.0532   -7.1932  -14.4175 C   0  0  2  0  0  0  0  0  0  0  0  0
   20.5592   -7.8911  -15.5607 N   0  0  0  0  0  0  0  0  0  0  0  0
   19.9175   -6.8063  -13.5058 C   0  0  0  0  0  0  0  0  0  0  0  0
   19.9600   -6.9788  -12.1449 O   0  0  0  0  0  0  0  0  0  0  0  0
   18.8895   -6.3046  -14.0181 O   0  0  0  0  0  0  0  0  0  0  0  0
  2  1  1  6
  2  3  1  0
  4  5  2  0
  4  2  1  0
  6  4  1  0
  7  6  1  0
  7  8  1  1
  9 10  1  0
  9  8  1  0
 10 11  1  0
 11 12  1  0
 13  7  1  0
 13 20  1  0
 14 13  2  0
 16 15  1  0
 17 16  1  0
 17 19  1  0
 17 18  1  1
 19 20  1  6
 19 21  1  0
 21 22  1  0
 23 21  2  0
M  END
$$$$
