AKI.pdb
     RDKit          3D

 23 22  0  0  1  0  0  0  0  0999 V2000
   21.3667  -16.0644  -17.1304 C   0  0  0  0  0  0  0  0  0  0  0  0
   20.7107  -15.2987  -18.2610 C   0  0  2  0  0  0  0  0  0  0  0  0
   21.2881  -15.7034  -19.5066 N   0  0  0  0  0  0  0  0  0  0  0  0
   20.8118  -13.8302  -18.0734 C   0  0  0  0  0  0  0  0  0  0  0  0
   21.9088  -13.2781  -18.3309 O   0  0  0  0  0  0  0  0  0  0  0  0
   19.7260  -13.0406  -17.6192 N   0  0  0  0  0  0  0  0  0  0  0  0
   19.8117  -11.5853  -17.5405 C   0  0  1  0  0  0  0  0  0  0  0  0
   18.4074  -11.0459  -17.4531 C   0  0  0  0  0  0  0  0  0  0  0  0
   17.6000  -11.1948  -18.6931 C   0  0  0  0  0  0  0  0  0  0  0  0
   16.2014  -10.6447  -18.5119 C   0  0  0  0  0  0  0  0  0  0  0  0
   15.3820  -10.8329  -19.7905 C   0  0  0  0  0  0  0  0  0  0  0  0
   14.0157  -10.4127  -19.5791 N   0  0  0  0  0  0  0  0  0  0  0  0
   20.6678  -11.1485  -16.4257 C   0  0  0  0  0  0  0  0  0  0  0  0
   20.5395  -11.7071  -15.3143 O   0  0  0  0  0  0  0  0  0  0  0  0
   26.0125  -10.6564  -14.3171 C   0  0  0  0  0  0  0  0  0  0  0  0
   24.6108  -10.0992  -14.2067 C   0  0  0  0  0  0  0  0  0  0  0  0
   23.8576  -10.2739  -15.4990 C   0  0  2  0  0  0  0  0  0  0  0  0
   24.6195   -9.7038  -16.6467 C   0  0  0  0  0  0  0  0  0  0  0  0
   22.4350   -9.7891  -15.3996 C   0  0  2  0  0  0  0  0  0  0  0  0
   21.6409  -10.1197  -16.5389 N   0  0  0  0  0  0  0  0  0  0  0  0
   22.5173   -8.2939  -15.2315 C   0  0  0  0  0  0  0  0  0  0  0  0
   22.7543   -7.6900  -14.0220 O   0  0  0  0  0  0  0  0  0  0  0  0
   22.3618   -7.5731  -16.2450 O   0  0  0  0  0  0  0  0  0  0  0  0
  2  1  1  1
  2  3  1  0
  4  5  2  0
  4  2  1  0
  6  4  1  0
  7  6  1  0
  7  8  1  1
  9 10  1  0
  9  8  1  0
 10 11  1  0
 11 12  1  0
 13  7  1  0
 13 20  1  0
 14 13  2  0
 16 15  1  0
 17 16  1  0
 17 19  1  0
 17 18  1  6
 19 20  1  6
 19 21  1  0
 21 22  1  0
 23 21  2  0
M  END
$$$$
