AKI.pdb
     RDKit          3D

 23 22  0  0  1  0  0  0  0  0999 V2000
   16.9082  -14.0971  -15.8216 C   0  0  0  0  0  0  0  0  0  0  0  0
   17.5001  -13.9095  -17.2033 C   0  0  2  0  0  0  0  0  0  0  0  0
   18.1341  -15.1240  -17.6175 N   0  0  0  0  0  0  0  0  0  0  0  0
   18.4436  -12.7653  -17.2561 C   0  0  0  0  0  0  0  0  0  0  0  0
   19.6348  -12.9688  -16.9184 O   0  0  0  0  0  0  0  0  0  0  0  0
   18.0502  -11.4679  -17.6693 N   0  0  0  0  0  0  0  0  0  0  0  0
   19.0109  -10.3763  -17.7985 C   0  0  1  0  0  0  0  0  0  0  0  0
   18.3549   -9.2783  -18.5951 C   0  0  0  0  0  0  0  0  0  0  0  0
   19.2045   -8.0805  -18.8303 C   0  0  0  0  0  0  0  0  0  0  0  0
   18.4760   -7.0382  -19.6514 C   0  0  0  0  0  0  0  0  0  0  0  0
   19.3937   -5.8489  -19.9432 C   0  0  0  0  0  0  0  0  0  0  0  0
   18.7774   -4.9610  -20.9023 N   0  0  0  0  0  0  0  0  0  0  0  0
   19.5017   -9.9230  -16.4869 C   0  0  0  0  0  0  0  0  0  0  0  0
   18.7275   -9.9699  -15.5061 O   0  0  0  0  0  0  0  0  0  0  0  0
   23.6677  -11.9313  -14.2923 C   0  0  0  0  0  0  0  0  0  0  0  0
   22.3549  -11.2640  -14.6368 C   0  0  0  0  0  0  0  0  0  0  0  0
   22.4484   -9.7706  -14.4676 C   0  0  2  0  0  0  0  0  0  0  0  0
   22.8630   -9.4114  -13.0813 C   0  0  0  0  0  0  0  0  0  0  0  0
   21.2062   -9.0642  -14.9439 C   0  0  2  0  0  0  0  0  0  0  0  0
   20.8160   -9.4306  -16.2673 N   0  0  0  0  0  0  0  0  0  0  0  0
   21.5149   -7.5909  -14.8752 C   0  0  0  0  0  0  0  0  0  0  0  0
   21.3381   -6.8427  -13.7383 O   0  0  0  0  0  0  0  0  0  0  0  0
   21.9529   -7.0274  -15.9056 O   0  0  0  0  0  0  0  0  0  0  0  0
  2  1  1  1
  2  3  1  0
  4  5  2  0
  4  2  1  0
  6  4  1  0
  7  6  1  0
  7  8  1  1
  9 10  1  0
  9  8  1  0
 10 11  1  0
 11 12  1  0
 13  7  1  0
 13 20  1  0
 14 13  2  0
 16 15  1  0
 17 16  1  0
 17 19  1  0
 17 18  1  1
 19 20  1  6
 19 21  1  0
 21 22  1  0
 23 21  2  0
M  END
$$$$
