AKI.pdb
     RDKit          3D

 23 22  0  0  1  0  0  0  0  0999 V2000
   23.3433  -17.5036  -14.5564 C   0  0  0  0  0  0  0  0  0  0  0  0
   22.3574  -17.4670  -15.7058 C   0  0  2  0  0  0  0  0  0  0  0  0
   22.7182  -18.4585  -16.6730 N   0  0  0  0  0  0  0  0  0  0  0  0
   22.2692  -16.1206  -16.3233 C   0  0  0  0  0  0  0  0  0  0  0  0
   23.2944  -15.6612  -16.8823 O   0  0  0  0  0  0  0  0  0  0  0  0
   21.0824  -15.3461  -16.3033 N   0  0  0  0  0  0  0  0  0  0  0  0
   21.0272  -14.0060  -16.8800 C   0  0  1  0  0  0  0  0  0  0  0  0
   19.5771  -13.6563  -17.0928 C   0  0  0  0  0  0  0  0  0  0  0  0
   19.3374  -12.3295  -17.7204 C   0  0  0  0  0  0  0  0  0  0  0  0
   17.8579  -12.0285  -17.8298 C   0  0  0  0  0  0  0  0  0  0  0  0
   17.6356  -10.6710  -18.5003 C   0  0  0  0  0  0  0  0  0  0  0  0
   16.2275  -10.4520  -18.7388 N   0  0  0  0  0  0  0  0  0  0  0  0
   21.7413  -13.0240  -16.0480 C   0  0  0  0  0  0  0  0  0  0  0  0
   21.6396  -13.1024  -14.8042 O   0  0  0  0  0  0  0  0  0  0  0  0
   27.0419  -10.8885  -14.8503 C   0  0  0  0  0  0  0  0  0  0  0  0
   25.5657  -10.5642  -14.7968 C   0  0  0  0  0  0  0  0  0  0  0  0
   24.7936  -11.4014  -15.7820 C   0  0  2  0  0  0  0  0  0  0  0  0
   25.3471  -11.2586  -17.1589 C   0  0  0  0  0  0  0  0  0  0  0  0
   23.3083  -11.1700  -15.6857 C   0  0  2  0  0  0  0  0  0  0  0  0
   22.5473  -11.9821  -16.5799 N   0  0  0  0  0  0  0  0  0  0  0  0
   23.0955   -9.7098  -15.9908 C   0  0  0  0  0  0  0  0  0  0  0  0
   23.3214   -8.7142  -15.0735 O   0  0  0  0  0  0  0  0  0  0  0  0
   22.6940   -9.3948  -17.1357 O   0  0  0  0  0  0  0  0  0  0  0  0
  2  1  1  1
  2  3  1  0
  4  5  2  0
  4  2  1  0
  6  4  1  0
  7  6  1  0
  7  8  1  1
  9 10  1  0
  9  8  1  0
 10 11  1  0
 11 12  1  0
 13  7  1  0
 13 20  1  0
 14 13  2  0
 16 15  1  0
 17 16  1  0
 17 19  1  0
 17 18  1  6
 19 20  1  6
 19 21  1  0
 21 22  1  0
 23 21  2  0
M  END
$$$$
