ESC.pdb
     RDKit          3D

 22 21  0  0  1  0  0  0  0  0999 V2000
   10.9771  -14.8869   18.8181 N   0  0  0  0  0  0  0  0  0  0  0  0
   11.6236  -15.6150   19.8943 C   0  0  1  0  0  0  0  0  0  0  0  0
   12.9772  -15.0310   20.1180 C   0  0  0  0  0  0  0  0  0  0  0  0
   13.8374  -14.9620   18.8966 C   0  0  0  0  0  0  0  0  0  0  0  0
   15.1586  -14.4420   19.3029 C   0  0  0  0  0  0  0  0  0  0  0  0
   16.1858  -14.9160   18.7794 O   0  0  0  0  0  0  0  0  0  0  0  0
   10.7451  -15.6008   21.0657 C   0  0  0  0  0  0  0  0  0  0  0  0
    9.9503  -14.6330   21.3050 O   0  0  0  0  0  0  0  0  0  0  0  0
   15.2778  -13.4467   20.2457 O   0  0  0  0  0  0  0  0  0  0  0  0
   10.2918  -18.9641   23.7142 O   0  0  0  0  0  0  0  0  0  0  0  0
    9.2975  -18.0028   23.5326 C   0  0  0  0  0  0  0  0  0  0  0  0
    9.8676  -16.6604   23.1852 C   0  0  2  0  0  0  0  0  0  0  0  0
   10.6998  -16.6498   22.0281 N   0  0  0  0  0  0  0  0  0  0  0  0
   10.5125  -16.0781   24.3828 C   0  0  0  0  0  0  0  0  0  0  0  0
   11.7633  -16.1025   24.4437 O   0  0  0  0  0  0  0  0  0  0  0  0
    9.7950  -15.4982   25.4578 N   0  0  0  0  0  0  0  0  0  0  0  0
   10.3927  -15.0333   26.6733 C   0  0  1  0  0  0  0  0  0  0  0  0
    9.4627  -14.1733   27.4925 C   0  0  0  0  0  0  0  0  0  0  0  0
   10.2004  -13.6809   29.0605 S   0  0  0  0  0  0  0  0  0  0  0  0
   10.7414  -16.2151   27.5305 C   0  0  0  0  0  0  0  0  0  0  0  0
    9.8484  -17.2591   27.6725 O   0  0  0  0  0  0  0  0  0  0  0  0
   11.8354  -16.2908   28.1345 O   0  0  0  0  0  0  0  0  0  0  0  0
  2  1  1  6
  2  7  1  0
  3  2  1  0
  4  5  1  0
  4  3  1  0
  5  9  1  0
  6  5  2  0
  7 13  1  0
  7  8  2  0
 10 11  1  0
 12 11  1  1
 12 14  1  0
 13 12  1  0
 14 15  2  0
 14 16  1  0
 16 17  1  0
 17 18  1  1
 18 19  1  0
 20 17  1  0
 20 21  1  0
 22 20  2  0
M  END
$$$$
