ESC.pdb
     RDKit          3D

 22 21  0  0  1  0  0  0  0  0999 V2000
   10.0943  -17.3630   20.1607 N   0  0  0  0  0  0  0  0  0  0  0  0
   10.3103  -18.0394   21.4263 C   0  0  1  0  0  0  0  0  0  0  0  0
   11.7648  -18.3365   21.5650 C   0  0  0  0  0  0  0  0  0  0  0  0
   12.6687  -17.3749   20.8616 C   0  0  0  0  0  0  0  0  0  0  0  0
   14.0621  -17.7710   21.1490 C   0  0  0  0  0  0  0  0  0  0  0  0
   14.2767  -18.7038   21.9475 O   0  0  0  0  0  0  0  0  0  0  0  0
    9.7435  -17.2206   22.4998 C   0  0  0  0  0  0  0  0  0  0  0  0
    9.8463  -15.9497   22.5090 O   0  0  0  0  0  0  0  0  0  0  0  0
   15.1257  -17.1321   20.5539 O   0  0  0  0  0  0  0  0  0  0  0  0
    7.7388  -18.8966   25.9294 O   0  0  0  0  0  0  0  0  0  0  0  0
    7.3086  -17.6963   25.3638 C   0  0  0  0  0  0  0  0  0  0  0  0
    8.4111  -16.9893   24.6343 C   0  0  2  0  0  0  0  0  0  0  0  0
    9.0377  -17.7609   23.6127 N   0  0  0  0  0  0  0  0  0  0  0  0
    9.3628  -16.4238   25.6159 C   0  0  0  0  0  0  0  0  0  0  0  0
   10.5115  -16.9204   25.6700 O   0  0  0  0  0  0  0  0  0  0  0  0
    9.0461  -15.3570   26.4925 N   0  0  0  0  0  0  0  0  0  0  0  0
    9.9426  -14.8196   27.4714 C   0  0  1  0  0  0  0  0  0  0  0  0
    9.3845  -13.6075   28.1749 C   0  0  0  0  0  0  0  0  0  0  0  0
    8.5602  -12.4823   27.0348 S   0  0  0  0  0  0  0  0  0  0  0  0
   10.1832  -15.8521   28.5340 C   0  0  0  0  0  0  0  0  0  0  0  0
   11.1548  -15.6486   29.4944 O   0  0  0  0  0  0  0  0  0  0  0  0
    9.5214  -16.9137   28.5828 O   0  0  0  0  0  0  0  0  0  0  0  0
  2  1  1  6
  2  7  1  0
  3  2  1  0
  4  5  1  0
  4  3  1  0
  5  9  1  0
  6  5  2  0
  7 13  1  0
  7  8  2  0
 10 11  1  0
 12 11  1  1
 12 14  1  0
 13 12  1  0
 14 15  2  0
 14 16  1  0
 16 17  1  0
 17 18  1  1
 18 19  1  0
 20 17  1  0
 20 21  1  0
 22 20  2  0
M  END
$$$$
