ESC.pdb
     RDKit          3D

 22 21  0  0  1  0  0  0  0  0999 V2000
   11.2661  -16.4144   19.8761 N   0  0  0  0  0  0  0  0  0  0  0  0
   11.3237  -17.2647   21.0507 C   0  0  1  0  0  0  0  0  0  0  0  0
   12.7348  -17.7019   21.2529 C   0  0  0  0  0  0  0  0  0  0  0  0
   13.4267  -18.1729   20.0136 C   0  0  0  0  0  0  0  0  0  0  0  0
   14.7883  -18.6024   20.3913 C   0  0  0  0  0  0  0  0  0  0  0  0
   14.9601  -19.7513   20.8431 O   0  0  0  0  0  0  0  0  0  0  0  0
   10.7334  -16.5454   22.1812 C   0  0  0  0  0  0  0  0  0  0  0  0
   10.9653  -15.3098   22.3938 O   0  0  0  0  0  0  0  0  0  0  0  0
   15.8687  -17.7611   20.2545 O   0  0  0  0  0  0  0  0  0  0  0  0
    7.9075  -18.3804   24.8264 O   0  0  0  0  0  0  0  0  0  0  0  0
    7.8601  -17.0125   24.5577 C   0  0  0  0  0  0  0  0  0  0  0  0
    9.2061  -16.4624   24.1926 C   0  0  2  0  0  0  0  0  0  0  0  0
    9.8611  -17.1511   23.1304 N   0  0  0  0  0  0  0  0  0  0  0  0
   10.0314  -16.3381   25.4143 C   0  0  0  0  0  0  0  0  0  0  0  0
   11.0279  -17.0887   25.5259 O   0  0  0  0  0  0  0  0  0  0  0  0
    9.7562  -15.4210   26.4583 N   0  0  0  0  0  0  0  0  0  0  0  0
   10.5068  -15.3290   27.6744 C   0  0  1  0  0  0  0  0  0  0  0  0
   10.0945  -14.1575   28.5307 C   0  0  0  0  0  0  0  0  0  0  0  0
   10.0174  -12.6238   27.5887 S   0  0  0  0  0  0  0  0  0  0  0  0
   10.2608  -16.5609   28.4959 C   0  0  0  0  0  0  0  0  0  0  0  0
   10.9894  -16.7859   29.6475 O   0  0  0  0  0  0  0  0  0  0  0  0
    9.4012  -17.4101   28.1686 O   0  0  0  0  0  0  0  0  0  0  0  0
  2  1  1  6
  2  7  1  0
  3  2  1  0
  4  5  1  0
  4  3  1  0
  5  9  1  0
  6  5  2  0
  7 13  1  0
  7  8  2  0
 10 11  1  0
 12 11  1  1
 12 14  1  0
 13 12  1  0
 14 15  2  0
 14 16  1  0
 16 17  1  0
 17 18  1  1
 18 19  1  0
 20 17  1  0
 20 21  1  0
 22 20  2  0
M  END
$$$$
