ESC.pdb
     RDKit          3D

 22 21  0  0  1  0  0  0  0  0999 V2000
   10.4425  -17.1788   19.2184 N   0  0  0  0  0  0  0  0  0  0  0  0
   10.2321  -17.9566   20.4253 C   0  0  1  0  0  0  0  0  0  0  0  0
   11.5052  -18.6514   20.7716 C   0  0  0  0  0  0  0  0  0  0  0  0
   12.4082  -17.8832   21.6831 C   0  0  0  0  0  0  0  0  0  0  0  0
   13.6182  -18.6981   21.9132 C   0  0  0  0  0  0  0  0  0  0  0  0
   13.8297  -19.1654   23.0492 O   0  0  0  0  0  0  0  0  0  0  0  0
    9.7088  -17.0729   21.4690 C   0  0  0  0  0  0  0  0  0  0  0  0
    9.8840  -15.8103   21.4386 O   0  0  0  0  0  0  0  0  0  0  0  0
   14.5148  -18.9510   20.9003 O   0  0  0  0  0  0  0  0  0  0  0  0
    7.0788  -18.5107   24.5201 O   0  0  0  0  0  0  0  0  0  0  0  0
    6.9860  -17.2130   24.0171 C   0  0  0  0  0  0  0  0  0  0  0  0
    8.3102  -16.6971   23.5397 C   0  0  2  0  0  0  0  0  0  0  0  0
    8.9689  -17.5362   22.5944 N   0  0  0  0  0  0  0  0  0  0  0  0
    9.1495  -16.3495   24.7076 C   0  0  0  0  0  0  0  0  0  0  0  0
   10.2271  -16.9699   24.8588 O   0  0  0  0  0  0  0  0  0  0  0  0
    8.8014  -15.3586   25.6582 N   0  0  0  0  0  0  0  0  0  0  0  0
    9.5579  -15.0673   26.8386 C   0  0  1  0  0  0  0  0  0  0  0  0
    8.9740  -13.9335   27.6443 C   0  0  0  0  0  0  0  0  0  0  0  0
    8.7872  -12.4328   26.6653 S   0  0  0  0  0  0  0  0  0  0  0  0
    9.5498  -16.2713   27.7349 C   0  0  0  0  0  0  0  0  0  0  0  0
   10.3457  -16.3040   28.8632 O   0  0  0  0  0  0  0  0  0  0  0  0
    8.8327  -17.2684   27.4921 O   0  0  0  0  0  0  0  0  0  0  0  0
  2  1  1  6
  2  7  1  0
  3  2  1  0
  4  5  1  0
  4  3  1  0
  5  9  1  0
  6  5  2  0
  7 13  1  0
  7  8  2  0
 10 11  1  0
 12 11  1  1
 12 14  1  0
 13 12  1  0
 14 15  2  0
 14 16  1  0
 16 17  1  0
 17 18  1  1
 18 19  1  0
 20 17  1  0
 20 21  1  0
 22 20  2  0
M  END
$$$$
