ESC.pdb
     RDKit          3D

 22 21  0  0  1  0  0  0  0  0999 V2000
   10.7930  -16.8313   19.4905 N   0  0  0  0  0  0  0  0  0  0  0  0
   11.1207  -17.4927   20.7400 C   0  0  1  0  0  0  0  0  0  0  0  0
   12.5991  -17.6732   20.8095 C   0  0  0  0  0  0  0  0  0  0  0  0
   13.2088  -18.3053   19.5990 C   0  0  0  0  0  0  0  0  0  0  0  0
   14.6311  -18.5706   19.8952 C   0  0  0  0  0  0  0  0  0  0  0  0
   14.9391  -19.6010   20.5254 O   0  0  0  0  0  0  0  0  0  0  0  0
   10.5411  -16.7254   21.8443 C   0  0  0  0  0  0  0  0  0  0  0  0
   10.6460  -15.4567   21.9165 O   0  0  0  0  0  0  0  0  0  0  0  0
   15.6209  -17.7045   19.4901 O   0  0  0  0  0  0  0  0  0  0  0  0
    7.3013  -16.2915   25.3992 O   0  0  0  0  0  0  0  0  0  0  0  0
    7.8803  -17.1003   24.4214 C   0  0  0  0  0  0  0  0  0  0  0  0
    9.2285  -16.5981   23.9998 C   0  0  2  0  0  0  0  0  0  0  0  0
    9.8194  -17.3172   22.9203 N   0  0  0  0  0  0  0  0  0  0  0  0
   10.1037  -16.4905   25.1878 C   0  0  0  0  0  0  0  0  0  0  0  0
   10.8720  -17.4479   25.4370 O   0  0  0  0  0  0  0  0  0  0  0  0
   10.1191  -15.3691   26.0534 N   0  0  0  0  0  0  0  0  0  0  0  0
   10.9030  -15.2790   27.2484 C   0  0  1  0  0  0  0  0  0  0  0  0
   10.8570  -13.9088   27.8778 C   0  0  0  0  0  0  0  0  0  0  0  0
    9.1741  -13.2792   28.0076 S   0  0  0  0  0  0  0  0  0  0  0  0
   10.3518  -16.2321   28.2686 C   0  0  0  0  0  0  0  0  0  0  0  0
   11.0638  -16.5071   29.4197 O   0  0  0  0  0  0  0  0  0  0  0  0
    9.2468  -16.7989   28.1111 O   0  0  0  0  0  0  0  0  0  0  0  0
  2  1  1  6
  2  7  1  0
  3  2  1  0
  4  5  1  0
  4  3  1  0
  5  9  1  0
  6  5  2  0
  7 13  1  0
  7  8  2  0
 10 11  1  0
 12 11  1  1
 12 14  1  0
 13 12  1  0
 14 15  2  0
 14 16  1  0
 16 17  1  0
 17 18  1  1
 18 19  1  0
 20 17  1  0
 20 21  1  0
 22 20  2  0
M  END
$$$$
