ESC.pdb
     RDKit          3D

 22 21  0  0  1  0  0  0  0  0999 V2000
   10.0213  -17.8912   19.4947 N   0  0  0  0  0  0  0  0  0  0  0  0
   10.9117  -18.5514   20.4315 C   0  0  1  0  0  0  0  0  0  0  0  0
   12.1500  -18.9564   19.7063 C   0  0  0  0  0  0  0  0  0  0  0  0
   12.8181  -17.8546   18.9474 C   0  0  0  0  0  0  0  0  0  0  0  0
   14.0210  -18.4160   18.3001 C   0  0  0  0  0  0  0  0  0  0  0  0
   14.8112  -17.6492   17.7161 O   0  0  0  0  0  0  0  0  0  0  0  0
   11.1301  -17.6656   21.5767 C   0  0  0  0  0  0  0  0  0  0  0  0
   12.2611  -17.5767   22.1587 O   0  0  0  0  0  0  0  0  0  0  0  0
   14.2858  -19.7661   18.3289 O   0  0  0  0  0  0  0  0  0  0  0  0
    7.9484  -15.6090   23.5936 O   0  0  0  0  0  0  0  0  0  0  0  0
    9.1827  -14.9755   23.4494 C   0  0  0  0  0  0  0  0  0  0  0  0
   10.2984  -15.9549   23.2401 C   0  0  2  0  0  0  0  0  0  0  0  0
   10.1155  -16.8366   22.1353 N   0  0  0  0  0  0  0  0  0  0  0  0
   10.5812  -16.6532   24.5135 C   0  0  0  0  0  0  0  0  0  0  0  0
   10.1825  -17.8346   24.6338 O   0  0  0  0  0  0  0  0  0  0  0  0
   11.2746  -16.0607   25.5973 N   0  0  0  0  0  0  0  0  0  0  0  0
   11.5393  -16.7140   26.8438 C   0  0  1  0  0  0  0  0  0  0  0  0
   12.8687  -16.3231   27.4401 C   0  0  0  0  0  0  0  0  0  0  0  0
   13.2013  -17.1926   28.9823 S   0  0  0  0  0  0  0  0  0  0  0  0
   10.4929  -16.3088   27.8408 C   0  0  0  0  0  0  0  0  0  0  0  0
   10.2933  -17.0588   28.9834 O   0  0  0  0  0  0  0  0  0  0  0  0
    9.7791  -15.2944   27.6711 O   0  0  0  0  0  0  0  0  0  0  0  0
  2  1  1  6
  2  7  1  0
  3  2  1  0
  4  5  1  0
  4  3  1  0
  5  9  1  0
  6  5  2  0
  7 13  1  0
  7  8  2  0
 10 11  1  0
 12 11  1  1
 12 14  1  0
 13 12  1  0
 14 15  2  0
 14 16  1  0
 16 17  1  0
 17 18  1  1
 18 19  1  0
 20 17  1  0
 20 21  1  0
 22 20  2  0
M  END
$$$$
