ESC.pdb
     RDKit          3D

 22 21  0  0  1  0  0  0  0  0999 V2000
   11.1999  -16.8518   19.9443 N   0  0  0  0  0  0  0  0  0  0  0  0
   11.6176  -17.4467   21.2004 C   0  0  1  0  0  0  0  0  0  0  0  0
   13.1063  -17.5287   21.2163 C   0  0  0  0  0  0  0  0  0  0  0  0
   13.7538  -17.3934   19.8751 C   0  0  0  0  0  0  0  0  0  0  0  0
   14.8440  -18.3867   19.7969 C   0  0  0  0  0  0  0  0  0  0  0  0
   14.8182  -19.2482   18.8964 O   0  0  0  0  0  0  0  0  0  0  0  0
   11.0309  -16.6806   22.3017 C   0  0  0  0  0  0  0  0  0  0  0  0
   11.1702  -15.4168   22.3977 O   0  0  0  0  0  0  0  0  0  0  0  0
   15.8852  -18.3799   20.6966 O   0  0  0  0  0  0  0  0  0  0  0  0
    8.0400  -18.3047   24.8217 O   0  0  0  0  0  0  0  0  0  0  0  0
    8.1854  -16.9316   24.6236 C   0  0  0  0  0  0  0  0  0  0  0  0
    9.6146  -16.5437   24.3898 C   0  0  2  0  0  0  0  0  0  0  0  0
   10.2640  -17.2682   23.3482 N   0  0  0  0  0  0  0  0  0  0  0  0
   10.3459  -16.5732   25.6756 C   0  0  0  0  0  0  0  0  0  0  0  0
   11.1771  -17.4930   25.8547 O   0  0  0  0  0  0  0  0  0  0  0  0
   10.1573  -15.6226   26.7088 N   0  0  0  0  0  0  0  0  0  0  0  0
   10.7819  -15.6902   27.9956 C   0  0  1  0  0  0  0  0  0  0  0  0
   10.2978  -14.6175   28.9394 C   0  0  0  0  0  0  0  0  0  0  0  0
   10.3809  -12.9769   28.2000 S   0  0  0  0  0  0  0  0  0  0  0  0
   10.4404  -17.0037   28.6370 C   0  0  0  0  0  0  0  0  0  0  0  0
   11.1429  -17.4412   29.7428 O   0  0  0  0  0  0  0  0  0  0  0  0
    9.5227  -17.7327   28.1972 O   0  0  0  0  0  0  0  0  0  0  0  0
  2  1  1  6
  2  7  1  0
  3  2  1  0
  4  5  1  0
  4  3  1  0
  5  9  1  0
  6  5  2  0
  7 13  1  0
  7  8  2  0
 10 11  1  0
 12 11  1  1
 12 14  1  0
 13 12  1  0
 14 15  2  0
 14 16  1  0
 16 17  1  0
 17 18  1  1
 18 19  1  0
 20 17  1  0
 20 21  1  0
 22 20  2  0
M  END
$$$$
