ESC.pdb
     RDKit          3D

 22 21  0  0  1  0  0  0  0  0999 V2000
   11.2038  -18.1566   21.4125 N   0  0  0  0  0  0  0  0  0  0  0  0
   10.8322  -16.9274   20.7365 C   0  0  1  0  0  0  0  0  0  0  0  0
   10.6295  -17.2228   19.2892 C   0  0  0  0  0  0  0  0  0  0  0  0
   10.7071  -18.6726   18.9306 C   0  0  0  0  0  0  0  0  0  0  0  0
   10.4571  -18.7938   17.4801 C   0  0  0  0  0  0  0  0  0  0  0  0
    9.6307  -19.6337   17.0736 O   0  0  0  0  0  0  0  0  0  0  0  0
    9.6709  -16.3496   21.4160 C   0  0  0  0  0  0  0  0  0  0  0  0
    9.0459  -15.3407   20.9502 O   0  0  0  0  0  0  0  0  0  0  0  0
   11.1171  -17.9995   16.5706 O   0  0  0  0  0  0  0  0  0  0  0  0
    7.8612  -18.0907   24.9454 O   0  0  0  0  0  0  0  0  0  0  0  0
    7.1463  -17.3857   23.9771 C   0  0  0  0  0  0  0  0  0  0  0  0
    7.9878  -16.3455   23.3007 C   0  0  2  0  0  0  0  0  0  0  0  0
    9.1432  -16.8542   22.6390 N   0  0  0  0  0  0  0  0  0  0  0  0
    8.2859  -15.2586   24.2593 C   0  0  0  0  0  0  0  0  0  0  0  0
    9.4404  -15.2050   24.7424 O   0  0  0  0  0  0  0  0  0  0  0  0
    7.3410  -14.2812   24.6577 N   0  0  0  0  0  0  0  0  0  0  0  0
    7.5124  -13.3945   25.7690 C   0  0  1  0  0  0  0  0  0  0  0  0
    6.2301  -12.7140   26.1793 C   0  0  0  0  0  0  0  0  0  0  0  0
    6.5308  -11.1293   26.9815 S   0  0  0  0  0  0  0  0  0  0  0  0
    7.9717  -14.1848   26.9596 C   0  0  0  0  0  0  0  0  0  0  0  0
    7.4745  -15.4533   27.1864 O   0  0  0  0  0  0  0  0  0  0  0  0
    8.8068  -13.7267   27.7720 O   0  0  0  0  0  0  0  0  0  0  0  0
  2  1  1  1
  2  7  1  0
  3  2  1  0
  4  5  1  0
  4  3  1  0
  5  9  1  0
  6  5  2  0
  7 13  1  0
  7  8  2  0
 10 11  1  0
 12 11  1  1
 12 14  1  0
 13 12  1  0
 14 15  2  0
 14 16  1  0
 16 17  1  0
 17 18  1  1
 18 19  1  0
 20 17  1  0
 20 21  1  0
 22 20  2  0
M  END
$$$$
