ESC.pdb
     RDKit          3D

 22 21  0  0  1  0  0  0  0  0999 V2000
   11.2103  -16.6659   20.0197 N   0  0  0  0  0  0  0  0  0  0  0  0
   11.0258  -17.5078   21.1873 C   0  0  1  0  0  0  0  0  0  0  0  0
   12.3351  -18.1297   21.5371 C   0  0  0  0  0  0  0  0  0  0  0  0
   13.5151  -17.2217   21.3976 C   0  0  0  0  0  0  0  0  0  0  0  0
   14.7191  -17.9812   21.7908 C   0  0  0  0  0  0  0  0  0  0  0  0
   15.8309  -17.4187   21.7567 O   0  0  0  0  0  0  0  0  0  0  0  0
   10.4195  -16.7075   22.2530 C   0  0  0  0  0  0  0  0  0  0  0  0
   10.6809  -15.4685   22.4023 O   0  0  0  0  0  0  0  0  0  0  0  0
   14.6379  -19.2947   22.1931 O   0  0  0  0  0  0  0  0  0  0  0  0
    7.7411  -18.3650   25.1971 O   0  0  0  0  0  0  0  0  0  0  0  0
    7.5927  -17.0513   24.7524 C   0  0  0  0  0  0  0  0  0  0  0  0
    8.8820  -16.4785   24.2451 C   0  0  2  0  0  0  0  0  0  0  0  0
    9.4979  -17.2321   23.2039 N   0  0  0  0  0  0  0  0  0  0  0  0
    9.7800  -16.2068   25.3891 C   0  0  0  0  0  0  0  0  0  0  0  0
   10.8903  -16.7863   25.4116 O   0  0  0  0  0  0  0  0  0  0  0  0
    9.4532  -15.3316   26.4540 N   0  0  0  0  0  0  0  0  0  0  0  0
   10.3068  -15.0615   27.5716 C   0  0  1  0  0  0  0  0  0  0  0  0
    9.9190  -13.8083   28.3163 C   0  0  0  0  0  0  0  0  0  0  0  0
    9.6261  -12.4223   27.2033 S   0  0  0  0  0  0  0  0  0  0  0  0
   10.1966  -16.1896   28.5557 C   0  0  0  0  0  0  0  0  0  0  0  0
   11.0466  -16.2499   29.6427 O   0  0  0  0  0  0  0  0  0  0  0  0
    9.3444  -17.0972   28.4246 O   0  0  0  0  0  0  0  0  0  0  0  0
  2  1  1  6
  2  7  1  0
  3  2  1  0
  4  5  1  0
  4  3  1  0
  5  9  1  0
  6  5  2  0
  7 13  1  0
  7  8  2  0
 10 11  1  0
 12 11  1  1
 12 14  1  0
 13 12  1  0
 14 15  2  0
 14 16  1  0
 16 17  1  0
 17 18  1  1
 18 19  1  0
 20 17  1  0
 20 21  1  0
 22 20  2  0
M  END
$$$$
