ESC.pdb
     RDKit          3D

 22 21  0  0  1  0  0  0  0  0999 V2000
   10.2494  -18.5593   20.9144 N   0  0  0  0  0  0  0  0  0  0  0  0
   10.3034  -17.1217   20.7232 C   0  0  1  0  0  0  0  0  0  0  0  0
   10.0196  -16.8212   19.2906 C   0  0  0  0  0  0  0  0  0  0  0  0
    8.8833  -17.5959   18.7030 C   0  0  0  0  0  0  0  0  0  0  0  0
    8.6109  -17.0494   17.3582 C   0  0  0  0  0  0  0  0  0  0  0  0
    7.5884  -17.4175   16.7480 O   0  0  0  0  0  0  0  0  0  0  0  0
    9.3936  -16.4859   21.6781 C   0  0  0  0  0  0  0  0  0  0  0  0
    9.2327  -15.2218   21.7222 O   0  0  0  0  0  0  0  0  0  0  0  0
    9.4620  -16.1438   16.7671 O   0  0  0  0  0  0  0  0  0  0  0  0
    5.8765  -16.9119   25.0628 O   0  0  0  0  0  0  0  0  0  0  0  0
    6.7797  -17.5674   24.2261 C   0  0  0  0  0  0  0  0  0  0  0  0
    7.7584  -16.6198   23.5999 C   0  0  2  0  0  0  0  0  0  0  0  0
    8.6186  -17.2100   22.6288 N   0  0  0  0  0  0  0  0  0  0  0  0
    8.4814  -15.8895   24.6643 C   0  0  0  0  0  0  0  0  0  0  0  0
    9.6144  -16.3088   24.9954 O   0  0  0  0  0  0  0  0  0  0  0  0
    7.9638  -14.7483   25.3251 N   0  0  0  0  0  0  0  0  0  0  0  0
    8.5963  -14.0972   26.4326 C   0  0  1  0  0  0  0  0  0  0  0  0
    7.8245  -12.8991   26.9271 C   0  0  0  0  0  0  0  0  0  0  0  0
    7.0982  -11.9559   25.5749 S   0  0  0  0  0  0  0  0  0  0  0  0
    8.6735  -15.0559   27.5851 C   0  0  0  0  0  0  0  0  0  0  0  0
    9.3291  -14.6962   28.7463 O   0  0  0  0  0  0  0  0  0  0  0  0
    8.1545  -16.1938   27.5312 O   0  0  0  0  0  0  0  0  0  0  0  0
  2  1  1  6
  2  7  1  0
  3  2  1  0
  4  5  1  0
  4  3  1  0
  5  9  1  0
  6  5  2  0
  7 13  1  0
  7  8  2  0
 10 11  1  0
 12 11  1  1
 12 14  1  0
 13 12  1  0
 14 15  2  0
 14 16  1  0
 16 17  1  0
 17 18  1  1
 18 19  1  0
 20 17  1  0
 20 21  1  0
 22 20  2  0
M  END
$$$$
