ESC.pdb
     RDKit          3D

 22 21  0  0  1  0  0  0  0  0999 V2000
   10.1779  -21.1760   20.2771 N   0  0  0  0  0  0  0  0  0  0  0  0
   11.6165  -21.1438   20.4652 C   0  0  1  0  0  0  0  0  0  0  0  0
   12.2492  -20.6427   19.2115 C   0  0  0  0  0  0  0  0  0  0  0  0
   11.2859  -20.2887   18.1238 C   0  0  0  0  0  0  0  0  0  0  0  0
   12.0685  -19.8342   16.9567 C   0  0  0  0  0  0  0  0  0  0  0  0
   12.8251  -20.6401   16.3807 O   0  0  0  0  0  0  0  0  0  0  0  0
   11.9166  -20.3580   21.6636 C   0  0  0  0  0  0  0  0  0  0  0  0
   13.1082  -20.0321   21.9795 O   0  0  0  0  0  0  0  0  0  0  0  0
   11.9792  -18.5413   16.4938 O   0  0  0  0  0  0  0  0  0  0  0  0
   10.3353  -17.9509   25.6414 O   0  0  0  0  0  0  0  0  0  0  0  0
   10.0098  -18.5682   24.4337 C   0  0  0  0  0  0  0  0  0  0  0  0
   11.1859  -19.2701   23.8241 C   0  0  2  0  0  0  0  0  0  0  0  0
   10.9210  -19.8941   22.5703 N   0  0  0  0  0  0  0  0  0  0  0  0
   11.7831  -20.1825   24.8242 C   0  0  0  0  0  0  0  0  0  0  0  0
   11.2161  -21.2811   25.0258 O   0  0  0  0  0  0  0  0  0  0  0  0
   12.9547  -19.8817   25.5614 N   0  0  0  0  0  0  0  0  0  0  0  0
   13.5096  -20.7226   26.5791 C   0  0  1  0  0  0  0  0  0  0  0  0
   14.9677  -20.4396   26.8429 C   0  0  0  0  0  0  0  0  0  0  0  0
   15.6577  -21.5444   28.0874 S   0  0  0  0  0  0  0  0  0  0  0  0
   12.7887  -20.4685   27.8709 C   0  0  0  0  0  0  0  0  0  0  0  0
   12.6944  -21.4651   28.8225 O   0  0  0  0  0  0  0  0  0  0  0  0
   12.2585  -19.3628   28.1230 O   0  0  0  0  0  0  0  0  0  0  0  0
  2  1  1  6
  2  7  1  0
  3  2  1  0
  4  5  1  0
  4  3  1  0
  5  9  1  0
  6  5  2  0
  7 13  1  0
  7  8  2  0
 10 11  1  0
 12 11  1  1
 12 14  1  0
 13 12  1  0
 14 15  2  0
 14 16  1  0
 16 17  1  0
 17 18  1  1
 18 19  1  0
 20 17  1  0
 20 21  1  0
 22 20  2  0
M  END
$$$$
