ESC.pdb
     RDKit          3D

 22 21  0  0  1  0  0  0  0  0999 V2000
   10.4630  -14.5962   19.2105 N   0  0  0  0  0  0  0  0  0  0  0  0
   10.9430  -15.5971   20.1452 C   0  0  1  0  0  0  0  0  0  0  0  0
   12.4238  -15.4680   20.2619 C   0  0  0  0  0  0  0  0  0  0  0  0
   13.0128  -14.3223   19.5023 C   0  0  0  0  0  0  0  0  0  0  0  0
   14.4810  -14.3915   19.6459 C   0  0  0  0  0  0  0  0  0  0  0  0
   15.2024  -14.0519   18.6878 O   0  0  0  0  0  0  0  0  0  0  0  0
   10.2108  -15.4535   21.4051 C   0  0  0  0  0  0  0  0  0  0  0  0
    9.8178  -14.3192   21.8350 O   0  0  0  0  0  0  0  0  0  0  0  0
   15.0670  -14.8226   20.8141 O   0  0  0  0  0  0  0  0  0  0  0  0
    9.3377  -18.7728   24.0257 O   0  0  0  0  0  0  0  0  0  0  0  0
    8.4324  -17.7244   23.8615 C   0  0  0  0  0  0  0  0  0  0  0  0
    9.1108  -16.4527   23.4488 C   0  0  2  0  0  0  0  0  0  0  0  0
    9.8768  -16.5499   22.2507 N   0  0  0  0  0  0  0  0  0  0  0  0
    9.8726  -15.9106   24.5954 C   0  0  0  0  0  0  0  0  0  0  0  0
   11.1209  -16.0114   24.5685 O   0  0  0  0  0  0  0  0  0  0  0  0
    9.2693  -15.2872   25.7153 N   0  0  0  0  0  0  0  0  0  0  0  0
    9.9790  -14.8544   26.8813 C   0  0  1  0  0  0  0  0  0  0  0  0
    9.2161  -13.8319   27.6863 C   0  0  0  0  0  0  0  0  0  0  0  0
    8.3653  -12.6407   26.6362 S   0  0  0  0  0  0  0  0  0  0  0  0
   10.1949  -16.0312   27.7879 C   0  0  0  0  0  0  0  0  0  0  0  0
   11.0104  -15.9147   28.8965 O   0  0  0  0  0  0  0  0  0  0  0  0
    9.6514  -17.1379   27.5714 O   0  0  0  0  0  0  0  0  0  0  0  0
  2  1  1  6
  2  7  1  0
  3  2  1  0
  4  5  1  0
  4  3  1  0
  5  9  1  0
  6  5  2  0
  7 13  1  0
  7  8  2  0
 10 11  1  0
 12 11  1  1
 12 14  1  0
 13 12  1  0
 14 15  2  0
 14 16  1  0
 16 17  1  0
 17 18  1  1
 18 19  1  0
 20 17  1  0
 20 21  1  0
 22 20  2  0
M  END
$$$$
