ESC.pdb
     RDKit          3D

 22 21  0  0  1  0  0  0  0  0999 V2000
   16.0322  -19.4895   18.3979 N   0  0  0  0  0  0  0  0  0  0  0  0
   15.2274  -18.3289   18.0643 C   0  0  1  0  0  0  0  0  0  0  0  0
   14.9793  -18.3285   16.5941 C   0  0  0  0  0  0  0  0  0  0  0  0
   15.1960  -19.6475   15.9236 C   0  0  0  0  0  0  0  0  0  0  0  0
   14.9691  -19.4618   14.4761 C   0  0  0  0  0  0  0  0  0  0  0  0
   15.8528  -18.9156   13.7873 O   0  0  0  0  0  0  0  0  0  0  0  0
   14.0203  -18.3397   18.8930 C   0  0  0  0  0  0  0  0  0  0  0  0
   13.1189  -17.4439   18.7891 O   0  0  0  0  0  0  0  0  0  0  0  0
   13.8040  -19.8790   13.8743 O   0  0  0  0  0  0  0  0  0  0  0  0
   13.4893  -21.1266   22.1042 O   0  0  0  0  0  0  0  0  0  0  0  0
   12.3642  -20.6205   21.4535 C   0  0  0  0  0  0  0  0  0  0  0  0
   12.6448  -19.3128   20.7761 C   0  0  2  0  0  0  0  0  0  0  0  0
   13.7482  -19.3358   19.8741 N   0  0  0  0  0  0  0  0  0  0  0  0
   12.7363  -18.2441   21.7952 C   0  0  0  0  0  0  0  0  0  0  0  0
   13.8763  -17.8283   22.1061 O   0  0  0  0  0  0  0  0  0  0  0  0
   11.6102  -17.6693   22.4343 N   0  0  0  0  0  0  0  0  0  0  0  0
   11.6777  -16.8227   23.5872 C   0  0  1  0  0  0  0  0  0  0  0  0
   10.3206  -16.3556   24.0518 C   0  0  0  0  0  0  0  0  0  0  0  0
    9.5271  -15.2758   22.8478 S   0  0  0  0  0  0  0  0  0  0  0  0
   12.2725  -17.5957   24.7281 C   0  0  0  0  0  0  0  0  0  0  0  0
   12.7240  -16.9363   25.8547 O   0  0  0  0  0  0  0  0  0  0  0  0
   12.3767  -18.8429   24.6954 O   0  0  0  0  0  0  0  0  0  0  0  0
  2  1  1  6
  2  7  1  0
  3  2  1  0
  4  5  1  0
  4  3  1  0
  5  9  1  0
  6  5  2  0
  7 13  1  0
  7  8  2  0
 10 11  1  0
 12 11  1  1
 12 14  1  0
 13 12  1  0
 14 15  2  0
 14 16  1  0
 16 17  1  0
 17 18  1  1
 18 19  1  0
 20 17  1  0
 20 21  1  0
 22 20  2  0
M  END
$$$$
