FKH.pdb
     RDKit          3D

 31 32  0  0  1  0  0  0  0  0999 V2000
   22.9803   -8.1307  -18.3751 N   0  0  0  0  0  0  0  0  0  0  0  0
   23.7744   -8.8819  -17.4532 C   0  0  1  0  0  0  0  0  0  0  0  0
   23.3992   -8.7386  -16.0252 C   0  0  0  0  0  0  0  0  0  0  0  0
   23.3679   -7.3670  -15.5178 C   0  0  0  0  0  0  0  0  0  0  0  0
   24.3566   -6.4329  -15.7506 C   0  0  0  0  0  0  0  0  0  0  0  0
   24.2516   -5.1578  -15.2307 C   0  0  0  0  0  0  0  0  0  0  0  0
   23.1718   -4.7727  -14.4703 C   0  0  0  0  0  0  0  0  0  0  0  0
   22.1770   -5.7003  -14.2321 C   0  0  0  0  0  0  0  0  0  0  0  0
   22.2862   -6.9732  -14.7536 C   0  0  0  0  0  0  0  0  0  0  0  0
   23.6462  -10.3219  -17.8268 C   0  0  0  0  0  0  0  0  0  0  0  0
   22.6122  -10.6714  -18.4587 O   0  0  0  0  0  0  0  0  0  0  0  0
   24.6063  -11.2901  -17.5134 N   0  0  0  0  0  0  0  0  0  0  0  0
   24.4495  -12.6606  -18.0149 C   0  0  1  0  0  0  0  0  0  0  0  0
   25.7936  -13.3600  -17.9189 C   0  0  0  0  0  0  0  0  0  0  0  0
   25.6754  -14.7776  -18.3789 C   0  0  0  0  0  0  0  0  0  0  0  0
   27.0707  -15.4276  -18.4328 C   0  0  0  0  0  0  0  0  0  0  0  0
   26.9451  -16.8454  -18.8711 C   0  0  0  0  0  0  0  0  0  0  0  0
   28.2993  -17.3979  -18.9335 N   0  0  0  0  0  0  0  0  0  0  0  0
   23.4030  -13.3202  -17.2234 C   0  0  0  0  0  0  0  0  0  0  0  0
   23.3500  -13.0776  -15.9743 O   0  0  0  0  0  0  0  0  0  0  0  0
   22.4330  -14.2080  -17.7368 N   0  0  0  0  0  0  0  0  0  0  0  0
   21.3184  -14.6129  -16.8930 C   0  0  1  0  0  0  0  0  0  0  0  0
   20.2684  -13.5247  -16.8528 C   0  0  0  0  0  0  0  0  0  0  0  0
   19.0954  -14.0049  -16.1007 C   0  0  0  0  0  0  0  0  0  0  0  0
   19.1490  -14.5630  -14.8379 C   0  0  0  0  0  0  0  0  0  0  0  0
   17.9231  -14.9198  -14.4479 N   0  0  0  0  0  0  0  0  0  0  0  0
   17.1123  -14.5858  -15.4626 C   0  0  0  0  0  0  0  0  0  0  0  0
   17.7989  -14.0347  -16.4638 N   0  0  0  0  0  0  0  0  0  0  0  0
   20.7739  -15.9085  -17.3242 C   0  0  0  0  0  0  0  0  0  0  0  0
   20.3188  -16.6947  -16.4546 O   0  0  0  0  0  0  0  0  0  0  0  0
   20.7186  -16.3365  -18.6301 O   0  0  0  0  0  0  0  0  0  0  0  0
  2  1  1  6
  3  2  1  0
  3  4  1  0
  4  5  2  0
  5  6  1  0
  7  6  2  0
  8  7  1  0
  9  4  1  0
  9  8  2  0
 10 11  2  0
 10  2  1  0
 12 10  1  0
 13 12  1  0
 13 14  1  1
 14 15  1  0
 15 16  1  0
 16 17  1  0
 17 18  1  0
 19 13  1  0
 20 19  2  0
 21 19  1  0
 22 21  1  0
 22 23  1  6
 24 23  1  0
 24 25  2  0
 26 25  1  0
 27 26  1  0
 28 27  2  0
 28 24  1  0
 29 22  1  0
 30 29  2  0
 31 29  1  0
M  END
$$$$
