FKH.pdb
     RDKit          3D

 31 32  0  0  1  0  0  0  0  0999 V2000
   18.2612   -7.0802  -22.8163 N   0  0  0  0  0  0  0  0  0  0  0  0
   19.4206   -7.6627  -22.2152 C   0  0  1  0  0  0  0  0  0  0  0  0
   20.6458   -6.8275  -22.2537 C   0  0  0  0  0  0  0  0  0  0  0  0
   21.1871   -6.5661  -23.5873 C   0  0  0  0  0  0  0  0  0  0  0  0
   20.9963   -5.3900  -24.2833 C   0  0  0  0  0  0  0  0  0  0  0  0
   21.5397   -5.2251  -25.5421 C   0  0  0  0  0  0  0  0  0  0  0  0
   22.2832   -6.2133  -26.1447 C   0  0  0  0  0  0  0  0  0  0  0  0
   22.4800   -7.3939  -25.4561 C   0  0  0  0  0  0  0  0  0  0  0  0
   21.9351   -7.5542  -24.1985 C   0  0  0  0  0  0  0  0  0  0  0  0
   19.0889   -7.9386  -20.7857 C   0  0  0  0  0  0  0  0  0  0  0  0
   18.4182   -7.0702  -20.1637 O   0  0  0  0  0  0  0  0  0  0  0  0
   19.4817   -9.0998  -20.1114 N   0  0  0  0  0  0  0  0  0  0  0  0
   19.0276   -9.3319  -18.7350 C   0  0  1  0  0  0  0  0  0  0  0  0
   19.1051  -10.8215  -18.4523 C   0  0  0  0  0  0  0  0  0  0  0  0
   18.6801  -11.1063  -17.0475 C   0  0  0  0  0  0  0  0  0  0  0  0
   18.5878  -12.6279  -16.8277 C   0  0  0  0  0  0  0  0  0  0  0  0
   18.2141  -12.9070  -15.4133 C   0  0  0  0  0  0  0  0  0  0  0  0
   18.3194  -14.3539  -15.2180 N   0  0  0  0  0  0  0  0  0  0  0  0
   19.8699   -8.5337  -17.8350 C   0  0  0  0  0  0  0  0  0  0  0  0
   21.1328   -8.5806  -17.9928 O   0  0  0  0  0  0  0  0  0  0  0  0
   19.3927   -7.7021  -16.7989 N   0  0  0  0  0  0  0  0  0  0  0  0
   20.3386   -6.9111  -16.0257 C   0  0  1  0  0  0  0  0  0  0  0  0
   20.6795   -5.6342  -16.7613 C   0  0  0  0  0  0  0  0  0  0  0  0
   21.5653   -4.8079  -15.9217 C   0  0  0  0  0  0  0  0  0  0  0  0
   21.4287   -3.4444  -15.7440 C   0  0  0  0  0  0  0  0  0  0  0  0
   22.4026   -2.9911  -14.9514 N   0  0  0  0  0  0  0  0  0  0  0  0
   23.1406   -4.0665  -14.6387 C   0  0  0  0  0  0  0  0  0  0  0  0
   22.6523   -5.1666  -15.2123 N   0  0  0  0  0  0  0  0  0  0  0  0
   19.8331   -6.6638  -14.6676 C   0  0  0  0  0  0  0  0  0  0  0  0
   18.6072   -6.8256  -14.4381 O   0  0  0  0  0  0  0  0  0  0  0  0
   20.6105   -6.2644  -13.6058 O   0  0  0  0  0  0  0  0  0  0  0  0
  2  1  1  1
  3  2  1  0
  3  4  1  0
  4  5  2  0
  5  6  1  0
  7  6  2  0
  8  7  1  0
  9  4  1  0
  9  8  2  0
 10 11  2  0
 10  2  1  0
 12 10  1  0
 13 12  1  0
 13 14  1  1
 14 15  1  0
 15 16  1  0
 16 17  1  0
 17 18  1  0
 19 13  1  0
 20 19  2  0
 21 19  1  0
 22 21  1  0
 22 23  1  6
 24 23  1  0
 24 25  2  0
 26 25  1  0
 27 26  1  0
 28 27  2  0
 28 24  1  0
 29 22  1  0
 30 29  2  0
 31 29  1  0
M  END
$$$$
