FKH.pdb
     RDKit          3D

 31 32  0  0  1  0  0  0  0  0999 V2000
   14.0314  -16.3907    4.8888 N   0  0  0  0  0  0  0  0  0  0  0  0
   15.3849  -16.0135    4.6233 C   0  0  1  0  0  0  0  0  0  0  0  0
   15.5775  -15.1027    3.4684 C   0  0  0  0  0  0  0  0  0  0  0  0
   16.9407  -15.0339    2.9423 C   0  0  0  0  0  0  0  0  0  0  0  0
   17.6413  -16.1218    2.4631 C   0  0  0  0  0  0  0  0  0  0  0  0
   18.9286  -15.9710    1.9865 C   0  0  0  0  0  0  0  0  0  0  0  0
   19.5558  -14.7468    1.9703 C   0  0  0  0  0  0  0  0  0  0  0  0
   18.8628  -13.6519    2.4474 C   0  0  0  0  0  0  0  0  0  0  0  0
   17.5766  -13.8073    2.9227 C   0  0  0  0  0  0  0  0  0  0  0  0
   15.9045  -15.3323    5.8462 C   0  0  0  0  0  0  0  0  0  0  0  0
   15.1192  -14.5626    6.4640 O   0  0  0  0  0  0  0  0  0  0  0  0
   17.2045  -15.5046    6.3335 N   0  0  0  0  0  0  0  0  0  0  0  0
   17.6560  -14.7288    7.4949 C   0  0  1  0  0  0  0  0  0  0  0  0
   18.4021  -15.6626    8.4311 C   0  0  0  0  0  0  0  0  0  0  0  0
   18.8121  -14.9357    9.6715 C   0  0  0  0  0  0  0  0  0  0  0  0
   19.4952  -15.9118   10.6476 C   0  0  0  0  0  0  0  0  0  0  0  0
   19.9552  -15.1713   11.8551 C   0  0  0  0  0  0  0  0  0  0  0  0
   20.5550  -16.1535   12.7596 N   0  0  0  0  0  0  0  0  0  0  0  0
   18.4879  -13.6205    7.0088 C   0  0  0  0  0  0  0  0  0  0  0  0
   19.3067  -13.8528    6.0614 O   0  0  0  0  0  0  0  0  0  0  0  0
   18.4531  -12.2993    7.5047 N   0  0  0  0  0  0  0  0  0  0  0  0
   19.2898  -11.2822    6.8853 C   0  0  1  0  0  0  0  0  0  0  0  0
   18.8370   -9.9019    7.3071 C   0  0  0  0  0  0  0  0  0  0  0  0
   19.1043   -9.7179    8.7447 C   0  0  0  0  0  0  0  0  0  0  0  0
   20.2123   -9.0723    9.2594 C   0  0  0  0  0  0  0  0  0  0  0  0
   20.1734   -9.0995   10.5935 N   0  0  0  0  0  0  0  0  0  0  0  0
   19.0480   -9.7584   10.9063 C   0  0  0  0  0  0  0  0  0  0  0  0
   18.3929  -10.1371    9.8085 N   0  0  0  0  0  0  0  0  0  0  0  0
   20.7115  -11.5230    7.1712 C   0  0  0  0  0  0  0  0  0  0  0  0
   21.5781  -10.9192    6.4886 O   0  0  0  0  0  0  0  0  0  0  0  0
   21.1787  -12.3710    8.1480 O   0  0  0  0  0  0  0  0  0  0  0  0
  2  1  1  1
  3  2  1  0
  3  4  1  0
  4  5  2  0
  5  6  1  0
  7  6  2  0
  8  7  1  0
  9  4  1  0
  9  8  2  0
 10 11  2  0
 10  2  1  0
 12 10  1  0
 13 12  1  0
 13 14  1  1
 14 15  1  0
 15 16  1  0
 16 17  1  0
 17 18  1  0
 19 13  1  0
 20 19  2  0
 21 19  1  0
 22 21  1  0
 22 23  1  1
 24 23  1  0
 24 25  2  0
 26 25  1  0
 27 26  1  0
 28 27  2  0
 28 24  1  0
 29 22  1  0
 30 29  2  0
 31 29  1  0
M  END
$$$$
