FKH.pdb
     RDKit          3D

 31 32  0  0  1  0  0  0  0  0999 V2000
   26.3153  -18.4801   -7.9671 N   0  0  0  0  0  0  0  0  0  0  0  0
   27.0387  -19.6459   -8.3701 C   0  0  1  0  0  0  0  0  0  0  0  0
   27.0917  -20.7401   -7.3699 C   0  0  0  0  0  0  0  0  0  0  0  0
   27.8611  -20.4495   -6.1602 C   0  0  0  0  0  0  0  0  0  0  0  0
   27.2988  -20.0827   -4.9546 C   0  0  0  0  0  0  0  0  0  0  0  0
   28.0986  -19.8217   -3.8595 C   0  0  0  0  0  0  0  0  0  0  0  0
   29.4694  -19.9156   -3.9254 C   0  0  0  0  0  0  0  0  0  0  0  0
   30.0417  -20.2823   -5.1274 C   0  0  0  0  0  0  0  0  0  0  0  0
   29.2385  -20.5422   -6.2191 C   0  0  0  0  0  0  0  0  0  0  0  0
   26.3815  -20.1726   -9.6031 C   0  0  0  0  0  0  0  0  0  0  0  0
   25.1213  -20.2209   -9.6179 O   0  0  0  0  0  0  0  0  0  0  0  0
   27.0879  -20.6097  -10.7289 N   0  0  0  0  0  0  0  0  0  0  0  0
   26.5492  -20.3565  -12.0705 C   0  0  1  0  0  0  0  0  0  0  0  0
   27.7008  -20.3839  -13.0596 C   0  0  0  0  0  0  0  0  0  0  0  0
   27.2122  -20.0595  -14.4347 C   0  0  0  0  0  0  0  0  0  0  0  0
   28.3640  -20.2057  -15.4467 C   0  0  0  0  0  0  0  0  0  0  0  0
   27.9593  -19.6166  -16.7533 C   0  0  0  0  0  0  0  0  0  0  0  0
   29.0660  -19.8370  -17.6857 N   0  0  0  0  0  0  0  0  0  0  0  0
   25.5279  -21.3735  -12.3525 C   0  0  0  0  0  0  0  0  0  0  0  0
   25.4373  -22.3703  -11.5651 O   0  0  0  0  0  0  0  0  0  0  0  0
   24.6210  -21.3373  -13.4337 N   0  0  0  0  0  0  0  0  0  0  0  0
   23.1908  -21.3815  -13.1673 C   0  0  1  0  0  0  0  0  0  0  0  0
   22.8159  -20.3364  -12.1400 C   0  0  0  0  0  0  0  0  0  0  0  0
   21.3773  -20.4423  -11.8376 C   0  0  0  0  0  0  0  0  0  0  0  0
   20.5353  -21.4046  -12.3613 C   0  0  0  0  0  0  0  0  0  0  0  0
   19.2922  -21.2102  -11.9151 N   0  0  0  0  0  0  0  0  0  0  0  0
   19.3611  -20.1331  -11.1190 C   0  0  0  0  0  0  0  0  0  0  0  0
   20.6058  -19.6588  -11.0603 N   0  0  0  0  0  0  0  0  0  0  0  0
   22.4185  -21.2540  -14.4116 C   0  0  0  0  0  0  0  0  0  0  0  0
   22.6884  -20.3113  -15.1990 O   0  0  0  0  0  0  0  0  0  0  0  0
   21.4056  -22.1030  -14.7923 O   0  0  0  0  0  0  0  0  0  0  0  0
  2  1  1  1
  3  2  1  0
  3  4  1  0
  4  5  2  0
  5  6  1  0
  7  6  2  0
  8  7  1  0
  9  4  1  0
  9  8  2  0
 10 11  2  0
 10  2  1  0
 12 10  1  0
 13 12  1  0
 13 14  1  6
 14 15  1  0
 15 16  1  0
 16 17  1  0
 17 18  1  0
 19 13  1  0
 20 19  2  0
 21 19  1  0
 22 21  1  0
 22 23  1  1
 24 23  1  0
 24 25  2  0
 26 25  1  0
 27 26  1  0
 28 27  2  0
 28 24  1  0
 29 22  1  0
 30 29  2  0
 31 29  1  0
M  END
$$$$
