FKH.pdb
     RDKit          3D

 31 32  0  0  1  0  0  0  0  0999 V2000
   28.5408  -21.0015   -9.0329 N   0  0  0  0  0  0  0  0  0  0  0  0
   27.1341  -20.7838   -8.8963 C   0  0  1  0  0  0  0  0  0  0  0  0
   26.7466  -19.6681   -7.9988 C   0  0  0  0  0  0  0  0  0  0  0  0
   27.3075  -19.7229   -6.6490 C   0  0  0  0  0  0  0  0  0  0  0  0
   26.9310  -20.6420   -5.6911 C   0  0  0  0  0  0  0  0  0  0  0  0
   27.5086  -20.6227   -4.4368 C   0  0  0  0  0  0  0  0  0  0  0  0
   28.4696  -19.6991   -4.0965 C   0  0  0  0  0  0  0  0  0  0  0  0
   28.8533  -18.7753   -5.0484 C   0  0  0  0  0  0  0  0  0  0  0  0
   28.2734  -18.7984   -6.3004 C   0  0  0  0  0  0  0  0  0  0  0  0
   26.5947  -20.4955  -10.2585 C   0  0  0  0  0  0  0  0  0  0  0  0
   26.8818  -19.3821  -10.7767 O   0  0  0  0  0  0  0  0  0  0  0  0
   25.7958  -21.3903  -10.9786 N   0  0  0  0  0  0  0  0  0  0  0  0
   25.4363  -21.0890  -12.3694 C   0  0  1  0  0  0  0  0  0  0  0  0
   26.0843  -22.1295  -13.2653 C   0  0  0  0  0  0  0  0  0  0  0  0
   25.7426  -21.8673  -14.6970 C   0  0  0  0  0  0  0  0  0  0  0  0
   26.3675  -22.9547  -15.5910 C   0  0  0  0  0  0  0  0  0  0  0  0
   26.1078  -22.6353  -17.0223 C   0  0  0  0  0  0  0  0  0  0  0  0
   26.6700  -23.7293  -17.8160 N   0  0  0  0  0  0  0  0  0  0  0  0
   23.9713  -21.0786  -12.4709 C   0  0  0  0  0  0  0  0  0  0  0  0
   23.2927  -21.2372  -11.4049 O   0  0  0  0  0  0  0  0  0  0  0  0
   23.2401  -20.8991  -13.6650 N   0  0  0  0  0  0  0  0  0  0  0  0
   21.8741  -20.4014  -13.5975 C   0  0  1  0  0  0  0  0  0  0  0  0
   21.8320  -19.0831  -12.8570 C   0  0  0  0  0  0  0  0  0  0  0  0
   20.4598  -18.5463  -12.8922 C   0  0  0  0  0  0  0  0  0  0  0  0
   19.4196  -19.0022  -12.1051 C   0  0  0  0  0  0  0  0  0  0  0  0
   18.3032  -18.3307  -12.3963 N   0  0  0  0  0  0  0  0  0  0  0  0
   18.6473  -17.4628  -13.3591 C   0  0  0  0  0  0  0  0  0  0  0  0
   19.9388  -17.5778  -13.6694 N   0  0  0  0  0  0  0  0  0  0  0  0
   21.2768  -20.3164  -14.9380 C   0  0  0  0  0  0  0  0  0  0  0  0
   20.0790  -20.6674  -15.0916 O   0  0  0  0  0  0  0  0  0  0  0  0
   21.9364  -19.8716  -16.0599 O   0  0  0  0  0  0  0  0  0  0  0  0
  2  1  1  6
  3  2  1  0
  3  4  1  0
  4  5  2  0
  5  6  1  0
  7  6  2  0
  8  7  1  0
  9  4  1  0
  9  8  2  0
 10 11  2  0
 10  2  1  0
 12 10  1  0
 13 12  1  0
 13 14  1  6
 14 15  1  0
 15 16  1  0
 16 17  1  0
 17 18  1  0
 19 13  1  0
 20 19  2  0
 21 19  1  0
 22 21  1  0
 22 23  1  6
 24 23  1  0
 24 25  2  0
 26 25  1  0
 27 26  1  0
 28 27  2  0
 28 24  1  0
 29 22  1  0
 30 29  2  0
 31 29  1  0
M  END
$$$$
