FKH.pdb
     RDKit          3D

 31 32  0  0  1  0  0  0  0  0999 V2000
   24.9670  -14.0718  -16.9409 N   0  0  0  0  0  0  0  0  0  0  0  0
   24.3434  -13.4263  -15.8277 C   0  0  1  0  0  0  0  0  0  0  0  0
   25.2684  -12.7683  -14.8729 C   0  0  0  0  0  0  0  0  0  0  0  0
   26.2790  -11.8984  -15.4745 C   0  0  0  0  0  0  0  0  0  0  0  0
   26.1633  -10.5265  -15.5673 C   0  0  0  0  0  0  0  0  0  0  0  0
   27.1637   -9.7776  -16.1549 C   0  0  0  0  0  0  0  0  0  0  0  0
   28.3005  -10.3610  -16.6644 C   0  0  0  0  0  0  0  0  0  0  0  0
   28.4258  -11.7333  -16.5761 C   0  0  0  0  0  0  0  0  0  0  0  0
   27.4236  -12.4777  -15.9881 C   0  0  0  0  0  0  0  0  0  0  0  0
   23.4219  -12.3870  -16.3757 C   0  0  0  0  0  0  0  0  0  0  0  0
   23.7203  -11.8691  -17.4864 O   0  0  0  0  0  0  0  0  0  0  0  0
   22.2578  -11.9653  -15.7244 N   0  0  0  0  0  0  0  0  0  0  0  0
   21.3592  -11.0103  -16.3838 C   0  0  1  0  0  0  0  0  0  0  0  0
   19.9440  -11.2776  -15.9036 C   0  0  0  0  0  0  0  0  0  0  0  0
   19.3098  -12.3512  -16.7284 C   0  0  0  0  0  0  0  0  0  0  0  0
   18.9644  -13.5593  -15.8377 C   0  0  0  0  0  0  0  0  0  0  0  0
   18.1797  -14.5517  -16.6235 C   0  0  0  0  0  0  0  0  0  0  0  0
   17.9829  -15.7211  -15.7653 N   0  0  0  0  0  0  0  0  0  0  0  0
   21.8239   -9.6532  -16.0691 C   0  0  0  0  0  0  0  0  0  0  0  0
   22.3882   -9.4556  -14.9446 O   0  0  0  0  0  0  0  0  0  0  0  0
   21.7024   -8.5340  -16.9208 N   0  0  0  0  0  0  0  0  0  0  0  0
   22.2575   -7.2553  -16.5026 C   0  0  1  0  0  0  0  0  0  0  0  0
   22.5726   -6.4000  -17.7098 C   0  0  0  0  0  0  0  0  0  0  0  0
   23.1065   -5.1011  -17.2627 C   0  0  0  0  0  0  0  0  0  0  0  0
   24.4211   -4.8770  -16.9007 C   0  0  0  0  0  0  0  0  0  0  0  0
   24.5755   -3.6072  -16.5185 N   0  0  0  0  0  0  0  0  0  0  0  0
   23.3639   -3.0455  -16.6418 C   0  0  0  0  0  0  0  0  0  0  0  0
   22.4693   -3.9277  -17.0879 N   0  0  0  0  0  0  0  0  0  0  0  0
   21.3661   -6.5802  -15.5483 C   0  0  0  0  0  0  0  0  0  0  0  0
   21.8745   -5.9317  -14.5982 O   0  0  0  0  0  0  0  0  0  0  0  0
   19.9926   -6.5991  -15.6151 O   0  0  0  0  0  0  0  0  0  0  0  0
  2  1  1  6
  3  2  1  0
  3  4  1  0
  4  5  2  0
  5  6  1  0
  7  6  2  0
  8  7  1  0
  9  4  1  0
  9  8  2  0
 10 11  2  0
 10  2  1  0
 12 10  1  0
 13 12  1  0
 13 14  1  1
 14 15  1  0
 15 16  1  0
 16 17  1  0
 17 18  1  0
 19 13  1  0
 20 19  2  0
 21 19  1  0
 22 21  1  0
 22 23  1  6
 24 23  1  0
 24 25  2  0
 26 25  1  0
 27 26  1  0
 28 27  2  0
 28 24  1  0
 29 22  1  0
 30 29  2  0
 31 29  1  0
M  END
$$$$
