FKH.pdb
     RDKit          3D

 31 32  0  0  1  0  0  0  0  0999 V2000
   30.5275  -14.4919  -19.6423 N   0  0  0  0  0  0  0  0  0  0  0  0
   29.2244  -14.2774  -19.0937 C   0  0  1  0  0  0  0  0  0  0  0  0
   28.7365  -12.8774  -19.1399 C   0  0  0  0  0  0  0  0  0  0  0  0
   29.5630  -11.8997  -18.4322 C   0  0  0  0  0  0  0  0  0  0  0  0
   30.4088  -11.0053  -19.0558 C   0  0  0  0  0  0  0  0  0  0  0  0
   31.1589  -10.1158  -18.3120 C   0  0  0  0  0  0  0  0  0  0  0  0
   31.0941  -10.0859  -16.9382 C   0  0  0  0  0  0  0  0  0  0  0  0
   30.2503  -10.9769  -16.3049 C   0  0  0  0  0  0  0  0  0  0  0  0
   29.5026  -11.8639  -17.0522 C   0  0  0  0  0  0  0  0  0  0  0  0
   28.2715  -15.1292  -19.8658 C   0  0  0  0  0  0  0  0  0  0  0  0
   28.6354  -15.5263  -21.0062 O   0  0  0  0  0  0  0  0  0  0  0  0
   27.0099  -15.5032  -19.3907 N   0  0  0  0  0  0  0  0  0  0  0  0
   26.1729  -16.4118  -20.1833 C   0  0  1  0  0  0  0  0  0  0  0  0
   25.2932  -17.2021  -19.2312 C   0  0  0  0  0  0  0  0  0  0  0  0
   24.4785  -18.2027  -19.9863 C   0  0  0  0  0  0  0  0  0  0  0  0
   23.5406  -18.9496  -19.0195 C   0  0  0  0  0  0  0  0  0  0  0  0
   22.8488  -20.0509  -19.7450 C   0  0  0  0  0  0  0  0  0  0  0  0
   23.0434  -21.2715  -18.9608 N   0  0  0  0  0  0  0  0  0  0  0  0
   25.4025  -15.6064  -21.1396 C   0  0  0  0  0  0  0  0  0  0  0  0
   25.1810  -14.3846  -20.8568 O   0  0  0  0  0  0  0  0  0  0  0  0
   24.8841  -16.0755  -22.3660 N   0  0  0  0  0  0  0  0  0  0  0  0
   24.4030  -15.1177  -23.3505 C   0  0  1  0  0  0  0  0  0  0  0  0
   25.4888  -14.1193  -23.6856 C   0  0  0  0  0  0  0  0  0  0  0  0
   25.0303  -13.2482  -24.7825 C   0  0  0  0  0  0  0  0  0  0  0  0
   23.9159  -12.4335  -24.7224 C   0  0  0  0  0  0  0  0  0  0  0  0
   23.7571  -11.7968  -25.8850 N   0  0  0  0  0  0  0  0  0  0  0  0
   24.7666  -12.2137  -26.6633 C   0  0  0  0  0  0  0  0  0  0  0  0
   25.5417  -13.0854  -26.0175 N   0  0  0  0  0  0  0  0  0  0  0  0
   23.8781  -15.8031  -24.5404 C   0  0  0  0  0  0  0  0  0  0  0  0
   23.4713  -15.1112  -25.5086 O   0  0  0  0  0  0  0  0  0  0  0  0
   23.7978  -17.1686  -24.6831 O   0  0  0  0  0  0  0  0  0  0  0  0
  2  1  1  6
  3  2  1  0
  3  4  1  0
  4  5  2  0
  5  6  1  0
  7  6  2  0
  8  7  1  0
  9  4  1  0
  9  8  2  0
 10 11  2  0
 10  2  1  0
 12 10  1  0
 13 12  1  0
 13 14  1  1
 14 15  1  0
 15 16  1  0
 16 17  1  0
 17 18  1  0
 19 13  1  0
 20 19  2  0
 21 19  1  0
 22 21  1  0
 22 23  1  6
 24 23  1  0
 24 25  2  0
 26 25  1  0
 27 26  1  0
 28 27  2  0
 28 24  1  0
 29 22  1  0
 30 29  2  0
 31 29  1  0
M  END
$$$$
