FKH.pdb
     RDKit          3D

 31 32  0  0  1  0  0  0  0  0999 V2000
   18.9844  -14.3397  -16.6931 N   0  0  0  0  0  0  0  0  0  0  0  0
   19.8653  -13.4857  -17.4277 C   0  0  1  0  0  0  0  0  0  0  0  0
   19.2450  -12.7511  -18.5573 C   0  0  0  0  0  0  0  0  0  0  0  0
   18.6821  -13.5870  -19.6176 C   0  0  0  0  0  0  0  0  0  0  0  0
   17.3305  -13.7907  -19.8073 C   0  0  0  0  0  0  0  0  0  0  0  0
   16.8815  -14.5997  -20.8325 C   0  0  0  0  0  0  0  0  0  0  0  0
   17.7515  -15.2264  -21.6943 C   0  0  0  0  0  0  0  0  0  0  0  0
   19.1060  -15.0285  -21.5128 C   0  0  0  0  0  0  0  0  0  0  0  0
   19.5502  -14.2193  -20.4870 C   0  0  0  0  0  0  0  0  0  0  0  0
   20.4171  -12.4845  -16.4671 C   0  0  0  0  0  0  0  0  0  0  0  0
   19.6137  -11.9500  -15.6549 O   0  0  0  0  0  0  0  0  0  0  0  0
   21.7659  -12.1153  -16.4254 N   0  0  0  0  0  0  0  0  0  0  0  0
   22.2114  -11.0895  -15.4749 C   0  0  1  0  0  0  0  0  0  0  0  0
   23.6940  -11.2902  -15.2170 C   0  0  0  0  0  0  0  0  0  0  0  0
   24.4867  -10.9210  -16.4297 C   0  0  0  0  0  0  0  0  0  0  0  0
   25.9892  -11.1115  -16.1499 C   0  0  0  0  0  0  0  0  0  0  0  0
   26.7733  -10.7526  -17.3641 C   0  0  0  0  0  0  0  0  0  0  0  0
   28.1850  -10.9719  -17.0449 N   0  0  0  0  0  0  0  0  0  0  0  0
   21.9028   -9.7722  -16.0461 C   0  0  0  0  0  0  0  0  0  0  0  0
   22.0984   -9.5953  -17.2920 O   0  0  0  0  0  0  0  0  0  0  0  0
   21.3947   -8.6711  -15.3232 N   0  0  0  0  0  0  0  0  0  0  0  0
   21.1170   -7.4253  -16.0224 C   0  0  1  0  0  0  0  0  0  0  0  0
   19.6703   -7.3815  -16.4619 C   0  0  0  0  0  0  0  0  0  0  0  0
   19.4093   -6.1089  -17.1581 C   0  0  0  0  0  0  0  0  0  0  0  0
   18.6526   -5.0743  -16.6420 C   0  0  0  0  0  0  0  0  0  0  0  0
   18.5840   -4.0777  -17.5275 N   0  0  0  0  0  0  0  0  0  0  0  0
   19.2936   -4.4906  -18.5881 C   0  0  0  0  0  0  0  0  0  0  0  0
   19.7969   -5.7082  -18.3839 N   0  0  0  0  0  0  0  0  0  0  0  0
   21.4944   -6.2650  -15.2024 C   0  0  0  0  0  0  0  0  0  0  0  0
   21.5799   -6.4056  -13.9557 O   0  0  0  0  0  0  0  0  0  0  0  0
   21.7700   -5.0131  -15.7009 O   0  0  0  0  0  0  0  0  0  0  0  0
  2  1  1  1
  3  2  1  0
  3  4  1  0
  4  5  2  0
  5  6  1  0
  7  6  2  0
  8  7  1  0
  9  4  1  0
  9  8  2  0
 10 11  2  0
 10  2  1  0
 12 10  1  0
 13 12  1  0
 13 14  1  6
 14 15  1  0
 15 16  1  0
 16 17  1  0
 17 18  1  0
 19 13  1  0
 20 19  2  0
 21 19  1  0
 22 21  1  0
 22 23  1  1
 24 23  1  0
 24 25  2  0
 26 25  1  0
 27 26  1  0
 28 27  2  0
 28 24  1  0
 29 22  1  0
 30 29  2  0
 31 29  1  0
M  END
$$$$
