FKH.pdb
     RDKit          3D

 31 32  0  0  1  0  0  0  0  0999 V2000
   27.0036  -18.4900   -8.8201 N   0  0  0  0  0  0  0  0  0  0  0  0
   26.9536  -19.9032   -9.0330 C   0  0  1  0  0  0  0  0  0  0  0  0
   26.7020  -20.7212   -7.8215 C   0  0  0  0  0  0  0  0  0  0  0  0
   27.5848  -20.4522   -6.6865 C   0  0  0  0  0  0  0  0  0  0  0  0
   28.9433  -20.6946   -6.6881 C   0  0  0  0  0  0  0  0  0  0  0  0
   29.7057  -20.4151   -5.5711 C   0  0  0  0  0  0  0  0  0  0  0  0
   29.1493  -19.8908   -4.4274 C   0  0  0  0  0  0  0  0  0  0  0  0
   27.7907  -19.6445   -4.4161 C   0  0  0  0  0  0  0  0  0  0  0  0
   27.0327  -19.9253   -5.5346 C   0  0  0  0  0  0  0  0  0  0  0  0
   25.8557  -20.1668  -10.0101 C   0  0  0  0  0  0  0  0  0  0  0  0
   24.7632  -19.5604   -9.8385 O   0  0  0  0  0  0  0  0  0  0  0  0
   25.9792  -21.0435  -11.0934 N   0  0  0  0  0  0  0  0  0  0  0  0
   25.3065  -20.7347  -12.3608 C   0  0  1  0  0  0  0  0  0  0  0  0
   26.1665  -21.2587  -13.4970 C   0  0  0  0  0  0  0  0  0  0  0  0
   27.0021  -20.1575  -14.0664 C   0  0  0  0  0  0  0  0  0  0  0  0
   27.8297  -20.6887  -15.2516 C   0  0  0  0  0  0  0  0  0  0  0  0
   28.6854  -19.5968  -15.7932 C   0  0  0  0  0  0  0  0  0  0  0  0
   29.5373  -20.1897  -16.8255 N   0  0  0  0  0  0  0  0  0  0  0  0
   23.9693  -21.3410  -12.3282 C   0  0  0  0  0  0  0  0  0  0  0  0
   23.8242  -22.4462  -11.7121 O   0  0  0  0  0  0  0  0  0  0  0  0
   22.8131  -20.7930  -12.9245 N   0  0  0  0  0  0  0  0  0  0  0  0
   21.5235  -21.4284  -12.6975 C   0  0  1  0  0  0  0  0  0  0  0  0
   20.8095  -20.7674  -11.5394 C   0  0  0  0  0  0  0  0  0  0  0  0
   19.4809  -21.3823  -11.3691 C   0  0  0  0  0  0  0  0  0  0  0  0
   19.2408  -22.5468  -10.6653 C   0  0  0  0  0  0  0  0  0  0  0  0
   17.9424  -22.8515  -10.7230 N   0  0  0  0  0  0  0  0  0  0  0  0
   17.3787  -21.8823  -11.4588 C   0  0  0  0  0  0  0  0  0  0  0  0
   18.2875  -20.9909  -11.8552 N   0  0  0  0  0  0  0  0  0  0  0  0
   20.7175  -21.4396  -13.9268 C   0  0  0  0  0  0  0  0  0  0  0  0
   20.8715  -20.5116  -14.7614 O   0  0  0  0  0  0  0  0  0  0  0  0
   19.7917  -22.4057  -14.2447 O   0  0  0  0  0  0  0  0  0  0  0  0
  2  1  1  1
  3  2  1  0
  3  4  1  0
  4  5  2  0
  5  6  1  0
  7  6  2  0
  8  7  1  0
  9  4  1  0
  9  8  2  0
 10 11  2  0
 10  2  1  0
 12 10  1  0
 13 12  1  0
 13 14  1  6
 14 15  1  0
 15 16  1  0
 16 17  1  0
 17 18  1  0
 19 13  1  0
 20 19  2  0
 21 19  1  0
 22 21  1  0
 22 23  1  1
 24 23  1  0
 24 25  2  0
 26 25  1  0
 27 26  1  0
 28 27  2  0
 28 24  1  0
 29 22  1  0
 30 29  2  0
 31 29  1  0
M  END
$$$$
