FKH.pdb
     RDKit          3D

 31 32  0  0  1  0  0  0  0  0999 V2000
   28.3736  -21.0296   -8.8277 N   0  0  0  0  0  0  0  0  0  0  0  0
   26.9814  -20.8808   -8.5370 C   0  0  1  0  0  0  0  0  0  0  0  0
   26.6455  -19.8202   -7.5558 C   0  0  0  0  0  0  0  0  0  0  0  0
   27.3826  -19.8750   -6.2935 C   0  0  0  0  0  0  0  0  0  0  0  0
   27.2630  -20.8943   -5.3710 C   0  0  0  0  0  0  0  0  0  0  0  0
   27.9938  -20.8678   -4.1995 C   0  0  0  0  0  0  0  0  0  0  0  0
   28.8588  -19.8383   -3.9090 C   0  0  0  0  0  0  0  0  0  0  0  0
   28.9856  -18.8137   -4.8260 C   0  0  0  0  0  0  0  0  0  0  0  0
   28.2534  -18.8444   -5.9953 C   0  0  0  0  0  0  0  0  0  0  0  0
   26.2906  -20.5630   -9.8221 C   0  0  0  0  0  0  0  0  0  0  0  0
   26.3621  -19.3772  -10.2458 O   0  0  0  0  0  0  0  0  0  0  0  0
   25.5767  -21.5058  -10.5695 N   0  0  0  0  0  0  0  0  0  0  0  0
   25.1738  -21.1912  -11.9454 C   0  0  1  0  0  0  0  0  0  0  0  0
   25.9267  -22.1154  -12.8857 C   0  0  0  0  0  0  0  0  0  0  0  0
   27.1276  -21.4219  -13.4443 C   0  0  0  0  0  0  0  0  0  0  0  0
   26.7806  -20.7908  -14.8056 C   0  0  0  0  0  0  0  0  0  0  0  0
   27.9749  -20.0864  -15.3492 C   0  0  0  0  0  0  0  0  0  0  0  0
   27.5674  -19.4553  -16.6055 N   0  0  0  0  0  0  0  0  0  0  0  0
   23.7160  -21.3413  -12.0405 C   0  0  0  0  0  0  0  0  0  0  0  0
   23.0689  -21.6201  -10.9797 O   0  0  0  0  0  0  0  0  0  0  0  0
   22.9589  -21.1950  -13.2230 N   0  0  0  0  0  0  0  0  0  0  0  0
   21.6656  -20.5300  -13.1646 C   0  0  1  0  0  0  0  0  0  0  0  0
   21.8346  -19.0910  -12.7301 C   0  0  0  0  0  0  0  0  0  0  0  0
   20.5381  -18.3964  -12.8248 C   0  0  0  0  0  0  0  0  0  0  0  0
   19.3368  -19.0152  -13.1129 C   0  0  0  0  0  0  0  0  0  0  0  0
   18.3582  -18.1081  -13.1535 N   0  0  0  0  0  0  0  0  0  0  0  0
   18.9479  -16.9322  -12.8926 C   0  0  0  0  0  0  0  0  0  0  0  0
   20.2570  -17.0861  -12.6922 N   0  0  0  0  0  0  0  0  0  0  0  0
   20.9504  -20.6546  -14.4428 C   0  0  0  0  0  0  0  0  0  0  0  0
   21.5291  -20.2932  -15.4992 O   0  0  0  0  0  0  0  0  0  0  0  0
   19.6738  -21.1481  -14.5784 O   0  0  0  0  0  0  0  0  0  0  0  0
  2  1  1  6
  3  2  1  0
  3  4  1  0
  4  5  2  0
  5  6  1  0
  7  6  2  0
  8  7  1  0
  9  4  1  0
  9  8  2  0
 10 11  2  0
 10  2  1  0
 12 10  1  0
 13 12  1  0
 13 14  1  6
 14 15  1  0
 15 16  1  0
 16 17  1  0
 17 18  1  0
 19 13  1  0
 20 19  2  0
 21 19  1  0
 22 21  1  0
 22 23  1  6
 24 23  1  0
 24 25  2  0
 26 25  1  0
 27 26  1  0
 28 27  2  0
 28 24  1  0
 29 22  1  0
 30 29  2  0
 31 29  1  0
M  END
$$$$
