FKH.pdb
     RDKit          3D

 31 32  0  0  1  0  0  0  0  0999 V2000
   26.9517  -20.0670  -19.3981 N   0  0  0  0  0  0  0  0  0  0  0  0
   27.0713  -20.2931  -17.9912 C   0  0  1  0  0  0  0  0  0  0  0  0
   27.0789  -19.0724  -17.1484 C   0  0  0  0  0  0  0  0  0  0  0  0
   28.1445  -18.1136  -17.4399 C   0  0  0  0  0  0  0  0  0  0  0  0
   27.9367  -16.7656  -17.6493 C   0  0  0  0  0  0  0  0  0  0  0  0
   28.9995  -15.9275  -17.9236 C   0  0  0  0  0  0  0  0  0  0  0  0
   30.2906  -16.3964  -17.9980 C   0  0  0  0  0  0  0  0  0  0  0  0
   30.5089  -17.7439  -17.7896 C   0  0  0  0  0  0  0  0  0  0  0  0
   29.4438  -18.5775  -17.5158 C   0  0  0  0  0  0  0  0  0  0  0  0
   25.9125  -21.1387  -17.5769 C   0  0  0  0  0  0  0  0  0  0  0  0
   24.7933  -20.8946  -18.1046 O   0  0  0  0  0  0  0  0  0  0  0  0
   26.0074  -22.1759  -16.6428 N   0  0  0  0  0  0  0  0  0  0  0  0
   24.8291  -22.9991  -16.3460 C   0  0  1  0  0  0  0  0  0  0  0  0
   25.3028  -24.3108  -15.7460 C   0  0  0  0  0  0  0  0  0  0  0  0
   26.1356  -25.0629  -16.7339 C   0  0  0  0  0  0  0  0  0  0  0  0
   26.5800  -26.4069  -16.1270 C   0  0  0  0  0  0  0  0  0  0  0  0
   27.4409  -27.1347  -17.1003 C   0  0  0  0  0  0  0  0  0  0  0  0
   27.8739  -28.3725  -16.4499 N   0  0  0  0  0  0  0  0  0  0  0  0
   23.9560  -22.2386  -15.4426 C   0  0  0  0  0  0  0  0  0  0  0  0
   24.4323  -21.2024  -14.8757 O   0  0  0  0  0  0  0  0  0  0  0  0
   22.6127  -22.5587  -15.1493 N   0  0  0  0  0  0  0  0  0  0  0  0
   21.6127  -21.5014  -15.1403 C   0  0  1  0  0  0  0  0  0  0  0  0
   21.7804  -20.6102  -16.3510 C   0  0  0  0  0  0  0  0  0  0  0  0
   20.7186  -19.5881  -16.3564 C   0  0  0  0  0  0  0  0  0  0  0  0
   19.7843  -19.4234  -15.3518 C   0  0  0  0  0  0  0  0  0  0  0  0
   18.9465  -18.4340  -15.6701 N   0  0  0  0  0  0  0  0  0  0  0  0
   19.3573  -17.9866  -16.8658 C   0  0  0  0  0  0  0  0  0  0  0  0
   20.4207  -18.6678  -17.2933 N   0  0  0  0  0  0  0  0  0  0  0  0
   20.2567  -22.0588  -15.0319 C   0  0  0  0  0  0  0  0  0  0  0  0
   19.6885  -22.4779  -16.0726 O   0  0  0  0  0  0  0  0  0  0  0  0
   19.5471  -22.1636  -13.8585 O   0  0  0  0  0  0  0  0  0  0  0  0
  2  1  1  6
  3  2  1  0
  3  4  1  0
  4  5  2  0
  5  6  1  0
  7  6  2  0
  8  7  1  0
  9  4  1  0
  9  8  2  0
 10 11  2  0
 10  2  1  0
 12 10  1  0
 13 12  1  0
 13 14  1  1
 14 15  1  0
 15 16  1  0
 16 17  1  0
 17 18  1  0
 19 13  1  0
 20 19  2  0
 21 19  1  0
 22 21  1  0
 22 23  1  6
 24 23  1  0
 24 25  2  0
 26 25  1  0
 27 26  1  0
 28 27  2  0
 28 24  1  0
 29 22  1  0
 30 29  2  0
 31 29  1  0
M  END
$$$$
