FKH.pdb
     RDKit          3D

 31 32  0  0  1  0  0  0  0  0999 V2000
   27.1991  -11.9002  -20.7997 N   0  0  0  0  0  0  0  0  0  0  0  0
   26.8983  -12.6267  -19.6053 C   0  0  1  0  0  0  0  0  0  0  0  0
   26.6753  -11.7984  -18.3952 C   0  0  0  0  0  0  0  0  0  0  0  0
   27.7658  -10.8880  -18.0465 C   0  0  0  0  0  0  0  0  0  0  0  0
   27.7187   -9.5202  -18.2231 C   0  0  0  0  0  0  0  0  0  0  0  0
   28.7957   -8.7311  -17.8704 C   0  0  0  0  0  0  0  0  0  0  0  0
   29.9433   -9.2693  -17.3359 C   0  0  0  0  0  0  0  0  0  0  0  0
   30.0000  -10.6371  -17.1550 C   0  0  0  0  0  0  0  0  0  0  0  0
   28.9214  -11.4217  -17.5089 C   0  0  0  0  0  0  0  0  0  0  0  0
   25.6576  -13.4158  -19.8656 C   0  0  0  0  0  0  0  0  0  0  0  0
   24.8178  -12.9337  -20.6737 O   0  0  0  0  0  0  0  0  0  0  0  0
   25.3854  -14.6489  -19.2635 N   0  0  0  0  0  0  0  0  0  0  0  0
   24.1653  -15.3815  -19.6227 C   0  0  1  0  0  0  0  0  0  0  0  0
   24.4447  -16.8677  -19.4880 C   0  0  0  0  0  0  0  0  0  0  0  0
   25.2937  -17.3416  -20.6237 C   0  0  0  0  0  0  0  0  0  0  0  0
   25.4646  -18.8703  -20.5461 C   0  0  0  0  0  0  0  0  0  0  0  0
   26.3836  -19.3261  -21.6257 C   0  0  0  0  0  0  0  0  0  0  0  0
   26.4661  -20.7846  -21.5331 N   0  0  0  0  0  0  0  0  0  0  0  0
   23.0808  -14.9210  -18.7462 C   0  0  0  0  0  0  0  0  0  0  0  0
   23.3865  -14.2230  -17.7258 O   0  0  0  0  0  0  0  0  0  0  0  0
   21.7080  -15.1843  -18.9439 N   0  0  0  0  0  0  0  0  0  0  0  0
   20.7276  -14.1717  -18.5810 C   0  0  1  0  0  0  0  0  0  0  0  0
   21.0791  -12.8475  -19.2220 C   0  0  0  0  0  0  0  0  0  0  0  0
   20.0838  -11.8343  -18.8282 C   0  0  0  0  0  0  0  0  0  0  0  0
   19.8566  -11.4229  -17.5288 C   0  0  0  0  0  0  0  0  0  0  0  0
   18.8749  -10.5184  -17.5052 N   0  0  0  0  0  0  0  0  0  0  0  0
   18.4939  -10.3689  -18.7824 C   0  0  0  0  0  0  0  0  0  0  0  0
   19.2093  -11.1512  -19.5910 N   0  0  0  0  0  0  0  0  0  0  0  0
   19.3651  -14.6152  -18.9095 C   0  0  0  0  0  0  0  0  0  0  0  0
   18.4625  -14.4948  -18.0420 O   0  0  0  0  0  0  0  0  0  0  0  0
   18.9907  -15.1595  -20.1157 O   0  0  0  0  0  0  0  0  0  0  0  0
  2  1  1  6
  3  2  1  0
  3  4  1  0
  4  5  2  0
  5  6  1  0
  7  6  2  0
  8  7  1  0
  9  4  1  0
  9  8  2  0
 10 11  2  0
 10  2  1  0
 12 10  1  0
 13 12  1  0
 13 14  1  1
 14 15  1  0
 15 16  1  0
 16 17  1  0
 17 18  1  0
 19 13  1  0
 20 19  2  0
 21 19  1  0
 22 21  1  0
 22 23  1  6
 24 23  1  0
 24 25  2  0
 26 25  1  0
 27 26  1  0
 28 27  2  0
 28 24  1  0
 29 22  1  0
 30 29  2  0
 31 29  1  0
M  END
$$$$
