FGF.pdb
     RDKit          3D

 27 28  0  0  1  0  0  0  0  0999 V2000
   16.1701  -14.0722    6.9136 N   0  0  0  0  0  0  0  0  0  0  0  0
   16.6935  -15.3395    6.4541 C   0  0  1  0  0  0  0  0  0  0  0  0
   18.2042  -15.2965    6.3324 C   0  0  0  0  0  0  0  0  0  0  0  0
   18.5287  -14.3828    5.1916 C   0  0  0  0  0  0  0  0  0  0  0  0
   18.4362  -14.7939    3.8781 C   0  0  0  0  0  0  0  0  0  0  0  0
   18.7444  -13.9202    2.8558 C   0  0  0  0  0  0  0  0  0  0  0  0
   19.1479  -12.6289    3.1255 C   0  0  0  0  0  0  0  0  0  0  0  0
   19.2460  -12.1995    4.4489 C   0  0  0  0  0  0  0  0  0  0  0  0
   18.9333  -13.0889    5.4519 C   0  0  0  0  0  0  0  0  0  0  0  0
   16.2464  -16.3912    7.3894 C   0  0  0  0  0  0  0  0  0  0  0  0
   15.7674  -16.0546    8.4957 O   0  0  0  0  0  0  0  0  0  0  0  0
   16.3272  -17.7861    7.1080 N   0  0  0  0  0  0  0  0  0  0  0  0
   15.9269  -18.8108    8.0152 C   0  0  0  0  0  0  0  0  0  0  0  0
   16.0925  -20.1840    7.4171 C   0  0  0  0  0  0  0  0  0  0  0  0
   15.3402  -20.6009    6.4993 O   0  0  0  0  0  0  0  0  0  0  0  0
   17.1133  -21.0553    7.8777 N   0  0  0  0  0  0  0  0  0  0  0  0
   17.8223  -21.9909    7.0116 C   0  0  1  0  0  0  0  0  0  0  0  0
   18.5872  -21.2876    5.9511 C   0  0  0  0  0  0  0  0  0  0  0  0
   19.5714  -20.3572    6.5349 C   0  0  0  0  0  0  0  0  0  0  0  0
   19.3510  -18.9898    6.6703 C   0  0  0  0  0  0  0  0  0  0  0  0
   20.3095  -18.1765    7.2316 C   0  0  0  0  0  0  0  0  0  0  0  0
   21.5189  -18.6845    7.6784 C   0  0  0  0  0  0  0  0  0  0  0  0
   21.7402  -20.0379    7.5455 C   0  0  0  0  0  0  0  0  0  0  0  0
   20.7976  -20.8548    6.9908 C   0  0  0  0  0  0  0  0  0  0  0  0
   18.7121  -22.8136    7.8434 C   0  0  0  0  0  0  0  0  0  0  0  0
   18.8677  -22.4649    9.2006 O   0  0  0  0  0  0  0  0  0  0  0  0
   19.3380  -23.8173    7.3828 O   0  0  0  0  0  0  0  0  0  0  0  0
  2  1  1  1
  2 10  1  0
  3  2  1  0
  4  9  1  0
  4  3  1  0
  5  4  2  0
  6  7  2  0
  6  5  1  0
  7  8  1  0
  8  9  2  0
 10 12  1  0
 10 11  2  0
 12 13  1  0
 14 15  2  0
 14 13  1  0
 16 14  1  0
 17 25  1  0
 17 16  1  0
 17 18  1  6
 19 18  1  0
 20 19  2  0
 21 20  1  0
 22 21  2  0
 23 22  1  0
 23 24  2  0
 24 19  1  0
 25 26  1  0
 27 25  2  0
M  END
$$$$
