FGF.pdb
     RDKit          3D

 27 28  0  0  1  0  0  0  0  0999 V2000
   26.5306  -19.8531  -17.7366 N   0  0  0  0  0  0  0  0  0  0  0  0
   27.6042  -20.6422  -17.1748 C   0  0  1  0  0  0  0  0  0  0  0  0
   28.6895  -19.7565  -16.5945 C   0  0  0  0  0  0  0  0  0  0  0  0
   28.0144  -18.7528  -15.7122 C   0  0  0  0  0  0  0  0  0  0  0  0
   27.8903  -18.9436  -14.3517 C   0  0  0  0  0  0  0  0  0  0  0  0
   27.2609  -17.9936  -13.5739 C   0  0  0  0  0  0  0  0  0  0  0  0
   26.7478  -16.8438  -14.1376 C   0  0  0  0  0  0  0  0  0  0  0  0
   26.8661  -16.6376  -15.5120 C   0  0  0  0  0  0  0  0  0  0  0  0
   27.4979  -17.5993  -16.2675 C   0  0  0  0  0  0  0  0  0  0  0  0
   27.0304  -21.5470  -16.1584 C   0  0  0  0  0  0  0  0  0  0  0  0
   27.7166  -22.5099  -15.7477 O   0  0  0  0  0  0  0  0  0  0  0  0
   25.7253  -21.3910  -15.6073 N   0  0  0  0  0  0  0  0  0  0  0  0
   25.0891  -22.3536  -14.7696 C   0  0  0  0  0  0  0  0  0  0  0  0
   25.6184  -22.3058  -13.3596 C   0  0  0  0  0  0  0  0  0  0  0  0
   26.1763  -23.3001  -12.8283 O   0  0  0  0  0  0  0  0  0  0  0  0
   25.5012  -21.1242  -12.5827 N   0  0  0  0  0  0  0  0  0  0  0  0
   25.8621  -21.0517  -11.1711 C   0  0  1  0  0  0  0  0  0  0  0  0
   27.0321  -20.1656  -10.9469 C   0  0  0  0  0  0  0  0  0  0  0  0
   27.3379  -20.0439   -9.5093 C   0  0  0  0  0  0  0  0  0  0  0  0
   26.7705  -19.0802   -8.6811 C   0  0  0  0  0  0  0  0  0  0  0  0
   27.0935  -19.0254   -7.3440 C   0  0  0  0  0  0  0  0  0  0  0  0
   27.9880  -19.9198   -6.7780 C   0  0  0  0  0  0  0  0  0  0  0  0
   28.5517  -20.8749   -7.5955 C   0  0  0  0  0  0  0  0  0  0  0  0
   28.2393  -20.9396   -8.9228 C   0  0  0  0  0  0  0  0  0  0  0  0
   24.6933  -20.5804  -10.4146 C   0  0  0  0  0  0  0  0  0  0  0  0
   24.5338  -21.0267   -9.0868 O   0  0  0  0  0  0  0  0  0  0  0  0
   23.8324  -19.7926  -10.9143 O   0  0  0  0  0  0  0  0  0  0  0  0
  2  1  1  1
  2 10  1  0
  3  2  1  0
  4  9  1  0
  4  3  1  0
  5  4  2  0
  6  7  2  0
  6  5  1  0
  7  8  1  0
  8  9  2  0
 10 12  1  0
 10 11  2  0
 12 13  1  0
 14 15  2  0
 14 13  1  0
 16 14  1  0
 17 25  1  0
 17 16  1  0
 17 18  1  6
 19 18  1  0
 20 19  2  0
 21 20  1  0
 22 21  2  0
 23 22  1  0
 23 24  2  0
 24 19  1  0
 25 26  1  0
 27 25  2  0
M  END
$$$$
