FGF.pdb
     RDKit          3D

 27 28  0  0  1  0  0  0  0  0999 V2000
   20.2503  -22.2215  -14.0573 N   0  0  0  0  0  0  0  0  0  0  0  0
   20.3995  -20.7970  -13.8582 C   0  0  1  0  0  0  0  0  0  0  0  0
   19.1539  -20.1976  -13.2352 C   0  0  0  0  0  0  0  0  0  0  0  0
   18.0940  -20.1861  -14.2925 C   0  0  0  0  0  0  0  0  0  0  0  0
   18.2053  -19.4125  -15.4292 C   0  0  0  0  0  0  0  0  0  0  0  0
   17.2056  -19.4307  -16.3798 C   0  0  0  0  0  0  0  0  0  0  0  0
   16.0844  -20.2169  -16.2131 C   0  0  0  0  0  0  0  0  0  0  0  0
   15.9583  -21.0042  -15.0687 C   0  0  0  0  0  0  0  0  0  0  0  0
   16.9685  -20.9696  -14.1342 C   0  0  0  0  0  0  0  0  0  0  0  0
   21.5964  -20.5694  -13.0235 C   0  0  0  0  0  0  0  0  0  0  0  0
   21.8971  -19.3976  -12.7022 O   0  0  0  0  0  0  0  0  0  0  0  0
   22.4433  -21.6150  -12.5537 N   0  0  0  0  0  0  0  0  0  0  0  0
   23.6814  -21.4012  -11.8795 C   0  0  0  0  0  0  0  0  0  0  0  0
   24.7951  -21.0800  -12.8423 C   0  0  0  0  0  0  0  0  0  0  0  0
   24.6421  -21.1772  -14.0871 O   0  0  0  0  0  0  0  0  0  0  0  0
   26.0623  -20.6541  -12.3666 N   0  0  0  0  0  0  0  0  0  0  0  0
   27.1291  -20.1763  -13.2395 C   0  0  1  0  0  0  0  0  0  0  0  0
   28.1795  -19.4528  -12.4795 C   0  0  0  0  0  0  0  0  0  0  0  0
   28.4634  -20.1232  -11.1969 C   0  0  0  0  0  0  0  0  0  0  0  0
   27.6322  -20.0379  -10.0840 C   0  0  0  0  0  0  0  0  0  0  0  0
   27.9517  -20.6950   -8.9172 C   0  0  0  0  0  0  0  0  0  0  0  0
   29.1028  -21.4588   -8.8083 C   0  0  0  0  0  0  0  0  0  0  0  0
   29.9279  -21.5450   -9.9084 C   0  0  0  0  0  0  0  0  0  0  0  0
   29.6220  -20.8982  -11.0710 C   0  0  0  0  0  0  0  0  0  0  0  0
   27.6971  -21.3279  -13.9549 C   0  0  0  0  0  0  0  0  0  0  0  0
   27.2983  -22.6213  -13.5601 O   0  0  0  0  0  0  0  0  0  0  0  0
   28.5265  -21.1955  -14.9066 O   0  0  0  0  0  0  0  0  0  0  0  0
  2  1  1  1
  2 10  1  0
  3  2  1  0
  4  9  1  0
  4  3  1  0
  5  4  2  0
  6  7  2  0
  6  5  1  0
  7  8  1  0
  8  9  2  0
 10 12  1  0
 10 11  2  0
 12 13  1  0
 14 15  2  0
 14 13  1  0
 16 14  1  0
 17 25  1  0
 17 16  1  0
 17 18  1  1
 19 18  1  0
 20 19  2  0
 21 20  1  0
 22 21  2  0
 23 22  1  0
 23 24  2  0
 24 19  1  0
 25 26  1  0
 27 25  2  0
M  END
$$$$
