FGF.pdb
     RDKit          3D

 27 28  0  0  1  0  0  0  0  0999 V2000
   26.2355  -18.5726  -17.1778 N   0  0  0  0  0  0  0  0  0  0  0  0
   27.6251  -18.7434  -16.8160 C   0  0  1  0  0  0  0  0  0  0  0  0
   28.4916  -17.6721  -17.4489 C   0  0  0  0  0  0  0  0  0  0  0  0
   28.4249  -17.8701  -18.9314 C   0  0  0  0  0  0  0  0  0  0  0  0
   27.6687  -17.0510  -19.7439 C   0  0  0  0  0  0  0  0  0  0  0  0
   27.6344  -17.2676  -21.1060 C   0  0  0  0  0  0  0  0  0  0  0  0
   28.3502  -18.2994  -21.6770 C   0  0  0  0  0  0  0  0  0  0  0  0
   29.1192  -19.1356  -20.8678 C   0  0  0  0  0  0  0  0  0  0  0  0
   29.1378  -18.9000  -19.5116 C   0  0  0  0  0  0  0  0  0  0  0  0
   27.7244  -18.7321  -15.3426 C   0  0  0  0  0  0  0  0  0  0  0  0
   28.8475  -18.8784  -14.8098 O   0  0  0  0  0  0  0  0  0  0  0  0
   26.6056  -18.5626  -14.4760 N   0  0  0  0  0  0  0  0  0  0  0  0
   26.6938  -18.5173  -13.0535 C   0  0  0  0  0  0  0  0  0  0  0  0
   26.0124  -19.6985  -12.4124 C   0  0  0  0  0  0  0  0  0  0  0  0
   25.6031  -20.6750  -13.0916 O   0  0  0  0  0  0  0  0  0  0  0  0
   25.8109  -19.7431  -11.0086 N   0  0  0  0  0  0  0  0  0  0  0  0
   25.1827  -20.8667  -10.3223 C   0  0  1  0  0  0  0  0  0  0  0  0
   25.2347  -20.7093   -8.8469 C   0  0  0  0  0  0  0  0  0  0  0  0
   26.6016  -20.3886   -8.3953 C   0  0  0  0  0  0  0  0  0  0  0  0
   26.8952  -19.3653   -7.4990 C   0  0  0  0  0  0  0  0  0  0  0  0
   28.1939  -19.1225   -7.1119 C   0  0  0  0  0  0  0  0  0  0  0  0
   29.2477  -19.8810   -7.5962 C   0  0  0  0  0  0  0  0  0  0  0  0
   28.9601  -20.8946   -8.4839 C   0  0  0  0  0  0  0  0  0  0  0  0
   27.6766  -21.1454   -8.8754 C   0  0  0  0  0  0  0  0  0  0  0  0
   23.7939  -20.9812  -10.7899 C   0  0  0  0  0  0  0  0  0  0  0  0
   23.2542  -19.9191  -11.5438 O   0  0  0  0  0  0  0  0  0  0  0  0
   23.0732  -21.9955  -10.5387 O   0  0  0  0  0  0  0  0  0  0  0  0
  2  1  1  1
  2 10  1  0
  3  2  1  0
  4  9  1  0
  4  3  1  0
  5  4  2  0
  6  7  2  0
  6  5  1  0
  7  8  1  0
  8  9  2  0
 10 12  1  0
 10 11  2  0
 12 13  1  0
 14 15  2  0
 14 13  1  0
 16 14  1  0
 17 25  1  0
 17 16  1  0
 17 18  1  1
 19 18  1  0
 20 19  2  0
 21 20  1  0
 22 21  2  0
 23 22  1  0
 23 24  2  0
 24 19  1  0
 25 26  1  0
 27 25  2  0
M  END
$$$$
