FGF.pdb
     RDKit          3D

 27 28  0  0  1  0  0  0  0  0999 V2000
   24.5214  -18.8789  -16.4858 N   0  0  0  0  0  0  0  0  0  0  0  0
   24.4303  -19.4558  -15.1630 C   0  0  1  0  0  0  0  0  0  0  0  0
   23.2093  -20.3459  -15.0364 C   0  0  0  0  0  0  0  0  0  0  0  0
   22.0109  -19.4924  -15.3133 C   0  0  0  0  0  0  0  0  0  0  0  0
   21.6966  -18.3999  -14.5319 C   0  0  0  0  0  0  0  0  0  0  0  0
   20.5827  -17.6390  -14.8214 C   0  0  0  0  0  0  0  0  0  0  0  0
   19.7683  -17.9538  -15.8895 C   0  0  0  0  0  0  0  0  0  0  0  0
   20.0739  -19.0556  -16.6882 C   0  0  0  0  0  0  0  0  0  0  0  0
   21.1902  -19.7997  -16.3800 C   0  0  0  0  0  0  0  0  0  0  0  0
   25.6802  -20.1946  -14.8933 C   0  0  0  0  0  0  0  0  0  0  0  0
   26.3561  -20.6150  -15.8593 O   0  0  0  0  0  0  0  0  0  0  0  0
   26.1731  -20.4632  -13.5832 N   0  0  0  0  0  0  0  0  0  0  0  0
   27.4168  -21.1054  -13.3112 C   0  0  0  0  0  0  0  0  0  0  0  0
   27.6932  -21.1868  -11.8322 C   0  0  0  0  0  0  0  0  0  0  0  0
   28.7592  -21.6823  -11.3846 O   0  0  0  0  0  0  0  0  0  0  0  0
   26.7479  -20.7012  -10.8919 N   0  0  0  0  0  0  0  0  0  0  0  0
   26.1848  -21.5191   -9.8231 C   0  0  1  0  0  0  0  0  0  0  0  0
   27.1968  -21.8420   -8.7858 C   0  0  0  0  0  0  0  0  0  0  0  0
   27.5650  -20.6417   -8.0118 C   0  0  0  0  0  0  0  0  0  0  0  0
   26.6682  -19.6258   -7.6951 C   0  0  0  0  0  0  0  0  0  0  0  0
   27.0749  -18.5338   -6.9619 C   0  0  0  0  0  0  0  0  0  0  0  0
   28.3808  -18.4066   -6.5163 C   0  0  0  0  0  0  0  0  0  0  0  0
   29.2711  -19.4107   -6.8285 C   0  0  0  0  0  0  0  0  0  0  0  0
   28.8800  -20.4985   -7.5547 C   0  0  0  0  0  0  0  0  0  0  0  0
   25.0436  -20.8007   -9.2383 C   0  0  0  0  0  0  0  0  0  0  0  0
   24.7866  -19.4861   -9.6779 O   0  0  0  0  0  0  0  0  0  0  0  0
   24.2905  -21.3216   -8.3591 O   0  0  0  0  0  0  0  0  0  0  0  0
  2  1  1  6
  2 10  1  0
  3  2  1  0
  4  9  1  0
  4  3  1  0
  5  4  2  0
  6  7  2  0
  6  5  1  0
  7  8  1  0
  8  9  2  0
 10 12  1  0
 10 11  2  0
 12 13  1  0
 14 15  2  0
 14 13  1  0
 16 14  1  0
 17 25  1  0
 17 16  1  0
 17 18  1  1
 19 18  1  0
 20 19  2  0
 21 20  1  0
 22 21  2  0
 23 22  1  0
 23 24  2  0
 24 19  1  0
 25 26  1  0
 27 25  2  0
M  END
$$$$
