FGF.pdb
     RDKit          3D

 27 28  0  0  1  0  0  0  0  0999 V2000
   29.2689  -22.0950   -8.8807 N   0  0  0  0  0  0  0  0  0  0  0  0
   28.2776  -21.1075   -9.2457 C   0  0  1  0  0  0  0  0  0  0  0  0
   28.6055  -19.7543   -8.6453 C   0  0  0  0  0  0  0  0  0  0  0  0
   28.4997  -19.8943   -7.1585 C   0  0  0  0  0  0  0  0  0  0  0  0
   29.6131  -20.0488   -6.3589 C   0  0  0  0  0  0  0  0  0  0  0  0
   29.4719  -20.1745   -4.9922 C   0  0  0  0  0  0  0  0  0  0  0  0
   28.2244  -20.1483   -4.4039 C   0  0  0  0  0  0  0  0  0  0  0  0
   27.0898  -19.9928   -5.2000 C   0  0  0  0  0  0  0  0  0  0  0  0
   27.2555  -19.8693   -6.5610 C   0  0  0  0  0  0  0  0  0  0  0  0
   28.2010  -21.0516  -10.7194 C   0  0  0  0  0  0  0  0  0  0  0  0
   29.2593  -20.9339  -11.3772 O   0  0  0  0  0  0  0  0  0  0  0  0
   26.9800  -21.1244  -11.4511 N   0  0  0  0  0  0  0  0  0  0  0  0
   26.3778  -22.3417  -11.8856 C   0  0  0  0  0  0  0  0  0  0  0  0
   25.1486  -22.0914  -12.7204 C   0  0  0  0  0  0  0  0  0  0  0  0
   24.4879  -23.0355  -13.2248 O   0  0  0  0  0  0  0  0  0  0  0  0
   24.6965  -20.7686  -12.9638 N   0  0  0  0  0  0  0  0  0  0  0  0
   23.3080  -20.3515  -12.8021 C   0  0  1  0  0  0  0  0  0  0  0  0
   23.1465  -19.4023  -11.6719 C   0  0  0  0  0  0  0  0  0  0  0  0
   23.2215  -20.1024  -10.3760 C   0  0  0  0  0  0  0  0  0  0  0  0
   22.1999  -20.9030   -9.8741 C   0  0  0  0  0  0  0  0  0  0  0  0
   22.3364  -21.5357   -8.6590 C   0  0  0  0  0  0  0  0  0  0  0  0
   23.4859  -21.3997   -7.8971 C   0  0  0  0  0  0  0  0  0  0  0  0
   24.4990  -20.6074   -8.3912 C   0  0  0  0  0  0  0  0  0  0  0  0
   24.3757  -19.9750   -9.5947 C   0  0  0  0  0  0  0  0  0  0  0  0
   22.8521  -19.7495  -14.0631 C   0  0  0  0  0  0  0  0  0  0  0  0
   21.4652  -19.6836  -14.3078 O   0  0  0  0  0  0  0  0  0  0  0  0
   23.6595  -19.2923  -14.9293 O   0  0  0  0  0  0  0  0  0  0  0  0
  2  1  1  6
  2 10  1  0
  3  2  1  0
  4  9  1  0
  4  3  1  0
  5  4  2  0
  6  7  2  0
  6  5  1  0
  7  8  1  0
  8  9  2  0
 10 12  1  0
 10 11  2  0
 12 13  1  0
 14 15  2  0
 14 13  1  0
 16 14  1  0
 17 25  1  0
 17 16  1  0
 17 18  1  1
 19 18  1  0
 20 19  2  0
 21 20  1  0
 22 21  2  0
 23 22  1  0
 23 24  2  0
 24 19  1  0
 25 26  1  0
 27 25  2  0
M  END
$$$$
