FGF.pdb
     RDKit          3D

 27 28  0  0  1  0  0  0  0  0999 V2000
   19.9529   -5.8316  -16.5454 N   0  0  0  0  0  0  0  0  0  0  0  0
   20.2786   -6.4471  -15.2781 C   0  0  1  0  0  0  0  0  0  0  0  0
   21.7267   -6.1978  -14.9042 C   0  0  0  0  0  0  0  0  0  0  0  0
   21.9962   -6.9666  -13.6481 C   0  0  0  0  0  0  0  0  0  0  0  0
   22.4018   -8.2849  -13.6721 C   0  0  0  0  0  0  0  0  0  0  0  0
   22.6399   -8.9577  -12.4913 C   0  0  0  0  0  0  0  0  0  0  0  0
   22.4781   -8.3298  -11.2737 C   0  0  0  0  0  0  0  0  0  0  0  0
   22.0685   -6.9971  -11.2342 C   0  0  0  0  0  0  0  0  0  0  0  0
   21.8370   -6.3465  -12.4250 C   0  0  0  0  0  0  0  0  0  0  0  0
   19.3487   -5.9239  -14.2571 C   0  0  0  0  0  0  0  0  0  0  0  0
   19.0940   -4.6985  -14.2405 O   0  0  0  0  0  0  0  0  0  0  0  0
   18.7134   -6.7380  -13.2748 N   0  0  0  0  0  0  0  0  0  0  0  0
   17.8491   -6.2379  -12.2569 C   0  0  0  0  0  0  0  0  0  0  0  0
   17.4401   -7.3180  -11.2892 C   0  0  0  0  0  0  0  0  0  0  0  0
   18.2641   -7.8434  -10.4973 O   0  0  0  0  0  0  0  0  0  0  0  0
   16.0986   -7.7782  -11.2434 N   0  0  0  0  0  0  0  0  0  0  0  0
   15.6528   -8.8708  -10.3857 C   0  0  1  0  0  0  0  0  0  0  0  0
   14.3691   -8.5524   -9.7112 C   0  0  0  0  0  0  0  0  0  0  0  0
   14.4382   -7.2473   -9.0277 C   0  0  0  0  0  0  0  0  0  0  0  0
   13.9799   -6.0596   -9.5897 C   0  0  0  0  0  0  0  0  0  0  0  0
   14.0672   -4.8745   -8.8944 C   0  0  0  0  0  0  0  0  0  0  0  0
   14.6101   -4.8207   -7.6206 C   0  0  0  0  0  0  0  0  0  0  0  0
   15.0651   -5.9950   -7.0617 C   0  0  0  0  0  0  0  0  0  0  0  0
   14.9840   -7.1763   -7.7408 C   0  0  0  0  0  0  0  0  0  0  0  0
   15.5291  -10.0854  -11.2043 C   0  0  0  0  0  0  0  0  0  0  0  0
   15.4940  -11.3321  -10.5469 O   0  0  0  0  0  0  0  0  0  0  0  0
   15.4539  -10.0471  -12.4708 O   0  0  0  0  0  0  0  0  0  0  0  0
  2  1  1  6
  2 10  1  0
  3  2  1  0
  4  9  1  0
  4  3  1  0
  5  4  2  0
  6  7  2  0
  6  5  1  0
  7  8  1  0
  8  9  2  0
 10 12  1  0
 10 11  2  0
 12 13  1  0
 14 15  2  0
 14 13  1  0
 16 14  1  0
 17 25  1  0
 17 16  1  0
 17 18  1  6
 19 18  1  0
 20 19  2  0
 21 20  1  0
 22 21  2  0
 23 22  1  0
 23 24  2  0
 24 19  1  0
 25 26  1  0
 27 25  2  0
M  END
$$$$
