FGF.pdb
     RDKit          3D

 27 28  0  0  1  0  0  0  0  0999 V2000
   27.9640  -19.9875  -10.4564 N   0  0  0  0  0  0  0  0  0  0  0  0
   26.9709  -20.9964  -10.1617 C   0  0  1  0  0  0  0  0  0  0  0  0
   26.2076  -20.6602   -8.8955 C   0  0  0  0  0  0  0  0  0  0  0  0
   27.2211  -20.4298   -7.8179 C   0  0  0  0  0  0  0  0  0  0  0  0
   27.2370  -19.2732   -7.0661 C   0  0  0  0  0  0  0  0  0  0  0  0
   28.1884  -19.1001   -6.0821 C   0  0  0  0  0  0  0  0  0  0  0  0
   29.1345  -20.0727   -5.8330 C   0  0  0  0  0  0  0  0  0  0  0  0
   29.1305  -21.2472   -6.5854 C   0  0  0  0  0  0  0  0  0  0  0  0
   28.1717  -21.3974   -7.5616 C   0  0  0  0  0  0  0  0  0  0  0  0
   26.0742  -21.1178  -11.3289 C   0  0  0  0  0  0  0  0  0  0  0  0
   25.4680  -20.1011  -11.7356 O   0  0  0  0  0  0  0  0  0  0  0  0
   25.8522  -22.3376  -12.0320 N   0  0  0  0  0  0  0  0  0  0  0  0
   24.9973  -22.4643  -13.1661 C   0  0  0  0  0  0  0  0  0  0  0  0
   23.5559  -22.2037  -12.8126 C   0  0  0  0  0  0  0  0  0  0  0  0
   22.9141  -22.9673  -12.0463 O   0  0  0  0  0  0  0  0  0  0  0  0
   22.8741  -21.0766  -13.3401 N   0  0  0  0  0  0  0  0  0  0  0  0
   21.4836  -20.7615  -13.0311 C   0  0  1  0  0  0  0  0  0  0  0  0
   21.1819  -19.3251  -13.2549 C   0  0  0  0  0  0  0  0  0  0  0  0
   21.5626  -18.9089  -14.6176 C   0  0  0  0  0  0  0  0  0  0  0  0
   22.8458  -18.4981  -14.9660 C   0  0  0  0  0  0  0  0  0  0  0  0
   23.1375  -18.1288  -16.2599 C   0  0  0  0  0  0  0  0  0  0  0  0
   22.1728  -18.1520  -17.2544 C   0  0  0  0  0  0  0  0  0  0  0  0
   20.9014  -18.5580  -16.9124 C   0  0  0  0  0  0  0  0  0  0  0  0
   20.5997  -18.9267  -15.6332 C   0  0  0  0  0  0  0  0  0  0  0  0
   20.6176  -21.6152  -13.8568 C   0  0  0  0  0  0  0  0  0  0  0  0
   19.2504  -21.6995  -13.5230 O   0  0  0  0  0  0  0  0  0  0  0  0
   21.0576  -22.2718  -14.8500 O   0  0  0  0  0  0  0  0  0  0  0  0
  2  1  1  6
  2 10  1  0
  3  2  1  0
  4  9  1  0
  4  3  1  0
  5  4  2  0
  6  7  2  0
  6  5  1  0
  7  8  1  0
  8  9  2  0
 10 12  1  0
 10 11  2  0
 12 13  1  0
 14 15  2  0
 14 13  1  0
 16 14  1  0
 17 25  1  0
 17 16  1  0
 17 18  1  6
 19 18  1  0
 20 19  2  0
 21 20  1  0
 22 21  2  0
 23 22  1  0
 23 24  2  0
 24 19  1  0
 25 26  1  0
 27 25  2  0
M  END
$$$$
