FGF.pdb
     RDKit          3D

 27 28  0  0  1  0  0  0  0  0999 V2000
   24.6272  -20.3730  -14.9580 N   0  0  0  0  0  0  0  0  0  0  0  0
   24.0293  -19.8212  -13.7626 C   0  0  1  0  0  0  0  0  0  0  0  0
   22.7425  -20.5420  -13.4108 C   0  0  0  0  0  0  0  0  0  0  0  0
   21.7695  -20.2716  -14.5159 C   0  0  0  0  0  0  0  0  0  0  0  0
   21.4836  -21.2126  -15.4833 C   0  0  0  0  0  0  0  0  0  0  0  0
   20.5802  -20.9233  -16.4851 C   0  0  0  0  0  0  0  0  0  0  0  0
   19.9505  -19.6970  -16.5382 C   0  0  0  0  0  0  0  0  0  0  0  0
   20.2298  -18.7359  -15.5668 C   0  0  0  0  0  0  0  0  0  0  0  0
   21.1345  -19.0473  -14.5772 C   0  0  0  0  0  0  0  0  0  0  0  0
   25.0205  -19.9003  -12.6707 C   0  0  0  0  0  0  0  0  0  0  0  0
   24.7359  -19.4053  -11.5569 O   0  0  0  0  0  0  0  0  0  0  0  0
   26.2998  -20.5137  -12.8069 N   0  0  0  0  0  0  0  0  0  0  0  0
   27.2743  -20.5734  -11.7677 C   0  0  0  0  0  0  0  0  0  0  0  0
   26.7270  -21.2240  -10.5237 C   0  0  0  0  0  0  0  0  0  0  0  0
   25.7943  -22.0665  -10.5733 O   0  0  0  0  0  0  0  0  0  0  0  0
   27.2544  -20.9010   -9.2466 N   0  0  0  0  0  0  0  0  0  0  0  0
   26.7773  -21.5006   -8.0052 C   0  0  1  0  0  0  0  0  0  0  0  0
   27.8908  -21.7712   -7.0612 C   0  0  0  0  0  0  0  0  0  0  0  0
   28.2540  -20.5570   -6.3068 C   0  0  0  0  0  0  0  0  0  0  0  0
   29.0249  -19.5256   -6.8346 C   0  0  0  0  0  0  0  0  0  0  0  0
   29.3223  -18.4141   -6.0786 C   0  0  0  0  0  0  0  0  0  0  0  0
   28.8695  -18.2823   -4.7755 C   0  0  0  0  0  0  0  0  0  0  0  0
   28.1063  -19.3021   -4.2502 C   0  0  0  0  0  0  0  0  0  0  0  0
   27.8044  -20.4091   -4.9897 C   0  0  0  0  0  0  0  0  0  0  0  0
   25.7853  -20.5986   -7.4029 C   0  0  0  0  0  0  0  0  0  0  0  0
   24.9032  -21.1261   -6.4378 O   0  0  0  0  0  0  0  0  0  0  0  0
   25.6990  -19.3728   -7.7212 O   0  0  0  0  0  0  0  0  0  0  0  0
  2  1  1  6
  2 10  1  0
  3  2  1  0
  4  9  1  0
  4  3  1  0
  5  4  2  0
  6  7  2  0
  6  5  1  0
  7  8  1  0
  8  9  2  0
 10 12  1  0
 10 11  2  0
 12 13  1  0
 14 15  2  0
 14 13  1  0
 16 14  1  0
 17 25  1  0
 17 16  1  0
 17 18  1  1
 19 18  1  0
 20 19  2  0
 21 20  1  0
 22 21  2  0
 23 22  1  0
 23 24  2  0
 24 19  1  0
 25 26  1  0
 27 25  2  0
M  END
$$$$
