FGF.pdb
     RDKit          3D

 27 28  0  0  1  0  0  0  0  0999 V2000
   26.1439  -20.0085  -15.6940 N   0  0  0  0  0  0  0  0  0  0  0  0
   25.9855  -19.8398  -14.2667 C   0  0  1  0  0  0  0  0  0  0  0  0
   24.7513  -20.5624  -13.7632 C   0  0  0  0  0  0  0  0  0  0  0  0
   23.5896  -20.0605  -14.5632 C   0  0  0  0  0  0  0  0  0  0  0  0
   22.8667  -18.9490  -14.1822 C   0  0  0  0  0  0  0  0  0  0  0  0
   21.8027  -18.5192  -14.9481 C   0  0  0  0  0  0  0  0  0  0  0  0
   21.4441  -19.1875  -16.1004 C   0  0  0  0  0  0  0  0  0  0  0  0
   22.1659  -20.3129  -16.4978 C   0  0  0  0  0  0  0  0  0  0  0  0
   23.2235  -20.7228  -15.7177 C   0  0  0  0  0  0  0  0  0  0  0  0
   27.2142  -20.3224  -13.6046 C   0  0  0  0  0  0  0  0  0  0  0  0
   28.2808  -20.3584  -14.2585 O   0  0  0  0  0  0  0  0  0  0  0  0
   27.2630  -20.7564  -12.2478 N   0  0  0  0  0  0  0  0  0  0  0  0
   28.4694  -20.9950  -11.5260 C   0  0  0  0  0  0  0  0  0  0  0  0
   28.2029  -21.2930  -10.0732 C   0  0  0  0  0  0  0  0  0  0  0  0
   29.1183  -21.6667   -9.2957 O   0  0  0  0  0  0  0  0  0  0  0  0
   26.8968  -21.1590   -9.5351 N   0  0  0  0  0  0  0  0  0  0  0  0
   26.6331  -20.8309   -8.1383 C   0  0  1  0  0  0  0  0  0  0  0  0
   27.2374  -19.5301   -7.7548 C   0  0  0  0  0  0  0  0  0  0  0  0
   28.1452  -19.6858   -6.6029 C   0  0  0  0  0  0  0  0  0  0  0  0
   27.9837  -19.0065   -5.3991 C   0  0  0  0  0  0  0  0  0  0  0  0
   28.8638  -19.2028   -4.3588 C   0  0  0  0  0  0  0  0  0  0  0  0
   29.9338  -20.0762   -4.4707 C   0  0  0  0  0  0  0  0  0  0  0  0
   30.0965  -20.7500   -5.6614 C   0  0  0  0  0  0  0  0  0  0  0  0
   29.2306  -20.5640   -6.7002 C   0  0  0  0  0  0  0  0  0  0  0  0
   25.1782  -20.8163   -7.9295 C   0  0  0  0  0  0  0  0  0  0  0  0
   24.6839  -21.1572   -6.6539 O   0  0  0  0  0  0  0  0  0  0  0  0
   24.3619  -20.5097   -8.8519 O   0  0  0  0  0  0  0  0  0  0  0  0
  2  1  1  6
  2 10  1  0
  3  2  1  0
  4  9  1  0
  4  3  1  0
  5  4  2  0
  6  7  2  0
  6  5  1  0
  7  8  1  0
  8  9  2  0
 10 12  1  0
 10 11  2  0
 12 13  1  0
 14 15  2  0
 14 13  1  0
 16 14  1  0
 17 25  1  0
 17 16  1  0
 17 18  1  6
 19 18  1  0
 20 19  2  0
 21 20  1  0
 22 21  2  0
 23 22  1  0
 23 24  2  0
 24 19  1  0
 25 26  1  0
 27 25  2  0
M  END
$$$$
