FGF.pdb
     RDKit          3D

 27 28  0  0  1  0  0  0  0  0999 V2000
   21.7988   -4.7830  -20.3396 N   0  0  0  0  0  0  0  0  0  0  0  0
   20.4045   -5.1506  -20.4484 C   0  0  1  0  0  0  0  0  0  0  0  0
   20.2338   -6.4163  -21.2657 C   0  0  0  0  0  0  0  0  0  0  0  0
   20.1969   -6.0093  -22.7060 C   0  0  0  0  0  0  0  0  0  0  0  0
   19.0172   -5.6834  -23.3425 C   0  0  0  0  0  0  0  0  0  0  0  0
   19.0268   -5.3132  -24.6715 C   0  0  0  0  0  0  0  0  0  0  0  0
   20.2072   -5.2623  -25.3837 C   0  0  0  0  0  0  0  0  0  0  0  0
   21.4076   -5.5890  -24.7532 C   0  0  0  0  0  0  0  0  0  0  0  0
   21.3731   -5.9554  -23.4267 C   0  0  0  0  0  0  0  0  0  0  0  0
   19.8572   -5.2982  -19.0847 C   0  0  0  0  0  0  0  0  0  0  0  0
   18.6484   -5.5915  -18.9454 O   0  0  0  0  0  0  0  0  0  0  0  0
   20.6298   -5.1251  -17.8996 N   0  0  0  0  0  0  0  0  0  0  0  0
   20.1184   -5.2898  -16.5787 C   0  0  0  0  0  0  0  0  0  0  0  0
   20.2368   -6.7158  -16.1063 C   0  0  0  0  0  0  0  0  0  0  0  0
   20.2621   -7.6802  -16.9134 O   0  0  0  0  0  0  0  0  0  0  0  0
   20.3241   -7.0142  -14.7218 N   0  0  0  0  0  0  0  0  0  0  0  0
   20.5799   -8.3535  -14.2032 C   0  0  1  0  0  0  0  0  0  0  0  0
   21.8111   -8.3970  -13.3747 C   0  0  0  0  0  0  0  0  0  0  0  0
   23.0181   -8.2528  -14.2099 C   0  0  0  0  0  0  0  0  0  0  0  0
   23.3751   -7.0685  -14.8476 C   0  0  0  0  0  0  0  0  0  0  0  0
   24.5206   -6.9984  -15.6080 C   0  0  0  0  0  0  0  0  0  0  0  0
   25.3532   -8.0949  -15.7656 C   0  0  0  0  0  0  0  0  0  0  0  0
   25.0023   -9.2689  -15.1356 C   0  0  0  0  0  0  0  0  0  0  0  0
   23.8692   -9.3510  -14.3788 C   0  0  0  0  0  0  0  0  0  0  0  0
   19.4085   -8.7844  -13.4267 C   0  0  0  0  0  0  0  0  0  0  0  0
   18.4530   -7.8125  -13.0661 O   0  0  0  0  0  0  0  0  0  0  0  0
   19.2326   -9.9912  -13.0746 O   0  0  0  0  0  0  0  0  0  0  0  0
  2  1  1  1
  2 10  1  0
  3  2  1  0
  4  9  1  0
  4  3  1  0
  5  4  2  0
  6  7  2  0
  6  5  1  0
  7  8  1  0
  8  9  2  0
 10 12  1  0
 10 11  2  0
 12 13  1  0
 14 15  2  0
 14 13  1  0
 16 14  1  0
 17 25  1  0
 17 16  1  0
 17 18  1  1
 19 18  1  0
 20 19  2  0
 21 20  1  0
 22 21  2  0
 23 22  1  0
 23 24  2  0
 24 19  1  0
 25 26  1  0
 27 25  2  0
M  END
$$$$
