YKA.pdb
     RDKit          3D

 27 27  0  0  1  0  0  0  0  0999 V2000
   10.4445  -14.0902   30.9774 O   0  0  0  0  0  0  0  0  0  0  0  0
   10.2414  -14.4857   29.6586 C   0  0  0  0  0  0  0  0  0  0  0  0
   10.5750  -15.7579   29.2405 C   0  0  0  0  0  0  0  0  0  0  0  0
   10.3787  -16.1645   27.9329 C   0  0  0  0  0  0  0  0  0  0  0  0
    9.8402  -15.3133   26.9905 C   0  0  0  0  0  0  0  0  0  0  0  0
    9.6271  -15.7477   25.5812 C   0  0  0  0  0  0  0  0  0  0  0  0
    8.1612  -15.9706   25.2723 C   0  0  2  0  0  0  0  0  0  0  0  0
    7.6169  -17.0072   26.1369 N   0  0  0  0  0  0  0  0  0  0  0  0
    8.0801  -16.3403   23.8501 C   0  0  0  0  0  0  0  0  0  0  0  0
    7.9352  -17.5323   23.5385 O   0  0  0  0  0  0  0  0  0  0  0  0
    9.5079  -14.0423   27.4117 C   0  0  0  0  0  0  0  0  0  0  0  0
    9.7028  -13.6330   28.7174 C   0  0  0  0  0  0  0  0  0  0  0  0
    8.1671  -15.3475   22.8724 N   0  0  0  0  0  0  0  0  0  0  0  0
    8.1249  -15.7194   21.4486 C   0  0  1  0  0  0  0  0  0  0  0  0
    7.8733  -14.4378   20.6972 C   0  0  0  0  0  0  0  0  0  0  0  0
    8.0007  -14.6287   19.2272 C   0  0  0  0  0  0  0  0  0  0  0  0
    7.7840  -13.2431   18.5970 C   0  0  0  0  0  0  0  0  0  0  0  0
    7.9644  -13.4163   17.1027 C   0  0  0  0  0  0  0  0  0  0  0  0
    7.8982  -12.0939   16.5051 N   0  0  0  0  0  0  0  0  0  0  0  0
    9.4865  -16.2042   21.1410 C   0  0  0  0  0  0  0  0  0  0  0  0
   10.4572  -15.6809   21.7335 O   0  0  0  0  0  0  0  0  0  0  0  0
   11.2513  -19.1612   19.9908 C   0  0  0  0  0  0  0  0  0  0  0  0
   11.1467  -17.6685   20.0115 C   0  0  2  0  0  0  0  0  0  0  0  0
    9.7835  -17.2381   20.2065 N   0  0  0  0  0  0  0  0  0  0  0  0
   11.7326  -17.1123   18.7635 C   0  0  0  0  0  0  0  0  0  0  0  0
   11.0417  -16.8732   17.7423 O   0  0  0  0  0  0  0  0  0  0  0  0
   13.0874  -16.8438   18.7125 O   0  0  0  0  0  0  0  0  0  0  0  0
  2  1  1  0
  3  2  2  0
  4  3  1  0
  5  4  2  0
  5 11  1  0
  6  5  1  0
  7  6  1  0
  7  9  1  0
  7  8  1  1
  9 13  1  0
 10  9  2  0
 11 12  2  0
 12  2  1  0
 13 14  1  0
 14 20  1  0
 14 15  1  6
 16 15  1  0
 17 18  1  0
 17 16  1  0
 19 18  1  0
 20 24  1  0
 21 20  2  0
 23 22  1  6
 23 25  1  0
 24 23  1  0
 25 26  2  0
 25 27  1  0
M  END
$$$$
