YKA.pdb
     RDKit          3D

 27 27  0  0  1  0  0  0  0  0999 V2000
    6.0329  -10.4915   27.8332 O   0  0  0  0  0  0  0  0  0  0  0  0
    6.5003  -11.6613   27.2417 C   0  0  0  0  0  0  0  0  0  0  0  0
    7.4127  -12.4684   27.8905 C   0  0  0  0  0  0  0  0  0  0  0  0
    7.8857  -13.6337   27.3146 C   0  0  0  0  0  0  0  0  0  0  0  0
    7.4642  -14.0386   26.0652 C   0  0  0  0  0  0  0  0  0  0  0  0
    7.9714  -15.2933   25.4417 C   0  0  0  0  0  0  0  0  0  0  0  0
    6.8655  -16.0782   24.7671 C   0  0  2  0  0  0  0  0  0  0  0  0
    6.4764  -17.2113   25.5937 N   0  0  0  0  0  0  0  0  0  0  0  0
    7.3867  -16.5038   23.4583 C   0  0  0  0  0  0  0  0  0  0  0  0
    7.5011  -17.7145   23.2133 O   0  0  0  0  0  0  0  0  0  0  0  0
    6.5522  -13.2296   25.4194 C   0  0  0  0  0  0  0  0  0  0  0  0
    6.0776  -12.0647   25.9920 C   0  0  0  0  0  0  0  0  0  0  0  0
    7.7449  -15.5423   22.5116 N   0  0  0  0  0  0  0  0  0  0  0  0
    8.1609  -15.9641   21.1639 C   0  0  1  0  0  0  0  0  0  0  0  0
    7.9841  -14.7547   20.2828 C   0  0  0  0  0  0  0  0  0  0  0  0
    8.3967  -15.0316   18.8804 C   0  0  0  0  0  0  0  0  0  0  0  0
    8.1534  -13.7298   18.0994 C   0  0  0  0  0  0  0  0  0  0  0  0
    8.4839  -14.0277   16.6511 C   0  0  0  0  0  0  0  0  0  0  0  0
    8.0418  -12.8886   15.8656 N   0  0  0  0  0  0  0  0  0  0  0  0
    9.6015  -16.2692   21.2880 C   0  0  0  0  0  0  0  0  0  0  0  0
   10.2195  -16.6664   20.2745 O   0  0  0  0  0  0  0  0  0  0  0  0
   12.5250  -15.4233   23.3046 C   0  0  0  0  0  0  0  0  0  0  0  0
   11.7666  -16.4296   22.4973 C   0  0  2  0  0  0  0  0  0  0  0  0
   10.3524  -16.1439   22.4925 N   0  0  0  0  0  0  0  0  0  0  0  0
   12.0565  -17.7956   23.0073 C   0  0  0  0  0  0  0  0  0  0  0  0
   11.1526  -18.5771   23.3940 O   0  0  0  0  0  0  0  0  0  0  0  0
   13.3661  -18.2338   23.0628 O   0  0  0  0  0  0  0  0  0  0  0  0
  2  1  1  0
  3  2  2  0
  4  3  1  0
  5  4  2  0
  5 11  1  0
  6  5  1  0
  7  6  1  0
  7  9  1  0
  7  8  1  1
  9 13  1  0
 10  9  2  0
 11 12  2  0
 12  2  1  0
 13 14  1  0
 14 20  1  0
 14 15  1  6
 16 15  1  0
 17 18  1  0
 17 16  1  0
 19 18  1  0
 20 24  1  0
 21 20  2  0
 23 22  1  1
 23 25  1  0
 24 23  1  0
 25 26  2  0
 25 27  1  0
M  END
$$$$
