YKA.pdb
     RDKit          3D

 27 27  0  0  1  0  0  0  0  0999 V2000
    5.6593  -10.2299   27.7967 O   0  0  0  0  0  0  0  0  0  0  0  0
    6.2368  -11.4030   27.3202 C   0  0  0  0  0  0  0  0  0  0  0  0
    5.9266  -11.8874   26.0656 C   0  0  0  0  0  0  0  0  0  0  0  0
    6.4929  -13.0520   25.5793 C   0  0  0  0  0  0  0  0  0  0  0  0
    7.3933  -13.7793   26.3297 C   0  0  0  0  0  0  0  0  0  0  0  0
    8.0055  -15.0340   25.8092 C   0  0  0  0  0  0  0  0  0  0  0  0
    6.9903  -15.9106   25.1055 C   0  0  2  0  0  0  0  0  0  0  0  0
    6.6363  -17.0447   25.9463 N   0  0  0  0  0  0  0  0  0  0  0  0
    7.6049  -16.3351   23.8374 C   0  0  0  0  0  0  0  0  0  0  0  0
    7.9980  -17.5051   23.7133 O   0  0  0  0  0  0  0  0  0  0  0  0
    7.7012  -13.2924   27.5833 C   0  0  0  0  0  0  0  0  0  0  0  0
    7.1370  -12.1292   28.0721 C   0  0  0  0  0  0  0  0  0  0  0  0
    7.7373  -15.4181   22.7931 N   0  0  0  0  0  0  0  0  0  0  0  0
    8.2247  -15.8721   21.4802 C   0  0  1  0  0  0  0  0  0  0  0  0
    8.0547  -14.6982   20.5511 C   0  0  0  0  0  0  0  0  0  0  0  0
    8.5110  -15.0186   19.1718 C   0  0  0  0  0  0  0  0  0  0  0  0
    7.9678  -13.8968   18.2715 C   0  0  0  0  0  0  0  0  0  0  0  0
    8.3472  -14.2622   16.8510 C   0  0  0  0  0  0  0  0  0  0  0  0
    7.8274  -13.2184   15.9846 N   0  0  0  0  0  0  0  0  0  0  0  0
    9.6661  -16.1313   21.6779 C   0  0  0  0  0  0  0  0  0  0  0  0
   10.3325  -15.3215   22.3613 O   0  0  0  0  0  0  0  0  0  0  0  0
   12.1409  -18.8821   21.4352 C   0  0  0  0  0  0  0  0  0  0  0  0
   11.7684  -17.4327   21.4279 C   0  0  2  0  0  0  0  0  0  0  0  0
   10.3662  -17.2502   21.1410 N   0  0  0  0  0  0  0  0  0  0  0  0
   12.6331  -16.7026   20.4639 C   0  0  0  0  0  0  0  0  0  0  0  0
   12.1815  -16.1779   19.4161 O   0  0  0  0  0  0  0  0  0  0  0  0
   13.9868  -16.5902   20.7192 O   0  0  0  0  0  0  0  0  0  0  0  0
  2  1  1  0
  3  2  2  0
  4  3  1  0
  5  4  2  0
  5 11  1  0
  6  5  1  0
  7  6  1  0
  7  9  1  0
  7  8  1  1
  9 13  1  0
 10  9  2  0
 11 12  2  0
 12  2  1  0
 13 14  1  0
 14 20  1  0
 14 15  1  6
 16 15  1  0
 17 18  1  0
 17 16  1  0
 19 18  1  0
 20 24  1  0
 21 20  2  0
 23 22  1  6
 23 25  1  0
 24 23  1  0
 25 26  2  0
 25 27  1  0
M  END
$$$$
