YKA.pdb
     RDKit          3D

 27 27  0  0  1  0  0  0  0  0999 V2000
    6.3891  -10.4590   28.0722 O   0  0  0  0  0  0  0  0  0  0  0  0
    6.8116  -11.6415   27.4723 C   0  0  0  0  0  0  0  0  0  0  0  0
    6.3991  -11.9773   26.1988 C   0  0  0  0  0  0  0  0  0  0  0  0
    6.8111  -13.1493   25.5903 C   0  0  0  0  0  0  0  0  0  0  0  0
    7.6532  -14.0330   26.2325 C   0  0  0  0  0  0  0  0  0  0  0  0
    8.0993  -15.2963   25.5802 C   0  0  0  0  0  0  0  0  0  0  0  0
    6.9590  -16.0061   24.8803 C   0  0  2  0  0  0  0  0  0  0  0  0
    6.4927  -17.1250   25.6860 N   0  0  0  0  0  0  0  0  0  0  0  0
    7.4728  -16.4447   23.5728 C   0  0  0  0  0  0  0  0  0  0  0  0
    7.8120  -17.6279   23.4180 O   0  0  0  0  0  0  0  0  0  0  0  0
    8.0637  -13.6944   27.5053 C   0  0  0  0  0  0  0  0  0  0  0  0
    7.6538  -12.5242   28.1160 C   0  0  0  0  0  0  0  0  0  0  0  0
    7.5719  -15.5261   22.5261 N   0  0  0  0  0  0  0  0  0  0  0  0
    8.1000  -15.9594   21.2221 C   0  0  1  0  0  0  0  0  0  0  0  0
    7.8642  -14.8068   20.2806 C   0  0  0  0  0  0  0  0  0  0  0  0
    8.3812  -15.0974   18.9161 C   0  0  0  0  0  0  0  0  0  0  0  0
    7.9589  -13.9081   18.0380 C   0  0  0  0  0  0  0  0  0  0  0  0
    8.4174  -14.2277   16.6297 C   0  0  0  0  0  0  0  0  0  0  0  0
    7.8608  -13.2107   15.7546 N   0  0  0  0  0  0  0  0  0  0  0  0
    9.5530  -16.1238   21.4353 C   0  0  0  0  0  0  0  0  0  0  0  0
   10.1573  -15.2738   22.1276 O   0  0  0  0  0  0  0  0  0  0  0  0
   12.1241  -18.4930   21.9011 C   0  0  0  0  0  0  0  0  0  0  0  0
   11.7505  -17.2502   21.1558 C   0  0  2  0  0  0  0  0  0  0  0  0
   10.3310  -17.1929   20.9042 N   0  0  0  0  0  0  0  0  0  0  0  0
   12.5419  -17.1676   19.9000 C   0  0  0  0  0  0  0  0  0  0  0  0
   12.0071  -17.1804   18.7637 O   0  0  0  0  0  0  0  0  0  0  0  0
   13.9189  -17.0729   19.9724 O   0  0  0  0  0  0  0  0  0  0  0  0
  2  1  1  0
  3  2  2  0
  4  3  1  0
  5  4  2  0
  5 11  1  0
  6  5  1  0
  7  6  1  0
  7  9  1  0
  7  8  1  1
  9 13  1  0
 10  9  2  0
 11 12  2  0
 12  2  1  0
 13 14  1  0
 14 20  1  0
 14 15  1  6
 16 15  1  0
 17 18  1  0
 17 16  1  0
 19 18  1  0
 20 24  1  0
 21 20  2  0
 23 22  1  6
 23 25  1  0
 24 23  1  0
 25 26  2  0
 25 27  1  0
M  END
$$$$
