YKA.pdb
     RDKit          3D

 27 27  0  0  1  0  0  0  0  0999 V2000
    5.9044  -10.5173   27.7023 O   0  0  0  0  0  0  0  0  0  0  0  0
    6.3209  -11.7561   27.2240 C   0  0  0  0  0  0  0  0  0  0  0  0
    5.8925  -12.2234   25.9981 C   0  0  0  0  0  0  0  0  0  0  0  0
    6.2984  -13.4525   25.5103 C   0  0  0  0  0  0  0  0  0  0  0  0
    7.1500  -14.2641   26.2305 C   0  0  0  0  0  0  0  0  0  0  0  0
    7.5896  -15.5887   25.7084 C   0  0  0  0  0  0  0  0  0  0  0  0
    6.6035  -16.1602   24.7108 C   0  0  2  0  0  0  0  0  0  0  0  0
    6.0984  -17.4418   25.1807 N   0  0  0  0  0  0  0  0  0  0  0  0
    7.3207  -16.2858   23.4318 C   0  0  0  0  0  0  0  0  0  0  0  0
    7.8757  -17.3583   23.1480 O   0  0  0  0  0  0  0  0  0  0  0  0
    7.5763  -13.7941   27.4555 C   0  0  0  0  0  0  0  0  0  0  0  0
    7.1726  -12.5665   27.9457 C   0  0  0  0  0  0  0  0  0  0  0  0
    7.3671  -15.1991   22.5564 N   0  0  0  0  0  0  0  0  0  0  0  0
    8.0636  -15.3303   21.2662 C   0  0  1  0  0  0  0  0  0  0  0  0
    7.9623  -13.9796   20.6061 C   0  0  0  0  0  0  0  0  0  0  0  0
    8.8687  -13.8729   19.4312 C   0  0  0  0  0  0  0  0  0  0  0  0
    7.9741  -14.0125   18.1885 C   0  0  0  0  0  0  0  0  0  0  0  0
    8.8816  -13.8608   16.9848 C   0  0  0  0  0  0  0  0  0  0  0  0
    8.0643  -14.0644   15.8012 N   0  0  0  0  0  0  0  0  0  0  0  0
    9.4740  -15.5943   21.6198 C   0  0  0  0  0  0  0  0  0  0  0  0
   10.0265  -14.8596   22.4695 O   0  0  0  0  0  0  0  0  0  0  0  0
   12.0584  -18.2361   21.4177 C   0  0  0  0  0  0  0  0  0  0  0  0
   11.6415  -16.7995   21.4605 C   0  0  2  0  0  0  0  0  0  0  0  0
   10.2654  -16.6377   21.0583 N   0  0  0  0  0  0  0  0  0  0  0  0
   12.5648  -15.9893   20.6230 C   0  0  0  0  0  0  0  0  0  0  0  0
   13.7801  -15.8452   20.9050 O   0  0  0  0  0  0  0  0  0  0  0  0
   12.0795  -15.3663   19.4887 O   0  0  0  0  0  0  0  0  0  0  0  0
  2  1  1  0
  3  2  2  0
  4  3  1  0
  5  4  2  0
  5 11  1  0
  6  5  1  0
  7  6  1  0
  7  9  1  0
  7  8  1  1
  9 13  1  0
 10  9  2  0
 11 12  2  0
 12  2  1  0
 13 14  1  0
 14 20  1  0
 14 15  1  6
 16 15  1  0
 17 18  1  0
 17 16  1  0
 19 18  1  0
 20 24  1  0
 21 20  2  0
 23 22  1  6
 23 25  1  0
 24 23  1  0
 25 26  2  0
 25 27  1  0
M  END
$$$$
