YKA.pdb
     RDKit          3D

 27 27  0  0  1  0  0  0  0  0999 V2000
    8.6403  -12.9476   16.9246 O   0  0  0  0  0  0  0  0  0  0  0  0
    8.2069  -13.3962   18.1687 C   0  0  0  0  0  0  0  0  0  0  0  0
    7.8416  -12.5042   19.1564 C   0  0  0  0  0  0  0  0  0  0  0  0
    7.4090  -12.9360   20.3973 C   0  0  0  0  0  0  0  0  0  0  0  0
    7.3245  -14.2791   20.6998 C   0  0  0  0  0  0  0  0  0  0  0  0
    6.8587  -14.7480   22.0353 C   0  0  0  0  0  0  0  0  0  0  0  0
    6.7860  -16.2590   22.1118 C   0  0  2  0  0  0  0  0  0  0  0  0
    5.4695  -16.7209   21.6974 N   0  0  0  0  0  0  0  0  0  0  0  0
    7.0860  -16.6267   23.5049 C   0  0  0  0  0  0  0  0  0  0  0  0
    6.1901  -16.5538   24.3600 O   0  0  0  0  0  0  0  0  0  0  0  0
    7.6903  -15.1681   19.7103 C   0  0  0  0  0  0  0  0  0  0  0  0
    8.1229  -14.7399   18.4695 C   0  0  0  0  0  0  0  0  0  0  0  0
    8.3714  -17.0519   23.8456 N   0  0  0  0  0  0  0  0  0  0  0  0
    8.6754  -17.4124   25.2402 C   0  0  1  0  0  0  0  0  0  0  0  0
    9.7289  -18.4872   25.1657 C   0  0  0  0  0  0  0  0  0  0  0  0
    9.1648  -19.7768   24.6839 C   0  0  0  0  0  0  0  0  0  0  0  0
   10.3159  -20.7944   24.7437 C   0  0  0  0  0  0  0  0  0  0  0  0
    9.7549  -22.1098   24.2432 C   0  0  0  0  0  0  0  0  0  0  0  0
   10.8518  -23.0616   24.2123 N   0  0  0  0  0  0  0  0  0  0  0  0
    9.2661  -16.1924   25.8288 C   0  0  0  0  0  0  0  0  0  0  0  0
   10.2676  -15.6844   25.2757 O   0  0  0  0  0  0  0  0  0  0  0  0
    8.6257  -13.3830   28.1028 C   0  0  0  0  0  0  0  0  0  0  0  0
    9.5271  -14.4649   27.5961 C   0  0  2  0  0  0  0  0  0  0  0  0
    8.7748  -15.5401   26.9965 N   0  0  0  0  0  0  0  0  0  0  0  0
   10.3978  -14.9441   28.7017 C   0  0  0  0  0  0  0  0  0  0  0  0
   10.3673  -16.1281   29.1194 O   0  0  0  0  0  0  0  0  0  0  0  0
   11.2783  -14.0631   29.3007 O   0  0  0  0  0  0  0  0  0  0  0  0
  2  1  1  0
  3  2  2  0
  4  3  1  0
  5  4  2  0
  5 11  1  0
  6  5  1  0
  7  6  1  0
  7  9  1  0
  7  8  1  1
  9 13  1  0
 10  9  2  0
 11 12  2  0
 12  2  1  0
 13 14  1  0
 14 20  1  0
 14 15  1  6
 16 15  1  0
 17 18  1  0
 17 16  1  0
 19 18  1  0
 20 24  1  0
 21 20  2  0
 23 22  1  1
 23 25  1  0
 24 23  1  0
 25 26  2  0
 25 27  1  0
M  END
$$$$
