YKA.pdb
     RDKit          3D

 27 27  0  0  1  0  0  0  0  0999 V2000
    8.2319  -13.1337   16.3672 O   0  0  0  0  0  0  0  0  0  0  0  0
    8.1792  -13.4806   17.7139 C   0  0  0  0  0  0  0  0  0  0  0  0
    7.5080  -12.6898   18.6242 C   0  0  0  0  0  0  0  0  0  0  0  0
    7.4475  -13.0225   19.9655 C   0  0  0  0  0  0  0  0  0  0  0  0
    8.0570  -14.1611   20.4501 C   0  0  0  0  0  0  0  0  0  0  0  0
    7.9938  -14.5229   21.8942 C   0  0  0  0  0  0  0  0  0  0  0  0
    7.6896  -15.9927   22.0975 C   0  0  2  0  0  0  0  0  0  0  0  0
    6.3159  -16.2801   21.7118 N   0  0  0  0  0  0  0  0  0  0  0  0
    7.9352  -16.2826   23.5193 C   0  0  0  0  0  0  0  0  0  0  0  0
    7.0552  -16.0228   24.3542 O   0  0  0  0  0  0  0  0  0  0  0  0
    8.7270  -14.9495   19.5375 C   0  0  0  0  0  0  0  0  0  0  0  0
    8.7893  -14.6198   18.1967 C   0  0  0  0  0  0  0  0  0  0  0  0
    9.1521  -16.8448   23.9094 N   0  0  0  0  0  0  0  0  0  0  0  0
    9.3296  -17.3130   25.2938 C   0  0  1  0  0  0  0  0  0  0  0  0
   10.3644  -18.4062   25.2277 C   0  0  0  0  0  0  0  0  0  0  0  0
    9.7380  -19.7471   25.0757 C   0  0  0  0  0  0  0  0  0  0  0  0
   10.8967  -20.7402   24.8886 C   0  0  0  0  0  0  0  0  0  0  0  0
   10.2679  -22.1054   24.6983 C   0  0  0  0  0  0  0  0  0  0  0  0
   11.3389  -23.0308   24.3713 N   0  0  0  0  0  0  0  0  0  0  0  0
    9.8917  -16.1543   26.0186 C   0  0  0  0  0  0  0  0  0  0  0  0
   10.9629  -15.6530   25.6084 O   0  0  0  0  0  0  0  0  0  0  0  0
    9.0998  -13.3820   28.2337 C   0  0  0  0  0  0  0  0  0  0  0  0
   10.0024  -14.5259   27.8926 C   0  0  2  0  0  0  0  0  0  0  0  0
    9.2981  -15.5550   27.1669 N   0  0  0  0  0  0  0  0  0  0  0  0
   10.6297  -15.0507   29.1340 C   0  0  0  0  0  0  0  0  0  0  0  0
   10.4579  -16.2301   29.5300 O   0  0  0  0  0  0  0  0  0  0  0  0
   11.4347  -14.2192   29.8897 O   0  0  0  0  0  0  0  0  0  0  0  0
  2  1  1  0
  3  2  2  0
  4  3  1  0
  5  4  2  0
  5 11  1  0
  6  5  1  0
  7  6  1  0
  7  9  1  0
  7  8  1  1
  9 13  1  0
 10  9  2  0
 11 12  2  0
 12  2  1  0
 13 14  1  0
 14 20  1  0
 14 15  1  6
 16 15  1  0
 17 18  1  0
 17 16  1  0
 19 18  1  0
 20 24  1  0
 21 20  2  0
 23 22  1  1
 23 25  1  0
 24 23  1  0
 25 26  2  0
 25 27  1  0
M  END
$$$$
