YKA.pdb
     RDKit          3D

 27 27  0  0  1  0  0  0  0  0999 V2000
    5.7878  -10.7222   28.0303 O   0  0  0  0  0  0  0  0  0  0  0  0
    6.3127  -11.9128   27.5366 C   0  0  0  0  0  0  0  0  0  0  0  0
    5.9206  -12.4053   26.3085 C   0  0  0  0  0  0  0  0  0  0  0  0
    6.4340  -13.5872   25.8055 C   0  0  0  0  0  0  0  0  0  0  0  0
    7.3614  -14.3243   26.5122 C   0  0  0  0  0  0  0  0  0  0  0  0
    7.9169  -15.5977   25.9736 C   0  0  0  0  0  0  0  0  0  0  0  0
    6.9206  -16.3231   25.0930 C   0  0  2  0  0  0  0  0  0  0  0  0
    6.5019  -17.5656   25.7248 N   0  0  0  0  0  0  0  0  0  0  0  0
    7.5892  -16.5586   23.8032 C   0  0  0  0  0  0  0  0  0  0  0  0
    8.1063  -17.6636   23.5785 O   0  0  0  0  0  0  0  0  0  0  0  0
    7.7513  -13.8292   27.7394 C   0  0  0  0  0  0  0  0  0  0  0  0
    7.2401  -12.6487   28.2447 C   0  0  0  0  0  0  0  0  0  0  0  0
    7.6330  -15.5381   22.8515 N   0  0  0  0  0  0  0  0  0  0  0  0
    8.1606  -15.8170   21.5057 C   0  0  1  0  0  0  0  0  0  0  0  0
    7.9210  -14.5643   20.7034 C   0  0  0  0  0  0  0  0  0  0  0  0
    8.3767  -14.7180   19.2955 C   0  0  0  0  0  0  0  0  0  0  0  0
    7.8552  -13.4838   18.5414 C   0  0  0  0  0  0  0  0  0  0  0  0
    8.1706  -13.7084   17.0766 C   0  0  0  0  0  0  0  0  0  0  0  0
    7.5867  -12.6034   16.3362 N   0  0  0  0  0  0  0  0  0  0  0  0
    9.6143  -16.0014   21.6972 C   0  0  0  0  0  0  0  0  0  0  0  0
   10.2314  -15.1878   22.4212 O   0  0  0  0  0  0  0  0  0  0  0  0
   12.1541  -18.5590   21.7996 C   0  0  0  0  0  0  0  0  0  0  0  0
   11.7890  -17.1654   21.3947 C   0  0  2  0  0  0  0  0  0  0  0  0
   10.3790  -17.0511   21.1109 N   0  0  0  0  0  0  0  0  0  0  0  0
   12.6248  -16.7494   20.2377 C   0  0  0  0  0  0  0  0  0  0  0  0
   13.8777  -16.6874   20.2985 O   0  0  0  0  0  0  0  0  0  0  0  0
   12.0119  -16.4158   19.0447 O   0  0  0  0  0  0  0  0  0  0  0  0
  2  1  1  0
  3  2  2  0
  4  3  1  0
  5  4  2  0
  5 11  1  0
  6  5  1  0
  7  6  1  0
  7  9  1  0
  7  8  1  1
  9 13  1  0
 10  9  2  0
 11 12  2  0
 12  2  1  0
 13 14  1  0
 14 20  1  0
 14 15  1  6
 16 15  1  0
 17 18  1  0
 17 16  1  0
 19 18  1  0
 20 24  1  0
 21 20  2  0
 23 22  1  6
 23 25  1  0
 24 23  1  0
 25 26  2  0
 25 27  1  0
M  END
$$$$
