YKA.pdb
     RDKit          3D

 27 27  0  0  1  0  0  0  0  0999 V2000
    7.3992  -10.8909   26.7172 O   0  0  0  0  0  0  0  0  0  0  0  0
    7.2771  -12.2726   26.6041 C   0  0  0  0  0  0  0  0  0  0  0  0
    6.0355  -12.8722   26.5431 C   0  0  0  0  0  0  0  0  0  0  0  0
    5.8994  -14.2441   26.4307 C   0  0  0  0  0  0  0  0  0  0  0  0
    7.0013  -15.0719   26.3748 C   0  0  0  0  0  0  0  0  0  0  0  0
    6.8586  -16.5502   26.2535 C   0  0  0  0  0  0  0  0  0  0  0  0
    6.2747  -16.9554   24.9160 C   0  0  2  0  0  0  0  0  0  0  0  0
    5.8322  -18.3413   24.9594 N   0  0  0  0  0  0  0  0  0  0  0  0
    7.3306  -16.7451   23.9125 C   0  0  0  0  0  0  0  0  0  0  0  0
    8.1253  -17.6645   23.6635 O   0  0  0  0  0  0  0  0  0  0  0  0
    8.2409  -14.4695   26.4360 C   0  0  0  0  0  0  0  0  0  0  0  0
    8.3803  -13.0990   26.5483 C   0  0  0  0  0  0  0  0  0  0  0  0
    7.4241  -15.5168   23.2554 N   0  0  0  0  0  0  0  0  0  0  0  0
    8.3995  -15.3439   22.1664 C   0  0  1  0  0  0  0  0  0  0  0  0
    8.2337  -13.9245   21.6888 C   0  0  0  0  0  0  0  0  0  0  0  0
    7.4757  -13.8601   20.4102 C   0  0  0  0  0  0  0  0  0  0  0  0
    8.5268  -13.7056   19.2987 C   0  0  0  0  0  0  0  0  0  0  0  0
    7.7627  -13.5950   17.9951 C   0  0  0  0  0  0  0  0  0  0  0  0
    8.7422  -13.4358   16.9343 N   0  0  0  0  0  0  0  0  0  0  0  0
    9.7209  -15.4886   22.8122 C   0  0  0  0  0  0  0  0  0  0  0  0
   10.0328  -14.6902   23.7245 O   0  0  0  0  0  0  0  0  0  0  0  0
   12.4913  -17.8839   23.2845 C   0  0  0  0  0  0  0  0  0  0  0  0
   11.9759  -16.4901   23.1084 C   0  0  2  0  0  0  0  0  0  0  0  0
   10.6821  -16.4831   22.4698 N   0  0  0  0  0  0  0  0  0  0  0  0
   12.9723  -15.6836   22.3555 C   0  0  0  0  0  0  0  0  0  0  0  0
   12.7466  -15.2369   21.2037 O   0  0  0  0  0  0  0  0  0  0  0  0
   14.1969  -15.4083   22.9341 O   0  0  0  0  0  0  0  0  0  0  0  0
  2  1  1  0
  3  2  2  0
  4  3  1  0
  5  4  2  0
  5 11  1  0
  6  5  1  0
  7  6  1  0
  7  9  1  0
  7  8  1  1
  9 13  1  0
 10  9  2  0
 11 12  2  0
 12  2  1  0
 13 14  1  0
 14 20  1  0
 14 15  1  1
 16 15  1  0
 17 18  1  0
 17 16  1  0
 19 18  1  0
 20 24  1  0
 21 20  2  0
 23 22  1  6
 23 25  1  0
 24 23  1  0
 25 26  2  0
 25 27  1  0
M  END
$$$$
