YKA.pdb
     RDKit          3D

 27 27  0  0  1  0  0  0  0  0999 V2000
    8.0890  -13.0847   16.1358 O   0  0  0  0  0  0  0  0  0  0  0  0
    8.1072  -13.4428   17.4805 C   0  0  0  0  0  0  0  0  0  0  0  0
    7.5000  -12.6507   18.4336 C   0  0  0  0  0  0  0  0  0  0  0  0
    7.5104  -12.9944   19.7735 C   0  0  0  0  0  0  0  0  0  0  0  0
    8.1295  -14.1457   20.2137 C   0  0  0  0  0  0  0  0  0  0  0  0
    8.1426  -14.5194   21.6561 C   0  0  0  0  0  0  0  0  0  0  0  0
    7.8125  -15.9827   21.8655 C   0  0  2  0  0  0  0  0  0  0  0  0
    6.4220  -16.2391   21.5200 N   0  0  0  0  0  0  0  0  0  0  0  0
    8.0934  -16.2815   23.2789 C   0  0  0  0  0  0  0  0  0  0  0  0
    7.1943  -16.1382   24.1216 O   0  0  0  0  0  0  0  0  0  0  0  0
    8.7356  -14.9353   19.2584 C   0  0  0  0  0  0  0  0  0  0  0  0
    8.7269  -14.5947   17.9190 C   0  0  0  0  0  0  0  0  0  0  0  0
    9.3647  -16.7211   23.6525 N   0  0  0  0  0  0  0  0  0  0  0  0
    9.5888  -17.2349   25.0137 C   0  0  1  0  0  0  0  0  0  0  0  0
   10.7863  -18.1443   24.9170 C   0  0  0  0  0  0  0  0  0  0  0  0
   10.4329  -19.4552   24.3086 C   0  0  0  0  0  0  0  0  0  0  0  0
   11.7241  -20.2899   24.3143 C   0  0  0  0  0  0  0  0  0  0  0  0
   11.3931  -21.6009   23.6308 C   0  0  0  0  0  0  0  0  0  0  0  0
   12.6219  -22.3724   23.5614 N   0  0  0  0  0  0  0  0  0  0  0  0
    9.9445  -16.0459   25.8159 C   0  0  0  0  0  0  0  0  0  0  0  0
   10.9686  -15.3970   25.5040 O   0  0  0  0  0  0  0  0  0  0  0  0
    8.6152  -13.4876   28.0317 C   0  0  0  0  0  0  0  0  0  0  0  0
    9.6971  -14.4753   27.7258 C   0  0  2  0  0  0  0  0  0  0  0  0
    9.1991  -15.5746   26.9350 N   0  0  0  0  0  0  0  0  0  0  0  0
   10.3190  -14.9391   28.9940 C   0  0  0  0  0  0  0  0  0  0  0  0
   10.8116  -14.1454   29.8333 O   0  0  0  0  0  0  0  0  0  0  0  0
   10.3630  -16.2925   29.2712 O   0  0  0  0  0  0  0  0  0  0  0  0
  2  1  1  0
  3  2  2  0
  4  3  1  0
  5  4  2  0
  5 11  1  0
  6  5  1  0
  7  6  1  0
  7  9  1  0
  7  8  1  1
  9 13  1  0
 10  9  2  0
 11 12  2  0
 12  2  1  0
 13 14  1  0
 14 20  1  0
 14 15  1  6
 16 15  1  0
 17 18  1  0
 17 16  1  0
 19 18  1  0
 20 24  1  0
 21 20  2  0
 23 22  1  1
 23 25  1  0
 24 23  1  0
 25 26  2  0
 25 27  1  0
M  END
$$$$
