YKA.pdb
     RDKit          3D

 27 27  0  0  1  0  0  0  0  0999 V2000
    5.8732  -10.4688   27.5252 O   0  0  0  0  0  0  0  0  0  0  0  0
    6.3832  -11.6894   27.0929 C   0  0  0  0  0  0  0  0  0  0  0  0
    5.7762  -12.3893   26.0699 C   0  0  0  0  0  0  0  0  0  0  0  0
    6.2723  -13.6033   25.6301 C   0  0  0  0  0  0  0  0  0  0  0  0
    7.3967  -14.1663   26.1970 C   0  0  0  0  0  0  0  0  0  0  0  0
    7.9341  -15.4738   25.7258 C   0  0  0  0  0  0  0  0  0  0  0  0
    6.9036  -16.2613   24.9435 C   0  0  2  0  0  0  0  0  0  0  0  0
    6.5187  -17.4564   25.6796 N   0  0  0  0  0  0  0  0  0  0  0  0
    7.5163  -16.5868   23.6455 C   0  0  0  0  0  0  0  0  0  0  0  0
    7.8795  -17.7512   23.4189 O   0  0  0  0  0  0  0  0  0  0  0  0
    8.0010  -13.4642   27.2193 C   0  0  0  0  0  0  0  0  0  0  0  0
    7.5079  -12.2510   27.6610 C   0  0  0  0  0  0  0  0  0  0  0  0
    7.6805  -15.5838   22.6884 N   0  0  0  0  0  0  0  0  0  0  0  0
    8.2114  -15.9241   21.3581 C   0  0  1  0  0  0  0  0  0  0  0  0
    7.9095  -14.7373   20.4801 C   0  0  0  0  0  0  0  0  0  0  0  0
    8.1023  -15.0563   19.0398 C   0  0  0  0  0  0  0  0  0  0  0  0
    7.9894  -13.7197   18.2883 C   0  0  0  0  0  0  0  0  0  0  0  0
    8.1523  -14.0379   16.8160 C   0  0  0  0  0  0  0  0  0  0  0  0
    7.9400  -12.8021   16.0825 N   0  0  0  0  0  0  0  0  0  0  0  0
    9.6732  -16.0299   21.5471 C   0  0  0  0  0  0  0  0  0  0  0  0
   10.3837  -16.3407   20.5644 O   0  0  0  0  0  0  0  0  0  0  0  0
   12.3630  -15.2106   23.9996 C   0  0  0  0  0  0  0  0  0  0  0  0
   11.7710  -16.0068   22.8793 C   0  0  2  0  0  0  0  0  0  0  0  0
   10.3462  -15.8019   22.7822 N   0  0  0  0  0  0  0  0  0  0  0  0
   12.1159  -17.4424   23.0539 C   0  0  0  0  0  0  0  0  0  0  0  0
   13.3022  -17.8449   23.1435 O   0  0  0  0  0  0  0  0  0  0  0  0
   11.1018  -18.3790   23.1218 O   0  0  0  0  0  0  0  0  0  0  0  0
  2  1  1  0
  3  2  2  0
  4  3  1  0
  5  4  2  0
  5 11  1  0
  6  5  1  0
  7  6  1  0
  7  9  1  0
  7  8  1  1
  9 13  1  0
 10  9  2  0
 11 12  2  0
 12  2  1  0
 13 14  1  0
 14 20  1  0
 14 15  1  6
 16 15  1  0
 17 18  1  0
 17 16  1  0
 19 18  1  0
 20 24  1  0
 21 20  2  0
 23 22  1  1
 23 25  1  0
 24 23  1  0
 25 26  2  0
 25 27  1  0
M  END
$$$$
