NHL.pdb
     RDKit          3D

 27 27  0  0  1  0  0  0  0  0999 V2000
    6.1951  -20.2446   19.5260 N   0  0  0  0  0  0  0  0  0  0  0  0
    5.9707  -18.9979   18.9087 C   0  0  0  0  0  0  0  0  0  0  0  0
    5.5014  -18.9333   17.7391 O   0  0  0  0  0  0  0  0  0  0  0  0
    6.2818  -17.7494   19.6224 C   0  0  0  0  0  0  0  0  0  0  0  0
    6.8047  -18.0597   20.9843 C   0  0  2  0  0  0  0  0  0  0  0  0
    5.8099  -17.7386   21.9886 N   0  0  0  0  0  0  0  0  0  0  0  0
    7.9999  -17.1922   21.2365 C   0  0  0  0  0  0  0  0  0  0  0  0
    9.1610  -17.5555   20.8890 O   0  0  0  0  0  0  0  0  0  0  0  0
    7.8776  -15.9277   21.8756 N   0  0  0  0  0  0  0  0  0  0  0  0
    9.0615  -15.1143   22.1018 C   0  0  1  0  0  0  0  0  0  0  0  0
    8.9197  -13.7536   21.4790 C   0  0  0  0  0  0  0  0  0  0  0  0
    8.7715  -13.7518   20.0250 C   0  0  0  0  0  0  0  0  0  0  0  0
    7.8539  -13.1028   19.2273 C   0  0  0  0  0  0  0  0  0  0  0  0
    8.0574  -13.3842   17.9241 N   0  0  0  0  0  0  0  0  0  0  0  0
    9.1013  -14.2093   17.9003 C   0  0  0  0  0  0  0  0  0  0  0  0
    9.5492  -14.4468   19.1442 N   0  0  0  0  0  0  0  0  0  0  0  0
    9.2174  -14.9597   23.5593 C   0  0  0  0  0  0  0  0  0  0  0  0
   10.2005  -14.3225   23.9989 O   0  0  0  0  0  0  0  0  0  0  0  0
    7.6799  -12.4147   26.5906 C   0  0  0  0  0  0  0  0  0  0  0  0
    6.7476  -13.4962   26.0282 C   0  0  2  0  0  0  0  0  0  0  0  0
    5.3395  -13.1436   26.3756 C   0  0  0  0  0  0  0  0  0  0  0  0
    7.1931  -14.8375   26.4855 C   0  0  0  0  0  0  0  0  0  0  0  0
    8.5062  -15.2438   25.9051 C   0  0  2  0  0  0  0  0  0  0  0  0
    8.2948  -15.5063   24.4808 N   0  0  0  0  0  0  0  0  0  0  0  0
    9.0019  -16.4868   26.5152 C   0  0  0  0  0  0  0  0  0  0  0  0
    9.2436  -16.5668   27.7272 O   0  0  0  0  0  0  0  0  0  0  0  0
    9.2072  -17.6021   25.7244 O   0  0  0  0  0  0  0  0  0  0  0  0
  1  2  1  0
  2  3  2  0
  4  2  1  0
  5  4  1  0
  5  6  1  1
  7  5  1  0
  7  8  2  0
  9  7  1  0
 10  9  1  0
 10 11  1  6
 11 12  1  0
 12 16  1  0
 13 12  2  0
 13 14  1  0
 14 15  1  0
 16 15  2  0
 17 10  1  0
 18 17  2  0
 20 19  1  1
 21 20  1  0
 22 20  1  0
 23 22  1  1
 23 24  1  0
 24 17  1  0
 25 23  1  0
 26 25  2  0
 27 25  1  0
M  END
$$$$
