NHL.pdb
     RDKit          3D

 27 27  0  0  1  0  0  0  0  0999 V2000
    9.6583  -12.2486   19.8158 N   0  0  0  0  0  0  0  0  0  0  0  0
   10.3619  -13.2610   19.1334 C   0  0  0  0  0  0  0  0  0  0  0  0
   11.5716  -13.1003   18.8121 O   0  0  0  0  0  0  0  0  0  0  0  0
    9.6930  -14.5243   18.7846 C   0  0  0  0  0  0  0  0  0  0  0  0
    8.2223  -14.3954   18.9960 C   0  0  2  0  0  0  0  0  0  0  0  0
    7.8078  -13.0187   18.8110 N   0  0  0  0  0  0  0  0  0  0  0  0
    7.9173  -14.7741   20.4131 C   0  0  0  0  0  0  0  0  0  0  0  0
    7.4285  -13.9373   21.2265 O   0  0  0  0  0  0  0  0  0  0  0  0
    8.1646  -16.0871   20.9000 N   0  0  0  0  0  0  0  0  0  0  0  0
    7.7195  -16.4597   22.2333 C   0  0  1  0  0  0  0  0  0  0  0  0
    7.8314  -17.9421   22.4551 C   0  0  0  0  0  0  0  0  0  0  0  0
    7.4063  -18.4034   23.7752 C   0  0  0  0  0  0  0  0  0  0  0  0
    6.1922  -18.2693   24.4136 C   0  0  0  0  0  0  0  0  0  0  0  0
    6.2236  -18.8286   25.6404 N   0  0  0  0  0  0  0  0  0  0  0  0
    7.4554  -19.3141   25.7752 C   0  0  0  0  0  0  0  0  0  0  0  0
    8.1854  -19.0738   24.6736 N   0  0  0  0  0  0  0  0  0  0  0  0
    8.5901  -15.7643   23.1982 C   0  0  0  0  0  0  0  0  0  0  0  0
    9.3737  -14.8825   22.7808 O   0  0  0  0  0  0  0  0  0  0  0  0
    5.7775  -12.4353   26.1762 C   0  0  0  0  0  0  0  0  0  0  0  0
    7.1936  -13.0209   26.2603 C   0  0  2  0  0  0  0  0  0  0  0  0
    8.1806  -11.9214   26.0493 C   0  0  0  0  0  0  0  0  0  0  0  0
    7.3225  -14.1714   25.3295 C   0  0  0  0  0  0  0  0  0  0  0  0
    8.5880  -14.9378   25.5234 C   0  0  2  0  0  0  0  0  0  0  0  0
    8.5722  -16.0578   24.5813 N   0  0  0  0  0  0  0  0  0  0  0  0
    8.6726  -15.5015   26.8792 C   0  0  0  0  0  0  0  0  0  0  0  0
    8.8686  -14.7864   27.8713 O   0  0  0  0  0  0  0  0  0  0  0  0
    8.5309  -16.8643   27.0632 O   0  0  0  0  0  0  0  0  0  0  0  0
  1  2  1  0
  2  3  2  0
  4  2  1  0
  5  4  1  0
  5  6  1  1
  7  5  1  0
  7  8  2  0
  9  7  1  0
 10  9  1  0
 10 11  1  6
 11 12  1  0
 12 16  1  0
 13 12  2  0
 13 14  1  0
 14 15  1  0
 16 15  2  0
 17 10  1  0
 18 17  2  0
 20 19  1  6
 21 20  1  0
 22 20  1  0
 23 22  1  1
 23 24  1  0
 24 17  1  0
 25 23  1  0
 26 25  2  0
 27 25  1  0
M  END
$$$$
