NHL.pdb
     RDKit          3D

 27 27  0  0  1  0  0  0  0  0999 V2000
    8.3860  -12.5526   16.7736 N   0  0  0  0  0  0  0  0  0  0  0  0
    8.0206  -13.8934   17.0074 C   0  0  0  0  0  0  0  0  0  0  0  0
    8.2218  -14.7782   16.1305 O   0  0  0  0  0  0  0  0  0  0  0  0
    7.3968  -14.2814   18.2823 C   0  0  0  0  0  0  0  0  0  0  0  0
    8.4216  -14.2944   19.3658 C   0  0  2  0  0  0  0  0  0  0  0  0
    9.5978  -15.0239   18.9348 N   0  0  0  0  0  0  0  0  0  0  0  0
    7.8472  -15.0169   20.5458 C   0  0  0  0  0  0  0  0  0  0  0  0
    6.7447  -14.6665   21.0583 O   0  0  0  0  0  0  0  0  0  0  0  0
    8.5168  -16.1238   21.1364 N   0  0  0  0  0  0  0  0  0  0  0  0
    7.9908  -16.7219   22.3530 C   0  0  1  0  0  0  0  0  0  0  0  0
    8.5272  -18.1110   22.5580 C   0  0  0  0  0  0  0  0  0  0  0  0
    8.1786  -18.7256   23.8374 C   0  0  0  0  0  0  0  0  0  0  0  0
    8.9909  -19.2184   24.8358 C   0  0  0  0  0  0  0  0  0  0  0  0
    8.2613  -19.7209   25.8526 N   0  0  0  0  0  0  0  0  0  0  0  0
    6.9912  -19.5454   25.4958 C   0  0  0  0  0  0  0  0  0  0  0  0
    6.9119  -18.9517   24.2935 N   0  0  0  0  0  0  0  0  0  0  0  0
    8.4166  -15.8732   23.4804 C   0  0  0  0  0  0  0  0  0  0  0  0
    9.5628  -15.3715   23.4616 O   0  0  0  0  0  0  0  0  0  0  0  0
    6.0894  -11.9602   27.3284 C   0  0  0  0  0  0  0  0  0  0  0  0
    7.2899  -12.6233   26.6399 C   0  0  2  0  0  0  0  0  0  0  0  0
    7.7532  -11.7410   25.5289 C   0  0  0  0  0  0  0  0  0  0  0  0
    6.9422  -14.0111   26.2399 C   0  0  0  0  0  0  0  0  0  0  0  0
    8.0965  -14.7553   25.6569 C   0  0  2  0  0  0  0  0  0  0  0  0
    7.5755  -15.6046   24.5848 N   0  0  0  0  0  0  0  0  0  0  0  0
    8.7261  -15.6360   26.6524 C   0  0  0  0  0  0  0  0  0  0  0  0
    8.2383  -16.7342   26.9524 O   0  0  0  0  0  0  0  0  0  0  0  0
    9.8938  -15.2379   27.2763 O   0  0  0  0  0  0  0  0  0  0  0  0
  1  2  1  0
  2  3  2  0
  4  2  1  0
  5  4  1  0
  5  6  1  6
  7  5  1  0
  7  8  2  0
  9  7  1  0
 10  9  1  0
 10 11  1  1
 11 12  1  0
 12 16  1  0
 13 12  2  0
 13 14  1  0
 14 15  1  0
 16 15  2  0
 17 10  1  0
 18 17  2  0
 20 19  1  6
 21 20  1  0
 22 20  1  0
 23 22  1  1
 23 24  1  0
 24 17  1  0
 25 23  1  0
 26 25  2  0
 27 25  1  0
M  END
$$$$
