NHL.pdb
     RDKit          3D

 27 27  0  0  1  0  0  0  0  0999 V2000
    4.6494  -18.1014   19.0638 N   0  0  0  0  0  0  0  0  0  0  0  0
    5.5111  -19.1616   19.4090 C   0  0  0  0  0  0  0  0  0  0  0  0
    5.5536  -20.2111   18.7095 O   0  0  0  0  0  0  0  0  0  0  0  0
    6.3766  -19.0590   20.5945 C   0  0  0  0  0  0  0  0  0  0  0  0
    6.8586  -17.6564   20.7514 C   0  0  2  0  0  0  0  0  0  0  0  0
    7.4818  -17.2001   19.5247 N   0  0  0  0  0  0  0  0  0  0  0  0
    7.9034  -17.6371   21.8251 C   0  0  0  0  0  0  0  0  0  0  0  0
    7.7474  -18.2765   22.9056 O   0  0  0  0  0  0  0  0  0  0  0  0
    9.1103  -16.9006   21.6730 N   0  0  0  0  0  0  0  0  0  0  0  0
   10.1302  -16.9620   22.7078 C   0  0  1  0  0  0  0  0  0  0  0  0
   11.5052  -16.7585   22.1358 C   0  0  0  0  0  0  0  0  0  0  0  0
   12.0716  -17.9234   21.4588 C   0  0  0  0  0  0  0  0  0  0  0  0
   11.6579  -19.2381   21.4590 C   0  0  0  0  0  0  0  0  0  0  0  0
   12.4770  -20.0056   20.7115 N   0  0  0  0  0  0  0  0  0  0  0  0
   13.4056  -19.1764   20.2412 C   0  0  0  0  0  0  0  0  0  0  0  0
   13.1877  -17.9231   20.6727 N   0  0  0  0  0  0  0  0  0  0  0  0
    9.8470  -15.8815   23.6695 C   0  0  0  0  0  0  0  0  0  0  0  0
    9.7826  -14.7028   23.2544 O   0  0  0  0  0  0  0  0  0  0  0  0
    6.1305  -13.1763   26.4201 C   0  0  0  0  0  0  0  0  0  0  0  0
    7.6586  -13.3095   26.4674 C   0  0  2  0  0  0  0  0  0  0  0  0
    8.2647  -11.9670   26.2269 C   0  0  0  0  0  0  0  0  0  0  0  0
    8.1034  -14.3783   25.5365 C   0  0  0  0  0  0  0  0  0  0  0  0
    9.4114  -14.9817   25.9256 C   0  0  2  0  0  0  0  0  0  0  0  0
    9.6451  -16.1287   25.0469 N   0  0  0  0  0  0  0  0  0  0  0  0
    9.3822  -15.4824   27.3082 C   0  0  0  0  0  0  0  0  0  0  0  0
    8.9904  -16.6256   27.5792 O   0  0  0  0  0  0  0  0  0  0  0  0
    9.8009  -14.6641   28.3408 O   0  0  0  0  0  0  0  0  0  0  0  0
  1  2  1  0
  2  3  2  0
  4  2  1  0
  5  4  1  0
  5  6  1  6
  7  5  1  0
  7  8  2  0
  9  7  1  0
 10  9  1  0
 10 11  1  6
 11 12  1  0
 12 16  1  0
 13 12  2  0
 13 14  1  0
 14 15  1  0
 16 15  2  0
 17 10  1  0
 18 17  2  0
 20 19  1  6
 21 20  1  0
 22 20  1  0
 23 22  1  6
 23 24  1  0
 24 17  1  0
 25 23  1  0
 26 25  2  0
 27 25  1  0
M  END
$$$$
