NHL.pdb
     RDKit          3D

 27 27  0  0  1  0  0  0  0  0999 V2000
    9.2734  -12.9715   17.2622 N   0  0  0  0  0  0  0  0  0  0  0  0
    7.9863  -13.5253   17.4118 C   0  0  0  0  0  0  0  0  0  0  0  0
    7.1662  -13.5175   16.4527 O   0  0  0  0  0  0  0  0  0  0  0  0
    7.5793  -14.1225   18.6935 C   0  0  0  0  0  0  0  0  0  0  0  0
    8.6813  -13.9874   19.6894 C   0  0  2  0  0  0  0  0  0  0  0  0
    9.8855  -14.6247   19.1942 N   0  0  0  0  0  0  0  0  0  0  0  0
    8.2722  -14.7019   20.9411 C   0  0  0  0  0  0  0  0  0  0  0  0
    7.1034  -14.5866   21.4117 O   0  0  0  0  0  0  0  0  0  0  0  0
    9.1796  -15.5368   21.6494 N   0  0  0  0  0  0  0  0  0  0  0  0
    8.7218  -16.2784   22.8135 C   0  0  1  0  0  0  0  0  0  0  0  0
    9.3603  -17.6372   22.8845 C   0  0  0  0  0  0  0  0  0  0  0  0
    8.8276  -18.6204   21.9434 C   0  0  0  0  0  0  0  0  0  0  0  0
    7.7541  -18.5346   21.0833 C   0  0  0  0  0  0  0  0  0  0  0  0
    7.5900  -19.6824   20.3944 N   0  0  0  0  0  0  0  0  0  0  0  0
    8.5582  -20.4904   20.8197 C   0  0  0  0  0  0  0  0  0  0  0  0
    9.3144  -19.8807   21.7475 N   0  0  0  0  0  0  0  0  0  0  0  0
    9.1077  -15.5051   24.0075 C   0  0  0  0  0  0  0  0  0  0  0  0
   10.2237  -14.9394   24.0280 O   0  0  0  0  0  0  0  0  0  0  0  0
    8.0025  -11.7423   25.7585 C   0  0  0  0  0  0  0  0  0  0  0  0
    6.9820  -12.8665   25.9822 C   0  0  2  0  0  0  0  0  0  0  0  0
    5.7025  -12.2647   26.4598 C   0  0  0  0  0  0  0  0  0  0  0  0
    7.5604  -13.9067   26.8712 C   0  0  0  0  0  0  0  0  0  0  0  0
    8.7411  -14.5939   26.2713 C   0  0  2  0  0  0  0  0  0  0  0  0
    8.2613  -15.3791   25.1331 N   0  0  0  0  0  0  0  0  0  0  0  0
    9.3602  -15.5282   27.2236 C   0  0  0  0  0  0  0  0  0  0  0  0
    9.2154  -16.7540   27.1217 O   0  0  0  0  0  0  0  0  0  0  0  0
   10.1263  -15.0366   28.2640 O   0  0  0  0  0  0  0  0  0  0  0  0
  1  2  1  0
  2  3  2  0
  4  2  1  0
  5  4  1  0
  5  6  1  6
  7  5  1  0
  7  8  2  0
  9  7  1  0
 10  9  1  0
 10 11  1  1
 11 12  1  0
 12 16  1  0
 13 12  2  0
 13 14  1  0
 14 15  1  0
 16 15  2  0
 17 10  1  0
 18 17  2  0
 20 19  1  1
 21 20  1  0
 22 20  1  0
 23 22  1  1
 23 24  1  0
 24 17  1  0
 25 23  1  0
 26 25  2  0
 27 25  1  0
M  END
$$$$
