NHL.pdb
     RDKit          3D

 27 27  0  0  1  0  0  0  0  0999 V2000
    9.6092  -15.0608   16.4669 N   0  0  0  0  0  0  0  0  0  0  0  0
    8.7054  -14.1423   17.0374 C   0  0  0  0  0  0  0  0  0  0  0  0
    8.4536  -13.0462   16.4651 O   0  0  0  0  0  0  0  0  0  0  0  0
    8.0402  -14.4502   18.3132 C   0  0  0  0  0  0  0  0  0  0  0  0
    8.5022  -15.7745   18.8202 C   0  0  2  0  0  0  0  0  0  0  0  0
    8.0186  -16.8369   17.9606 N   0  0  0  0  0  0  0  0  0  0  0  0
    7.9117  -15.9878   20.1805 C   0  0  0  0  0  0  0  0  0  0  0  0
    6.7367  -15.6066   20.4541 O   0  0  0  0  0  0  0  0  0  0  0  0
    8.6468  -16.6261   21.2170 N   0  0  0  0  0  0  0  0  0  0  0  0
    7.9941  -16.9424   22.4773 C   0  0  1  0  0  0  0  0  0  0  0  0
    8.4395  -18.2769   23.0063 C   0  0  0  0  0  0  0  0  0  0  0  0
    7.9452  -18.6089   24.3411 C   0  0  0  0  0  0  0  0  0  0  0  0
    6.7661  -18.2590   24.9632 C   0  0  0  0  0  0  0  0  0  0  0  0
    6.7075  -18.7632   26.2127 N   0  0  0  0  0  0  0  0  0  0  0  0
    7.8476  -19.4295   26.3781 C   0  0  0  0  0  0  0  0  0  0  0  0
    8.6080  -19.3539   25.2734 N   0  0  0  0  0  0  0  0  0  0  0  0
    8.3707  -15.8946   23.4431 C   0  0  0  0  0  0  0  0  0  0  0  0
    9.5517  -15.4811   23.4581 O   0  0  0  0  0  0  0  0  0  0  0  0
    5.8283  -11.7529   27.1623 C   0  0  0  0  0  0  0  0  0  0  0  0
    7.1155  -12.3933   26.6253 C   0  0  2  0  0  0  0  0  0  0  0  0
    8.0329  -11.3107   26.1628 C   0  0  0  0  0  0  0  0  0  0  0  0
    6.7833  -13.4183   25.6026 C   0  0  0  0  0  0  0  0  0  0  0  0
    7.9270  -14.3260   25.2957 C   0  0  2  0  0  0  0  0  0  0  0  0
    7.4445  -15.3384   24.3553 N   0  0  0  0  0  0  0  0  0  0  0  0
    8.3940  -15.0284   26.5006 C   0  0  0  0  0  0  0  0  0  0  0  0
    7.7690  -15.9834   26.9817 O   0  0  0  0  0  0  0  0  0  0  0  0
    9.5602  -14.6207   27.1210 O   0  0  0  0  0  0  0  0  0  0  0  0
  1  2  1  0
  2  3  2  0
  4  2  1  0
  5  4  1  0
  5  6  1  6
  7  5  1  0
  7  8  2  0
  9  7  1  0
 10  9  1  0
 10 11  1  1
 11 12  1  0
 12 16  1  0
 13 12  2  0
 13 14  1  0
 14 15  1  0
 16 15  2  0
 17 10  1  0
 18 17  2  0
 20 19  1  6
 21 20  1  0
 22 20  1  0
 23 22  1  1
 23 24  1  0
 24 17  1  0
 25 23  1  0
 26 25  2  0
 27 25  1  0
M  END
$$$$
