NHL.pdb
     RDKit          3D

 27 27  0  0  1  0  0  0  0  0999 V2000
   10.3591  -20.4840   20.1088 N   0  0  0  0  0  0  0  0  0  0  0  0
   10.8490  -19.4635   19.2696 C   0  0  0  0  0  0  0  0  0  0  0  0
   11.4466  -19.7451   18.1944 O   0  0  0  0  0  0  0  0  0  0  0  0
   10.6699  -18.0501   19.6371 C   0  0  0  0  0  0  0  0  0  0  0  0
   10.0904  -17.9512   21.0078 C   0  0  2  0  0  0  0  0  0  0  0  0
    8.7170  -18.4150   21.0062 N   0  0  0  0  0  0  0  0  0  0  0  0
   10.0812  -16.5081   21.4100 C   0  0  0  0  0  0  0  0  0  0  0  0
   11.1509  -15.8349   21.4676 O   0  0  0  0  0  0  0  0  0  0  0  0
    8.8718  -15.8380   21.7425 N   0  0  0  0  0  0  0  0  0  0  0  0
    8.8939  -14.4175   22.0528 C   0  0  1  0  0  0  0  0  0  0  0  0
    7.7549  -13.6934   21.3913 C   0  0  0  0  0  0  0  0  0  0  0  0
    7.7657  -13.7284   19.9302 C   0  0  0  0  0  0  0  0  0  0  0  0
    8.1505  -12.7655   19.0223 C   0  0  0  0  0  0  0  0  0  0  0  0
    7.9864  -13.1984   17.7556 N   0  0  0  0  0  0  0  0  0  0  0  0
    7.4988  -14.4318   17.8647 C   0  0  0  0  0  0  0  0  0  0  0  0
    7.3563  -14.7752   19.1555 N   0  0  0  0  0  0  0  0  0  0  0  0
    8.7611  -14.2843   23.5148 C   0  0  0  0  0  0  0  0  0  0  0  0
    8.6339  -13.1421   24.0097 O   0  0  0  0  0  0  0  0  0  0  0  0
    8.4289  -12.5354   26.9669 C   0  0  0  0  0  0  0  0  0  0  0  0
    7.3280  -13.0961   26.0565 C   0  0  2  0  0  0  0  0  0  0  0  0
    6.0288  -12.4630   26.4292 C   0  0  0  0  0  0  0  0  0  0  0  0
    7.3415  -14.5809   26.1001 C   0  0  0  0  0  0  0  0  0  0  0  0
    8.6884  -15.1591   25.8211 C   0  0  2  0  0  0  0  0  0  0  0  0
    8.7723  -15.4024   24.3802 N   0  0  0  0  0  0  0  0  0  0  0  0
    8.8694  -16.4516   26.4991 C   0  0  0  0  0  0  0  0  0  0  0  0
    8.7421  -17.5267   25.8976 O   0  0  0  0  0  0  0  0  0  0  0  0
    9.1903  -16.4794   27.8435 O   0  0  0  0  0  0  0  0  0  0  0  0
  1  2  1  0
  2  3  2  0
  4  2  1  0
  5  4  1  0
  5  6  1  6
  7  5  1  0
  7  8  2  0
  9  7  1  0
 10  9  1  0
 10 11  1  6
 11 12  1  0
 12 16  1  0
 13 12  2  0
 13 14  1  0
 14 15  1  0
 16 15  2  0
 17 10  1  0
 18 17  2  0
 20 19  1  1
 21 20  1  0
 22 20  1  0
 23 22  1  6
 23 24  1  0
 24 17  1  0
 25 23  1  0
 26 25  2  0
 27 25  1  0
M  END
$$$$
