NHL.pdb
     RDKit          3D

 27 27  0  0  1  0  0  0  0  0999 V2000
   15.7672  -14.5825   20.0395 N   0  0  0  0  0  0  0  0  0  0  0  0
   14.9671  -14.2564   18.9264 C   0  0  0  0  0  0  0  0  0  0  0  0
   15.4926  -14.0020   17.8076 O   0  0  0  0  0  0  0  0  0  0  0  0
   13.5020  -14.2079   19.0538 C   0  0  0  0  0  0  0  0  0  0  0  0
   13.0785  -14.8924   20.3093 C   0  0  2  0  0  0  0  0  0  0  0  0
   12.9327  -16.3162   20.0795 N   0  0  0  0  0  0  0  0  0  0  0  0
   11.7363  -14.3573   20.7052 C   0  0  0  0  0  0  0  0  0  0  0  0
   11.5681  -13.1303   20.9641 O   0  0  0  0  0  0  0  0  0  0  0  0
   10.5994  -15.2056   20.8058 N   0  0  0  0  0  0  0  0  0  0  0  0
    9.2982  -14.6368   21.1189 C   0  0  1  0  0  0  0  0  0  0  0  0
    8.1964  -15.3525   20.3889 C   0  0  0  0  0  0  0  0  0  0  0  0
    8.0820  -15.0260   18.9689 C   0  0  0  0  0  0  0  0  0  0  0  0
    8.5245  -13.9212   18.2738 C   0  0  0  0  0  0  0  0  0  0  0  0
    8.1967  -14.0047   16.9683 N   0  0  0  0  0  0  0  0  0  0  0  0
    7.5484  -15.1599   16.8406 C   0  0  0  0  0  0  0  0  0  0  0  0
    7.4649  -15.7925   18.0226 N   0  0  0  0  0  0  0  0  0  0  0  0
    9.0889  -14.7892   22.5699 C   0  0  0  0  0  0  0  0  0  0  0  0
    9.8805  -15.5041   23.2242 O   0  0  0  0  0  0  0  0  0  0  0  0
    5.7834  -12.1131   27.0253 C   0  0  0  0  0  0  0  0  0  0  0  0
    6.9979  -12.9680   26.6388 C   0  0  2  0  0  0  0  0  0  0  0  0
    8.2086  -12.4140   27.3132 C   0  0  0  0  0  0  0  0  0  0  0  0
    7.0929  -13.0748   25.1602 C   0  0  0  0  0  0  0  0  0  0  0  0
    8.0742  -14.1059   24.7131 C   0  0  2  0  0  0  0  0  0  0  0  0
    8.0240  -14.1558   23.2511 N   0  0  0  0  0  0  0  0  0  0  0  0
    7.7159  -15.4416   25.2137 C   0  0  0  0  0  0  0  0  0  0  0  0
    6.7412  -16.0640   24.7703 O   0  0  0  0  0  0  0  0  0  0  0  0
    8.4802  -16.0279   26.2053 O   0  0  0  0  0  0  0  0  0  0  0  0
  1  2  1  0
  2  3  2  0
  4  2  1  0
  5  4  1  0
  5  6  1  6
  7  5  1  0
  7  8  2  0
  9  7  1  0
 10  9  1  0
 10 11  1  6
 11 12  1  0
 12 16  1  0
 13 12  2  0
 13 14  1  0
 14 15  1  0
 16 15  2  0
 17 10  1  0
 18 17  2  0
 20 19  1  6
 21 20  1  0
 22 20  1  0
 23 22  1  1
 23 24  1  0
 24 17  1  0
 25 23  1  0
 26 25  2  0
 27 25  1  0
M  END
$$$$
