NHL.pdb
     RDKit          3D

 27 27  0  0  1  0  0  0  0  0999 V2000
    8.7746  -15.0638   17.7832 N   0  0  0  0  0  0  0  0  0  0  0  0
    8.0841  -13.8405   17.6713 C   0  0  0  0  0  0  0  0  0  0  0  0
    7.2493  -13.6545   16.7435 O   0  0  0  0  0  0  0  0  0  0  0  0
    8.3282  -12.7589   18.6386 C   0  0  0  0  0  0  0  0  0  0  0  0
    9.3522  -13.1893   19.6339 C   0  0  2  0  0  0  0  0  0  0  0  0
   10.3422  -14.0374   19.0000 N   0  0  0  0  0  0  0  0  0  0  0  0
    8.6674  -14.0028   20.6893 C   0  0  0  0  0  0  0  0  0  0  0  0
    7.6944  -13.5367   21.3504 O   0  0  0  0  0  0  0  0  0  0  0  0
    9.0827  -15.3292   20.9900 N   0  0  0  0  0  0  0  0  0  0  0  0
    8.4640  -16.0484   22.0921 C   0  0  1  0  0  0  0  0  0  0  0  0
    8.7694  -17.5187   22.0281 C   0  0  0  0  0  0  0  0  0  0  0  0
    8.1539  -18.3241   23.0811 C   0  0  0  0  0  0  0  0  0  0  0  0
    7.1270  -18.0171   23.9475 C   0  0  0  0  0  0  0  0  0  0  0  0
    6.8728  -19.0442   24.7837 N   0  0  0  0  0  0  0  0  0  0  0  0
    7.7381  -19.9969   24.4452 C   0  0  0  0  0  0  0  0  0  0  0  0
    8.5178  -19.5931   23.4286 N   0  0  0  0  0  0  0  0  0  0  0  0
    9.0178  -15.4984   23.3424 C   0  0  0  0  0  0  0  0  0  0  0  0
   10.1824  -15.0407   23.3392 O   0  0  0  0  0  0  0  0  0  0  0  0
    6.8478  -11.7382   25.8222 C   0  0  0  0  0  0  0  0  0  0  0  0
    7.1382  -13.2385   25.9626 C   0  0  2  0  0  0  0  0  0  0  0  0
    6.5221  -13.7297   27.2302 C   0  0  0  0  0  0  0  0  0  0  0  0
    8.5970  -13.4869   25.8328 C   0  0  0  0  0  0  0  0  0  0  0  0
    8.9347  -14.9376   25.7441 C   0  0  2  0  0  0  0  0  0  0  0  0
    8.2795  -15.4690   24.5480 N   0  0  0  0  0  0  0  0  0  0  0  0
    8.4146  -15.6821   26.9010 C   0  0  0  0  0  0  0  0  0  0  0  0
    8.9030  -15.5538   28.0318 O   0  0  0  0  0  0  0  0  0  0  0  0
    7.3525  -16.5511   26.7335 O   0  0  0  0  0  0  0  0  0  0  0  0
  1  2  1  0
  2  3  2  0
  4  2  1  0
  5  4  1  0
  5  6  1  6
  7  5  1  0
  7  8  2  0
  9  7  1  0
 10  9  1  0
 10 11  1  6
 11 12  1  0
 12 16  1  0
 13 12  2  0
 13 14  1  0
 14 15  1  0
 16 15  2  0
 17 10  1  0
 18 17  2  0
 20 19  1  1
 21 20  1  0
 22 20  1  0
 23 22  1  1
 23 24  1  0
 24 17  1  0
 25 23  1  0
 26 25  2  0
 27 25  1  0
M  END
$$$$
