NHL.pdb
     RDKit          3D

 27 27  0  0  1  0  0  0  0  0999 V2000
    9.5822  -13.4909   17.2784 N   0  0  0  0  0  0  0  0  0  0  0  0
    8.1994  -13.7594   17.3188 C   0  0  0  0  0  0  0  0  0  0  0  0
    7.5135  -13.7672   16.2597 O   0  0  0  0  0  0  0  0  0  0  0  0
    7.5339  -14.0353   18.6017 C   0  0  0  0  0  0  0  0  0  0  0  0
    8.5416  -14.0635   19.7009 C   0  0  2  0  0  0  0  0  0  0  0  0
    9.6723  -14.8883   19.3234 N   0  0  0  0  0  0  0  0  0  0  0  0
    7.9054  -14.6896   20.9042 C   0  0  0  0  0  0  0  0  0  0  0  0
    6.8645  -14.1972   21.4285 O   0  0  0  0  0  0  0  0  0  0  0  0
    8.4451  -15.8603   21.5044 N   0  0  0  0  0  0  0  0  0  0  0  0
    7.8412  -16.3972   22.7134 C   0  0  1  0  0  0  0  0  0  0  0  0
    8.1063  -17.8702   22.8518 C   0  0  0  0  0  0  0  0  0  0  0  0
    7.5498  -18.4881   24.0538 C   0  0  0  0  0  0  0  0  0  0  0  0
    6.3536  -18.2566   24.6981 C   0  0  0  0  0  0  0  0  0  0  0  0
    6.2321  -19.0353   25.7925 N   0  0  0  0  0  0  0  0  0  0  0  0
    7.3499  -19.7562   25.8382 C   0  0  0  0  0  0  0  0  0  0  0  0
    8.1571  -19.4493   24.8094 N   0  0  0  0  0  0  0  0  0  0  0  0
    8.4462  -15.6924   23.8579 C   0  0  0  0  0  0  0  0  0  0  0  0
    9.6668  -15.4188   23.8242 O   0  0  0  0  0  0  0  0  0  0  0  0
    7.9700  -11.6585   25.5842 C   0  0  0  0  0  0  0  0  0  0  0  0
    6.8457  -12.6504   25.9119 C   0  0  2  0  0  0  0  0  0  0  0  0
    5.6942  -11.8966   26.4891 C   0  0  0  0  0  0  0  0  0  0  0  0
    7.3709  -13.7487   26.7632 C   0  0  0  0  0  0  0  0  0  0  0  0
    8.3854  -14.5914   26.0655 C   0  0  2  0  0  0  0  0  0  0  0  0
    7.6961  -15.3132   24.9950 N   0  0  0  0  0  0  0  0  0  0  0  0
    8.9664  -15.5936   26.9717 C   0  0  0  0  0  0  0  0  0  0  0  0
    8.6385  -16.7868   26.9202 O   0  0  0  0  0  0  0  0  0  0  0  0
    9.9045  -15.2050   27.9099 O   0  0  0  0  0  0  0  0  0  0  0  0
  1  2  1  0
  2  3  2  0
  4  2  1  0
  5  4  1  0
  5  6  1  6
  7  5  1  0
  7  8  2  0
  9  7  1  0
 10  9  1  0
 10 11  1  1
 11 12  1  0
 12 16  1  0
 13 12  2  0
 13 14  1  0
 14 15  1  0
 16 15  2  0
 17 10  1  0
 18 17  2  0
 20 19  1  1
 21 20  1  0
 22 20  1  0
 23 22  1  1
 23 24  1  0
 24 17  1  0
 25 23  1  0
 26 25  2  0
 27 25  1  0
M  END
$$$$
