NHL.pdb
     RDKit          3D

 27 27  0  0  1  0  0  0  0  0999 V2000
   15.6169  -18.2383   19.6640 N   0  0  0  0  0  0  0  0  0  0  0  0
   14.8412  -18.0310   20.8221 C   0  0  0  0  0  0  0  0  0  0  0  0
   15.0287  -18.7291   21.8565 O   0  0  0  0  0  0  0  0  0  0  0  0
   13.7980  -16.9936   20.8410 C   0  0  0  0  0  0  0  0  0  0  0  0
   12.5238  -17.5643   21.3655 C   0  0  2  0  0  0  0  0  0  0  0  0
   11.9302  -18.4510   20.3843 N   0  0  0  0  0  0  0  0  0  0  0  0
   11.5649  -16.4366   21.5962 C   0  0  0  0  0  0  0  0  0  0  0  0
   11.9703  -15.2450   21.7253 O   0  0  0  0  0  0  0  0  0  0  0  0
   10.1629  -16.6596   21.6794 N   0  0  0  0  0  0  0  0  0  0  0  0
    9.2583  -15.5304   21.8240 C   0  0  1  0  0  0  0  0  0  0  0  0
    7.9973  -15.7322   21.0312 C   0  0  0  0  0  0  0  0  0  0  0  0
    8.0361  -15.2129   19.6655 C   0  0  0  0  0  0  0  0  0  0  0  0
    9.0139  -14.4876   19.0193 C   0  0  0  0  0  0  0  0  0  0  0  0
    8.6440  -14.1897   17.7571 N   0  0  0  0  0  0  0  0  0  0  0  0
    7.4351  -14.7259   17.6079 C   0  0  0  0  0  0  0  0  0  0  0  0
    7.0461  -15.3448   18.7348 N   0  0  0  0  0  0  0  0  0  0  0  0
    8.9132  -15.4230   23.2530 C   0  0  0  0  0  0  0  0  0  0  0  0
    9.3406  -16.2915   24.0460 O   0  0  0  0  0  0  0  0  0  0  0  0
    5.8274  -11.7840   27.1270 C   0  0  0  0  0  0  0  0  0  0  0  0
    6.9639  -12.7992   26.9463 C   0  0  2  0  0  0  0  0  0  0  0  0
    8.1332  -12.3607   27.7637 C   0  0  0  0  0  0  0  0  0  0  0  0
    7.2432  -12.9957   25.5006 C   0  0  0  0  0  0  0  0  0  0  0  0
    7.9268  -14.2899   25.2106 C   0  0  2  0  0  0  0  0  0  0  0  0
    8.1153  -14.3723   23.7615 N   0  0  0  0  0  0  0  0  0  0  0  0
    7.0998  -15.4369   25.6150 C   0  0  0  0  0  0  0  0  0  0  0  0
    6.1374  -15.8185   24.9352 O   0  0  0  0  0  0  0  0  0  0  0  0
    7.3953  -16.1149   26.7830 O   0  0  0  0  0  0  0  0  0  0  0  0
  1  2  1  0
  2  3  2  0
  4  2  1  0
  5  4  1  0
  5  6  1  6
  7  5  1  0
  7  8  2  0
  9  7  1  0
 10  9  1  0
 10 11  1  6
 11 12  1  0
 12 16  1  0
 13 12  2  0
 13 14  1  0
 14 15  1  0
 16 15  2  0
 17 10  1  0
 18 17  2  0
 20 19  1  6
 21 20  1  0
 22 20  1  0
 23 22  1  6
 23 24  1  0
 24 17  1  0
 25 23  1  0
 26 25  2  0
 27 25  1  0
M  END
$$$$
