NHL.pdb
     RDKit          3D

 27 27  0  0  1  0  0  0  0  0999 V2000
    9.0868  -20.2128   19.4766 N   0  0  0  0  0  0  0  0  0  0  0  0
    8.3925  -19.4406   18.5240 C   0  0  0  0  0  0  0  0  0  0  0  0
    8.6887  -19.5096   17.2992 O   0  0  0  0  0  0  0  0  0  0  0  0
    7.3084  -18.5398   18.9460 C   0  0  0  0  0  0  0  0  0  0  0  0
    7.3884  -18.3029   20.4163 C   0  0  2  0  0  0  0  0  0  0  0  0
    6.1188  -17.8122   20.9150 N   0  0  0  0  0  0  0  0  0  0  0  0
    8.4144  -17.2398   20.6648 C   0  0  0  0  0  0  0  0  0  0  0  0
    9.6181  -17.3911   20.3055 O   0  0  0  0  0  0  0  0  0  0  0  0
    8.0773  -16.0200   21.3135 N   0  0  0  0  0  0  0  0  0  0  0  0
    9.1167  -15.0472   21.6098 C   0  0  1  0  0  0  0  0  0  0  0  0
    8.8666  -13.7444   20.9031 C   0  0  0  0  0  0  0  0  0  0  0  0
    8.5721  -13.8618   19.4763 C   0  0  0  0  0  0  0  0  0  0  0  0
    7.5146  -13.3657   18.7447 C   0  0  0  0  0  0  0  0  0  0  0  0
    7.6134  -13.7185   17.4468 N   0  0  0  0  0  0  0  0  0  0  0  0
    8.7309  -14.4360   17.3604 C   0  0  0  0  0  0  0  0  0  0  0  0
    9.3255  -14.5381   18.5606 N   0  0  0  0  0  0  0  0  0  0  0  0
    9.0989  -14.8136   23.0650 C   0  0  0  0  0  0  0  0  0  0  0  0
    9.6749  -13.8015   23.5229 O   0  0  0  0  0  0  0  0  0  0  0  0
    5.6619  -12.8246   26.6601 C   0  0  0  0  0  0  0  0  0  0  0  0
    6.9691  -13.6277   26.6974 C   0  0  2  0  0  0  0  0  0  0  0  0
    8.0261  -12.7938   27.3415 C   0  0  0  0  0  0  0  0  0  0  0  0
    7.2988  -14.1233   25.3364 C   0  0  0  0  0  0  0  0  0  0  0  0
    8.2735  -15.2529   25.3486 C   0  0  2  0  0  0  0  0  0  0  0  0
    8.4534  -15.6931   23.9644 N   0  0  0  0  0  0  0  0  0  0  0  0
    7.7587  -16.3986   26.1137 C   0  0  0  0  0  0  0  0  0  0  0  0
    6.9044  -17.1638   25.6461 O   0  0  0  0  0  0  0  0  0  0  0  0
    8.2337  -16.6377   27.3898 O   0  0  0  0  0  0  0  0  0  0  0  0
  1  2  1  0
  2  3  2  0
  4  2  1  0
  5  4  1  0
  5  6  1  6
  7  5  1  0
  7  8  2  0
  9  7  1  0
 10  9  1  0
 10 11  1  6
 11 12  1  0
 12 16  1  0
 13 12  2  0
 13 14  1  0
 14 15  1  0
 16 15  2  0
 17 10  1  0
 18 17  2  0
 20 19  1  6
 21 20  1  0
 22 20  1  0
 23 22  1  6
 23 24  1  0
 24 17  1  0
 25 23  1  0
 26 25  2  0
 27 25  1  0
M  END
$$$$
