PRQ.pdb
     RDKit          3D

 28 28  0  0  1  0  0  0  0  0999 V2000
    9.3326  -14.1319   18.9632 N   0  0  0  0  0  0  0  0  0  0  0  0
    8.8438  -13.4762   17.7885 C   0  0  0  0  0  0  0  0  0  0  0  0
    7.6685  -12.6068   18.2085 C   0  0  0  0  0  0  0  0  0  0  0  0
    7.2421  -13.3357   19.4914 C   0  0  0  0  0  0  0  0  0  0  0  0
    8.5775  -13.6524   20.0908 C   0  0  1  0  0  0  0  0  0  0  0  0
    8.5139  -14.6406   21.1937 C   0  0  0  0  0  0  0  0  0  0  0  0
    7.7715  -14.3737   22.1717 O   0  0  0  0  0  0  0  0  0  0  0  0
   12.2229  -21.8869   19.4392 N   0  0  0  0  0  0  0  0  0  0  0  0
   13.1454  -21.0260   20.0996 C   0  0  0  0  0  0  0  0  0  0  0  0
   14.4162  -21.2547   20.0957 N   0  0  0  0  0  0  0  0  0  0  0  0
   12.5977  -19.8983   20.7654 N   0  0  0  0  0  0  0  0  0  0  0  0
   11.1648  -19.7325   20.8366 C   0  0  0  0  0  0  0  0  0  0  0  0
   10.8789  -18.4099   21.5399 C   0  0  0  0  0  0  0  0  0  0  0  0
    9.4265  -18.1466   21.6452 C   0  0  0  0  0  0  0  0  0  0  0  0
    9.1091  -16.8413   22.3091 C   0  0  2  0  0  0  0  0  0  0  0  0
    9.2333  -15.8483   21.2028 N   0  0  0  0  0  0  0  0  0  0  0  0
   10.0617  -16.4497   23.3750 C   0  0  0  0  0  0  0  0  0  0  0  0
   11.2226  -16.0041   23.0807 O   0  0  0  0  0  0  0  0  0  0  0  0
   15.0893  -20.6233   20.5458 N   0  0  0  0  0  0  0  0  0  0  0  0
    8.8093  -13.3626   28.4872 C   0  0  0  0  0  0  0  0  0  0  0  0
    9.9761  -14.0319   28.9227 O   0  0  0  0  0  0  0  0  0  0  0  0
   10.3939  -13.9492   30.1214 C   0  0  0  0  0  0  0  0  0  0  0  0
   10.7420  -14.8568   27.9860 C   0  0  0  0  0  0  0  0  0  0  0  0
   10.0149  -15.3404   26.7797 C   0  0  1  0  0  0  0  0  0  0  0  0
   10.7512  -16.1661   25.7956 N   0  0  0  0  0  0  0  0  0  0  0  0
    9.7756  -16.5299   24.7480 C   0  0  0  0  0  0  0  0  0  0  0  0
   11.5340  -17.2955   26.2307 O   0  0  0  0  0  0  0  0  0  0  0  0
   12.7851  -17.1863   26.3946 O   0  0  0  0  0  0  0  0  0  0  0  0
  1  5  1  0
  1  2  1  0
  2  3  1  0
  4  3  1  0
  5  4  1  0
  5  6  1  1
  7  6  2  0
  9 10  2  0
  9  8  1  0
 11  9  1  0
 12 11  1  0
 13 12  1  0
 15 14  1  6
 14 13  1  0
 15 16  1  0
 16  6  1  0
 17 15  1  0
 18 17  2  0
 19 20  1  0
 20 22  1  0
 21 20  2  0
 22 23  1  0
 24 23  1  6
 24 25  1  0
 25 17  1  0
 26 24  1  0
 26 28  1  0
 27 26  2  0
M  END
$$$$
