PRQ.pdb
     RDKit          3D

 28 28  0  0  1  0  0  0  0  0999 V2000
    7.8003  -14.8806   18.7642 N   0  0  0  0  0  0  0  0  0  0  0  0
    7.0139  -14.2192   17.7677 C   0  0  0  0  0  0  0  0  0  0  0  0
    7.3522  -12.7376   17.8307 C   0  0  0  0  0  0  0  0  0  0  0  0
    7.8601  -12.6409   19.2770 C   0  0  0  0  0  0  0  0  0  0  0  0
    8.6598  -13.9030   19.3782 C   0  0  1  0  0  0  0  0  0  0  0  0
    9.0277  -14.2630   20.7682 C   0  0  0  0  0  0  0  0  0  0  0  0
   10.0021  -13.6621   21.2861 O   0  0  0  0  0  0  0  0  0  0  0  0
    8.1007  -19.8066   25.6016 N   0  0  0  0  0  0  0  0  0  0  0  0
    7.3026  -19.3841   26.7027 C   0  0  0  0  0  0  0  0  0  0  0  0
    7.0692  -20.1540   27.7127 N   0  0  0  0  0  0  0  0  0  0  0  0
    6.7734  -18.0685   26.6364 N   0  0  0  0  0  0  0  0  0  0  0  0
    6.4644  -17.4827   25.3530 C   0  0  0  0  0  0  0  0  0  0  0  0
    7.7343  -16.8319   24.8152 C   0  0  0  0  0  0  0  0  0  0  0  0
    7.5083  -16.1900   23.5011 C   0  0  0  0  0  0  0  0  0  0  0  0
    8.7428  -15.5607   22.9306 C   0  0  2  0  0  0  0  0  0  0  0  0
    8.3505  -15.2315   21.5295 N   0  0  0  0  0  0  0  0  0  0  0  0
    9.9170  -16.4631   22.8696 C   0  0  0  0  0  0  0  0  0  0  0  0
   10.1214  -17.1990   21.8451 O   0  0  0  0  0  0  0  0  0  0  0  0
    6.4774  -19.8634   28.4998 N   0  0  0  0  0  0  0  0  0  0  0  0
   13.8869  -14.1071   20.6780 C   0  0  0  0  0  0  0  0  0  0  0  0
   14.5049  -15.3589   20.9016 O   0  0  0  0  0  0  0  0  0  0  0  0
   15.3891  -15.8250   20.1148 C   0  0  0  0  0  0  0  0  0  0  0  0
   14.1379  -16.1604   22.0710 C   0  0  0  0  0  0  0  0  0  0  0  0
   12.6982  -16.1578   22.4520 C   0  0  1  0  0  0  0  0  0  0  0  0
   12.2826  -16.9298   23.6451 N   0  0  0  0  0  0  0  0  0  0  0  0
   10.8702  -16.5770   23.8952 C   0  0  0  0  0  0  0  0  0  0  0  0
   13.0760  -16.8978   24.8481 O   0  0  0  0  0  0  0  0  0  0  0  0
   14.2985  -17.2275   24.8214 O   0  0  0  0  0  0  0  0  0  0  0  0
  1  5  1  0
  1  2  1  0
  2  3  1  0
  4  3  1  0
  5  4  1  0
  5  6  1  1
  7  6  2  0
  9 10  2  0
  9  8  1  0
 11  9  1  0
 12 11  1  0
 13 12  1  0
 15 14  1  6
 14 13  1  0
 15 16  1  0
 16  6  1  0
 17 15  1  0
 18 17  2  0
 19 20  1  0
 20 22  1  0
 21 20  2  0
 22 23  1  0
 24 23  1  6
 24 25  1  0
 25 17  1  0
 26 24  1  0
 26 28  1  0
 27 26  2  0
M  END
$$$$
