PRQ.pdb
     RDKit          3D

 28 28  0  0  1  0  0  0  0  0999 V2000
    8.7814  -14.5302   18.6056 N   0  0  0  0  0  0  0  0  0  0  0  0
    8.3291  -13.8466   17.4322 C   0  0  0  0  0  0  0  0  0  0  0  0
    7.7364  -12.5190   17.8791 C   0  0  0  0  0  0  0  0  0  0  0  0
    7.3754  -12.8633   19.3318 C   0  0  0  0  0  0  0  0  0  0  0  0
    8.5745  -13.6641   19.7364 C   0  0  1  0  0  0  0  0  0  0  0  0
    8.3880  -14.4150   21.0007 C   0  0  0  0  0  0  0  0  0  0  0  0
    8.1144  -13.7548   22.0341 O   0  0  0  0  0  0  0  0  0  0  0  0
   11.3472  -20.5305   21.5462 N   0  0  0  0  0  0  0  0  0  0  0  0
   10.8929  -20.2842   20.2191 C   0  0  0  0  0  0  0  0  0  0  0  0
   11.6745  -19.8125   19.3060 N   0  0  0  0  0  0  0  0  0  0  0  0
    9.5324  -20.5843   19.9470 N   0  0  0  0  0  0  0  0  0  0  0  0
    8.4925  -20.0134   20.7708 C   0  0  0  0  0  0  0  0  0  0  0  0
    8.9303  -18.6096   21.1749 C   0  0  0  0  0  0  0  0  0  0  0  0
    7.8850  -17.9121   21.9564 C   0  0  0  0  0  0  0  0  0  0  0  0
    8.2908  -16.5364   22.3903 C   0  0  2  0  0  0  0  0  0  0  0  0
    8.5003  -15.8125   21.1029 N   0  0  0  0  0  0  0  0  0  0  0  0
    9.5634  -16.4847   23.1485 C   0  0  0  0  0  0  0  0  0  0  0  0
   10.6708  -16.2656   22.5497 O   0  0  0  0  0  0  0  0  0  0  0  0
   11.3443  -19.5967   18.3580 N   0  0  0  0  0  0  0  0  0  0  0  0
   10.0519  -15.4848   29.7680 C   0  0  0  0  0  0  0  0  0  0  0  0
   10.5926  -14.5727   28.8327 O   0  0  0  0  0  0  0  0  0  0  0  0
   10.5861  -13.3167   29.0337 C   0  0  0  0  0  0  0  0  0  0  0  0
   11.1896  -15.0641   27.5891 C   0  0  0  0  0  0  0  0  0  0  0  0
   10.2469  -15.5857   26.5610 C   0  0  1  0  0  0  0  0  0  0  0  0
   10.8077  -16.2002   25.3362 N   0  0  0  0  0  0  0  0  0  0  0  0
    9.6533  -16.6625   24.5390 C   0  0  0  0  0  0  0  0  0  0  0  0
   11.8438  -17.1979   25.4288 O   0  0  0  0  0  0  0  0  0  0  0  0
   11.5585  -18.4299   25.3603 O   0  0  0  0  0  0  0  0  0  0  0  0
  1  5  1  0
  1  2  1  0
  2  3  1  0
  4  3  1  0
  5  4  1  0
  5  6  1  1
  7  6  2  0
  9 10  2  0
  9  8  1  0
 11  9  1  0
 12 11  1  0
 13 12  1  0
 15 14  1  6
 14 13  1  0
 15 16  1  0
 16  6  1  0
 17 15  1  0
 18 17  2  0
 19 20  1  0
 20 22  1  0
 21 20  2  0
 22 23  1  0
 24 23  1  6
 24 25  1  0
 25 17  1  0
 26 24  1  0
 26 28  1  0
 27 26  2  0
M  END
$$$$
