PRQ.pdb
     RDKit          3D

 28 28  0  0  1  0  0  0  0  0999 V2000
   10.8300  -18.3333   19.1699 N   0  0  0  0  0  0  0  0  0  0  0  0
   10.9275  -18.6980   17.7892 C   0  0  0  0  0  0  0  0  0  0  0  0
   11.8601  -17.7001   17.1199 C   0  0  0  0  0  0  0  0  0  0  0  0
   11.7156  -16.5122   18.0828 C   0  0  0  0  0  0  0  0  0  0  0  0
   11.7119  -17.2199   19.4025 C   0  0  1  0  0  0  0  0  0  0  0  0
   11.2670  -16.3688   20.5315 C   0  0  0  0  0  0  0  0  0  0  0  0
   12.1490  -15.9277   21.3101 O   0  0  0  0  0  0  0  0  0  0  0  0
    7.3497  -15.3011   17.5376 N   0  0  0  0  0  0  0  0  0  0  0  0
    7.5295  -13.9214   17.2340 C   0  0  0  0  0  0  0  0  0  0  0  0
    7.9696  -13.5262   16.0862 N   0  0  0  0  0  0  0  0  0  0  0  0
    7.1995  -12.9966   18.2591 N   0  0  0  0  0  0  0  0  0  0  0  0
    7.0177  -13.4616   19.6143 C   0  0  0  0  0  0  0  0  0  0  0  0
    8.3323  -14.0783   20.0801 C   0  0  0  0  0  0  0  0  0  0  0  0
    8.2552  -14.5403   21.4839 C   0  0  0  0  0  0  0  0  0  0  0  0
    9.5066  -15.2185   21.9524 C   0  0  2  0  0  0  0  0  0  0  0  0
    9.9237  -16.0329   20.7742 N   0  0  0  0  0  0  0  0  0  0  0  0
    9.3101  -16.1443   23.0932 C   0  0  0  0  0  0  0  0  0  0  0  0
    8.8437  -17.3192   22.9066 O   0  0  0  0  0  0  0  0  0  0  0  0
    8.1804  -12.5410   15.8883 N   0  0  0  0  0  0  0  0  0  0  0  0
   11.8645  -20.0498   22.5853 C   0  0  0  0  0  0  0  0  0  0  0  0
   11.9350  -19.9003   23.9895 O   0  0  0  0  0  0  0  0  0  0  0  0
   12.8696  -20.4212   24.6775 C   0  0  0  0  0  0  0  0  0  0  0  0
   10.9162  -19.1217   24.6969 C   0  0  0  0  0  0  0  0  0  0  0  0
   11.0951  -17.6432   24.7012 C   0  0  2  0  0  0  0  0  0  0  0  0
   10.0928  -16.8131   25.4073 N   0  0  0  0  0  0  0  0  0  0  0  0
    9.6130  -15.8190   24.4257 C   0  0  0  0  0  0  0  0  0  0  0  0
   10.4060  -16.2170   26.6818 O   0  0  0  0  0  0  0  0  0  0  0  0
   10.8436  -16.9277   27.6343 O   0  0  0  0  0  0  0  0  0  0  0  0
  1  5  1  0
  1  2  1  0
  2  3  1  0
  4  3  1  0
  5  4  1  0
  5  6  1  1
  7  6  2  0
  9 10  2  0
  9  8  1  0
 11  9  1  0
 12 11  1  0
 13 12  1  0
 15 14  1  6
 14 13  1  0
 15 16  1  0
 16  6  1  0
 17 15  1  0
 18 17  2  0
 19 20  1  0
 20 22  1  0
 21 20  2  0
 22 23  1  0
 24 23  1  6
 24 25  1  0
 25 17  1  0
 26 24  1  0
 26 28  1  0
 27 26  2  0
M  END
$$$$
