PRQ.pdb
     RDKit          3D

 28 28  0  0  1  0  0  0  0  0999 V2000
    7.1942  -21.9198   21.5396 N   0  0  0  0  0  0  0  0  0  0  0  0
    6.1950  -22.8963   21.2282 C   0  0  0  0  0  0  0  0  0  0  0  0
    6.6125  -23.5778   19.9341 C   0  0  0  0  0  0  0  0  0  0  0  0
    7.5095  -22.4848   19.3341 C   0  0  0  0  0  0  0  0  0  0  0  0
    8.2400  -22.0197   20.5558 C   0  0  1  0  0  0  0  0  0  0  0  0
    8.9637  -20.7405   20.3639 C   0  0  0  0  0  0  0  0  0  0  0  0
   10.1120  -20.7924   19.8566 O   0  0  0  0  0  0  0  0  0  0  0  0
    8.1268  -13.1269   21.1328 N   0  0  0  0  0  0  0  0  0  0  0  0
    8.3374  -12.7659   19.7713 C   0  0  0  0  0  0  0  0  0  0  0  0
    8.7868  -11.6033   19.4345 N   0  0  0  0  0  0  0  0  0  0  0  0
    8.0281  -13.7512   18.7974 N   0  0  0  0  0  0  0  0  0  0  0  0
    7.4433  -15.0067   19.2066 C   0  0  0  0  0  0  0  0  0  0  0  0
    8.5720  -15.9240   19.6650 C   0  0  0  0  0  0  0  0  0  0  0  0
    8.0789  -17.2805   19.9917 C   0  0  0  0  0  0  0  0  0  0  0  0
    9.1639  -18.2116   20.4402 C   0  0  2  0  0  0  0  0  0  0  0  0
    8.4380  -19.4853   20.7164 N   0  0  0  0  0  0  0  0  0  0  0  0
    9.8443  -17.8004   21.6912 C   0  0  0  0  0  0  0  0  0  0  0  0
    9.1676  -17.4892   22.7295 O   0  0  0  0  0  0  0  0  0  0  0  0
    8.9371  -11.3352   18.4548 N   0  0  0  0  0  0  0  0  0  0  0  0
   11.4173  -19.5287   26.6724 C   0  0  0  0  0  0  0  0  0  0  0  0
   12.0658  -20.0176   25.5151 O   0  0  0  0  0  0  0  0  0  0  0  0
   12.9551  -20.9254   25.5725 C   0  0  0  0  0  0  0  0  0  0  0  0
   11.7169  -19.4832   24.1971 C   0  0  0  0  0  0  0  0  0  0  0  0
   12.5635  -18.3692   23.6872 C   0  0  2  0  0  0  0  0  0  0  0  0
   11.8966  -17.2094   23.0527 N   0  0  0  0  0  0  0  0  0  0  0  0
   11.2397  -17.7252   21.8344 C   0  0  0  0  0  0  0  0  0  0  0  0
   12.6276  -15.9917   22.8067 O   0  0  0  0  0  0  0  0  0  0  0  0
   12.8941  -15.6294   21.6228 O   0  0  0  0  0  0  0  0  0  0  0  0
  1  5  1  0
  1  2  1  0
  2  3  1  0
  4  3  1  0
  5  4  1  0
  5  6  1  6
  7  6  2  0
  9 10  2  0
  9  8  1  0
 11  9  1  0
 12 11  1  0
 13 12  1  0
 15 14  1  1
 14 13  1  0
 15 16  1  0
 16  6  1  0
 17 15  1  0
 18 17  2  0
 19 20  1  0
 20 22  1  0
 21 20  2  0
 22 23  1  0
 24 23  1  1
 24 25  1  0
 25 17  1  0
 26 24  1  0
 26 28  1  0
 27 26  2  0
M  END
$$$$
