PRQ.pdb
     RDKit          3D

 28 28  0  0  1  0  0  0  0  0999 V2000
    8.4909  -15.3146   19.1167 N   0  0  0  0  0  0  0  0  0  0  0  0
    8.3830  -14.7029   17.8271 C   0  0  0  0  0  0  0  0  0  0  0  0
    7.8308  -13.3008   18.0334 C   0  0  0  0  0  0  0  0  0  0  0  0
    7.1185  -13.4899   19.3810 C   0  0  0  0  0  0  0  0  0  0  0  0
    8.1140  -14.3408   20.1073 C   0  0  1  0  0  0  0  0  0  0  0  0
    7.5757  -14.9633   21.3401 C   0  0  0  0  0  0  0  0  0  0  0  0
    7.1791  -14.1967   22.2532 O   0  0  0  0  0  0  0  0  0  0  0  0
    6.1090  -23.5817   24.9078 N   0  0  0  0  0  0  0  0  0  0  0  0
    5.8677  -22.2102   25.2056 C   0  0  0  0  0  0  0  0  0  0  0  0
    5.7966  -21.7770   26.4199 N   0  0  0  0  0  0  0  0  0  0  0  0
    5.7085  -21.3376   24.0973 N   0  0  0  0  0  0  0  0  0  0  0  0
    6.8679  -20.7191   23.4980 C   0  0  0  0  0  0  0  0  0  0  0  0
    6.8025  -19.2224   23.7832 C   0  0  0  0  0  0  0  0  0  0  0  0
    7.0575  -18.4199   22.5663 C   0  0  0  0  0  0  0  0  0  0  0  0
    6.9486  -16.9435   22.7984 C   0  0  2  0  0  0  0  0  0  0  0  0
    7.4868  -16.3520   21.5391 N   0  0  0  0  0  0  0  0  0  0  0  0
    7.7732  -16.4385   23.9218 C   0  0  0  0  0  0  0  0  0  0  0  0
    9.0486  -16.5010   23.8740 O   0  0  0  0  0  0  0  0  0  0  0  0
    5.6736  -20.7820   26.6418 N   0  0  0  0  0  0  0  0  0  0  0  0
    5.5511  -11.9761   27.4819 C   0  0  0  0  0  0  0  0  0  0  0  0
    6.7245  -11.6410   26.7677 O   0  0  0  0  0  0  0  0  0  0  0  0
    7.0232  -10.4366   26.4877 C   0  0  0  0  0  0  0  0  0  0  0  0
    7.6438  -12.6938   26.3309 C   0  0  0  0  0  0  0  0  0  0  0  0
    7.2524  -14.0935   26.6558 C   0  0  2  0  0  0  0  0  0  0  0  0
    8.0716  -15.1999   26.1108 N   0  0  0  0  0  0  0  0  0  0  0  0
    7.2395  -15.8666   25.0886 C   0  0  0  0  0  0  0  0  0  0  0  0
    8.7090  -16.1413   26.9970 O   0  0  0  0  0  0  0  0  0  0  0  0
    8.2382  -17.3080   27.1427 O   0  0  0  0  0  0  0  0  0  0  0  0
  1  5  1  0
  1  2  1  0
  2  3  1  0
  4  3  1  0
  5  4  1  0
  5  6  1  1
  7  6  2  0
  9 10  2  0
  9  8  1  0
 11  9  1  0
 12 11  1  0
 13 12  1  0
 15 14  1  6
 14 13  1  0
 15 16  1  0
 16  6  1  0
 17 15  1  0
 18 17  2  0
 19 20  1  0
 20 22  1  0
 21 20  2  0
 22 23  1  0
 24 23  1  6
 24 25  1  0
 25 17  1  0
 26 24  1  0
 26 28  1  0
 27 26  2  0
M  END
$$$$
