PRQ.pdb
     RDKit          3D

 28 28  0  0  1  0  0  0  0  0999 V2000
    9.1822  -14.0915   19.2212 N   0  0  0  0  0  0  0  0  0  0  0  0
    8.5393  -13.3082   18.2102 C   0  0  0  0  0  0  0  0  0  0  0  0
    7.4291  -12.5173   18.8850 C   0  0  0  0  0  0  0  0  0  0  0  0
    7.1796  -13.4030   20.1148 C   0  0  0  0  0  0  0  0  0  0  0  0
    8.5837  -13.7652   20.4888 C   0  0  1  0  0  0  0  0  0  0  0  0
    8.6702  -14.8800   21.4619 C   0  0  0  0  0  0  0  0  0  0  0  0
    8.1022  -14.7280   22.5723 O   0  0  0  0  0  0  0  0  0  0  0  0
   10.5627  -20.0917   19.0313 N   0  0  0  0  0  0  0  0  0  0  0  0
   10.6970  -21.3835   19.6154 C   0  0  0  0  0  0  0  0  0  0  0  0
   11.5046  -22.2696   19.1358 N   0  0  0  0  0  0  0  0  0  0  0  0
    9.8965  -21.6514   20.7567 N   0  0  0  0  0  0  0  0  0  0  0  0
    9.9652  -20.7762   21.9035 C   0  0  0  0  0  0  0  0  0  0  0  0
    9.1455  -19.5285   21.5924 C   0  0  0  0  0  0  0  0  0  0  0  0
   10.0003  -18.3269   21.4676 C   0  0  0  0  0  0  0  0  0  0  0  0
    9.4860  -17.1526   22.2435 C   0  0  2  0  0  0  0  0  0  0  0  0
    9.3476  -16.0857   21.2100 N   0  0  0  0  0  0  0  0  0  0  0  0
   10.4150  -16.6533   23.2850 C   0  0  0  0  0  0  0  0  0  0  0  0
   11.5252  -16.1094   22.9619 O   0  0  0  0  0  0  0  0  0  0  0  0
   11.6169  -23.1976   19.5605 N   0  0  0  0  0  0  0  0  0  0  0  0
   10.3020  -12.4771   27.4067 C   0  0  0  0  0  0  0  0  0  0  0  0
    9.3947  -13.5278   27.6751 O   0  0  0  0  0  0  0  0  0  0  0  0
    8.3714  -13.3637   28.4128 C   0  0  0  0  0  0  0  0  0  0  0  0
    9.6138  -14.8536   27.0931 C   0  0  0  0  0  0  0  0  0  0  0  0
   10.7527  -14.9810   26.1421 C   0  0  1  0  0  0  0  0  0  0  0  0
   11.1457  -16.3347   25.6890 N   0  0  0  0  0  0  0  0  0  0  0  0
   10.1588  -16.7310   24.6640 C   0  0  0  0  0  0  0  0  0  0  0  0
   11.3903  -17.3830   26.6477 O   0  0  0  0  0  0  0  0  0  0  0  0
   12.2960  -17.2553   27.5236 O   0  0  0  0  0  0  0  0  0  0  0  0
  1  5  1  0
  1  2  1  0
  2  3  1  0
  4  3  1  0
  5  4  1  0
  5  6  1  1
  7  6  2  0
  9 10  2  0
  9  8  1  0
 11  9  1  0
 12 11  1  0
 13 12  1  0
 15 14  1  6
 14 13  1  0
 15 16  1  0
 16  6  1  0
 17 15  1  0
 18 17  2  0
 19 20  1  0
 20 22  1  0
 21 20  2  0
 22 23  1  0
 24 23  1  6
 24 25  1  0
 25 17  1  0
 26 24  1  0
 26 28  1  0
 27 26  2  0
M  END
$$$$
