PRQ.pdb
     RDKit          3D

 28 28  0  0  1  0  0  0  0  0999 V2000
    7.6145  -13.9848   20.4792 N   0  0  0  0  0  0  0  0  0  0  0  0
    6.9752  -12.7049   20.4339 C   0  0  0  0  0  0  0  0  0  0  0  0
    6.9363  -12.2670   18.9778 C   0  0  0  0  0  0  0  0  0  0  0  0
    8.1071  -13.0901   18.4201 C   0  0  0  0  0  0  0  0  0  0  0  0
    7.8961  -14.3929   19.1280 C   0  0  1  0  0  0  0  0  0  0  0  0
    9.0571  -15.3102   19.0417 C   0  0  0  0  0  0  0  0  0  0  0  0
    9.3022  -15.8349   17.9266 O   0  0  0  0  0  0  0  0  0  0  0  0
   16.9548  -13.9142   19.4070 N   0  0  0  0  0  0  0  0  0  0  0  0
   16.5023  -14.2667   18.1035 C   0  0  0  0  0  0  0  0  0  0  0  0
   16.9355  -13.6678   17.0448 N   0  0  0  0  0  0  0  0  0  0  0  0
   15.5473  -15.3139   18.0238 N   0  0  0  0  0  0  0  0  0  0  0  0
   14.1423  -14.9978   17.9152 C   0  0  0  0  0  0  0  0  0  0  0  0
   13.4392  -15.5503   19.1505 C   0  0  0  0  0  0  0  0  0  0  0  0
   11.9744  -15.3503   19.0842 C   0  0  0  0  0  0  0  0  0  0  0  0
   11.2086  -16.2962   19.9584 C   0  0  2  0  0  0  0  0  0  0  0  0
    9.8897  -15.6209   20.1310 N   0  0  0  0  0  0  0  0  0  0  0  0
   11.7936  -16.4933   21.3060 C   0  0  0  0  0  0  0  0  0  0  0  0
   11.8579  -15.5248   22.1370 O   0  0  0  0  0  0  0  0  0  0  0  0
   16.5167  -13.8168   16.1192 N   0  0  0  0  0  0  0  0  0  0  0  0
   17.2002  -15.9316   21.5441 C   0  0  0  0  0  0  0  0  0  0  0  0
   16.6507  -15.8220   22.8423 O   0  0  0  0  0  0  0  0  0  0  0  0
   17.0210  -14.9186   23.6577 C   0  0  0  0  0  0  0  0  0  0  0  0
   15.6178  -16.7614   23.2839 C   0  0  0  0  0  0  0  0  0  0  0  0
   14.4667  -16.9642   22.3610 C   0  0  1  0  0  0  0  0  0  0  0  0
   13.3425  -17.8159   22.8116 N   0  0  0  0  0  0  0  0  0  0  0  0
   12.3043  -17.7186   21.7654 C   0  0  0  0  0  0  0  0  0  0  0  0
   12.7988  -17.6655   24.1380 O   0  0  0  0  0  0  0  0  0  0  0  0
   12.9350  -18.5858   24.9973 O   0  0  0  0  0  0  0  0  0  0  0  0
  1  5  1  0
  1  2  1  0
  2  3  1  0
  4  3  1  0
  5  4  1  0
  5  6  1  1
  7  6  2  0
  9 10  2  0
  9  8  1  0
 11  9  1  0
 12 11  1  0
 13 12  1  0
 15 14  1  6
 14 13  1  0
 15 16  1  0
 16  6  1  0
 17 15  1  0
 18 17  2  0
 19 20  1  0
 20 22  1  0
 21 20  2  0
 22 23  1  0
 24 23  1  6
 24 25  1  0
 25 17  1  0
 26 24  1  0
 26 28  1  0
 27 26  2  0
M  END
$$$$
