PRQ.pdb
     RDKit          3D

 28 28  0  0  1  0  0  0  0  0999 V2000
    8.6613  -14.9301   19.2572 N   0  0  0  0  0  0  0  0  0  0  0  0
    8.4943  -14.3994   17.9383 C   0  0  0  0  0  0  0  0  0  0  0  0
    7.9140  -13.0007   18.0810 C   0  0  0  0  0  0  0  0  0  0  0  0
    7.2528  -13.1254   19.4618 C   0  0  0  0  0  0  0  0  0  0  0  0
    8.2937  -13.9079   20.2013 C   0  0  1  0  0  0  0  0  0  0  0  0
    7.8136  -14.4679   21.4869 C   0  0  0  0  0  0  0  0  0  0  0  0
    7.3520  -13.6640   22.3352 O   0  0  0  0  0  0  0  0  0  0  0  0
    7.0402  -22.7895   23.2997 N   0  0  0  0  0  0  0  0  0  0  0  0
    6.1158  -21.8974   22.6852 C   0  0  0  0  0  0  0  0  0  0  0  0
    5.2520  -22.3015   21.8146 N   0  0  0  0  0  0  0  0  0  0  0  0
    6.1897  -20.5354   23.0782 N   0  0  0  0  0  0  0  0  0  0  0  0
    7.2313  -20.1040   23.9809 C   0  0  0  0  0  0  0  0  0  0  0  0
    7.0927  -18.5975   24.1732 C   0  0  0  0  0  0  0  0  0  0  0  0
    7.4958  -17.8498   22.9615 C   0  0  0  0  0  0  0  0  0  0  0  0
    7.3542  -16.3653   23.1087 C   0  0  2  0  0  0  0  0  0  0  0  0
    7.8475  -15.8371   21.8036 N   0  0  0  0  0  0  0  0  0  0  0  0
    8.1915  -15.7743   24.1794 C   0  0  0  0  0  0  0  0  0  0  0  0
    9.4664  -15.8353   24.1189 O   0  0  0  0  0  0  0  0  0  0  0  0
    4.5934  -21.6610   21.3561 N   0  0  0  0  0  0  0  0  0  0  0  0
    6.4832  -10.9119   27.5694 C   0  0  0  0  0  0  0  0  0  0  0  0
    6.4614  -11.2553   26.1980 O   0  0  0  0  0  0  0  0  0  0  0  0
    5.8630  -10.5403   25.3327 C   0  0  0  0  0  0  0  0  0  0  0  0
    7.1463  -12.4632   25.7328 C   0  0  0  0  0  0  0  0  0  0  0  0
    7.8532  -13.2661   26.7688 C   0  0  2  0  0  0  0  0  0  0  0  0
    8.5234  -14.5197   26.3545 N   0  0  0  0  0  0  0  0  0  0  0  0
    7.6709  -15.1183   25.3073 C   0  0  0  0  0  0  0  0  0  0  0  0
    8.9389  -15.4856   27.3405 O   0  0  0  0  0  0  0  0  0  0  0  0
    9.7966  -15.1786   28.2203 O   0  0  0  0  0  0  0  0  0  0  0  0
  1  5  1  0
  1  2  1  0
  2  3  1  0
  4  3  1  0
  5  4  1  0
  5  6  1  1
  7  6  2  0
  9 10  2  0
  9  8  1  0
 11  9  1  0
 12 11  1  0
 13 12  1  0
 15 14  1  6
 14 13  1  0
 15 16  1  0
 16  6  1  0
 17 15  1  0
 18 17  2  0
 19 20  1  0
 20 22  1  0
 21 20  2  0
 22 23  1  0
 24 23  1  6
 24 25  1  0
 25 17  1  0
 26 24  1  0
 26 28  1  0
 27 26  2  0
M  END
$$$$
