PRQ.pdb
     RDKit          3D

 28 28  0  0  1  0  0  0  0  0999 V2000
    9.2754  -13.6947   18.9886 N   0  0  0  0  0  0  0  0  0  0  0  0
    8.7048  -13.1099   17.8133 C   0  0  0  0  0  0  0  0  0  0  0  0
    7.3061  -12.6343   18.1750 C   0  0  0  0  0  0  0  0  0  0  0  0
    7.0139  -13.5504   19.3727 C   0  0  0  0  0  0  0  0  0  0  0  0
    8.3393  -13.5319   20.0697 C   0  0  1  0  0  0  0  0  0  0  0  0
    8.4798  -14.5821   21.1061 C   0  0  0  0  0  0  0  0  0  0  0  0
    7.5706  -14.6734   21.9685 O   0  0  0  0  0  0  0  0  0  0  0  0
   15.6018  -15.6493   19.8395 N   0  0  0  0  0  0  0  0  0  0  0  0
   14.2002  -15.6164   19.5898 C   0  0  0  0  0  0  0  0  0  0  0  0
   13.5278  -14.5143   19.6134 N   0  0  0  0  0  0  0  0  0  0  0  0
   13.5747  -16.8599   19.3117 N   0  0  0  0  0  0  0  0  0  0  0  0
   12.8601  -17.5540   20.3574 C   0  0  0  0  0  0  0  0  0  0  0  0
   11.7230  -16.6532   20.8276 C   0  0  0  0  0  0  0  0  0  0  0  0
   10.8436  -17.3407   21.7992 C   0  0  0  0  0  0  0  0  0  0  0  0
    9.6880  -16.4993   22.2488 C   0  0  2  0  0  0  0  0  0  0  0  0
    9.5660  -15.4719   21.1741 N   0  0  0  0  0  0  0  0  0  0  0  0
    9.9116  -15.7874   23.5295 C   0  0  0  0  0  0  0  0  0  0  0  0
   10.8669  -14.9475   23.6505 O   0  0  0  0  0  0  0  0  0  0  0  0
   12.5070  -14.4912   19.5046 N   0  0  0  0  0  0  0  0  0  0  0  0
    6.6559  -11.8464   25.2788 C   0  0  0  0  0  0  0  0  0  0  0  0
    6.3293  -13.1243   25.7883 O   0  0  0  0  0  0  0  0  0  0  0  0
    5.2771  -13.3289   26.4730 C   0  0  0  0  0  0  0  0  0  0  0  0
    7.2101  -14.2650   25.5287 C   0  0  0  0  0  0  0  0  0  0  0  0
    8.5512  -14.2287   26.1751 C   0  0  1  0  0  0  0  0  0  0  0  0
    9.4562  -15.3856   25.9884 N   0  0  0  0  0  0  0  0  0  0  0  0
    9.1175  -15.9684   24.6740 C   0  0  0  0  0  0  0  0  0  0  0  0
    9.5803  -16.3885   27.0162 O   0  0  0  0  0  0  0  0  0  0  0  0
    9.3693  -17.6092   26.7529 O   0  0  0  0  0  0  0  0  0  0  0  0
  1  5  1  0
  1  2  1  0
  2  3  1  0
  4  3  1  0
  5  4  1  0
  5  6  1  1
  7  6  2  0
  9 10  2  0
  9  8  1  0
 11  9  1  0
 12 11  1  0
 13 12  1  0
 15 14  1  6
 14 13  1  0
 15 16  1  0
 16  6  1  0
 17 15  1  0
 18 17  2  0
 19 20  1  0
 20 22  1  0
 21 20  2  0
 22 23  1  0
 24 23  1  6
 24 25  1  0
 25 17  1  0
 26 24  1  0
 26 28  1  0
 27 26  2  0
M  END
$$$$
