PRQ.pdb
     RDKit          3D

 28 28  0  0  1  0  0  0  0  0999 V2000
    8.5866  -14.9621   19.1158 N   0  0  0  0  0  0  0  0  0  0  0  0
    8.4837  -14.4268   17.7923 C   0  0  0  0  0  0  0  0  0  0  0  0
    7.8827  -13.0345   17.9102 C   0  0  0  0  0  0  0  0  0  0  0  0
    7.1513  -13.1722   19.2538 C   0  0  0  0  0  0  0  0  0  0  0  0
    8.1598  -13.9481   20.0436 C   0  0  1  0  0  0  0  0  0  0  0  0
    7.6184  -14.5188   21.2999 C   0  0  0  0  0  0  0  0  0  0  0  0
    7.1888  -13.7160   22.1657 O   0  0  0  0  0  0  0  0  0  0  0  0
    4.4689  -22.6201   23.4154 N   0  0  0  0  0  0  0  0  0  0  0  0
    5.3148  -22.2020   24.4821 C   0  0  0  0  0  0  0  0  0  0  0  0
    5.7727  -23.0337   25.3571 N   0  0  0  0  0  0  0  0  0  0  0  0
    5.6323  -20.8195   24.5370 N   0  0  0  0  0  0  0  0  0  0  0  0
    6.1292  -20.1494   23.3581 C   0  0  0  0  0  0  0  0  0  0  0  0
    6.3323  -18.6781   23.7039 C   0  0  0  0  0  0  0  0  0  0  0  0
    6.8262  -17.9043   22.5432 C   0  0  0  0  0  0  0  0  0  0  0  0
    6.9603  -16.4385   22.8240 C   0  0  2  0  0  0  0  0  0  0  0  0
    7.5613  -15.8971   21.5706 N   0  0  0  0  0  0  0  0  0  0  0  0
    7.8775  -16.1112   23.9414 C   0  0  0  0  0  0  0  0  0  0  0  0
    9.1368  -16.2952   23.8266 O   0  0  0  0  0  0  0  0  0  0  0  0
    6.4369  -22.7522   26.0878 N   0  0  0  0  0  0  0  0  0  0  0  0
    6.9342  -11.2598   27.4468 C   0  0  0  0  0  0  0  0  0  0  0  0
    7.1620  -11.4782   26.0685 O   0  0  0  0  0  0  0  0  0  0  0  0
    6.9145  -10.5878   25.1943 C   0  0  0  0  0  0  0  0  0  0  0  0
    7.7044  -12.7580   25.6079 C   0  0  0  0  0  0  0  0  0  0  0  0
    7.9255  -13.7987   26.6499 C   0  0  2  0  0  0  0  0  0  0  0  0
    8.3913  -15.1376   26.2224 N   0  0  0  0  0  0  0  0  0  0  0  0
    7.4532  -15.5870   25.1737 C   0  0  0  0  0  0  0  0  0  0  0  0
    8.6542  -16.1651   27.1986 O   0  0  0  0  0  0  0  0  0  0  0  0
    7.9362  -17.2072   27.2449 O   0  0  0  0  0  0  0  0  0  0  0  0
  1  5  1  0
  1  2  1  0
  2  3  1  0
  4  3  1  0
  5  4  1  0
  5  6  1  1
  7  6  2  0
  9 10  2  0
  9  8  1  0
 11  9  1  0
 12 11  1  0
 13 12  1  0
 15 14  1  6
 14 13  1  0
 15 16  1  0
 16  6  1  0
 17 15  1  0
 18 17  2  0
 19 20  1  0
 20 22  1  0
 21 20  2  0
 22 23  1  0
 24 23  1  6
 24 25  1  0
 25 17  1  0
 26 24  1  0
 26 28  1  0
 27 26  2  0
M  END
$$$$
