PRQ.pdb
     RDKit          3D

 28 28  0  0  1  0  0  0  0  0999 V2000
    9.1766  -19.9588   23.0923 N   0  0  0  0  0  0  0  0  0  0  0  0
    9.4551  -21.0678   22.2313 C   0  0  0  0  0  0  0  0  0  0  0  0
   10.8989  -20.9354   21.7715 C   0  0  0  0  0  0  0  0  0  0  0  0
   11.0991  -19.4233   21.9521 C   0  0  0  0  0  0  0  0  0  0  0  0
   10.3890  -19.1998   23.2516 C   0  0  1  0  0  0  0  0  0  0  0  0
   10.1301  -17.7709   23.5486 C   0  0  0  0  0  0  0  0  0  0  0  0
   11.1069  -17.0641   23.9023 O   0  0  0  0  0  0  0  0  0  0  0  0
    8.3977  -11.5459   19.3023 N   0  0  0  0  0  0  0  0  0  0  0  0
    8.7998  -12.8575   18.9200 C   0  0  0  0  0  0  0  0  0  0  0  0
    9.8310  -13.0649   18.1711 N   0  0  0  0  0  0  0  0  0  0  0  0
    8.0083  -13.9316   19.4048 N   0  0  0  0  0  0  0  0  0  0  0  0
    7.5582  -13.9295   20.7771 C   0  0  0  0  0  0  0  0  0  0  0  0
    7.9178  -15.2779   21.3920 C   0  0  0  0  0  0  0  0  0  0  0  0
    7.5149  -15.3581   22.8137 C   0  0  0  0  0  0  0  0  0  0  0  0
    8.6449  -15.7208   23.7286 C   0  0  2  0  0  0  0  0  0  0  0  0
    8.8620  -17.1714   23.4563 N   0  0  0  0  0  0  0  0  0  0  0  0
    8.3352  -15.5744   25.1707 C   0  0  0  0  0  0  0  0  0  0  0  0
    7.2917  -16.1155   25.6718 O   0  0  0  0  0  0  0  0  0  0  0  0
   10.1557  -14.0094   17.9328 N   0  0  0  0  0  0  0  0  0  0  0  0
   11.8785  -18.2743   28.7505 C   0  0  0  0  0  0  0  0  0  0  0  0
   11.4175  -16.9440   28.8809 O   0  0  0  0  0  0  0  0  0  0  0  0
   11.8808  -16.1527   29.7625 C   0  0  0  0  0  0  0  0  0  0  0  0
   10.3795  -16.4354   27.9819 C   0  0  0  0  0  0  0  0  0  0  0  0
    9.7820  -15.1180   28.3360 C   0  0  2  0  0  0  0  0  0  0  0  0
    8.7225  -14.5657   27.4615 N   0  0  0  0  0  0  0  0  0  0  0  0
    9.1371  -14.8573   26.0741 C   0  0  0  0  0  0  0  0  0  0  0  0
    8.2767  -13.2048   27.6251 O   0  0  0  0  0  0  0  0  0  0  0  0
    7.6744  -12.8476   28.6804 O   0  0  0  0  0  0  0  0  0  0  0  0
  1  5  1  0
  1  2  1  0
  2  3  1  0
  4  3  1  0
  5  4  1  0
  5  6  1  6
  7  6  2  0
  9 10  2  0
  9  8  1  0
 11  9  1  0
 12 11  1  0
 13 12  1  0
 15 14  1  6
 14 13  1  0
 15 16  1  0
 16  6  1  0
 17 15  1  0
 18 17  2  0
 19 20  1  0
 20 22  1  0
 21 20  2  0
 22 23  1  0
 24 23  1  1
 24 25  1  0
 25 17  1  0
 26 24  1  0
 26 28  1  0
 27 26  2  0
M  END
$$$$
