CMD.pdb
     RDKit          3D

 23 22  0  0  1  0  0  0  0  0999 V2000
    6.7099  -16.4367   20.1488 N   0  0  0  0  0  0  0  0  0  0  0  0
    7.5495  -15.2881   19.8403 C   0  0  1  0  0  0  0  0  0  0  0  0
    6.8140  -14.1652   19.1925 C   0  0  0  0  0  0  0  0  0  0  0  0
    7.9544  -12.8759   18.6783 S   0  0  0  0  0  0  0  0  0  0  0  0
    8.2448  -14.9112   21.1046 C   0  0  0  0  0  0  0  0  0  0  0  0
    9.4748  -14.5927   21.0468 O   0  0  0  0  0  0  0  0  0  0  0  0
    7.0589  -11.8329   28.2342 C   0  0  0  0  0  0  0  0  0  0  0  0
    6.4328  -12.5670   26.7133 S   0  0  0  0  0  0  0  0  0  0  0  0
    7.7470  -13.3729   25.7776 C   0  0  0  0  0  0  0  0  0  0  0  0
    7.1754  -13.8918   24.4708 C   0  0  0  0  0  0  0  0  0  0  0  0
    8.2778  -14.4187   23.5801 C   0  0  2  0  0  0  0  0  0  0  0  0
    7.6194  -14.8889   22.3603 N   0  0  0  0  0  0  0  0  0  0  0  0
    8.9340  -15.5532   24.2629 C   0  0  0  0  0  0  0  0  0  0  0  0
    8.3031  -16.6446   24.3405 O   0  0  0  0  0  0  0  0  0  0  0  0
   10.2231  -15.5015   24.8334 N   0  0  0  0  0  0  0  0  0  0  0  0
   10.8458  -16.7120   25.2890 C   0  0  1  0  0  0  0  0  0  0  0  0
   12.3670  -16.6484   25.1490 C   0  0  0  0  0  0  0  0  0  0  0  0
   12.7185  -17.4023   23.9241 C   0  0  0  0  0  0  0  0  0  0  0  0
   11.7686  -17.9257   23.2625 O   0  0  0  0  0  0  0  0  0  0  0  0
   10.4803  -17.0303   26.6923 C   0  0  0  0  0  0  0  0  0  0  0  0
   10.7979  -18.2804   27.2398 O   0  0  0  0  0  0  0  0  0  0  0  0
   14.0051  -17.5774   23.4510 O   0  0  0  0  0  0  0  0  0  0  0  0
    9.8857  -16.2083   27.4240 O   0  0  0  0  0  0  0  0  0  0  0  0
  2  1  1  1
  3  2  1  0
  3  4  1  0
  5  2  1  0
  5 12  1  0
  6  5  2  0
  7  8  1  0
  8  9  1  0
  9 10  1  0
 11 12  1  0
 11 13  1  0
 11 10  1  1
 13 14  2  0
 15 13  1  0
 15 16  1  0
 16 20  1  0
 16 17  1  1
 18 22  1  0
 18 17  1  0
 19 18  2  0
 20 23  2  0
 20 21  1  0
M  END
$$$$
