CMD.pdb
     RDKit          3D

 23 22  0  0  1  0  0  0  0  0999 V2000
    8.1236  -12.8914   19.4870 N   0  0  0  0  0  0  0  0  0  0  0  0
    7.2575  -13.7115   20.3215 C   0  0  1  0  0  0  0  0  0  0  0  0
    6.8854  -15.0142   19.7002 C   0  0  0  0  0  0  0  0  0  0  0  0
    8.3023  -16.1173   19.6484 S   0  0  0  0  0  0  0  0  0  0  0  0
    7.9309  -13.8391   21.6460 C   0  0  0  0  0  0  0  0  0  0  0  0
    9.1823  -13.6215   21.7120 O   0  0  0  0  0  0  0  0  0  0  0  0
    6.3011  -10.4493   27.0237 C   0  0  0  0  0  0  0  0  0  0  0  0
    6.9032  -12.1353   26.8267 S   0  0  0  0  0  0  0  0  0  0  0  0
    6.3644  -12.8517   25.2619 C   0  0  0  0  0  0  0  0  0  0  0  0
    6.8738  -14.2787   25.1712 C   0  0  0  0  0  0  0  0  0  0  0  0
    7.9428  -14.3953   24.1083 C   0  0  2  0  0  0  0  0  0  0  0  0
    7.2622  -14.1886   22.8289 N   0  0  0  0  0  0  0  0  0  0  0  0
    8.5105  -15.7588   24.1578 C   0  0  0  0  0  0  0  0  0  0  0  0
    7.9604  -16.6565   23.4602 O   0  0  0  0  0  0  0  0  0  0  0  0
    9.6310  -16.1272   24.9315 N   0  0  0  0  0  0  0  0  0  0  0  0
   10.0752  -17.4922   24.9308 C   0  0  1  0  0  0  0  0  0  0  0  0
   10.8826  -17.8197   23.6743 C   0  0  0  0  0  0  0  0  0  0  0  0
   12.0093  -16.8604   23.6244 C   0  0  0  0  0  0  0  0  0  0  0  0
   12.1091  -16.0202   24.5720 O   0  0  0  0  0  0  0  0  0  0  0  0
   10.8701  -17.8181   26.1416 C   0  0  0  0  0  0  0  0  0  0  0  0
   11.2822  -19.1352   26.3840 O   0  0  0  0  0  0  0  0  0  0  0  0
   12.9580  -16.8139   22.6205 O   0  0  0  0  0  0  0  0  0  0  0  0
   11.1951  -16.9436   26.9750 O   0  0  0  0  0  0  0  0  0  0  0  0
  2  1  1  6
  3  2  1  0
  3  4  1  0
  5  2  1  0
  5 12  1  0
  6  5  2  0
  7  8  1  0
  8  9  1  0
  9 10  1  0
 11 12  1  0
 11 13  1  0
 11 10  1  1
 13 14  2  0
 15 13  1  0
 15 16  1  0
 16 20  1  0
 16 17  1  6
 18 22  1  0
 18 17  1  0
 19 18  2  0
 20 23  2  0
 20 21  1  0
M  END
$$$$
