CMD.pdb
     RDKit          3D

 23 22  0  0  1  0  0  0  0  0999 V2000
    8.0605  -14.5966   19.2979 N   0  0  0  0  0  0  0  0  0  0  0  0
    7.1554  -14.3412   20.4090 C   0  0  1  0  0  0  0  0  0  0  0  0
    5.9318  -15.1920   20.3928 C   0  0  0  0  0  0  0  0  0  0  0  0
    6.3483  -16.9049   20.7388 S   0  0  0  0  0  0  0  0  0  0  0  0
    7.9624  -14.4594   21.6576 C   0  0  0  0  0  0  0  0  0  0  0  0
    9.1857  -14.7932   21.5580 O   0  0  0  0  0  0  0  0  0  0  0  0
    6.6008  -12.2989   27.8203 C   0  0  0  0  0  0  0  0  0  0  0  0
    6.6012  -11.2686   26.3430 S   0  0  0  0  0  0  0  0  0  0  0  0
    7.4263  -12.0884   24.9648 C   0  0  0  0  0  0  0  0  0  0  0  0
    7.4621  -13.5827   25.2294 C   0  0  0  0  0  0  0  0  0  0  0  0
    8.2590  -14.2934   24.1589 C   0  0  2  0  0  0  0  0  0  0  0  0
    7.4486  -14.2248   22.9419 N   0  0  0  0  0  0  0  0  0  0  0  0
    8.4372  -15.7039   24.5618 C   0  0  0  0  0  0  0  0  0  0  0  0
    7.5262  -16.5262   24.2632 O   0  0  0  0  0  0  0  0  0  0  0  0
    9.5609  -16.1976   25.2572 N   0  0  0  0  0  0  0  0  0  0  0  0
   10.0787  -17.4973   24.9359 C   0  0  1  0  0  0  0  0  0  0  0  0
   10.4595  -17.6011   23.4587 C   0  0  0  0  0  0  0  0  0  0  0  0
   11.0613  -18.9395   23.2622 C   0  0  0  0  0  0  0  0  0  0  0  0
   10.4048  -19.9461   23.6743 O   0  0  0  0  0  0  0  0  0  0  0  0
   11.2428  -17.8565   25.7844 C   0  0  0  0  0  0  0  0  0  0  0  0
   12.0114  -16.8547   26.3918 O   0  0  0  0  0  0  0  0  0  0  0  0
   12.2854  -19.1707   22.6640 O   0  0  0  0  0  0  0  0  0  0  0  0
   11.5742  -19.0461   25.9841 O   0  0  0  0  0  0  0  0  0  0  0  0
  2  1  1  6
  3  2  1  0
  3  4  1  0
  5  2  1  0
  5 12  1  0
  6  5  2  0
  7  8  1  0
  8  9  1  0
  9 10  1  0
 11 12  1  0
 11 13  1  0
 11 10  1  1
 13 14  2  0
 15 13  1  0
 15 16  1  0
 16 20  1  0
 16 17  1  6
 18 22  1  0
 18 17  1  0
 19 18  2  0
 20 23  2  0
 20 21  1  0
M  END
$$$$
