CMD.pdb
     RDKit          3D

 23 22  0  0  1  0  0  0  0  0999 V2000
    8.3526  -13.5345   19.4266 N   0  0  0  0  0  0  0  0  0  0  0  0
    7.6982  -14.5110   20.2854 C   0  0  1  0  0  0  0  0  0  0  0  0
    7.6600  -15.8851   19.7093 C   0  0  0  0  0  0  0  0  0  0  0  0
    6.4995  -15.9646   18.3404 S   0  0  0  0  0  0  0  0  0  0  0  0
    8.3641  -14.4277   21.6172 C   0  0  0  0  0  0  0  0  0  0  0  0
    9.6334  -14.3579   21.6557 O   0  0  0  0  0  0  0  0  0  0  0  0
    6.4805  -12.2469   27.6841 C   0  0  0  0  0  0  0  0  0  0  0  0
    6.1398  -11.6179   26.0312 S   0  0  0  0  0  0  0  0  0  0  0  0
    7.2229  -12.3698   24.8008 C   0  0  0  0  0  0  0  0  0  0  0  0
    7.3870  -13.8440   25.1230 C   0  0  0  0  0  0  0  0  0  0  0  0
    8.3294  -14.5014   24.1402 C   0  0  2  0  0  0  0  0  0  0  0  0
    7.6692  -14.4235   22.8361 N   0  0  0  0  0  0  0  0  0  0  0  0
    8.5038  -15.9166   24.5284 C   0  0  0  0  0  0  0  0  0  0  0  0
    7.9893  -16.8025   23.7897 O   0  0  0  0  0  0  0  0  0  0  0  0
    9.2109  -16.3477   25.6703 N   0  0  0  0  0  0  0  0  0  0  0  0
   10.1610  -17.4175   25.5539 C   0  0  1  0  0  0  0  0  0  0  0  0
   11.2195  -17.1159   24.4926 C   0  0  0  0  0  0  0  0  0  0  0  0
   12.1503  -18.2672   24.4735 C   0  0  0  0  0  0  0  0  0  0  0  0
   11.6579  -19.4184   24.2586 O   0  0  0  0  0  0  0  0  0  0  0  0
   10.8175  -17.7206   26.8505 C   0  0  0  0  0  0  0  0  0  0  0  0
   10.9163  -19.0437   27.3011 O   0  0  0  0  0  0  0  0  0  0  0  0
   13.5148  -18.1780   24.6735 O   0  0  0  0  0  0  0  0  0  0  0  0
   11.2977  -16.8213   27.5754 O   0  0  0  0  0  0  0  0  0  0  0  0
  2  1  1  6
  3  2  1  0
  3  4  1  0
  5  2  1  0
  5 12  1  0
  6  5  2  0
  7  8  1  0
  8  9  1  0
  9 10  1  0
 11 12  1  0
 11 13  1  0
 11 10  1  1
 13 14  2  0
 15 13  1  0
 15 16  1  0
 16 20  1  0
 16 17  1  6
 18 22  1  0
 18 17  1  0
 19 18  2  0
 20 23  2  0
 20 21  1  0
M  END
$$$$
