CMD.pdb
     RDKit          3D

 23 22  0  0  1  0  0  0  0  0999 V2000
    7.4382  -14.7006   19.6690 N   0  0  0  0  0  0  0  0  0  0  0  0
    6.8556  -15.2792   20.8710 C   0  0  1  0  0  0  0  0  0  0  0  0
    6.5453  -16.7317   20.7470 C   0  0  0  0  0  0  0  0  0  0  0  0
    8.0555  -17.6871   20.5627 S   0  0  0  0  0  0  0  0  0  0  0  0
    7.7745  -14.9471   21.9977 C   0  0  0  0  0  0  0  0  0  0  0  0
    8.9583  -14.5723   21.7225 O   0  0  0  0  0  0  0  0  0  0  0  0
    6.3013  -10.2655   26.7904 C   0  0  0  0  0  0  0  0  0  0  0  0
    6.4236  -12.0618   26.8371 S   0  0  0  0  0  0  0  0  0  0  0  0
    7.3835  -12.6959   25.4483 C   0  0  0  0  0  0  0  0  0  0  0  0
    7.5008  -14.2038   25.5772 C   0  0  0  0  0  0  0  0  0  0  0  0
    8.3372  -14.7702   24.4521 C   0  0  2  0  0  0  0  0  0  0  0  0
    7.4086  -15.0260   23.3499 N   0  0  0  0  0  0  0  0  0  0  0  0
    8.9378  -16.0422   24.9051 C   0  0  0  0  0  0  0  0  0  0  0  0
    8.1940  -17.0610   24.9668 O   0  0  0  0  0  0  0  0  0  0  0  0
   10.2910  -16.1978   25.2718 N   0  0  0  0  0  0  0  0  0  0  0  0
   10.7571  -17.4730   25.7379 C   0  0  1  0  0  0  0  0  0  0  0  0
   12.2795  -17.5823   25.6471 C   0  0  0  0  0  0  0  0  0  0  0  0
   12.6098  -17.8220   24.2238 C   0  0  0  0  0  0  0  0  0  0  0  0
   11.6445  -18.0063   23.4188 O   0  0  0  0  0  0  0  0  0  0  0  0
   10.3123  -17.7531   27.1263 C   0  0  0  0  0  0  0  0  0  0  0  0
   10.4450  -19.0394   27.6658 O   0  0  0  0  0  0  0  0  0  0  0  0
   13.8922  -17.8603   23.7103 O   0  0  0  0  0  0  0  0  0  0  0  0
    9.8112  -16.8661   27.8524 O   0  0  0  0  0  0  0  0  0  0  0  0
  2  1  1  6
  3  2  1  0
  3  4  1  0
  5  2  1  0
  5 12  1  0
  6  5  2  0
  7  8  1  0
  8  9  1  0
  9 10  1  0
 11 12  1  0
 11 13  1  0
 11 10  1  1
 13 14  2  0
 15 13  1  0
 15 16  1  0
 16 20  1  0
 16 17  1  1
 18 22  1  0
 18 17  1  0
 19 18  2  0
 20 23  2  0
 20 21  1  0
M  END
$$$$
