CMD.pdb
     RDKit          3D

 23 22  0  0  1  0  0  0  0  0999 V2000
    7.7327  -13.9155   19.8400 N   0  0  0  0  0  0  0  0  0  0  0  0
    7.5546  -15.1241   20.6318 C   0  0  1  0  0  0  0  0  0  0  0  0
    8.0819  -16.3537   19.9749 C   0  0  0  0  0  0  0  0  0  0  0  0
    7.6426  -17.8148   20.9233 S   0  0  0  0  0  0  0  0  0  0  0  0
    8.1445  -14.8503   21.9739 C   0  0  0  0  0  0  0  0  0  0  0  0
    9.3247  -14.3797   22.0314 O   0  0  0  0  0  0  0  0  0  0  0  0
    6.7971  -10.5065   26.5067 C   0  0  0  0  0  0  0  0  0  0  0  0
    7.3965  -12.2049   26.4934 S   0  0  0  0  0  0  0  0  0  0  0  0
    6.4335  -13.2376   25.3718 C   0  0  0  0  0  0  0  0  0  0  0  0
    6.9389  -14.6662   25.4600 C   0  0  0  0  0  0  0  0  0  0  0  0
    8.0838  -14.8858   24.4972 C   0  0  2  0  0  0  0  0  0  0  0  0
    7.4715  -15.0842   23.1825 N   0  0  0  0  0  0  0  0  0  0  0  0
    8.8107  -16.1079   24.8995 C   0  0  0  0  0  0  0  0  0  0  0  0
    8.1951  -17.2094   24.8462 O   0  0  0  0  0  0  0  0  0  0  0  0
   10.1514  -16.1290   25.3379 N   0  0  0  0  0  0  0  0  0  0  0  0
   10.7402  -17.3687   25.7588 C   0  0  1  0  0  0  0  0  0  0  0  0
   12.2592  -17.3567   25.5853 C   0  0  0  0  0  0  0  0  0  0  0  0
   12.5274  -17.4512   24.1322 C   0  0  0  0  0  0  0  0  0  0  0  0
   11.7151  -18.1267   23.4267 O   0  0  0  0  0  0  0  0  0  0  0  0
   10.3946  -17.6987   27.1644 C   0  0  0  0  0  0  0  0  0  0  0  0
   10.7785  -18.9276   27.7174 O   0  0  0  0  0  0  0  0  0  0  0  0
   13.5980  -16.8581   23.4904 O   0  0  0  0  0  0  0  0  0  0  0  0
    9.7589  -16.9054   27.8933 O   0  0  0  0  0  0  0  0  0  0  0  0
  2  1  1  6
  3  2  1  0
  3  4  1  0
  5  2  1  0
  5 12  1  0
  6  5  2  0
  7  8  1  0
  8  9  1  0
  9 10  1  0
 11 12  1  0
 11 13  1  0
 11 10  1  1
 13 14  2  0
 15 13  1  0
 15 16  1  0
 16 20  1  0
 16 17  1  1
 18 22  1  0
 18 17  1  0
 19 18  2  0
 20 23  2  0
 20 21  1  0
M  END
$$$$
