CMD.pdb
     RDKit          3D

 23 22  0  0  1  0  0  0  0  0999 V2000
    8.7839  -13.2176   18.9750 N   0  0  0  0  0  0  0  0  0  0  0  0
    7.6870  -13.4167   19.9111 C   0  0  1  0  0  0  0  0  0  0  0  0
    6.7142  -14.4608   19.4809 C   0  0  0  0  0  0  0  0  0  0  0  0
    7.4823  -16.0847   19.4955 S   0  0  0  0  0  0  0  0  0  0  0  0
    8.3011  -13.6701   21.2463 C   0  0  0  0  0  0  0  0  0  0  0  0
    9.5628  -13.8156   21.3141 O   0  0  0  0  0  0  0  0  0  0  0  0
    5.5431  -11.8974   26.8702 C   0  0  0  0  0  0  0  0  0  0  0  0
    7.2877  -12.1448   27.2434 S   0  0  0  0  0  0  0  0  0  0  0  0
    8.0407  -13.3413   26.1239 C   0  0  0  0  0  0  0  0  0  0  0  0
    7.5142  -13.1031   24.7203 C   0  0  0  0  0  0  0  0  0  0  0  0
    8.1702  -14.0477   23.7387 C   0  0  2  0  0  0  0  0  0  0  0  0
    7.5651  -13.7597   22.4374 N   0  0  0  0  0  0  0  0  0  0  0  0
    7.8577  -15.4355   24.1390 C   0  0  0  0  0  0  0  0  0  0  0  0
    6.8571  -15.6270   24.8855 O   0  0  0  0  0  0  0  0  0  0  0  0
    8.6016  -16.5659   23.7404 N   0  0  0  0  0  0  0  0  0  0  0  0
    9.8148  -16.8964   24.4328 C   0  0  1  0  0  0  0  0  0  0  0  0
   10.9222  -15.8834   24.1408 C   0  0  0  0  0  0  0  0  0  0  0  0
   11.9305  -16.5761   23.3067 C   0  0  0  0  0  0  0  0  0  0  0  0
   11.5305  -17.1208   22.2310 O   0  0  0  0  0  0  0  0  0  0  0  0
    9.6052  -17.0077   25.8983 C   0  0  0  0  0  0  0  0  0  0  0  0
   10.3378  -17.9366   26.6492 O   0  0  0  0  0  0  0  0  0  0  0  0
   13.2740  -16.6728   23.6159 O   0  0  0  0  0  0  0  0  0  0  0  0
    8.7810  -16.2887   26.5054 O   0  0  0  0  0  0  0  0  0  0  0  0
  2  1  1  6
  3  2  1  0
  3  4  1  0
  5  2  1  0
  5 12  1  0
  6  5  2  0
  7  8  1  0
  8  9  1  0
  9 10  1  0
 11 12  1  0
 11 13  1  0
 11 10  1  1
 13 14  2  0
 15 13  1  0
 15 16  1  0
 16 20  1  0
 16 17  1  1
 18 22  1  0
 18 17  1  0
 19 18  2  0
 20 23  2  0
 20 21  1  0
M  END
$$$$
