CMD.pdb
     RDKit          3D

 23 22  0  0  1  0  0  0  0  0999 V2000
    7.7320  -16.6943   19.3127 N   0  0  0  0  0  0  0  0  0  0  0  0
    7.0547  -16.7139   20.6011 C   0  0  1  0  0  0  0  0  0  0  0  0
    6.8723  -18.0830   21.1613 C   0  0  0  0  0  0  0  0  0  0  0  0
    8.3902  -18.6585   21.9308 S   0  0  0  0  0  0  0  0  0  0  0  0
    7.8039  -15.7852   21.4956 C   0  0  0  0  0  0  0  0  0  0  0  0
    8.9977  -15.4764   21.1838 O   0  0  0  0  0  0  0  0  0  0  0  0
    6.2984  -12.7103   28.0096 C   0  0  0  0  0  0  0  0  0  0  0  0
    6.2466  -11.9296   26.3873 S   0  0  0  0  0  0  0  0  0  0  0  0
    7.5258  -12.5833   25.2972 C   0  0  0  0  0  0  0  0  0  0  0  0
    6.9090  -13.6257   24.3823 C   0  0  0  0  0  0  0  0  0  0  0  0
    7.9583  -14.2209   23.4708 C   0  0  2  0  0  0  0  0  0  0  0  0
    7.2673  -15.2308   22.6675 N   0  0  0  0  0  0  0  0  0  0  0  0
    8.9942  -14.8674   24.3031 C   0  0  0  0  0  0  0  0  0  0  0  0
    9.7407  -14.1270   25.0030 O   0  0  0  0  0  0  0  0  0  0  0  0
    9.2053  -16.2604   24.3723 N   0  0  0  0  0  0  0  0  0  0  0  0
   10.2184  -16.7815   25.2457 C   0  0  1  0  0  0  0  0  0  0  0  0
    9.8701  -18.1879   25.7341 C   0  0  0  0  0  0  0  0  0  0  0  0
   10.3529  -18.2908   27.1300 C   0  0  0  0  0  0  0  0  0  0  0  0
   11.0837  -17.3497   27.5707 O   0  0  0  0  0  0  0  0  0  0  0  0
   11.5566  -16.7866   24.6031 C   0  0  0  0  0  0  0  0  0  0  0  0
   12.6879  -16.3775   25.3215 O   0  0  0  0  0  0  0  0  0  0  0  0
   10.0659  -19.3373   27.9857 O   0  0  0  0  0  0  0  0  0  0  0  0
   11.7200  -17.1498   23.4172 O   0  0  0  0  0  0  0  0  0  0  0  0
  2  1  1  6
  3  2  1  0
  3  4  1  0
  5  2  1  0
  5 12  1  0
  6  5  2  0
  7  8  1  0
  8  9  1  0
  9 10  1  0
 11 12  1  0
 11 13  1  0
 11 10  1  1
 13 14  2  0
 15 13  1  0
 15 16  1  0
 16 20  1  0
 16 17  1  6
 18 22  1  0
 18 17  1  0
 19 18  2  0
 20 23  2  0
 20 21  1  0
M  END
$$$$
