CMD.pdb
     RDKit          3D

 23 22  0  0  1  0  0  0  0  0999 V2000
    6.3178  -17.4493   21.0774 N   0  0  0  0  0  0  0  0  0  0  0  0
    6.2202  -17.4702   22.5297 C   0  0  1  0  0  0  0  0  0  0  0  0
    6.2900  -18.8391   23.1152 C   0  0  0  0  0  0  0  0  0  0  0  0
    6.0631  -18.7772   24.8962 S   0  0  0  0  0  0  0  0  0  0  0  0
    7.2608  -16.5342   23.0447 C   0  0  0  0  0  0  0  0  0  0  0  0
    8.3368  -16.4006   22.3797 O   0  0  0  0  0  0  0  0  0  0  0  0
    7.0771  -11.1562   27.3157 C   0  0  0  0  0  0  0  0  0  0  0  0
    5.7419  -12.1419   26.6158 S   0  0  0  0  0  0  0  0  0  0  0  0
    6.3352  -13.2165   25.2947 C   0  0  0  0  0  0  0  0  0  0  0  0
    7.4738  -14.0685   25.8255 C   0  0  0  0  0  0  0  0  0  0  0  0
    8.1291  -14.8400   24.7023 C   0  0  2  0  0  0  0  0  0  0  0  0
    7.1226  -15.7902   24.2261 N   0  0  0  0  0  0  0  0  0  0  0  0
    9.2900  -15.5734   25.2484 C   0  0  0  0  0  0  0  0  0  0  0  0
    9.1885  -16.0682   26.4060 O   0  0  0  0  0  0  0  0  0  0  0  0
   10.5076  -15.7622   24.5615 N   0  0  0  0  0  0  0  0  0  0  0  0
   11.4517  -16.7295   25.0447 C   0  0  1  0  0  0  0  0  0  0  0  0
   10.8200  -18.1161   25.1721 C   0  0  0  0  0  0  0  0  0  0  0  0
   11.8826  -19.0312   25.6473 C   0  0  0  0  0  0  0  0  0  0  0  0
   12.4310  -18.7674   26.7624 O   0  0  0  0  0  0  0  0  0  0  0  0
   12.6610  -16.8019   24.1867 C   0  0  0  0  0  0  0  0  0  0  0  0
   12.5378  -16.8255   22.7911 O   0  0  0  0  0  0  0  0  0  0  0  0
   12.3198  -20.1500   24.9638 O   0  0  0  0  0  0  0  0  0  0  0  0
   13.8140  -16.8440   24.6702 O   0  0  0  0  0  0  0  0  0  0  0  0
  2  1  1  6
  3  2  1  0
  3  4  1  0
  5  2  1  0
  5 12  1  0
  6  5  2  0
  7  8  1  0
  8  9  1  0
  9 10  1  0
 11 12  1  0
 11 13  1  0
 11 10  1  1
 13 14  2  0
 15 13  1  0
 15 16  1  0
 16 20  1  0
 16 17  1  6
 18 22  1  0
 18 17  1  0
 19 18  2  0
 20 23  2  0
 20 21  1  0
M  END
$$$$
