CMD.pdb
     RDKit          3D

 23 22  0  0  1  0  0  0  0  0999 V2000
    8.6021  -14.3428   19.1641 N   0  0  0  0  0  0  0  0  0  0  0  0
    7.7059  -14.9667   20.1267 C   0  0  1  0  0  0  0  0  0  0  0  0
    7.3428  -16.3712   19.7844 C   0  0  0  0  0  0  0  0  0  0  0  0
    6.3432  -17.1010   21.0864 S   0  0  0  0  0  0  0  0  0  0  0  0
    8.3392  -14.8115   21.4680 C   0  0  0  0  0  0  0  0  0  0  0  0
    9.6023  -14.9295   21.5579 O   0  0  0  0  0  0  0  0  0  0  0  0
    6.1676  -10.9595   26.0717 C   0  0  0  0  0  0  0  0  0  0  0  0
    6.8180  -12.2766   27.1140 S   0  0  0  0  0  0  0  0  0  0  0  0
    7.9010  -13.3806   26.1865 C   0  0  0  0  0  0  0  0  0  0  0  0
    7.3358  -13.5680   24.7902 C   0  0  0  0  0  0  0  0  0  0  0  0
    8.2403  -14.4553   23.9650 C   0  0  2  0  0  0  0  0  0  0  0  0
    7.6197  -14.5433   22.6423 N   0  0  0  0  0  0  0  0  0  0  0  0
    8.2824  -15.7949   24.5875 C   0  0  0  0  0  0  0  0  0  0  0  0
    7.6282  -16.7254   24.0384 O   0  0  0  0  0  0  0  0  0  0  0  0
    9.0084  -16.1077   25.7558 N   0  0  0  0  0  0  0  0  0  0  0  0
    9.9268  -17.2110   25.7457 C   0  0  1  0  0  0  0  0  0  0  0  0
   10.9335  -17.0936   24.6009 C   0  0  0  0  0  0  0  0  0  0  0  0
   11.8282  -18.2698   24.6922 C   0  0  0  0  0  0  0  0  0  0  0  0
   11.3017  -19.3881   24.9858 O   0  0  0  0  0  0  0  0  0  0  0  0
   10.6446  -17.3477   27.0380 C   0  0  0  0  0  0  0  0  0  0  0  0
   10.5449  -18.5317   27.7808 O   0  0  0  0  0  0  0  0  0  0  0  0
   13.1936  -18.2369   24.4817 O   0  0  0  0  0  0  0  0  0  0  0  0
   11.3521  -16.4267   27.5028 O   0  0  0  0  0  0  0  0  0  0  0  0
  2  1  1  6
  3  2  1  0
  3  4  1  0
  5  2  1  0
  5 12  1  0
  6  5  2  0
  7  8  1  0
  8  9  1  0
  9 10  1  0
 11 12  1  0
 11 13  1  0
 11 10  1  1
 13 14  2  0
 15 13  1  0
 15 16  1  0
 16 20  1  0
 16 17  1  6
 18 22  1  0
 18 17  1  0
 19 18  2  0
 20 23  2  0
 20 21  1  0
M  END
$$$$
