CMD.pdb
     RDKit          3D

 23 22  0  0  1  0  0  0  0  0999 V2000
    8.0732  -12.8872   19.2823 N   0  0  0  0  0  0  0  0  0  0  0  0
    7.1726  -13.5639   20.2043 C   0  0  1  0  0  0  0  0  0  0  0  0
    6.5274  -14.7780   19.6289 C   0  0  0  0  0  0  0  0  0  0  0  0
    7.7339  -16.0907   19.4086 S   0  0  0  0  0  0  0  0  0  0  0  0
    7.9472  -13.8199   21.4527 C   0  0  0  0  0  0  0  0  0  0  0  0
    9.2170  -13.7754   21.3966 O   0  0  0  0  0  0  0  0  0  0  0  0
    5.8053  -10.6212   27.3552 C   0  0  0  0  0  0  0  0  0  0  0  0
    5.9114  -12.3390   26.8243 S   0  0  0  0  0  0  0  0  0  0  0  0
    7.0511  -12.5347   25.4405 C   0  0  0  0  0  0  0  0  0  0  0  0
    7.1078  -14.0008   25.0515 C   0  0  0  0  0  0  0  0  0  0  0  0
    8.1098  -14.2177   23.9401 C   0  0  2  0  0  0  0  0  0  0  0  0
    7.3546  -14.1102   22.6909 N   0  0  0  0  0  0  0  0  0  0  0  0
    8.6705  -15.5789   24.0696 C   0  0  0  0  0  0  0  0  0  0  0  0
    7.9920  -16.5454   23.6217 O   0  0  0  0  0  0  0  0  0  0  0  0
    9.9178  -15.8736   24.6589 N   0  0  0  0  0  0  0  0  0  0  0  0
   10.3652  -17.2358   24.7278 C   0  0  1  0  0  0  0  0  0  0  0  0
   11.7580  -17.4013   24.1190 C   0  0  0  0  0  0  0  0  0  0  0  0
   12.1089  -18.8354   24.2303 C   0  0  0  0  0  0  0  0  0  0  0  0
   11.1568  -19.6764   24.2231 O   0  0  0  0  0  0  0  0  0  0  0  0
   10.3571  -17.7532   26.1193 C   0  0  0  0  0  0  0  0  0  0  0  0
   10.2794  -19.1312   26.3612 O   0  0  0  0  0  0  0  0  0  0  0  0
   13.3972  -19.3229   24.3423 O   0  0  0  0  0  0  0  0  0  0  0  0
   10.4180  -16.9909   27.1092 O   0  0  0  0  0  0  0  0  0  0  0  0
  2  1  1  6
  3  2  1  0
  3  4  1  0
  5  2  1  0
  5 12  1  0
  6  5  2  0
  7  8  1  0
  8  9  1  0
  9 10  1  0
 11 12  1  0
 11 13  1  0
 11 10  1  1
 13 14  2  0
 15 13  1  0
 15 16  1  0
 16 20  1  0
 16 17  1  1
 18 22  1  0
 18 17  1  0
 19 18  2  0
 20 23  2  0
 20 21  1  0
M  END
$$$$
