CMD.pdb
     RDKit          3D

 23 22  0  0  1  0  0  0  0  0999 V2000
    8.6116  -14.9731   19.2000 N   0  0  0  0  0  0  0  0  0  0  0  0
    7.5580  -14.8987   20.2018 C   0  0  1  0  0  0  0  0  0  0  0  0
    6.5916  -16.0317   20.1400 C   0  0  0  0  0  0  0  0  0  0  0  0
    7.4152  -17.5857   20.5057 S   0  0  0  0  0  0  0  0  0  0  0  0
    8.2309  -14.7442   21.5237 C   0  0  0  0  0  0  0  0  0  0  0  0
    9.4598  -15.0585   21.6174 O   0  0  0  0  0  0  0  0  0  0  0  0
    6.0422  -10.9935   26.4993 C   0  0  0  0  0  0  0  0  0  0  0  0
    6.6248  -12.4818   27.3297 S   0  0  0  0  0  0  0  0  0  0  0  0
    7.7950  -13.3956   26.3061 C   0  0  0  0  0  0  0  0  0  0  0  0
    7.2466  -13.4898   24.8939 C   0  0  0  0  0  0  0  0  0  0  0  0
    8.2288  -14.1977   23.9881 C   0  0  2  0  0  0  0  0  0  0  0  0
    7.5845  -14.2718   22.6758 N   0  0  0  0  0  0  0  0  0  0  0  0
    8.4549  -15.5610   24.5116 C   0  0  0  0  0  0  0  0  0  0  0  0
    7.9389  -16.5299   23.8869 O   0  0  0  0  0  0  0  0  0  0  0  0
    9.2132  -15.8559   25.6639 N   0  0  0  0  0  0  0  0  0  0  0  0
    9.7634  -17.1709   25.8332 C   0  0  1  0  0  0  0  0  0  0  0  0
   10.5872  -17.5961   24.6174 C   0  0  0  0  0  0  0  0  0  0  0  0
   11.2033  -18.9008   24.9497 C   0  0  0  0  0  0  0  0  0  0  0  0
   12.3042  -18.8873   25.5834 O   0  0  0  0  0  0  0  0  0  0  0  0
   10.5880  -17.2737   27.0635 C   0  0  0  0  0  0  0  0  0  0  0  0
   10.8969  -18.5284   27.6052 O   0  0  0  0  0  0  0  0  0  0  0  0
   10.6664  -20.1305   24.6187 O   0  0  0  0  0  0  0  0  0  0  0  0
   11.0290  -16.2612   27.6510 O   0  0  0  0  0  0  0  0  0  0  0  0
  2  1  1  6
  3  2  1  0
  3  4  1  0
  5  2  1  0
  5 12  1  0
  6  5  2  0
  7  8  1  0
  8  9  1  0
  9 10  1  0
 11 12  1  0
 11 13  1  0
 11 10  1  1
 13 14  2  0
 15 13  1  0
 15 16  1  0
 16 20  1  0
 16 17  1  6
 18 22  1  0
 18 17  1  0
 19 18  2  0
 20 23  2  0
 20 21  1  0
M  END
$$$$
