CMD.pdb
     RDKit          3D

 23 22  0  0  1  0  0  0  0  0999 V2000
    8.8503  -15.3516   19.4518 N   0  0  0  0  0  0  0  0  0  0  0  0
    8.1720  -16.0351   20.5435 C   0  0  1  0  0  0  0  0  0  0  0  0
    8.3803  -17.5109   20.5479 C   0  0  0  0  0  0  0  0  0  0  0  0
    8.7109  -18.1075   18.8860 S   0  0  0  0  0  0  0  0  0  0  0  0
    8.5929  -15.3572   21.8035 C   0  0  0  0  0  0  0  0  0  0  0  0
    9.7281  -14.7842   21.8320 O   0  0  0  0  0  0  0  0  0  0  0  0
    5.8195  -10.7432   26.5257 C   0  0  0  0  0  0  0  0  0  0  0  0
    6.7005  -12.3137   26.4901 S   0  0  0  0  0  0  0  0  0  0  0  0
    6.3015  -13.2628   25.0094 C   0  0  0  0  0  0  0  0  0  0  0  0
    6.9974  -14.6097   25.0843 C   0  0  0  0  0  0  0  0  0  0  0  0
    8.2171  -14.6285   24.1908 C   0  0  2  0  0  0  0  0  0  0  0  0
    7.8073  -15.3158   22.9652 N   0  0  0  0  0  0  0  0  0  0  0  0
    9.2829  -15.3997   24.8639 C   0  0  0  0  0  0  0  0  0  0  0  0
    9.6545  -15.0228   26.0106 O   0  0  0  0  0  0  0  0  0  0  0  0
    9.9142  -16.5343   24.3125 N   0  0  0  0  0  0  0  0  0  0  0  0
   10.8032  -17.3158   25.1247 C   0  0  1  0  0  0  0  0  0  0  0  0
   10.1052  -17.8355   26.3818 C   0  0  0  0  0  0  0  0  0  0  0  0
   11.1268  -18.5567   27.1745 C   0  0  0  0  0  0  0  0  0  0  0  0
   12.3260  -18.5252   26.7566 O   0  0  0  0  0  0  0  0  0  0  0  0
   11.3935  -18.4493   24.3692 C   0  0  0  0  0  0  0  0  0  0  0  0
   12.7840  -18.6112   24.3085 O   0  0  0  0  0  0  0  0  0  0  0  0
   10.8680  -19.2615   28.3348 O   0  0  0  0  0  0  0  0  0  0  0  0
   10.6832  -19.2864   23.7696 O   0  0  0  0  0  0  0  0  0  0  0  0
  2  1  1  6
  3  2  1  0
  3  4  1  0
  5  2  1  0
  5 12  1  0
  6  5  2  0
  7  8  1  0
  8  9  1  0
  9 10  1  0
 11 12  1  0
 11 13  1  0
 11 10  1  1
 13 14  2  0
 15 13  1  0
 15 16  1  0
 16 20  1  0
 16 17  1  1
 18 22  1  0
 18 17  1  0
 19 18  2  0
 20 23  2  0
 20 21  1  0
M  END
$$$$
