ANA.pdb
     RDKit          3D

 19 18  0  0  1  0  0  0  0  0999 V2000
   37.0766   -8.2777  -14.7684 C   0  0  0  0  0  0  0  0  0  0  0  0
   36.4071   -6.9444  -14.9596 C   0  0  2  0  0  0  0  0  0  0  0  0
   35.7062   -6.6252  -13.7112 N   0  0  0  0  0  0  0  0  0  0  0  0
   35.3832   -7.0486  -16.0322 C   0  0  0  0  0  0  0  0  0  0  0  0
   35.7563   -7.2985  -17.2012 O   0  0  0  0  0  0  0  0  0  0  0  0
   30.7555   -7.4583  -18.5426 N   0  0  0  0  0  0  0  0  0  0  0  0
   30.8136   -8.1017  -17.2845 C   0  0  0  0  0  0  0  0  0  0  0  0
   29.9236   -8.9403  -16.9907 O   0  0  0  0  0  0  0  0  0  0  0  0
   31.8592   -7.8448  -16.2983 C   0  0  0  0  0  0  0  0  0  0  0  0
   32.9716   -6.9514  -16.7414 C   0  0  2  0  0  0  0  0  0  0  0  0
   33.9893   -6.8709  -15.7608 N   0  0  0  0  0  0  0  0  0  0  0  0
   32.4793   -5.6488  -17.2337 C   0  0  0  0  0  0  0  0  0  0  0  0
   31.9695   -4.8847  -16.3669 O   0  0  0  0  0  0  0  0  0  0  0  0
   32.6497   -3.5946  -20.4107 C   0  0  0  0  0  0  0  0  0  0  0  0
   32.2121   -3.8867  -19.0209 C   0  0  2  0  0  0  0  0  0  0  0  0
   32.5456   -5.2248  -18.5788 N   0  0  0  0  0  0  0  0  0  0  0  0
   30.7568   -3.6115  -18.8778 C   0  0  0  0  0  0  0  0  0  0  0  0
   30.4069   -2.4321  -18.6423 O   0  0  0  0  0  0  0  0  0  0  0  0
   29.8059   -4.5863  -18.9928 O   0  0  0  0  0  0  0  0  0  0  0  0
  2  1  1  1
  2  3  1  0
  2  4  1  0
  4  5  2  0
  7  6  1  0
  7  9  1  0
  8  7  2  0
 10  9  1  1
 11  4  1  0
 11 10  1  0
 12 10  1  0
 12 16  1  0
 13 12  2  0
 15 16  1  0
 15 14  1  6
 17 15  1  0
 17 19  1  0
 18 17  2  0
M  END
$$$$
