ANA.pdb
     RDKit          3D

 19 18  0  0  1  0  0  0  0  0999 V2000
   22.2959  -10.4387  -20.3151 C   0  0  0  0  0  0  0  0  0  0  0  0
   21.4266  -11.0248  -19.2365 C   0  0  2  0  0  0  0  0  0  0  0  0
   20.3435  -11.7587  -19.9000 N   0  0  0  0  0  0  0  0  0  0  0  0
   20.8049   -9.9302  -18.4459 C   0  0  0  0  0  0  0  0  0  0  0  0
   19.8653   -9.2766  -18.9539 O   0  0  0  0  0  0  0  0  0  0  0  0
   19.2750   -6.9343  -14.3944 N   0  0  0  0  0  0  0  0  0  0  0  0
   19.6994   -8.2313  -14.0230 C   0  0  0  0  0  0  0  0  0  0  0  0
   19.5090   -8.6163  -12.8410 O   0  0  0  0  0  0  0  0  0  0  0  0
   20.3522   -9.1574  -14.9439 C   0  0  0  0  0  0  0  0  0  0  0  0
   20.6608   -8.6200  -16.3032 C   0  0  2  0  0  0  0  0  0  0  0  0
   21.2533   -9.6084  -17.1255 N   0  0  0  0  0  0  0  0  0  0  0  0
   21.3949   -7.3397  -16.2442 C   0  0  0  0  0  0  0  0  0  0  0  0
   22.5437   -7.3824  -15.7213 O   0  0  0  0  0  0  0  0  0  0  0  0
   21.1019   -3.8741  -17.7189 C   0  0  0  0  0  0  0  0  0  0  0  0
   21.6872   -4.8987  -16.8157 C   0  0  2  0  0  0  0  0  0  0  0  0
   20.8974   -6.1091  -16.7256 N   0  0  0  0  0  0  0  0  0  0  0  0
   21.9375   -4.3091  -15.4726 C   0  0  0  0  0  0  0  0  0  0  0  0
   21.0053   -4.3461  -14.6368 O   0  0  0  0  0  0  0  0  0  0  0  0
   23.1302   -3.7384  -15.1270 O   0  0  0  0  0  0  0  0  0  0  0  0
  2  1  1  6
  2  3  1  0
  2  4  1  0
  4  5  2  0
  7  6  1  0
  7  9  1  0
  8  7  2  0
 10  9  1  1
 11  4  1  0
 11 10  1  0
 12 10  1  0
 12 16  1  0
 13 12  2  0
 15 16  1  0
 15 14  1  6
 17 15  1  0
 17 19  1  0
 18 17  2  0
M  END
$$$$
