ANA.pdb
     RDKit          3D

 19 18  0  0  1  0  0  0  0  0999 V2000
   17.8044  -15.2790  -16.3442 C   0  0  0  0  0  0  0  0  0  0  0  0
   17.2805  -14.1788  -15.4624 C   0  0  2  0  0  0  0  0  0  0  0  0
   15.8222  -14.3253  -15.4021 N   0  0  0  0  0  0  0  0  0  0  0  0
   17.5712  -12.8597  -16.0831 C   0  0  0  0  0  0  0  0  0  0  0  0
   17.5326  -12.7576  -17.3307 O   0  0  0  0  0  0  0  0  0  0  0  0
   16.2121   -7.1995  -15.3736 N   0  0  0  0  0  0  0  0  0  0  0  0
   16.7373   -8.2648  -16.1414 C   0  0  0  0  0  0  0  0  0  0  0  0
   17.2534   -8.0093  -17.2595 O   0  0  0  0  0  0  0  0  0  0  0  0
   16.7140   -9.6577  -15.7046 C   0  0  0  0  0  0  0  0  0  0  0  0
   18.0077  -10.3977  -15.8076 C   0  0  2  0  0  0  0  0  0  0  0  0
   17.8924  -11.7111  -15.2923 N   0  0  0  0  0  0  0  0  0  0  0  0
   19.1415   -9.6176  -15.2712 C   0  0  0  0  0  0  0  0  0  0  0  0
   19.1777   -9.4827  -14.0160 O   0  0  0  0  0  0  0  0  0  0  0  0
   22.4641   -8.2592  -16.3686 C   0  0  0  0  0  0  0  0  0  0  0  0
   21.2421   -8.2412  -15.5232 C   0  0  2  0  0  0  0  0  0  0  0  0
   20.1551   -9.0326  -16.0611 N   0  0  0  0  0  0  0  0  0  0  0  0
   20.8208   -6.8370  -15.2686 C   0  0  0  0  0  0  0  0  0  0  0  0
   19.9330   -6.3517  -16.0070 O   0  0  0  0  0  0  0  0  0  0  0  0
   21.3612   -6.0726  -14.2729 O   0  0  0  0  0  0  0  0  0  0  0  0
  2  1  1  6
  2  3  1  0
  2  4  1  0
  4  5  2  0
  7  6  1  0
  7  9  1  0
  8  7  2  0
 10  9  1  1
 11  4  1  0
 11 10  1  0
 12 10  1  0
 12 16  1  0
 13 12  2  0
 15 16  1  0
 15 14  1  6
 17 15  1  0
 17 19  1  0
 18 17  2  0
M  END
$$$$
