ANA.pdb
     RDKit          3D

 19 18  0  0  1  0  0  0  0  0999 V2000
   23.4720  -20.1481  -15.1422 C   0  0  0  0  0  0  0  0  0  0  0  0
   23.0372  -19.2366  -16.2569 C   0  0  2  0  0  0  0  0  0  0  0  0
   23.9243  -19.4886  -17.3976 N   0  0  0  0  0  0  0  0  0  0  0  0
   23.2281  -17.8204  -15.8474 C   0  0  0  0  0  0  0  0  0  0  0  0
   22.6020  -17.3898  -14.8520 O   0  0  0  0  0  0  0  0  0  0  0  0
   26.6245  -16.5243  -13.8434 N   0  0  0  0  0  0  0  0  0  0  0  0
   26.5662  -16.4575  -15.2549 C   0  0  0  0  0  0  0  0  0  0  0  0
   27.1498  -17.3450  -15.9285 O   0  0  0  0  0  0  0  0  0  0  0  0
   25.8596  -15.4062  -15.9810 C   0  0  0  0  0  0  0  0  0  0  0  0
   24.3920  -15.6135  -16.1689 C   0  0  2  0  0  0  0  0  0  0  0  0
   24.1056  -16.9433  -16.5608 N   0  0  0  0  0  0  0  0  0  0  0  0
   23.7853  -14.5707  -17.0211 C   0  0  0  0  0  0  0  0  0  0  0  0
   24.1354  -14.5728  -18.2345 O   0  0  0  0  0  0  0  0  0  0  0  0
   21.0696  -11.9505  -16.8432 C   0  0  0  0  0  0  0  0  0  0  0  0
   22.2955  -12.5707  -17.4095 C   0  0  2  0  0  0  0  0  0  0  0  0
   22.8642  -13.6019  -16.5667 N   0  0  0  0  0  0  0  0  0  0  0  0
   23.2954  -11.5171  -17.7327 C   0  0  0  0  0  0  0  0  0  0  0  0
   22.9686  -10.6384  -18.5633 O   0  0  0  0  0  0  0  0  0  0  0  0
   24.5370  -11.4774  -17.1630 O   0  0  0  0  0  0  0  0  0  0  0  0
  2  1  1  1
  2  3  1  0
  2  4  1  0
  4  5  2  0
  7  6  1  0
  7  9  1  0
  8  7  2  0
 10  9  1  6
 11  4  1  0
 11 10  1  0
 12 10  1  0
 12 16  1  0
 13 12  2  0
 15 16  1  0
 15 14  1  1
 17 15  1  0
 17 19  1  0
 18 17  2  0
M  END
$$$$
