ANA.pdb
     RDKit          3D

 19 18  0  0  1  0  0  0  0  0999 V2000
   15.4978   -7.8523  -15.6264 C   0  0  0  0  0  0  0  0  0  0  0  0
   16.7337   -8.6849  -15.8313 C   0  0  2  0  0  0  0  0  0  0  0  0
   16.4961   -9.9831  -15.1909 N   0  0  0  0  0  0  0  0  0  0  0  0
   17.8849   -8.0494  -15.1382 C   0  0  0  0  0  0  0  0  0  0  0  0
   17.8500   -7.9327  -13.8918 O   0  0  0  0  0  0  0  0  0  0  0  0
   20.8889   -9.3467  -13.7321 N   0  0  0  0  0  0  0  0  0  0  0  0
   21.7026   -8.9132  -14.8045 C   0  0  0  0  0  0  0  0  0  0  0  0
   22.7337   -9.5746  -15.0891 O   0  0  0  0  0  0  0  0  0  0  0  0
   21.4098   -7.7296  -15.6077 C   0  0  0  0  0  0  0  0  0  0  0  0
   20.1630   -6.9882  -15.2504 C   0  0  2  0  0  0  0  0  0  0  0  0
   19.0251   -7.5707  -15.8586 N   0  0  0  0  0  0  0  0  0  0  0  0
   20.3004   -5.5322  -15.4571 C   0  0  0  0  0  0  0  0  0  0  0  0
   20.3447   -5.1439  -16.6581 O   0  0  0  0  0  0  0  0  0  0  0  0
   20.0649   -2.3541  -13.4345 C   0  0  0  0  0  0  0  0  0  0  0  0
   20.4334   -3.1497  -14.6343 C   0  0  2  0  0  0  0  0  0  0  0  0
   20.3827   -4.5806  -14.4172 N   0  0  0  0  0  0  0  0  0  0  0  0
   21.7661   -2.7212  -15.1387 C   0  0  0  0  0  0  0  0  0  0  0  0
   22.7529   -3.4420  -14.8637 O   0  0  0  0  0  0  0  0  0  0  0  0
   21.9457   -1.5868  -15.8794 O   0  0  0  0  0  0  0  0  0  0  0  0
  2  1  1  1
  2  3  1  0
  2  4  1  0
  4  5  2  0
  7  6  1  0
  7  9  1  0
  8  7  2  0
 10  9  1  6
 11  4  1  0
 11 10  1  0
 12 10  1  0
 12 16  1  0
 13 12  2  0
 15 16  1  0
 15 14  1  1
 17 15  1  0
 17 19  1  0
 18 17  2  0
M  END
$$$$
