ANA.pdb
     RDKit          3D

 19 18  0  0  1  0  0  0  0  0999 V2000
   19.0125  -11.6337  -18.1578 C   0  0  0  0  0  0  0  0  0  0  0  0
   19.9058  -11.2445  -17.0119 C   0  0  2  0  0  0  0  0  0  0  0  0
   19.3641  -11.8747  -15.8031 N   0  0  0  0  0  0  0  0  0  0  0  0
   19.8489   -9.7726  -16.8116 C   0  0  0  0  0  0  0  0  0  0  0  0
   20.3320   -9.0242  -17.6918 O   0  0  0  0  0  0  0  0  0  0  0  0
   16.6301   -7.4892  -16.8911 N   0  0  0  0  0  0  0  0  0  0  0  0
   16.6649   -7.5856  -15.4805 C   0  0  0  0  0  0  0  0  0  0  0  0
   15.5901   -7.7896  -14.8600 O   0  0  0  0  0  0  0  0  0  0  0  0
   17.8904   -7.4608  -14.6967 C   0  0  0  0  0  0  0  0  0  0  0  0
   19.1593   -7.8029  -15.4070 C   0  0  2  0  0  0  0  0  0  0  0  0
   19.2584   -9.1952  -15.6429 N   0  0  0  0  0  0  0  0  0  0  0  0
   20.3416   -7.1969  -14.7614 C   0  0  0  0  0  0  0  0  0  0  0  0
   20.7071   -7.7192  -13.6710 O   0  0  0  0  0  0  0  0  0  0  0  0
   23.0142   -4.6417  -15.5795 C   0  0  0  0  0  0  0  0  0  0  0  0
   22.2825   -5.5848  -14.6944 C   0  0  2  0  0  0  0  0  0  0  0  0
   21.0625   -6.0997  -15.2807 N   0  0  0  0  0  0  0  0  0  0  0  0
   22.0270   -4.9483  -13.3739 C   0  0  0  0  0  0  0  0  0  0  0  0
   20.8849   -4.4786  -13.1644 O   0  0  0  0  0  0  0  0  0  0  0  0
   22.9809   -4.8608  -12.3991 O   0  0  0  0  0  0  0  0  0  0  0  0
  2  1  1  6
  2  3  1  0
  2  4  1  0
  4  5  2  0
  7  6  1  0
  7  9  1  0
  8  7  2  0
 10  9  1  1
 11  4  1  0
 11 10  1  0
 12 10  1  0
 12 16  1  0
 13 12  2  0
 15 16  1  0
 15 14  1  6
 17 15  1  0
 17 19  1  0
 18 17  2  0
M  END
$$$$
