ANA.pdb
     RDKit          3D

 19 18  0  0  1  0  0  0  0  0999 V2000
   19.4403  -10.9332  -17.0022 C   0  0  0  0  0  0  0  0  0  0  0  0
   19.7342   -9.6489  -17.7280 C   0  0  2  0  0  0  0  0  0  0  0  0
   21.1237   -9.7187  -18.1928 N   0  0  0  0  0  0  0  0  0  0  0  0
   19.6370   -8.5067  -16.7817 C   0  0  0  0  0  0  0  0  0  0  0  0
   18.5195   -8.2186  -16.2954 O   0  0  0  0  0  0  0  0  0  0  0  0
   21.0414   -4.2178  -13.9373 N   0  0  0  0  0  0  0  0  0  0  0  0
   21.8590   -5.3559  -13.7460 C   0  0  0  0  0  0  0  0  0  0  0  0
   22.6536   -5.3747  -12.7713 O   0  0  0  0  0  0  0  0  0  0  0  0
   21.8319   -6.5215  -14.6249 C   0  0  0  0  0  0  0  0  0  0  0  0
   20.7326   -6.5534  -15.6360 C   0  0  2  0  0  0  0  0  0  0  0  0
   20.7844   -7.7335  -16.4162 N   0  0  0  0  0  0  0  0  0  0  0  0
   20.6507   -5.2992  -16.4118 C   0  0  0  0  0  0  0  0  0  0  0  0
   21.3634   -5.2433  -17.4530 O   0  0  0  0  0  0  0  0  0  0  0  0
   18.9304   -3.4392  -18.2125 C   0  0  0  0  0  0  0  0  0  0  0  0
   19.5979   -3.0665  -16.9382 C   0  0  2  0  0  0  0  0  0  0  0  0
   19.8444   -4.1938  -16.0633 N   0  0  0  0  0  0  0  0  0  0  0  0
   18.8201   -2.0012  -16.2495 C   0  0  0  0  0  0  0  0  0  0  0  0
   18.6957   -0.9002  -16.8336 O   0  0  0  0  0  0  0  0  0  0  0  0
   18.2469   -2.1813  -15.0220 O   0  0  0  0  0  0  0  0  0  0  0  0
  2  1  1  1
  2  3  1  0
  2  4  1  0
  4  5  2  0
  7  6  1  0
  7  9  1  0
  8  7  2  0
 10  9  1  6
 11  4  1  0
 11 10  1  0
 12 10  1  0
 12 16  1  0
 13 12  2  0
 15 16  1  0
 15 14  1  6
 17 15  1  0
 17 19  1  0
 18 17  2  0
M  END
$$$$
