ANA.pdb
     RDKit          3D

 19 18  0  0  1  0  0  0  0  0999 V2000
   20.3403  -12.3760  -17.2850 C   0  0  0  0  0  0  0  0  0  0  0  0
   20.1168  -11.5068  -16.0778 C   0  0  2  0  0  0  0  0  0  0  0  0
   18.6684  -11.3257  -15.9330 N   0  0  0  0  0  0  0  0  0  0  0  0
   20.7132  -10.1653  -16.3107 C   0  0  0  0  0  0  0  0  0  0  0  0
   21.9541  -10.0721  -16.4507 O   0  0  0  0  0  0  0  0  0  0  0  0
   21.1216   -7.2965  -20.0313 N   0  0  0  0  0  0  0  0  0  0  0  0
   20.0985   -7.7794  -19.1825 C   0  0  0  0  0  0  0  0  0  0  0  0
   19.4594   -8.8064  -19.5269 O   0  0  0  0  0  0  0  0  0  0  0  0
   19.7396   -7.1469  -17.9165 C   0  0  0  0  0  0  0  0  0  0  0  0
   20.4037   -7.6990  -16.6975 C   0  0  2  0  0  0  0  0  0  0  0  0
   19.9064   -8.9852  -16.3778 N   0  0  0  0  0  0  0  0  0  0  0  0
   20.4028   -6.7368  -15.5768 C   0  0  0  0  0  0  0  0  0  0  0  0
   19.4051   -6.7859  -14.8041 O   0  0  0  0  0  0  0  0  0  0  0  0
   22.7246   -4.1511  -14.0520 C   0  0  0  0  0  0  0  0  0  0  0  0
   21.4679   -4.9361  -14.1649 C   0  0  2  0  0  0  0  0  0  0  0  0
   21.4249   -5.7944  -15.3305 N   0  0  0  0  0  0  0  0  0  0  0  0
   20.2929   -4.0245  -14.1148 C   0  0  0  0  0  0  0  0  0  0  0  0
   19.7899   -3.6615  -15.2029 O   0  0  0  0  0  0  0  0  0  0  0  0
   19.7538   -3.5782  -12.9410 O   0  0  0  0  0  0  0  0  0  0  0  0
  2  1  1  6
  2  3  1  0
  2  4  1  0
  4  5  2  0
  7  6  1  0
  7  9  1  0
  8  7  2  0
 10  9  1  6
 11  4  1  0
 11 10  1  0
 12 10  1  0
 12 16  1  0
 13 12  2  0
 15 16  1  0
 15 14  1  6
 17 15  1  0
 17 19  1  0
 18 17  2  0
M  END
$$$$
