ANA.pdb
     RDKit          3D

 19 18  0  0  1  0  0  0  0  0999 V2000
   27.4659  -17.7069  -18.9529 C   0  0  0  0  0  0  0  0  0  0  0  0
   26.7009  -18.9191  -18.4967 C   0  0  2  0  0  0  0  0  0  0  0  0
   26.0321  -19.4816  -19.6747 N   0  0  0  0  0  0  0  0  0  0  0  0
   25.6430  -18.5099  -17.5358 C   0  0  0  0  0  0  0  0  0  0  0  0
   25.9691  -18.2407  -16.3570 O   0  0  0  0  0  0  0  0  0  0  0  0
   21.2092  -16.4180  -15.6590 N   0  0  0  0  0  0  0  0  0  0  0  0
   21.3432  -16.2685  -17.0589 C   0  0  0  0  0  0  0  0  0  0  0  0
   20.5362  -15.5212  -17.6689 O   0  0  0  0  0  0  0  0  0  0  0  0
   22.3760  -16.9391  -17.8433 C   0  0  0  0  0  0  0  0  0  0  0  0
   23.2413  -17.9026  -17.0985 C   0  0  2  0  0  0  0  0  0  0  0  0
   24.2690  -18.4173  -17.9249 N   0  0  0  0  0  0  0  0  0  0  0  0
   22.4511  -18.9240  -16.3816 C   0  0  0  0  0  0  0  0  0  0  0  0
   21.9329  -19.8272  -17.0962 O   0  0  0  0  0  0  0  0  0  0  0  0
   21.8037  -19.9767  -12.8026 C   0  0  0  0  0  0  0  0  0  0  0  0
   21.6175  -20.0378  -14.2756 C   0  0  2  0  0  0  0  0  0  0  0  0
   22.2497  -18.9445  -14.9842 N   0  0  0  0  0  0  0  0  0  0  0  0
   20.1688  -20.1341  -14.6013 C   0  0  0  0  0  0  0  0  0  0  0  0
   19.6531  -19.1939  -15.2486 O   0  0  0  0  0  0  0  0  0  0  0  0
   19.3958  -21.1961  -14.2239 O   0  0  0  0  0  0  0  0  0  0  0  0
  2  1  1  6
  2  3  1  0
  2  4  1  0
  4  5  2  0
  7  6  1  0
  7  9  1  0
  8  7  2  0
 10  9  1  6
 11  4  1  0
 11 10  1  0
 12 10  1  0
 12 16  1  0
 13 12  2  0
 15 16  1  0
 15 14  1  1
 17 15  1  0
 17 19  1  0
 18 17  2  0
M  END
$$$$
