ANA.pdb
     RDKit          3D

 19 18  0  0  1  0  0  0  0  0999 V2000
   17.8528  -15.1444  -18.1368 C   0  0  0  0  0  0  0  0  0  0  0  0
   18.7510  -14.0999  -17.5327 C   0  0  2  0  0  0  0  0  0  0  0  0
   19.1151  -14.5621  -16.1890 N   0  0  0  0  0  0  0  0  0  0  0  0
   18.0018  -12.8253  -17.3785 C   0  0  0  0  0  0  0  0  0  0  0  0
   17.6826  -12.1842  -18.4058 O   0  0  0  0  0  0  0  0  0  0  0  0
   14.2346  -12.9545  -14.1216 N   0  0  0  0  0  0  0  0  0  0  0  0
   14.7783  -12.0303  -15.0438 C   0  0  0  0  0  0  0  0  0  0  0  0
   14.2215  -11.8917  -16.1630 O   0  0  0  0  0  0  0  0  0  0  0  0
   15.9607  -11.2199  -14.7667 C   0  0  0  0  0  0  0  0  0  0  0  0
   16.9480  -11.0999  -15.8815 C   0  0  2  0  0  0  0  0  0  0  0  0
   17.6394  -12.3174  -16.0906 N   0  0  0  0  0  0  0  0  0  0  0  0
   17.8131   -9.9117  -15.7359 C   0  0  0  0  0  0  0  0  0  0  0  0
   18.6301   -9.9348  -14.7731 O   0  0  0  0  0  0  0  0  0  0  0  0
   18.9159   -6.9545  -17.7591 C   0  0  0  0  0  0  0  0  0  0  0  0
   18.6756   -7.6566  -16.4717 C   0  0  2  0  0  0  0  0  0  0  0  0
   17.7773   -8.7865  -16.5880 N   0  0  0  0  0  0  0  0  0  0  0  0
   18.2042   -6.6882  -15.4449 C   0  0  0  0  0  0  0  0  0  0  0  0
   18.9580   -5.7300  -15.1577 O   0  0  0  0  0  0  0  0  0  0  0  0
   16.9969   -6.8079  -14.8157 O   0  0  0  0  0  0  0  0  0  0  0  0
  2  1  1  1
  2  3  1  0
  2  4  1  0
  4  5  2  0
  7  6  1  0
  7  9  1  0
  8  7  2  0
 10  9  1  1
 11  4  1  0
 11 10  1  0
 12 10  1  0
 12 16  1  0
 13 12  2  0
 15 16  1  0
 15 14  1  6
 17 15  1  0
 17 19  1  0
 18 17  2  0
M  END
$$$$
