AMY.pdb
     RDKit          3D

 26 26  0  0  1  0  0  0  0  0999 V2000
    7.2687  -20.4056   19.9054 C   0  0  0  0  0  0  0  0  0  0  0  0
    7.7183  -19.9558   21.2860 C   0  0  2  0  0  0  0  0  0  0  0  0
    6.5596  -19.6939   22.1120 N   0  0  0  0  0  0  0  0  0  0  0  0
    8.5377  -18.7196   21.2198 C   0  0  0  0  0  0  0  0  0  0  0  0
    9.6722  -18.7733   20.6939 O   0  0  0  0  0  0  0  0  0  0  0  0
    8.3840  -10.9005   20.5045 C   0  0  0  0  0  0  0  0  0  0  0  0
    7.5155  -12.4628   20.6303 S   0  0  0  0  0  0  0  0  0  0  0  0
    8.5884  -13.8327   21.1189 C   0  0  0  0  0  0  0  0  0  0  0  0
    7.8327  -15.1210   21.3419 C   0  0  0  0  0  0  0  0  0  0  0  0
    8.7605  -16.2472   21.6365 C   0  0  2  0  0  0  0  0  0  0  0  0
    8.0356  -17.4903   21.7507 N   0  0  0  0  0  0  0  0  0  0  0  0
    9.4931  -16.0449   22.9336 C   0  0  0  0  0  0  0  0  0  0  0  0
   10.4898  -15.2810   23.0175 O   0  0  0  0  0  0  0  0  0  0  0  0
    5.7672  -11.4560   26.0283 O   0  0  0  0  0  0  0  0  0  0  0  0
    6.4907  -12.6606   26.1374 C   0  0  0  0  0  0  0  0  0  0  0  0
    7.8624  -12.6199   26.2870 C   0  0  0  0  0  0  0  0  0  0  0  0
    8.5902  -13.8000   26.3957 C   0  0  0  0  0  0  0  0  0  0  0  0
    7.9726  -15.0366   26.3582 C   0  0  0  0  0  0  0  0  0  0  0  0
    8.7501  -16.2716   26.4760 C   0  0  0  0  0  0  0  0  0  0  0  0
    9.7920  -16.4408   25.3996 C   0  0  2  0  0  0  0  0  0  0  0  0
    9.1024  -16.7045   24.1413 N   0  0  0  0  0  0  0  0  0  0  0  0
   10.8379  -17.4089   25.7100 C   0  0  0  0  0  0  0  0  0  0  0  0
   11.1902  -18.4912   24.9058 O   0  0  0  0  0  0  0  0  0  0  0  0
    6.6033  -15.0440   26.2083 C   0  0  0  0  0  0  0  0  0  0  0  0
    5.8739  -13.8762   26.0997 C   0  0  0  0  0  0  0  0  0  0  0  0
   11.4853  -17.2855   26.7725 O   0  0  0  0  0  0  0  0  0  0  0  0
  2  1  1  6
  2  3  1  0
  4  2  1  0
  5  4  2  0
  7  6  1  0
  7  8  1  0
  9  8  1  0
 10  9  1  1
 10 11  1  0
 11  4  1  0
 12 10  1  0
 12 21  1  0
 13 12  2  0
 15 14  1  0
 16 15  2  0
 17 16  1  0
 18 17  2  0
 18 24  1  0
 19 18  1  0
 20 22  1  0
 20 21  1  0
 20 19  1  1
 22 23  1  0
 24 25  2  0
 25 15  1  0
 26 22  2  0
M  END
$$$$
