AMY.pdb
     RDKit          3D

 26 26  0  0  1  0  0  0  0  0999 V2000
    7.8848  -17.5918   19.1603 C   0  0  0  0  0  0  0  0  0  0  0  0
    7.9098  -16.0720   19.1763 C   0  0  2  0  0  0  0  0  0  0  0  0
    8.7263  -15.5888   18.0840 N   0  0  0  0  0  0  0  0  0  0  0  0
    8.4666  -15.5463   20.4481 C   0  0  0  0  0  0  0  0  0  0  0  0
    9.6991  -15.3451   20.5314 O   0  0  0  0  0  0  0  0  0  0  0  0
    6.7484  -12.0829   27.4017 C   0  0  0  0  0  0  0  0  0  0  0  0
    6.1495  -12.8426   25.8933 S   0  0  0  0  0  0  0  0  0  0  0  0
    7.4602  -13.6239   24.9246 C   0  0  0  0  0  0  0  0  0  0  0  0
    6.9675  -14.1817   23.6107 C   0  0  0  0  0  0  0  0  0  0  0  0
    8.0929  -14.7131   22.7938 C   0  0  2  0  0  0  0  0  0  0  0  0
    7.6054  -15.2773   21.5577 N   0  0  0  0  0  0  0  0  0  0  0  0
    8.8393  -15.8036   23.5104 C   0  0  0  0  0  0  0  0  0  0  0  0
    8.4614  -17.0033   23.4649 O   0  0  0  0  0  0  0  0  0  0  0  0
   10.3622  -14.3829   30.9085 O   0  0  0  0  0  0  0  0  0  0  0  0
   10.7466  -14.8087   29.6212 C   0  0  0  0  0  0  0  0  0  0  0  0
   10.6907  -13.9211   28.5654 C   0  0  0  0  0  0  0  0  0  0  0  0
   11.0664  -14.3264   27.2892 C   0  0  0  0  0  0  0  0  0  0  0  0
   11.5027  -15.6144   27.0386 C   0  0  0  0  0  0  0  0  0  0  0  0
   11.8976  -16.0278   25.6907 C   0  0  0  0  0  0  0  0  0  0  0  0
   10.7757  -16.6325   24.8855 C   0  0  2  0  0  0  0  0  0  0  0  0
   10.0160  -15.5434   24.2811 N   0  0  0  0  0  0  0  0  0  0  0  0
    9.9508  -17.5908   25.6126 C   0  0  0  0  0  0  0  0  0  0  0  0
   10.3171  -18.9039   25.9019 O   0  0  0  0  0  0  0  0  0  0  0  0
   11.5476  -16.4761   28.1123 C   0  0  0  0  0  0  0  0  0  0  0  0
   11.1760  -16.0807   29.3824 C   0  0  0  0  0  0  0  0  0  0  0  0
    8.8229  -17.2370   26.0198 O   0  0  0  0  0  0  0  0  0  0  0  0
  2  1  1  1
  2  3  1  0
  4  2  1  0
  5  4  2  0
  7  6  1  0
  7  8  1  0
  9  8  1  0
 10  9  1  1
 10 11  1  0
 11  4  1  0
 12 10  1  0
 12 21  1  0
 13 12  2  0
 15 14  1  0
 16 15  2  0
 17 16  1  0
 18 17  2  0
 18 24  1  0
 19 18  1  0
 20 22  1  0
 20 21  1  0
 20 19  1  1
 22 23  1  0
 24 25  2  0
 25 15  1  0
 26 22  2  0
M  END
$$$$
