AMY.pdb
     RDKit          3D

 26 26  0  0  1  0  0  0  0  0999 V2000
    7.8576  -18.4412   20.1945 C   0  0  0  0  0  0  0  0  0  0  0  0
    7.7202  -16.9687   19.8429 C   0  0  2  0  0  0  0  0  0  0  0  0
    8.3924  -16.7046   18.5892 N   0  0  0  0  0  0  0  0  0  0  0  0
    8.3149  -16.0979   20.8880 C   0  0  0  0  0  0  0  0  0  0  0  0
    9.5356  -15.8282   20.8280 O   0  0  0  0  0  0  0  0  0  0  0  0
    5.7932  -10.9569   25.7593 C   0  0  0  0  0  0  0  0  0  0  0  0
    6.1993  -12.6803   26.0350 S   0  0  0  0  0  0  0  0  0  0  0  0
    7.4846  -13.2924   24.9215 C   0  0  0  0  0  0  0  0  0  0  0  0
    6.9388  -14.1653   23.8168 C   0  0  0  0  0  0  0  0  0  0  0  0
    8.0348  -14.7219   22.9771 C   0  0  2  0  0  0  0  0  0  0  0  0
    7.5028  -15.5795   21.9448 N   0  0  0  0  0  0  0  0  0  0  0  0
    8.9943  -15.5503   23.7853 C   0  0  0  0  0  0  0  0  0  0  0  0
    8.7258  -16.7332   24.1209 O   0  0  0  0  0  0  0  0  0  0  0  0
   11.6988  -16.9157   31.6922 O   0  0  0  0  0  0  0  0  0  0  0  0
   11.2644  -16.4576   30.4322 C   0  0  0  0  0  0  0  0  0  0  0  0
   10.7810  -17.3621   29.5083 C   0  0  0  0  0  0  0  0  0  0  0  0
   10.3489  -16.9255   28.2606 C   0  0  0  0  0  0  0  0  0  0  0  0
   10.3883  -15.5888   27.9087 C   0  0  0  0  0  0  0  0  0  0  0  0
    9.9281  -15.1417   26.5926 C   0  0  0  0  0  0  0  0  0  0  0  0
   10.8649  -15.4977   25.4662 C   0  0  2  0  0  0  0  0  0  0  0  0
   10.2612  -15.0458   24.2172 N   0  0  0  0  0  0  0  0  0  0  0  0
   11.2877  -16.8934   25.4427 C   0  0  0  0  0  0  0  0  0  0  0  0
   10.4969  -17.9618   25.0241 O   0  0  0  0  0  0  0  0  0  0  0  0
   10.8754  -14.7111   28.8519 C   0  0  0  0  0  0  0  0  0  0  0  0
   11.3063  -15.1374   30.0930 C   0  0  0  0  0  0  0  0  0  0  0  0
   12.4428  -17.1856   25.8220 O   0  0  0  0  0  0  0  0  0  0  0  0
  2  1  1  1
  2  3  1  0
  4  2  1  0
  5  4  2  0
  7  6  1  0
  7  8  1  0
  9  8  1  0
 10  9  1  1
 10 11  1  0
 11  4  1  0
 12 10  1  0
 12 21  1  0
 13 12  2  0
 15 14  1  0
 16 15  2  0
 17 16  1  0
 18 17  2  0
 18 24  1  0
 19 18  1  0
 20 22  1  0
 20 21  1  0
 20 19  1  1
 22 23  1  0
 24 25  2  0
 25 15  1  0
 26 22  2  0
M  END
$$$$
