AMY.pdb
     RDKit          3D

 26 26  0  0  1  0  0  0  0  0999 V2000
    6.4439  -16.4516   19.7982 C   0  0  0  0  0  0  0  0  0  0  0  0
    7.4908  -16.8888   20.8098 C   0  0  2  0  0  0  0  0  0  0  0  0
    6.8811  -17.7551   21.7953 N   0  0  0  0  0  0  0  0  0  0  0  0
    8.0926  -15.7276   21.5123 C   0  0  0  0  0  0  0  0  0  0  0  0
    8.9270  -15.0193   20.9052 O   0  0  0  0  0  0  0  0  0  0  0  0
    5.4269  -11.5547   26.2123 C   0  0  0  0  0  0  0  0  0  0  0  0
    7.0120  -12.1436   26.8054 S   0  0  0  0  0  0  0  0  0  0  0  0
    8.0765  -12.7656   25.4838 C   0  0  0  0  0  0  0  0  0  0  0  0
    7.4373  -13.8789   24.6887 C   0  0  0  0  0  0  0  0  0  0  0  0
    8.3450  -14.3643   23.6132 C   0  0  2  0  0  0  0  0  0  0  0  0
    7.7233  -15.4281   22.8611 N   0  0  0  0  0  0  0  0  0  0  0  0
    9.6299  -14.9119   24.1692 C   0  0  0  0  0  0  0  0  0  0  0  0
   10.4493  -14.1800   24.7832 O   0  0  0  0  0  0  0  0  0  0  0  0
   10.5905  -14.8427   30.6822 O   0  0  0  0  0  0  0  0  0  0  0  0
   10.6882  -15.5532   29.4690 C   0  0  0  0  0  0  0  0  0  0  0  0
    9.7429  -15.3512   28.4835 C   0  0  0  0  0  0  0  0  0  0  0  0
    9.8256  -16.0451   27.2811 C   0  0  0  0  0  0  0  0  0  0  0  0
   10.8437  -16.9480   27.0357 C   0  0  0  0  0  0  0  0  0  0  0  0
   10.9207  -17.6704   25.7645 C   0  0  0  0  0  0  0  0  0  0  0  0
   11.2482  -16.7924   24.5835 C   0  0  2  0  0  0  0  0  0  0  0  0
    9.9942  -16.2885   24.0341 N   0  0  0  0  0  0  0  0  0  0  0  0
   12.1196  -17.4081   23.5890 C   0  0  0  0  0  0  0  0  0  0  0  0
   11.7637  -17.6726   22.2679 O   0  0  0  0  0  0  0  0  0  0  0  0
   11.7713  -17.1274   28.0380 C   0  0  0  0  0  0  0  0  0  0  0  0
   11.6957  -16.4419   29.2347 C   0  0  0  0  0  0  0  0  0  0  0  0
   13.2808  -17.7357   23.9170 O   0  0  0  0  0  0  0  0  0  0  0  0
  2  1  1  6
  2  3  1  0
  4  2  1  0
  5  4  2  0
  7  6  1  0
  7  8  1  0
  9  8  1  0
 10  9  1  1
 10 11  1  0
 11  4  1  0
 12 10  1  0
 12 21  1  0
 13 12  2  0
 15 14  1  0
 16 15  2  0
 17 16  1  0
 18 17  2  0
 18 24  1  0
 19 18  1  0
 20 22  1  0
 20 21  1  0
 20 19  1  1
 22 23  1  0
 24 25  2  0
 25 15  1  0
 26 22  2  0
M  END
$$$$
