AMY.pdb
     RDKit          3D

 26 26  0  0  1  0  0  0  0  0999 V2000
    7.0004  -18.6062   21.6183 C   0  0  0  0  0  0  0  0  0  0  0  0
    7.0609  -17.3181   20.8135 C   0  0  2  0  0  0  0  0  0  0  0  0
    7.5782  -17.5961   19.4911 N   0  0  0  0  0  0  0  0  0  0  0  0
    7.9380  -16.3092   21.4591 C   0  0  0  0  0  0  0  0  0  0  0  0
    9.1636  -16.3223   21.2056 O   0  0  0  0  0  0  0  0  0  0  0  0
    6.8486  -10.8732   26.2954 C   0  0  0  0  0  0  0  0  0  0  0  0
    5.9565  -12.3543   25.8246 S   0  0  0  0  0  0  0  0  0  0  0  0
    7.0139  -13.6061   25.0619 C   0  0  0  0  0  0  0  0  0  0  0  0
    7.3581  -13.2896   23.6261 C   0  0  0  0  0  0  0  0  0  0  0  0
    8.2043  -14.3571   23.0258 C   0  0  2  0  0  0  0  0  0  0  0  0
    7.3874  -15.3412   22.3563 N   0  0  0  0  0  0  0  0  0  0  0  0
    9.0073  -15.0869   24.0663 C   0  0  0  0  0  0  0  0  0  0  0  0
    8.4960  -15.9830   24.7872 O   0  0  0  0  0  0  0  0  0  0  0  0
   11.3904  -16.4658   31.5826 O   0  0  0  0  0  0  0  0  0  0  0  0
   11.1068  -16.4865   30.2022 C   0  0  0  0  0  0  0  0  0  0  0  0
   10.7625  -15.3141   29.5601 C   0  0  0  0  0  0  0  0  0  0  0  0
   10.4796  -15.3185   28.1985 C   0  0  0  0  0  0  0  0  0  0  0  0
   10.5331  -16.4815   27.4525 C   0  0  0  0  0  0  0  0  0  0  0  0
   10.2352  -16.4722   26.0190 C   0  0  0  0  0  0  0  0  0  0  0  0
   11.1837  -15.6293   25.2049 C   0  0  2  0  0  0  0  0  0  0  0  0
   10.3912  -14.8077   24.2963 N   0  0  0  0  0  0  0  0  0  0  0  0
   12.2488  -16.3752   24.5442 C   0  0  0  0  0  0  0  0  0  0  0  0
   12.1118  -17.6488   23.9955 O   0  0  0  0  0  0  0  0  0  0  0  0
   10.8798  -17.6345   28.1216 C   0  0  0  0  0  0  0  0  0  0  0  0
   11.1621  -17.6379   29.4736 C   0  0  0  0  0  0  0  0  0  0  0  0
   13.3836  -15.8590   24.4479 O   0  0  0  0  0  0  0  0  0  0  0  0
  2  1  1  1
  2  3  1  0
  4  2  1  0
  5  4  2  0
  7  6  1  0
  7  8  1  0
  9  8  1  0
 10  9  1  1
 10 11  1  0
 11  4  1  0
 12 10  1  0
 12 21  1  0
 13 12  2  0
 15 14  1  0
 16 15  2  0
 17 16  1  0
 18 17  2  0
 18 24  1  0
 19 18  1  0
 20 22  1  0
 20 21  1  0
 20 19  1  6
 22 23  1  0
 24 25  2  0
 25 15  1  0
 26 22  2  0
M  END
$$$$
