AMY.pdb
     RDKit          3D

 26 26  0  0  1  0  0  0  0  0999 V2000
    7.0322  -13.4176   18.9565 C   0  0  0  0  0  0  0  0  0  0  0  0
    7.4958  -14.6986   19.6309 C   0  0  2  0  0  0  0  0  0  0  0  0
    6.3509  -15.5315   19.9292 N   0  0  0  0  0  0  0  0  0  0  0  0
    8.2180  -14.4206   20.8978 C   0  0  0  0  0  0  0  0  0  0  0  0
    9.3254  -13.8394   20.8479 O   0  0  0  0  0  0  0  0  0  0  0  0
    7.1024  -11.7374   26.6636 C   0  0  0  0  0  0  0  0  0  0  0  0
    5.7435  -12.5616   25.8359 S   0  0  0  0  0  0  0  0  0  0  0  0
    6.2368  -13.3692   24.2961 C   0  0  0  0  0  0  0  0  0  0  0  0
    7.2569  -14.4626   24.5061 C   0  0  0  0  0  0  0  0  0  0  0  0
    8.2685  -14.4743   23.4139 C   0  0  2  0  0  0  0  0  0  0  0  0
    7.6546  -14.8135   22.1522 N   0  0  0  0  0  0  0  0  0  0  0  0
    9.3502  -15.4880   23.6630 C   0  0  0  0  0  0  0  0  0  0  0  0
    9.4293  -16.5489   22.9903 O   0  0  0  0  0  0  0  0  0  0  0  0
   10.4940  -15.7002   31.1543 O   0  0  0  0  0  0  0  0  0  0  0  0
   10.9813  -15.7108   29.8320 C   0  0  0  0  0  0  0  0  0  0  0  0
   10.7368  -14.6310   29.0075 C   0  0  0  0  0  0  0  0  0  0  0  0
   11.2108  -14.6268   27.7000 C   0  0  0  0  0  0  0  0  0  0  0  0
   11.9332  -15.6895   27.1893 C   0  0  0  0  0  0  0  0  0  0  0  0
   12.4287  -15.6716   25.8117 C   0  0  0  0  0  0  0  0  0  0  0  0
   11.4592  -16.2421   24.8079 C   0  0  2  0  0  0  0  0  0  0  0  0
   10.3472  -15.3073   24.6726 N   0  0  0  0  0  0  0  0  0  0  0  0
   11.0434  -17.6147   25.0736 C   0  0  0  0  0  0  0  0  0  0  0  0
    9.7477  -18.0084   25.4028 O   0  0  0  0  0  0  0  0  0  0  0  0
   12.1608  -16.7515   28.0364 C   0  0  0  0  0  0  0  0  0  0  0  0
   11.6932  -16.7628   29.3359 C   0  0  0  0  0  0  0  0  0  0  0  0
   11.8921  -18.5306   25.0097 O   0  0  0  0  0  0  0  0  0  0  0  0
  2  1  1  1
  2  3  1  0
  4  2  1  0
  5  4  2  0
  7  6  1  0
  7  8  1  0
  9  8  1  0
 10  9  1  1
 10 11  1  0
 11  4  1  0
 12 10  1  0
 12 21  1  0
 13 12  2  0
 15 14  1  0
 16 15  2  0
 17 16  1  0
 18 17  2  0
 18 24  1  0
 19 18  1  0
 20 22  1  0
 20 21  1  0
 20 19  1  1
 22 23  1  0
 24 25  2  0
 25 15  1  0
 26 22  2  0
M  END
$$$$
