AMY.pdb
     RDKit          3D

 26 26  0  0  1  0  0  0  0  0999 V2000
    6.9118  -18.3243   21.2566 C   0  0  0  0  0  0  0  0  0  0  0  0
    7.4904  -16.9637   20.9035 C   0  0  2  0  0  0  0  0  0  0  0  0
    8.5543  -17.1253   19.9363 N   0  0  0  0  0  0  0  0  0  0  0  0
    8.0413  -16.2757   22.0981 C   0  0  0  0  0  0  0  0  0  0  0  0
    9.2294  -16.4922   22.4266 O   0  0  0  0  0  0  0  0  0  0  0  0
    6.9786  -10.5784   27.5462 C   0  0  0  0  0  0  0  0  0  0  0  0
    6.3538  -11.4380   26.1033 S   0  0  0  0  0  0  0  0  0  0  0  0
    7.3300  -12.8957   25.6689 C   0  0  0  0  0  0  0  0  0  0  0  0
    6.8295  -13.5891   24.4243 C   0  0  0  0  0  0  0  0  0  0  0  0
    7.6915  -14.7496   24.0691 C   0  0  2  0  0  0  0  0  0  0  0  0
    7.2237  -15.3824   22.8589 N   0  0  0  0  0  0  0  0  0  0  0  0
    7.6875  -15.8003   25.1442 C   0  0  0  0  0  0  0  0  0  0  0  0
    6.6758  -16.5157   25.3654 O   0  0  0  0  0  0  0  0  0  0  0  0
    8.1547  -23.0891   29.3510 O   0  0  0  0  0  0  0  0  0  0  0  0
    8.2466  -21.9329   28.5505 C   0  0  0  0  0  0  0  0  0  0  0  0
    7.1257  -21.1525   28.3500 C   0  0  0  0  0  0  0  0  0  0  0  0
    7.2005  -20.0088   27.5623 C   0  0  0  0  0  0  0  0  0  0  0  0
    8.3840  -19.6204   26.9619 C   0  0  0  0  0  0  0  0  0  0  0  0
    8.4499  -18.4127   26.1368 C   0  0  0  0  0  0  0  0  0  0  0  0
    8.8532  -17.1756   26.8983 C   0  0  2  0  0  0  0  0  0  0  0  0
    8.8264  -16.0475   25.9736 N   0  0  0  0  0  0  0  0  0  0  0  0
   10.1030  -17.2968   27.6405 C   0  0  0  0  0  0  0  0  0  0  0  0
   10.2118  -17.7426   28.9564 O   0  0  0  0  0  0  0  0  0  0  0  0
    9.4844  -20.4194   27.1809 C   0  0  0  0  0  0  0  0  0  0  0  0
    9.4178  -21.5566   27.9620 C   0  0  0  0  0  0  0  0  0  0  0  0
   11.1760  -16.9832   27.0805 O   0  0  0  0  0  0  0  0  0  0  0  0
  2  1  1  1
  2  3  1  0
  4  2  1  0
  5  4  2  0
  7  6  1  0
  7  8  1  0
  9  8  1  0
 10  9  1  1
 10 11  1  0
 11  4  1  0
 12 10  1  0
 12 21  1  0
 13 12  2  0
 15 14  1  0
 16 15  2  0
 17 16  1  0
 18 17  2  0
 18 24  1  0
 19 18  1  0
 20 22  1  0
 20 21  1  0
 20 19  1  6
 22 23  1  0
 24 25  2  0
 25 15  1  0
 26 22  2  0
M  END
$$$$
