AMY.pdb
     RDKit          3D

 26 26  0  0  1  0  0  0  0  0999 V2000
    8.9082  -18.9632   17.4782 C   0  0  0  0  0  0  0  0  0  0  0  0
    9.2385  -18.9554   18.9619 C   0  0  2  0  0  0  0  0  0  0  0  0
    8.1119  -19.4664   19.7123 N   0  0  0  0  0  0  0  0  0  0  0  0
    9.5453  -17.5865   19.4478 C   0  0  0  0  0  0  0  0  0  0  0  0
   10.5942  -17.0268   19.0568 O   0  0  0  0  0  0  0  0  0  0  0  0
    7.0207  -11.5158   18.7415 C   0  0  0  0  0  0  0  0  0  0  0  0
    7.7639  -12.4183   20.0995 S   0  0  0  0  0  0  0  0  0  0  0  0
    7.3186  -14.1699   20.1142 C   0  0  0  0  0  0  0  0  0  0  0  0
    7.8138  -14.8923   21.3444 C   0  0  0  0  0  0  0  0  0  0  0  0
    9.0203  -15.7100   21.0412 C   0  0  2  0  0  0  0  0  0  0  0  0
    8.6550  -16.9230   20.3491 N   0  0  0  0  0  0  0  0  0  0  0  0
    9.7481  -16.1195   22.2912 C   0  0  0  0  0  0  0  0  0  0  0  0
    9.1341  -16.3764   23.3594 O   0  0  0  0  0  0  0  0  0  0  0  0
   13.3951  -20.8479   28.2777 O   0  0  0  0  0  0  0  0  0  0  0  0
   12.8731  -20.1999   27.1403 C   0  0  0  0  0  0  0  0  0  0  0  0
   11.9253  -19.2085   27.2963 C   0  0  0  0  0  0  0  0  0  0  0  0
   11.4005  -18.5601   26.1835 C   0  0  0  0  0  0  0  0  0  0  0  0
   11.8050  -18.8824   24.9011 C   0  0  0  0  0  0  0  0  0  0  0  0
   11.2463  -18.1905   23.7380 C   0  0  0  0  0  0  0  0  0  0  0  0
   11.8391  -16.8252   23.4983 C   0  0  2  0  0  0  0  0  0  0  0  0
   11.1726  -16.2408   22.3395 N   0  0  0  0  0  0  0  0  0  0  0  0
   13.2950  -16.7988   23.4133 C   0  0  0  0  0  0  0  0  0  0  0  0
   14.1591  -16.7432   24.5053 O   0  0  0  0  0  0  0  0  0  0  0  0
   12.7518  -19.8753   24.7784 C   0  0  0  0  0  0  0  0  0  0  0  0
   13.2776  -20.5236   25.8788 C   0  0  0  0  0  0  0  0  0  0  0  0
   13.8393  -16.8263   22.2880 O   0  0  0  0  0  0  0  0  0  0  0  0
  2  1  1  6
  2  3  1  0
  4  2  1  0
  5  4  2  0
  7  6  1  0
  7  8  1  0
  9  8  1  0
 10  9  1  1
 10 11  1  0
 11  4  1  0
 12 10  1  0
 12 21  1  0
 13 12  2  0
 15 14  1  0
 16 15  2  0
 17 16  1  0
 18 17  2  0
 18 24  1  0
 19 18  1  0
 20 22  1  0
 20 21  1  0
 20 19  1  6
 22 23  1  0
 24 25  2  0
 25 15  1  0
 26 22  2  0
M  END
$$$$
