AMY.pdb
     RDKit          3D

 26 26  0  0  1  0  0  0  0  0999 V2000
    8.0479  -18.9172   20.2945 C   0  0  0  0  0  0  0  0  0  0  0  0
    8.0501  -17.5197   19.6967 C   0  0  2  0  0  0  0  0  0  0  0  0
    8.8916  -17.4968   18.5199 N   0  0  0  0  0  0  0  0  0  0  0  0
    8.5612  -16.5123   20.6600 C   0  0  0  0  0  0  0  0  0  0  0  0
    9.7929  -16.2967   20.7134 O   0  0  0  0  0  0  0  0  0  0  0  0
    7.2744  -11.9960   26.8261 C   0  0  0  0  0  0  0  0  0  0  0  0
    6.7922  -13.2817   25.6748 S   0  0  0  0  0  0  0  0  0  0  0  0
    7.4140  -13.0035   24.0007 C   0  0  0  0  0  0  0  0  0  0  0  0
    6.9546  -14.0561   23.0203 C   0  0  0  0  0  0  0  0  0  0  0  0
    8.1078  -14.8133   22.4612 C   0  0  2  0  0  0  0  0  0  0  0  0
    7.6575  -15.8036   21.5122 N   0  0  0  0  0  0  0  0  0  0  0  0
    8.8696  -15.5445   23.5312 C   0  0  0  0  0  0  0  0  0  0  0  0
    8.3620  -16.5073   24.1632 O   0  0  0  0  0  0  0  0  0  0  0  0
   11.0039  -14.3914   31.1204 O   0  0  0  0  0  0  0  0  0  0  0  0
   10.7521  -14.9191   29.8381 C   0  0  0  0  0  0  0  0  0  0  0  0
   10.3970  -14.0695   28.8097 C   0  0  0  0  0  0  0  0  0  0  0  0
   10.1450  -14.5752   27.5389 C   0  0  0  0  0  0  0  0  0  0  0  0
   10.2405  -15.9276   27.2668 C   0  0  0  0  0  0  0  0  0  0  0  0
    9.9749  -16.4470   25.9239 C   0  0  0  0  0  0  0  0  0  0  0  0
   10.9505  -15.9656   24.8803 C   0  0  2  0  0  0  0  0  0  0  0  0
   10.2082  -15.1913   23.8913 N   0  0  0  0  0  0  0  0  0  0  0  0
   11.7878  -17.0097   24.3004 C   0  0  0  0  0  0  0  0  0  0  0  0
   11.7125  -17.4553   22.9821 O   0  0  0  0  0  0  0  0  0  0  0  0
   10.5969  -16.7493   28.3133 C   0  0  0  0  0  0  0  0  0  0  0  0
   10.8487  -16.2542   29.5779 C   0  0  0  0  0  0  0  0  0  0  0  0
   12.6479  -17.5674   25.0163 O   0  0  0  0  0  0  0  0  0  0  0  0
  2  1  1  1
  2  3  1  0
  4  2  1  0
  5  4  2  0
  7  6  1  0
  7  8  1  0
  9  8  1  0
 10  9  1  1
 10 11  1  0
 11  4  1  0
 12 10  1  0
 12 21  1  0
 13 12  2  0
 15 14  1  0
 16 15  2  0
 17 16  1  0
 18 17  2  0
 18 24  1  0
 19 18  1  0
 20 22  1  0
 20 21  1  0
 20 19  1  1
 22 23  1  0
 24 25  2  0
 25 15  1  0
 26 22  2  0
M  END
$$$$
