AMY.pdb
     RDKit          3D

 26 26  0  0  1  0  0  0  0  0999 V2000
    5.0602  -19.5221   20.5370 C   0  0  0  0  0  0  0  0  0  0  0  0
    5.8573  -18.4877   19.7592 C   0  0  2  0  0  0  0  0  0  0  0  0
    6.5091  -19.1229   18.6344 N   0  0  0  0  0  0  0  0  0  0  0  0
    6.8962  -17.8473   20.6045 C   0  0  0  0  0  0  0  0  0  0  0  0
    7.9228  -18.4997   20.8996 O   0  0  0  0  0  0  0  0  0  0  0  0
    8.0750  -11.2441   18.9778 C   0  0  0  0  0  0  0  0  0  0  0  0
    7.5830  -11.9821   20.5349 S   0  0  0  0  0  0  0  0  0  0  0  0
    7.8854  -13.7627   20.6021 C   0  0  0  0  0  0  0  0  0  0  0  0
    7.4798  -14.3788   21.9197 C   0  0  0  0  0  0  0  0  0  0  0  0
    7.6938  -15.8520   21.9156 C   0  0  2  0  0  0  0  0  0  0  0  0
    6.7219  -16.5074   21.0730 N   0  0  0  0  0  0  0  0  0  0  0  0
    7.5524  -16.4425   23.2908 C   0  0  0  0  0  0  0  0  0  0  0  0
    6.5074  -16.2838   23.9740 O   0  0  0  0  0  0  0  0  0  0  0  0
    8.2992  -21.4645   30.4729 O   0  0  0  0  0  0  0  0  0  0  0  0
    8.3000  -20.8951   29.1837 C   0  0  0  0  0  0  0  0  0  0  0  0
    7.1933  -20.1943   28.7481 C   0  0  0  0  0  0  0  0  0  0  0  0
    7.1789  -19.6269   27.4785 C   0  0  0  0  0  0  0  0  0  0  0  0
    8.2579  -19.7440   26.6218 C   0  0  0  0  0  0  0  0  0  0  0  0
    8.2310  -19.1399   25.2884 C   0  0  0  0  0  0  0  0  0  0  0  0
    8.4873  -17.6542   25.2872 C   0  0  2  0  0  0  0  0  0  0  0  0
    8.5909  -17.2151   23.8997 N   0  0  0  0  0  0  0  0  0  0  0  0
    9.6037  -17.2272   26.1230 C   0  0  0  0  0  0  0  0  0  0  0  0
    9.5680  -17.1209   27.5121 O   0  0  0  0  0  0  0  0  0  0  0  0
    9.3469  -20.4487   27.0853 C   0  0  0  0  0  0  0  0  0  0  0  0
    9.3685  -21.0149   28.3449 C   0  0  0  0  0  0  0  0  0  0  0  0
   10.6893  -16.9259   25.5807 O   0  0  0  0  0  0  0  0  0  0  0  0
  2  1  1  1
  2  3  1  0
  4  2  1  0
  5  4  2  0
  7  6  1  0
  7  8  1  0
  9  8  1  0
 10  9  1  1
 10 11  1  0
 11  4  1  0
 12 10  1  0
 12 21  1  0
 13 12  2  0
 15 14  1  0
 16 15  2  0
 17 16  1  0
 18 17  2  0
 18 24  1  0
 19 18  1  0
 20 22  1  0
 20 21  1  0
 20 19  1  6
 22 23  1  0
 24 25  2  0
 25 15  1  0
 26 22  2  0
M  END
$$$$
