AMY.pdb
     RDKit          3D

 26 26  0  0  1  0  0  0  0  0999 V2000
    6.7923  -20.1676   23.2379 C   0  0  0  0  0  0  0  0  0  0  0  0
    6.6391  -19.8699   21.7552 C   0  0  2  0  0  0  0  0  0  0  0  0
    6.9722  -21.0496   20.9867 N   0  0  0  0  0  0  0  0  0  0  0  0
    7.5276  -18.7614   21.3242 C   0  0  0  0  0  0  0  0  0  0  0  0
    8.6713  -19.0346   20.8954 O   0  0  0  0  0  0  0  0  0  0  0  0
    8.2151  -11.0507   19.5544 C   0  0  0  0  0  0  0  0  0  0  0  0
    7.1511  -12.4124   20.0286 S   0  0  0  0  0  0  0  0  0  0  0  0
    8.0617  -13.9329   20.3832 C   0  0  0  0  0  0  0  0  0  0  0  0
    7.1690  -15.0574   20.8511 C   0  0  0  0  0  0  0  0  0  0  0  0
    7.9561  -16.2879   21.1378 C   0  0  2  0  0  0  0  0  0  0  0  0
    7.0805  -17.4051   21.4009 N   0  0  0  0  0  0  0  0  0  0  0  0
    8.8333  -16.1228   22.3475 C   0  0  0  0  0  0  0  0  0  0  0  0
   10.0872  -16.2003   22.2701 O   0  0  0  0  0  0  0  0  0  0  0  0
   11.1639  -14.7898   30.8646 O   0  0  0  0  0  0  0  0  0  0  0  0
   10.4659  -14.9079   29.6460 C   0  0  0  0  0  0  0  0  0  0  0  0
    9.9244  -13.7817   29.0595 C   0  0  0  0  0  0  0  0  0  0  0  0
    9.2326  -13.8821   27.8572 C   0  0  0  0  0  0  0  0  0  0  0  0
    9.0664  -15.0968   27.2178 C   0  0  0  0  0  0  0  0  0  0  0  0
    8.3379  -15.1887   25.9511 C   0  0  0  0  0  0  0  0  0  0  0  0
    9.1741  -15.6926   24.8023 C   0  0  2  0  0  0  0  0  0  0  0  0
    8.2977  -15.8691   23.6493 N   0  0  0  0  0  0  0  0  0  0  0  0
    9.9862  -16.8652   25.1074 C   0  0  0  0  0  0  0  0  0  0  0  0
   11.3325  -16.8344   25.4659 O   0  0  0  0  0  0  0  0  0  0  0  0
    9.6183  -16.2017   27.8277 C   0  0  0  0  0  0  0  0  0  0  0  0
   10.3066  -16.1097   29.0216 C   0  0  0  0  0  0  0  0  0  0  0  0
    9.4627  -17.9992   25.0507 O   0  0  0  0  0  0  0  0  0  0  0  0
  2  1  1  1
  2  3  1  0
  4  2  1  0
  5  4  2  0
  7  6  1  0
  7  8  1  0
  9  8  1  0
 10  9  1  1
 10 11  1  0
 11  4  1  0
 12 10  1  0
 12 21  1  0
 13 12  2  0
 15 14  1  0
 16 15  2  0
 17 16  1  0
 18 17  2  0
 18 24  1  0
 19 18  1  0
 20 22  1  0
 20 21  1  0
 20 19  1  1
 22 23  1  0
 24 25  2  0
 25 15  1  0
 26 22  2  0
M  END
$$$$
