AMY.pdb
     RDKit          3D

 26 26  0  0  1  0  0  0  0  0999 V2000
    8.3650  -18.3615   19.4658 C   0  0  0  0  0  0  0  0  0  0  0  0
    8.2189  -16.8560   19.3155 C   0  0  2  0  0  0  0  0  0  0  0  0
    8.9260  -16.4157   18.1325 N   0  0  0  0  0  0  0  0  0  0  0  0
    8.7692  -16.1321   20.4890 C   0  0  0  0  0  0  0  0  0  0  0  0
    9.9992  -15.9057   20.5379 O   0  0  0  0  0  0  0  0  0  0  0  0
    7.0264  -11.9642   27.0524 C   0  0  0  0  0  0  0  0  0  0  0  0
    6.4311  -12.9520   25.6809 S   0  0  0  0  0  0  0  0  0  0  0  0
    7.7633  -13.7041   24.7185 C   0  0  0  0  0  0  0  0  0  0  0  0
    7.2658  -14.4233   23.4874 C   0  0  0  0  0  0  0  0  0  0  0  0
    8.3943  -14.9975   22.7045 C   0  0  2  0  0  0  0  0  0  0  0  0
    7.9046  -15.7038   21.5446 N   0  0  0  0  0  0  0  0  0  0  0  0
    9.1936  -15.9812   23.5129 C   0  0  0  0  0  0  0  0  0  0  0  0
    8.9353  -17.2129   23.4985 O   0  0  0  0  0  0  0  0  0  0  0  0
    9.8360  -14.7493   31.0095 O   0  0  0  0  0  0  0  0  0  0  0  0
   10.3901  -15.0004   29.7383 C   0  0  0  0  0  0  0  0  0  0  0  0
   10.9711  -16.2253   29.4786 C   0  0  0  0  0  0  0  0  0  0  0  0
   11.5224  -16.4881   28.2291 C   0  0  0  0  0  0  0  0  0  0  0  0
   11.5071  -15.5440   27.2189 C   0  0  0  0  0  0  0  0  0  0  0  0
   12.0889  -15.8340   25.9070 C   0  0  0  0  0  0  0  0  0  0  0  0
   11.1561  -16.5641   24.9746 C   0  0  2  0  0  0  0  0  0  0  0  0
   10.2883  -15.5775   24.3404 N   0  0  0  0  0  0  0  0  0  0  0  0
   10.4344  -17.6767   25.5817 C   0  0  0  0  0  0  0  0  0  0  0  0
   10.9876  -18.9199   25.8826 O   0  0  0  0  0  0  0  0  0  0  0  0
   10.9203  -14.3320   27.5088 C   0  0  0  0  0  0  0  0  0  0  0  0
   10.3707  -14.0639   28.7472 C   0  0  0  0  0  0  0  0  0  0  0  0
    9.2248  -17.5352   25.8648 O   0  0  0  0  0  0  0  0  0  0  0  0
  2  1  1  1
  2  3  1  0
  4  2  1  0
  5  4  2  0
  7  6  1  0
  7  8  1  0
  9  8  1  0
 10  9  1  1
 10 11  1  0
 11  4  1  0
 12 10  1  0
 12 21  1  0
 13 12  2  0
 15 14  1  0
 16 15  2  0
 17 16  1  0
 18 17  2  0
 18 24  1  0
 19 18  1  0
 20 22  1  0
 20 21  1  0
 20 19  1  1
 22 23  1  0
 24 25  2  0
 25 15  1  0
 26 22  2  0
M  END
$$$$
