AMY.pdb
     RDKit          3D

 26 26  0  0  1  0  0  0  0  0999 V2000
    7.6505  -17.1270   19.0835 C   0  0  0  0  0  0  0  0  0  0  0  0
    7.8241  -15.6214   19.1994 C   0  0  2  0  0  0  0  0  0  0  0  0
    8.6057  -15.1358   18.0828 N   0  0  0  0  0  0  0  0  0  0  0  0
    8.5166  -15.2448   20.4573 C   0  0  0  0  0  0  0  0  0  0  0  0
    9.7659  -15.3066   20.5020 O   0  0  0  0  0  0  0  0  0  0  0  0
    6.0749  -12.6101   26.3336 C   0  0  0  0  0  0  0  0  0  0  0  0
    6.5400  -11.6590   24.8878 S   0  0  0  0  0  0  0  0  0  0  0  0
    6.9762  -12.6920   23.4703 C   0  0  0  0  0  0  0  0  0  0  0  0
    7.3829  -14.0915   23.8656 C   0  0  0  0  0  0  0  0  0  0  0  0
    8.3633  -14.6616   22.9012 C   0  0  2  0  0  0  0  0  0  0  0  0
    7.7645  -14.8205   21.5973 N   0  0  0  0  0  0  0  0  0  0  0  0
    8.8475  -16.0184   23.3307 C   0  0  0  0  0  0  0  0  0  0  0  0
    9.8561  -16.5572   22.8047 O   0  0  0  0  0  0  0  0  0  0  0  0
   11.9229  -15.8845   31.1894 O   0  0  0  0  0  0  0  0  0  0  0  0
   11.2743  -15.8055   29.9407 C   0  0  0  0  0  0  0  0  0  0  0  0
   11.4325  -16.8267   29.0254 C   0  0  0  0  0  0  0  0  0  0  0  0
   10.7991  -16.7631   27.7889 C   0  0  0  0  0  0  0  0  0  0  0  0
   10.0006  -15.6896   27.4398 C   0  0  0  0  0  0  0  0  0  0  0  0
    9.3374  -15.6359   26.1355 C   0  0  0  0  0  0  0  0  0  0  0  0
    8.8208  -16.9697   25.6592 C   0  0  2  0  0  0  0  0  0  0  0  0
    8.1946  -16.7720   24.3563 N   0  0  0  0  0  0  0  0  0  0  0  0
    7.9747  -17.6732   26.6165 C   0  0  0  0  0  0  0  0  0  0  0  0
    8.3718  -18.7687   27.3810 O   0  0  0  0  0  0  0  0  0  0  0  0
    9.8623  -14.6871   28.3742 C   0  0  0  0  0  0  0  0  0  0  0  0
   10.4882  -14.7433   29.6042 C   0  0  0  0  0  0  0  0  0  0  0  0
    6.7974  -17.2880   26.7859 O   0  0  0  0  0  0  0  0  0  0  0  0
  2  1  1  6
  2  3  1  0
  4  2  1  0
  5  4  2  0
  7  6  1  0
  7  8  1  0
  9  8  1  0
 10  9  1  1
 10 11  1  0
 11  4  1  0
 12 10  1  0
 12 21  1  0
 13 12  2  0
 15 14  1  0
 16 15  2  0
 17 16  1  0
 18 17  2  0
 18 24  1  0
 19 18  1  0
 20 22  1  0
 20 21  1  0
 20 19  1  1
 22 23  1  0
 24 25  2  0
 25 15  1  0
 26 22  2  0
M  END
$$$$
