AMY.pdb
     RDKit          3D

 26 26  0  0  1  0  0  0  0  0999 V2000
    7.1763  -16.4040   19.3013 C   0  0  0  0  0  0  0  0  0  0  0  0
    7.0063  -14.9831   19.8137 C   0  0  2  0  0  0  0  0  0  0  0  0
    7.2618  -14.0467   18.7408 N   0  0  0  0  0  0  0  0  0  0  0  0
    7.9407  -14.6872   20.9287 C   0  0  0  0  0  0  0  0  0  0  0  0
    9.0832  -14.2518   20.6612 O   0  0  0  0  0  0  0  0  0  0  0  0
    6.9328  -11.6634   27.1478 C   0  0  0  0  0  0  0  0  0  0  0  0
    5.9492  -12.4856   25.8958 S   0  0  0  0  0  0  0  0  0  0  0  0
    6.9091  -12.9620   24.4403 C   0  0  0  0  0  0  0  0  0  0  0  0
    7.6273  -14.2788   24.6147 C   0  0  0  0  0  0  0  0  0  0  0  0
    8.4137  -14.6299   23.4004 C   0  0  2  0  0  0  0  0  0  0  0  0
    7.5383  -14.8991   22.2846 N   0  0  0  0  0  0  0  0  0  0  0  0
    9.2492  -15.8618   23.6108 C   0  0  0  0  0  0  0  0  0  0  0  0
    8.7308  -17.0058   23.6928 O   0  0  0  0  0  0  0  0  0  0  0  0
   11.1997  -16.3060   31.4196 O   0  0  0  0  0  0  0  0  0  0  0  0
   11.2361  -15.9921   30.0462 C   0  0  0  0  0  0  0  0  0  0  0  0
   10.4855  -14.9365   29.5687 C   0  0  0  0  0  0  0  0  0  0  0  0
   10.5107  -14.6147   28.2160 C   0  0  0  0  0  0  0  0  0  0  0  0
   11.2781  -15.3315   27.3163 C   0  0  0  0  0  0  0  0  0  0  0  0
   11.2976  -14.9810   25.8949 C   0  0  0  0  0  0  0  0  0  0  0  0
   11.3403  -16.1736   24.9736 C   0  0  2  0  0  0  0  0  0  0  0  0
   10.6736  -15.8065   23.7289 N   0  0  0  0  0  0  0  0  0  0  0  0
   10.8472  -17.4149   25.5598 C   0  0  0  0  0  0  0  0  0  0  0  0
    9.5233  -17.6589   25.9198 O   0  0  0  0  0  0  0  0  0  0  0  0
   12.0157  -16.3785   27.8232 C   0  0  0  0  0  0  0  0  0  0  0  0
   11.9957  -16.7040   29.1654 C   0  0  0  0  0  0  0  0  0  0  0  0
   11.6503  -18.3503   25.7681 O   0  0  0  0  0  0  0  0  0  0  0  0
  2  1  1  6
  2  3  1  0
  4  2  1  0
  5  4  2  0
  7  6  1  0
  7  8  1  0
  9  8  1  0
 10  9  1  1
 10 11  1  0
 11  4  1  0
 12 10  1  0
 12 21  1  0
 13 12  2  0
 15 14  1  0
 16 15  2  0
 17 16  1  0
 18 17  2  0
 18 24  1  0
 19 18  1  0
 20 22  1  0
 20 21  1  0
 20 19  1  1
 22 23  1  0
 24 25  2  0
 25 15  1  0
 26 22  2  0
M  END
$$$$
