AMY.pdb
     RDKit          3D

 26 26  0  0  1  0  0  0  0  0999 V2000
    7.9219  -14.3233   19.7115 C   0  0  0  0  0  0  0  0  0  0  0  0
    8.2238  -15.5000   20.6251 C   0  0  2  0  0  0  0  0  0  0  0  0
    7.0414  -16.3223   20.7637 N   0  0  0  0  0  0  0  0  0  0  0  0
    8.6454  -15.0510   21.9759 C   0  0  0  0  0  0  0  0  0  0  0  0
    9.7316  -14.4415   22.0991 O   0  0  0  0  0  0  0  0  0  0  0  0
    6.2834  -10.6022   27.0093 C   0  0  0  0  0  0  0  0  0  0  0  0
    6.3048  -12.3898   26.8866 S   0  0  0  0  0  0  0  0  0  0  0  0
    7.1146  -12.9875   25.3854 C   0  0  0  0  0  0  0  0  0  0  0  0
    7.0854  -14.4921   25.2606 C   0  0  0  0  0  0  0  0  0  0  0  0
    8.2367  -14.9899   24.4589 C   0  0  2  0  0  0  0  0  0  0  0  0
    7.8216  -15.3142   23.1149 N   0  0  0  0  0  0  0  0  0  0  0  0
    8.8319  -16.2382   25.0483 C   0  0  0  0  0  0  0  0  0  0  0  0
    8.2579  -17.3540   24.9502 O   0  0  0  0  0  0  0  0  0  0  0  0
   11.9957  -17.9041   20.0306 O   0  0  0  0  0  0  0  0  0  0  0  0
   11.9896  -17.8644   21.4394 C   0  0  0  0  0  0  0  0  0  0  0  0
   12.4227  -16.7268   22.0905 C   0  0  0  0  0  0  0  0  0  0  0  0
   12.4230  -16.6725   23.4801 C   0  0  0  0  0  0  0  0  0  0  0  0
   11.9953  -17.7416   24.2457 C   0  0  0  0  0  0  0  0  0  0  0  0
   11.9984  -17.6708   25.7081 C   0  0  0  0  0  0  0  0  0  0  0  0
   10.6330  -17.4586   26.3109 C   0  0  2  0  0  0  0  0  0  0  0  0
   10.0780  -16.2311   25.7506 N   0  0  0  0  0  0  0  0  0  0  0  0
   10.5951  -17.5084   27.7681 C   0  0  0  0  0  0  0  0  0  0  0  0
   10.1213  -16.4886   28.5913 O   0  0  0  0  0  0  0  0  0  0  0  0
   11.5692  -18.8619   23.5670 C   0  0  0  0  0  0  0  0  0  0  0  0
   11.5660  -18.9231   22.1872 C   0  0  0  0  0  0  0  0  0  0  0  0
   11.0140  -18.5311   28.3529 O   0  0  0  0  0  0  0  0  0  0  0  0
  2  1  1  6
  2  3  1  0
  4  2  1  0
  5  4  2  0
  7  6  1  0
  7  8  1  0
  9  8  1  0
 10  9  1  1
 10 11  1  0
 11  4  1  0
 12 10  1  0
 12 21  1  0
 13 12  2  0
 15 14  1  0
 16 15  2  0
 17 16  1  0
 18 17  2  0
 18 24  1  0
 19 18  1  0
 20 22  1  0
 20 21  1  0
 20 19  1  1
 22 23  1  0
 24 25  2  0
 25 15  1  0
 26 22  2  0
M  END
$$$$
