AMY.pdb
     RDKit          3D

 26 26  0  0  1  0  0  0  0  0999 V2000
    8.7167  -20.0400   20.8216 C   0  0  0  0  0  0  0  0  0  0  0  0
    8.8757  -18.8697   19.8647 C   0  0  2  0  0  0  0  0  0  0  0  0
    9.9221  -19.1629   18.9094 N   0  0  0  0  0  0  0  0  0  0  0  0
    9.2308  -17.6195   20.5822 C   0  0  0  0  0  0  0  0  0  0  0  0
   10.4364  -17.3771   20.8150 O   0  0  0  0  0  0  0  0  0  0  0  0
    8.6391  -11.6531   20.7852 C   0  0  0  0  0  0  0  0  0  0  0  0
    8.2321  -12.8641   19.5287 S   0  0  0  0  0  0  0  0  0  0  0  0
    7.1710  -14.1924   20.1421 C   0  0  0  0  0  0  0  0  0  0  0  0
    7.4121  -14.5130   21.5980 C   0  0  0  0  0  0  0  0  0  0  0  0
    8.5001  -15.5164   21.7568 C   0  0  2  0  0  0  0  0  0  0  0  0
    8.2086  -16.7107   21.0001 N   0  0  0  0  0  0  0  0  0  0  0  0
    8.6710  -15.9354   23.1905 C   0  0  0  0  0  0  0  0  0  0  0  0
    8.0475  -16.9176   23.6708 O   0  0  0  0  0  0  0  0  0  0  0  0
    5.3449  -11.2921   26.8135 O   0  0  0  0  0  0  0  0  0  0  0  0
    6.0977  -12.4687   26.6265 C   0  0  0  0  0  0  0  0  0  0  0  0
    7.4562  -12.4541   26.8713 C   0  0  0  0  0  0  0  0  0  0  0  0
    8.2127  -13.6071   26.6910 C   0  0  0  0  0  0  0  0  0  0  0  0
    7.6372  -14.7905   26.2664 C   0  0  0  0  0  0  0  0  0  0  0  0
    8.4445  -15.9981   26.0827 C   0  0  0  0  0  0  0  0  0  0  0  0
    9.7835  -15.7439   25.4384 C   0  0  2  0  0  0  0  0  0  0  0  0
    9.5471  -15.2467   24.0872 N   0  0  0  0  0  0  0  0  0  0  0  0
   10.7115  -16.8676   25.4965 C   0  0  0  0  0  0  0  0  0  0  0  0
   11.3741  -17.4153   24.3996 O   0  0  0  0  0  0  0  0  0  0  0  0
    6.2802  -14.7732   26.0308 C   0  0  0  0  0  0  0  0  0  0  0  0
    5.5225  -13.6320   26.2076 C   0  0  0  0  0  0  0  0  0  0  0  0
   10.9508  -17.4025   26.6010 O   0  0  0  0  0  0  0  0  0  0  0  0
  2  1  1  1
  2  3  1  0
  4  2  1  0
  5  4  2  0
  7  6  1  0
  7  8  1  0
  9  8  1  0
 10  9  1  1
 10 11  1  0
 11  4  1  0
 12 10  1  0
 12 21  1  0
 13 12  2  0
 15 14  1  0
 16 15  2  0
 17 16  1  0
 18 17  2  0
 18 24  1  0
 19 18  1  0
 20 22  1  0
 20 21  1  0
 20 19  1  6
 22 23  1  0
 24 25  2  0
 25 15  1  0
 26 22  2  0
M  END
$$$$
