AMY.pdb
     RDKit          3D

 26 26  0  0  1  0  0  0  0  0999 V2000
   10.8643  -18.0099   20.5205 C   0  0  0  0  0  0  0  0  0  0  0  0
   10.7603  -16.5036   20.3446 C   0  0  2  0  0  0  0  0  0  0  0  0
   12.0456  -15.9720   19.9458 N   0  0  0  0  0  0  0  0  0  0  0  0
   10.3433  -15.8326   21.6015 C   0  0  0  0  0  0  0  0  0  0  0  0
   11.2230  -15.4741   22.4165 O   0  0  0  0  0  0  0  0  0  0  0  0
    6.5118  -11.7221   26.2747 C   0  0  0  0  0  0  0  0  0  0  0  0
    6.8012  -13.2539   25.3910 S   0  0  0  0  0  0  0  0  0  0  0  0
    7.0509  -13.0123   23.6173 C   0  0  0  0  0  0  0  0  0  0  0  0
    7.1736  -14.3121   22.8583 C   0  0  0  0  0  0  0  0  0  0  0  0
    8.5068  -14.9387   23.0726 C   0  0  2  0  0  0  0  0  0  0  0  0
    8.9581  -15.6031   21.8731 N   0  0  0  0  0  0  0  0  0  0  0  0
    8.4705  -15.9745   24.1616 C   0  0  0  0  0  0  0  0  0  0  0  0
    8.2517  -17.1885   23.9119 O   0  0  0  0  0  0  0  0  0  0  0  0
   13.0300  -17.2361   31.1055 O   0  0  0  0  0  0  0  0  0  0  0  0
   11.9017  -16.9253   30.3203 C   0  0  0  0  0  0  0  0  0  0  0  0
   11.8839  -15.7562   29.5864 C   0  0  0  0  0  0  0  0  0  0  0  0
   10.7775  -15.4355   28.8071 C   0  0  0  0  0  0  0  0  0  0  0  0
    9.6735  -16.2656   28.7422 C   0  0  0  0  0  0  0  0  0  0  0  0
    8.5160  -15.9175   27.9160 C   0  0  0  0  0  0  0  0  0  0  0  0
    8.4770  -16.6326   26.5894 C   0  0  2  0  0  0  0  0  0  0  0  0
    8.6816  -15.6431   25.5370 N   0  0  0  0  0  0  0  0  0  0  0  0
    7.3031  -17.4737   26.3842 C   0  0  0  0  0  0  0  0  0  0  0  0
    7.2013  -18.8110   26.7628 O   0  0  0  0  0  0  0  0  0  0  0  0
    9.7217  -17.4243   29.4854 C   0  0  0  0  0  0  0  0  0  0  0  0
   10.8169  -17.7495   30.2616 C   0  0  0  0  0  0  0  0  0  0  0  0
    6.2951  -16.9861   25.8278 O   0  0  0  0  0  0  0  0  0  0  0  0
  2  1  1  1
  2  3  1  0
  4  2  1  0
  5  4  2  0
  7  6  1  0
  7  8  1  0
  9  8  1  0
 10  9  1  6
 10 11  1  0
 11  4  1  0
 12 10  1  0
 12 21  1  0
 13 12  2  0
 15 14  1  0
 16 15  2  0
 17 16  1  0
 18 17  2  0
 18 24  1  0
 19 18  1  0
 20 22  1  0
 20 21  1  0
 20 19  1  1
 22 23  1  0
 24 25  2  0
 25 15  1  0
 26 22  2  0
M  END
$$$$
