YVA.pdb
     RDKit          3D

 25 25  0  0  1  0  0  0  0  0999 V2000
   25.4968  -37.3284  -18.5580 O   0  0  0  0  0  0  0  0  0  0  0  0
   25.3858  -36.4717  -17.4571 C   0  0  0  0  0  0  0  0  0  0  0  0
   25.5831  -35.1124  -17.5756 C   0  0  0  0  0  0  0  0  0  0  0  0
   25.4713  -34.2689  -16.4790 C   0  0  0  0  0  0  0  0  0  0  0  0
   25.1574  -34.7570  -15.2219 C   0  0  0  0  0  0  0  0  0  0  0  0
   25.0339  -33.8677  -14.0379 C   0  0  0  0  0  0  0  0  0  0  0  0
   23.5877  -33.5981  -13.6892 C   0  0  2  0  0  0  0  0  0  0  0  0
   22.9741  -32.7527  -14.6642 N   0  0  0  0  0  0  0  0  0  0  0  0
   23.6339  -32.9055  -12.3322 C   0  0  0  0  0  0  0  0  0  0  0  0
   23.6218  -31.6592  -12.3389 O   0  0  0  0  0  0  0  0  0  0  0  0
   24.9629  -36.1216  -15.1206 C   0  0  0  0  0  0  0  0  0  0  0  0
   25.0731  -36.9636  -16.2084 C   0  0  0  0  0  0  0  0  0  0  0  0
   22.2580  -33.2223   -7.7355 C   0  0  0  0  0  0  0  0  0  0  0  0
   22.3050  -33.7557   -9.1710 C   0  0  1  0  0  0  0  0  0  0  0  0
   21.1415  -32.9873   -9.8379 C   0  0  0  0  0  0  0  0  0  0  0  0
   23.5936  -33.3039   -9.8239 C   0  0  2  0  0  0  0  0  0  0  0  0
   23.6856  -33.7082  -11.2015 N   0  0  0  0  0  0  0  0  0  0  0  0
   24.8326  -33.5956   -9.1590 C   0  0  0  0  0  0  0  0  0  0  0  0
   25.1082  -34.8551   -8.9922 O   0  0  0  0  0  0  0  0  0  0  0  0
   28.0521  -32.0689   -7.9085 C   0  0  0  0  0  0  0  0  0  0  0  0
   26.9787  -33.1364   -7.9600 C   0  0  2  0  0  0  0  0  0  0  0  0
   25.8065  -32.6976   -8.6603 N   0  0  0  0  0  0  0  0  0  0  0  0
   26.6850  -33.6555   -6.6019 C   0  0  0  0  0  0  0  0  0  0  0  0
   25.6645  -33.3114   -5.9535 O   0  0  0  0  0  0  0  0  0  0  0  0
   27.5383  -34.5562   -5.9830 O   0  0  0  0  0  0  0  0  0  0  0  0
  2  1  1  0
  3  2  2  0
  4  3  1  0
  5 11  1  0
  5  4  2  0
  6  7  1  0
  6  5  1  0
  7  8  1  6
  9  7  1  0
 10  9  2  0
 11 12  2  0
 12  2  1  0
 14 16  1  0
 14 13  1  1
 15 14  1  0
 16 17  1  6
 17  9  1  0
 18 22  1  0
 18 16  1  0
 19 18  2  0
 21 20  1  1
 21 23  1  0
 21 22  1  0
 23 25  1  0
 24 23  2  0
M  END
$$$$
