YVA.pdb
     RDKit          3D

 25 25  0  0  1  0  0  0  0  0999 V2000
   16.5797  -10.0139  -23.6147 O   0  0  0  0  0  0  0  0  0  0  0  0
   16.9962   -9.9476  -22.2804 C   0  0  0  0  0  0  0  0  0  0  0  0
   18.2748   -9.5603  -21.9402 C   0  0  0  0  0  0  0  0  0  0  0  0
   18.6807   -9.4970  -20.6144 C   0  0  0  0  0  0  0  0  0  0  0  0
   17.8193   -9.8197  -19.5796 C   0  0  0  0  0  0  0  0  0  0  0  0
   18.2379   -9.7570  -18.1552 C   0  0  0  0  0  0  0  0  0  0  0  0
   19.1508  -10.9051  -17.7892 C   0  0  2  0  0  0  0  0  0  0  0  0
   18.4555  -12.1521  -17.8484 N   0  0  0  0  0  0  0  0  0  0  0  0
   19.6009  -10.6094  -16.3633 C   0  0  0  0  0  0  0  0  0  0  0  0
   18.9517  -11.1510  -15.4476 O   0  0  0  0  0  0  0  0  0  0  0  0
   16.5415  -10.2059  -19.9379 C   0  0  0  0  0  0  0  0  0  0  0  0
   16.1341  -10.2701  -21.2548 C   0  0  0  0  0  0  0  0  0  0  0  0
   23.6982   -9.5645  -15.7167 C   0  0  0  0  0  0  0  0  0  0  0  0
   22.6474  -10.1300  -14.7558 C   0  0  1  0  0  0  0  0  0  0  0  0
   23.2109   -9.7097  -13.3794 C   0  0  0  0  0  0  0  0  0  0  0  0
   21.3403   -9.3962  -14.9654 C   0  0  2  0  0  0  0  0  0  0  0  0
   20.6903   -9.7667  -16.1942 N   0  0  0  0  0  0  0  0  0  0  0  0
   21.3343   -7.9658  -14.8369 C   0  0  0  0  0  0  0  0  0  0  0  0
   21.9530   -7.3061  -15.7707 O   0  0  0  0  0  0  0  0  0  0  0  0
   19.6245   -5.1121  -13.0971 C   0  0  0  0  0  0  0  0  0  0  0  0
   20.7782   -5.7329  -13.8574 C   0  0  2  0  0  0  0  0  0  0  0  0
   20.7400   -7.1665  -13.8311 N   0  0  0  0  0  0  0  0  0  0  0  0
   22.0739   -5.1769  -13.3969 C   0  0  0  0  0  0  0  0  0  0  0  0
   22.7359   -5.6929  -12.4611 O   0  0  0  0  0  0  0  0  0  0  0  0
   22.6159   -4.0469  -13.9901 O   0  0  0  0  0  0  0  0  0  0  0  0
  2  1  1  0
  3  2  2  0
  4  3  1  0
  5 11  1  0
  5  4  2  0
  6  7  1  0
  6  5  1  0
  7  8  1  1
  9  7  1  0
 10  9  2  0
 11 12  2  0
 12  2  1  0
 14 16  1  0
 14 13  1  6
 15 14  1  0
 16 17  1  6
 17  9  1  0
 18 22  1  0
 18 16  1  0
 19 18  2  0
 21 20  1  1
 21 23  1  0
 21 22  1  0
 23 25  1  0
 24 23  2  0
M  END
$$$$
