YVA.pdb
     RDKit          3D

 25 25  0  0  1  0  0  0  0  0999 V2000
   19.9149  -14.6621  -18.4365 O   0  0  0  0  0  0  0  0  0  0  0  0
   20.6077  -15.6223  -17.6906 C   0  0  0  0  0  0  0  0  0  0  0  0
   21.8729  -15.3815  -17.1988 C   0  0  0  0  0  0  0  0  0  0  0  0
   22.5538  -16.3388  -16.4598 C   0  0  0  0  0  0  0  0  0  0  0  0
   21.9914  -17.5741  -16.1860 C   0  0  0  0  0  0  0  0  0  0  0  0
   22.7069  -18.6098  -15.3963 C   0  0  0  0  0  0  0  0  0  0  0  0
   23.7868  -19.2865  -16.2095 C   0  0  2  0  0  0  0  0  0  0  0  0
   23.2206  -20.0843  -17.2510 N   0  0  0  0  0  0  0  0  0  0  0  0
   24.5385  -20.1610  -15.2127 C   0  0  0  0  0  0  0  0  0  0  0  0
   24.0887  -21.3079  -15.0235 O   0  0  0  0  0  0  0  0  0  0  0  0
   20.7228  -17.7991  -16.6863 C   0  0  0  0  0  0  0  0  0  0  0  0
   20.0425  -16.8500  -17.4215 C   0  0  0  0  0  0  0  0  0  0  0  0
   28.8839  -20.7737  -13.0011 C   0  0  0  0  0  0  0  0  0  0  0  0
   28.0073  -20.0280  -14.0125 C   0  0  1  0  0  0  0  0  0  0  0  0
   28.3072  -20.7914  -15.3225 C   0  0  0  0  0  0  0  0  0  0  0  0
   26.5514  -20.2550  -13.6664 C   0  0  2  0  0  0  0  0  0  0  0  0
   25.6573  -19.6186  -14.5967 N   0  0  0  0  0  0  0  0  0  0  0  0
   26.1190  -19.9773  -12.3254 C   0  0  0  0  0  0  0  0  0  0  0  0
   26.1306  -18.7271  -11.9693 O   0  0  0  0  0  0  0  0  0  0  0  0
   24.0196  -21.0381   -9.5293 C   0  0  0  0  0  0  0  0  0  0  0  0
   25.3400  -20.4633   -9.9992 C   0  0  2  0  0  0  0  0  0  0  0  0
   25.6731  -20.8801  -11.3306 N   0  0  0  0  0  0  0  0  0  0  0  0
   26.4159  -20.7402   -9.0164 C   0  0  0  0  0  0  0  0  0  0  0  0
   27.3466  -21.5536   -9.2452 O   0  0  0  0  0  0  0  0  0  0  0  0
   26.4385  -20.1023   -7.7856 O   0  0  0  0  0  0  0  0  0  0  0  0
  2  1  1  0
  3  2  2  0
  4  3  1  0
  5 11  1  0
  5  4  2  0
  6  7  1  0
  6  5  1  0
  7  8  1  6
  9  7  1  0
 10  9  2  0
 11 12  2  0
 12  2  1  0
 14 16  1  0
 14 13  1  1
 15 14  1  0
 16 17  1  6
 17  9  1  0
 18 22  1  0
 18 16  1  0
 19 18  2  0
 21 20  1  1
 21 23  1  0
 21 22  1  0
 23 25  1  0
 24 23  2  0
M  END
$$$$
