YVA.pdb
     RDKit          3D

 25 25  0  0  1  0  0  0  0  0999 V2000
   27.5116  -19.8967   -6.6044 O   0  0  0  0  0  0  0  0  0  0  0  0
   27.2126  -20.0339   -7.9646 C   0  0  0  0  0  0  0  0  0  0  0  0
   25.9423  -19.8118   -8.4519 C   0  0  0  0  0  0  0  0  0  0  0  0
   25.6533  -19.9499   -9.8024 C   0  0  0  0  0  0  0  0  0  0  0  0
   26.6277  -20.3160  -10.7153 C   0  0  0  0  0  0  0  0  0  0  0  0
   26.3349  -20.4680  -12.1642 C   0  0  0  0  0  0  0  0  0  0  0  0
   25.0513  -21.2315  -12.3986 C   0  0  2  0  0  0  0  0  0  0  0  0
   25.1990  -22.6062  -12.0374 N   0  0  0  0  0  0  0  0  0  0  0  0
   24.7812  -21.0957  -13.8925 C   0  0  0  0  0  0  0  0  0  0  0  0
   25.2009  -22.0142  -14.6231 O   0  0  0  0  0  0  0  0  0  0  0  0
   27.8955  -20.5348  -10.2103 C   0  0  0  0  0  0  0  0  0  0  0  0
   28.1869  -20.3986   -8.8684 C   0  0  0  0  0  0  0  0  0  0  0  0
   21.7394  -18.9439  -17.0965 C   0  0  0  0  0  0  0  0  0  0  0  0
   22.1650  -19.2377  -15.6543 C   0  0  1  0  0  0  0  0  0  0  0  0
   21.2948  -20.4666  -15.3061 C   0  0  0  0  0  0  0  0  0  0  0  0
   23.6132  -19.6777  -15.6465 C   0  0  2  0  0  0  0  0  0  0  0  0
   24.0942  -19.9694  -14.3224 N   0  0  0  0  0  0  0  0  0  0  0  0
   24.5760  -18.8632  -16.3335 C   0  0  0  0  0  0  0  0  0  0  0  0
   24.6321  -17.6163  -15.9700 O   0  0  0  0  0  0  0  0  0  0  0  0
   27.7068  -18.8999  -18.3310 C   0  0  0  0  0  0  0  0  0  0  0  0
   26.3637  -18.2904  -17.9859 C   0  0  2  0  0  0  0  0  0  0  0  0
   25.4837  -19.2313  -17.3554 N   0  0  0  0  0  0  0  0  0  0  0  0
   25.7610  -17.6350  -19.1723 C   0  0  0  0  0  0  0  0  0  0  0  0
   24.6950  -18.0417  -19.6999 O   0  0  0  0  0  0  0  0  0  0  0  0
   26.3593  -16.5290  -19.7565 O   0  0  0  0  0  0  0  0  0  0  0  0
  2  1  1  0
  3  2  2  0
  4  3  1  0
  5 11  1  0
  5  4  2  0
  6  7  1  0
  6  5  1  0
  7  8  1  6
  9  7  1  0
 10  9  2  0
 11 12  2  0
 12  2  1  0
 14 16  1  0
 14 13  1  6
 15 14  1  0
 16 17  1  1
 17  9  1  0
 18 22  1  0
 18 16  1  0
 19 18  2  0
 21 20  1  6
 21 23  1  0
 21 22  1  0
 23 25  1  0
 24 23  2  0
M  END
$$$$
