YVA.pdb
     RDKit          3D

 25 25  0  0  1  0  0  0  0  0999 V2000
   23.9784  -21.4448   -7.7772 O   0  0  0  0  0  0  0  0  0  0  0  0
   23.9500  -21.0302   -9.1135 C   0  0  0  0  0  0  0  0  0  0  0  0
   22.8790  -20.3342   -9.6323 C   0  0  0  0  0  0  0  0  0  0  0  0
   22.8580  -19.9263  -10.9587 C   0  0  0  0  0  0  0  0  0  0  0  0
   23.9106  -20.2011  -11.8152 C   0  0  0  0  0  0  0  0  0  0  0  0
   23.9039  -19.7715  -13.2376 C   0  0  0  0  0  0  0  0  0  0  0  0
   22.6610  -20.2419  -13.9584 C   0  0  2  0  0  0  0  0  0  0  0  0
   22.5453  -21.6652  -13.9056 N   0  0  0  0  0  0  0  0  0  0  0  0
   22.8400  -19.7716  -15.3971 C   0  0  0  0  0  0  0  0  0  0  0  0
   23.2517  -20.6169  -16.2154 O   0  0  0  0  0  0  0  0  0  0  0  0
   24.9761  -20.8995  -11.2793 C   0  0  0  0  0  0  0  0  0  0  0  0
   25.0008  -21.3068   -9.9610 C   0  0  0  0  0  0  0  0  0  0  0  0
   21.2429  -16.5859  -18.7102 C   0  0  0  0  0  0  0  0  0  0  0  0
   21.1661  -17.2382  -17.3260 C   0  0  1  0  0  0  0  0  0  0  0  0
   20.2129  -18.4274  -17.5834 C   0  0  0  0  0  0  0  0  0  0  0  0
   22.5247  -17.8017  -16.9693 C   0  0  2  0  0  0  0  0  0  0  0  0
   22.5337  -18.4491  -15.6846 N   0  0  0  0  0  0  0  0  0  0  0  0
   23.6686  -16.9398  -17.0754 C   0  0  0  0  0  0  0  0  0  0  0  0
   23.5757  -15.7912  -16.4738 O   0  0  0  0  0  0  0  0  0  0  0  0
   27.3179  -16.8125  -17.8226 C   0  0  0  0  0  0  0  0  0  0  0  0
   25.9384  -16.1870  -17.8072 C   0  0  2  0  0  0  0  0  0  0  0  0
   24.8951  -17.1691  -17.7439 N   0  0  0  0  0  0  0  0  0  0  0  0
   25.7765  -15.2380  -18.9357 C   0  0  0  0  0  0  0  0  0  0  0  0
   25.0487  -15.4885  -19.9296 O   0  0  0  0  0  0  0  0  0  0  0  0
   26.4322  -14.0164  -18.9395 O   0  0  0  0  0  0  0  0  0  0  0  0
  2  1  1  0
  3  2  2  0
  4  3  1  0
  5 11  1  0
  5  4  2  0
  6  7  1  0
  6  5  1  0
  7  8  1  6
  9  7  1  0
 10  9  2  0
 11 12  2  0
 12  2  1  0
 14 16  1  0
 14 13  1  6
 15 14  1  0
 16 17  1  1
 17  9  1  0
 18 22  1  0
 18 16  1  0
 19 18  2  0
 21 20  1  6
 21 23  1  0
 21 22  1  0
 23 25  1  0
 24 23  2  0
M  END
$$$$
