YVA.pdb
     RDKit          3D

 25 25  0  0  1  0  0  0  0  0999 V2000
   12.2115   -9.3703  -19.4920 O   0  0  0  0  0  0  0  0  0  0  0  0
   13.2849   -9.3175  -18.5956 C   0  0  0  0  0  0  0  0  0  0  0  0
   13.1942   -9.8485  -17.3266 C   0  0  0  0  0  0  0  0  0  0  0  0
   14.2631   -9.7923  -16.4431 C   0  0  0  0  0  0  0  0  0  0  0  0
   15.4635   -9.2012  -16.7990 C   0  0  0  0  0  0  0  0  0  0  0  0
   16.6174   -9.1329  -15.8652 C   0  0  0  0  0  0  0  0  0  0  0  0
   17.6560  -10.1851  -16.1813 C   0  0  2  0  0  0  0  0  0  0  0  0
   17.1568  -11.4962  -15.9102 N   0  0  0  0  0  0  0  0  0  0  0  0
   18.8334   -9.8606  -15.2692 C   0  0  0  0  0  0  0  0  0  0  0  0
   18.8118  -10.3606  -14.1278 O   0  0  0  0  0  0  0  0  0  0  0  0
   15.5376   -8.6739  -18.0744 C   0  0  0  0  0  0  0  0  0  0  0  0
   14.4771   -8.7278  -18.9558 C   0  0  0  0  0  0  0  0  0  0  0  0
   22.0159  -10.8430  -15.6675 C   0  0  0  0  0  0  0  0  0  0  0  0
   22.2681   -9.3318  -15.6761 C   0  0  1  0  0  0  0  0  0  0  0  0
   22.3516   -9.0282  -17.1892 C   0  0  0  0  0  0  0  0  0  0  0  0
   21.0476   -8.6242  -15.1279 C   0  0  2  0  0  0  0  0  0  0  0  0
   19.8317   -9.0399  -15.7746 N   0  0  0  0  0  0  0  0  0  0  0  0
   21.0735   -7.1909  -15.0402 C   0  0  0  0  0  0  0  0  0  0  0  0
   20.8093   -6.5470  -16.1381 O   0  0  0  0  0  0  0  0  0  0  0  0
   22.6237   -4.3796  -14.5369 C   0  0  0  0  0  0  0  0  0  0  0  0
   21.3323   -4.9412  -13.9790 C   0  0  2  0  0  0  0  0  0  0  0  0
   21.3432   -6.3741  -13.9160 N   0  0  0  0  0  0  0  0  0  0  0  0
   20.1614   -4.3999  -14.7111 C   0  0  0  0  0  0  0  0  0  0  0  0
   19.9221   -4.6893  -15.9108 O   0  0  0  0  0  0  0  0  0  0  0  0
   19.2690   -3.5386  -14.0913 O   0  0  0  0  0  0  0  0  0  0  0  0
  2  1  1  0
  3  2  2  0
  4  3  1  0
  5 11  1  0
  5  4  2  0
  6  7  1  0
  6  5  1  0
  7  8  1  1
  9  7  1  0
 10  9  2  0
 11 12  2  0
 12  2  1  0
 14 16  1  0
 14 13  1  6
 15 14  1  0
 16 17  1  6
 17  9  1  0
 18 22  1  0
 18 16  1  0
 19 18  2  0
 21 20  1  6
 21 23  1  0
 21 22  1  0
 23 25  1  0
 24 23  2  0
M  END
$$$$
