YVA.pdb
     RDKit          3D

 25 25  0  0  1  0  0  0  0  0999 V2000
   30.6216   -7.2391  -17.7181 O   0  0  0  0  0  0  0  0  0  0  0  0
   31.7054   -7.5960  -16.9080 C   0  0  0  0  0  0  0  0  0  0  0  0
   32.1834   -8.8885  -16.8675 C   0  0  0  0  0  0  0  0  0  0  0  0
   33.2589   -9.2349  -16.0614 C   0  0  0  0  0  0  0  0  0  0  0  0
   33.8957   -8.2980  -15.2654 C   0  0  0  0  0  0  0  0  0  0  0  0
   35.0483   -8.6524  -14.3971 C   0  0  0  0  0  0  0  0  0  0  0  0
   36.3629   -8.2278  -15.0112 C   0  0  2  0  0  0  0  0  0  0  0  0
   36.6869   -9.0399  -16.1414 N   0  0  0  0  0  0  0  0  0  0  0  0
   37.3925   -8.4158  -13.9031 C   0  0  0  0  0  0  0  0  0  0  0  0
   37.9099   -9.5454  -13.8054 O   0  0  0  0  0  0  0  0  0  0  0  0
   33.4041   -7.0073  -15.3178 C   0  0  0  0  0  0  0  0  0  0  0  0
   32.3351   -6.6588  -16.1179 C   0  0  0  0  0  0  0  0  0  0  0  0
   40.0451   -5.4245  -13.2105 C   0  0  0  0  0  0  0  0  0  0  0  0
   40.0575   -6.8739  -12.7140 C   0  0  1  0  0  0  0  0  0  0  0  0
   41.0930   -6.8126  -11.5682 C   0  0  0  0  0  0  0  0  0  0  0  0
   38.7106   -7.1990  -12.1049 C   0  0  2  0  0  0  0  0  0  0  0  0
   37.6733   -7.3241  -13.0939 N   0  0  0  0  0  0  0  0  0  0  0  0
   38.2386   -6.3831  -11.0214 C   0  0  0  0  0  0  0  0  0  0  0  0
   37.6916   -5.2519  -11.3548 O   0  0  0  0  0  0  0  0  0  0  0  0
   37.8257   -6.2836   -7.2495 C   0  0  0  0  0  0  0  0  0  0  0  0
   37.7695   -5.7224   -8.6554 C   0  0  2  0  0  0  0  0  0  0  0  0
   38.2805   -6.6420   -9.6303 N   0  0  0  0  0  0  0  0  0  0  0  0
   38.4167   -4.3892   -8.7177 C   0  0  0  0  0  0  0  0  0  0  0  0
   39.6423   -4.2439   -8.9565 O   0  0  0  0  0  0  0  0  0  0  0  0
   37.6835   -3.2305   -8.5118 O   0  0  0  0  0  0  0  0  0  0  0  0
  2  1  1  0
  3  2  2  0
  4  3  1  0
  5 11  1  0
  5  4  2  0
  6  7  1  0
  6  5  1  0
  7  8  1  6
  9  7  1  0
 10  9  2  0
 11 12  2  0
 12  2  1  0
 14 16  1  0
 14 13  1  1
 15 14  1  0
 16 17  1  6
 17  9  1  0
 18 22  1  0
 18 16  1  0
 19 18  2  0
 21 20  1  1
 21 23  1  0
 21 22  1  0
 23 25  1  0
 24 23  2  0
M  END
$$$$
