YVA.pdb
     RDKit          3D

 25 25  0  0  1  0  0  0  0  0999 V2000
   16.4275  -24.3600  -11.4394 O   0  0  0  0  0  0  0  0  0  0  0  0
   17.6185  -23.7785  -11.8883 C   0  0  0  0  0  0  0  0  0  0  0  0
   17.8566  -23.5600  -13.2285 C   0  0  0  0  0  0  0  0  0  0  0  0
   19.0404  -22.9827  -13.6663 C   0  0  0  0  0  0  0  0  0  0  0  0
   20.0304  -22.6026  -12.7761 C   0  0  0  0  0  0  0  0  0  0  0  0
   21.3032  -21.9832  -13.2282 C   0  0  0  0  0  0  0  0  0  0  0  0
   21.6657  -20.7762  -12.3932 C   0  0  2  0  0  0  0  0  0  0  0  0
   20.7621  -19.6958  -12.6340 N   0  0  0  0  0  0  0  0  0  0  0  0
   23.0765  -20.4036  -12.8338 C   0  0  0  0  0  0  0  0  0  0  0  0
   23.2000  -19.3447  -13.4796 O   0  0  0  0  0  0  0  0  0  0  0  0
   19.7759  -22.8285  -11.4366 C   0  0  0  0  0  0  0  0  0  0  0  0
   18.6002  -23.4022  -10.9973 C   0  0  0  0  0  0  0  0  0  0  0  0
   27.7605  -21.1775  -11.5162 C   0  0  0  0  0  0  0  0  0  0  0  0
   26.2749  -21.5175  -11.3583 C   0  0  1  0  0  0  0  0  0  0  0  0
   25.8657  -20.6246  -10.1650 C   0  0  0  0  0  0  0  0  0  0  0  0
   25.5244  -21.0318  -12.5797 C   0  0  2  0  0  0  0  0  0  0  0  0
   24.1078  -21.2642  -12.4855 N   0  0  0  0  0  0  0  0  0  0  0  0
   25.9892  -21.4461  -13.8738 C   0  0  0  0  0  0  0  0  0  0  0  0
   25.8806  -22.7138  -14.1405 O   0  0  0  0  0  0  0  0  0  0  0  0
   27.2030  -20.1455  -17.2146 C   0  0  0  0  0  0  0  0  0  0  0  0
   26.9475  -21.2144  -16.1721 C   0  0  2  0  0  0  0  0  0  0  0  0
   26.5485  -20.6611  -14.9104 N   0  0  0  0  0  0  0  0  0  0  0  0
   28.1064  -22.1338  -16.0638 C   0  0  0  0  0  0  0  0  0  0  0  0
   29.0306  -21.9603  -15.2295 O   0  0  0  0  0  0  0  0  0  0  0  0
   28.2187  -23.2399  -16.8923 O   0  0  0  0  0  0  0  0  0  0  0  0
  2  1  1  0
  3  2  2  0
  4  3  1  0
  5 11  1  0
  5  4  2  0
  6  7  1  0
  6  5  1  0
  7  8  1  6
  9  7  1  0
 10  9  2  0
 11 12  2  0
 12  2  1  0
 14 16  1  0
 14 13  1  6
 15 14  1  0
 16 17  1  1
 17  9  1  0
 18 22  1  0
 18 16  1  0
 19 18  2  0
 21 20  1  6
 21 23  1  0
 21 22  1  0
 23 25  1  0
 24 23  2  0
M  END
$$$$
