YVA.pdb
     RDKit          3D

 25 25  0  0  1  0  0  0  0  0999 V2000
   16.6104  -12.9302  -22.7912 O   0  0  0  0  0  0  0  0  0  0  0  0
   16.9002  -12.3342  -21.5586 C   0  0  0  0  0  0  0  0  0  0  0  0
   16.2830  -12.7418  -20.3952 C   0  0  0  0  0  0  0  0  0  0  0  0
   16.5756  -12.1458  -19.1764 C   0  0  0  0  0  0  0  0  0  0  0  0
   17.4985  -11.1184  -19.0783 C   0  0  0  0  0  0  0  0  0  0  0  0
   17.8232  -10.4699  -17.7813 C   0  0  0  0  0  0  0  0  0  0  0  0
   19.0889  -11.0328  -17.1757 C   0  0  2  0  0  0  0  0  0  0  0  0
   18.9097  -12.3966  -16.7887 N   0  0  0  0  0  0  0  0  0  0  0  0
   19.3617  -10.1607  -15.9558 C   0  0  0  0  0  0  0  0  0  0  0  0
   18.7524  -10.4556  -14.9092 O   0  0  0  0  0  0  0  0  0  0  0  0
   18.1080  -10.7220  -20.2537 C   0  0  0  0  0  0  0  0  0  0  0  0
   17.8198  -11.3120  -21.4675 C   0  0  0  0  0  0  0  0  0  0  0  0
   22.5567   -7.2960  -13.7113 C   0  0  0  0  0  0  0  0  0  0  0  0
   22.1858   -8.2816  -14.8242 C   0  0  1  0  0  0  0  0  0  0  0  0
   22.4489   -9.6456  -14.1466 C   0  0  0  0  0  0  0  0  0  0  0  0
   20.7010   -8.1795  -15.0999 C   0  0  2  0  0  0  0  0  0  0  0  0
   20.2602   -9.1134  -16.1015 N   0  0  0  0  0  0  0  0  0  0  0  0
   20.1483   -6.8843  -15.3813 C   0  0  0  0  0  0  0  0  0  0  0  0
   20.5414   -6.3236  -16.4863 O   0  0  0  0  0  0  0  0  0  0  0  0
   17.4352   -4.4641  -14.4357 C   0  0  0  0  0  0  0  0  0  0  0  0
   18.7931   -4.8159  -15.0075 C   0  0  2  0  0  0  0  0  0  0  0  0
   19.2239   -6.1283  -14.6212 N   0  0  0  0  0  0  0  0  0  0  0  0
   19.7875   -3.7611  -14.6933 C   0  0  0  0  0  0  0  0  0  0  0  0
   20.5804   -3.8483  -13.7218 O   0  0  0  0  0  0  0  0  0  0  0  0
   19.8839   -2.6177  -15.4716 O   0  0  0  0  0  0  0  0  0  0  0  0
  2  1  1  0
  3  2  2  0
  4  3  1  0
  5 11  1  0
  5  4  2  0
  6  7  1  0
  6  5  1  0
  7  8  1  1
  9  7  1  0
 10  9  2  0
 11 12  2  0
 12  2  1  0
 14 16  1  0
 14 13  1  1
 15 14  1  0
 16 17  1  6
 17  9  1  0
 18 22  1  0
 18 16  1  0
 19 18  2  0
 21 20  1  1
 21 23  1  0
 21 22  1  0
 23 25  1  0
 24 23  2  0
M  END
$$$$
