YVA.pdb
     RDKit          3D

 25 25  0  0  1  0  0  0  0  0999 V2000
   28.3826  -20.0638   -3.6029 O   0  0  0  0  0  0  0  0  0  0  0  0
   28.0014  -19.9716   -4.9462 C   0  0  0  0  0  0  0  0  0  0  0  0
   28.7564  -19.2758   -5.8662 C   0  0  0  0  0  0  0  0  0  0  0  0
   28.3718  -19.1887   -7.1969 C   0  0  0  0  0  0  0  0  0  0  0  0
   27.2153  -19.7963   -7.6553 C   0  0  0  0  0  0  0  0  0  0  0  0
   26.7896  -19.7129   -9.0766 C   0  0  0  0  0  0  0  0  0  0  0  0
   26.9945  -21.0244   -9.8000 C   0  0  2  0  0  0  0  0  0  0  0  0
   28.3690  -21.4145   -9.7752 N   0  0  0  0  0  0  0  0  0  0  0  0
   26.5382  -20.7593  -11.2299 C   0  0  0  0  0  0  0  0  0  0  0  0
   27.3378  -20.1534  -11.9695 O   0  0  0  0  0  0  0  0  0  0  0  0
   26.4702  -20.4897   -6.7203 C   0  0  0  0  0  0  0  0  0  0  0  0
   26.8491  -20.5786   -5.3964 C   0  0  0  0  0  0  0  0  0  0  0  0
   24.0427  -23.6022  -12.7577 C   0  0  0  0  0  0  0  0  0  0  0  0
   24.7932  -22.5581  -13.5908 C   0  0  1  0  0  0  0  0  0  0  0  0
   23.9431  -22.5043  -14.8805 C   0  0  0  0  0  0  0  0  0  0  0  0
   24.6861  -21.2115  -12.9082 C   0  0  2  0  0  0  0  0  0  0  0  0
   25.2778  -21.2089  -11.5969 N   0  0  0  0  0  0  0  0  0  0  0  0
   23.3985  -20.5780  -12.8502 C   0  0  0  0  0  0  0  0  0  0  0  0
   22.6486  -20.9008  -11.8385 O   0  0  0  0  0  0  0  0  0  0  0  0
   21.1517  -18.0608  -14.5795 C   0  0  0  0  0  0  0  0  0  0  0  0
   21.4564  -19.2298  -13.6656 C   0  0  2  0  0  0  0  0  0  0  0  0
   22.8286  -19.6399  -13.7439 N   0  0  0  0  0  0  0  0  0  0  0  0
   20.5027  -20.3423  -13.8957 C   0  0  0  0  0  0  0  0  0  0  0  0
   20.7224  -21.2592  -14.7270 O   0  0  0  0  0  0  0  0  0  0  0  0
   19.3107  -20.4166  -13.1913 O   0  0  0  0  0  0  0  0  0  0  0  0
  2  1  1  0
  3  2  2  0
  4  3  1  0
  5 11  1  0
  5  4  2  0
  6  7  1  0
  6  5  1  0
  7  8  1  6
  9  7  1  0
 10  9  2  0
 11 12  2  0
 12  2  1  0
 14 16  1  0
 14 13  1  1
 15 14  1  0
 16 17  1  1
 17  9  1  0
 18 22  1  0
 18 16  1  0
 19 18  2  0
 21 20  1  6
 21 23  1  0
 21 22  1  0
 23 25  1  0
 24 23  2  0
M  END
$$$$
