YVA.pdb
     RDKit          3D

 25 25  0  0  1  0  0  0  0  0999 V2000
   19.0098  -18.2681  -13.9047 O   0  0  0  0  0  0  0  0  0  0  0  0
   20.0582  -18.8146  -13.1560 C   0  0  0  0  0  0  0  0  0  0  0  0
   21.3424  -18.3206  -13.2417 C   0  0  0  0  0  0  0  0  0  0  0  0
   22.3771  -18.8680  -12.4959 C   0  0  0  0  0  0  0  0  0  0  0  0
   22.1628  -19.9317  -11.6359 C   0  0  0  0  0  0  0  0  0  0  0  0
   23.2594  -20.5290  -10.8304 C   0  0  0  0  0  0  0  0  0  0  0  0
   24.4283  -20.9418  -11.6958 C   0  0  2  0  0  0  0  0  0  0  0  0
   24.0484  -21.9668  -12.6160 N   0  0  0  0  0  0  0  0  0  0  0  0
   25.4763  -21.4606  -10.7181 C   0  0  0  0  0  0  0  0  0  0  0  0
   25.3328  -22.6303  -10.3120 O   0  0  0  0  0  0  0  0  0  0  0  0
   20.8700  -20.4148  -11.5619 C   0  0  0  0  0  0  0  0  0  0  0  0
   19.8385  -19.8734  -12.3017 C   0  0  0  0  0  0  0  0  0  0  0  0
   30.0719  -21.0578   -9.2096 C   0  0  0  0  0  0  0  0  0  0  0  0
   28.9493  -20.6096  -10.1510 C   0  0  1  0  0  0  0  0  0  0  0  0
   29.0920  -21.6097  -11.3207 C   0  0  0  0  0  0  0  0  0  0  0  0
   27.6145  -20.8633   -9.4841 C   0  0  2  0  0  0  0  0  0  0  0  0
   26.5022  -20.5988  -10.3572 N   0  0  0  0  0  0  0  0  0  0  0  0
   27.3677  -20.2614   -8.2037 C   0  0  0  0  0  0  0  0  0  0  0  0
   26.8903  -19.0524   -8.2239 O   0  0  0  0  0  0  0  0  0  0  0  0
   27.6292  -20.8583   -4.4636 C   0  0  0  0  0  0  0  0  0  0  0  0
   27.4481  -20.0247   -5.7154 C   0  0  2  0  0  0  0  0  0  0  0  0
   27.5676  -20.8058   -6.9125 N   0  0  0  0  0  0  0  0  0  0  0  0
   28.3468  -18.8448   -5.6984 C   0  0  0  0  0  0  0  0  0  0  0  0
   29.4631  -18.8377   -6.2762 O   0  0  0  0  0  0  0  0  0  0  0  0
   27.9853  -17.6830   -5.0335 O   0  0  0  0  0  0  0  0  0  0  0  0
  2  1  1  0
  3  2  2  0
  4  3  1  0
  5 11  1  0
  5  4  2  0
  6  7  1  0
  6  5  1  0
  7  8  1  6
  9  7  1  0
 10  9  2  0
 11 12  2  0
 12  2  1  0
 14 16  1  0
 14 13  1  1
 15 14  1  0
 16 17  1  6
 17  9  1  0
 18 22  1  0
 18 16  1  0
 19 18  2  0
 21 20  1  1
 21 23  1  0
 21 22  1  0
 23 25  1  0
 24 23  2  0
M  END
$$$$
