YVA.pdb
     RDKit          3D

 25 25  0  0  1  0  0  0  0  0999 V2000
   20.5145  -14.8768  -17.9194 O   0  0  0  0  0  0  0  0  0  0  0  0
   21.1707  -15.9274  -17.2682 C   0  0  0  0  0  0  0  0  0  0  0  0
   21.9060  -15.7203  -16.1206 C   0  0  0  0  0  0  0  0  0  0  0  0
   22.5542  -16.7673  -15.4803 C   0  0  0  0  0  0  0  0  0  0  0  0
   22.4892  -18.0619  -15.9668 C   0  0  0  0  0  0  0  0  0  0  0  0
   23.1770  -19.1939  -15.2933 C   0  0  0  0  0  0  0  0  0  0  0  0
   24.5783  -19.3931  -15.8246 C   0  0  2  0  0  0  0  0  0  0  0  0
   24.5541  -19.9738  -17.1300 N   0  0  0  0  0  0  0  0  0  0  0  0
   25.2444  -20.3369  -14.8302 C   0  0  0  0  0  0  0  0  0  0  0  0
   24.9627  -21.5468  -14.9316 O   0  0  0  0  0  0  0  0  0  0  0  0
   21.7481  -18.2522  -17.1178 C   0  0  0  0  0  0  0  0  0  0  0  0
   21.1023  -17.2139  -17.7574 C   0  0  0  0  0  0  0  0  0  0  0  0
   29.1086  -21.0342  -11.9679 C   0  0  0  0  0  0  0  0  0  0  0  0
   28.3681  -20.2754  -13.0740 C   0  0  1  0  0  0  0  0  0  0  0  0
   28.7903  -21.0574  -14.3385 C   0  0  0  0  0  0  0  0  0  0  0  0
   26.8776  -20.4627  -12.8890 C   0  0  2  0  0  0  0  0  0  0  0  0
   26.1068  -19.7823  -13.8953 N   0  0  0  0  0  0  0  0  0  0  0  0
   26.3130  -20.1953  -11.5959 C   0  0  0  0  0  0  0  0  0  0  0  0
   26.3600  -18.9589  -11.1971 O   0  0  0  0  0  0  0  0  0  0  0  0
   24.2358  -21.6219   -8.7989 C   0  0  0  0  0  0  0  0  0  0  0  0
   25.3045  -20.7106   -9.3661 C   0  0  2  0  0  0  0  0  0  0  0  0
   25.7028  -21.0950  -10.6893 N   0  0  0  0  0  0  0  0  0  0  0  0
   26.4464  -20.5880   -8.4274 C   0  0  0  0  0  0  0  0  0  0  0  0
   26.4149  -19.8367   -7.4200 O   0  0  0  0  0  0  0  0  0  0  0  0
   27.6136  -21.3092   -8.6266 O   0  0  0  0  0  0  0  0  0  0  0  0
  2  1  1  0
  3  2  2  0
  4  3  1  0
  5 11  1  0
  5  4  2  0
  6  7  1  0
  6  5  1  0
  7  8  1  6
  9  7  1  0
 10  9  2  0
 11 12  2  0
 12  2  1  0
 14 16  1  0
 14 13  1  1
 15 14  1  0
 16 17  1  6
 17  9  1  0
 18 22  1  0
 18 16  1  0
 19 18  2  0
 21 20  1  1
 21 23  1  0
 21 22  1  0
 23 25  1  0
 24 23  2  0
M  END
$$$$
