YVA.pdb
     RDKit          3D

 25 25  0  0  1  0  0  0  0  0999 V2000
   35.9303  -37.9050  -19.0613 O   0  0  0  0  0  0  0  0  0  0  0  0
   35.0879  -37.0582  -18.3322 C   0  0  0  0  0  0  0  0  0  0  0  0
   35.5820  -36.1874  -17.3845 C   0  0  0  0  0  0  0  0  0  0  0  0
   34.7402  -35.3504  -16.6653 C   0  0  0  0  0  0  0  0  0  0  0  0
   33.3708  -35.3551  -16.8695 C   0  0  0  0  0  0  0  0  0  0  0  0
   32.4560  -34.4655  -16.1082 C   0  0  0  0  0  0  0  0  0  0  0  0
   32.2257  -33.1544  -16.8250 C   0  0  2  0  0  0  0  0  0  0  0  0
   33.3576  -32.2923  -16.6935 N   0  0  0  0  0  0  0  0  0  0  0  0
   31.0054  -32.5446  -16.1450 C   0  0  0  0  0  0  0  0  0  0  0  0
   31.2188  -31.6227  -15.3338 O   0  0  0  0  0  0  0  0  0  0  0  0
   32.8921  -36.2337  -17.8230 C   0  0  0  0  0  0  0  0  0  0  0  0
   33.7257  -37.0675  -18.5401 C   0  0  0  0  0  0  0  0  0  0  0  0
   26.3905  -31.3854  -16.8569 C   0  0  0  0  0  0  0  0  0  0  0  0
   27.7575  -31.9064  -17.3123 C   0  0  1  0  0  0  0  0  0  0  0  0
   28.4985  -30.5974  -17.6675 C   0  0  0  0  0  0  0  0  0  0  0  0
   28.4655  -32.5342  -16.1310 C   0  0  2  0  0  0  0  0  0  0  0  0
   29.7598  -33.0576  -16.4778 N   0  0  0  0  0  0  0  0  0  0  0  0
   27.7539  -33.5054  -15.3482 C   0  0  0  0  0  0  0  0  0  0  0  0
   27.5606  -34.6613  -15.9109 O   0  0  0  0  0  0  0  0  0  0  0  0
   26.0673  -34.0566  -11.9911 C   0  0  0  0  0  0  0  0  0  0  0  0
   26.5421  -34.4496  -13.3748 C   0  0  2  0  0  0  0  0  0  0  0  0
   27.2339  -33.3822  -14.0375 N   0  0  0  0  0  0  0  0  0  0  0  0
   25.4259  -35.0063  -14.1775 C   0  0  0  0  0  0  0  0  0  0  0  0
   24.5487  -34.2799  -14.7096 O   0  0  0  0  0  0  0  0  0  0  0  0
   25.3033  -36.3730  -14.3765 O   0  0  0  0  0  0  0  0  0  0  0  0
  2  1  1  0
  3  2  2  0
  4  3  1  0
  5 11  1  0
  5  4  2  0
  6  7  1  0
  6  5  1  0
  7  8  1  1
  9  7  1  0
 10  9  2  0
 11 12  2  0
 12  2  1  0
 14 16  1  0
 14 13  1  1
 15 14  1  0
 16 17  1  6
 17  9  1  0
 18 22  1  0
 18 16  1  0
 19 18  2  0
 21 20  1  1
 21 23  1  0
 21 22  1  0
 23 25  1  0
 24 23  2  0
M  END
$$$$
