YVA.pdb
     RDKit          3D

 25 25  0  0  1  0  0  0  0  0999 V2000
   19.3441  -18.1435  -16.9325 O   0  0  0  0  0  0  0  0  0  0  0  0
   20.2342  -18.7938  -16.0704 C   0  0  0  0  0  0  0  0  0  0  0  0
   20.6140  -20.1030  -16.2759 C   0  0  0  0  0  0  0  0  0  0  0  0
   21.4973  -20.7413  -15.4164 C   0  0  0  0  0  0  0  0  0  0  0  0
   22.0333  -20.0904  -14.3182 C   0  0  0  0  0  0  0  0  0  0  0  0
   22.9802  -20.7592  -13.3886 C   0  0  0  0  0  0  0  0  0  0  0  0
   24.4191  -20.4926  -13.7681 C   0  0  2  0  0  0  0  0  0  0  0  0
   24.7320  -21.0761  -15.0344 N   0  0  0  0  0  0  0  0  0  0  0  0
   25.2432  -21.1399  -12.6613 C   0  0  0  0  0  0  0  0  0  0  0  0
   25.2482  -22.3857  -12.6224 O   0  0  0  0  0  0  0  0  0  0  0  0
   21.6422  -18.7787  -14.1267 C   0  0  0  0  0  0  0  0  0  0  0  0
   20.7643  -18.1406  -14.9788 C   0  0  0  0  0  0  0  0  0  0  0  0
   28.8433  -20.4507   -9.3963 C   0  0  0  0  0  0  0  0  0  0  0  0
   28.0485  -19.9609  -10.6112 C   0  0  1  0  0  0  0  0  0  0  0  0
   28.8942  -20.4997  -11.7873 C   0  0  0  0  0  0  0  0  0  0  0  0
   26.7092  -20.6653  -10.6420 C   0  0  2  0  0  0  0  0  0  0  0  0
   25.9199  -20.3002  -11.7880 N   0  0  0  0  0  0  0  0  0  0  0  0
   25.8881  -20.6188   -9.4647 C   0  0  0  0  0  0  0  0  0  0  0  0
   25.2990  -19.4852   -9.2240 O   0  0  0  0  0  0  0  0  0  0  0  0
   24.1420  -22.6895   -6.8772 C   0  0  0  0  0  0  0  0  0  0  0  0
   24.8385  -21.4280   -7.3439 C   0  0  2  0  0  0  0  0  0  0  0  0
   25.6235  -21.6436   -8.5248 N   0  0  0  0  0  0  0  0  0  0  0  0
   25.6095  -20.8105   -6.2374 C   0  0  0  0  0  0  0  0  0  0  0  0
   26.8658  -20.8284   -6.1975 O   0  0  0  0  0  0  0  0  0  0  0  0
   24.9647  -20.1783   -5.1853 O   0  0  0  0  0  0  0  0  0  0  0  0
  2  1  1  0
  3  2  2  0
  4  3  1  0
  5 11  1  0
  5  4  2  0
  6  7  1  0
  6  5  1  0
  7  8  1  6
  9  7  1  0
 10  9  2  0
 11 12  2  0
 12  2  1  0
 14 16  1  0
 14 13  1  1
 15 14  1  0
 16 17  1  6
 17  9  1  0
 18 22  1  0
 18 16  1  0
 19 18  2  0
 21 20  1  1
 21 23  1  0
 21 22  1  0
 23 25  1  0
 24 23  2  0
M  END
$$$$
