YVA.pdb
     RDKit          3D

 25 25  0  0  1  0  0  0  0  0999 V2000
   18.4302  -16.8116  -16.3880 O   0  0  0  0  0  0  0  0  0  0  0  0
   19.3510  -17.6071  -15.6971 C   0  0  0  0  0  0  0  0  0  0  0  0
   19.0293  -18.8759  -15.2642 C   0  0  0  0  0  0  0  0  0  0  0  0
   19.9480  -19.6591  -14.5794 C   0  0  0  0  0  0  0  0  0  0  0  0
   21.2243  -19.1993  -14.3029 C   0  0  0  0  0  0  0  0  0  0  0  0
   22.2197  -20.0250  -13.5711 C   0  0  0  0  0  0  0  0  0  0  0  0
   23.2925  -20.5568  -14.4941 C   0  0  2  0  0  0  0  0  0  0  0  0
   22.7542  -21.5141  -15.4083 N   0  0  0  0  0  0  0  0  0  0  0  0
   24.3142  -21.2117  -13.5719 C   0  0  0  0  0  0  0  0  0  0  0  0
   24.0628  -22.3718  -13.1919 O   0  0  0  0  0  0  0  0  0  0  0  0
   21.5305  -17.9256  -14.7436 C   0  0  0  0  0  0  0  0  0  0  0  0
   20.6200  -17.1438  -15.4248 C   0  0  0  0  0  0  0  0  0  0  0  0
   28.9468  -20.9108  -11.8924 C   0  0  0  0  0  0  0  0  0  0  0  0
   27.8682  -20.4515  -12.8788 C   0  0  1  0  0  0  0  0  0  0  0  0
   28.1681  -21.3295  -14.1150 C   0  0  0  0  0  0  0  0  0  0  0  0
   26.5090  -20.8503  -12.3456 C   0  0  2  0  0  0  0  0  0  0  0  0
   25.4374  -20.4730  -13.2282 N   0  0  0  0  0  0  0  0  0  0  0  0
   26.1698  -20.4795  -11.0003 C   0  0  0  0  0  0  0  0  0  0  0  0
   25.9559  -19.2139  -10.7936 O   0  0  0  0  0  0  0  0  0  0  0  0
   24.7490  -21.6155   -7.7933 C   0  0  0  0  0  0  0  0  0  0  0  0
   25.7607  -20.7812   -8.5516 C   0  0  2  0  0  0  0  0  0  0  0  0
   26.0291  -21.3054   -9.8594 N   0  0  0  0  0  0  0  0  0  0  0  0
   26.9876  -20.5763   -7.7437 C   0  0  0  0  0  0  0  0  0  0  0  0
   28.0633  -21.1807   -7.9841 O   0  0  0  0  0  0  0  0  0  0  0  0
   26.9974  -19.6951   -6.6732 O   0  0  0  0  0  0  0  0  0  0  0  0
  2  1  1  0
  3  2  2  0
  4  3  1  0
  5 11  1  0
  5  4  2  0
  6  7  1  0
  6  5  1  0
  7  8  1  6
  9  7  1  0
 10  9  2  0
 11 12  2  0
 12  2  1  0
 14 16  1  0
 14 13  1  1
 15 14  1  0
 16 17  1  6
 17  9  1  0
 18 22  1  0
 18 16  1  0
 19 18  2  0
 21 20  1  1
 21 23  1  0
 21 22  1  0
 23 25  1  0
 24 23  2  0
M  END
$$$$
