NHP.pdb
     RDKit          3D

 26 27  0  0  1  0  0  0  0  0999 V2000
    8.4500  -12.3622   17.3694 N   0  0  0  0  0  0  0  0  0  0  0  0
    8.0452  -13.6938   17.5504 C   0  0  0  0  0  0  0  0  0  0  0  0
    8.3486  -14.5658   16.7003 O   0  0  0  0  0  0  0  0  0  0  0  0
    7.2570  -14.1005   18.7351 C   0  0  0  0  0  0  0  0  0  0  0  0
    8.2662  -14.4032   19.8354 C   0  0  2  0  0  0  0  0  0  0  0  0
    9.1107  -15.4695   19.3257 N   0  0  0  0  0  0  0  0  0  0  0  0
    7.6390  -14.8420   21.0939 C   0  0  0  0  0  0  0  0  0  0  0  0
    6.4076  -15.1795   21.1001 O   0  0  0  0  0  0  0  0  0  0  0  0
    8.3630  -14.9010   22.2982 N   0  0  0  0  0  0  0  0  0  0  0  0
    7.7718  -15.4265   23.5366 C   0  0  1  0  0  0  0  0  0  0  0  0
    7.9332  -16.9552   23.5253 C   0  0  0  0  0  0  0  0  0  0  0  0
    7.4941  -17.5127   24.8229 C   0  0  0  0  0  0  0  0  0  0  0  0
    8.2647  -17.8659   25.9020 C   0  0  0  0  0  0  0  0  0  0  0  0
    7.4487  -18.3203   26.8717 N   0  0  0  0  0  0  0  0  0  0  0  0
    6.1890  -18.2611   26.4240 C   0  0  0  0  0  0  0  0  0  0  0  0
    6.2123  -17.7699   25.1752 N   0  0  0  0  0  0  0  0  0  0  0  0
    8.5766  -14.9342   24.6775 C   0  0  0  0  0  0  0  0  0  0  0  0
    9.8393  -15.1596   24.6163 O   0  0  0  0  0  0  0  0  0  0  0  0
    8.0123  -14.2532   25.7780 N   0  0  0  0  0  0  0  0  0  0  0  0
    6.6078  -14.0689   26.0072 C   0  0  0  0  0  0  0  0  0  0  0  0
    6.6024  -12.6289   26.5231 C   0  0  0  0  0  0  0  0  0  0  0  0
    7.7207  -12.6920   27.5383 C   0  0  0  0  0  0  0  0  0  0  0  0
    8.7188  -13.6216   26.8643 C   0  0  1  0  0  0  0  0  0  0  0  0
    9.2569  -14.5792   27.8518 C   0  0  0  0  0  0  0  0  0  0  0  0
    8.8231  -15.7480   27.8656 O   0  0  0  0  0  0  0  0  0  0  0  0
   10.2377  -14.1949   28.7598 O   0  0  0  0  0  0  0  0  0  0  0  0
  2  1  1  0
  3  2  2  0
  4  2  1  0
  5  4  1  0
  5  6  1  6
  7  5  1  0
  8  7  2  0
  9  7  1  0
 10  9  1  0
 11 12  1  0
 10 11  1  6
 12 13  2  0
 13 14  1  0
 15 14  1  0
 16 12  1  0
 16 15  2  0
 17 19  1  0
 17 10  1  0
 18 17  2  0
 19 20  1  0
 21 20  1  0
 22 21  1  0
 23 19  1  0
 23 22  1  0
 23 24  1  1
 24 26  1  0
 25 24  2  0
M  END
$$$$
