NHP.pdb
     RDKit          3D

 26 27  0  0  1  0  0  0  0  0999 V2000
    8.1054  -13.2702   17.1060 N   0  0  0  0  0  0  0  0  0  0  0  0
    8.6697  -13.4812   18.3737 C   0  0  0  0  0  0  0  0  0  0  0  0
    9.9117  -13.6132   18.4965 O   0  0  0  0  0  0  0  0  0  0  0  0
    7.8241  -13.5543   19.5860 C   0  0  0  0  0  0  0  0  0  0  0  0
    8.1434  -14.8881   20.2490 C   0  0  2  0  0  0  0  0  0  0  0  0
    7.6127  -15.9137   19.3678 N   0  0  0  0  0  0  0  0  0  0  0  0
    7.5355  -15.0338   21.5828 C   0  0  0  0  0  0  0  0  0  0  0  0
    6.2725  -14.9032   21.7174 O   0  0  0  0  0  0  0  0  0  0  0  0
    8.3118  -15.3154   22.7212 N   0  0  0  0  0  0  0  0  0  0  0  0
    7.7084  -15.5021   24.0479 C   0  0  1  0  0  0  0  0  0  0  0  0
    7.8213  -16.9913   24.4126 C   0  0  0  0  0  0  0  0  0  0  0  0
    6.8128  -17.7672   23.6588 C   0  0  0  0  0  0  0  0  0  0  0  0
    7.0182  -18.6904   22.6645 C   0  0  0  0  0  0  0  0  0  0  0  0
    5.8188  -19.1554   22.2671 N   0  0  0  0  0  0  0  0  0  0  0  0
    4.8707  -18.5443   22.9871 C   0  0  0  0  0  0  0  0  0  0  0  0
    5.4723  -17.6968   23.8363 N   0  0  0  0  0  0  0  0  0  0  0  0
    8.5322  -14.7708   25.0369 C   0  0  0  0  0  0  0  0  0  0  0  0
    9.8044  -14.8896   24.9098 O   0  0  0  0  0  0  0  0  0  0  0  0
    7.9751  -13.9817   26.0667 N   0  0  0  0  0  0  0  0  0  0  0  0
    6.5749  -13.7277   26.2510 C   0  0  0  0  0  0  0  0  0  0  0  0
    6.6157  -12.2510   26.6483 C   0  0  0  0  0  0  0  0  0  0  0  0
    7.7127  -12.2720   27.6882 C   0  0  0  0  0  0  0  0  0  0  0  0
    8.6861  -13.2898   27.1126 C   0  0  1  0  0  0  0  0  0  0  0  0
    9.1696  -14.1826   28.1854 C   0  0  0  0  0  0  0  0  0  0  0  0
    8.6996  -15.3337   28.2776 O   0  0  0  0  0  0  0  0  0  0  0  0
   10.1389  -13.7571   29.0874 O   0  0  0  0  0  0  0  0  0  0  0  0
  2  1  1  0
  3  2  2  0
  4  2  1  0
  5  4  1  0
  5  6  1  6
  7  5  1  0
  8  7  2  0
  9  7  1  0
 10  9  1  0
 11 12  1  0
 10 11  1  1
 12 13  2  0
 13 14  1  0
 15 14  1  0
 16 12  1  0
 16 15  2  0
 17 19  1  0
 17 10  1  0
 18 17  2  0
 19 20  1  0
 21 20  1  0
 22 21  1  0
 23 19  1  0
 23 22  1  0
 23 24  1  1
 24 26  1  0
 25 24  2  0
M  END
$$$$
