NHP.pdb
     RDKit          3D

 26 27  0  0  1  0  0  0  0  0999 V2000
    9.0133  -19.0434   19.0117 N   0  0  0  0  0  0  0  0  0  0  0  0
   10.1581  -18.9381   19.8168 C   0  0  0  0  0  0  0  0  0  0  0  0
   11.1604  -19.6567   19.5840 O   0  0  0  0  0  0  0  0  0  0  0  0
   10.2128  -17.9881   20.9502 C   0  0  0  0  0  0  0  0  0  0  0  0
   10.7601  -16.6829   20.3868 C   0  0  2  0  0  0  0  0  0  0  0  0
   12.2069  -16.7849   20.4658 N   0  0  0  0  0  0  0  0  0  0  0  0
   10.3167  -15.4954   21.1372 C   0  0  0  0  0  0  0  0  0  0  0  0
   10.4523  -14.3361   20.6196 O   0  0  0  0  0  0  0  0  0  0  0  0
    9.7434  -15.6023   22.4169 N   0  0  0  0  0  0  0  0  0  0  0  0
    8.6314  -14.7428   22.8457 C   0  0  1  0  0  0  0  0  0  0  0  0
    7.4250  -15.0455   21.9422 C   0  0  0  0  0  0  0  0  0  0  0  0
    7.6008  -14.3767   20.6348 C   0  0  0  0  0  0  0  0  0  0  0  0
    8.1769  -13.1592   20.3723 C   0  0  0  0  0  0  0  0  0  0  0  0
    8.1310  -12.9494   19.0432 N   0  0  0  0  0  0  0  0  0  0  0  0
    7.5392  -14.0042   18.4705 C   0  0  0  0  0  0  0  0  0  0  0  0
    7.2139  -14.8764   19.4373 N   0  0  0  0  0  0  0  0  0  0  0  0
    8.2354  -15.1480   24.2134 C   0  0  0  0  0  0  0  0  0  0  0  0
    8.5172  -16.3553   24.5482 O   0  0  0  0  0  0  0  0  0  0  0  0
    7.5870  -14.2762   25.1151 N   0  0  0  0  0  0  0  0  0  0  0  0
    6.9990  -13.0137   24.7694 C   0  0  0  0  0  0  0  0  0  0  0  0
    7.4148  -12.1784   25.9816 C   0  0  0  0  0  0  0  0  0  0  0  0
    7.0388  -13.1142   27.1076 C   0  0  0  0  0  0  0  0  0  0  0  0
    7.3923  -14.4763   26.5293 C   0  0  1  0  0  0  0  0  0  0  0  0
    6.3242  -15.4466   26.8447 C   0  0  0  0  0  0  0  0  0  0  0  0
    5.4794  -15.7273   25.9718 O   0  0  0  0  0  0  0  0  0  0  0  0
    6.2517  -16.0488   28.0962 O   0  0  0  0  0  0  0  0  0  0  0  0
  2  1  1  0
  3  2  2  0
  4  2  1  0
  5  4  1  0
  5  6  1  1
  7  5  1  0
  8  7  2  0
  9  7  1  0
 10  9  1  0
 11 12  1  0
 10 11  1  6
 12 13  2  0
 13 14  1  0
 15 14  1  0
 16 12  1  0
 16 15  2  0
 17 19  1  0
 17 10  1  0
 18 17  2  0
 19 20  1  0
 21 20  1  0
 22 21  1  0
 23 19  1  0
 23 22  1  0
 23 24  1  6
 24 26  1  0
 25 24  2  0
M  END
$$$$
