NHP.pdb
     RDKit          3D

 26 27  0  0  1  0  0  0  0  0999 V2000
    7.4161  -13.5163   16.6894 N   0  0  0  0  0  0  0  0  0  0  0  0
    8.1124  -13.2927   17.8874 C   0  0  0  0  0  0  0  0  0  0  0  0
    9.3401  -13.0333   17.8637 O   0  0  0  0  0  0  0  0  0  0  0  0
    7.4250  -13.3575   19.1964 C   0  0  0  0  0  0  0  0  0  0  0  0
    8.4470  -13.8978   20.1885 C   0  0  2  0  0  0  0  0  0  0  0  0
    9.0294  -15.0744   19.5669 N   0  0  0  0  0  0  0  0  0  0  0  0
    7.8553  -14.2769   21.4832 C   0  0  0  0  0  0  0  0  0  0  0  0
    7.0892  -13.4555   22.0905 O   0  0  0  0  0  0  0  0  0  0  0  0
    8.1112  -15.5272   22.0740 N   0  0  0  0  0  0  0  0  0  0  0  0
    7.6170  -15.8701   23.4147 C   0  0  1  0  0  0  0  0  0  0  0  0
    7.8930  -17.3637   23.6519 C   0  0  0  0  0  0  0  0  0  0  0  0
    7.3192  -17.7768   24.9510 C   0  0  0  0  0  0  0  0  0  0  0  0
    6.3072  -17.1823   25.6619 C   0  0  0  0  0  0  0  0  0  0  0  0
    6.1036  -17.8982   26.7838 N   0  0  0  0  0  0  0  0  0  0  0  0
    6.9643  -18.9229   26.7914 C   0  0  0  0  0  0  0  0  0  0  0  0
    7.7075  -18.8523   25.6761 N   0  0  0  0  0  0  0  0  0  0  0  0
    8.4322  -15.1361   24.4088 C   0  0  0  0  0  0  0  0  0  0  0  0
    9.7028  -15.1598   24.2249 O   0  0  0  0  0  0  0  0  0  0  0  0
    7.8688  -14.4423   25.5019 N   0  0  0  0  0  0  0  0  0  0  0  0
    6.4751  -14.4245   25.8429 C   0  0  0  0  0  0  0  0  0  0  0  0
    6.3122  -12.9585   26.2479 C   0  0  0  0  0  0  0  0  0  0  0  0
    7.5057  -12.7865   27.1594 C   0  0  0  0  0  0  0  0  0  0  0  0
    8.5657  -13.6321   26.4693 C   0  0  1  0  0  0  0  0  0  0  0  0
    9.3077  -14.4219   27.4729 C   0  0  0  0  0  0  0  0  0  0  0  0
    9.0668  -15.6397   27.5889 O   0  0  0  0  0  0  0  0  0  0  0  0
   10.2680  -13.8267   28.2840 O   0  0  0  0  0  0  0  0  0  0  0  0
  2  1  1  0
  3  2  2  0
  4  2  1  0
  5  4  1  0
  5  6  1  6
  7  5  1  0
  8  7  2  0
  9  7  1  0
 10  9  1  0
 11 12  1  0
 10 11  1  1
 12 13  2  0
 13 14  1  0
 15 14  1  0
 16 12  1  0
 16 15  2  0
 17 19  1  0
 17 10  1  0
 18 17  2  0
 19 20  1  0
 21 20  1  0
 22 21  1  0
 23 19  1  0
 23 22  1  0
 23 24  1  1
 24 26  1  0
 25 24  2  0
M  END
$$$$
