NHP.pdb
     RDKit          3D

 26 27  0  0  1  0  0  0  0  0999 V2000
   14.8139  -16.4801   19.1204 N   0  0  0  0  0  0  0  0  0  0  0  0
   14.1500  -16.3204   20.3466 C   0  0  0  0  0  0  0  0  0  0  0  0
   14.4401  -17.0563   21.3209 O   0  0  0  0  0  0  0  0  0  0  0  0
   13.1004  -15.2917   20.5211 C   0  0  0  0  0  0  0  0  0  0  0  0
   11.9863  -15.9509   21.3240 C   0  0  2  0  0  0  0  0  0  0  0  0
   11.3364  -16.8845   20.4207 N   0  0  0  0  0  0  0  0  0  0  0  0
   10.9888  -14.9918   21.8290 C   0  0  0  0  0  0  0  0  0  0  0  0
   11.3099  -13.7641   21.9697 O   0  0  0  0  0  0  0  0  0  0  0  0
    9.6826  -15.3922   22.1627 N   0  0  0  0  0  0  0  0  0  0  0  0
    8.6967  -14.4513   22.7123 C   0  0  1  0  0  0  0  0  0  0  0  0
    7.3978  -14.6028   21.9041 C   0  0  0  0  0  0  0  0  0  0  0  0
    7.6494  -14.2615   20.4871 C   0  0  0  0  0  0  0  0  0  0  0  0
    7.9093  -13.0294   19.9417 C   0  0  0  0  0  0  0  0  0  0  0  0
    8.0837  -13.1841   18.6157 N   0  0  0  0  0  0  0  0  0  0  0  0
    7.9374  -14.4811   18.3202 C   0  0  0  0  0  0  0  0  0  0  0  0
    7.6720  -15.1413   19.4582 N   0  0  0  0  0  0  0  0  0  0  0  0
    8.3754  -14.8742   24.0942 C   0  0  0  0  0  0  0  0  0  0  0  0
    8.8221  -16.0240   24.4508 O   0  0  0  0  0  0  0  0  0  0  0  0
    7.6253  -14.0772   24.9862 N   0  0  0  0  0  0  0  0  0  0  0  0
    7.0240  -12.8146   24.6644 C   0  0  0  0  0  0  0  0  0  0  0  0
    7.3097  -12.0405   25.9525 C   0  0  0  0  0  0  0  0  0  0  0  0
    6.8755  -13.0523   26.9883 C   0  0  0  0  0  0  0  0  0  0  0  0
    7.3224  -14.3665   26.3655 C   0  0  1  0  0  0  0  0  0  0  0  0
    6.2665  -15.3854   26.5347 C   0  0  0  0  0  0  0  0  0  0  0  0
    5.4897  -15.6204   25.5883 O   0  0  0  0  0  0  0  0  0  0  0  0
    6.1309  -16.0831   27.7301 O   0  0  0  0  0  0  0  0  0  0  0  0
  2  1  1  0
  3  2  2  0
  4  2  1  0
  5  4  1  0
  5  6  1  6
  7  5  1  0
  8  7  2  0
  9  7  1  0
 10  9  1  0
 11 12  1  0
 10 11  1  6
 12 13  2  0
 13 14  1  0
 15 14  1  0
 16 12  1  0
 16 15  2  0
 17 19  1  0
 17 10  1  0
 18 17  2  0
 19 20  1  0
 21 20  1  0
 22 21  1  0
 23 19  1  0
 23 22  1  0
 23 24  1  6
 24 26  1  0
 25 24  2  0
M  END
$$$$
