NHP.pdb
     RDKit          3D

 26 27  0  0  1  0  0  0  0  0999 V2000
   13.0729  -19.9837   22.9064 N   0  0  0  0  0  0  0  0  0  0  0  0
   13.3225  -18.7215   22.3456 C   0  0  0  0  0  0  0  0  0  0  0  0
   14.0490  -18.6167   21.3276 O   0  0  0  0  0  0  0  0  0  0  0  0
   12.7429  -17.4936   22.9343 C   0  0  0  0  0  0  0  0  0  0  0  0
   11.4987  -17.1742   22.1155 C   0  0  2  0  0  0  0  0  0  0  0  0
   11.9634  -16.8955   20.7678 N   0  0  0  0  0  0  0  0  0  0  0  0
   10.7539  -16.0085   22.6216 C   0  0  0  0  0  0  0  0  0  0  0  0
   11.3917  -15.0221   23.1220 O   0  0  0  0  0  0  0  0  0  0  0  0
    9.3497  -15.9498   22.5686 N   0  0  0  0  0  0  0  0  0  0  0  0
    8.5989  -14.7981   23.0875 C   0  0  1  0  0  0  0  0  0  0  0  0
    7.2801  -14.7022   22.3035 C   0  0  0  0  0  0  0  0  0  0  0  0
    7.5634  -14.3789   20.8883 C   0  0  0  0  0  0  0  0  0  0  0  0
    8.4910  -13.5017   20.3851 C   0  0  0  0  0  0  0  0  0  0  0  0
    8.4107  -13.5290   19.0414 N   0  0  0  0  0  0  0  0  0  0  0  0
    7.4555  -14.3995   18.6941 C   0  0  0  0  0  0  0  0  0  0  0  0
    6.9360  -14.9194   19.8171 N   0  0  0  0  0  0  0  0  0  0  0  0
    8.2255  -15.0848   24.4910 C   0  0  0  0  0  0  0  0  0  0  0  0
    8.4662  -16.2756   24.9071 O   0  0  0  0  0  0  0  0  0  0  0  0
    7.6398  -14.1221   25.3417 N   0  0  0  0  0  0  0  0  0  0  0  0
    7.2579  -12.7949   24.9524 C   0  0  0  0  0  0  0  0  0  0  0  0
    7.6959  -12.0108   26.1906 C   0  0  0  0  0  0  0  0  0  0  0  0
    7.1142  -12.8734   27.2873 C   0  0  0  0  0  0  0  0  0  0  0  0
    7.3176  -14.2776   26.7382 C   0  0  1  0  0  0  0  0  0  0  0  0
    6.1061  -15.0885   26.9757 C   0  0  0  0  0  0  0  0  0  0  0  0
    5.2614  -15.2022   26.0657 O   0  0  0  0  0  0  0  0  0  0  0  0
    5.8990  -15.7247   28.1949 O   0  0  0  0  0  0  0  0  0  0  0  0
  2  1  1  0
  3  2  2  0
  4  2  1  0
  5  4  1  0
  5  6  1  6
  7  5  1  0
  8  7  2  0
  9  7  1  0
 10  9  1  0
 11 12  1  0
 10 11  1  6
 12 13  2  0
 13 14  1  0
 15 14  1  0
 16 12  1  0
 16 15  2  0
 17 19  1  0
 17 10  1  0
 18 17  2  0
 19 20  1  0
 21 20  1  0
 22 21  1  0
 23 19  1  0
 23 22  1  0
 23 24  1  6
 24 26  1  0
 25 24  2  0
M  END
$$$$
