NHP.pdb
     RDKit          3D

 26 27  0  0  1  0  0  0  0  0999 V2000
    8.7855  -12.5825   17.2651 N   0  0  0  0  0  0  0  0  0  0  0  0
    8.5150  -13.8702   17.7534 C   0  0  0  0  0  0  0  0  0  0  0  0
    8.9848  -14.8770   17.1698 O   0  0  0  0  0  0  0  0  0  0  0  0
    7.6764  -14.0729   18.9558 C   0  0  0  0  0  0  0  0  0  0  0  0
    8.6288  -14.0749   20.1447 C   0  0  2  0  0  0  0  0  0  0  0  0
    9.5399  -15.1856   19.9297 N   0  0  0  0  0  0  0  0  0  0  0  0
    7.9443  -14.2532   21.4368 C   0  0  0  0  0  0  0  0  0  0  0  0
    7.0112  -13.4486   21.7719 O   0  0  0  0  0  0  0  0  0  0  0  0
    8.2911  -15.2924   22.3187 N   0  0  0  0  0  0  0  0  0  0  0  0
    7.6118  -15.4777   23.6085 C   0  0  1  0  0  0  0  0  0  0  0  0
    7.6182  -16.9801   23.9340 C   0  0  0  0  0  0  0  0  0  0  0  0
    6.6127  -17.6751   23.1014 C   0  0  0  0  0  0  0  0  0  0  0  0
    5.3438  -18.0658   23.4482 C   0  0  0  0  0  0  0  0  0  0  0  0
    4.7777  -18.6560   22.3787 N   0  0  0  0  0  0  0  0  0  0  0  0
    5.6621  -18.6450   21.3745 C   0  0  0  0  0  0  0  0  0  0  0  0
    6.7823  -18.0484   21.8110 N   0  0  0  0  0  0  0  0  0  0  0  0
    8.4265  -14.8239   24.6575 C   0  0  0  0  0  0  0  0  0  0  0  0
    9.6992  -14.9528   24.5458 O   0  0  0  0  0  0  0  0  0  0  0  0
    7.8607  -14.0951   25.7262 N   0  0  0  0  0  0  0  0  0  0  0  0
    6.4619  -13.8229   25.8951 C   0  0  0  0  0  0  0  0  0  0  0  0
    6.5237  -12.3783   26.3945 C   0  0  0  0  0  0  0  0  0  0  0  0
    7.5939  -12.4954   27.4557 C   0  0  0  0  0  0  0  0  0  0  0  0
    8.5598  -13.4929   26.8338 C   0  0  1  0  0  0  0  0  0  0  0  0
    8.9979  -14.4680   27.8531 C   0  0  0  0  0  0  0  0  0  0  0  0
    8.4723  -15.5982   27.8802 O   0  0  0  0  0  0  0  0  0  0  0  0
    9.9857  -14.1424   28.7764 O   0  0  0  0  0  0  0  0  0  0  0  0
  2  1  1  0
  3  2  2  0
  4  2  1  0
  5  4  1  0
  5  6  1  6
  7  5  1  0
  8  7  2  0
  9  7  1  0
 10  9  1  0
 11 12  1  0
 10 11  1  1
 12 13  2  0
 13 14  1  0
 15 14  1  0
 16 12  1  0
 16 15  2  0
 17 19  1  0
 17 10  1  0
 18 17  2  0
 19 20  1  0
 21 20  1  0
 22 21  1  0
 23 19  1  0
 23 22  1  0
 23 24  1  1
 24 26  1  0
 25 24  2  0
M  END
$$$$
