NHP.pdb
     RDKit          3D

 26 27  0  0  1  0  0  0  0  0999 V2000
    8.9975  -12.5739   17.6159 N   0  0  0  0  0  0  0  0  0  0  0  0
    8.3747  -13.8046   17.8757 C   0  0  0  0  0  0  0  0  0  0  0  0
    8.5340  -14.7698   17.0896 O   0  0  0  0  0  0  0  0  0  0  0  0
    7.5217  -13.9944   19.0701 C   0  0  0  0  0  0  0  0  0  0  0  0
    8.3916  -14.6898   20.1094 C   0  0  2  0  0  0  0  0  0  0  0  0
    8.7091  -15.9966   19.5602 N   0  0  0  0  0  0  0  0  0  0  0  0
    7.7192  -14.8611   21.4088 C   0  0  0  0  0  0  0  0  0  0  0  0
    6.4589  -14.6752   21.4954 O   0  0  0  0  0  0  0  0  0  0  0  0
    8.4305  -15.2268   22.5656 N   0  0  0  0  0  0  0  0  0  0  0  0
    7.7566  -15.4751   23.8476 C   0  0  1  0  0  0  0  0  0  0  0  0
    7.8252  -16.9841   24.1326 C   0  0  0  0  0  0  0  0  0  0  0  0
    6.8686  -17.7003   23.2610 C   0  0  0  0  0  0  0  0  0  0  0  0
    5.4973  -17.6848   23.3091 C   0  0  0  0  0  0  0  0  0  0  0  0
    5.0324  -18.4738   22.3222 N   0  0  0  0  0  0  0  0  0  0  0  0
    6.0789  -18.9824   21.6613 C   0  0  0  0  0  0  0  0  0  0  0  0
    7.2003  -18.5139   22.2307 N   0  0  0  0  0  0  0  0  0  0  0  0
    8.5408  -14.8164   24.9166 C   0  0  0  0  0  0  0  0  0  0  0  0
    9.8141  -14.9730   24.8605 O   0  0  0  0  0  0  0  0  0  0  0  0
    7.9467  -14.0547   25.9463 N   0  0  0  0  0  0  0  0  0  0  0  0
    6.5482  -13.7512   26.0515 C   0  0  0  0  0  0  0  0  0  0  0  0
    6.6193  -12.2982   26.5245 C   0  0  0  0  0  0  0  0  0  0  0  0
    7.6423  -12.4149   27.6313 C   0  0  0  0  0  0  0  0  0  0  0  0
    8.6120  -13.4440   27.0699 C   0  0  1  0  0  0  0  0  0  0  0  0
    8.9874  -14.4064   28.1255 C   0  0  0  0  0  0  0  0  0  0  0  0
    8.4684  -15.5400   28.1286 O   0  0  0  0  0  0  0  0  0  0  0  0
    9.9094  -14.0654   29.1093 O   0  0  0  0  0  0  0  0  0  0  0  0
  2  1  1  0
  3  2  2  0
  4  2  1  0
  5  4  1  0
  5  6  1  6
  7  5  1  0
  8  7  2  0
  9  7  1  0
 10  9  1  0
 11 12  1  0
 10 11  1  1
 12 13  2  0
 13 14  1  0
 15 14  1  0
 16 12  1  0
 16 15  2  0
 17 19  1  0
 17 10  1  0
 18 17  2  0
 19 20  1  0
 21 20  1  0
 22 21  1  0
 23 19  1  0
 23 22  1  0
 23 24  1  1
 24 26  1  0
 25 24  2  0
M  END
$$$$
