NHP.pdb
     RDKit          3D

 26 27  0  0  1  0  0  0  0  0999 V2000
   13.2643  -18.1219   18.9016 N   0  0  0  0  0  0  0  0  0  0  0  0
   13.2331  -17.5328   20.1751 C   0  0  0  0  0  0  0  0  0  0  0  0
   14.0085  -17.9367   21.0755 O   0  0  0  0  0  0  0  0  0  0  0  0
   12.2942  -16.4322   20.4871 C   0  0  0  0  0  0  0  0  0  0  0  0
   11.5392  -16.8578   21.7399 C   0  0  2  0  0  0  0  0  0  0  0  0
   10.6233  -17.9050   21.3225 N   0  0  0  0  0  0  0  0  0  0  0  0
   10.7726  -15.7614   22.3565 C   0  0  0  0  0  0  0  0  0  0  0  0
   11.3926  -14.8034   22.9294 O   0  0  0  0  0  0  0  0  0  0  0  0
    9.3666  -15.7388   22.3318 N   0  0  0  0  0  0  0  0  0  0  0  0
    8.5956  -14.6364   22.9230 C   0  0  1  0  0  0  0  0  0  0  0  0
    7.2450  -14.5600   22.1929 C   0  0  0  0  0  0  0  0  0  0  0  0
    7.4704  -14.3199   20.7510 C   0  0  0  0  0  0  0  0  0  0  0  0
    7.8688  -13.1612   20.1332 C   0  0  0  0  0  0  0  0  0  0  0  0
    7.9546  -13.3971   18.8105 N   0  0  0  0  0  0  0  0  0  0  0  0
    7.6180  -14.6729   18.5876 C   0  0  0  0  0  0  0  0  0  0  0  0
    7.3216  -15.2389   19.7678 N   0  0  0  0  0  0  0  0  0  0  0  0
    8.2871  -14.9898   24.3271 C   0  0  0  0  0  0  0  0  0  0  0  0
    8.5845  -16.1862   24.6864 O   0  0  0  0  0  0  0  0  0  0  0  0
    7.7020  -14.0820   25.2366 N   0  0  0  0  0  0  0  0  0  0  0  0
    7.1543  -12.8012   24.8925 C   0  0  0  0  0  0  0  0  0  0  0  0
    7.6402  -11.9688   26.0803 C   0  0  0  0  0  0  0  0  0  0  0  0
    7.2624  -12.8753   27.2295 C   0  0  0  0  0  0  0  0  0  0  0  0
    7.5434  -14.2573   26.6586 C   0  0  1  0  0  0  0  0  0  0  0  0
    6.4480  -15.1802   27.0191 C   0  0  0  0  0  0  0  0  0  0  0  0
    5.5432  -15.4043   26.1911 O   0  0  0  0  0  0  0  0  0  0  0  0
    6.4153  -15.8000   28.2636 O   0  0  0  0  0  0  0  0  0  0  0  0
  2  1  1  0
  3  2  2  0
  4  2  1  0
  5  4  1  0
  5  6  1  6
  7  5  1  0
  8  7  2  0
  9  7  1  0
 10  9  1  0
 11 12  1  0
 10 11  1  6
 12 13  2  0
 13 14  1  0
 15 14  1  0
 16 12  1  0
 16 15  2  0
 17 19  1  0
 17 10  1  0
 18 17  2  0
 19 20  1  0
 21 20  1  0
 22 21  1  0
 23 19  1  0
 23 22  1  0
 23 24  1  6
 24 26  1  0
 25 24  2  0
M  END
$$$$
