NHP.pdb
     RDKit          3D

 26 27  0  0  1  0  0  0  0  0999 V2000
   11.1642  -17.6825   17.4742 N   0  0  0  0  0  0  0  0  0  0  0  0
   11.0840  -17.2092   18.7931 C   0  0  0  0  0  0  0  0  0  0  0  0
   11.9844  -17.4927   19.6202 O   0  0  0  0  0  0  0  0  0  0  0  0
    9.9472  -16.3732   19.2391 C   0  0  0  0  0  0  0  0  0  0  0  0
    9.4241  -17.0124   20.5191 C   0  0  2  0  0  0  0  0  0  0  0  0
    8.7362  -18.2253   20.1122 N   0  0  0  0  0  0  0  0  0  0  0  0
    8.4871  -16.1490   21.2584 C   0  0  0  0  0  0  0  0  0  0  0  0
    7.7391  -15.3368   20.6173 O   0  0  0  0  0  0  0  0  0  0  0  0
    8.3913  -16.1942   22.6608 N   0  0  0  0  0  0  0  0  0  0  0  0
    7.6001  -15.2150   23.4187 C   0  0  1  0  0  0  0  0  0  0  0  0
    6.2802  -15.8891   23.8270 C   0  0  0  0  0  0  0  0  0  0  0  0
    6.5569  -17.2306   24.3849 C   0  0  0  0  0  0  0  0  0  0  0  0
    7.2762  -18.2547   23.8217 C   0  0  0  0  0  0  0  0  0  0  0  0
    7.2795  -19.2900   24.6824 N   0  0  0  0  0  0  0  0  0  0  0  0
    6.5791  -18.9381   25.7671 C   0  0  0  0  0  0  0  0  0  0  0  0
    6.1364  -17.6837   25.5895 N   0  0  0  0  0  0  0  0  0  0  0  0
    8.3186  -14.9164   24.6781 C   0  0  0  0  0  0  0  0  0  0  0  0
    9.3867  -15.5961   24.8933 O   0  0  0  0  0  0  0  0  0  0  0  0
    7.8764  -13.9453   25.6027 N   0  0  0  0  0  0  0  0  0  0  0  0
    6.6473  -13.2107   25.5089 C   0  0  0  0  0  0  0  0  0  0  0  0
    7.1206  -11.8284   25.9616 C   0  0  0  0  0  0  0  0  0  0  0  0
    7.9056  -12.1941   27.2006 C   0  0  0  0  0  0  0  0  0  0  0  0
    8.5566  -13.5084   26.7962 C   0  0  1  0  0  0  0  0  0  0  0  0
    8.4689  -14.4742   27.9103 C   0  0  0  0  0  0  0  0  0  0  0  0
    7.5814  -15.3497   27.8888 O   0  0  0  0  0  0  0  0  0  0  0  0
    9.3609  -14.4198   28.9759 O   0  0  0  0  0  0  0  0  0  0  0  0
  2  1  1  0
  3  2  2  0
  4  2  1  0
  5  4  1  0
  5  6  1  6
  7  5  1  0
  8  7  2  0
  9  7  1  0
 10  9  1  0
 11 12  1  0
 10 11  1  1
 12 13  2  0
 13 14  1  0
 15 14  1  0
 16 12  1  0
 16 15  2  0
 17 19  1  0
 17 10  1  0
 18 17  2  0
 19 20  1  0
 21 20  1  0
 22 21  1  0
 23 19  1  0
 23 22  1  0
 23 24  1  1
 24 26  1  0
 25 24  2  0
M  END
$$$$
