NHP.pdb
     RDKit          3D

 26 27  0  0  1  0  0  0  0  0999 V2000
   10.9799  -16.5781   15.7425 N   0  0  0  0  0  0  0  0  0  0  0  0
   11.1811  -16.7434   17.1217 C   0  0  0  0  0  0  0  0  0  0  0  0
   12.1963  -17.3495   17.5423 O   0  0  0  0  0  0  0  0  0  0  0  0
   10.2110  -16.2141   18.1061 C   0  0  0  0  0  0  0  0  0  0  0  0
    9.7069  -17.4149   18.8964 C   0  0  2  0  0  0  0  0  0  0  0  0
    8.9404  -18.2200   17.9613 N   0  0  0  0  0  0  0  0  0  0  0  0
    8.8470  -17.0426   20.0329 C   0  0  0  0  0  0  0  0  0  0  0  0
    7.9198  -16.1809   19.8658 O   0  0  0  0  0  0  0  0  0  0  0  0
    9.0186  -17.6138   21.3066 N   0  0  0  0  0  0  0  0  0  0  0  0
    8.1717  -17.2397   22.4477 C   0  0  1  0  0  0  0  0  0  0  0  0
    7.7509  -18.5316   23.1670 C   0  0  0  0  0  0  0  0  0  0  0  0
    7.0268  -18.1960   24.4122 C   0  0  0  0  0  0  0  0  0  0  0  0
    7.4174  -18.4155   25.7092 C   0  0  0  0  0  0  0  0  0  0  0  0
    6.4555  -17.9432   26.5243 N   0  0  0  0  0  0  0  0  0  0  0  0
    5.4743  -17.4365   25.7684 C   0  0  0  0  0  0  0  0  0  0  0  0
    5.8184  -17.5891   24.4802 N   0  0  0  0  0  0  0  0  0  0  0  0
    9.0027  -16.4824   23.4107 C   0  0  0  0  0  0  0  0  0  0  0  0
   10.2261  -16.8576   23.5176 O   0  0  0  0  0  0  0  0  0  0  0  0
    8.5029  -15.4065   24.1762 N   0  0  0  0  0  0  0  0  0  0  0  0
    7.1889  -14.8426   24.0545 C   0  0  0  0  0  0  0  0  0  0  0  0
    7.5154  -13.3558   24.2048 C   0  0  0  0  0  0  0  0  0  0  0  0
    8.4159  -13.3890   25.4185 C   0  0  0  0  0  0  0  0  0  0  0  0
    9.1975  -14.6771   25.2075 C   0  0  1  0  0  0  0  0  0  0  0  0
    9.3000  -15.4152   26.4828 C   0  0  0  0  0  0  0  0  0  0  0  0
    8.6405  -16.4623   26.6351 O   0  0  0  0  0  0  0  0  0  0  0  0
   10.1205  -14.9594   27.5090 O   0  0  0  0  0  0  0  0  0  0  0  0
  2  1  1  0
  3  2  2  0
  4  2  1  0
  5  4  1  0
  5  6  1  6
  7  5  1  0
  8  7  2  0
  9  7  1  0
 10  9  1  0
 11 12  1  0
 10 11  1  1
 12 13  2  0
 13 14  1  0
 15 14  1  0
 16 12  1  0
 16 15  2  0
 17 19  1  0
 17 10  1  0
 18 17  2  0
 19 20  1  0
 21 20  1  0
 22 21  1  0
 23 19  1  0
 23 22  1  0
 23 24  1  1
 24 26  1  0
 25 24  2  0
M  END
$$$$
