NHP.pdb
     RDKit          3D

 26 27  0  0  1  0  0  0  0  0999 V2000
    8.4262  -15.2858   16.8022 N   0  0  0  0  0  0  0  0  0  0  0  0
    8.4466  -14.2664   17.7667 C   0  0  0  0  0  0  0  0  0  0  0  0
    9.2098  -13.2802   17.6253 O   0  0  0  0  0  0  0  0  0  0  0  0
    7.5789  -14.3273   18.9641 C   0  0  0  0  0  0  0  0  0  0  0  0
    8.5127  -14.4405   20.1623 C   0  0  2  0  0  0  0  0  0  0  0  0
    9.2667  -15.6673   19.9713 N   0  0  0  0  0  0  0  0  0  0  0  0
    7.8000  -14.5056   21.4498 C   0  0  0  0  0  0  0  0  0  0  0  0
    6.9580  -13.5942   21.7507 O   0  0  0  0  0  0  0  0  0  0  0  0
    8.0214  -15.5512   22.3640 N   0  0  0  0  0  0  0  0  0  0  0  0
    7.3627  -15.5892   23.6770 C   0  0  1  0  0  0  0  0  0  0  0  0
    7.1876  -17.0638   24.0749 C   0  0  0  0  0  0  0  0  0  0  0  0
    6.2402  -17.7212   23.1487 C   0  0  0  0  0  0  0  0  0  0  0  0
    4.8686  -17.7132   23.1871 C   0  0  0  0  0  0  0  0  0  0  0  0
    4.4138  -18.4338   22.1448 N   0  0  0  0  0  0  0  0  0  0  0  0
    5.4671  -18.8925   21.4585 C   0  0  0  0  0  0  0  0  0  0  0  0
    6.5825  -18.4609   22.0675 N   0  0  0  0  0  0  0  0  0  0  0  0
    8.2848  -14.9989   24.6734 C   0  0  0  0  0  0  0  0  0  0  0  0
    9.5368  -15.2021   24.4736 O   0  0  0  0  0  0  0  0  0  0  0  0
    7.8379  -14.2515   25.7848 N   0  0  0  0  0  0  0  0  0  0  0  0
    6.4646  -14.0309   26.1373 C   0  0  0  0  0  0  0  0  0  0  0  0
    6.5268  -12.5660   26.5732 C   0  0  0  0  0  0  0  0  0  0  0  0
    7.7372  -12.5954   27.4784 C   0  0  0  0  0  0  0  0  0  0  0  0
    8.6539  -13.5763   26.7628 C   0  0  1  0  0  0  0  0  0  0  0  0
    9.2732  -14.4902   27.7441 C   0  0  0  0  0  0  0  0  0  0  0  0
    8.8326  -15.6509   27.8577 O   0  0  0  0  0  0  0  0  0  0  0  0
   10.3372  -14.0737   28.5370 O   0  0  0  0  0  0  0  0  0  0  0  0
  2  1  1  0
  3  2  2  0
  4  2  1  0
  5  4  1  0
  5  6  1  6
  7  5  1  0
  8  7  2  0
  9  7  1  0
 10  9  1  0
 11 12  1  0
 10 11  1  1
 12 13  2  0
 13 14  1  0
 15 14  1  0
 16 12  1  0
 16 15  2  0
 17 19  1  0
 17 10  1  0
 18 17  2  0
 19 20  1  0
 21 20  1  0
 22 21  1  0
 23 19  1  0
 23 22  1  0
 23 24  1  1
 24 26  1  0
 25 24  2  0
M  END
$$$$
