NHP.pdb
     RDKit          3D

 26 27  0  0  1  0  0  0  0  0999 V2000
    9.7214  -13.2298   18.1218 N   0  0  0  0  0  0  0  0  0  0  0  0
    8.4317  -13.7427   17.9129 C   0  0  0  0  0  0  0  0  0  0  0  0
    7.9677  -13.8265   16.7498 O   0  0  0  0  0  0  0  0  0  0  0  0
    7.5932  -14.1921   19.0465 C   0  0  0  0  0  0  0  0  0  0  0  0
    8.4192  -13.9619   20.3056 C   0  0  2  0  0  0  0  0  0  0  0  0
    9.5999  -14.7973   20.1715 N   0  0  0  0  0  0  0  0  0  0  0  0
    7.7064  -14.3258   21.5423 C   0  0  0  0  0  0  0  0  0  0  0  0
    6.5710  -13.7986   21.7936 O   0  0  0  0  0  0  0  0  0  0  0  0
    8.2442  -15.2448   22.4611 N   0  0  0  0  0  0  0  0  0  0  0  0
    7.6174  -15.4979   23.7659 C   0  0  1  0  0  0  0  0  0  0  0  0
    7.7690  -16.9950   24.0801 C   0  0  0  0  0  0  0  0  0  0  0  0
    6.7513  -17.7668   23.3344 C   0  0  0  0  0  0  0  0  0  0  0  0
    5.7641  -17.2954   22.5060 C   0  0  0  0  0  0  0  0  0  0  0  0
    5.0723  -18.3491   22.0331 N   0  0  0  0  0  0  0  0  0  0  0  0
    5.6019  -19.4654   22.5470 C   0  0  0  0  0  0  0  0  0  0  0  0
    6.6253  -19.1149   23.3413 N   0  0  0  0  0  0  0  0  0  0  0  0
    8.3954  -14.7778   24.7992 C   0  0  0  0  0  0  0  0  0  0  0  0
    9.6728  -14.8779   24.7158 O   0  0  0  0  0  0  0  0  0  0  0  0
    7.7913  -14.0180   25.8246 N   0  0  0  0  0  0  0  0  0  0  0  0
    6.3846  -13.7630   25.9482 C   0  0  0  0  0  0  0  0  0  0  0  0
    6.4109  -12.2995   26.3925 C   0  0  0  0  0  0  0  0  0  0  0  0
    7.4556  -12.3579   27.4836 C   0  0  0  0  0  0  0  0  0  0  0  0
    8.4525  -13.3622   26.9249 C   0  0  1  0  0  0  0  0  0  0  0  0
    8.8800  -14.2899   27.9917 C   0  0  0  0  0  0  0  0  0  0  0  0
    8.3798  -15.4308   28.0431 O   0  0  0  0  0  0  0  0  0  0  0  0
    9.8300  -13.9085   28.9331 O   0  0  0  0  0  0  0  0  0  0  0  0
  2  1  1  0
  3  2  2  0
  4  2  1  0
  5  4  1  0
  5  6  1  6
  7  5  1  0
  8  7  2  0
  9  7  1  0
 10  9  1  0
 11 12  1  0
 10 11  1  1
 12 13  2  0
 13 14  1  0
 15 14  1  0
 16 12  1  0
 16 15  2  0
 17 19  1  0
 17 10  1  0
 18 17  2  0
 19 20  1  0
 21 20  1  0
 22 21  1  0
 23 19  1  0
 23 22  1  0
 23 24  1  1
 24 26  1  0
 25 24  2  0
M  END
$$$$
