LYY.pdb
     RDKit          3D

 33 34  0  0  1  0  0  0  0  0999 V2000
   26.4945  -17.7607  -20.0452 C   0  0  0  0  0  0  0  0  0  0  0  0
   26.4584  -18.8945  -19.0526 C   0  0  1  0  0  0  0  0  0  0  0  0
   27.8657  -19.3783  -18.7851 C   0  0  0  0  0  0  0  0  0  0  0  0
   25.7895  -18.4118  -17.7885 C   0  0  0  0  0  0  0  0  0  0  0  0
   25.8361  -19.4413  -16.6767 C   0  0  2  0  0  0  0  0  0  0  0  0
   25.4853  -20.7237  -17.2389 N   0  0  0  0  0  0  0  0  0  0  0  0
   24.8119  -19.0623  -15.6778 C   0  0  0  0  0  0  0  0  0  0  0  0
   24.6730  -17.8733  -15.2952 O   0  0  0  0  0  0  0  0  0  0  0  0
   19.1433  -17.2745  -18.7745 O   0  0  0  0  0  0  0  0  0  0  0  0
   19.7613  -18.0103  -17.7576 C   0  0  0  0  0  0  0  0  0  0  0  0
   20.4091  -19.1698  -18.0536 C   0  0  0  0  0  0  0  0  0  0  0  0
   21.0118  -19.8812  -17.0439 C   0  0  0  0  0  0  0  0  0  0  0  0
   20.9905  -19.4699  -15.7245 C   0  0  0  0  0  0  0  0  0  0  0  0
   21.6572  -20.3009  -14.7310 C   0  0  0  0  0  0  0  0  0  0  0  0
   22.9180  -19.7522  -14.1583 C   0  0  2  0  0  0  0  0  0  0  0  0
   23.9746  -20.0417  -15.1408 N   0  0  0  0  0  0  0  0  0  0  0  0
   23.3474  -20.4339  -12.9161 C   0  0  0  0  0  0  0  0  0  0  0  0
   23.5526  -21.6749  -12.9719 O   0  0  0  0  0  0  0  0  0  0  0  0
   20.3236  -18.2900  -15.4668 C   0  0  0  0  0  0  0  0  0  0  0  0
   19.7122  -17.5525  -16.4373 C   0  0  0  0  0  0  0  0  0  0  0  0
   29.3524  -20.4659  -13.9227 O   0  0  0  0  0  0  0  0  0  0  0  0
   28.3502  -20.3539  -12.9550 C   0  0  0  0  0  0  0  0  0  0  0  0
   28.1437  -21.3744  -12.0462 C   0  0  0  0  0  0  0  0  0  0  0  0
   27.1547  -21.2588  -11.0950 C   0  0  0  0  0  0  0  0  0  0  0  0
   26.3330  -20.1494  -10.9939 C   0  0  0  0  0  0  0  0  0  0  0  0
   25.2735  -20.0435   -9.9673 C   0  0  0  0  0  0  0  0  0  0  0  0
   23.9161  -20.5018  -10.4590 C   0  0  2  0  0  0  0  0  0  0  0  0
   23.5429  -19.7893  -11.6743 N   0  0  0  0  0  0  0  0  0  0  0  0
   22.8655  -20.3243   -9.4513 C   0  0  0  0  0  0  0  0  0  0  0  0
   21.8053  -19.4614   -9.6039 O   0  0  0  0  0  0  0  0  0  0  0  0
   26.5617  -19.1359  -11.9214 C   0  0  0  0  0  0  0  0  0  0  0  0
   27.5510  -19.2399  -12.8803 C   0  0  0  0  0  0  0  0  0  0  0  0
   22.9171  -20.9869   -8.3805 O   0  0  0  0  0  0  0  0  0  0  0  0
  2  1  1  6
  2  3  1  0
  4  2  1  0
  5  6  1  6
  5  4  1  0
  7  5  1  0
  8  7  2  0
  9 10  1  0
 10 11  2  0
 10 20  1  0
 11 12  1  0
 12 13  2  0
 13 14  1  0
 15 14  1  6
 15 16  1  0
 16  7  1  0
 17 15  1  0
 17 28  1  0
 18 17  2  0
 19 13  1  0
 20 19  2  0
 22 21  1  0
 23 22  2  0
 24 23  1  0
 25 24  2  0
 25 31  1  0
 26 25  1  0
 27 26  1  1
 27 28  1  0
 27 29  1  0
 29 30  1  0
 31 32  2  0
 32 22  1  0
 33 29  2  0
M  END
$$$$
