LYY.pdb
     RDKit          3D

 33 34  0  0  1  0  0  0  0  0999 V2000
   24.2000  -23.9184  -20.7949 C   0  0  0  0  0  0  0  0  0  0  0  0
   23.7855  -22.8663  -19.7983 C   0  0  1  0  0  0  0  0  0  0  0  0
   22.2942  -22.9513  -19.5630 C   0  0  0  0  0  0  0  0  0  0  0  0
   24.5602  -23.0764  -18.5201 C   0  0  0  0  0  0  0  0  0  0  0  0
   24.1218  -22.1375  -17.4135 C   0  0  2  0  0  0  0  0  0  0  0  0
   24.3252  -20.7829  -17.8689 N   0  0  0  0  0  0  0  0  0  0  0  0
   24.9990  -22.3856  -16.2476 C   0  0  0  0  0  0  0  0  0  0  0  0
   25.2026  -23.5464  -15.8114 O   0  0  0  0  0  0  0  0  0  0  0  0
   31.1686  -23.6672  -18.4530 O   0  0  0  0  0  0  0  0  0  0  0  0
   30.3457  -22.9702  -17.5618 C   0  0  0  0  0  0  0  0  0  0  0  0
   29.6025  -21.9186  -18.0016 C   0  0  0  0  0  0  0  0  0  0  0  0
   28.7984  -21.2441  -17.1141 C   0  0  0  0  0  0  0  0  0  0  0  0
   28.7079  -21.5874  -15.7784 C   0  0  0  0  0  0  0  0  0  0  0  0
   27.8283  -20.8035  -14.9217 C   0  0  0  0  0  0  0  0  0  0  0  0
   26.5668  -21.4702  -14.4939 C   0  0  2  0  0  0  0  0  0  0  0  0
   25.6201  -21.3107  -15.6092 N   0  0  0  0  0  0  0  0  0  0  0  0
   25.9159  -20.8142  -13.3371 C   0  0  0  0  0  0  0  0  0  0  0  0
   25.5048  -19.6340  -13.4900 O   0  0  0  0  0  0  0  0  0  0  0  0
   29.4770  -22.6586  -15.3730 C   0  0  0  0  0  0  0  0  0  0  0  0
   30.2880  -23.3559  -16.2190 C   0  0  0  0  0  0  0  0  0  0  0  0
   19.9445  -19.8158  -14.5524 O   0  0  0  0  0  0  0  0  0  0  0  0
   20.8907  -20.1413  -13.5766 C   0  0  0  0  0  0  0  0  0  0  0  0
   21.4363  -21.4103  -13.5326 C   0  0  0  0  0  0  0  0  0  0  0  0
   22.3680  -21.7256  -12.5689 C   0  0  0  0  0  0  0  0  0  0  0  0
   22.8015  -20.8201  -11.6158 C   0  0  0  0  0  0  0  0  0  0  0  0
   23.8014  -21.1771  -10.5860 C   0  0  0  0  0  0  0  0  0  0  0  0
   25.2004  -20.7019  -10.9203 C   0  0  2  0  0  0  0  0  0  0  0  0
   25.7240  -21.4200  -12.0753 N   0  0  0  0  0  0  0  0  0  0  0  0
   26.1278  -20.8531   -9.7945 C   0  0  0  0  0  0  0  0  0  0  0  0
   26.0208  -20.1416   -8.6221 O   0  0  0  0  0  0  0  0  0  0  0  0
   22.2363  -19.5490  -11.6820 C   0  0  0  0  0  0  0  0  0  0  0  0
   21.3008  -19.2204  -12.6442 C   0  0  0  0  0  0  0  0  0  0  0  0
   27.0815  -21.6720   -9.8842 O   0  0  0  0  0  0  0  0  0  0  0  0
  2  1  1  6
  2  3  1  0
  4  2  1  0
  5  6  1  6
  5  4  1  0
  7  5  1  0
  8  7  2  0
  9 10  1  0
 10 11  2  0
 10 20  1  0
 11 12  1  0
 12 13  2  0
 13 14  1  0
 15 14  1  6
 15 16  1  0
 16  7  1  0
 17 15  1  0
 17 28  1  0
 18 17  2  0
 19 13  1  0
 20 19  2  0
 22 21  1  0
 23 22  2  0
 24 23  1  0
 25 24  2  0
 25 31  1  0
 26 25  1  0
 27 26  1  1
 27 28  1  0
 27 29  1  0
 29 30  1  0
 31 32  2  0
 32 22  1  0
 33 29  2  0
M  END
$$$$
