LYY.pdb
     RDKit          3D

 33 34  0  0  1  0  0  0  0  0999 V2000
   13.9526  -17.0124  -22.0953 C   0  0  0  0  0  0  0  0  0  0  0  0
   15.2687  -17.7214  -22.2883 C   0  0  1  0  0  0  0  0  0  0  0  0
   15.6817  -17.6362  -23.7403 C   0  0  0  0  0  0  0  0  0  0  0  0
   16.2977  -17.0899  -21.3824 C   0  0  0  0  0  0  0  0  0  0  0  0
   17.6877  -17.6547  -21.5989 C   0  0  2  0  0  0  0  0  0  0  0  0
   17.7127  -18.9977  -21.0704 N   0  0  0  0  0  0  0  0  0  0  0  0
   18.6319  -16.8194  -20.8235 C   0  0  0  0  0  0  0  0  0  0  0  0
   18.7873  -16.9761  -19.5863 O   0  0  0  0  0  0  0  0  0  0  0  0
   23.7345  -20.5510  -20.3861 O   0  0  0  0  0  0  0  0  0  0  0  0
   23.2399  -19.2673  -20.6406 C   0  0  0  0  0  0  0  0  0  0  0  0
   22.4271  -19.0504  -21.7102 C   0  0  0  0  0  0  0  0  0  0  0  0
   21.9487  -17.7839  -21.9469 C   0  0  0  0  0  0  0  0  0  0  0  0
   22.2584  -16.7055  -21.1397 C   0  0  0  0  0  0  0  0  0  0  0  0
   21.7016  -15.4037  -21.4825 C   0  0  0  0  0  0  0  0  0  0  0  0
   20.4231  -15.0410  -20.8097 C   0  0  2  0  0  0  0  0  0  0  0  0
   19.3727  -15.8302  -21.4725 N   0  0  0  0  0  0  0  0  0  0  0  0
   20.0307  -13.6277  -21.0114 C   0  0  0  0  0  0  0  0  0  0  0  0
   19.4350  -13.3338  -22.0810 O   0  0  0  0  0  0  0  0  0  0  0  0
   23.0849  -16.9675  -20.0666 C   0  0  0  0  0  0  0  0  0  0  0  0
   23.5819  -18.2079  -19.7944 C   0  0  0  0  0  0  0  0  0  0  0  0
   16.5560   -5.7724  -21.3115 O   0  0  0  0  0  0  0  0  0  0  0  0
   17.0142   -7.0847  -21.1657 C   0  0  0  0  0  0  0  0  0  0  0  0
   16.8245   -7.7595  -19.9746 C   0  0  0  0  0  0  0  0  0  0  0  0
   17.2783   -9.0523  -19.8365 C   0  0  0  0  0  0  0  0  0  0  0  0
   17.9312   -9.7335  -20.8493 C   0  0  0  0  0  0  0  0  0  0  0  0
   18.4145  -11.1215  -20.6822 C   0  0  0  0  0  0  0  0  0  0  0  0
   19.8842  -11.2043  -20.3251 C   0  0  2  0  0  0  0  0  0  0  0  0
   20.2778  -12.5873  -20.0881 N   0  0  0  0  0  0  0  0  0  0  0  0
   20.2217  -10.3961  -19.1488 C   0  0  0  0  0  0  0  0  0  0  0  0
   20.1904   -9.0209  -19.1382 O   0  0  0  0  0  0  0  0  0  0  0  0
   18.1097   -9.0312  -22.0387 C   0  0  0  0  0  0  0  0  0  0  0  0
   17.6588   -7.7340  -22.1897 C   0  0  0  0  0  0  0  0  0  0  0  0
   20.5620  -10.9709  -18.0802 O   0  0  0  0  0  0  0  0  0  0  0  0
  2  1  1  6
  2  3  1  0
  4  2  1  0
  5  6  1  1
  5  4  1  0
  7  5  1  0
  8  7  2  0
  9 10  1  0
 10 11  2  0
 10 20  1  0
 11 12  1  0
 12 13  2  0
 13 14  1  0
 15 14  1  6
 15 16  1  0
 16  7  1  0
 17 15  1  0
 17 28  1  0
 18 17  2  0
 19 13  1  0
 20 19  2  0
 22 21  1  0
 23 22  2  0
 24 23  1  0
 25 24  2  0
 25 31  1  0
 26 25  1  0
 27 26  1  1
 27 28  1  0
 27 29  1  0
 29 30  1  0
 31 32  2  0
 32 22  1  0
 33 29  2  0
M  END
$$$$
