LYY.pdb
     RDKit          3D

 33 34  0  0  1  0  0  0  0  0999 V2000
   45.2738  -12.9026   -7.8625 C   0  0  0  0  0  0  0  0  0  0  0  0
   45.2765  -11.6136   -7.0812 C   0  0  1  0  0  0  0  0  0  0  0  0
   46.2099  -10.6236   -7.7408 C   0  0  0  0  0  0  0  0  0  0  0  0
   43.8648  -11.0834   -7.0147 C   0  0  0  0  0  0  0  0  0  0  0  0
   43.7940   -9.6921   -6.4168 C   0  0  2  0  0  0  0  0  0  0  0  0
   43.9313   -9.8126   -4.9849 N   0  0  0  0  0  0  0  0  0  0  0  0
   42.4532   -9.1453   -6.7230 C   0  0  0  0  0  0  0  0  0  0  0  0
   41.4236   -9.5541   -6.1296 O   0  0  0  0  0  0  0  0  0  0  0  0
   41.3012   -3.2558   -3.2277 O   0  0  0  0  0  0  0  0  0  0  0  0
   41.3239   -3.9477   -4.4434 C   0  0  0  0  0  0  0  0  0  0  0  0
   40.1588   -4.3518   -5.0187 C   0  0  0  0  0  0  0  0  0  0  0  0
   40.1973   -5.0301   -6.2134 C   0  0  0  0  0  0  0  0  0  0  0  0
   41.3788   -5.3258   -6.8668 C   0  0  0  0  0  0  0  0  0  0  0  0
   41.3080   -6.0537   -8.1268 C   0  0  0  0  0  0  0  0  0  0  0  0
   41.0330   -7.5140   -8.0244 C   0  0  2  0  0  0  0  0  0  0  0  0
   42.3177   -8.1509   -7.6932 N   0  0  0  0  0  0  0  0  0  0  0  0
   40.6163   -8.1271   -9.3061 C   0  0  0  0  0  0  0  0  0  0  0  0
   41.5087   -8.3434  -10.1676 O   0  0  0  0  0  0  0  0  0  0  0  0
   42.5370   -4.8990   -6.2506 C   0  0  0  0  0  0  0  0  0  0  0  0
   42.5452   -4.2233   -5.0662 C   0  0  0  0  0  0  0  0  0  0  0  0
   35.7131  -11.7301  -15.8313 O   0  0  0  0  0  0  0  0  0  0  0  0
   36.1879  -11.2741  -14.5984 C   0  0  0  0  0  0  0  0  0  0  0  0
   35.7841  -10.0466  -14.1083 C   0  0  0  0  0  0  0  0  0  0  0  0
   36.2553   -9.6023  -12.8930 C   0  0  0  0  0  0  0  0  0  0  0  0
   37.1338  -10.3341  -12.1128 C   0  0  0  0  0  0  0  0  0  0  0  0
   37.6319   -9.8397  -10.8107 C   0  0  0  0  0  0  0  0  0  0  0  0
   38.9045   -9.0263  -10.9267 C   0  0  2  0  0  0  0  0  0  0  0  0
   39.2886   -8.4860   -9.6289 N   0  0  0  0  0  0  0  0  0  0  0  0
   38.7822   -7.9287  -11.8916 C   0  0  0  0  0  0  0  0  0  0  0  0
   38.2794   -6.6890  -11.5714 O   0  0  0  0  0  0  0  0  0  0  0  0
   37.5250  -11.5669  -12.6293 C   0  0  0  0  0  0  0  0  0  0  0  0
   37.0592  -12.0238  -13.8471 C   0  0  0  0  0  0  0  0  0  0  0  0
   39.1505   -8.1087  -13.0833 O   0  0  0  0  0  0  0  0  0  0  0  0
  2  1  1  6
  2  3  1  0
  4  2  1  0
  5  6  1  1
  5  4  1  0
  7  5  1  0
  8  7  2  0
  9 10  1  0
 10 11  2  0
 10 20  1  0
 11 12  1  0
 12 13  2  0
 13 14  1  0
 15 14  1  6
 15 16  1  0
 16  7  1  0
 17 15  1  0
 17 28  1  0
 18 17  2  0
 19 13  1  0
 20 19  2  0
 22 21  1  0
 23 22  2  0
 24 23  1  0
 25 24  2  0
 25 31  1  0
 26 25  1  0
 27 26  1  1
 27 28  1  0
 27 29  1  0
 29 30  1  0
 31 32  2  0
 32 22  1  0
 33 29  2  0
M  END
$$$$
