LYY.pdb
     RDKit          3D

 33 34  0  0  1  0  0  0  0  0999 V2000
   29.1754  -18.8210   -5.5431 C   0  0  0  0  0  0  0  0  0  0  0  0
   27.9932  -19.6024   -5.0293 C   0  0  1  0  0  0  0  0  0  0  0  0
   27.4995  -18.9848   -3.7405 C   0  0  0  0  0  0  0  0  0  0  0  0
   26.9175  -19.6074   -6.0881 C   0  0  0  0  0  0  0  0  0  0  0  0
   27.1683  -20.6427   -7.1668 C   0  0  2  0  0  0  0  0  0  0  0  0
   28.5797  -20.9454   -7.1773 N   0  0  0  0  0  0  0  0  0  0  0  0
   26.8022  -20.0302   -8.4634 C   0  0  0  0  0  0  0  0  0  0  0  0
   27.4582  -19.0747   -8.9494 O   0  0  0  0  0  0  0  0  0  0  0  0
   27.3144  -21.5119  -16.7646 O   0  0  0  0  0  0  0  0  0  0  0  0
   27.1472  -21.4817  -15.3760 C   0  0  0  0  0  0  0  0  0  0  0  0
   27.8764  -20.6156  -14.6211 C   0  0  0  0  0  0  0  0  0  0  0  0
   27.7005  -20.5973  -13.2581 C   0  0  0  0  0  0  0  0  0  0  0  0
   26.8067  -21.4280  -12.6090 C   0  0  0  0  0  0  0  0  0  0  0  0
   26.7010  -21.3308  -11.1593 C   0  0  0  0  0  0  0  0  0  0  0  0
   25.6013  -20.4710  -10.6394 C   0  0  2  0  0  0  0  0  0  0  0  0
   25.7030  -20.5180   -9.1721 N   0  0  0  0  0  0  0  0  0  0  0  0
   24.2498  -20.9895  -10.9505 C   0  0  0  0  0  0  0  0  0  0  0  0
   23.5534  -21.4169   -9.9926 O   0  0  0  0  0  0  0  0  0  0  0  0
   26.0875  -22.2907  -13.4100 C   0  0  0  0  0  0  0  0  0  0  0  0
   26.2298  -22.3424  -14.7653 C   0  0  0  0  0  0  0  0  0  0  0  0
   16.1721  -18.7511  -12.6232 O   0  0  0  0  0  0  0  0  0  0  0  0
   17.5442  -18.9518  -12.4487 C   0  0  0  0  0  0  0  0  0  0  0  0
   18.0164  -19.5793  -11.3115 C   0  0  0  0  0  0  0  0  0  0  0  0
   19.3693  -19.7742  -11.1447 C   0  0  0  0  0  0  0  0  0  0  0  0
   20.3092  -19.3667  -12.0756 C   0  0  0  0  0  0  0  0  0  0  0  0
   21.7593  -19.5819  -11.8786 C   0  0  0  0  0  0  0  0  0  0  0  0
   22.2633  -20.8676  -12.5011 C   0  0  2  0  0  0  0  0  0  0  0  0
   23.6880  -21.0375  -12.2459 N   0  0  0  0  0  0  0  0  0  0  0  0
   22.0198  -20.9238  -13.9462 C   0  0  0  0  0  0  0  0  0  0  0  0
   22.7384  -20.1959  -14.8659 O   0  0  0  0  0  0  0  0  0  0  0  0
   19.8074  -18.7370  -13.2120 C   0  0  0  0  0  0  0  0  0  0  0  0
   18.4523  -18.5359  -13.3910 C   0  0  0  0  0  0  0  0  0  0  0  0
   21.1082  -21.6715  -14.3913 O   0  0  0  0  0  0  0  0  0  0  0  0
  2  1  1  6
  2  3  1  0
  4  2  1  0
  5  6  1  6
  5  4  1  0
  7  5  1  0
  8  7  2  0
  9 10  1  0
 10 11  2  0
 10 20  1  0
 11 12  1  0
 12 13  2  0
 13 14  1  0
 15 14  1  6
 15 16  1  0
 16  7  1  0
 17 15  1  0
 17 28  1  0
 18 17  2  0
 19 13  1  0
 20 19  2  0
 22 21  1  0
 23 22  2  0
 24 23  1  0
 25 24  2  0
 25 31  1  0
 26 25  1  0
 27 26  1  6
 27 28  1  0
 27 29  1  0
 29 30  1  0
 31 32  2  0
 32 22  1  0
 33 29  2  0
M  END
$$$$
