LYY.pdb
     RDKit          3D

 33 34  0  0  1  0  0  0  0  0999 V2000
   35.3780    0.3483  -16.9114 C   0  0  0  0  0  0  0  0  0  0  0  0
   35.1815    0.4847  -15.4232 C   0  0  1  0  0  0  0  0  0  0  0  0
   33.8556   -0.1262  -15.0293 C   0  0  0  0  0  0  0  0  0  0  0  0
   36.3328   -0.1898  -14.7176 C   0  0  0  0  0  0  0  0  0  0  0  0
   36.2302   -0.0874  -13.2086 C   0  0  2  0  0  0  0  0  0  0  0  0
   36.4204    1.2951  -12.8396 N   0  0  0  0  0  0  0  0  0  0  0  0
   37.3323   -0.8905  -12.6334 C   0  0  0  0  0  0  0  0  0  0  0  0
   38.5191   -0.4770  -12.6347 O   0  0  0  0  0  0  0  0  0  0  0  0
   41.1813   -5.5132   -6.3588 O   0  0  0  0  0  0  0  0  0  0  0  0
   40.3067   -4.8627   -7.2357 C   0  0  0  0  0  0  0  0  0  0  0  0
   40.6793   -3.6956   -7.8279 C   0  0  0  0  0  0  0  0  0  0  0  0
   39.8094   -3.0686   -8.6875 C   0  0  0  0  0  0  0  0  0  0  0  0
   38.5570   -3.5734   -8.9826 C   0  0  0  0  0  0  0  0  0  0  0  0
   37.7109   -2.8270   -9.9040 C   0  0  0  0  0  0  0  0  0  0  0  0
   38.0588   -2.9379  -11.3481 C   0  0  2  0  0  0  0  0  0  0  0  0
   37.0579   -2.1394  -12.0735 N   0  0  0  0  0  0  0  0  0  0  0  0
   37.9209   -4.3111  -11.8844 C   0  0  0  0  0  0  0  0  0  0  0  0
   36.7564   -4.7678  -12.0281 O   0  0  0  0  0  0  0  0  0  0  0  0
   38.2177   -4.7578   -8.3617 C   0  0  0  0  0  0  0  0  0  0  0  0
   39.0494   -5.4134   -7.5026 C   0  0  0  0  0  0  0  0  0  0  0  0
   39.7757  -12.5060  -14.8866 O   0  0  0  0  0  0  0  0  0  0  0  0
   39.8371  -11.1521  -14.5450 C   0  0  0  0  0  0  0  0  0  0  0  0
   40.3060  -10.7686  -13.3028 C   0  0  0  0  0  0  0  0  0  0  0  0
   40.3641   -9.4333  -12.9716 C   0  0  0  0  0  0  0  0  0  0  0  0
   39.9693   -8.4255  -13.8345 C   0  0  0  0  0  0  0  0  0  0  0  0
   40.0360   -6.9959  -13.4606 C   0  0  0  0  0  0  0  0  0  0  0  0
   38.8365   -6.5299  -12.6615 C   0  0  2  0  0  0  0  0  0  0  0  0
   39.0039   -5.1432  -12.2458 N   0  0  0  0  0  0  0  0  0  0  0  0
   38.5916   -7.3637  -11.4802 C   0  0  0  0  0  0  0  0  0  0  0  0
   37.6031   -8.3181  -11.4165 O   0  0  0  0  0  0  0  0  0  0  0  0
   39.5008   -8.8385  -15.0792 C   0  0  0  0  0  0  0  0  0  0  0  0
   39.4379  -10.1751  -15.4235 C   0  0  0  0  0  0  0  0  0  0  0  0
   39.3125   -7.2145  -10.4575 O   0  0  0  0  0  0  0  0  0  0  0  0
  2  1  1  6
  2  3  1  0
  4  2  1  0
  5  6  1  6
  5  4  1  0
  7  5  1  0
  8  7  2  0
  9 10  1  0
 10 11  2  0
 10 20  1  0
 11 12  1  0
 12 13  2  0
 13 14  1  0
 15 14  1  1
 15 16  1  0
 16  7  1  0
 17 15  1  0
 17 28  1  0
 18 17  2  0
 19 13  1  0
 20 19  2  0
 22 21  1  0
 23 22  2  0
 24 23  1  0
 25 24  2  0
 25 31  1  0
 26 25  1  0
 27 26  1  1
 27 28  1  0
 27 29  1  0
 29 30  1  0
 31 32  2  0
 32 22  1  0
 33 29  2  0
M  END
$$$$
