LYY.pdb
     RDKit          3D

 33 34  0  0  1  0  0  0  0  0999 V2000
   24.3397  -32.6172   -6.8701 C   0  0  0  0  0  0  0  0  0  0  0  0
   25.6438  -33.2893   -7.2157 C   0  0  1  0  0  0  0  0  0  0  0  0
   26.6072  -32.2675   -7.7762 C   0  0  0  0  0  0  0  0  0  0  0  0
   26.1952  -33.9466   -5.9738 C   0  0  0  0  0  0  0  0  0  0  0  0
   27.5147  -34.6496   -6.2251 C   0  0  2  0  0  0  0  0  0  0  0  0
   27.4318  -35.3134   -7.5042 N   0  0  0  0  0  0  0  0  0  0  0  0
   27.6816  -35.6713   -5.1674 C   0  0  0  0  0  0  0  0  0  0  0  0
   27.1204  -36.7934   -5.2408 O   0  0  0  0  0  0  0  0  0  0  0  0
   31.9557  -39.7467    1.4202 O   0  0  0  0  0  0  0  0  0  0  0  0
   31.5201  -38.8983    0.3966 C   0  0  0  0  0  0  0  0  0  0  0  0
   31.0963  -39.4204   -0.7864 C   0  0  0  0  0  0  0  0  0  0  0  0
   30.6709  -38.5742   -1.7823 C   0  0  0  0  0  0  0  0  0  0  0  0
   30.6533  -37.1997   -1.6377 C   0  0  0  0  0  0  0  0  0  0  0  0
   30.1874  -36.3932   -2.7579 C   0  0  0  0  0  0  0  0  0  0  0  0
   28.7131  -36.3526   -2.9666 C   0  0  2  0  0  0  0  0  0  0  0  0
   28.4796  -35.3920   -4.0567 N   0  0  0  0  0  0  0  0  0  0  0  0
   27.9679  -35.8111   -1.8075 C   0  0  0  0  0  0  0  0  0  0  0  0
   28.0747  -34.5796   -1.5680 O   0  0  0  0  0  0  0  0  0  0  0  0
   31.0906  -36.7109   -0.4241 C   0  0  0  0  0  0  0  0  0  0  0  0
   31.5209  -37.5136    0.5910 C   0  0  0  0  0  0  0  0  0  0  0  0
   22.3377  -34.7192    4.9822 O   0  0  0  0  0  0  0  0  0  0  0  0
   23.0044  -35.1674    3.8385 C   0  0  0  0  0  0  0  0  0  0  0  0
   23.7733  -36.3148    3.8864 C   0  0  0  0  0  0  0  0  0  0  0  0
   24.4282  -36.7517    2.7565 C   0  0  0  0  0  0  0  0  0  0  0  0
   24.3590  -36.0899    1.5427 C   0  0  0  0  0  0  0  0  0  0  0  0
   25.0717  -36.5722    0.3396 C   0  0  0  0  0  0  0  0  0  0  0  0
   26.4787  -36.0244    0.2179 C   0  0  2  0  0  0  0  0  0  0  0  0
   27.1461  -36.5792   -0.9528 N   0  0  0  0  0  0  0  0  0  0  0  0
   27.2895  -36.2919    1.4102 C   0  0  0  0  0  0  0  0  0  0  0  0
   28.5140  -36.9173    1.3708 O   0  0  0  0  0  0  0  0  0  0  0  0
   23.5782  -34.9369    1.5215 C   0  0  0  0  0  0  0  0  0  0  0  0
   22.9161  -34.4885    2.6482 C   0  0  0  0  0  0  0  0  0  0  0  0
   26.8609  -35.9394    2.5417 O   0  0  0  0  0  0  0  0  0  0  0  0
  2  1  1  1
  2  3  1  0
  4  2  1  0
  5  6  1  6
  5  4  1  0
  7  5  1  0
  8  7  2  0
  9 10  1  0
 10 11  2  0
 10 20  1  0
 11 12  1  0
 12 13  2  0
 13 14  1  0
 15 14  1  1
 15 16  1  0
 16  7  1  0
 17 15  1  0
 17 28  1  0
 18 17  2  0
 19 13  1  0
 20 19  2  0
 22 21  1  0
 23 22  2  0
 24 23  1  0
 25 24  2  0
 25 31  1  0
 26 25  1  0
 27 26  1  1
 27 28  1  0
 27 29  1  0
 29 30  1  0
 31 32  2  0
 32 22  1  0
 33 29  2  0
M  END
$$$$
