LYY.pdb
     RDKit          3D

 33 34  0  0  1  0  0  0  0  0999 V2000
   29.0989  -10.9934  -17.1014 C   0  0  0  0  0  0  0  0  0  0  0  0
   28.1539  -12.1196  -16.7691 C   0  0  1  0  0  0  0  0  0  0  0  0
   28.3053  -12.4945  -15.3121 C   0  0  0  0  0  0  0  0  0  0  0  0
   26.7447  -11.6796  -17.0836 C   0  0  0  0  0  0  0  0  0  0  0  0
   25.7207  -12.7603  -16.7975 C   0  0  2  0  0  0  0  0  0  0  0  0
   26.0117  -13.8894  -17.6485 N   0  0  0  0  0  0  0  0  0  0  0  0
   24.3917  -12.2195  -17.1603 C   0  0  0  0  0  0  0  0  0  0  0  0
   23.9139  -12.3644  -18.3136 O   0  0  0  0  0  0  0  0  0  0  0  0
   20.0087  -16.8405  -17.9534 O   0  0  0  0  0  0  0  0  0  0  0  0
   20.3586  -15.6196  -17.3667 C   0  0  0  0  0  0  0  0  0  0  0  0
   19.7934  -14.4641  -17.8105 C   0  0  0  0  0  0  0  0  0  0  0  0
   20.1468  -13.2726  -17.2237 C   0  0  0  0  0  0  0  0  0  0  0  0
   21.0616  -13.1910  -16.1908 C   0  0  0  0  0  0  0  0  0  0  0  0
   21.3689  -11.8768  -15.6425 C   0  0  0  0  0  0  0  0  0  0  0  0
   22.2824  -11.0258  -16.4551 C   0  0  2  0  0  0  0  0  0  0  0  0
   23.6423  -11.5298  -16.2057 N   0  0  0  0  0  0  0  0  0  0  0  0
   22.3092   -9.6098  -16.0233 C   0  0  0  0  0  0  0  0  0  0  0  0
   22.8831   -9.3418  -14.9351 O   0  0  0  0  0  0  0  0  0  0  0  0
   21.6114  -14.3844  -15.7706 C   0  0  0  0  0  0  0  0  0  0  0  0
   21.2896  -15.5886  -16.3238 C   0  0  0  0  0  0  0  0  0  0  0  0
   16.2059   -6.2868  -19.3471 O   0  0  0  0  0  0  0  0  0  0  0  0
   17.5288   -6.2763  -18.8964 C   0  0  0  0  0  0  0  0  0  0  0  0
   17.9119   -5.4172  -17.8839 C   0  0  0  0  0  0  0  0  0  0  0  0
   19.2167   -5.4109  -17.4439 C   0  0  0  0  0  0  0  0  0  0  0  0
   20.1934   -6.2379  -17.9715 C   0  0  0  0  0  0  0  0  0  0  0  0
   21.5912   -6.2156  -17.4883 C   0  0  0  0  0  0  0  0  0  0  0  0
   21.8356   -7.1497  -16.3211 C   0  0  2  0  0  0  0  0  0  0  0  0
   21.7367   -8.5400  -16.7468 N   0  0  0  0  0  0  0  0  0  0  0  0
   20.9059   -6.9154  -15.2114 C   0  0  0  0  0  0  0  0  0  0  0  0
   20.9405   -5.7936  -14.4161 O   0  0  0  0  0  0  0  0  0  0  0  0
   19.7814   -7.0935  -18.9903 C   0  0  0  0  0  0  0  0  0  0  0  0
   18.4752   -7.1094  -19.4403 C   0  0  0  0  0  0  0  0  0  0  0  0
   20.0206   -7.7745  -14.9542 O   0  0  0  0  0  0  0  0  0  0  0  0
  2  1  1  1
  2  3  1  0
  4  2  1  0
  5  6  1  6
  5  4  1  0
  7  5  1  0
  8  7  2  0
  9 10  1  0
 10 11  2  0
 10 20  1  0
 11 12  1  0
 12 13  2  0
 13 14  1  0
 15 14  1  1
 15 16  1  0
 16  7  1  0
 17 15  1  0
 17 28  1  0
 18 17  2  0
 19 13  1  0
 20 19  2  0
 22 21  1  0
 23 22  2  0
 24 23  1  0
 25 24  2  0
 25 31  1  0
 26 25  1  0
 27 26  1  6
 27 28  1  0
 27 29  1  0
 29 30  1  0
 31 32  2  0
 32 22  1  0
 33 29  2  0
M  END
$$$$
