LYY.pdb
     RDKit          3D

 33 34  0  0  1  0  0  0  0  0999 V2000
   28.3901  -19.7945  -17.7943 C   0  0  0  0  0  0  0  0  0  0  0  0
   27.5122  -20.7721  -17.0557 C   0  0  1  0  0  0  0  0  0  0  0  0
   28.3493  -21.9290  -16.5585 C   0  0  0  0  0  0  0  0  0  0  0  0
   26.8335  -20.0506  -15.9168 C   0  0  0  0  0  0  0  0  0  0  0  0
   25.8691  -20.9402  -15.1574 C   0  0  2  0  0  0  0  0  0  0  0  0
   25.8965  -22.2501  -15.7633 N   0  0  0  0  0  0  0  0  0  0  0  0
   24.5143  -20.3673  -15.3210 C   0  0  0  0  0  0  0  0  0  0  0  0
   24.2323  -19.2142  -14.9082 O   0  0  0  0  0  0  0  0  0  0  0  0
   24.9766  -16.6134  -20.4208 O   0  0  0  0  0  0  0  0  0  0  0  0
   24.2278  -17.5774  -19.7372 C   0  0  0  0  0  0  0  0  0  0  0  0
   24.6564  -18.8682  -19.6947 C   0  0  0  0  0  0  0  0  0  0  0  0
   23.9102  -19.8038  -19.0188 C   0  0  0  0  0  0  0  0  0  0  0  0
   22.7292  -19.4919  -18.3720 C   0  0  0  0  0  0  0  0  0  0  0  0
   22.0130  -20.5605  -17.6884 C   0  0  0  0  0  0  0  0  0  0  0  0
   22.1628  -20.6056  -16.2071 C   0  0  2  0  0  0  0  0  0  0  0  0
   23.5178  -21.1177  -15.9475 N   0  0  0  0  0  0  0  0  0  0  0  0
   21.2520  -21.5712  -15.5512 C   0  0  0  0  0  0  0  0  0  0  0  0
   21.7037  -22.7179  -15.2934 O   0  0  0  0  0  0  0  0  0  0  0  0
   22.3298  -18.1732  -18.4391 C   0  0  0  0  0  0  0  0  0  0  0  0
   23.0389  -17.2126  -19.0980 C   0  0  0  0  0  0  0  0  0  0  0  0
   17.1717  -25.4478   -9.1040 O   0  0  0  0  0  0  0  0  0  0  0  0
   17.8242  -24.6354  -10.0354 C   0  0  0  0  0  0  0  0  0  0  0  0
   18.7508  -25.1794  -10.9045 C   0  0  0  0  0  0  0  0  0  0  0  0
   19.3909  -24.3742  -11.8201 C   0  0  0  0  0  0  0  0  0  0  0  0
   19.1533  -23.0144  -11.9229 C   0  0  0  0  0  0  0  0  0  0  0  0
   19.8523  -22.1640  -12.9109 C   0  0  0  0  0  0  0  0  0  0  0  0
   19.1562  -22.1132  -14.2553 C   0  0  2  0  0  0  0  0  0  0  0  0
   19.9130  -21.2955  -15.1946 N   0  0  0  0  0  0  0  0  0  0  0  0
   17.7867  -21.5977  -14.1583 C   0  0  0  0  0  0  0  0  0  0  0  0
   16.6697  -22.4000  -14.1883 O   0  0  0  0  0  0  0  0  0  0  0  0
   18.2156  -22.4914  -11.0359 C   0  0  0  0  0  0  0  0  0  0  0  0
   17.5666  -23.2889  -10.1130 C   0  0  0  0  0  0  0  0  0  0  0  0
   17.5995  -20.3570  -14.0414 O   0  0  0  0  0  0  0  0  0  0  0  0
  2  1  1  1
  2  3  1  0
  4  2  1  0
  5  6  1  6
  5  4  1  0
  7  5  1  0
  8  7  2  0
  9 10  1  0
 10 11  2  0
 10 20  1  0
 11 12  1  0
 12 13  2  0
 13 14  1  0
 15 14  1  6
 15 16  1  0
 16  7  1  0
 17 15  1  0
 17 28  1  0
 18 17  2  0
 19 13  1  0
 20 19  2  0
 22 21  1  0
 23 22  2  0
 24 23  1  0
 25 24  2  0
 25 31  1  0
 26 25  1  0
 27 26  1  1
 27 28  1  0
 27 29  1  0
 29 30  1  0
 31 32  2  0
 32 22  1  0
 33 29  2  0
M  END
$$$$
