LYY.pdb
     RDKit          3D

 33 34  0  0  1  0  0  0  0  0999 V2000
   29.0757  -24.5265  -18.0486 C   0  0  0  0  0  0  0  0  0  0  0  0
   28.6493  -23.1404  -17.6377 C   0  0  1  0  0  0  0  0  0  0  0  0
   28.3372  -22.3206  -18.8693 C   0  0  0  0  0  0  0  0  0  0  0  0
   27.4499  -23.2512  -16.7281 C   0  0  0  0  0  0  0  0  0  0  0  0
   26.9924  -21.9047  -16.2027 C   0  0  2  0  0  0  0  0  0  0  0  0
   28.1445  -21.0383  -16.1280 N   0  0  0  0  0  0  0  0  0  0  0  0
   26.4661  -22.1173  -14.8359 C   0  0  0  0  0  0  0  0  0  0  0  0
   25.5670  -22.9631  -14.6002 O   0  0  0  0  0  0  0  0  0  0  0  0
   25.8877  -20.3776   -6.1410 O   0  0  0  0  0  0  0  0  0  0  0  0
   26.3109  -20.5031   -7.4686 C   0  0  0  0  0  0  0  0  0  0  0  0
   25.4462  -20.9501   -8.4195 C   0  0  0  0  0  0  0  0  0  0  0  0
   25.8765  -21.0675   -9.7195 C   0  0  0  0  0  0  0  0  0  0  0  0
   27.1630  -20.7494  -10.1121 C   0  0  0  0  0  0  0  0  0  0  0  0
   27.5177  -20.9145  -11.5154 C   0  0  0  0  0  0  0  0  0  0  0  0
   26.4442  -21.4400  -12.4043 C   0  0  2  0  0  0  0  0  0  0  0  0
   26.9739  -21.3651  -13.7752 N   0  0  0  0  0  0  0  0  0  0  0  0
   25.2238  -20.6018  -12.4146 C   0  0  0  0  0  0  0  0  0  0  0  0
   25.2716  -19.5081  -13.0367 O   0  0  0  0  0  0  0  0  0  0  0  0
   28.0078  -20.3003   -9.1183 C   0  0  0  0  0  0  0  0  0  0  0  0
   27.6231  -20.1684   -7.8167 C   0  0  0  0  0  0  0  0  0  0  0  0
   17.3681  -17.9167  -14.6929 O   0  0  0  0  0  0  0  0  0  0  0  0
   18.6087  -18.4903  -14.4011 C   0  0  0  0  0  0  0  0  0  0  0  0
   18.7453  -19.8647  -14.3515 C   0  0  0  0  0  0  0  0  0  0  0  0
   19.9700  -20.4244  -14.0633 C   0  0  0  0  0  0  0  0  0  0  0  0
   21.1030  -19.6694  -13.8135 C   0  0  0  0  0  0  0  0  0  0  0  0
   22.4102  -20.2879  -13.5027 C   0  0  0  0  0  0  0  0  0  0  0  0
   22.7559  -20.2470  -12.0284 C   0  0  2  0  0  0  0  0  0  0  0  0
   24.0109  -20.9436  -11.7760 N   0  0  0  0  0  0  0  0  0  0  0  0
   21.7024  -20.8272  -11.1893 C   0  0  0  0  0  0  0  0  0  0  0  0
   21.5876  -22.1749  -10.9386 O   0  0  0  0  0  0  0  0  0  0  0  0
   20.9384  -18.2876  -13.8694 C   0  0  0  0  0  0  0  0  0  0  0  0
   19.7150  -17.7140  -14.1578 C   0  0  0  0  0  0  0  0  0  0  0  0
   20.8454  -20.0697  -10.6603 O   0  0  0  0  0  0  0  0  0  0  0  0
  2  1  1  6
  2  3  1  0
  4  2  1  0
  5  6  1  1
  5  4  1  0
  7  5  1  0
  8  7  2  0
  9 10  1  0
 10 11  2  0
 10 20  1  0
 11 12  1  0
 12 13  2  0
 13 14  1  0
 15 14  1  1
 15 16  1  0
 16  7  1  0
 17 15  1  0
 17 28  1  0
 18 17  2  0
 19 13  1  0
 20 19  2  0
 22 21  1  0
 23 22  2  0
 24 23  1  0
 25 24  2  0
 25 31  1  0
 26 25  1  0
 27 26  1  6
 27 28  1  0
 27 29  1  0
 29 30  1  0
 31 32  2  0
 32 22  1  0
 33 29  2  0
M  END
$$$$
