LYY.pdb
     RDKit          3D

 33 34  0  0  1  0  0  0  0  0999 V2000
   29.1519  -15.8153  -18.7192 C   0  0  0  0  0  0  0  0  0  0  0  0
   29.2458  -17.1798  -18.0858 C   0  0  1  0  0  0  0  0  0  0  0  0
   30.6590  -17.7018  -18.2147 C   0  0  0  0  0  0  0  0  0  0  0  0
   28.8247  -17.0740  -16.6402 C   0  0  0  0  0  0  0  0  0  0  0  0
   29.0053  -18.3762  -15.8853 C   0  0  2  0  0  0  0  0  0  0  0  0
   28.7968  -19.4634  -16.8117 N   0  0  0  0  0  0  0  0  0  0  0  0
   27.9583  -18.4323  -14.8407 C   0  0  0  0  0  0  0  0  0  0  0  0
   27.7998  -17.4974  -14.0159 O   0  0  0  0  0  0  0  0  0  0  0  0
   20.1619  -21.2138  -11.6093 O   0  0  0  0  0  0  0  0  0  0  0  0
   21.3323  -20.9850  -12.3408 C   0  0  0  0  0  0  0  0  0  0  0  0
   21.5828  -19.7508  -12.8562 C   0  0  0  0  0  0  0  0  0  0  0  0
   22.7372  -19.5414  -13.5721 C   0  0  0  0  0  0  0  0  0  0  0  0
   23.6679  -20.5382  -13.7970 C   0  0  0  0  0  0  0  0  0  0  0  0
   24.8564  -20.2111  -14.5732 C   0  0  0  0  0  0  0  0  0  0  0  0
   26.0053  -19.6526  -13.8071 C   0  0  2  0  0  0  0  0  0  0  0  0
   27.1211  -19.5464  -14.7607 N   0  0  0  0  0  0  0  0  0  0  0  0
   26.4944  -20.5522  -12.7377 C   0  0  0  0  0  0  0  0  0  0  0  0
   27.0608  -21.6210  -13.0872 O   0  0  0  0  0  0  0  0  0  0  0  0
   23.3764  -21.7742  -13.2580 C   0  0  0  0  0  0  0  0  0  0  0  0
   22.2439  -22.0262  -12.5413 C   0  0  0  0  0  0  0  0  0  0  0  0
   27.5457  -18.8034   -4.5837 O   0  0  0  0  0  0  0  0  0  0  0  0
   27.5504  -19.4709   -5.8116 C   0  0  0  0  0  0  0  0  0  0  0  0
   26.3609  -19.7396   -6.4619 C   0  0  0  0  0  0  0  0  0  0  0  0
   26.3715  -20.3977   -7.6715 C   0  0  0  0  0  0  0  0  0  0  0  0
   27.5364  -20.8172   -8.2904 C   0  0  0  0  0  0  0  0  0  0  0  0
   27.5288  -21.5255   -9.5889 C   0  0  0  0  0  0  0  0  0  0  0  0
   26.2358  -21.3502  -10.3583 C   0  0  2  0  0  0  0  0  0  0  0  0
   26.3701  -20.2948  -11.3542 N   0  0  0  0  0  0  0  0  0  0  0  0
   25.0988  -21.0482   -9.4826 C   0  0  0  0  0  0  0  0  0  0  0  0
   24.5712  -21.9482   -8.5860 O   0  0  0  0  0  0  0  0  0  0  0  0
   28.7208  -20.5344   -7.6145 C   0  0  0  0  0  0  0  0  0  0  0  0
   28.7234  -19.8745   -6.4006 C   0  0  0  0  0  0  0  0  0  0  0  0
   24.5604  -19.9102   -9.5380 O   0  0  0  0  0  0  0  0  0  0  0  0
  2  1  1  1
  2  3  1  0
  4  2  1  0
  5  6  1  6
  5  4  1  0
  7  5  1  0
  8  7  2  0
  9 10  1  0
 10 11  2  0
 10 20  1  0
 11 12  1  0
 12 13  2  0
 13 14  1  0
 15 14  1  6
 15 16  1  0
 16  7  1  0
 17 15  1  0
 17 28  1  0
 18 17  2  0
 19 13  1  0
 20 19  2  0
 22 21  1  0
 23 22  2  0
 24 23  1  0
 25 24  2  0
 25 31  1  0
 26 25  1  0
 27 26  1  1
 27 28  1  0
 27 29  1  0
 29 30  1  0
 31 32  2  0
 32 22  1  0
 33 29  2  0
M  END
$$$$
