LYY.pdb
     RDKit          3D

 33 34  0  0  1  0  0  0  0  0999 V2000
   26.6489  -35.8565  -17.4690 C   0  0  0  0  0  0  0  0  0  0  0  0
   27.1889  -34.9065  -16.4308 C   0  0  1  0  0  0  0  0  0  0  0  0
   27.7108  -35.6916  -15.2486 C   0  0  0  0  0  0  0  0  0  0  0  0
   28.2739  -34.0662  -17.0594 C   0  0  0  0  0  0  0  0  0  0  0  0
   28.9601  -33.1586  -16.0575 C   0  0  2  0  0  0  0  0  0  0  0  0
   28.1424  -31.9815  -15.8863 N   0  0  0  0  0  0  0  0  0  0  0  0
   30.2594  -32.7561  -16.6408 C   0  0  0  0  0  0  0  0  0  0  0  0
   30.3261  -32.0901  -17.7045 O   0  0  0  0  0  0  0  0  0  0  0  0
   30.9017  -28.3008  -20.8284 O   0  0  0  0  0  0  0  0  0  0  0  0
   31.3805  -29.0259  -19.7319 C   0  0  0  0  0  0  0  0  0  0  0  0
   30.7447  -28.9443  -18.5316 C   0  0  0  0  0  0  0  0  0  0  0  0
   31.2266  -29.6630  -17.4638 C   0  0  0  0  0  0  0  0  0  0  0  0
   32.3415  -30.4752  -17.5522 C   0  0  0  0  0  0  0  0  0  0  0  0
   32.7713  -31.1907  -16.3582 C   0  0  0  0  0  0  0  0  0  0  0  0
   32.7753  -32.6773  -16.4519 C   0  0  2  0  0  0  0  0  0  0  0  0
   31.4460  -33.1200  -16.0019 N   0  0  0  0  0  0  0  0  0  0  0  0
   33.7326  -33.3241  -15.5259 C   0  0  0  0  0  0  0  0  0  0  0  0
   33.4018  -33.4164  -14.3145 O   0  0  0  0  0  0  0  0  0  0  0  0
   32.9567  -30.5302  -18.7858 C   0  0  0  0  0  0  0  0  0  0  0  0
   32.5128  -29.8345  -19.8714 C   0  0  0  0  0  0  0  0  0  0  0  0
   38.8485  -36.8009   -9.7295 O   0  0  0  0  0  0  0  0  0  0  0  0
   38.1206  -36.0919  -10.6891 C   0  0  0  0  0  0  0  0  0  0  0  0
   36.8089  -35.7333  -10.4422 C   0  0  0  0  0  0  0  0  0  0  0  0
   36.0963  -35.0349  -11.3914 C   0  0  0  0  0  0  0  0  0  0  0  0
   36.6326  -34.6613  -12.6116 C   0  0  0  0  0  0  0  0  0  0  0  0
   35.8513  -33.9135  -13.6207 C   0  0  0  0  0  0  0  0  0  0  0  0
   35.8631  -34.5640  -14.9887 C   0  0  2  0  0  0  0  0  0  0  0  0
   34.9895  -33.8445  -15.9068 N   0  0  0  0  0  0  0  0  0  0  0  0
   35.4620  -35.9738  -14.9426 C   0  0  0  0  0  0  0  0  0  0  0  0
   34.1578  -36.3960  -15.0569 O   0  0  0  0  0  0  0  0  0  0  0  0
   37.9555  -35.0349  -12.8353 C   0  0  0  0  0  0  0  0  0  0  0  0
   38.6809  -35.7354  -11.8909 C   0  0  0  0  0  0  0  0  0  0  0  0
   36.3420  -36.8628  -14.7901 O   0  0  0  0  0  0  0  0  0  0  0  0
  2  1  1  6
  2  3  1  0
  4  2  1  0
  5  6  1  6
  5  4  1  0
  7  5  1  0
  8  7  2  0
  9 10  1  0
 10 11  2  0
 10 20  1  0
 11 12  1  0
 12 13  2  0
 13 14  1  0
 15 14  1  1
 15 16  1  0
 16  7  1  0
 17 15  1  0
 17 28  1  0
 18 17  2  0
 19 13  1  0
 20 19  2  0
 22 21  1  0
 23 22  2  0
 24 23  1  0
 25 24  2  0
 25 31  1  0
 26 25  1  0
 27 26  1  1
 27 28  1  0
 27 29  1  0
 29 30  1  0
 31 32  2  0
 32 22  1  0
 33 29  2  0
M  END
$$$$
