LYY.pdb
     RDKit          3D

 33 34  0  0  1  0  0  0  0  0999 V2000
   19.1363  -18.3461  -15.6550 C   0  0  0  0  0  0  0  0  0  0  0  0
   20.6262  -18.3997  -15.8772 C   0  0  1  0  0  0  0  0  0  0  0  0
   21.2082  -17.0104  -15.7451 C   0  0  0  0  0  0  0  0  0  0  0  0
   21.2326  -19.3513  -14.8747 C   0  0  0  0  0  0  0  0  0  0  0  0
   22.7465  -19.2771  -14.8447 C   0  0  2  0  0  0  0  0  0  0  0  0
   23.2440  -19.7684  -16.1075 N   0  0  0  0  0  0  0  0  0  0  0  0
   23.2135  -20.1761  -13.7657 C   0  0  0  0  0  0  0  0  0  0  0  0
   22.4115  -20.7054  -12.9558 O   0  0  0  0  0  0  0  0  0  0  0  0
   23.4882  -26.4034  -16.5438 O   0  0  0  0  0  0  0  0  0  0  0  0
   24.1087  -25.4074  -15.7820 C   0  0  0  0  0  0  0  0  0  0  0  0
   24.4884  -24.2394  -16.3679 C   0  0  0  0  0  0  0  0  0  0  0  0
   25.0964  -23.2703  -15.6064 C   0  0  0  0  0  0  0  0  0  0  0  0
   25.3444  -23.4278  -14.2558 C   0  0  0  0  0  0  0  0  0  0  0  0
   25.9989  -22.3395  -13.5421 C   0  0  0  0  0  0  0  0  0  0  0  0
   25.1125  -21.4692  -12.7202 C   0  0  2  0  0  0  0  0  0  0  0  0
   24.5762  -20.4493  -13.6355 N   0  0  0  0  0  0  0  0  0  0  0  0
   25.8359  -20.7095  -11.6754 C   0  0  0  0  0  0  0  0  0  0  0  0
   26.5526  -19.7431  -12.0465 O   0  0  0  0  0  0  0  0  0  0  0  0
   24.9444  -24.6257  -13.7005 C   0  0  0  0  0  0  0  0  0  0  0  0
   24.3380  -25.6140  -14.4182 C   0  0  0  0  0  0  0  0  0  0  0  0
   29.7556  -18.6369   -3.9331 O   0  0  0  0  0  0  0  0  0  0  0  0
   28.8808  -19.1209   -4.9099 C   0  0  0  0  0  0  0  0  0  0  0  0
   28.8524  -20.4693   -5.2116 C   0  0  0  0  0  0  0  0  0  0  0  0
   27.9887  -20.9406   -6.1751 C   0  0  0  0  0  0  0  0  0  0  0  0
   27.1239  -20.1194   -6.8779 C   0  0  0  0  0  0  0  0  0  0  0  0
   26.2046  -20.6428   -7.9117 C   0  0  0  0  0  0  0  0  0  0  0  0
   26.7049  -20.4218   -9.3243 C   0  0  2  0  0  0  0  0  0  0  0  0
   25.7777  -20.9932  -10.2926 N   0  0  0  0  0  0  0  0  0  0  0  0
   28.0408  -20.9869   -9.5407 C   0  0  0  0  0  0  0  0  0  0  0  0
   28.2894  -22.3373   -9.6234 O   0  0  0  0  0  0  0  0  0  0  0  0
   27.1725  -18.7655   -6.5550 C   0  0  0  0  0  0  0  0  0  0  0  0
   28.0344  -18.2805   -5.5902 C   0  0  0  0  0  0  0  0  0  0  0  0
   29.0282  -20.2129   -9.6593 O   0  0  0  0  0  0  0  0  0  0  0  0
  2  1  1  1
  2  3  1  0
  4  2  1  0
  5  6  1  6
  5  4  1  0
  7  5  1  0
  8  7  2  0
  9 10  1  0
 10 11  2  0
 10 20  1  0
 11 12  1  0
 12 13  2  0
 13 14  1  0
 15 14  1  6
 15 16  1  0
 16  7  1  0
 17 15  1  0
 17 28  1  0
 18 17  2  0
 19 13  1  0
 20 19  2  0
 22 21  1  0
 23 22  2  0
 24 23  1  0
 25 24  2  0
 25 31  1  0
 26 25  1  0
 27 26  1  1
 27 28  1  0
 27 29  1  0
 29 30  1  0
 31 32  2  0
 32 22  1  0
 33 29  2  0
M  END
$$$$
