LYY.pdb
     RDKit          3D

 33 34  0  0  1  0  0  0  0  0999 V2000
   28.9354  -26.9405  -18.2265 C   0  0  0  0  0  0  0  0  0  0  0  0
   27.6819  -27.2755  -17.4595 C   0  0  1  0  0  0  0  0  0  0  0  0
   28.0309  -28.1482  -16.2751 C   0  0  0  0  0  0  0  0  0  0  0  0
   27.0211  -25.9902  -17.0240 C   0  0  0  0  0  0  0  0  0  0  0  0
   25.6949  -26.2250  -16.3282 C   0  0  2  0  0  0  0  0  0  0  0  0
   24.9652  -27.2188  -17.0789 N   0  0  0  0  0  0  0  0  0  0  0  0
   24.9423  -24.9511  -16.3660 C   0  0  0  0  0  0  0  0  0  0  0  0
   25.4305  -23.8839  -15.9165 O   0  0  0  0  0  0  0  0  0  0  0  0
   19.5489  -18.8850  -19.7343 O   0  0  0  0  0  0  0  0  0  0  0  0
   20.2822  -20.0301  -19.4054 C   0  0  0  0  0  0  0  0  0  0  0  0
   21.6391  -20.0226  -19.5081 C   0  0  0  0  0  0  0  0  0  0  0  0
   22.3457  -21.1551  -19.1809 C   0  0  0  0  0  0  0  0  0  0  0  0
   21.7355  -22.3170  -18.7471 C   0  0  0  0  0  0  0  0  0  0  0  0
   22.5776  -23.4627  -18.4303 C   0  0  0  0  0  0  0  0  0  0  0  0
   22.8358  -23.7050  -16.9834 C   0  0  2  0  0  0  0  0  0  0  0  0
   23.6579  -24.9234  -16.9121 N   0  0  0  0  0  0  0  0  0  0  0  0
   21.6125  -24.0178  -16.2102 C   0  0  0  0  0  0  0  0  0  0  0  0
   20.9570  -25.0402  -16.5423 O   0  0  0  0  0  0  0  0  0  0  0  0
   20.3593  -22.2832  -18.6569 C   0  0  0  0  0  0  0  0  0  0  0  0
   19.6189  -21.1819  -18.9710 C   0  0  0  0  0  0  0  0  0  0  0  0
   21.6024  -29.6829  -13.6928 O   0  0  0  0  0  0  0  0  0  0  0  0
   21.2231  -28.3445  -13.5572 C   0  0  0  0  0  0  0  0  0  0  0  0
   22.1816  -27.3493  -13.5294 C   0  0  0  0  0  0  0  0  0  0  0  0
   21.8022  -26.0323  -13.3954 C   0  0  0  0  0  0  0  0  0  0  0  0
   20.4803  -25.6371  -13.2838 C   0  0  0  0  0  0  0  0  0  0  0  0
   20.0911  -24.2175  -13.1377 C   0  0  0  0  0  0  0  0  0  0  0  0
   19.8617  -23.5207  -14.4629 C   0  0  2  0  0  0  0  0  0  0  0  0
   21.1305  -23.2498  -15.1268 N   0  0  0  0  0  0  0  0  0  0  0  0
   19.1148  -22.2673  -14.3153 C   0  0  0  0  0  0  0  0  0  0  0  0
   19.6184  -21.0373  -14.6698 O   0  0  0  0  0  0  0  0  0  0  0  0
   19.5346  -26.6590  -13.3145 C   0  0  0  0  0  0  0  0  0  0  0  0
   19.9026  -27.9840  -13.4488 C   0  0  0  0  0  0  0  0  0  0  0  0
   17.9480  -22.2947  -13.8398 O   0  0  0  0  0  0  0  0  0  0  0  0
  2  1  1  1
  2  3  1  0
  4  2  1  0
  5  6  1  6
  5  4  1  0
  7  5  1  0
  8  7  2  0
  9 10  1  0
 10 11  2  0
 10 20  1  0
 11 12  1  0
 12 13  2  0
 13 14  1  0
 15 14  1  6
 15 16  1  0
 16  7  1  0
 17 15  1  0
 17 28  1  0
 18 17  2  0
 19 13  1  0
 20 19  2  0
 22 21  1  0
 23 22  2  0
 24 23  1  0
 25 24  2  0
 25 31  1  0
 26 25  1  0
 27 26  1  1
 27 28  1  0
 27 29  1  0
 29 30  1  0
 31 32  2  0
 32 22  1  0
 33 29  2  0
M  END
$$$$
