LYY.pdb
     RDKit          3D

 33 34  0  0  1  0  0  0  0  0999 V2000
   26.3720  -18.3867  -19.9069 C   0  0  0  0  0  0  0  0  0  0  0  0
   25.8788  -18.5966  -18.4981 C   0  0  1  0  0  0  0  0  0  0  0  0
   25.5614  -17.2592  -17.8681 C   0  0  0  0  0  0  0  0  0  0  0  0
   24.6642  -19.4919  -18.5374 C   0  0  0  0  0  0  0  0  0  0  0  0
   24.1104  -19.7813  -17.1562 C   0  0  2  0  0  0  0  0  0  0  0  0
   25.1798  -20.3178  -16.3485 N   0  0  0  0  0  0  0  0  0  0  0  0
   23.0615  -20.8146  -17.3062 C   0  0  0  0  0  0  0  0  0  0  0  0
   22.0906  -20.6591  -18.0888 O   0  0  0  0  0  0  0  0  0  0  0  0
   19.8547  -29.1092  -16.6600 O   0  0  0  0  0  0  0  0  0  0  0  0
   20.5954  -27.9225  -16.6798 C   0  0  0  0  0  0  0  0  0  0  0  0
   21.4820  -27.6565  -15.6824 C   0  0  0  0  0  0  0  0  0  0  0  0
   22.2028  -26.4867  -15.7160 C   0  0  0  0  0  0  0  0  0  0  0  0
   22.0676  -25.5549  -16.7279 C   0  0  0  0  0  0  0  0  0  0  0  0
   22.8767  -24.3451  -16.6653 C   0  0  0  0  0  0  0  0  0  0  0  0
   22.1277  -23.0582  -16.6237 C   0  0  2  0  0  0  0  0  0  0  0  0
   23.1430  -21.9946  -16.5649 N   0  0  0  0  0  0  0  0  0  0  0  0
   21.3166  -22.8872  -15.3969 C   0  0  0  0  0  0  0  0  0  0  0  0
   20.3959  -23.7194  -15.1847 O   0  0  0  0  0  0  0  0  0  0  0  0
   21.1588  -25.8622  -17.7192 C   0  0  0  0  0  0  0  0  0  0  0  0
   20.4232  -27.0105  -17.7257 C   0  0  0  0  0  0  0  0  0  0  0  0
   26.5288  -20.4654  -10.7746 O   0  0  0  0  0  0  0  0  0  0  0  0
   25.2652  -20.9645  -11.1028 C   0  0  0  0  0  0  0  0  0  0  0  0
   24.1280  -20.3732  -10.5860 C   0  0  0  0  0  0  0  0  0  0  0  0
   22.8856  -20.8693  -10.9125 C   0  0  0  0  0  0  0  0  0  0  0  0
   22.7051  -21.9555  -11.7514 C   0  0  0  0  0  0  0  0  0  0  0  0
   21.3627  -22.4768  -12.0891 C   0  0  0  0  0  0  0  0  0  0  0  0
   20.7050  -21.7374  -13.2360 C   0  0  2  0  0  0  0  0  0  0  0  0
   21.5040  -21.8566  -14.4490 N   0  0  0  0  0  0  0  0  0  0  0  0
   20.4872  -20.3184  -12.9367 C   0  0  0  0  0  0  0  0  0  0  0  0
   19.6667  -19.8729  -11.9265 O   0  0  0  0  0  0  0  0  0  0  0  0
   23.8667  -22.5329  -12.2583 C   0  0  0  0  0  0  0  0  0  0  0  0
   25.1188  -22.0443  -11.9384 C   0  0  0  0  0  0  0  0  0  0  0  0
   21.0720  -19.4431  -13.6296 O   0  0  0  0  0  0  0  0  0  0  0  0
  2  1  1  6
  2  3  1  0
  4  2  1  0
  5  6  1  1
  5  4  1  0
  7  5  1  0
  8  7  2  0
  9 10  1  0
 10 11  2  0
 10 20  1  0
 11 12  1  0
 12 13  2  0
 13 14  1  0
 15 14  1  1
 15 16  1  0
 16  7  1  0
 17 15  1  0
 17 28  1  0
 18 17  2  0
 19 13  1  0
 20 19  2  0
 22 21  1  0
 23 22  2  0
 24 23  1  0
 25 24  2  0
 25 31  1  0
 26 25  1  0
 27 26  1  1
 27 28  1  0
 27 29  1  0
 29 30  1  0
 31 32  2  0
 32 22  1  0
 33 29  2  0
M  END
$$$$
