VDN.pdb
     RDKit          3D

 24 23  0  0  1  0  0  0  0  0999 V2000
    7.2763  -14.0024   18.3519 C   0  0  0  0  0  0  0  0  0  0  0  0
    7.8867  -13.1474   19.4693 C   0  0  2  0  0  0  0  0  0  0  0  0
    7.7306  -11.7164   19.0922 C   0  0  0  0  0  0  0  0  0  0  0  0
    9.2807  -13.6138   19.6651 C   0  0  2  0  0  0  0  0  0  0  0  0
   10.0585  -13.2957   18.4741 N   0  0  0  0  0  0  0  0  0  0  0  0
    9.4433  -14.9852   20.1067 C   0  0  0  0  0  0  0  0  0  0  0  0
    8.8735  -15.4102   21.1321 O   0  0  0  0  0  0  0  0  0  0  0  0
   10.2555  -15.8858   19.3882 N   0  0  0  0  0  0  0  0  0  0  0  0
   10.5135  -17.2657   19.8425 C   0  0  1  0  0  0  0  0  0  0  0  0
   10.5147  -18.1174   18.6060 C   0  0  0  0  0  0  0  0  0  0  0  0
   10.8474  -17.3859   17.3794 C   0  0  0  0  0  0  0  0  0  0  0  0
   12.0188  -16.9467   17.2151 O   0  0  0  0  0  0  0  0  0  0  0  0
   11.7317  -17.3384   20.6478 C   0  0  0  0  0  0  0  0  0  0  0  0
   12.1645  -18.4276   21.0746 O   0  0  0  0  0  0  0  0  0  0  0  0
    9.8729  -17.1873   16.4180 O   0  0  0  0  0  0  0  0  0  0  0  0
   14.1725  -13.7334   19.2572 N   0  0  0  0  0  0  0  0  0  0  0  0
   14.7878  -14.7655   20.0098 C   0  0  0  0  0  0  0  0  0  0  0  0
   15.5820  -15.5717   19.4282 O   0  0  0  0  0  0  0  0  0  0  0  0
   14.5543  -14.9577   21.4569 C   0  0  0  0  0  0  0  0  0  0  0  0
   13.6996  -16.1844   21.7000 C   0  0  2  0  0  0  0  0  0  0  0  0
   12.4659  -16.1590   20.9727 N   0  0  0  0  0  0  0  0  0  0  0  0
   13.4004  -16.2239   23.1701 C   0  0  0  0  0  0  0  0  0  0  0  0
   12.2160  -16.1366   23.5685 O   0  0  0  0  0  0  0  0  0  0  0  0
   14.4149  -16.3555   24.0854 O   0  0  0  0  0  0  0  0  0  0  0  0
  2  1  1  6
  2  4  1  0
  3  2  1  0
  4  6  1  0
  4  5  1  6
  6  7  2  0
  8  9  1  0
  8  6  1  0
  9 10  1  6
 10 11  1  0
 11 12  2  0
 11 15  1  0
 13 14  2  0
 13  9  1  0
 16 17  1  0
 17 18  2  0
 17 19  1  0
 20 19  1  1
 20 22  1  0
 20 21  1  0
 21 13  1  0
 22 24  1  0
 23 22  2  0
M  END
$$$$
