VDN.pdb
     RDKit          3D

 24 23  0  0  1  0  0  0  0  0999 V2000
    7.4187  -12.0247   19.1605 C   0  0  0  0  0  0  0  0  0  0  0  0
    8.5046  -12.9858   19.6599 C   0  0  2  0  0  0  0  0  0  0  0  0
    9.7977  -12.2497   19.6796 C   0  0  0  0  0  0  0  0  0  0  0  0
    8.4596  -14.1864   18.7905 C   0  0  2  0  0  0  0  0  0  0  0  0
    7.0975  -14.7047   18.7685 N   0  0  0  0  0  0  0  0  0  0  0  0
    9.4570  -15.2059   19.0509 C   0  0  0  0  0  0  0  0  0  0  0  0
    9.2327  -16.1499   19.8353 O   0  0  0  0  0  0  0  0  0  0  0  0
   10.7186  -15.1617   18.4235 N   0  0  0  0  0  0  0  0  0  0  0  0
   11.7645  -16.1750   18.6608 C   0  0  1  0  0  0  0  0  0  0  0  0
   12.4889  -16.3385   17.3559 C   0  0  0  0  0  0  0  0  0  0  0  0
   13.4910  -17.4091   17.3612 C   0  0  0  0  0  0  0  0  0  0  0  0
   13.4115  -18.3315   18.2184 O   0  0  0  0  0  0  0  0  0  0  0  0
   12.6080  -15.8085   19.7975 C   0  0  0  0  0  0  0  0  0  0  0  0
   12.7680  -14.6172   20.1306 O   0  0  0  0  0  0  0  0  0  0  0  0
   14.5100  -17.3943   16.4259 O   0  0  0  0  0  0  0  0  0  0  0  0
   13.8808  -15.5275   24.7616 N   0  0  0  0  0  0  0  0  0  0  0  0
   12.8717  -16.3877   24.2596 C   0  0  0  0  0  0  0  0  0  0  0  0
   12.2886  -17.1933   25.0533 O   0  0  0  0  0  0  0  0  0  0  0  0
   12.4527  -16.3985   22.8420 C   0  0  0  0  0  0  0  0  0  0  0  0
   13.6457  -16.6224   21.9358 C   0  0  2  0  0  0  0  0  0  0  0  0
   13.2782  -16.8081   20.5638 N   0  0  0  0  0  0  0  0  0  0  0  0
   14.3418  -17.8576   22.4275 C   0  0  0  0  0  0  0  0  0  0  0  0
   14.9337  -17.8428   23.5315 O   0  0  0  0  0  0  0  0  0  0  0  0
   14.3360  -19.0072   21.6775 O   0  0  0  0  0  0  0  0  0  0  0  0
  2  1  1  6
  2  4  1  0
  3  2  1  0
  4  6  1  0
  4  5  1  1
  6  7  2  0
  8  9  1  0
  8  6  1  0
  9 10  1  6
 10 11  1  0
 11 12  2  0
 11 15  1  0
 13 14  2  0
 13  9  1  0
 16 17  1  0
 17 18  2  0
 17 19  1  0
 20 19  1  1
 20 22  1  0
 20 21  1  0
 21 13  1  0
 22 24  1  0
 23 22  2  0
M  END
$$$$
