VDN.pdb
     RDKit          3D

 24 23  0  0  1  0  0  0  0  0999 V2000
    8.6421  -13.2858   21.0530 C   0  0  0  0  0  0  0  0  0  0  0  0
    8.7326  -12.7383   19.6232 C   0  0  2  0  0  0  0  0  0  0  0  0
    7.5658  -11.8427   19.3981 C   0  0  0  0  0  0  0  0  0  0  0  0
    8.8343  -13.9051   18.7136 C   0  0  2  0  0  0  0  0  0  0  0  0
    7.5649  -14.6215   18.7181 N   0  0  0  0  0  0  0  0  0  0  0  0
    9.9818  -14.7705   18.9046 C   0  0  0  0  0  0  0  0  0  0  0  0
    9.8967  -15.8283   19.5607 O   0  0  0  0  0  0  0  0  0  0  0  0
   11.2366  -14.4414   18.3530 N   0  0  0  0  0  0  0  0  0  0  0  0
   12.4206  -15.3117   18.4862 C   0  0  1  0  0  0  0  0  0  0  0  0
   13.2941  -15.0097   17.3029 C   0  0  0  0  0  0  0  0  0  0  0  0
   14.4297  -15.9252   17.1520 C   0  0  0  0  0  0  0  0  0  0  0  0
   14.5898  -16.8604   17.9838 O   0  0  0  0  0  0  0  0  0  0  0  0
   13.0599  -15.1393   19.7899 C   0  0  0  0  0  0  0  0  0  0  0  0
   13.4378  -14.0183   20.1853 O   0  0  0  0  0  0  0  0  0  0  0  0
   15.3102  -15.7522   16.0995 O   0  0  0  0  0  0  0  0  0  0  0  0
   13.7809  -17.6103   25.2870 N   0  0  0  0  0  0  0  0  0  0  0  0
   13.5690  -16.5445   24.3764 C   0  0  0  0  0  0  0  0  0  0  0  0
   13.9175  -15.3658   24.7052 O   0  0  0  0  0  0  0  0  0  0  0  0
   12.9571  -16.7317   23.0437 C   0  0  0  0  0  0  0  0  0  0  0  0
   13.8337  -16.1284   21.9658 C   0  0  2  0  0  0  0  0  0  0  0  0
   13.2729  -16.2547   20.6537 N   0  0  0  0  0  0  0  0  0  0  0  0
   15.1446  -16.8577   22.0100 C   0  0  0  0  0  0  0  0  0  0  0  0
   16.0414  -16.4821   22.7999 O   0  0  0  0  0  0  0  0  0  0  0  0
   15.3712  -17.9360   21.1913 O   0  0  0  0  0  0  0  0  0  0  0  0
  2  1  1  1
  2  4  1  0
  3  2  1  0
  4  6  1  0
  4  5  1  1
  6  7  2  0
  8  9  1  0
  8  6  1  0
  9 10  1  6
 10 11  1  0
 11 12  2  0
 11 15  1  0
 13 14  2  0
 13  9  1  0
 16 17  1  0
 17 18  2  0
 17 19  1  0
 20 19  1  1
 20 22  1  0
 20 21  1  0
 21 13  1  0
 22 24  1  0
 23 22  2  0
M  END
$$$$
