VDN.pdb
     RDKit          3D

 24 23  0  0  1  0  0  0  0  0999 V2000
    9.0215  -12.9605   20.7898 C   0  0  0  0  0  0  0  0  0  0  0  0
    8.6222  -13.3242   19.3543 C   0  0  2  0  0  0  0  0  0  0  0  0
    7.8338  -12.1931   18.7947 C   0  0  0  0  0  0  0  0  0  0  0  0
    7.9229  -14.6307   19.4126 C   0  0  2  0  0  0  0  0  0  0  0  0
    6.6716  -14.4663   20.1419 N   0  0  0  0  0  0  0  0  0  0  0  0
    8.7088  -15.7602   19.8694 C   0  0  0  0  0  0  0  0  0  0  0  0
    8.6336  -16.1720   21.0448 O   0  0  0  0  0  0  0  0  0  0  0  0
    9.5880  -16.4313   18.9956 N   0  0  0  0  0  0  0  0  0  0  0  0
   10.2778  -17.6829   19.3625 C   0  0  1  0  0  0  0  0  0  0  0  0
   10.1490  -18.5925   18.1749 C   0  0  0  0  0  0  0  0  0  0  0  0
   10.2837  -20.0165   18.4980 C   0  0  0  0  0  0  0  0  0  0  0  0
   10.4223  -20.3712   19.7010 O   0  0  0  0  0  0  0  0  0  0  0  0
   11.6486  -17.4229   19.7997 C   0  0  0  0  0  0  0  0  0  0  0  0
   12.4886  -18.3410   19.8856 O   0  0  0  0  0  0  0  0  0  0  0  0
   10.2564  -20.9526   17.4801 O   0  0  0  0  0  0  0  0  0  0  0  0
   14.3669  -15.7460   18.0523 N   0  0  0  0  0  0  0  0  0  0  0  0
   14.4084  -14.5539   18.8188 C   0  0  0  0  0  0  0  0  0  0  0  0
   14.8995  -13.4992   18.3039 O   0  0  0  0  0  0  0  0  0  0  0  0
   13.9024  -14.4683   20.2052 C   0  0  0  0  0  0  0  0  0  0  0  0
   13.3722  -15.8116   20.6624 C   0  0  2  0  0  0  0  0  0  0  0  0
   12.0691  -16.1038   20.1444 N   0  0  0  0  0  0  0  0  0  0  0  0
   13.3045  -15.7672   22.1610 C   0  0  0  0  0  0  0  0  0  0  0  0
   14.3563  -15.6426   22.8298 O   0  0  0  0  0  0  0  0  0  0  0  0
   12.0976  -15.8616   22.8080 O   0  0  0  0  0  0  0  0  0  0  0  0
  2  1  1  1
  2  4  1  0
  3  2  1  0
  4  6  1  0
  4  5  1  1
  6  7  2  0
  8  9  1  0
  8  6  1  0
  9 10  1  6
 10 11  1  0
 11 12  2  0
 11 15  1  0
 13 14  2  0
 13  9  1  0
 16 17  1  0
 17 18  2  0
 17 19  1  0
 20 19  1  6
 20 22  1  0
 20 21  1  0
 21 13  1  0
 22 24  1  0
 23 22  2  0
M  END
$$$$
