VDN.pdb
     RDKit          3D

 24 23  0  0  1  0  0  0  0  0999 V2000
    7.6692  -12.4534   18.5263 C   0  0  0  0  0  0  0  0  0  0  0  0
    8.0738  -13.4632   19.6075 C   0  0  2  0  0  0  0  0  0  0  0  0
    9.0285  -12.7920   20.5307 C   0  0  0  0  0  0  0  0  0  0  0  0
    8.5888  -14.6669   18.9111 C   0  0  2  0  0  0  0  0  0  0  0  0
    7.5461  -15.1919   18.0383 N   0  0  0  0  0  0  0  0  0  0  0  0
    9.2007  -15.6807   19.7477 C   0  0  0  0  0  0  0  0  0  0  0  0
    8.5157  -16.5549   20.3164 O   0  0  0  0  0  0  0  0  0  0  0  0
   10.5959  -15.7098   19.9469 N   0  0  0  0  0  0  0  0  0  0  0  0
   11.2555  -16.6857   20.8353 C   0  0  1  0  0  0  0  0  0  0  0  0
   12.6668  -16.8126   20.3388 C   0  0  0  0  0  0  0  0  0  0  0  0
   13.4681  -17.8008   21.0681 C   0  0  0  0  0  0  0  0  0  0  0  0
   14.6526  -17.5192   21.3995 O   0  0  0  0  0  0  0  0  0  0  0  0
   11.1237  -16.2971   22.2387 C   0  0  0  0  0  0  0  0  0  0  0  0
   11.7952  -15.3626   22.7202 O   0  0  0  0  0  0  0  0  0  0  0  0
   12.9149  -19.0285   21.3840 O   0  0  0  0  0  0  0  0  0  0  0  0
    8.2140  -14.8104   23.5290 N   0  0  0  0  0  0  0  0  0  0  0  0
    7.7628  -15.8219   24.4141 C   0  0  0  0  0  0  0  0  0  0  0  0
    6.5307  -15.8707   24.7279 O   0  0  0  0  0  0  0  0  0  0  0  0
    8.6602  -16.8401   25.0002 C   0  0  0  0  0  0  0  0  0  0  0  0
   10.0760  -16.6570   24.4935 C   0  0  2  0  0  0  0  0  0  0  0  0
   10.2187  -16.9796   23.1052 N   0  0  0  0  0  0  0  0  0  0  0  0
   10.9504  -17.5712   25.3009 C   0  0  0  0  0  0  0  0  0  0  0  0
   11.4751  -18.5717   24.7598 O   0  0  0  0  0  0  0  0  0  0  0  0
   11.1820  -17.3208   26.6306 O   0  0  0  0  0  0  0  0  0  0  0  0
  2  1  1  6
  2  4  1  0
  3  2  1  0
  4  6  1  0
  4  5  1  1
  6  7  2  0
  8  9  1  0
  8  6  1  0
  9 10  1  6
 10 11  1  0
 11 12  2  0
 11 15  1  0
 13 14  2  0
 13  9  1  0
 16 17  1  0
 17 18  2  0
 17 19  1  0
 20 19  1  1
 20 22  1  0
 20 21  1  0
 21 13  1  0
 22 24  1  0
 23 22  2  0
M  END
$$$$
