VDN.pdb
     RDKit          3D

 24 23  0  0  1  0  0  0  0  0999 V2000
    7.0161  -12.9304   19.0595 C   0  0  0  0  0  0  0  0  0  0  0  0
    7.5684  -13.7805   20.2105 C   0  0  2  0  0  0  0  0  0  0  0  0
    8.2791  -12.8743   21.1528 C   0  0  0  0  0  0  0  0  0  0  0  0
    8.3920  -14.8547   19.6047 C   0  0  2  0  0  0  0  0  0  0  0  0
    7.5875  -15.5727   18.6240 N   0  0  0  0  0  0  0  0  0  0  0  0
    9.0862  -15.7304   20.5285 C   0  0  0  0  0  0  0  0  0  0  0  0
    8.5029  -16.6825   21.0852 O   0  0  0  0  0  0  0  0  0  0  0  0
   10.4490  -15.5316   20.8291 N   0  0  0  0  0  0  0  0  0  0  0  0
   11.1509  -16.2819   21.8881 C   0  0  1  0  0  0  0  0  0  0  0  0
   12.6172  -16.1336   21.6009 C   0  0  0  0  0  0  0  0  0  0  0  0
   13.4865  -16.7557   22.6048 C   0  0  0  0  0  0  0  0  0  0  0  0
   13.0768  -17.7635   23.2440 O   0  0  0  0  0  0  0  0  0  0  0  0
   10.7307  -15.8397   23.2169 C   0  0  0  0  0  0  0  0  0  0  0  0
   10.3884  -14.6596   23.4311 O   0  0  0  0  0  0  0  0  0  0  0  0
   14.7446  -16.2302   22.8375 O   0  0  0  0  0  0  0  0  0  0  0  0
    6.6186  -18.4992   25.9825 N   0  0  0  0  0  0  0  0  0  0  0  0
    7.2084  -17.2801   25.5627 C   0  0  0  0  0  0  0  0  0  0  0  0
    6.7912  -16.1841   26.0563 O   0  0  0  0  0  0  0  0  0  0  0  0
    8.3000  -17.2124   24.5681 C   0  0  0  0  0  0  0  0  0  0  0  0
    9.6042  -16.8257   25.2345 C   0  0  2  0  0  0  0  0  0  0  0  0
   10.7003  -16.7497   24.3154 N   0  0  0  0  0  0  0  0  0  0  0  0
    9.8989  -17.8793   26.2617 C   0  0  0  0  0  0  0  0  0  0  0  0
   10.7125  -18.7954   26.0005 O   0  0  0  0  0  0  0  0  0  0  0  0
    9.2842  -17.8489   27.4887 O   0  0  0  0  0  0  0  0  0  0  0  0
  2  1  1  6
  2  4  1  0
  3  2  1  0
  4  6  1  0
  4  5  1  1
  6  7  2  0
  8  9  1  0
  8  6  1  0
  9 10  1  1
 10 11  1  0
 11 12  2  0
 11 15  1  0
 13 14  2  0
 13  9  1  0
 16 17  1  0
 17 18  2  0
 17 19  1  0
 20 19  1  6
 20 22  1  0
 20 21  1  0
 21 13  1  0
 22 24  1  0
 23 22  2  0
M  END
$$$$
