VDN.pdb
     RDKit          3D

 24 23  0  0  1  0  0  0  0  0999 V2000
    7.8714  -12.2853   18.3318 C   0  0  0  0  0  0  0  0  0  0  0  0
    7.9291  -13.3467   19.4375 C   0  0  2  0  0  0  0  0  0  0  0  0
    8.5822  -12.7374   20.6275 C   0  0  0  0  0  0  0  0  0  0  0  0
    8.6082  -14.5355   18.8675 C   0  0  2  0  0  0  0  0  0  0  0  0
    8.0051  -14.8535   17.5792 N   0  0  0  0  0  0  0  0  0  0  0  0
    8.7325  -15.6852   19.7420 C   0  0  0  0  0  0  0  0  0  0  0  0
    7.8631  -16.5798   19.7678 O   0  0  0  0  0  0  0  0  0  0  0  0
    9.8449  -15.8286   20.5959 N   0  0  0  0  0  0  0  0  0  0  0  0
   10.1689  -17.0953   21.2795 C   0  0  1  0  0  0  0  0  0  0  0  0
   10.2361  -18.1423   20.2053 C   0  0  0  0  0  0  0  0  0  0  0  0
    9.1256  -19.0995   20.2365 C   0  0  0  0  0  0  0  0  0  0  0  0
    8.5785  -19.4534   19.1559 O   0  0  0  0  0  0  0  0  0  0  0  0
   11.3760  -16.9632   22.0940 C   0  0  0  0  0  0  0  0  0  0  0  0
   11.7132  -17.8493   22.9045 O   0  0  0  0  0  0  0  0  0  0  0  0
    8.6927  -19.6028   21.4500 O   0  0  0  0  0  0  0  0  0  0  0  0
   15.9817  -15.9130   19.8351 N   0  0  0  0  0  0  0  0  0  0  0  0
   15.3273  -14.7175   20.2260 C   0  0  0  0  0  0  0  0  0  0  0  0
   15.9814  -13.6263   20.2424 O   0  0  0  0  0  0  0  0  0  0  0  0
   13.9034  -14.6692   20.6204 C   0  0  0  0  0  0  0  0  0  0  0  0
   13.5500  -15.8606   21.4865 C   0  0  2  0  0  0  0  0  0  0  0  0
   12.2087  -15.8097   21.9866 N   0  0  0  0  0  0  0  0  0  0  0  0
   14.5046  -15.8571   22.6445 C   0  0  0  0  0  0  0  0  0  0  0  0
   15.7395  -15.8360   22.4354 O   0  0  0  0  0  0  0  0  0  0  0  0
   14.0364  -15.8764   23.9348 O   0  0  0  0  0  0  0  0  0  0  0  0
  2  1  1  6
  2  4  1  0
  3  2  1  0
  4  6  1  0
  4  5  1  6
  6  7  2  0
  8  9  1  0
  8  6  1  0
  9 10  1  6
 10 11  1  0
 11 12  2  0
 11 15  1  0
 13 14  2  0
 13  9  1  0
 16 17  1  0
 17 18  2  0
 17 19  1  0
 20 19  1  6
 20 22  1  0
 20 21  1  0
 21 13  1  0
 22 24  1  0
 23 22  2  0
M  END
$$$$
