VDN.pdb
     RDKit          3D

 24 23  0  0  1  0  0  0  0  0999 V2000
    5.6808  -13.7370   25.9154 C   0  0  0  0  0  0  0  0  0  0  0  0
    6.8484  -12.8683   26.3995 C   0  0  2  0  0  0  0  0  0  0  0  0
    6.3744  -11.4599   26.4753 C   0  0  0  0  0  0  0  0  0  0  0  0
    7.9876  -13.1165   25.4830 C   0  0  2  0  0  0  0  0  0  0  0  0
    7.6435  -12.6235   24.1552 N   0  0  0  0  0  0  0  0  0  0  0  0
    8.5228  -14.4639   25.4736 C   0  0  0  0  0  0  0  0  0  0  0  0
    8.6370  -15.1258   26.5251 O   0  0  0  0  0  0  0  0  0  0  0  0
    8.9343  -15.0711   24.2698 N   0  0  0  0  0  0  0  0  0  0  0  0
    9.4809  -16.4403   24.2121 C   0  0  1  0  0  0  0  0  0  0  0  0
    9.7790  -16.7087   22.7652 C   0  0  0  0  0  0  0  0  0  0  0  0
   10.2879  -18.0586   22.5024 C   0  0  0  0  0  0  0  0  0  0  0  0
   10.3903  -18.8811   23.4538 O   0  0  0  0  0  0  0  0  0  0  0  0
   10.6173  -16.5950   25.1192 C   0  0  0  0  0  0  0  0  0  0  0  0
   11.5702  -15.7902   25.1102 O   0  0  0  0  0  0  0  0  0  0  0  0
   10.6484  -18.4131   21.2150 O   0  0  0  0  0  0  0  0  0  0  0  0
   11.0178  -17.7438   30.7014 N   0  0  0  0  0  0  0  0  0  0  0  0
   11.1405  -16.7941   29.6558 C   0  0  0  0  0  0  0  0  0  0  0  0
   11.9009  -15.7866   29.8158 O   0  0  0  0  0  0  0  0  0  0  0  0
   10.4229  -16.9138   28.3689 C   0  0  0  0  0  0  0  0  0  0  0  0
   11.3026  -17.5756   27.3283 C   0  0  2  0  0  0  0  0  0  0  0  0
   10.6715  -17.6779   26.0465 N   0  0  0  0  0  0  0  0  0  0  0  0
   11.6135  -18.9545   27.8323 C   0  0  0  0  0  0  0  0  0  0  0  0
   10.8758  -19.9160   27.5151 O   0  0  0  0  0  0  0  0  0  0  0  0
   12.7019  -19.1734   28.6397 O   0  0  0  0  0  0  0  0  0  0  0  0
  2  1  1  6
  2  4  1  0
  3  2  1  0
  4  6  1  0
  4  5  1  6
  6  7  2  0
  8  9  1  0
  8  6  1  0
  9 10  1  6
 10 11  1  0
 11 12  2  0
 11 15  1  0
 13 14  2  0
 13  9  1  0
 16 17  1  0
 17 18  2  0
 17 19  1  0
 20 19  1  1
 20 22  1  0
 20 21  1  0
 21 13  1  0
 22 24  1  0
 23 22  2  0
M  END
$$$$
