VDN.pdb
     RDKit          3D

 24 23  0  0  1  0  0  0  0  0999 V2000
    7.2893  -12.4275   18.8528 C   0  0  0  0  0  0  0  0  0  0  0  0
    8.4048  -13.2311   19.5327 C   0  0  2  0  0  0  0  0  0  0  0  0
    9.5445  -12.3099   19.7909 C   0  0  0  0  0  0  0  0  0  0  0  0
    8.7003  -14.3935   18.6606 C   0  0  2  0  0  0  0  0  0  0  0  0
    7.4851  -15.1805   18.4920 N   0  0  0  0  0  0  0  0  0  0  0  0
    9.8549  -15.1918   19.0234 C   0  0  0  0  0  0  0  0  0  0  0  0
    9.7693  -16.1196   19.8534 O   0  0  0  0  0  0  0  0  0  0  0  0
   11.1173  -14.9427   18.4478 N   0  0  0  0  0  0  0  0  0  0  0  0
   12.3247  -15.7107   18.8075 C   0  0  1  0  0  0  0  0  0  0  0  0
   13.2672  -15.5717   17.6470 C   0  0  0  0  0  0  0  0  0  0  0  0
   14.4822  -16.3841   17.7661 C   0  0  0  0  0  0  0  0  0  0  0  0
   14.3832  -17.6269   17.9608 O   0  0  0  0  0  0  0  0  0  0  0  0
   12.8608  -15.2799   20.0979 C   0  0  0  0  0  0  0  0  0  0  0  0
   13.1894  -14.0940   20.3019 O   0  0  0  0  0  0  0  0  0  0  0  0
   15.7211  -15.7778   17.6627 O   0  0  0  0  0  0  0  0  0  0  0  0
   10.8165  -15.1973   22.9096 N   0  0  0  0  0  0  0  0  0  0  0  0
   11.4236  -16.1784   23.7337 C   0  0  0  0  0  0  0  0  0  0  0  0
   10.7351  -16.7387   24.6452 O   0  0  0  0  0  0  0  0  0  0  0  0
   12.8350  -16.5932   23.5881 C   0  0  0  0  0  0  0  0  0  0  0  0
   13.5020  -15.8268   22.4645 C   0  0  2  0  0  0  0  0  0  0  0  0
   13.0263  -16.2084   21.1684 N   0  0  0  0  0  0  0  0  0  0  0  0
   14.9720  -16.1161   22.5511 C   0  0  0  0  0  0  0  0  0  0  0  0
   15.4382  -17.1464   22.0123 O   0  0  0  0  0  0  0  0  0  0  0  0
   15.8137  -15.2598   23.2166 O   0  0  0  0  0  0  0  0  0  0  0  0
  2  1  1  6
  2  4  1  0
  3  2  1  0
  4  6  1  0
  4  5  1  1
  6  7  2  0
  8  9  1  0
  8  6  1  0
  9 10  1  6
 10 11  1  0
 11 12  2  0
 11 15  1  0
 13 14  2  0
 13  9  1  0
 16 17  1  0
 17 18  2  0
 17 19  1  0
 20 19  1  1
 20 22  1  0
 20 21  1  0
 21 13  1  0
 22 24  1  0
 23 22  2  0
M  END
$$$$
