VDN.pdb
     RDKit          3D

 24 23  0  0  1  0  0  0  0  0999 V2000
    7.2340  -12.8952   19.2641 C   0  0  0  0  0  0  0  0  0  0  0  0
    7.9322  -13.7360   20.3401 C   0  0  2  0  0  0  0  0  0  0  0  0
    9.0494  -12.9296   20.9021 C   0  0  0  0  0  0  0  0  0  0  0  0
    8.3189  -15.0209   19.7085 C   0  0  2  0  0  0  0  0  0  0  0  0
    7.1489  -15.6023   19.0624 N   0  0  0  0  0  0  0  0  0  0  0  0
    9.0357  -15.9598   20.5491 C   0  0  0  0  0  0  0  0  0  0  0  0
    8.4727  -16.9647   21.0286 O   0  0  0  0  0  0  0  0  0  0  0  0
   10.3983  -15.7651   20.8536 N   0  0  0  0  0  0  0  0  0  0  0  0
   11.2334  -16.8076   21.4802 C   0  0  1  0  0  0  0  0  0  0  0  0
   12.5065  -16.8542   20.6855 C   0  0  0  0  0  0  0  0  0  0  0  0
   13.4787  -17.8365   21.1755 C   0  0  0  0  0  0  0  0  0  0  0  0
   13.1519  -19.0532   21.2471 O   0  0  0  0  0  0  0  0  0  0  0  0
   11.4036  -16.5598   22.9112 C   0  0  0  0  0  0  0  0  0  0  0  0
   12.2335  -17.2000   23.5874 O   0  0  0  0  0  0  0  0  0  0  0  0
   14.7418  -17.4170   21.5521 O   0  0  0  0  0  0  0  0  0  0  0  0
    8.0418  -13.8313   24.4957 N   0  0  0  0  0  0  0  0  0  0  0  0
    7.6266  -15.1867   24.5196 C   0  0  0  0  0  0  0  0  0  0  0  0
    6.3931  -15.4629   24.3744 O   0  0  0  0  0  0  0  0  0  0  0  0
    8.5642  -16.3145   24.7053 C   0  0  0  0  0  0  0  0  0  0  0  0
    9.9852  -15.8083   24.8437 C   0  0  2  0  0  0  0  0  0  0  0  0
   10.6202  -15.5735   23.5814 N   0  0  0  0  0  0  0  0  0  0  0  0
   10.7528  -16.8602   25.5897 C   0  0  0  0  0  0  0  0  0  0  0  0
   11.5285  -16.5280   26.5156 O   0  0  0  0  0  0  0  0  0  0  0  0
   10.6126  -18.1870   25.2668 O   0  0  0  0  0  0  0  0  0  0  0  0
  2  1  1  6
  2  4  1  0
  3  2  1  0
  4  6  1  0
  4  5  1  1
  6  7  2  0
  8  9  1  0
  8  6  1  0
  9 10  1  6
 10 11  1  0
 11 12  2  0
 11 15  1  0
 13 14  2  0
 13  9  1  0
 16 17  1  0
 17 18  2  0
 17 19  1  0
 20 19  1  6
 20 22  1  0
 20 21  1  0
 21 13  1  0
 22 24  1  0
 23 22  2  0
M  END
$$$$
