VDN.pdb
     RDKit          3D

 24 23  0  0  1  0  0  0  0  0999 V2000
    7.3846  -13.5256   21.1607 C   0  0  0  0  0  0  0  0  0  0  0  0
    8.5306  -13.5083   20.1415 C   0  0  2  0  0  0  0  0  0  0  0  0
    8.1952  -12.5125   19.0880 C   0  0  0  0  0  0  0  0  0  0  0  0
    8.7205  -14.9026   19.6733 C   0  0  2  0  0  0  0  0  0  0  0  0
    7.5499  -15.3081   18.9053 N   0  0  0  0  0  0  0  0  0  0  0  0
    9.1097  -15.8709   20.6798 C   0  0  0  0  0  0  0  0  0  0  0  0
    8.2633  -16.5763   21.2654 O   0  0  0  0  0  0  0  0  0  0  0  0
   10.4636  -16.0458   21.0310 N   0  0  0  0  0  0  0  0  0  0  0  0
   10.9049  -17.0143   22.0529 C   0  0  1  0  0  0  0  0  0  0  0  0
   12.3190  -17.3757   21.7003 C   0  0  0  0  0  0  0  0  0  0  0  0
   12.4407  -18.1887   20.4860 C   0  0  0  0  0  0  0  0  0  0  0  0
   11.6615  -19.1655   20.3105 O   0  0  0  0  0  0  0  0  0  0  0  0
   10.7179  -16.4821   23.4018 C   0  0  0  0  0  0  0  0  0  0  0  0
   11.5500  -15.7082   23.9162 O   0  0  0  0  0  0  0  0  0  0  0  0
   13.4076  -17.8739   19.5484 O   0  0  0  0  0  0  0  0  0  0  0  0
    8.0036  -14.1826   24.5278 N   0  0  0  0  0  0  0  0  0  0  0  0
    7.2943  -15.1082   25.3343 C   0  0  0  0  0  0  0  0  0  0  0  0
    6.0614  -14.9070   25.5756 O   0  0  0  0  0  0  0  0  0  0  0  0
    7.9191  -16.3143   25.9178 C   0  0  0  0  0  0  0  0  0  0  0  0
    9.3800  -16.3995   25.5265 C   0  0  2  0  0  0  0  0  0  0  0  0
    9.5722  -16.8347   24.1755 N   0  0  0  0  0  0  0  0  0  0  0  0
   10.0239  -17.3870   26.4552 C   0  0  0  0  0  0  0  0  0  0  0  0
   10.2276  -18.5623   26.0727 O   0  0  0  0  0  0  0  0  0  0  0  0
   10.3935  -17.0137   27.7235 O   0  0  0  0  0  0  0  0  0  0  0  0
  2  1  1  1
  2  4  1  0
  3  2  1  0
  4  6  1  0
  4  5  1  1
  6  7  2  0
  8  9  1  0
  8  6  1  0
  9 10  1  6
 10 11  1  0
 11 12  2  0
 11 15  1  0
 13 14  2  0
 13  9  1  0
 16 17  1  0
 17 18  2  0
 17 19  1  0
 20 19  1  1
 20 22  1  0
 20 21  1  0
 21 13  1  0
 22 24  1  0
 23 22  2  0
M  END
$$$$
