VDN.pdb
     RDKit          3D

 24 23  0  0  1  0  0  0  0  0999 V2000
    7.1332  -13.3466   21.2179 C   0  0  0  0  0  0  0  0  0  0  0  0
    8.2160  -13.3526   20.1317 C   0  0  2  0  0  0  0  0  0  0  0  0
    7.8497  -12.3345   19.1103 C   0  0  0  0  0  0  0  0  0  0  0  0
    8.3337  -14.7464   19.6391 C   0  0  2  0  0  0  0  0  0  0  0  0
    7.1715  -15.0579   18.8164 N   0  0  0  0  0  0  0  0  0  0  0  0
    8.6176  -15.7588   20.6373 C   0  0  0  0  0  0  0  0  0  0  0  0
    7.7204  -16.5027   21.0828 O   0  0  0  0  0  0  0  0  0  0  0  0
    9.9230  -15.9345   21.1395 N   0  0  0  0  0  0  0  0  0  0  0  0
   10.2490  -16.9182   22.1897 C   0  0  1  0  0  0  0  0  0  0  0  0
   11.6228  -17.4313   21.8670 C   0  0  0  0  0  0  0  0  0  0  0  0
   12.1029  -18.4671   22.7872 C   0  0  0  0  0  0  0  0  0  0  0  0
   11.3703  -19.4629   23.0401 O   0  0  0  0  0  0  0  0  0  0  0  0
   10.1006  -16.3373   23.5232 C   0  0  0  0  0  0  0  0  0  0  0  0
   10.8180  -15.3902   23.9031 O   0  0  0  0  0  0  0  0  0  0  0  0
   13.3529  -18.3397   23.3655 O   0  0  0  0  0  0  0  0  0  0  0  0
    6.0813  -13.8429   25.5911 N   0  0  0  0  0  0  0  0  0  0  0  0
    7.3452  -14.4852   25.5795 C   0  0  0  0  0  0  0  0  0  0  0  0
    8.3607  -13.8538   25.1448 O   0  0  0  0  0  0  0  0  0  0  0  0
    7.5507  -15.8702   26.0540 C   0  0  0  0  0  0  0  0  0  0  0  0
    8.9652  -16.3279   25.7643 C   0  0  2  0  0  0  0  0  0  0  0  0
    9.1260  -16.8397   24.4361 N   0  0  0  0  0  0  0  0  0  0  0  0
    9.2829  -17.4147   26.7493 C   0  0  0  0  0  0  0  0  0  0  0  0
    9.6031  -18.5544   26.3395 O   0  0  0  0  0  0  0  0  0  0  0  0
    9.2265  -17.1714   28.0991 O   0  0  0  0  0  0  0  0  0  0  0  0
  2  1  1  1
  2  4  1  0
  3  2  1  0
  4  6  1  0
  4  5  1  1
  6  7  2  0
  8  9  1  0
  8  6  1  0
  9 10  1  6
 10 11  1  0
 11 12  2  0
 11 15  1  0
 13 14  2  0
 13  9  1  0
 16 17  1  0
 17 18  2  0
 17 19  1  0
 20 19  1  6
 20 22  1  0
 20 21  1  0
 21 13  1  0
 22 24  1  0
 23 22  2  0
M  END
$$$$
