VDN.pdb
     RDKit          3D

 24 23  0  0  1  0  0  0  0  0999 V2000
   11.4584  -22.3410   16.0787 C   0  0  0  0  0  0  0  0  0  0  0  0
   10.7123  -23.6089   15.6450 C   0  0  2  0  0  0  0  0  0  0  0  0
   10.8196  -23.7233   14.1653 C   0  0  0  0  0  0  0  0  0  0  0  0
    9.3348  -23.5123   16.1858 C   0  0  2  0  0  0  0  0  0  0  0  0
    8.5721  -22.5721   15.3742 N   0  0  0  0  0  0  0  0  0  0  0  0
    9.2194  -23.2658   17.6098 C   0  0  0  0  0  0  0  0  0  0  0  0
    9.3089  -22.1134   18.0797 O   0  0  0  0  0  0  0  0  0  0  0  0
    9.0027  -24.3261   18.5130 N   0  0  0  0  0  0  0  0  0  0  0  0
    9.0202  -24.1442   19.9771 C   0  0  1  0  0  0  0  0  0  0  0  0
    7.8471  -24.9177   20.5064 C   0  0  0  0  0  0  0  0  0  0  0  0
    7.7027  -24.8569   21.9644 C   0  0  0  0  0  0  0  0  0  0  0  0
    7.9971  -25.8667   22.6615 O   0  0  0  0  0  0  0  0  0  0  0  0
   10.3161  -24.5185   20.5413 C   0  0  0  0  0  0  0  0  0  0  0  0
   10.9997  -25.4369   20.0461 O   0  0  0  0  0  0  0  0  0  0  0  0
    7.2464  -23.6933   22.5569 O   0  0  0  0  0  0  0  0  0  0  0  0
   10.9938  -21.6474   22.7039 N   0  0  0  0  0  0  0  0  0  0  0  0
   12.3829  -21.7482   22.4387 C   0  0  0  0  0  0  0  0  0  0  0  0
   13.0736  -20.6858   22.3235 O   0  0  0  0  0  0  0  0  0  0  0  0
   13.0838  -23.0411   22.2880 C   0  0  0  0  0  0  0  0  0  0  0  0
   12.0929  -24.1868   22.2861 C   0  0  2  0  0  0  0  0  0  0  0  0
   10.8406  -23.8416   21.6825 N   0  0  0  0  0  0  0  0  0  0  0  0
   11.8579  -24.5632   23.7198 C   0  0  0  0  0  0  0  0  0  0  0  0
   10.7821  -24.2489   24.2793 O   0  0  0  0  0  0  0  0  0  0  0  0
   12.8130  -25.2512   24.4261 O   0  0  0  0  0  0  0  0  0  0  0  0
  2  1  1  6
  2  4  1  0
  3  2  1  0
  4  6  1  0
  4  5  1  6
  6  7  2  0
  8  9  1  0
  8  6  1  0
  9 10  1  1
 10 11  1  0
 11 12  2  0
 11 15  1  0
 13 14  2  0
 13  9  1  0
 16 17  1  0
 17 18  2  0
 17 19  1  0
 20 19  1  1
 20 22  1  0
 20 21  1  0
 21 13  1  0
 22 24  1  0
 23 22  2  0
M  END
$$$$
