YRT.pdb
     RDKit          3D

 31 31  0  0  1  0  0  0  0  0999 V2000
    5.1868  -10.5549   28.5321 O   0  0  0  0  0  0  0  0  0  0  0  0
    5.9370  -11.4768   27.8078 C   0  0  0  0  0  0  0  0  0  0  0  0
    5.5388  -11.7869   26.5175 C   0  0  0  0  0  0  0  0  0  0  0  0
    6.2297  -12.6870   25.7432 C   0  0  0  0  0  0  0  0  0  0  0  0
    7.3536  -13.3057   26.2556 C   0  0  0  0  0  0  0  0  0  0  0  0
    8.1350  -14.2779   25.4761 C   0  0  0  0  0  0  0  0  0  0  0  0
    7.1976  -15.2501   24.7595 C   0  0  2  0  0  0  0  0  0  0  0  0
    6.6343  -16.1871   25.6809 N   0  0  0  0  0  0  0  0  0  0  0  0
    7.9296  -15.9427   23.6515 C   0  0  0  0  0  0  0  0  0  0  0  0
    8.3608  -17.1154   23.7776 O   0  0  0  0  0  0  0  0  0  0  0  0
    7.7406  -12.9866   27.5467 C   0  0  0  0  0  0  0  0  0  0  0  0
    7.0498  -12.0863   28.3214 C   0  0  0  0  0  0  0  0  0  0  0  0
    8.7288  -12.9486   16.0388 N   0  0  0  0  0  0  0  0  0  0  0  0
    8.4557  -14.3229   16.2164 C   0  0  0  0  0  0  0  0  0  0  0  0
    8.8809  -15.1552   15.3250 N   0  0  0  0  0  0  0  0  0  0  0  0
    7.7384  -14.8448   17.3221 N   0  0  0  0  0  0  0  0  0  0  0  0
    7.4491  -14.0039   18.4816 C   0  0  0  0  0  0  0  0  0  0  0  0
    7.4697  -14.8060   19.7546 C   0  0  0  0  0  0  0  0  0  0  0  0
    8.9017  -15.1602   20.0902 C   0  0  0  0  0  0  0  0  0  0  0  0
    8.9669  -15.9435   21.3950 C   0  0  2  0  0  0  0  0  0  0  0  0
    8.1671  -15.2991   22.4074 N   0  0  0  0  0  0  0  0  0  0  0  0
   10.3660  -16.1487   21.8282 C   0  0  0  0  0  0  0  0  0  0  0  0
   11.0591  -15.2069   22.2941 O   0  0  0  0  0  0  0  0  0  0  0  0
    8.7441  -16.1812   15.3836 C   0  0  0  0  0  0  0  0  0  0  0  0
   12.0314  -18.9621   24.1526 C   0  0  2  0  0  0  0  0  0  0  0  0
   12.5576  -18.9851   22.7326 O   0  0  0  0  0  0  0  0  0  0  0  0
   11.7423  -19.9059   22.0361 C   0  0  2  0  0  0  0  0  0  0  0  0
   12.3279  -17.6455   22.0739 N   0  0  0  0  0  0  0  0  0  0  0  0
   10.9625  -17.4166   21.7287 C   0  0  0  0  0  0  0  0  0  0  0  0
   13.1571  -17.5989   20.8584 O   0  0  0  0  0  0  0  0  0  0  0  0
   12.6173  -17.5187   19.7376 O   0  0  0  0  0  0  0  0  0  0  0  0
  2 12  2  0
  2  1  1  0
  3  2  1  0
  4  5  1  0
  4  3  2  0
  5 11  2  0
  6  5  1  0
  7  6  1  0
  7  8  1  1
  9 21  1  0
  9  7  1  0
 10  9  2  0
 11 12  1  0
 13 14  1  0
 14 15  2  0
 16 14  1  0
 16 17  1  0
 18 17  1  0
 19 18  1  0
 20 19  1  6
 20 21  1  0
 22 20  1  0
 22 28  1  0
 23 22  2  0
 25 24  1  1
 25 27  1  0
 26 25  1  0
 27 28  1  6
 27 29  1  0
 29 30  2  0
 29 31  1  0
M  END
$$$$
