YRT.pdb
     RDKit          3D

 31 31  0  0  1  0  0  0  0  0999 V2000
    5.8039  -10.3955   27.6160 O   0  0  0  0  0  0  0  0  0  0  0  0
    6.3225  -11.6255   27.2215 C   0  0  0  0  0  0  0  0  0  0  0  0
    6.2897  -12.6776   28.1222 C   0  0  0  0  0  0  0  0  0  0  0  0
    6.7827  -13.9195   27.8032 C   0  0  0  0  0  0  0  0  0  0  0  0
    7.3285  -14.1358   26.5526 C   0  0  0  0  0  0  0  0  0  0  0  0
    7.8723  -15.4423   26.1520 C   0  0  0  0  0  0  0  0  0  0  0  0
    6.8592  -16.1879   25.2830 C   0  0  2  0  0  0  0  0  0  0  0  0
    6.5275  -17.4535   25.8595 N   0  0  0  0  0  0  0  0  0  0  0  0
    7.3939  -16.3417   23.8925 C   0  0  0  0  0  0  0  0  0  0  0  0
    8.0505  -17.3547   23.5464 O   0  0  0  0  0  0  0  0  0  0  0  0
    7.3549  -13.0753   25.6619 C   0  0  0  0  0  0  0  0  0  0  0  0
    6.8618  -11.8331   25.9807 C   0  0  0  0  0  0  0  0  0  0  0  0
    9.4343  -15.3939   17.1405 N   0  0  0  0  0  0  0  0  0  0  0  0
    8.6712  -14.3091   16.6548 C   0  0  0  0  0  0  0  0  0  0  0  0
    8.0591  -14.4438   15.5256 N   0  0  0  0  0  0  0  0  0  0  0  0
    8.5373  -13.0744   17.3383 N   0  0  0  0  0  0  0  0  0  0  0  0
    7.9221  -13.0234   18.6628 C   0  0  0  0  0  0  0  0  0  0  0  0
    8.3071  -14.2210   19.4885 C   0  0  0  0  0  0  0  0  0  0  0  0
    7.5570  -14.1756   20.8015 C   0  0  0  0  0  0  0  0  0  0  0  0
    7.8979  -15.3908   21.6543 C   0  0  2  0  0  0  0  0  0  0  0  0
    7.1795  -15.3441   22.9040 N   0  0  0  0  0  0  0  0  0  0  0  0
    9.3585  -15.5173   21.8484 C   0  0  0  0  0  0  0  0  0  0  0  0
   10.0148  -14.6670   22.5045 O   0  0  0  0  0  0  0  0  0  0  0  0
    7.5849  -13.6655   15.0313 C   0  0  0  0  0  0  0  0  0  0  0  0
   11.2739  -19.2715   21.2528 C   0  0  2  0  0  0  0  0  0  0  0  0
   11.7464  -18.1571   22.1630 O   0  0  0  0  0  0  0  0  0  0  0  0
   13.1552  -18.2640   22.2010 C   0  0  1  0  0  0  0  0  0  0  0  0
   11.4482  -16.8156   21.5363 N   0  0  0  0  0  0  0  0  0  0  0  0
   10.0574  -16.6043   21.2976 C   0  0  0  0  0  0  0  0  0  0  0  0
   12.1821  -16.7465   20.2620 O   0  0  0  0  0  0  0  0  0  0  0  0
   11.5587  -16.7420   19.1824 O   0  0  0  0  0  0  0  0  0  0  0  0
  2 12  2  0
  2  1  1  0
  3  2  1  0
  4  5  1  0
  4  3  2  0
  5 11  2  0
  6  5  1  0
  7  6  1  0
  7  8  1  1
  9 21  1  0
  9  7  1  0
 10  9  2  0
 11 12  1  0
 13 14  1  0
 14 15  2  0
 16 14  1  0
 16 17  1  0
 18 17  1  0
 19 18  1  0
 20 19  1  1
 20 21  1  0
 22 20  1  0
 22 28  1  0
 23 22  2  0
 25 24  1  1
 25 27  1  0
 26 25  1  0
 27 28  1  1
 27 29  1  0
 29 30  2  0
 29 31  1  0
M  END
$$$$
