YRT.pdb
     RDKit          3D

 31 31  0  0  1  0  0  0  0  0999 V2000
   -2.1534  -21.3099   22.5026 O   0  0  0  0  0  0  0  0  0  0  0  0
   -0.8430  -20.8979   22.7270 C   0  0  0  0  0  0  0  0  0  0  0  0
   -0.4192  -19.7038   22.1667 C   0  0  0  0  0  0  0  0  0  0  0  0
    0.8593  -19.2338   22.3451 C   0  0  0  0  0  0  0  0  0  0  0  0
    1.7548  -19.9642   23.1022 C   0  0  0  0  0  0  0  0  0  0  0  0
    3.1364  -19.5139   23.3293 C   0  0  0  0  0  0  0  0  0  0  0  0
    3.9389  -19.6086   22.0315 C   0  0  2  0  0  0  0  0  0  0  0  0
    4.2618  -20.9685   21.7304 N   0  0  0  0  0  0  0  0  0  0  0  0
    5.1699  -18.7611   22.1288 C   0  0  0  0  0  0  0  0  0  0  0  0
    6.2620  -19.2282   22.5366 O   0  0  0  0  0  0  0  0  0  0  0  0
    1.3179  -21.1561   23.6565 C   0  0  0  0  0  0  0  0  0  0  0  0
    0.0393  -21.6263   23.4783 C   0  0  0  0  0  0  0  0  0  0  0  0
    9.8582  -13.7519   21.2099 N   0  0  0  0  0  0  0  0  0  0  0  0
    9.6932  -13.0713   19.9833 C   0  0  0  0  0  0  0  0  0  0  0  0
   10.7483  -12.6788   19.3504 N   0  0  0  0  0  0  0  0  0  0  0  0
    8.4301  -12.7924   19.4034 N   0  0  0  0  0  0  0  0  0  0  0  0
    7.2085  -13.3402   19.9889 C   0  0  0  0  0  0  0  0  0  0  0  0
    7.4713  -14.6608   20.6606 C   0  0  0  0  0  0  0  0  0  0  0  0
    6.1508  -15.2819   21.0594 C   0  0  0  0  0  0  0  0  0  0  0  0
    6.3761  -16.6249   21.7418 C   0  0  2  0  0  0  0  0  0  0  0  0
    5.1528  -17.3886   21.7624 N   0  0  0  0  0  0  0  0  0  0  0  0
    6.9542  -16.4504   23.0918 C   0  0  0  0  0  0  0  0  0  0  0  0
    6.4120  -15.7096   23.9529 O   0  0  0  0  0  0  0  0  0  0  0  0
   10.7217  -12.1531   18.4571 C   0  0  0  0  0  0  0  0  0  0  0  0
    7.3941  -18.6316   25.9018 C   0  0  2  0  0  0  0  0  0  0  0  0
    8.8012  -18.1968   25.5488 O   0  0  0  0  0  0  0  0  0  0  0  0
    9.3118  -19.2033   24.6980 C   0  0  2  0  0  0  0  0  0  0  0  0
    8.7603  -16.9342   24.7209 N   0  0  0  0  0  0  0  0  0  0  0  0
    8.1381  -17.1164   23.4498 C   0  0  0  0  0  0  0  0  0  0  0  0
   10.1481  -16.4824   24.5290 O   0  0  0  0  0  0  0  0  0  0  0  0
   10.8109  -16.0723   25.5019 O   0  0  0  0  0  0  0  0  0  0  0  0
  2 12  2  0
  2  1  1  0
  3  2  1  0
  4  5  1  0
  4  3  2  0
  5 11  2  0
  6  5  1  0
  7  6  1  0
  7  8  1  1
  9 21  1  0
  9  7  1  0
 10  9  2  0
 11 12  1  0
 13 14  1  0
 14 15  2  0
 16 14  1  0
 16 17  1  0
 18 17  1  0
 19 18  1  0
 20 19  1  1
 20 21  1  0
 22 20  1  0
 22 28  1  0
 23 22  2  0
 25 24  1  1
 25 27  1  0
 26 25  1  0
 27 28  1  1
 27 29  1  0
 29 30  2  0
 29 31  1  0
M  END
$$$$
