YRT.pdb
     RDKit          3D

 31 31  0  0  1  0  0  0  0  0999 V2000
    7.0083  -11.6670   16.9731 O   0  0  0  0  0  0  0  0  0  0  0  0
    7.3375  -12.3449   18.1433 C   0  0  0  0  0  0  0  0  0  0  0  0
    6.4022  -13.2047   18.6960 C   0  0  0  0  0  0  0  0  0  0  0  0
    6.6567  -13.9071   19.8488 C   0  0  0  0  0  0  0  0  0  0  0  0
    7.8755  -13.7594   20.4822 C   0  0  0  0  0  0  0  0  0  0  0  0
    8.2070  -14.4837   21.7186 C   0  0  0  0  0  0  0  0  0  0  0  0
    9.0545  -15.7142   21.3944 C   0  0  2  0  0  0  0  0  0  0  0  0
    8.3515  -16.6010   20.5206 N   0  0  0  0  0  0  0  0  0  0  0  0
    9.4630  -16.4015   22.6608 C   0  0  0  0  0  0  0  0  0  0  0  0
    8.6583  -17.1074   23.3176 O   0  0  0  0  0  0  0  0  0  0  0  0
    8.8013  -12.8967   19.9190 C   0  0  0  0  0  0  0  0  0  0  0  0
    8.5471  -12.1940   18.7660 C   0  0  0  0  0  0  0  0  0  0  0  0
   13.1216  -21.2918   20.3955 N   0  0  0  0  0  0  0  0  0  0  0  0
   14.0839  -21.2444   21.4284 C   0  0  0  0  0  0  0  0  0  0  0  0
   14.9625  -22.1887   21.4949 N   0  0  0  0  0  0  0  0  0  0  0  0
   14.1419  -20.2153   22.4015 N   0  0  0  0  0  0  0  0  0  0  0  0
   13.3118  -19.0202   22.2667 C   0  0  0  0  0  0  0  0  0  0  0  0
   12.2618  -18.9625   23.3430 C   0  0  0  0  0  0  0  0  0  0  0  0
   12.4767  -17.7170   24.1744 C   0  0  0  0  0  0  0  0  0  0  0  0
   11.1610  -16.9774   24.3794 C   0  0  2  0  0  0  0  0  0  0  0  0
   10.7827  -16.2828   23.1733 N   0  0  0  0  0  0  0  0  0  0  0  0
   11.2285  -16.0768   25.5505 C   0  0  0  0  0  0  0  0  0  0  0  0
   11.6855  -14.9075   25.4604 O   0  0  0  0  0  0  0  0  0  0  0  0
   15.7228  -22.2192   22.1992 C   0  0  0  0  0  0  0  0  0  0  0  0
    9.6148  -13.9104   29.2661 C   0  0  2  0  0  0  0  0  0  0  0  0
    9.4765  -14.9224   28.1479 O   0  0  0  0  0  0  0  0  0  0  0  0
    9.2777  -14.1676   26.9696 C   0  0  1  0  0  0  0  0  0  0  0  0
   10.7800  -15.6603   27.9537 N   0  0  0  0  0  0  0  0  0  0  0  0
   10.7781  -16.5111   26.8083 C   0  0  0  0  0  0  0  0  0  0  0  0
   11.0211  -16.4641   29.1632 O   0  0  0  0  0  0  0  0  0  0  0  0
   10.9978  -17.7090   29.0999 O   0  0  0  0  0  0  0  0  0  0  0  0
  2 12  2  0
  2  1  1  0
  3  2  1  0
  4  5  1  0
  4  3  2  0
  5 11  2  0
  6  5  1  0
  7  6  1  0
  7  8  1  6
  9 21  1  0
  9  7  1  0
 10  9  2  0
 11 12  1  0
 13 14  1  0
 14 15  2  0
 16 14  1  0
 16 17  1  0
 18 17  1  0
 19 18  1  0
 20 19  1  6
 20 21  1  0
 22 20  1  0
 22 28  1  0
 23 22  2  0
 25 24  1  1
 25 27  1  0
 26 25  1  0
 27 28  1  1
 27 29  1  0
 29 30  2  0
 29 31  1  0
M  END
$$$$
