YRT.pdb
     RDKit          3D

 31 31  0  0  1  0  0  0  0  0999 V2000
    5.8416  -10.6758   28.8407 O   0  0  0  0  0  0  0  0  0  0  0  0
    6.3807  -11.6296   27.9823 C   0  0  0  0  0  0  0  0  0  0  0  0
    7.3602  -12.4801   28.4687 C   0  0  0  0  0  0  0  0  0  0  0  0
    7.9376  -13.4454   27.6801 C   0  0  0  0  0  0  0  0  0  0  0  0
    7.5380  -13.5801   26.3646 C   0  0  0  0  0  0  0  0  0  0  0  0
    8.1185  -14.5939   25.4709 C   0  0  0  0  0  0  0  0  0  0  0  0
    7.0260  -15.5391   24.9704 C   0  0  2  0  0  0  0  0  0  0  0  0
    6.8836  -16.6613   25.8448 N   0  0  0  0  0  0  0  0  0  0  0  0
    7.3268  -15.9709   23.5682 C   0  0  0  0  0  0  0  0  0  0  0  0
    7.6878  -17.1439   23.3022 O   0  0  0  0  0  0  0  0  0  0  0  0
    6.5580  -12.7233   25.8912 C   0  0  0  0  0  0  0  0  0  0  0  0
    5.9802  -11.7578   26.6797 C   0  0  0  0  0  0  0  0  0  0  0  0
    9.6161  -15.2708   16.4386 N   0  0  0  0  0  0  0  0  0  0  0  0
    8.4335  -14.5865   16.0806 C   0  0  0  0  0  0  0  0  0  0  0  0
    7.8415  -14.9145   14.9806 N   0  0  0  0  0  0  0  0  0  0  0  0
    7.8553  -13.5551   16.8625 N   0  0  0  0  0  0  0  0  0  0  0  0
    8.4504  -13.1721   18.1410 C   0  0  0  0  0  0  0  0  0  0  0  0
    8.6055  -14.3629   19.0477 C   0  0  0  0  0  0  0  0  0  0  0  0
    7.7947  -14.1340   20.3043 C   0  0  0  0  0  0  0  0  0  0  0  0
    7.9125  -15.3288   21.2417 C   0  0  2  0  0  0  0  0  0  0  0  0
    7.2157  -15.0678   22.4771 N   0  0  0  0  0  0  0  0  0  0  0  0
    9.3268  -15.7017   21.4604 C   0  0  0  0  0  0  0  0  0  0  0  0
   10.1121  -14.9647   22.1119 O   0  0  0  0  0  0  0  0  0  0  0  0
    7.0297  -14.4023   14.5888 C   0  0  0  0  0  0  0  0  0  0  0  0
   11.0464  -18.8781   22.9499 C   0  0  2  0  0  0  0  0  0  0  0  0
   11.3989  -18.7104   21.4866 O   0  0  0  0  0  0  0  0  0  0  0  0
   10.4333  -19.4549   20.7716 C   0  0  2  0  0  0  0  0  0  0  0  0
   11.2064  -17.2715   21.0696 N   0  0  0  0  0  0  0  0  0  0  0  0
    9.8340  -16.9036   20.9393 C   0  0  0  0  0  0  0  0  0  0  0  0
   11.8900  -17.0867   19.7790 O   0  0  0  0  0  0  0  0  0  0  0  0
   11.2247  -16.8904   18.7431 O   0  0  0  0  0  0  0  0  0  0  0  0
  2 12  2  0
  2  1  1  0
  3  2  1  0
  4  5  1  0
  4  3  2  0
  5 11  2  0
  6  5  1  0
  7  6  1  0
  7  8  1  1
  9 21  1  0
  9  7  1  0
 10  9  2  0
 11 12  1  0
 13 14  1  0
 14 15  2  0
 16 14  1  0
 16 17  1  0
 18 17  1  0
 19 18  1  0
 20 19  1  6
 20 21  1  0
 22 20  1  0
 22 28  1  0
 23 22  2  0
 25 24  1  1
 25 27  1  0
 26 25  1  0
 27 28  1  6
 27 29  1  0
 29 30  2  0
 29 31  1  0
M  END
$$$$
