YRT.pdb
     RDKit          3D

 31 31  0  0  1  0  0  0  0  0999 V2000
    4.7400  -10.6849   27.5066 O   0  0  0  0  0  0  0  0  0  0  0  0
    5.5824  -11.7420   27.1748 C   0  0  0  0  0  0  0  0  0  0  0  0
    6.4080  -12.2643   28.1572 C   0  0  0  0  0  0  0  0  0  0  0  0
    7.2652  -13.3072   27.9033 C   0  0  0  0  0  0  0  0  0  0  0  0
    7.3133  -13.8576   26.6371 C   0  0  0  0  0  0  0  0  0  0  0  0
    8.2098  -14.9749   26.3035 C   0  0  0  0  0  0  0  0  0  0  0  0
    7.4275  -16.0819   25.5966 C   0  0  2  0  0  0  0  0  0  0  0  0
    7.2684  -17.2179   26.4500 N   0  0  0  0  0  0  0  0  0  0  0  0
    8.1084  -16.4502   24.3144 C   0  0  0  0  0  0  0  0  0  0  0  0
    8.7759  -17.5079   24.2020 O   0  0  0  0  0  0  0  0  0  0  0  0
    6.4826  -13.3259   25.6644 C   0  0  0  0  0  0  0  0  0  0  0  0
    5.6251  -12.2827   25.9181 C   0  0  0  0  0  0  0  0  0  0  0  0
    9.0181  -12.3140   18.0324 N   0  0  0  0  0  0  0  0  0  0  0  0
    8.5481  -13.5807   17.6208 C   0  0  0  0  0  0  0  0  0  0  0  0
    9.1584  -14.1788   16.6523 N   0  0  0  0  0  0  0  0  0  0  0  0
    7.4396  -14.2374   18.2119 N   0  0  0  0  0  0  0  0  0  0  0  0
    6.8891  -13.7659   19.4807 C   0  0  0  0  0  0  0  0  0  0  0  0
    7.0810  -14.7859   20.5701 C   0  0  0  0  0  0  0  0  0  0  0  0
    8.5527  -14.8729   20.9095 C   0  0  0  0  0  0  0  0  0  0  0  0
    8.7920  -15.9242   21.9855 C   0  0  2  0  0  0  0  0  0  0  0  0
    8.0269  -15.6148   23.1682 N   0  0  0  0  0  0  0  0  0  0  0  0
   10.2345  -16.0797   22.2723 C   0  0  0  0  0  0  0  0  0  0  0  0
   10.8540  -15.2677   23.0079 O   0  0  0  0  0  0  0  0  0  0  0  0
    8.9118  -15.1277   16.3152 C   0  0  0  0  0  0  0  0  0  0  0  0
   12.3272  -19.0000   23.7672 C   0  0  2  0  0  0  0  0  0  0  0  0
   12.7307  -18.7317   22.3324 O   0  0  0  0  0  0  0  0  0  0  0  0
   11.9222  -19.5795   21.5416 C   0  0  2  0  0  0  0  0  0  0  0  0
   12.3564  -17.3206   21.9448 N   0  0  0  0  0  0  0  0  0  0  0  0
   10.9571  -17.1519   21.7230 C   0  0  0  0  0  0  0  0  0  0  0  0
   13.0933  -16.9864   20.7150 O   0  0  0  0  0  0  0  0  0  0  0  0
   12.4730  -16.7667   19.6562 O   0  0  0  0  0  0  0  0  0  0  0  0
  2 12  2  0
  2  1  1  0
  3  2  1  0
  4  5  1  0
  4  3  2  0
  5 11  2  0
  6  5  1  0
  7  6  1  0
  7  8  1  1
  9 21  1  0
  9  7  1  0
 10  9  2  0
 11 12  1  0
 13 14  1  0
 14 15  2  0
 16 14  1  0
 16 17  1  0
 18 17  1  0
 19 18  1  0
 20 19  1  6
 20 21  1  0
 22 20  1  0
 22 28  1  0
 23 22  2  0
 25 24  1  1
 25 27  1  0
 26 25  1  0
 27 28  1  6
 27 29  1  0
 29 30  2  0
 29 31  1  0
M  END
$$$$
