YRT.pdb
     RDKit          3D

 31 31  0  0  1  0  0  0  0  0999 V2000
    5.2344  -10.5258   28.2408 O   0  0  0  0  0  0  0  0  0  0  0  0
    5.9077  -11.5039   27.5146 C   0  0  0  0  0  0  0  0  0  0  0  0
    7.1072  -11.9885   28.0102 C   0  0  0  0  0  0  0  0  0  0  0  0
    7.8269  -12.9535   27.3485 C   0  0  0  0  0  0  0  0  0  0  0  0
    7.3504  -13.4614   26.1554 C   0  0  0  0  0  0  0  0  0  0  0  0
    8.0750  -14.4951   25.4006 C   0  0  0  0  0  0  0  0  0  0  0  0
    7.2055  -15.7442   25.2548 C   0  0  2  0  0  0  0  0  0  0  0  0
    7.0365  -16.3971   26.5155 N   0  0  0  0  0  0  0  0  0  0  0  0
    7.8015  -16.6656   24.2354 C   0  0  0  0  0  0  0  0  0  0  0  0
    8.4529  -17.6860   24.5692 O   0  0  0  0  0  0  0  0  0  0  0  0
    6.1500  -12.9681   25.6714 C   0  0  0  0  0  0  0  0  0  0  0  0
    5.4299  -12.0029   26.3330 C   0  0  0  0  0  0  0  0  0  0  0  0
    9.6641  -14.0515   16.8802 N   0  0  0  0  0  0  0  0  0  0  0  0
    8.8919  -13.3700   17.8469 C   0  0  0  0  0  0  0  0  0  0  0  0
    9.3415  -12.2553   18.3194 N   0  0  0  0  0  0  0  0  0  0  0  0
    7.6457  -13.8408   18.3312 N   0  0  0  0  0  0  0  0  0  0  0  0
    7.4885  -15.2345   18.7414 C   0  0  0  0  0  0  0  0  0  0  0  0
    8.0229  -15.4568   20.1303 C   0  0  0  0  0  0  0  0  0  0  0  0
    7.9040  -16.9252   20.4745 C   0  0  0  0  0  0  0  0  0  0  0  0
    8.4142  -17.1865   21.8857 C   0  0  2  0  0  0  0  0  0  0  0  0
    7.6539  -16.4221   22.8436 N   0  0  0  0  0  0  0  0  0  0  0  0
    9.8673  -16.9309   21.9869 C   0  0  0  0  0  0  0  0  0  0  0  0
   10.3198  -15.7967   22.2920 O   0  0  0  0  0  0  0  0  0  0  0  0
    8.8502  -11.6960   19.0411 C   0  0  0  0  0  0  0  0  0  0  0  0
   12.5769  -18.5353   24.1625 C   0  0  2  0  0  0  0  0  0  0  0  0
   12.8868  -18.7926   22.7026 O   0  0  0  0  0  0  0  0  0  0  0  0
   12.2770  -20.0296   22.3932 C   0  0  2  0  0  0  0  0  0  0  0  0
   12.1989  -17.7625   21.8383 N   0  0  0  0  0  0  0  0  0  0  0  0
   10.7894  -17.9619   21.7415 C   0  0  0  0  0  0  0  0  0  0  0  0
   12.7993  -17.8349   20.4961 O   0  0  0  0  0  0  0  0  0  0  0  0
   12.0940  -18.1333   19.5124 O   0  0  0  0  0  0  0  0  0  0  0  0
  2 12  2  0
  2  1  1  0
  3  2  1  0
  4  5  1  0
  4  3  2  0
  5 11  2  0
  6  5  1  0
  7  6  1  0
  7  8  1  1
  9 21  1  0
  9  7  1  0
 10  9  2  0
 11 12  1  0
 13 14  1  0
 14 15  2  0
 16 14  1  0
 16 17  1  0
 18 17  1  0
 19 18  1  0
 20 19  1  6
 20 21  1  0
 22 20  1  0
 22 28  1  0
 23 22  2  0
 25 24  1  1
 25 27  1  0
 26 25  1  0
 27 28  1  6
 27 29  1  0
 29 30  2  0
 29 31  1  0
M  END
$$$$
