YRT.pdb
     RDKit          3D

 31 31  0  0  1  0  0  0  0  0999 V2000
    4.3264   -9.8714   26.0894 O   0  0  0  0  0  0  0  0  0  0  0  0
    5.0366  -11.0646   26.1846 C   0  0  0  0  0  0  0  0  0  0  0  0
    5.8996  -11.4054   25.1557 C   0  0  0  0  0  0  0  0  0  0  0  0
    6.6331  -12.5666   25.1807 C   0  0  0  0  0  0  0  0  0  0  0  0
    6.5144  -13.4251   26.2565 C   0  0  0  0  0  0  0  0  0  0  0  0
    7.2726  -14.6826   26.3409 C   0  0  0  0  0  0  0  0  0  0  0  0
    6.6193  -15.7490   25.4616 C   0  0  2  0  0  0  0  0  0  0  0  0
    5.6453  -16.4911   26.1997 N   0  0  0  0  0  0  0  0  0  0  0  0
    7.6689  -16.6465   24.8817 C   0  0  0  0  0  0  0  0  0  0  0  0
    8.0354  -17.6961   25.4655 O   0  0  0  0  0  0  0  0  0  0  0  0
    5.6481  -13.0722   27.2781 C   0  0  0  0  0  0  0  0  0  0  0  0
    4.9143  -11.9109   27.2534 C   0  0  0  0  0  0  0  0  0  0  0  0
   10.6213  -13.6311   19.0770 N   0  0  0  0  0  0  0  0  0  0  0  0
    9.3340  -13.1931   19.4592 C   0  0  0  0  0  0  0  0  0  0  0  0
    9.1354  -11.9262   19.6129 N   0  0  0  0  0  0  0  0  0  0  0  0
    8.2415  -14.0676   19.6851 N   0  0  0  0  0  0  0  0  0  0  0  0
    8.4716  -15.4471   20.1086 C   0  0  0  0  0  0  0  0  0  0  0  0
    9.4025  -15.5059   21.2894 C   0  0  0  0  0  0  0  0  0  0  0  0
    9.6076  -16.9521   21.6832 C   0  0  0  0  0  0  0  0  0  0  0  0
    9.4156  -17.1300   23.1837 C   0  0  2  0  0  0  0  0  0  0  0  0
    8.2954  -16.3460   23.6425 N   0  0  0  0  0  0  0  0  0  0  0  0
   10.6587  -16.8234   23.9238 C   0  0  0  0  0  0  0  0  0  0  0  0
   11.7201  -16.5009   23.3292 O   0  0  0  0  0  0  0  0  0  0  0  0
    8.2187  -11.5138   19.8668 C   0  0  0  0  0  0  0  0  0  0  0  0
   11.1545  -14.4653   27.0849 C   0  0  2  0  0  0  0  0  0  0  0  0
   11.5927  -15.8859   27.3736 O   0  0  0  0  0  0  0  0  0  0  0  0
   10.4710  -16.5238   27.9504 C   0  0  2  0  0  0  0  0  0  0  0  0
   11.8662  -16.6161   26.0799 N   0  0  0  0  0  0  0  0  0  0  0  0
   10.6846  -16.8857   25.3270 C   0  0  0  0  0  0  0  0  0  0  0  0
   12.5348  -17.8836   26.4168 O   0  0  0  0  0  0  0  0  0  0  0  0
   11.9929  -18.9697   26.1324 O   0  0  0  0  0  0  0  0  0  0  0  0
  2 12  2  0
  2  1  1  0
  3  2  1  0
  4  5  1  0
  4  3  2  0
  5 11  2  0
  6  5  1  0
  7  6  1  0
  7  8  1  1
  9 21  1  0
  9  7  1  0
 10  9  2  0
 11 12  1  0
 13 14  1  0
 14 15  2  0
 16 14  1  0
 16 17  1  0
 18 17  1  0
 19 18  1  0
 20 19  1  6
 20 21  1  0
 22 20  1  0
 22 28  1  0
 23 22  2  0
 25 24  1  1
 25 27  1  0
 26 25  1  0
 27 28  1  1
 27 29  1  0
 29 30  2  0
 29 31  1  0
M  END
$$$$
