YRT.pdb
     RDKit          3D

 31 31  0  0  1  0  0  0  0  0999 V2000
   10.6719  -14.0979   31.0851 O   0  0  0  0  0  0  0  0  0  0  0  0
   10.4464  -14.4803   29.7659 C   0  0  0  0  0  0  0  0  0  0  0  0
   10.7372  -15.7831   29.3952 C   0  0  0  0  0  0  0  0  0  0  0  0
   10.5405  -16.2317   28.1118 C   0  0  0  0  0  0  0  0  0  0  0  0
   10.0394  -15.3682   27.1569 C   0  0  0  0  0  0  0  0  0  0  0  0
    9.8071  -15.7890   25.7668 C   0  0  0  0  0  0  0  0  0  0  0  0
    8.3556  -16.2353   25.5896 C   0  0  2  0  0  0  0  0  0  0  0  0
    8.0768  -17.3895   26.3861 N   0  0  0  0  0  0  0  0  0  0  0  0
    8.0716  -16.4870   24.1408 C   0  0  0  0  0  0  0  0  0  0  0  0
    8.2545  -17.6144   23.6187 O   0  0  0  0  0  0  0  0  0  0  0  0
    9.7530  -14.0685   27.5410 C   0  0  0  0  0  0  0  0  0  0  0  0
    9.9497  -13.6196   28.8246 C   0  0  0  0  0  0  0  0  0  0  0  0
    9.0977  -14.4652   17.5029 N   0  0  0  0  0  0  0  0  0  0  0  0
    8.1115  -13.6248   16.9407 C   0  0  0  0  0  0  0  0  0  0  0  0
    8.1462  -13.4000   15.6694 N   0  0  0  0  0  0  0  0  0  0  0  0
    7.0803  -13.0103   17.6946 N   0  0  0  0  0  0  0  0  0  0  0  0
    7.1883  -12.9022   19.1479 C   0  0  0  0  0  0  0  0  0  0  0  0
    7.7000  -14.1816   19.7524 C   0  0  0  0  0  0  0  0  0  0  0  0
    7.4909  -14.1367   21.2501 C   0  0  0  0  0  0  0  0  0  0  0  0
    7.8951  -15.4604   21.8862 C   0  0  2  0  0  0  0  0  0  0  0  0
    7.5819  -15.4567   23.2940 N   0  0  0  0  0  0  0  0  0  0  0  0
    9.3181  -15.7682   21.6264 C   0  0  0  0  0  0  0  0  0  0  0  0
   10.2441  -15.0413   22.0718 O   0  0  0  0  0  0  0  0  0  0  0  0
    7.5434  -12.7054   15.1909 C   0  0  0  0  0  0  0  0  0  0  0  0
   11.3885  -19.0292   22.2098 C   0  0  2  0  0  0  0  0  0  0  0  0
   11.3540  -18.6764   20.7374 O   0  0  0  0  0  0  0  0  0  0  0  0
   10.2539  -19.3820   20.1993 C   0  0  2  0  0  0  0  0  0  0  0  0
   11.0327  -17.2107   20.5639 N   0  0  0  0  0  0  0  0  0  0  0  0
    9.6746  -16.8943   20.8661 C   0  0  0  0  0  0  0  0  0  0  0  0
   11.3214  -16.8542   19.1651 O   0  0  0  0  0  0  0  0  0  0  0  0
   10.3912  -16.5419   18.3961 O   0  0  0  0  0  0  0  0  0  0  0  0
  2 12  2  0
  2  1  1  0
  3  2  1  0
  4  5  1  0
  4  3  2  0
  5 11  2  0
  6  5  1  0
  7  6  1  0
  7  8  1  1
  9 21  1  0
  9  7  1  0
 10  9  2  0
 11 12  1  0
 13 14  1  0
 14 15  2  0
 16 14  1  0
 16 17  1  0
 18 17  1  0
 19 18  1  0
 20 19  1  1
 20 21  1  0
 22 20  1  0
 22 28  1  0
 23 22  2  0
 25 24  1  6
 25 27  1  0
 26 25  1  0
 27 28  1  6
 27 29  1  0
 29 30  2  0
 29 31  1  0
M  END
$$$$
