YRT.pdb
     RDKit          3D

 31 31  0  0  1  0  0  0  0  0999 V2000
   18.7822  -11.5444   18.6274 O   0  0  0  0  0  0  0  0  0  0  0  0
   18.0092  -12.6756   18.3822 C   0  0  0  0  0  0  0  0  0  0  0  0
   17.5869  -12.9208   17.0857 C   0  0  0  0  0  0  0  0  0  0  0  0
   16.8217  -14.0167   16.7686 C   0  0  0  0  0  0  0  0  0  0  0  0
   16.4577  -14.9048   17.7622 C   0  0  0  0  0  0  0  0  0  0  0  0
   15.6400  -16.0956   17.4855 C   0  0  0  0  0  0  0  0  0  0  0  0
   14.3682  -15.6962   16.7369 C   0  0  2  0  0  0  0  0  0  0  0  0
   14.6621  -14.7598   15.6972 N   0  0  0  0  0  0  0  0  0  0  0  0
   13.3594  -15.1488   17.6991 C   0  0  0  0  0  0  0  0  0  0  0  0
   13.2313  -13.9142   17.8894 O   0  0  0  0  0  0  0  0  0  0  0  0
   16.8866  -14.6476   19.0539 C   0  0  0  0  0  0  0  0  0  0  0  0
   17.6520  -13.5516   19.3714 C   0  0  0  0  0  0  0  0  0  0  0  0
    7.2459  -12.0663   21.0631 N   0  0  0  0  0  0  0  0  0  0  0  0
    7.5026  -12.5544   19.7627 C   0  0  0  0  0  0  0  0  0  0  0  0
    8.2186  -11.8340   18.9651 N   0  0  0  0  0  0  0  0  0  0  0  0
    7.0176  -13.7957   19.2796 N   0  0  0  0  0  0  0  0  0  0  0  0
    7.9109  -14.7216   18.5869 C   0  0  0  0  0  0  0  0  0  0  0  0
    8.9713  -15.2513   19.5139 C   0  0  0  0  0  0  0  0  0  0  0  0
   10.0853  -15.8601   18.6910 C   0  0  0  0  0  0  0  0  0  0  0  0
   11.4440  -15.4573   19.2495 C   0  0  2  0  0  0  0  0  0  0  0  0
   12.5026  -16.0072   18.4390 N   0  0  0  0  0  0  0  0  0  0  0  0
   11.5715  -15.8337   20.6741 C   0  0  0  0  0  0  0  0  0  0  0  0
   10.8490  -15.3125   21.5632 O   0  0  0  0  0  0  0  0  0  0  0  0
    8.5058  -12.1378   18.0163 C   0  0  0  0  0  0  0  0  0  0  0  0
   11.6537  -19.5142   21.9260 C   0  0  2  0  0  0  0  0  0  0  0  0
   12.8351  -18.7620   22.5023 O   0  0  0  0  0  0  0  0  0  0  0  0
   13.9200  -19.0305   21.6371 C   0  0  2  0  0  0  0  0  0  0  0  0
   12.5930  -17.2736   22.4156 N   0  0  0  0  0  0  0  0  0  0  0  0
   12.5148  -16.7949   21.0738 C   0  0  0  0  0  0  0  0  0  0  0  0
   13.7006  -16.6009   23.1141 O   0  0  0  0  0  0  0  0  0  0  0  0
   13.8587  -16.7681   24.3393 O   0  0  0  0  0  0  0  0  0  0  0  0
  2 12  2  0
  2  1  1  0
  3  2  1  0
  4  5  1  0
  4  3  2  0
  5 11  2  0
  6  5  1  0
  7  6  1  0
  7  8  1  6
  9 21  1  0
  9  7  1  0
 10  9  2  0
 11 12  1  0
 13 14  1  0
 14 15  2  0
 16 14  1  0
 16 17  1  0
 18 17  1  0
 19 18  1  0
 20 19  1  6
 20 21  1  0
 22 20  1  0
 22 28  1  0
 23 22  2  0
 25 24  1  1
 25 27  1  0
 26 25  1  0
 27 28  1  1
 27 29  1  0
 29 30  2  0
 29 31  1  0
M  END
$$$$
