YRT.pdb
     RDKit          3D

 31 31  0  0  1  0  0  0  0  0999 V2000
   10.4217  -14.4076   31.4438 O   0  0  0  0  0  0  0  0  0  0  0  0
   10.2956  -14.7281   30.0952 C   0  0  0  0  0  0  0  0  0  0  0  0
    9.8965  -13.7368   29.2134 C   0  0  0  0  0  0  0  0  0  0  0  0
    9.7506  -13.9794   27.8692 C   0  0  0  0  0  0  0  0  0  0  0  0
   10.0063  -15.2430   27.3727 C   0  0  0  0  0  0  0  0  0  0  0  0
    9.8680  -15.5646   25.9441 C   0  0  0  0  0  0  0  0  0  0  0  0
    8.4243  -15.9598   25.6329 C   0  0  2  0  0  0  0  0  0  0  0  0
    8.0567  -17.1457   26.3419 N   0  0  0  0  0  0  0  0  0  0  0  0
    8.2475  -16.1272   24.1551 C   0  0  0  0  0  0  0  0  0  0  0  0
    8.2969  -17.2567   23.6085 O   0  0  0  0  0  0  0  0  0  0  0  0
   10.4045  -16.2246   28.2651 C   0  0  0  0  0  0  0  0  0  0  0  0
   10.5505  -15.9823   29.6097 C   0  0  0  0  0  0  0  0  0  0  0  0
    7.7402  -12.4425   16.6110 N   0  0  0  0  0  0  0  0  0  0  0  0
    7.7992  -13.8434   16.7819 C   0  0  0  0  0  0  0  0  0  0  0  0
    8.7161  -14.5019   16.1544 N   0  0  0  0  0  0  0  0  0  0  0  0
    6.9060  -14.5726   17.6064 N   0  0  0  0  0  0  0  0  0  0  0  0
    6.7018  -14.1865   19.0009 C   0  0  0  0  0  0  0  0  0  0  0  0
    8.0138  -13.9402   19.6953 C   0  0  0  0  0  0  0  0  0  0  0  0
    7.7715  -13.8425   21.1854 C   0  0  0  0  0  0  0  0  0  0  0  0
    8.1960  -15.1291   21.8816 C   0  0  2  0  0  0  0  0  0  0  0  0
    8.0157  -15.0108   23.3076 N   0  0  0  0  0  0  0  0  0  0  0  0
    9.5794  -15.5046   21.5178 C   0  0  0  0  0  0  0  0  0  0  0  0
   10.5668  -14.8020   21.8580 O   0  0  0  0  0  0  0  0  0  0  0  0
    8.8571  -15.5247   16.2489 C   0  0  0  0  0  0  0  0  0  0  0  0
   11.7422  -18.6028   22.2223 C   0  0  2  0  0  0  0  0  0  0  0  0
   11.4737  -18.4872   20.7363 O   0  0  0  0  0  0  0  0  0  0  0  0
   10.2940  -19.2291   20.5007 C   0  0  2  0  0  0  0  0  0  0  0  0
   11.1431  -17.0570   20.3800 N   0  0  0  0  0  0  0  0  0  0  0  0
    9.8275  -16.6702   20.7739 C   0  0  0  0  0  0  0  0  0  0  0  0
   11.2805  -16.9186   18.9209 O   0  0  0  0  0  0  0  0  0  0  0  0
   10.2738  -16.7071   18.2167 O   0  0  0  0  0  0  0  0  0  0  0  0
  2 12  2  0
  2  1  1  0
  3  2  1  0
  4  5  1  0
  4  3  2  0
  5 11  2  0
  6  5  1  0
  7  6  1  0
  7  8  1  1
  9 21  1  0
  9  7  1  0
 10  9  2  0
 11 12  1  0
 13 14  1  0
 14 15  2  0
 16 14  1  0
 16 17  1  0
 18 17  1  0
 19 18  1  0
 20 19  1  6
 20 21  1  0
 22 20  1  0
 22 28  1  0
 23 22  2  0
 25 24  1  6
 25 27  1  0
 26 25  1  0
 27 28  1  6
 27 29  1  0
 29 30  2  0
 29 31  1  0
M  END
$$$$
