FWQ.pdb
     RDKit          3D

 35 37  0  0  1  0  0  0  0  0999 V2000
   24.3770  -20.6803   -8.8779 N   0  0  0  0  0  0  0  0  0  0  0  0
   25.6329  -20.1965   -9.4295 C   0  0  1  0  0  0  0  0  0  0  0  0
   26.7076  -21.1576   -9.0095 C   0  0  0  0  0  0  0  0  0  0  0  0
   27.2499  -20.6493   -7.7209 C   0  0  0  0  0  0  0  0  0  0  0  0
   28.3883  -19.8479   -7.7460 C   0  0  0  0  0  0  0  0  0  0  0  0
   28.9640  -19.3243   -6.6117 C   0  0  0  0  0  0  0  0  0  0  0  0
   28.4114  -19.5871   -5.3828 C   0  0  0  0  0  0  0  0  0  0  0  0
   27.2754  -20.3856   -5.3494 C   0  0  0  0  0  0  0  0  0  0  0  0
   26.7120  -20.9014   -6.4870 C   0  0  0  0  0  0  0  0  0  0  0  0
   25.4867  -20.0215  -10.8820 C   0  0  0  0  0  0  0  0  0  0  0  0
   24.5508  -20.5921  -11.4944 O   0  0  0  0  0  0  0  0  0  0  0  0
   26.3978  -19.1975  -11.6200 N   0  0  0  0  0  0  0  0  0  0  0  0
   26.2253  -18.8379  -13.0141 C   0  0  1  0  0  0  0  0  0  0  0  0
   27.1335  -17.7010  -13.3653 C   0  0  0  0  0  0  0  0  0  0  0  0
   26.9941  -17.2161  -14.7397 C   0  0  0  0  0  0  0  0  0  0  0  0
   26.2020  -16.2298  -15.2704 C   0  0  0  0  0  0  0  0  0  0  0  0
   26.4228  -16.1694  -16.5860 N   0  0  0  0  0  0  0  0  0  0  0  0
   27.3506  -17.1002  -16.9402 C   0  0  0  0  0  0  0  0  0  0  0  0
   27.9389  -17.4417  -18.1581 C   0  0  0  0  0  0  0  0  0  0  0  0
   28.8812  -18.4439  -18.1824 C   0  0  0  0  0  0  0  0  0  0  0  0
   29.2878  -19.1429  -17.0654 C   0  0  0  0  0  0  0  0  0  0  0  0
   28.6886  -18.7894  -15.8521 C   0  0  0  0  0  0  0  0  0  0  0  0
   27.7268  -17.7717  -15.8069 C   0  0  0  0  0  0  0  0  0  0  0  0
   26.3257  -20.0343  -13.8582 C   0  0  0  0  0  0  0  0  0  0  0  0
   27.2061  -20.9287  -13.6484 O   0  0  0  0  0  0  0  0  0  0  0  0
   24.6625  -24.9752  -13.3308 N   0  0  0  0  0  0  0  0  0  0  0  0
   23.6943  -24.4490  -14.1983 C   0  0  0  0  0  0  0  0  0  0  0  0
   22.5342  -24.9801  -14.2459 O   0  0  0  0  0  0  0  0  0  0  0  0
   23.9830  -23.2909  -15.0504 C   0  0  0  0  0  0  0  0  0  0  0  0
   25.3328  -22.6869  -14.9054 C   0  0  0  0  0  0  0  0  0  0  0  0
   25.5876  -21.5237  -15.7835 C   0  0  2  0  0  0  0  0  0  0  0  0
   25.4691  -20.2927  -14.9557 N   0  0  0  0  0  0  0  0  0  0  0  0
   24.6864  -21.3717  -16.9032 C   0  0  0  0  0  0  0  0  0  0  0  0
   23.7198  -20.5674  -17.0263 O   0  0  0  0  0  0  0  0  0  0  0  0
   24.8544  -22.2036  -18.0388 O   0  0  0  0  0  0  0  0  0  0  0  0
  2  1  1  6
  2  3  1  0
  4  3  1  0
  5  4  2  0
  6  5  1  0
  7  8  1  0
  7  6  2  0
  8  9  2  0
  9  4  1  0
 10  2  1  0
 11 10  2  0
 12 10  1  0
 13 24  1  0
 13 12  1  0
 13 14  1  6
 15 14  1  0
 16 15  2  0
 17 18  1  0
 17 16  1  0
 18 23  2  0
 19 20  2  0
 19 18  1  0
 20 21  1  0
 21 22  2  0
 23 22  1  0
 23 15  1  0
 24 32  1  0
 25 24  2  0
 26 27  1  0
 27 29  1  0
 28 27  2  0
 30 29  1  0
 31 30  1  1
 31 33  1  0
 32 31  1  0
 33 34  2  0
 33 35  1  0
M  END
$$$$
