FWQ.pdb
     RDKit          3D

 35 37  0  0  1  0  0  0  0  0999 V2000
   28.0904  -21.2356  -15.5116 N   0  0  0  0  0  0  0  0  0  0  0  0
   27.9512  -20.3893  -14.3369 C   0  0  1  0  0  0  0  0  0  0  0  0
   27.2704  -19.1240  -14.7731 C   0  0  0  0  0  0  0  0  0  0  0  0
   28.2119  -18.4326  -15.6943 C   0  0  0  0  0  0  0  0  0  0  0  0
   27.8937  -18.3681  -17.0484 C   0  0  0  0  0  0  0  0  0  0  0  0
   28.6937  -17.7476  -17.9796 C   0  0  0  0  0  0  0  0  0  0  0  0
   29.8671  -17.1548  -17.5842 C   0  0  0  0  0  0  0  0  0  0  0  0
   30.1914  -17.2147  -16.2349 C   0  0  0  0  0  0  0  0  0  0  0  0
   29.3857  -17.8363  -15.3174 C   0  0  0  0  0  0  0  0  0  0  0  0
   27.2549  -21.1393  -13.2812 C   0  0  0  0  0  0  0  0  0  0  0  0
   26.3101  -21.9119  -13.5758 O   0  0  0  0  0  0  0  0  0  0  0  0
   27.6422  -21.0094  -11.9076 N   0  0  0  0  0  0  0  0  0  0  0  0
   26.8320  -21.4471  -10.7875 C   0  0  1  0  0  0  0  0  0  0  0  0
   27.6710  -21.5291   -9.5505 C   0  0  0  0  0  0  0  0  0  0  0  0
   27.2677  -20.6122   -8.4827 C   0  0  0  0  0  0  0  0  0  0  0  0
   26.3855  -19.5617   -8.4836 C   0  0  0  0  0  0  0  0  0  0  0  0
   26.3683  -19.0202   -7.2631 N   0  0  0  0  0  0  0  0  0  0  0  0
   27.2253  -19.6943   -6.4484 C   0  0  0  0  0  0  0  0  0  0  0  0
   27.5693  -19.5534   -5.1038 C   0  0  0  0  0  0  0  0  0  0  0  0
   28.4802  -20.4271   -4.5563 C   0  0  0  0  0  0  0  0  0  0  0  0
   29.0840  -21.4477   -5.2600 C   0  0  0  0  0  0  0  0  0  0  0  0
   28.7294  -21.5759   -6.6069 C   0  0  0  0  0  0  0  0  0  0  0  0
   27.8040  -20.6957   -7.1828 C   0  0  0  0  0  0  0  0  0  0  0  0
   25.6171  -20.6288  -10.6954 C   0  0  0  0  0  0  0  0  0  0  0  0
   25.6710  -19.3661  -10.5472 O   0  0  0  0  0  0  0  0  0  0  0  0
   23.6443  -20.6944  -15.0095 N   0  0  0  0  0  0  0  0  0  0  0  0
   22.8460  -21.6397  -14.3489 C   0  0  0  0  0  0  0  0  0  0  0  0
   22.5646  -22.7425  -14.9273 O   0  0  0  0  0  0  0  0  0  0  0  0
   22.3317  -21.3922  -12.9981 C   0  0  0  0  0  0  0  0  0  0  0  0
   22.8010  -20.1496  -12.3321 C   0  0  0  0  0  0  0  0  0  0  0  0
   23.1030  -20.2962  -10.8912 C   0  0  2  0  0  0  0  0  0  0  0  0
   24.3069  -21.1615  -10.7632 N   0  0  0  0  0  0  0  0  0  0  0  0
   22.0613  -20.8953  -10.0881 C   0  0  0  0  0  0  0  0  0  0  0  0
   22.1130  -21.9562   -9.4040 O   0  0  0  0  0  0  0  0  0  0  0  0
   20.7954  -20.2608  -10.0196 O   0  0  0  0  0  0  0  0  0  0  0  0
  2  1  1  6
  2  3  1  0
  4  3  1  0
  5  4  2  0
  6  5  1  0
  7  8  1  0
  7  6  2  0
  8  9  2  0
  9  4  1  0
 10  2  1  0
 11 10  2  0
 12 10  1  0
 13 24  1  0
 13 12  1  0
 13 14  1  1
 15 14  1  0
 16 15  2  0
 17 18  1  0
 17 16  1  0
 18 23  2  0
 19 20  2  0
 19 18  1  0
 20 21  1  0
 21 22  2  0
 23 22  1  0
 23 15  1  0
 24 32  1  0
 25 24  2  0
 26 27  1  0
 27 29  1  0
 28 27  2  0
 30 29  1  0
 31 30  1  6
 31 33  1  0
 32 31  1  0
 33 34  2  0
 33 35  1  0
M  END
$$$$
