FWQ.pdb
     RDKit          3D

 35 37  0  0  1  0  0  0  0  0999 V2000
   25.6182  -21.5845  -19.4252 N   0  0  0  0  0  0  0  0  0  0  0  0
   24.5808  -20.7419  -19.9990 C   0  0  1  0  0  0  0  0  0  0  0  0
   23.8171  -21.5784  -20.9850 C   0  0  0  0  0  0  0  0  0  0  0  0
   24.7362  -21.8312  -22.1270 C   0  0  0  0  0  0  0  0  0  0  0  0
   25.1593  -23.1360  -22.3667 C   0  0  0  0  0  0  0  0  0  0  0  0
   26.0031  -23.4748  -23.3988 C   0  0  0  0  0  0  0  0  0  0  0  0
   26.4657  -22.5015  -24.2492 C   0  0  0  0  0  0  0  0  0  0  0  0
   26.0480  -21.1973  -24.0169 C   0  0  0  0  0  0  0  0  0  0  0  0
   25.2073  -20.8730  -22.9847 C   0  0  0  0  0  0  0  0  0  0  0  0
   23.7731  -20.1645  -18.9146 C   0  0  0  0  0  0  0  0  0  0  0  0
   23.5920  -20.8086  -17.8522 O   0  0  0  0  0  0  0  0  0  0  0  0
   23.1872  -18.8631  -19.0451 N   0  0  0  0  0  0  0  0  0  0  0  0
   22.2330  -18.3013  -18.1090 C   0  0  1  0  0  0  0  0  0  0  0  0
   22.1349  -16.8206  -18.3055 C   0  0  0  0  0  0  0  0  0  0  0  0
   21.2900  -16.1339  -17.3267 C   0  0  0  0  0  0  0  0  0  0  0  0
   21.2156  -16.2514  -15.9618 C   0  0  0  0  0  0  0  0  0  0  0  0
   20.2746  -15.4164  -15.5141 N   0  0  0  0  0  0  0  0  0  0  0  0
   19.7209  -14.7436  -16.5598 C   0  0  0  0  0  0  0  0  0  0  0  0
   18.7289  -13.7665  -16.6445 C   0  0  0  0  0  0  0  0  0  0  0  0
   18.3981  -13.2615  -17.8808 C   0  0  0  0  0  0  0  0  0  0  0  0
   18.9918  -13.6639  -19.0586 C   0  0  0  0  0  0  0  0  0  0  0  0
   19.9840  -14.6444  -18.9575 C   0  0  0  0  0  0  0  0  0  0  0  0
   20.3347  -15.1713  -17.7076 C   0  0  0  0  0  0  0  0  0  0  0  0
   20.9716  -19.0493  -18.1668 C   0  0  0  0  0  0  0  0  0  0  0  0
   20.5519  -19.5698  -19.2494 O   0  0  0  0  0  0  0  0  0  0  0  0
   18.3860  -22.7709  -19.1959 N   0  0  0  0  0  0  0  0  0  0  0  0
   17.4288  -22.8032  -18.1714 C   0  0  0  0  0  0  0  0  0  0  0  0
   16.3653  -23.4932  -18.3229 O   0  0  0  0  0  0  0  0  0  0  0  0
   17.6268  -22.0653  -16.9197 C   0  0  0  0  0  0  0  0  0  0  0  0
   18.8909  -21.2929  -16.8035 C   0  0  0  0  0  0  0  0  0  0  0  0
   18.7783  -19.8636  -17.1688 C   0  0  2  0  0  0  0  0  0  0  0  0
   20.1302  -19.2538  -17.0464 N   0  0  0  0  0  0  0  0  0  0  0  0
   17.8809  -19.0754  -16.3550 C   0  0  0  0  0  0  0  0  0  0  0  0
   18.1464  -18.4170  -15.3099 O   0  0  0  0  0  0  0  0  0  0  0  0
   16.5140  -18.9920  -16.7221 O   0  0  0  0  0  0  0  0  0  0  0  0
  2  1  1  1
  2  3  1  0
  4  3  1  0
  5  4  2  0
  6  5  1  0
  7  8  1  0
  7  6  2  0
  8  9  2  0
  9  4  1  0
 10  2  1  0
 11 10  2  0
 12 10  1  0
 13 24  1  0
 13 12  1  0
 13 14  1  6
 15 14  1  0
 16 15  2  0
 17 18  1  0
 17 16  1  0
 18 23  2  0
 19 20  2  0
 19 18  1  0
 20 21  1  0
 21 22  2  0
 23 22  1  0
 23 15  1  0
 24 32  1  0
 25 24  2  0
 26 27  1  0
 27 29  1  0
 28 27  2  0
 30 29  1  0
 31 30  1  1
 31 33  1  0
 32 31  1  0
 33 34  2  0
 33 35  1  0
M  END
$$$$
