FWQ.pdb
     RDKit          3D

 35 37  0  0  1  0  0  0  0  0999 V2000
   25.1438  -20.1578  -15.8723 N   0  0  0  0  0  0  0  0  0  0  0  0
   24.1115  -19.7155  -14.9481 C   0  0  1  0  0  0  0  0  0  0  0  0
   22.7884  -19.8864  -15.6376 C   0  0  0  0  0  0  0  0  0  0  0  0
   22.7544  -18.8896  -16.7414 C   0  0  0  0  0  0  0  0  0  0  0  0
   22.6260  -17.5412  -16.4188 C   0  0  0  0  0  0  0  0  0  0  0  0
   22.5903  -16.5424  -17.3640 C   0  0  0  0  0  0  0  0  0  0  0  0
   22.6841  -16.8604  -18.6962 C   0  0  0  0  0  0  0  0  0  0  0  0
   22.8128  -18.2035  -19.0261 C   0  0  0  0  0  0  0  0  0  0  0  0
   22.8467  -19.1889  -18.0746 C   0  0  0  0  0  0  0  0  0  0  0  0
   24.2524  -20.4472  -13.6807 C   0  0  0  0  0  0  0  0  0  0  0  0
   24.0841  -21.6911  -13.6490 O   0  0  0  0  0  0  0  0  0  0  0  0
   24.5887  -19.7618  -12.4679 N   0  0  0  0  0  0  0  0  0  0  0  0
   24.7416  -20.4109  -11.1803 C   0  0  1  0  0  0  0  0  0  0  0  0
   25.6743  -19.6204  -10.3165 C   0  0  0  0  0  0  0  0  0  0  0  0
   26.8424  -20.3663   -9.8448 C   0  0  0  0  0  0  0  0  0  0  0  0
   27.5637  -21.3749  -10.4317 C   0  0  0  0  0  0  0  0  0  0  0  0
   28.5386  -21.7418   -9.5961 N   0  0  0  0  0  0  0  0  0  0  0  0
   28.4784  -20.9926   -8.4613 C   0  0  0  0  0  0  0  0  0  0  0  0
   29.2525  -20.9589   -7.3012 C   0  0  0  0  0  0  0  0  0  0  0  0
   28.9351  -20.0509   -6.3175 C   0  0  0  0  0  0  0  0  0  0  0  0
   27.8869  -19.1592   -6.4047 C   0  0  0  0  0  0  0  0  0  0  0  0
   27.1199  -19.2056   -7.5733 C   0  0  0  0  0  0  0  0  0  0  0  0
   27.4269  -20.1234   -8.5863 C   0  0  0  0  0  0  0  0  0  0  0  0
   23.4236  -20.7108  -10.6086 C   0  0  0  0  0  0  0  0  0  0  0  0
   22.5428  -19.8066  -10.4482 O   0  0  0  0  0  0  0  0  0  0  0  0
   18.8494  -23.3661  -11.8416 N   0  0  0  0  0  0  0  0  0  0  0  0
   18.7234  -23.8595  -10.5348 C   0  0  0  0  0  0  0  0  0  0  0  0
   17.5701  -24.1765  -10.0885 O   0  0  0  0  0  0  0  0  0  0  0  0
   19.8940  -24.0287   -9.6678 C   0  0  0  0  0  0  0  0  0  0  0  0
   21.1914  -23.5513  -10.2124 C   0  0  0  0  0  0  0  0  0  0  0  0
   21.6753  -22.2792   -9.6322 C   0  0  2  0  0  0  0  0  0  0  0  0
   23.0252  -22.0053  -10.1954 N   0  0  0  0  0  0  0  0  0  0  0  0
   21.8017  -22.2525   -8.1926 C   0  0  0  0  0  0  0  0  0  0  0  0
   22.8570  -22.1923   -7.5006 O   0  0  0  0  0  0  0  0  0  0  0  0
   20.6282  -22.2996   -7.3985 O   0  0  0  0  0  0  0  0  0  0  0  0
  2  1  1  6
  2  3  1  0
  4  3  1  0
  5  4  2  0
  6  5  1  0
  7  8  1  0
  7  6  2  0
  8  9  2  0
  9  4  1  0
 10  2  1  0
 11 10  2  0
 12 10  1  0
 13 24  1  0
 13 12  1  0
 13 14  1  1
 15 14  1  0
 16 15  2  0
 17 18  1  0
 17 16  1  0
 18 23  2  0
 19 20  2  0
 19 18  1  0
 20 21  1  0
 21 22  2  0
 23 22  1  0
 23 15  1  0
 24 32  1  0
 25 24  2  0
 26 27  1  0
 27 29  1  0
 28 27  2  0
 30 29  1  0
 31 30  1  1
 31 33  1  0
 32 31  1  0
 33 34  2  0
 33 35  1  0
M  END
$$$$
