FWQ.pdb
     RDKit          3D

 35 37  0  0  1  0  0  0  0  0999 V2000
   24.8711  -20.1677   -7.7373 N   0  0  0  0  0  0  0  0  0  0  0  0
   26.1376  -20.1361   -8.4518 C   0  0  1  0  0  0  0  0  0  0  0  0
   27.0170  -21.1964   -7.8540 C   0  0  0  0  0  0  0  0  0  0  0  0
   27.6059  -20.6114   -6.6195 C   0  0  0  0  0  0  0  0  0  0  0  0
   28.6699  -19.7219   -6.7447 C   0  0  0  0  0  0  0  0  0  0  0  0
   29.2797  -19.1231   -5.6668 C   0  0  0  0  0  0  0  0  0  0  0  0
   28.8393  -19.3961   -4.3955 C   0  0  0  0  0  0  0  0  0  0  0  0
   27.7781  -20.2823   -4.2624 C   0  0  0  0  0  0  0  0  0  0  0  0
   27.1796  -20.8724   -5.3445 C   0  0  0  0  0  0  0  0  0  0  0  0
   25.8827  -20.2779   -9.8928 C   0  0  0  0  0  0  0  0  0  0  0  0
   24.8195  -20.8111  -10.2952 O   0  0  0  0  0  0  0  0  0  0  0  0
   26.8316  -19.8080  -10.8585 N   0  0  0  0  0  0  0  0  0  0  0  0
   26.4861  -19.3851  -12.2018 C   0  0  1  0  0  0  0  0  0  0  0  0
   27.6329  -18.6446  -12.8158 C   0  0  0  0  0  0  0  0  0  0  0  0
   27.4190  -18.2414  -14.2069 C   0  0  0  0  0  0  0  0  0  0  0  0
   26.7985  -17.1401  -14.7398 C   0  0  0  0  0  0  0  0  0  0  0  0
   26.8473  -17.2276  -16.0714 N   0  0  0  0  0  0  0  0  0  0  0  0
   27.4916  -18.3704  -16.4342 C   0  0  0  0  0  0  0  0  0  0  0  0
   27.8205  -18.9256  -17.6710 C   0  0  0  0  0  0  0  0  0  0  0  0
   28.5076  -20.1172  -17.7022 C   0  0  0  0  0  0  0  0  0  0  0  0
   28.8980  -20.8083  -16.5747 C   0  0  0  0  0  0  0  0  0  0  0  0
   28.5606  -20.2393  -15.3423 C   0  0  0  0  0  0  0  0  0  0  0  0
   27.8607  -19.0267  -15.2897 C   0  0  0  0  0  0  0  0  0  0  0  0
   25.9621  -20.5220  -12.9679 C   0  0  0  0  0  0  0  0  0  0  0  0
   26.4015  -21.7038  -12.7955 O   0  0  0  0  0  0  0  0  0  0  0  0
   24.1026  -25.4910  -13.7604 N   0  0  0  0  0  0  0  0  0  0  0  0
   22.8867  -24.8255  -13.9743 C   0  0  0  0  0  0  0  0  0  0  0  0
   21.8136  -25.5022  -14.1173 O   0  0  0  0  0  0  0  0  0  0  0  0
   22.8183  -23.3616  -14.0291 C   0  0  0  0  0  0  0  0  0  0  0  0
   24.0765  -22.6318  -13.7258 C   0  0  0  0  0  0  0  0  0  0  0  0
   24.4322  -21.5795  -14.7030 C   0  0  2  0  0  0  0  0  0  0  0  0
   24.9429  -20.4058  -13.9439 N   0  0  0  0  0  0  0  0  0  0  0  0
   23.3524  -21.1075  -15.5399 C   0  0  0  0  0  0  0  0  0  0  0  0
   23.0361  -21.4929  -16.7008 O   0  0  0  0  0  0  0  0  0  0  0  0
   22.5047  -20.0802  -15.0542 O   0  0  0  0  0  0  0  0  0  0  0  0
  2  1  1  1
  2  3  1  0
  4  3  1  0
  5  4  2  0
  6  5  1  0
  7  8  1  0
  7  6  2  0
  8  9  2  0
  9  4  1  0
 10  2  1  0
 11 10  2  0
 12 10  1  0
 13 24  1  0
 13 12  1  0
 13 14  1  6
 15 14  1  0
 16 15  2  0
 17 18  1  0
 17 16  1  0
 18 23  2  0
 19 20  2  0
 19 18  1  0
 20 21  1  0
 21 22  2  0
 23 22  1  0
 23 15  1  0
 24 32  1  0
 25 24  2  0
 26 27  1  0
 27 29  1  0
 28 27  2  0
 30 29  1  0
 31 30  1  1
 31 33  1  0
 32 31  1  0
 33 34  2  0
 33 35  1  0
M  END
$$$$
