FWQ.pdb
     RDKit          3D

 35 37  0  0  1  0  0  0  0  0999 V2000
   28.4208  -36.4752  -18.1451 N   0  0  0  0  0  0  0  0  0  0  0  0
   27.3858  -36.1616  -17.1725 C   0  0  1  0  0  0  0  0  0  0  0  0
   26.9249  -37.4591  -16.5732 C   0  0  0  0  0  0  0  0  0  0  0  0
   26.0810  -38.1244  -17.6019 C   0  0  0  0  0  0  0  0  0  0  0  0
   24.6964  -38.0186  -17.4993 C   0  0  0  0  0  0  0  0  0  0  0  0
   23.8300  -38.5916  -18.4010 C   0  0  0  0  0  0  0  0  0  0  0  0
   24.3253  -39.3072  -19.4627 C   0  0  0  0  0  0  0  0  0  0  0  0
   25.7056  -39.4171  -19.5722 C   0  0  0  0  0  0  0  0  0  0  0  0
   26.5578  -38.8416  -18.6667 C   0  0  0  0  0  0  0  0  0  0  0  0
   27.9093  -35.1817  -16.2094 C   0  0  0  0  0  0  0  0  0  0  0  0
   29.1325  -35.1678  -15.9265 O   0  0  0  0  0  0  0  0  0  0  0  0
   27.0420  -34.2269  -15.5850 N   0  0  0  0  0  0  0  0  0  0  0  0
   27.4735  -33.2587  -14.5956 C   0  0  1  0  0  0  0  0  0  0  0  0
   27.3109  -31.8710  -15.1329 C   0  0  0  0  0  0  0  0  0  0  0  0
   27.5420  -31.7478  -16.5733 C   0  0  0  0  0  0  0  0  0  0  0  0
   26.7578  -32.0954  -17.6439 C   0  0  0  0  0  0  0  0  0  0  0  0
   27.4147  -31.7953  -18.7671 N   0  0  0  0  0  0  0  0  0  0  0  0
   28.6248  -31.2522  -18.4614 C   0  0  0  0  0  0  0  0  0  0  0  0
   29.6723  -30.7623  -19.2416 C   0  0  0  0  0  0  0  0  0  0  0  0
   30.7844  -30.2501  -18.6140 C   0  0  0  0  0  0  0  0  0  0  0  0
   30.9333  -30.1886  -17.2445 C   0  0  0  0  0  0  0  0  0  0  0  0
   29.8749  -30.6841  -16.4759 C   0  0  0  0  0  0  0  0  0  0  0  0
   28.7342  -31.2100  -17.0964 C   0  0  0  0  0  0  0  0  0  0  0  0
   26.8293  -33.5358  -13.3064 C   0  0  0  0  0  0  0  0  0  0  0  0
   25.6602  -34.0332  -13.2363 O   0  0  0  0  0  0  0  0  0  0  0  0
   25.8635  -30.6932   -8.7226 N   0  0  0  0  0  0  0  0  0  0  0  0
   24.9092  -31.7108   -8.5784 C   0  0  0  0  0  0  0  0  0  0  0  0
   24.2992  -31.8507   -7.4656 O   0  0  0  0  0  0  0  0  0  0  0  0
   24.5883  -32.6173   -9.6855 C   0  0  0  0  0  0  0  0  0  0  0  0
   25.4853  -32.5554  -10.8684 C   0  0  0  0  0  0  0  0  0  0  0  0
   26.6980  -33.3973  -10.7700 C   0  0  2  0  0  0  0  0  0  0  0  0
   27.4400  -33.2805  -12.0546 N   0  0  0  0  0  0  0  0  0  0  0  0
   26.4688  -34.8054  -10.5378 C   0  0  0  0  0  0  0  0  0  0  0  0
   25.8481  -35.3500   -9.5816 O   0  0  0  0  0  0  0  0  0  0  0  0
   26.9827  -35.7475  -11.4641 O   0  0  0  0  0  0  0  0  0  0  0  0
  2  1  1  6
  2  3  1  0
  4  3  1  0
  5  4  2  0
  6  5  1  0
  7  8  1  0
  7  6  2  0
  8  9  2  0
  9  4  1  0
 10  2  1  0
 11 10  2  0
 12 10  1  0
 13 24  1  0
 13 12  1  0
 13 14  1  6
 15 14  1  0
 16 15  2  0
 17 18  1  0
 17 16  1  0
 18 23  2  0
 19 20  2  0
 19 18  1  0
 20 21  1  0
 21 22  2  0
 23 22  1  0
 23 15  1  0
 24 32  1  0
 25 24  2  0
 26 27  1  0
 27 29  1  0
 28 27  2  0
 30 29  1  0
 31 30  1  6
 31 33  1  0
 32 31  1  0
 33 34  2  0
 33 35  1  0
M  END
$$$$
