FWQ.pdb
     RDKit          3D

 35 37  0  0  1  0  0  0  0  0999 V2000
   28.7515  -21.3448  -15.9945 N   0  0  0  0  0  0  0  0  0  0  0  0
   27.8618  -20.5651  -15.1483 C   0  0  1  0  0  0  0  0  0  0  0  0
   27.2082  -19.5297  -16.0177 C   0  0  0  0  0  0  0  0  0  0  0  0
   28.2871  -18.6054  -16.4590 C   0  0  0  0  0  0  0  0  0  0  0  0
   28.7239  -17.6205  -15.5769 C   0  0  0  0  0  0  0  0  0  0  0  0
   29.7181  -16.7216  -15.8865 C   0  0  0  0  0  0  0  0  0  0  0  0
   30.3269  -16.7746  -17.1158 C   0  0  0  0  0  0  0  0  0  0  0  0
   29.8969  -17.7546  -18.0013 C   0  0  0  0  0  0  0  0  0  0  0  0
   28.9050  -18.6438  -17.6805 C   0  0  0  0  0  0  0  0  0  0  0  0
   26.9348  -21.4729  -14.4567 C   0  0  0  0  0  0  0  0  0  0  0  0
   26.3860  -22.4115  -15.0847 O   0  0  0  0  0  0  0  0  0  0  0  0
   26.6471  -21.3098  -13.0623 N   0  0  0  0  0  0  0  0  0  0  0  0
   25.5938  -22.0162  -12.3593 C   0  0  1  0  0  0  0  0  0  0  0  0
   26.0365  -22.3404  -10.9666 C   0  0  0  0  0  0  0  0  0  0  0  0
   26.2336  -21.1727  -10.1059 C   0  0  0  0  0  0  0  0  0  0  0  0
   25.3849  -20.1486   -9.7696 C   0  0  0  0  0  0  0  0  0  0  0  0
   26.0333  -19.3079   -8.9597 N   0  0  0  0  0  0  0  0  0  0  0  0
   27.3013  -19.7564   -8.7504 C   0  0  0  0  0  0  0  0  0  0  0  0
   28.3681  -19.2743   -7.9919 C   0  0  0  0  0  0  0  0  0  0  0  0
   29.5456  -19.9857   -7.9746 C   0  0  0  0  0  0  0  0  0  0  0  0
   29.7429  -21.1611   -8.6681 C   0  0  0  0  0  0  0  0  0  0  0  0
   28.6644  -21.6314   -9.4244 C   0  0  0  0  0  0  0  0  0  0  0  0
   27.4573  -20.9210   -9.4550 C   0  0  0  0  0  0  0  0  0  0  0  0
   24.3274  -21.2850  -12.4848 C   0  0  0  0  0  0  0  0  0  0  0  0
   24.2684  -20.0214  -12.3475 O   0  0  0  0  0  0  0  0  0  0  0  0
   22.9254  -23.0588  -16.3212 N   0  0  0  0  0  0  0  0  0  0  0  0
   23.0065  -21.6638  -16.4419 C   0  0  0  0  0  0  0  0  0  0  0  0
   23.6984  -21.1511  -17.3844 O   0  0  0  0  0  0  0  0  0  0  0  0
   22.3036  -20.7760  -15.5100 C   0  0  0  0  0  0  0  0  0  0  0  0
   21.4704  -21.4370  -14.4725 C   0  0  0  0  0  0  0  0  0  0  0  0
   21.8590  -21.1293  -13.0785 C   0  0  2  0  0  0  0  0  0  0  0  0
   23.0874  -21.9086  -12.7648 N   0  0  0  0  0  0  0  0  0  0  0  0
   20.8795  -21.4536  -12.0663 C   0  0  0  0  0  0  0  0  0  0  0  0
   20.9829  -22.2749  -11.1119 O   0  0  0  0  0  0  0  0  0  0  0  0
   19.6205  -20.8025  -12.0944 O   0  0  0  0  0  0  0  0  0  0  0  0
  2  1  1  6
  2  3  1  0
  4  3  1  0
  5  4  2  0
  6  5  1  0
  7  8  1  0
  7  6  2  0
  8  9  2  0
  9  4  1  0
 10  2  1  0
 11 10  2  0
 12 10  1  0
 13 24  1  0
 13 12  1  0
 13 14  1  1
 15 14  1  0
 16 15  2  0
 17 18  1  0
 17 16  1  0
 18 23  2  0
 19 20  2  0
 19 18  1  0
 20 21  1  0
 21 22  2  0
 23 22  1  0
 23 15  1  0
 24 32  1  0
 25 24  2  0
 26 27  1  0
 27 29  1  0
 28 27  2  0
 30 29  1  0
 31 30  1  6
 31 33  1  0
 32 31  1  0
 33 34  2  0
 33 35  1  0
M  END
$$$$
