FWQ.pdb
     RDKit          3D

 35 37  0  0  1  0  0  0  0  0999 V2000
   26.4911  -19.3784  -10.1535 N   0  0  0  0  0  0  0  0  0  0  0  0
   25.8159  -20.6577  -10.3059 C   0  0  1  0  0  0  0  0  0  0  0  0
   25.7305  -21.2854   -8.9444 C   0  0  0  0  0  0  0  0  0  0  0  0
   27.0551  -21.0792   -8.2994 C   0  0  0  0  0  0  0  0  0  0  0  0
   28.1767  -21.6701   -8.8753 C   0  0  0  0  0  0  0  0  0  0  0  0
   29.4451  -21.5357   -8.3601 C   0  0  0  0  0  0  0  0  0  0  0  0
   29.6448  -20.7891   -7.2255 C   0  0  0  0  0  0  0  0  0  0  0  0
   28.5308  -20.1962   -6.6452 C   0  0  0  0  0  0  0  0  0  0  0  0
   27.2724  -20.3383   -7.1684 C   0  0  0  0  0  0  0  0  0  0  0  0
   24.5246  -20.4453  -10.9760 C   0  0  0  0  0  0  0  0  0  0  0  0
   23.6446  -19.7306  -10.4363 O   0  0  0  0  0  0  0  0  0  0  0  0
   24.2498  -21.0393  -12.2509 N   0  0  0  0  0  0  0  0  0  0  0  0
   23.0109  -20.8612  -12.9831 C   0  0  1  0  0  0  0  0  0  0  0  0
   23.3049  -20.5142  -14.4092 C   0  0  0  0  0  0  0  0  0  0  0  0
   22.1639  -19.9710  -15.1485 C   0  0  0  0  0  0  0  0  0  0  0  0
   21.4561  -18.8074  -14.9841 C   0  0  0  0  0  0  0  0  0  0  0  0
   20.4889  -18.7648  -15.9037 N   0  0  0  0  0  0  0  0  0  0  0  0
   20.5415  -19.8823  -16.6791 C   0  0  0  0  0  0  0  0  0  0  0  0
   19.7878  -20.3214  -17.7678 C   0  0  0  0  0  0  0  0  0  0  0  0
   20.1113  -21.5210  -18.3586 C   0  0  0  0  0  0  0  0  0  0  0  0
   21.1468  -22.3292  -17.9389 C   0  0  0  0  0  0  0  0  0  0  0  0
   21.8927  -21.8757  -16.8462 C   0  0  0  0  0  0  0  0  0  0  0  0
   21.5787  -20.6570  -16.2307 C   0  0  0  0  0  0  0  0  0  0  0  0
   22.1270  -22.0120  -12.7634 C   0  0  0  0  0  0  0  0  0  0  0  0
   22.5298  -23.2068  -12.9345 O   0  0  0  0  0  0  0  0  0  0  0  0
   18.5175  -23.3029   -8.0626 N   0  0  0  0  0  0  0  0  0  0  0  0
   18.1497  -24.2969   -8.9811 C   0  0  0  0  0  0  0  0  0  0  0  0
   17.3644  -25.2347   -8.6152 O   0  0  0  0  0  0  0  0  0  0  0  0
   18.6424  -24.2785  -10.3622 C   0  0  0  0  0  0  0  0  0  0  0  0
   19.5583  -23.1646  -10.7198 C   0  0  0  0  0  0  0  0  0  0  0  0
   19.9007  -23.0823  -12.1568 C   0  0  2  0  0  0  0  0  0  0  0  0
   20.7778  -21.8957  -12.3495 N   0  0  0  0  0  0  0  0  0  0  0  0
   18.7834  -22.9368  -13.0621 C   0  0  0  0  0  0  0  0  0  0  0  0
   17.9775  -21.9689  -13.1614 O   0  0  0  0  0  0  0  0  0  0  0  0
   18.5017  -23.9802  -13.9797 O   0  0  0  0  0  0  0  0  0  0  0  0
  2  1  1  1
  2  3  1  0
  4  3  1  0
  5  4  2  0
  6  5  1  0
  7  8  1  0
  7  6  2  0
  8  9  2  0
  9  4  1  0
 10  2  1  0
 11 10  2  0
 12 10  1  0
 13 24  1  0
 13 12  1  0
 13 14  1  6
 15 14  1  0
 16 15  2  0
 17 18  1  0
 17 16  1  0
 18 23  2  0
 19 20  2  0
 19 18  1  0
 20 21  1  0
 21 22  2  0
 23 22  1  0
 23 15  1  0
 24 32  1  0
 25 24  2  0
 26 27  1  0
 27 29  1  0
 28 27  2  0
 30 29  1  0
 31 30  1  1
 31 33  1  0
 32 31  1  0
 33 34  2  0
 33 35  1  0
M  END
$$$$
