FWQ.pdb
     RDKit          3D

 35 37  0  0  1  0  0  0  0  0999 V2000
   15.0783  -20.2817    1.2876 N   0  0  0  0  0  0  0  0  0  0  0  0
   14.6200  -19.1346    2.0555 C   0  0  1  0  0  0  0  0  0  0  0  0
   13.2319  -19.4431    2.5382 C   0  0  0  0  0  0  0  0  0  0  0  0
   12.3137  -19.1422    1.4071 C   0  0  0  0  0  0  0  0  0  0  0  0
   11.6212  -20.1937    0.8122 C   0  0  0  0  0  0  0  0  0  0  0  0
   10.7459  -20.0202   -0.2346 C   0  0  0  0  0  0  0  0  0  0  0  0
   10.5243  -18.7620   -0.7371 C   0  0  0  0  0  0  0  0  0  0  0  0
   11.2112  -17.7078   -0.1488 C   0  0  0  0  0  0  0  0  0  0  0  0
   12.0808  -17.8942    0.8935 C   0  0  0  0  0  0  0  0  0  0  0  0
   15.5968  -18.8409    3.1143 C   0  0  0  0  0  0  0  0  0  0  0  0
   16.2011  -19.7779    3.6917 O   0  0  0  0  0  0  0  0  0  0  0  0
   15.8811  -17.4903    3.5002 N   0  0  0  0  0  0  0  0  0  0  0  0
   16.8846  -17.1159    4.4776 C   0  0  1  0  0  0  0  0  0  0  0  0
   17.2889  -15.6890    4.2749 C   0  0  0  0  0  0  0  0  0  0  0  0
   18.2761  -15.1962    5.2371 C   0  0  0  0  0  0  0  0  0  0  0  0
   18.7934  -15.7706    6.3705 C   0  0  0  0  0  0  0  0  0  0  0  0
   19.6597  -14.9171    6.9220 N   0  0  0  0  0  0  0  0  0  0  0  0
   19.7283  -13.7826    6.1731 C   0  0  0  0  0  0  0  0  0  0  0  0
   20.4715  -12.6080    6.2911 C   0  0  0  0  0  0  0  0  0  0  0  0
   20.3226  -11.6292    5.3358 C   0  0  0  0  0  0  0  0  0  0  0  0
   19.4745  -11.7351    4.2536 C   0  0  0  0  0  0  0  0  0  0  0  0
   18.7359  -12.9182    4.1493 C   0  0  0  0  0  0  0  0  0  0  0  0
   18.8733  -13.9265    5.1123 C   0  0  0  0  0  0  0  0  0  0  0  0
   16.4328  -17.4779    5.8262 C   0  0  0  0  0  0  0  0  0  0  0  0
   15.2459  -17.2417    6.2197 O   0  0  0  0  0  0  0  0  0  0  0  0
   17.9381  -20.6340   12.1442 N   0  0  0  0  0  0  0  0  0  0  0  0
   18.0355  -20.7819   10.7530 C   0  0  0  0  0  0  0  0  0  0  0  0
   19.0462  -21.3789   10.2510 O   0  0  0  0  0  0  0  0  0  0  0  0
   16.9926  -20.2712    9.8573 C   0  0  0  0  0  0  0  0  0  0  0  0
   17.4542  -19.7117    8.5606 C   0  0  0  0  0  0  0  0  0  0  0  0
   16.7699  -18.4675    8.1450 C   0  0  2  0  0  0  0  0  0  0  0  0
   17.2601  -18.1092    6.7865 N   0  0  0  0  0  0  0  0  0  0  0  0
   16.9871  -17.3171    8.9927 C   0  0  0  0  0  0  0  0  0  0  0  0
   16.1874  -16.7896    9.8163 O   0  0  0  0  0  0  0  0  0  0  0  0
   18.2364  -16.6491    8.9382 O   0  0  0  0  0  0  0  0  0  0  0  0
  2  1  1  1
  2  3  1  0
  4  3  1  0
  5  4  2  0
  6  5  1  0
  7  8  1  0
  7  6  2  0
  8  9  2  0
  9  4  1  0
 10  2  1  0
 11 10  2  0
 12 10  1  0
 13 24  1  0
 13 12  1  0
 13 14  1  1
 15 14  1  0
 16 15  2  0
 17 18  1  0
 17 16  1  0
 18 23  2  0
 19 20  2  0
 19 18  1  0
 20 21  1  0
 21 22  2  0
 23 22  1  0
 23 15  1  0
 24 32  1  0
 25 24  2  0
 26 27  1  0
 27 29  1  0
 28 27  2  0
 30 29  1  0
 31 30  1  1
 31 33  1  0
 32 31  1  0
 33 34  2  0
 33 35  1  0
M  END
$$$$
