FWQ.pdb
     RDKit          3D

 35 37  0  0  1  0  0  0  0  0999 V2000
   25.8197  -17.7041  -19.0841 N   0  0  0  0  0  0  0  0  0  0  0  0
   25.1083  -17.4212  -17.8474 C   0  0  1  0  0  0  0  0  0  0  0  0
   23.6832  -17.1157  -18.2089 C   0  0  0  0  0  0  0  0  0  0  0  0
   23.6676  -15.7216  -18.7277 C   0  0  0  0  0  0  0  0  0  0  0  0
   24.1816  -14.7057  -17.9262 C   0  0  0  0  0  0  0  0  0  0  0  0
   24.2182  -13.3869  -18.3155 C   0  0  0  0  0  0  0  0  0  0  0  0
   23.7324  -13.0258  -19.5477 C   0  0  0  0  0  0  0  0  0  0  0  0
   23.2181  -14.0336  -20.3533 C   0  0  0  0  0  0  0  0  0  0  0  0
   23.1871  -15.3437  -19.9533 C   0  0  0  0  0  0  0  0  0  0  0  0
   25.2878  -18.5468  -16.9187 C   0  0  0  0  0  0  0  0  0  0  0  0
   25.0712  -19.7221  -17.3039 O   0  0  0  0  0  0  0  0  0  0  0  0
   25.7166  -18.3271  -15.5691 N   0  0  0  0  0  0  0  0  0  0  0  0
   25.7596  -19.3574  -14.5496 C   0  0  1  0  0  0  0  0  0  0  0  0
   26.8494  -19.0600  -13.5674 C   0  0  0  0  0  0  0  0  0  0  0  0
   27.0699  -20.1093  -12.5706 C   0  0  0  0  0  0  0  0  0  0  0  0
   27.7185  -21.3148  -12.6607 C   0  0  0  0  0  0  0  0  0  0  0  0
   27.6399  -21.9291  -11.4778 N   0  0  0  0  0  0  0  0  0  0  0  0
   26.9492  -21.1511  -10.6001 C   0  0  0  0  0  0  0  0  0  0  0  0
   26.6006  -21.3092   -9.2586 C   0  0  0  0  0  0  0  0  0  0  0  0
   25.8946  -20.3074   -8.6335 C   0  0  0  0  0  0  0  0  0  0  0  0
   25.5035  -19.1404   -9.2555 C   0  0  0  0  0  0  0  0  0  0  0  0
   25.8599  -18.9968  -10.6003 C   0  0  0  0  0  0  0  0  0  0  0  0
   26.5784  -20.0060  -11.2545 C   0  0  0  0  0  0  0  0  0  0  0  0
   24.4194  -19.5667  -13.9893 C   0  0  0  0  0  0  0  0  0  0  0  0
   23.6727  -18.5907  -13.6591 O   0  0  0  0  0  0  0  0  0  0  0  0
   23.1015  -22.2223  -16.2573 N   0  0  0  0  0  0  0  0  0  0  0  0
   21.7308  -21.9388  -16.1686 C   0  0  0  0  0  0  0  0  0  0  0  0
   21.0589  -21.7322  -17.2343 O   0  0  0  0  0  0  0  0  0  0  0  0
   21.0463  -21.8827  -14.8729 C   0  0  0  0  0  0  0  0  0  0  0  0
   21.8718  -22.1964  -13.6779 C   0  0  0  0  0  0  0  0  0  0  0  0
   22.5519  -21.0302  -13.0724 C   0  0  2  0  0  0  0  0  0  0  0  0
   23.8518  -20.8458  -13.7730 N   0  0  0  0  0  0  0  0  0  0  0  0
   22.8409  -21.1342  -11.6601 C   0  0  0  0  0  0  0  0  0  0  0  0
   23.8363  -21.6771  -11.1028 O   0  0  0  0  0  0  0  0  0  0  0  0
   21.9283  -20.5774  -10.7289 O   0  0  0  0  0  0  0  0  0  0  0  0
  2  1  1  6
  2  3  1  0
  4  3  1  0
  5  4  2  0
  6  5  1  0
  7  8  1  0
  7  6  2  0
  8  9  2  0
  9  4  1  0
 10  2  1  0
 11 10  2  0
 12 10  1  0
 13 24  1  0
 13 12  1  0
 13 14  1  1
 15 14  1  0
 16 15  2  0
 17 18  1  0
 17 16  1  0
 18 23  2  0
 19 20  2  0
 19 18  1  0
 20 21  1  0
 21 22  2  0
 23 22  1  0
 23 15  1  0
 24 32  1  0
 25 24  2  0
 26 27  1  0
 27 29  1  0
 28 27  2  0
 30 29  1  0
 31 30  1  6
 31 33  1  0
 32 31  1  0
 33 34  2  0
 33 35  1  0
M  END
$$$$
