FWQ.pdb
     RDKit          3D

 35 37  0  0  1  0  0  0  0  0999 V2000
   27.7802  -21.6858  -15.4552 N   0  0  0  0  0  0  0  0  0  0  0  0
   27.5812  -20.6575  -14.4460 C   0  0  1  0  0  0  0  0  0  0  0  0
   26.7642  -19.5647  -15.0733 C   0  0  0  0  0  0  0  0  0  0  0  0
   27.6459  -18.8936  -16.0659 C   0  0  0  0  0  0  0  0  0  0  0  0
   28.5927  -17.9811  -15.6077 C   0  0  0  0  0  0  0  0  0  0  0  0
   29.4578  -17.3127  -16.4426 C   0  0  0  0  0  0  0  0  0  0  0  0
   29.4087  -17.5362  -17.7962 C   0  0  0  0  0  0  0  0  0  0  0  0
   28.4671  -18.4454  -18.2610 C   0  0  0  0  0  0  0  0  0  0  0  0
   27.6107  -19.1044  -17.4186 C   0  0  0  0  0  0  0  0  0  0  0  0
   26.9895  -21.2668  -13.2459 C   0  0  0  0  0  0  0  0  0  0  0  0
   25.9897  -22.0193  -13.3489 O   0  0  0  0  0  0  0  0  0  0  0  0
   27.5420  -21.0214  -11.9465 N   0  0  0  0  0  0  0  0  0  0  0  0
   26.7776  -21.0621  -10.7149 C   0  0  1  0  0  0  0  0  0  0  0  0
   27.6931  -20.9158   -9.5397 C   0  0  0  0  0  0  0  0  0  0  0  0
   27.0118  -20.8459   -8.2457 C   0  0  0  0  0  0  0  0  0  0  0  0
   25.7391  -21.2021   -7.8779 C   0  0  0  0  0  0  0  0  0  0  0  0
   25.5812  -20.9338   -6.5794 N   0  0  0  0  0  0  0  0  0  0  0  0
   26.7298  -20.4048   -6.0757 C   0  0  0  0  0  0  0  0  0  0  0  0
   27.0999  -19.9727   -4.8020 C   0  0  0  0  0  0  0  0  0  0  0  0
   28.3740  -19.4911   -4.6084 C   0  0  0  0  0  0  0  0  0  0  0  0
   29.3228  -19.4065   -5.6055 C   0  0  0  0  0  0  0  0  0  0  0  0
   28.9366  -19.8430   -6.8770 C   0  0  0  0  0  0  0  0  0  0  0  0
   27.6434  -20.3363   -7.0943 C   0  0  0  0  0  0  0  0  0  0  0  0
   25.6570  -20.1171  -10.7871 C   0  0  0  0  0  0  0  0  0  0  0  0
   25.8089  -18.9319  -11.2245 O   0  0  0  0  0  0  0  0  0  0  0  0
   23.3771  -22.6096  -14.8068 N   0  0  0  0  0  0  0  0  0  0  0  0
   22.3501  -21.6637  -14.6745 C   0  0  0  0  0  0  0  0  0  0  0  0
   21.4012  -21.6390  -15.5282 O   0  0  0  0  0  0  0  0  0  0  0  0
   22.3370  -20.7027  -13.5668 C   0  0  0  0  0  0  0  0  0  0  0  0
   23.4351  -20.8277  -12.5736 C   0  0  0  0  0  0  0  0  0  0  0  0
   23.1599  -20.1958  -11.2644 C   0  0  2  0  0  0  0  0  0  0  0  0
   24.3369  -20.4354  -10.3859 N   0  0  0  0  0  0  0  0  0  0  0  0
   21.9969  -20.6874  -10.5609 C   0  0  0  0  0  0  0  0  0  0  0  0
   20.9378  -20.0640  -10.2682 O   0  0  0  0  0  0  0  0  0  0  0  0
   21.9817  -22.0327  -10.1138 O   0  0  0  0  0  0  0  0  0  0  0  0
  2  1  1  6
  2  3  1  0
  4  3  1  0
  5  4  2  0
  6  5  1  0
  7  8  1  0
  7  6  2  0
  8  9  2  0
  9  4  1  0
 10  2  1  0
 11 10  2  0
 12 10  1  0
 13 24  1  0
 13 12  1  0
 13 14  1  1
 15 14  1  0
 16 15  2  0
 17 18  1  0
 17 16  1  0
 18 23  2  0
 19 20  2  0
 19 18  1  0
 20 21  1  0
 21 22  2  0
 23 22  1  0
 23 15  1  0
 24 32  1  0
 25 24  2  0
 26 27  1  0
 27 29  1  0
 28 27  2  0
 30 29  1  0
 31 30  1  6
 31 33  1  0
 32 31  1  0
 33 34  2  0
 33 35  1  0
M  END
$$$$
