FWQ.pdb
     RDKit          3D

 35 37  0  0  1  0  0  0  0  0999 V2000
   24.8527  -16.6308  -15.6792 N   0  0  0  0  0  0  0  0  0  0  0  0
   24.3463  -17.6129  -16.6249 C   0  0  1  0  0  0  0  0  0  0  0  0
   25.0902  -17.4192  -17.9150 C   0  0  0  0  0  0  0  0  0  0  0  0
   26.5271  -17.6610  -17.6154 C   0  0  0  0  0  0  0  0  0  0  0  0
   27.0262  -18.9548  -17.7411 C   0  0  0  0  0  0  0  0  0  0  0  0
   28.3393  -19.2811  -17.4932 C   0  0  0  0  0  0  0  0  0  0  0  0
   29.2225  -18.3056  -17.1023 C   0  0  0  0  0  0  0  0  0  0  0  0
   28.7323  -17.0122  -16.9748 C   0  0  0  0  0  0  0  0  0  0  0  0
   27.4216  -16.7005  -17.2245 C   0  0  0  0  0  0  0  0  0  0  0  0
   24.4608  -18.9549  -16.0354 C   0  0  0  0  0  0  0  0  0  0  0  0
   25.3392  -19.1899  -15.1696 O   0  0  0  0  0  0  0  0  0  0  0  0
   23.5750  -20.0104  -16.4289 N   0  0  0  0  0  0  0  0  0  0  0  0
   23.6814  -21.3797  -15.9639 C   0  0  1  0  0  0  0  0  0  0  0  0
   22.3164  -21.9723  -15.8013 C   0  0  0  0  0  0  0  0  0  0  0  0
   21.6208  -21.5658  -14.5789 C   0  0  0  0  0  0  0  0  0  0  0  0
   21.6656  -20.3957  -13.8642 C   0  0  0  0  0  0  0  0  0  0  0  0
   20.8567  -20.5115  -12.8081 N   0  0  0  0  0  0  0  0  0  0  0  0
   20.2728  -21.7410  -12.8083 C   0  0  0  0  0  0  0  0  0  0  0  0
   19.3544  -22.3584  -11.9588 C   0  0  0  0  0  0  0  0  0  0  0  0
   18.9369  -23.6368  -12.2490 C   0  0  0  0  0  0  0  0  0  0  0  0
   19.3731  -24.3580  -13.3403 C   0  0  0  0  0  0  0  0  0  0  0  0
   20.2939  -23.7259  -14.1822 C   0  0  0  0  0  0  0  0  0  0  0  0
   20.7315  -22.4245  -13.9034 C   0  0  0  0  0  0  0  0  0  0  0  0
   24.6175  -22.1275  -16.8115 C   0  0  0  0  0  0  0  0  0  0  0  0
   24.4817  -22.1768  -18.0758 O   0  0  0  0  0  0  0  0  0  0  0  0
   30.6127  -22.8476  -16.2809 N   0  0  0  0  0  0  0  0  0  0  0  0
   30.3459  -24.0025  -17.0306 C   0  0  0  0  0  0  0  0  0  0  0  0
   31.3026  -24.6045  -17.6242 O   0  0  0  0  0  0  0  0  0  0  0  0
   28.9868  -24.5422  -17.1414 C   0  0  0  0  0  0  0  0  0  0  0  0
   27.9245  -23.8071  -16.4073 C   0  0  0  0  0  0  0  0  0  0  0  0
   26.7073  -23.5245  -17.1995 C   0  0  2  0  0  0  0  0  0  0  0  0
   25.7305  -22.8431  -16.3074 N   0  0  0  0  0  0  0  0  0  0  0  0
   26.0396  -24.6777  -17.7593 C   0  0  0  0  0  0  0  0  0  0  0  0
   25.2662  -25.4918  -17.1804 O   0  0  0  0  0  0  0  0  0  0  0  0
   26.2389  -24.9904  -19.1277 O   0  0  0  0  0  0  0  0  0  0  0  0
  2  1  1  1
  2  3  1  0
  4  3  1  0
  5  4  2  0
  6  5  1  0
  7  8  1  0
  7  6  2  0
  8  9  2  0
  9  4  1  0
 10  2  1  0
 11 10  2  0
 12 10  1  0
 13 24  1  0
 13 12  1  0
 13 14  1  6
 15 14  1  0
 16 15  2  0
 17 18  1  0
 17 16  1  0
 18 23  2  0
 19 20  2  0
 19 18  1  0
 20 21  1  0
 21 22  2  0
 23 22  1  0
 23 15  1  0
 24 32  1  0
 25 24  2  0
 26 27  1  0
 27 29  1  0
 28 27  2  0
 30 29  1  0
 31 30  1  1
 31 33  1  0
 32 31  1  0
 33 34  2  0
 33 35  1  0
M  END
$$$$
