FWQ.pdb
     RDKit          3D

 35 37  0  0  1  0  0  0  0  0999 V2000
   28.5241  -22.0391  -16.4754 N   0  0  0  0  0  0  0  0  0  0  0  0
   28.1536  -20.9124  -15.6336 C   0  0  1  0  0  0  0  0  0  0  0  0
   27.3640  -19.9581  -16.4827 C   0  0  0  0  0  0  0  0  0  0  0  0
   28.3539  -19.1584  -17.2531 C   0  0  0  0  0  0  0  0  0  0  0  0
   29.2501  -18.3536  -16.5545 C   0  0  0  0  0  0  0  0  0  0  0  0
   30.2061  -17.5813  -17.1724 C   0  0  0  0  0  0  0  0  0  0  0  0
   30.3052  -17.5847  -18.5416 C   0  0  0  0  0  0  0  0  0  0  0  0
   29.4149  -18.3852  -19.2458 C   0  0  0  0  0  0  0  0  0  0  0  0
   28.4668  -19.1496  -18.6179 C   0  0  0  0  0  0  0  0  0  0  0  0
   27.4534  -21.4106  -14.4407 C   0  0  0  0  0  0  0  0  0  0  0  0
   26.6075  -22.3325  -14.5456 O   0  0  0  0  0  0  0  0  0  0  0  0
   27.7253  -20.8630  -13.1445 N   0  0  0  0  0  0  0  0  0  0  0  0
   26.9741  -21.1893  -11.9479 C   0  0  1  0  0  0  0  0  0  0  0  0
   27.7242  -20.7375  -10.7339 C   0  0  0  0  0  0  0  0  0  0  0  0
   26.8799  -20.4407   -9.5753 C   0  0  0  0  0  0  0  0  0  0  0  0
   25.5242  -20.2576   -9.4725 C   0  0  0  0  0  0  0  0  0  0  0  0
   25.2264  -19.9943   -8.1977 N   0  0  0  0  0  0  0  0  0  0  0  0
   26.3631  -19.9998   -7.4489 C   0  0  0  0  0  0  0  0  0  0  0  0
   26.6082  -19.8023   -6.0899 C   0  0  0  0  0  0  0  0  0  0  0  0
   27.9013  -19.8915   -5.6286 C   0  0  0  0  0  0  0  0  0  0  0  0
   28.9865  -20.1673   -6.4336 C   0  0  0  0  0  0  0  0  0  0  0  0
   28.7247  -20.3623   -7.7936 C   0  0  0  0  0  0  0  0  0  0  0  0
   27.4147  -20.2752   -8.2826 C   0  0  0  0  0  0  0  0  0  0  0  0
   25.5931  -20.7087  -12.0745 C   0  0  0  0  0  0  0  0  0  0  0  0
   25.3304  -19.5052  -12.3935 O   0  0  0  0  0  0  0  0  0  0  0  0
   21.5087  -25.0183  -13.4434 N   0  0  0  0  0  0  0  0  0  0  0  0
   21.0249  -23.9196  -14.1684 C   0  0  0  0  0  0  0  0  0  0  0  0
   19.8982  -24.0027  -14.7631 O   0  0  0  0  0  0  0  0  0  0  0  0
   21.7839  -22.6677  -14.2522 C   0  0  0  0  0  0  0  0  0  0  0  0
   23.0435  -22.6074  -13.4662 C   0  0  0  0  0  0  0  0  0  0  0  0
   23.2099  -21.3796  -12.6576 C   0  0  2  0  0  0  0  0  0  0  0  0
   24.4566  -21.5254  -11.8584 N   0  0  0  0  0  0  0  0  0  0  0  0
   22.1411  -21.0884  -11.7292 C   0  0  0  0  0  0  0  0  0  0  0  0
   22.1095  -21.2932  -10.4829 O   0  0  0  0  0  0  0  0  0  0  0  0
   20.9478  -20.4991  -12.2175 O   0  0  0  0  0  0  0  0  0  0  0  0
  2  1  1  6
  2  3  1  0
  4  3  1  0
  5  4  2  0
  6  5  1  0
  7  8  1  0
  7  6  2  0
  8  9  2  0
  9  4  1  0
 10  2  1  0
 11 10  2  0
 12 10  1  0
 13 24  1  0
 13 12  1  0
 13 14  1  1
 15 14  1  0
 16 15  2  0
 17 18  1  0
 17 16  1  0
 18 23  2  0
 19 20  2  0
 19 18  1  0
 20 21  1  0
 21 22  2  0
 23 22  1  0
 23 15  1  0
 24 32  1  0
 25 24  2  0
 26 27  1  0
 27 29  1  0
 28 27  2  0
 30 29  1  0
 31 30  1  1
 31 33  1  0
 32 31  1  0
 33 34  2  0
 33 35  1  0
M  END
$$$$
