DQR.pdb
     RDKit          3D

 29 28  0  0  1  0  0  0  0  0999 V2000
    7.5616  -13.1169   17.3884 N   0  0  0  0  0  0  0  0  0  0  0  0
    7.9492  -14.4628   17.7690 C   0  0  1  0  0  0  0  0  0  0  0  0
    8.8699  -15.0724   16.7381 C   0  0  0  0  0  0  0  0  0  0  0  0
    8.1840  -15.1668   15.4487 C   0  0  0  0  0  0  0  0  0  0  0  0
    8.8316  -15.0307   14.3855 O   0  0  0  0  0  0  0  0  0  0  0  0
    8.6594  -14.4096   19.0859 C   0  0  0  0  0  0  0  0  0  0  0  0
    9.8188  -13.9652   19.1447 O   0  0  0  0  0  0  0  0  0  0  0  0
    6.8310  -15.4041   15.3834 O   0  0  0  0  0  0  0  0  0  0  0  0
    6.2484  -15.4287   24.8182 N   0  0  0  0  0  0  0  0  0  0  0  0
    7.6230  -15.2903   25.1573 C   0  0  0  0  0  0  0  0  0  0  0  0
    7.9933  -15.2832   26.3368 O   0  0  0  0  0  0  0  0  0  0  0  0
    8.5757  -15.1556   23.9943 C   0  0  0  0  0  0  0  0  0  0  0  0
    7.8186  -15.0555   22.6987 C   0  0  0  0  0  0  0  0  0  0  0  0
    8.7456  -14.9440   21.5534 C   0  0  2  0  0  0  0  0  0  0  0  0
    8.0527  -14.8512   20.2787 N   0  0  0  0  0  0  0  0  0  0  0  0
    9.7926  -15.9668   21.4289 C   0  0  0  0  0  0  0  0  0  0  0  0
    9.7055  -16.8999   20.6059 O   0  0  0  0  0  0  0  0  0  0  0  0
   16.7293  -15.3705   17.8066 N   0  0  0  0  0  0  0  0  0  0  0  0
   16.6220  -14.1176   18.5078 C   0  0  0  0  0  0  0  0  0  0  0  0
   17.6207  -13.3558   18.7594 N   0  0  0  0  0  0  0  0  0  0  0  0
   15.3372  -13.6977   18.9541 N   0  0  0  0  0  0  0  0  0  0  0  0
   14.1810  -14.5416   18.7938 C   0  0  0  0  0  0  0  0  0  0  0  0
   13.9246  -15.3821   20.0314 C   0  0  0  0  0  0  0  0  0  0  0  0
   12.5627  -15.2290   20.5939 C   0  0  0  0  0  0  0  0  0  0  0  0
   12.2971  -16.2337   21.6796 C   0  0  2  0  0  0  0  0  0  0  0  0
   10.9573  -15.9414   22.2437 N   0  0  0  0  0  0  0  0  0  0  0  0
   13.3148  -16.0678   22.7456 C   0  0  0  0  0  0  0  0  0  0  0  0
   13.0784  -15.6818   24.0389 O   0  0  0  0  0  0  0  0  0  0  0  0
   14.5339  -16.3096   22.4165 O   0  0  0  0  0  0  0  0  0  0  0  0
  2  3  1  0
  2  1  1  6
  4  3  1  0
  5  4  2  0
  6  2  1  0
  7  6  2  0
  8  4  1  0
  9 10  1  0
 10 12  1  0
 11 10  2  0
 12 13  1  0
 14 13  1  1
 14 15  1  0
 15  6  1  0
 16 14  1  0
 16 17  2  0
 18 19  1  0
 19 21  1  0
 20 19  2  0
 21 22  1  0
 22 23  1  0
 23 24  1  0
 25 24  1  6
 26 25  1  0
 26 16  1  0
 27 25  1  0
 28 27  1  0
 29 27  2  0
M  END
$$$$
