DQR.pdb
     RDKit          3D

 29 28  0  0  1  0  0  0  0  0999 V2000
   10.3511  -16.4943   20.5828 N   0  0  0  0  0  0  0  0  0  0  0  0
    9.3693  -16.7387   21.6235 C   0  0  1  0  0  0  0  0  0  0  0  0
    9.1706  -18.2202   21.8426 C   0  0  0  0  0  0  0  0  0  0  0  0
    8.4994  -18.8112   20.6841 C   0  0  0  0  0  0  0  0  0  0  0  0
    9.1771  -19.2531   19.7281 O   0  0  0  0  0  0  0  0  0  0  0  0
    9.8484  -16.1174   22.8986 C   0  0  0  0  0  0  0  0  0  0  0  0
   11.0611  -16.1243   23.1713 O   0  0  0  0  0  0  0  0  0  0  0  0
    7.1278  -18.8906   20.6261 O   0  0  0  0  0  0  0  0  0  0  0  0
    7.2048  -11.4538   25.9150 N   0  0  0  0  0  0  0  0  0  0  0  0
    6.4563  -12.6595   26.0117 C   0  0  0  0  0  0  0  0  0  0  0  0
    5.2704  -12.6499   26.3611 O   0  0  0  0  0  0  0  0  0  0  0  0
    7.2018  -13.9248   25.6633 C   0  0  0  0  0  0  0  0  0  0  0  0
    8.6307  -13.6169   25.3096 C   0  0  0  0  0  0  0  0  0  0  0  0
    9.3862  -14.8576   25.0389 C   0  0  2  0  0  0  0  0  0  0  0  0
    8.9618  -15.5163   23.8144 N   0  0  0  0  0  0  0  0  0  0  0  0
    9.4339  -15.8665   26.1055 C   0  0  0  0  0  0  0  0  0  0  0  0
    8.6003  -16.7918   26.1729 O   0  0  0  0  0  0  0  0  0  0  0  0
   15.4289  -20.7438   30.1124 N   0  0  0  0  0  0  0  0  0  0  0  0
   14.3550  -20.7126   31.0707 C   0  0  0  0  0  0  0  0  0  0  0  0
   14.3918  -21.3162   32.2001 N   0  0  0  0  0  0  0  0  0  0  0  0
   13.1804  -19.9752   30.7498 N   0  0  0  0  0  0  0  0  0  0  0  0
   13.2052  -18.9300   29.7589 C   0  0  0  0  0  0  0  0  0  0  0  0
   11.8123  -18.4029   29.4653 C   0  0  0  0  0  0  0  0  0  0  0  0
   11.7629  -17.4021   28.3743 C   0  0  0  0  0  0  0  0  0  0  0  0
   10.4018  -16.7752   28.2605 C   0  0  2  0  0  0  0  0  0  0  0  0
   10.4349  -15.8350   27.1144 N   0  0  0  0  0  0  0  0  0  0  0  0
   10.1202  -16.0125   29.5010 C   0  0  0  0  0  0  0  0  0  0  0  0
   10.0675  -14.6485   29.6194 O   0  0  0  0  0  0  0  0  0  0  0  0
    9.9079  -16.7047   30.5634 O   0  0  0  0  0  0  0  0  0  0  0  0
  2  3  1  0
  2  1  1  6
  4  3  1  0
  5  4  2  0
  6  2  1  0
  7  6  2  0
  8  4  1  0
  9 10  1  0
 10 12  1  0
 11 10  2  0
 12 13  1  0
 14 13  1  1
 14 15  1  0
 15  6  1  0
 16 14  1  0
 16 17  2  0
 18 19  1  0
 19 21  1  0
 20 19  2  0
 21 22  1  0
 22 23  1  0
 23 24  1  0
 25 24  1  1
 26 25  1  0
 26 16  1  0
 27 25  1  0
 28 27  1  0
 29 27  2  0
M  END
$$$$
