DQR.pdb
     RDKit          3D

 29 28  0  0  1  0  0  0  0  0999 V2000
    8.3795  -16.5786   16.2677 N   0  0  0  0  0  0  0  0  0  0  0  0
    9.1738  -15.3647   16.3161 C   0  0  1  0  0  0  0  0  0  0  0  0
    8.3921  -14.1854   15.7865 C   0  0  0  0  0  0  0  0  0  0  0  0
    8.1246  -14.3635   14.3587 C   0  0  0  0  0  0  0  0  0  0  0  0
    7.8427  -15.4996   13.9133 O   0  0  0  0  0  0  0  0  0  0  0  0
    9.5611  -15.0942   17.7368 C   0  0  0  0  0  0  0  0  0  0  0  0
   10.3749  -14.1903   17.9935 O   0  0  0  0  0  0  0  0  0  0  0  0
    8.1777  -13.2979   13.4911 O   0  0  0  0  0  0  0  0  0  0  0  0
    8.2733  -14.5366   23.1963 N   0  0  0  0  0  0  0  0  0  0  0  0
    7.1748  -14.4613   22.2956 C   0  0  0  0  0  0  0  0  0  0  0  0
    6.2588  -13.6495   22.4704 O   0  0  0  0  0  0  0  0  0  0  0  0
    7.2100  -15.4257   21.1351 C   0  0  0  0  0  0  0  0  0  0  0  0
    8.4805  -16.2304   21.1540 C   0  0  0  0  0  0  0  0  0  0  0  0
    9.4612  -15.6905   20.1895 C   0  0  2  0  0  0  0  0  0  0  0  0
    9.0291  -15.8376   18.8092 N   0  0  0  0  0  0  0  0  0  0  0  0
   10.8440  -16.1763   20.2878 C   0  0  0  0  0  0  0  0  0  0  0  0
   11.1699  -17.3153   19.8978 O   0  0  0  0  0  0  0  0  0  0  0  0
   16.1154  -15.0407   16.3552 N   0  0  0  0  0  0  0  0  0  0  0  0
   16.8725  -14.5458   17.4753 C   0  0  0  0  0  0  0  0  0  0  0  0
   18.1241  -14.7641   17.6399 N   0  0  0  0  0  0  0  0  0  0  0  0
   16.1976  -13.7735   18.4625 N   0  0  0  0  0  0  0  0  0  0  0  0
   14.7909  -13.4855   18.3487 C   0  0  0  0  0  0  0  0  0  0  0  0
   13.9421  -14.5901   18.9517 C   0  0  0  0  0  0  0  0  0  0  0  0
   14.1827  -14.8166   20.3958 C   0  0  0  0  0  0  0  0  0  0  0  0
   13.2682  -15.8730   20.9494 C   0  0  2  0  0  0  0  0  0  0  0  0
   11.8785  -15.3689   20.8344 N   0  0  0  0  0  0  0  0  0  0  0  0
   13.5881  -16.0806   22.3827 C   0  0  0  0  0  0  0  0  0  0  0  0
   12.7643  -15.8119   23.4441 O   0  0  0  0  0  0  0  0  0  0  0  0
   14.7527  -16.5570   22.6467 O   0  0  0  0  0  0  0  0  0  0  0  0
  2  3  1  0
  2  1  1  1
  4  3  1  0
  5  4  2  0
  6  2  1  0
  7  6  2  0
  8  4  1  0
  9 10  1  0
 10 12  1  0
 11 10  2  0
 12 13  1  0
 14 13  1  1
 14 15  1  0
 15  6  1  0
 16 14  1  0
 16 17  2  0
 18 19  1  0
 19 21  1  0
 20 19  2  0
 21 22  1  0
 22 23  1  0
 23 24  1  0
 25 24  1  1
 26 25  1  0
 26 16  1  0
 27 25  1  0
 28 27  1  0
 29 27  2  0
M  END
$$$$
