DQR.pdb
     RDKit          3D

 29 28  0  0  1  0  0  0  0  0999 V2000
    8.9634  -19.1997   18.6077 N   0  0  0  0  0  0  0  0  0  0  0  0
    9.9209  -18.2418   18.0859 C   0  0  1  0  0  0  0  0  0  0  0  0
    9.5042  -17.7501   16.7195 C   0  0  0  0  0  0  0  0  0  0  0  0
   10.4821  -18.1735   15.7164 C   0  0  0  0  0  0  0  0  0  0  0  0
   11.6775  -18.3506   16.0455 O   0  0  0  0  0  0  0  0  0  0  0  0
    9.9990  -17.0749   19.0207 C   0  0  0  0  0  0  0  0  0  0  0  0
   10.9223  -16.2510   18.9040 O   0  0  0  0  0  0  0  0  0  0  0  0
   10.1092  -18.3818   14.4092 O   0  0  0  0  0  0  0  0  0  0  0  0
    6.8499  -12.4878   19.7930 N   0  0  0  0  0  0  0  0  0  0  0  0
    7.5533  -12.2940   21.0142 C   0  0  0  0  0  0  0  0  0  0  0  0
    7.4962  -11.2187   21.6216 O   0  0  0  0  0  0  0  0  0  0  0  0
    8.3576  -13.4741   21.5030 C   0  0  0  0  0  0  0  0  0  0  0  0
    8.2375  -14.6289   20.5471 C   0  0  0  0  0  0  0  0  0  0  0  0
    9.0883  -15.7586   20.9751 C   0  0  2  0  0  0  0  0  0  0  0  0
    9.0500  -16.8736   20.0429 N   0  0  0  0  0  0  0  0  0  0  0  0
    8.8769  -16.2894   22.3284 C   0  0  0  0  0  0  0  0  0  0  0  0
    7.8524  -16.9338   22.6293 O   0  0  0  0  0  0  0  0  0  0  0  0
   11.8361  -24.0143   23.0104 N   0  0  0  0  0  0  0  0  0  0  0  0
   11.8463  -22.7242   23.6493 C   0  0  0  0  0  0  0  0  0  0  0  0
   12.1308  -22.5451   24.8855 N   0  0  0  0  0  0  0  0  0  0  0  0
   11.5178  -21.5787   22.8706 N   0  0  0  0  0  0  0  0  0  0  0  0
   12.2700  -20.3562   22.9909 C   0  0  0  0  0  0  0  0  0  0  0  0
   11.5784  -19.3601   23.9038 C   0  0  0  0  0  0  0  0  0  0  0  0
   10.9984  -18.1946   23.1968 C   0  0  0  0  0  0  0  0  0  0  0  0
   10.3552  -17.2313   24.1544 C   0  0  2  0  0  0  0  0  0  0  0  0
    9.8328  -16.0921   23.3620 N   0  0  0  0  0  0  0  0  0  0  0  0
   11.3863  -16.7305   25.0955 C   0  0  0  0  0  0  0  0  0  0  0  0
   11.6714  -17.2436   26.3336 O   0  0  0  0  0  0  0  0  0  0  0  0
   12.0734  -15.7162   24.7057 O   0  0  0  0  0  0  0  0  0  0  0  0
  2  3  1  0
  2  1  1  1
  4  3  1  0
  5  4  2  0
  6  2  1  0
  7  6  2  0
  8  4  1  0
  9 10  1  0
 10 12  1  0
 11 10  2  0
 12 13  1  0
 14 13  1  6
 14 15  1  0
 15  6  1  0
 16 14  1  0
 16 17  2  0
 18 19  1  0
 19 21  1  0
 20 19  2  0
 21 22  1  0
 22 23  1  0
 23 24  1  0
 25 24  1  6
 26 25  1  0
 26 16  1  0
 27 25  1  0
 28 27  1  0
 29 27  2  0
M  END
$$$$
