DQR.pdb
     RDKit          3D

 29 28  0  0  1  0  0  0  0  0999 V2000
   10.5384  -15.8537   14.9243 N   0  0  0  0  0  0  0  0  0  0  0  0
   10.6650  -14.9793   16.0759 C   0  0  1  0  0  0  0  0  0  0  0  0
    9.3666  -14.9064   16.8449 C   0  0  0  0  0  0  0  0  0  0  0  0
    8.3459  -14.2343   16.0398 C   0  0  0  0  0  0  0  0  0  0  0  0
    7.6497  -14.8954   15.2355 O   0  0  0  0  0  0  0  0  0  0  0  0
   11.7352  -15.5138   16.9762 C   0  0  0  0  0  0  0  0  0  0  0  0
   11.9018  -16.7415   17.0760 O   0  0  0  0  0  0  0  0  0  0  0  0
    8.1359  -12.8798   16.1514 O   0  0  0  0  0  0  0  0  0  0  0  0
   17.0284  -12.3753   18.8604 N   0  0  0  0  0  0  0  0  0  0  0  0
   17.3039  -13.7634   18.7168 C   0  0  0  0  0  0  0  0  0  0  0  0
   18.4367  -14.1639   18.4255 O   0  0  0  0  0  0  0  0  0  0  0  0
   16.1351  -14.6915   18.9420 C   0  0  0  0  0  0  0  0  0  0  0  0
   14.9249  -14.2107   18.1896 C   0  0  0  0  0  0  0  0  0  0  0  0
   13.7736  -15.1098   18.4125 C   0  0  2  0  0  0  0  0  0  0  0  0
   12.5728  -14.6634   17.7253 N   0  0  0  0  0  0  0  0  0  0  0  0
   13.4147  -15.4165   19.8035 C   0  0  0  0  0  0  0  0  0  0  0  0
   13.2018  -14.5173   20.6411 O   0  0  0  0  0  0  0  0  0  0  0  0
   12.1521  -22.4130   26.3979 N   0  0  0  0  0  0  0  0  0  0  0  0
   12.5842  -21.2780   25.6248 C   0  0  0  0  0  0  0  0  0  0  0  0
   13.7475  -20.7510   25.7244 N   0  0  0  0  0  0  0  0  0  0  0  0
   11.6703  -20.7002   24.6988 N   0  0  0  0  0  0  0  0  0  0  0  0
   12.0719  -20.3929   23.3501 C   0  0  0  0  0  0  0  0  0  0  0  0
   12.3680  -18.9143   23.1766 C   0  0  0  0  0  0  0  0  0  0  0  0
   12.7506  -18.5328   21.7972 C   0  0  0  0  0  0  0  0  0  0  0  0
   13.0360  -17.0611   21.6899 C   0  0  2  0  0  0  0  0  0  0  0  0
   13.2934  -16.7568   20.2617 N   0  0  0  0  0  0  0  0  0  0  0  0
   14.2551  -16.7508   22.4755 C   0  0  0  0  0  0  0  0  0  0  0  0
   15.5480  -17.0039   22.0993 O   0  0  0  0  0  0  0  0  0  0  0  0
   14.0729  -16.1923   23.6192 O   0  0  0  0  0  0  0  0  0  0  0  0
  2  3  1  0
  2  1  1  6
  4  3  1  0
  5  4  2  0
  6  2  1  0
  7  6  2  0
  8  4  1  0
  9 10  1  0
 10 12  1  0
 11 10  2  0
 12 13  1  0
 14 13  1  1
 14 15  1  0
 15  6  1  0
 16 14  1  0
 16 17  2  0
 18 19  1  0
 19 21  1  0
 20 19  2  0
 21 22  1  0
 22 23  1  0
 23 24  1  0
 25 24  1  6
 26 25  1  0
 26 16  1  0
 27 25  1  0
 28 27  1  0
 29 27  2  0
M  END
$$$$
