DQR.pdb
     RDKit          3D

 29 28  0  0  1  0  0  0  0  0999 V2000
   11.6925  -19.6518   18.4787 N   0  0  0  0  0  0  0  0  0  0  0  0
   12.2285  -18.5687   19.2825 C   0  0  1  0  0  0  0  0  0  0  0  0
   12.2076  -17.2659   18.5179 C   0  0  0  0  0  0  0  0  0  0  0  0
   13.3142  -17.2303   17.5608 C   0  0  0  0  0  0  0  0  0  0  0  0
   14.2172  -18.0963   17.6177 O   0  0  0  0  0  0  0  0  0  0  0  0
   11.3951  -18.4222   20.5176 C   0  0  0  0  0  0  0  0  0  0  0  0
   10.1732  -18.2175   20.4173 O   0  0  0  0  0  0  0  0  0  0  0  0
   13.3807  -16.2558   16.5928 O   0  0  0  0  0  0  0  0  0  0  0  0
   12.8440  -20.7742   26.0798 N   0  0  0  0  0  0  0  0  0  0  0  0
   11.5929  -20.1870   26.4165 C   0  0  0  0  0  0  0  0  0  0  0  0
   11.0840  -20.3600   27.5299 O   0  0  0  0  0  0  0  0  0  0  0  0
   10.9464  -19.3545   25.3361 C   0  0  0  0  0  0  0  0  0  0  0  0
   11.7844  -19.3646   24.0873 C   0  0  0  0  0  0  0  0  0  0  0  0
   11.1668  -18.5365   23.0309 C   0  0  2  0  0  0  0  0  0  0  0  0
   11.9535  -18.5092   21.8086 N   0  0  0  0  0  0  0  0  0  0  0  0
   10.8139  -17.1529   23.3760 C   0  0  0  0  0  0  0  0  0  0  0  0
   11.6845  -16.2923   23.6143 O   0  0  0  0  0  0  0  0  0  0  0  0
    8.0429  -11.7697   20.2470 N   0  0  0  0  0  0  0  0  0  0  0  0
    7.9747  -12.8158   19.2602 C   0  0  0  0  0  0  0  0  0  0  0  0
    8.4880  -12.7243   18.0901 N   0  0  0  0  0  0  0  0  0  0  0  0
    7.2955  -14.0213   19.5952 N   0  0  0  0  0  0  0  0  0  0  0  0
    6.9448  -14.3237   20.9591 C   0  0  0  0  0  0  0  0  0  0  0  0
    8.1743  -14.5948   21.8070 C   0  0  0  0  0  0  0  0  0  0  0  0
    7.8728  -14.9309   23.2179 C   0  0  0  0  0  0  0  0  0  0  0  0
    9.1039  -15.3787   23.9545 C   0  0  2  0  0  0  0  0  0  0  0  0
    9.4592  -16.7291   23.4555 N   0  0  0  0  0  0  0  0  0  0  0  0
    8.7909  -15.4673   25.4016 C   0  0  0  0  0  0  0  0  0  0  0  0
    8.7639  -16.6103   26.1566 O   0  0  0  0  0  0  0  0  0  0  0  0
    8.5180  -14.3611   25.9974 O   0  0  0  0  0  0  0  0  0  0  0  0
  2  3  1  0
  2  1  1  6
  4  3  1  0
  5  4  2  0
  6  2  1  0
  7  6  2  0
  8  4  1  0
  9 10  1  0
 10 12  1  0
 11 10  2  0
 12 13  1  0
 14 13  1  1
 14 15  1  0
 15  6  1  0
 16 14  1  0
 16 17  2  0
 18 19  1  0
 19 21  1  0
 20 19  2  0
 21 22  1  0
 22 23  1  0
 23 24  1  0
 25 24  1  6
 26 25  1  0
 26 16  1  0
 27 25  1  0
 28 27  1  0
 29 27  2  0
M  END
$$$$
