DQR.pdb
     RDKit          3D

 29 28  0  0  1  0  0  0  0  0999 V2000
   12.2019  -16.4622   18.0831 N   0  0  0  0  0  0  0  0  0  0  0  0
   12.9427  -15.4894   18.8652 C   0  0  1  0  0  0  0  0  0  0  0  0
   13.5440  -14.4259   17.9766 C   0  0  0  0  0  0  0  0  0  0  0  0
   14.6677  -14.9820   17.2216 C   0  0  0  0  0  0  0  0  0  0  0  0
   14.6081  -16.1549   16.7865 O   0  0  0  0  0  0  0  0  0  0  0  0
   12.0111  -14.8398   19.8408 C   0  0  0  0  0  0  0  0  0  0  0  0
   12.4565  -14.0379   20.6797 O   0  0  0  0  0  0  0  0  0  0  0  0
   15.7961  -14.2341   16.9797 O   0  0  0  0  0  0  0  0  0  0  0  0
    6.4300  -12.5126   18.7283 N   0  0  0  0  0  0  0  0  0  0  0  0
    7.5496  -13.1583   18.1343 C   0  0  0  0  0  0  0  0  0  0  0  0
    7.4983  -13.5928   16.9780 O   0  0  0  0  0  0  0  0  0  0  0  0
    8.7793  -13.2711   19.0024 C   0  0  0  0  0  0  0  0  0  0  0  0
    8.4726  -14.0418   20.2569 C   0  0  0  0  0  0  0  0  0  0  0  0
    9.7061  -14.6019   20.8468 C   0  0  2  0  0  0  0  0  0  0  0  0
   10.6277  -15.1080   19.8427 N   0  0  0  0  0  0  0  0  0  0  0  0
    9.5529  -15.6310   21.8838 C   0  0  0  0  0  0  0  0  0  0  0  0
    8.4687  -16.2179   22.0725 O   0  0  0  0  0  0  0  0  0  0  0  0
   14.0634  -22.4293   22.9777 N   0  0  0  0  0  0  0  0  0  0  0  0
   14.1689  -21.6409   24.1777 C   0  0  0  0  0  0  0  0  0  0  0  0
   14.9888  -21.8982   25.1278 N   0  0  0  0  0  0  0  0  0  0  0  0
   13.3131  -20.5130   24.3261 N   0  0  0  0  0  0  0  0  0  0  0  0
   11.9140  -20.5913   23.9930 C   0  0  0  0  0  0  0  0  0  0  0  0
   11.1744  -19.3229   24.3777 C   0  0  0  0  0  0  0  0  0  0  0  0
   11.2714  -18.2388   23.3727 C   0  0  0  0  0  0  0  0  0  0  0  0
   10.4703  -17.0342   23.7801 C   0  0  2  0  0  0  0  0  0  0  0  0
   10.6363  -16.0066   22.7241 N   0  0  0  0  0  0  0  0  0  0  0  0
   11.0135  -16.5063   25.0552 C   0  0  0  0  0  0  0  0  0  0  0  0
   11.8126  -15.4028   25.2007 O   0  0  0  0  0  0  0  0  0  0  0  0
   10.7016  -17.1525   26.1221 O   0  0  0  0  0  0  0  0  0  0  0  0
  2  3  1  0
  2  1  1  6
  4  3  1  0
  5  4  2  0
  6  2  1  0
  7  6  2  0
  8  4  1  0
  9 10  1  0
 10 12  1  0
 11 10  2  0
 12 13  1  0
 14 13  1  6
 14 15  1  0
 15  6  1  0
 16 14  1  0
 16 17  2  0
 18 19  1  0
 19 21  1  0
 20 19  2  0
 21 22  1  0
 22 23  1  0
 23 24  1  0
 25 24  1  6
 26 25  1  0
 26 16  1  0
 27 25  1  0
 28 27  1  0
 29 27  2  0
M  END
$$$$
