DQR.pdb
     RDKit          3D

 29 28  0  0  1  0  0  0  0  0999 V2000
    8.5810  -19.4899   19.4843 N   0  0  0  0  0  0  0  0  0  0  0  0
    8.0519  -18.1392   19.4375 C   0  0  1  0  0  0  0  0  0  0  0  0
    6.8539  -18.0590   18.5207 C   0  0  0  0  0  0  0  0  0  0  0  0
    7.2616  -18.3261   17.1408 C   0  0  0  0  0  0  0  0  0  0  0  0
    7.9350  -19.3482   16.8754 O   0  0  0  0  0  0  0  0  0  0  0  0
    7.6378  -17.7318   20.8173 C   0  0  0  0  0  0  0  0  0  0  0  0
    7.1159  -16.6189   21.0020 O   0  0  0  0  0  0  0  0  0  0  0  0
    6.9160  -17.4686   16.1228 O   0  0  0  0  0  0  0  0  0  0  0  0
    7.5720  -21.7987   25.7159 N   0  0  0  0  0  0  0  0  0  0  0  0
    7.1670  -20.5564   26.2782 C   0  0  0  0  0  0  0  0  0  0  0  0
    6.5628  -20.5086   27.3557 O   0  0  0  0  0  0  0  0  0  0  0  0
    7.5224  -19.3267   25.4782 C   0  0  0  0  0  0  0  0  0  0  0  0
    7.0262  -19.4535   24.0642 C   0  0  0  0  0  0  0  0  0  0  0  0
    7.3707  -18.2529   23.2747 C   0  0  2  0  0  0  0  0  0  0  0  0
    7.8205  -18.5763   21.9306 N   0  0  0  0  0  0  0  0  0  0  0  0
    8.3322  -17.3104   23.8620 C   0  0  0  0  0  0  0  0  0  0  0  0
    9.5637  -17.4676   23.7426 O   0  0  0  0  0  0  0  0  0  0  0  0
    4.4805  -10.7451   26.5697 N   0  0  0  0  0  0  0  0  0  0  0  0
    5.7353  -10.6429   25.8713 C   0  0  0  0  0  0  0  0  0  0  0  0
    6.2741   -9.5300   25.5362 N   0  0  0  0  0  0  0  0  0  0  0  0
    6.4193  -11.8426   25.5259 N   0  0  0  0  0  0  0  0  0  0  0  0
    7.1139  -11.9682   24.2703 C   0  0  0  0  0  0  0  0  0  0  0  0
    7.7866  -13.3222   24.1350 C   0  0  0  0  0  0  0  0  0  0  0  0
    8.1910  -13.9273   25.4252 C   0  0  0  0  0  0  0  0  0  0  0  0
    8.8788  -15.2485   25.2245 C   0  0  2  0  0  0  0  0  0  0  0  0
    7.9029  -16.1718   24.5971 N   0  0  0  0  0  0  0  0  0  0  0  0
    9.2717  -15.7901   26.5481 C   0  0  0  0  0  0  0  0  0  0  0  0
    8.7459  -16.8982   27.1590 O   0  0  0  0  0  0  0  0  0  0  0  0
   10.1937  -15.1522   27.1775 O   0  0  0  0  0  0  0  0  0  0  0  0
  2  3  1  0
  2  1  1  1
  4  3  1  0
  5  4  2  0
  6  2  1  0
  7  6  2  0
  8  4  1  0
  9 10  1  0
 10 12  1  0
 11 10  2  0
 12 13  1  0
 14 13  1  1
 14 15  1  0
 15  6  1  0
 16 14  1  0
 16 17  2  0
 18 19  1  0
 19 21  1  0
 20 19  2  0
 21 22  1  0
 22 23  1  0
 23 24  1  0
 25 24  1  1
 26 25  1  0
 26 16  1  0
 27 25  1  0
 28 27  1  0
 29 27  2  0
M  END
$$$$
