DQR.pdb
     RDKit          3D

 29 28  0  0  1  0  0  0  0  0999 V2000
   12.4795  -22.0160   22.8153 N   0  0  0  0  0  0  0  0  0  0  0  0
   12.5101  -22.5520   24.1638 C   0  0  1  0  0  0  0  0  0  0  0  0
   13.9318  -22.7444   24.6373 C   0  0  0  0  0  0  0  0  0  0  0  0
   14.6739  -23.5580   23.6733 C   0  0  0  0  0  0  0  0  0  0  0  0
   14.1271  -23.9128   22.6039 O   0  0  0  0  0  0  0  0  0  0  0  0
   11.8158  -21.5952   25.0825 C   0  0  0  0  0  0  0  0  0  0  0  0
   12.1174  -20.3895   25.0610 O   0  0  0  0  0  0  0  0  0  0  0  0
   15.9704  -23.9427   23.9227 O   0  0  0  0  0  0  0  0  0  0  0  0
    6.9368  -19.4144   25.7914 N   0  0  0  0  0  0  0  0  0  0  0  0
    7.0653  -19.3312   27.2056 C   0  0  0  0  0  0  0  0  0  0  0  0
    6.4258  -18.4983   27.8582 O   0  0  0  0  0  0  0  0  0  0  0  0
    8.0204  -20.3148   27.8371 C   0  0  0  0  0  0  0  0  0  0  0  0
    8.6771  -21.1650   26.7846 C   0  0  0  0  0  0  0  0  0  0  0  0
   10.1479  -21.1329   26.9226 C   0  0  2  0  0  0  0  0  0  0  0  0
   10.8183  -22.0177   25.9839 N   0  0  0  0  0  0  0  0  0  0  0  0
   10.7072  -21.3787   28.2586 C   0  0  0  0  0  0  0  0  0  0  0  0
   10.1717  -22.1701   29.0600 O   0  0  0  0  0  0  0  0  0  0  0  0
   17.6931  -23.0771   32.0794 N   0  0  0  0  0  0  0  0  0  0  0  0
   17.0148  -22.4628   33.1909 C   0  0  0  0  0  0  0  0  0  0  0  0
   17.3423  -22.6496   34.4152 N   0  0  0  0  0  0  0  0  0  0  0  0
   15.9138  -21.6015   32.9218 N   0  0  0  0  0  0  0  0  0  0  0  0
   15.3860  -21.4623   31.5888 C   0  0  0  0  0  0  0  0  0  0  0  0
   14.3365  -20.3684   31.5130 C   0  0  0  0  0  0  0  0  0  0  0  0
   13.7266  -20.2085   30.1724 C   0  0  0  0  0  0  0  0  0  0  0  0
   12.4044  -20.9167   30.0787 C   0  0  2  0  0  0  0  0  0  0  0  0
   11.8882  -20.7233   28.7021 N   0  0  0  0  0  0  0  0  0  0  0  0
   11.4593  -20.2964   31.0388 C   0  0  0  0  0  0  0  0  0  0  0  0
   10.4498  -19.4222   30.7323 O   0  0  0  0  0  0  0  0  0  0  0  0
   11.6092  -20.6130   32.2758 O   0  0  0  0  0  0  0  0  0  0  0  0
  2  3  1  0
  2  1  1  6
  4  3  1  0
  5  4  2  0
  6  2  1  0
  7  6  2  0
  8  4  1  0
  9 10  1  0
 10 12  1  0
 11 10  2  0
 12 13  1  0
 14 13  1  1
 14 15  1  0
 15  6  1  0
 16 14  1  0
 16 17  2  0
 18 19  1  0
 19 21  1  0
 20 19  2  0
 21 22  1  0
 22 23  1  0
 23 24  1  0
 25 24  1  6
 26 25  1  0
 26 16  1  0
 27 25  1  0
 28 27  1  0
 29 27  2  0
M  END
$$$$
