DQR.pdb
     RDKit          3D

 29 28  0  0  1  0  0  0  0  0999 V2000
    8.1943  -18.3138   17.5972 N   0  0  0  0  0  0  0  0  0  0  0  0
    9.3984  -18.6502   18.3344 C   0  0  1  0  0  0  0  0  0  0  0  0
   10.6101  -17.9865   17.7232 C   0  0  0  0  0  0  0  0  0  0  0  0
   10.8556  -18.5284   16.3860 C   0  0  0  0  0  0  0  0  0  0  0  0
   10.8922  -17.7598   15.3979 O   0  0  0  0  0  0  0  0  0  0  0  0
    9.2483  -18.1827   19.7488 C   0  0  0  0  0  0  0  0  0  0  0  0
    9.4940  -16.9989   20.0372 O   0  0  0  0  0  0  0  0  0  0  0  0
   11.0481  -19.8764   16.1938 O   0  0  0  0  0  0  0  0  0  0  0  0
    5.9219  -21.1287   24.0014 N   0  0  0  0  0  0  0  0  0  0  0  0
    5.5485  -20.7336   22.6869 C   0  0  0  0  0  0  0  0  0  0  0  0
    4.5120  -21.1563   22.1620 O   0  0  0  0  0  0  0  0  0  0  0  0
    6.4920  -19.7799   21.9950 C   0  0  0  0  0  0  0  0  0  0  0  0
    7.6629  -19.4573   22.8820 C   0  0  0  0  0  0  0  0  0  0  0  0
    8.6585  -18.6353   22.1631 C   0  0  2  0  0  0  0  0  0  0  0  0
    8.8327  -19.0485   20.7801 N   0  0  0  0  0  0  0  0  0  0  0  0
    9.9898  -18.5020   22.7694 C   0  0  0  0  0  0  0  0  0  0  0  0
   10.7365  -19.4864   22.9391 O   0  0  0  0  0  0  0  0  0  0  0  0
   13.9729  -13.3030   18.8839 N   0  0  0  0  0  0  0  0  0  0  0  0
   14.2344  -14.6168   19.4115 C   0  0  0  0  0  0  0  0  0  0  0  0
   15.4086  -15.1155   19.5282 N   0  0  0  0  0  0  0  0  0  0  0  0
   13.1300  -15.4145   19.8241 N   0  0  0  0  0  0  0  0  0  0  0  0
   12.4572  -15.1653   21.0731 C   0  0  0  0  0  0  0  0  0  0  0  0
   13.1368  -15.8785   22.2279 C   0  0  0  0  0  0  0  0  0  0  0  0
   12.3952  -15.7984   23.5077 C   0  0  0  0  0  0  0  0  0  0  0  0
   11.7976  -17.1250   23.8841 C   0  0  2  0  0  0  0  0  0  0  0  0
   10.4907  -17.2408   23.1933 N   0  0  0  0  0  0  0  0  0  0  0  0
   11.5712  -17.1502   25.3497 C   0  0  0  0  0  0  0  0  0  0  0  0
   10.3576  -17.0973   25.9834 O   0  0  0  0  0  0  0  0  0  0  0  0
   12.6195  -17.2274   26.0900 O   0  0  0  0  0  0  0  0  0  0  0  0
  2  3  1  0
  2  1  1  6
  4  3  1  0
  5  4  2  0
  6  2  1  0
  7  6  2  0
  8  4  1  0
  9 10  1  0
 10 12  1  0
 11 10  2  0
 12 13  1  0
 14 13  1  1
 14 15  1  0
 15  6  1  0
 16 14  1  0
 16 17  2  0
 18 19  1  0
 19 21  1  0
 20 19  2  0
 21 22  1  0
 22 23  1  0
 23 24  1  0
 25 24  1  1
 26 25  1  0
 26 16  1  0
 27 25  1  0
 28 27  1  0
 29 27  2  0
M  END
$$$$
