DQR.pdb
     RDKit          3D

 29 28  0  0  1  0  0  0  0  0999 V2000
   11.1264  -18.8825   16.4028 N   0  0  0  0  0  0  0  0  0  0  0  0
    9.9503  -18.0812   16.6882 C   0  0  1  0  0  0  0  0  0  0  0  0
    8.8165  -18.4328   15.7537 C   0  0  0  0  0  0  0  0  0  0  0  0
    9.0544  -17.8438   14.4353 C   0  0  0  0  0  0  0  0  0  0  0  0
   10.1583  -18.0096   13.8673 O   0  0  0  0  0  0  0  0  0  0  0  0
    9.5176  -18.3388   18.0981 C   0  0  0  0  0  0  0  0  0  0  0  0
    8.4437  -17.8677   18.5102 O   0  0  0  0  0  0  0  0  0  0  0  0
    8.0804  -17.1062   13.8042 O   0  0  0  0  0  0  0  0  0  0  0  0
   10.3880  -23.9716   21.6959 N   0  0  0  0  0  0  0  0  0  0  0  0
   10.6979  -22.9739   20.7304 C   0  0  0  0  0  0  0  0  0  0  0  0
   11.6396  -23.1172   19.9422 O   0  0  0  0  0  0  0  0  0  0  0  0
    9.8102  -21.7532   20.7394 C   0  0  0  0  0  0  0  0  0  0  0  0
   10.6248  -20.5081   20.9581 C   0  0  0  0  0  0  0  0  0  0  0  0
    9.9481  -19.3272   20.3826 C   0  0  2  0  0  0  0  0  0  0  0  0
   10.2945  -19.1072   18.9880 N   0  0  0  0  0  0  0  0  0  0  0  0
   10.0938  -18.0506   21.0947 C   0  0  0  0  0  0  0  0  0  0  0  0
   11.1124  -17.3416   20.9714 O   0  0  0  0  0  0  0  0  0  0  0  0
    7.9699  -10.8236   20.5247 N   0  0  0  0  0  0  0  0  0  0  0  0
    8.6285  -12.0625   20.2021 C   0  0  0  0  0  0  0  0  0  0  0  0
    9.3204  -12.2443   19.1394 N   0  0  0  0  0  0  0  0  0  0  0  0
    8.5041  -13.1532   21.1083 N   0  0  0  0  0  0  0  0  0  0  0  0
    7.6606  -13.0613   22.2723 C   0  0  0  0  0  0  0  0  0  0  0  0
    7.8522  -14.2486   23.1985 C   0  0  0  0  0  0  0  0  0  0  0  0
    7.8556  -15.5590   22.5077 C   0  0  0  0  0  0  0  0  0  0  0  0
    9.1938  -16.2350   22.6114 C   0  0  2  0  0  0  0  0  0  0  0  0
    9.0778  -17.5625   21.9610 N   0  0  0  0  0  0  0  0  0  0  0  0
    9.5235  -16.4283   24.0444 C   0  0  0  0  0  0  0  0  0  0  0  0
    9.9945  -15.4709   24.9040 O   0  0  0  0  0  0  0  0  0  0  0  0
    9.3495  -17.6109   24.5179 O   0  0  0  0  0  0  0  0  0  0  0  0
  2  3  1  0
  2  1  1  6
  4  3  1  0
  5  4  2  0
  6  2  1  0
  7  6  2  0
  8  4  1  0
  9 10  1  0
 10 12  1  0
 11 10  2  0
 12 13  1  0
 14 13  1  1
 14 15  1  0
 15  6  1  0
 16 14  1  0
 16 17  2  0
 18 19  1  0
 19 21  1  0
 20 19  2  0
 21 22  1  0
 22 23  1  0
 23 24  1  0
 25 24  1  1
 26 25  1  0
 26 16  1  0
 27 25  1  0
 28 27  1  0
 29 27  2  0
M  END
$$$$
