DQR.pdb
     RDKit          3D

 29 28  0  0  1  0  0  0  0  0999 V2000
   12.9120  -17.5087   18.9403 N   0  0  0  0  0  0  0  0  0  0  0  0
   13.5644  -16.2425   19.2193 C   0  0  1  0  0  0  0  0  0  0  0  0
   14.1997  -15.6749   17.9717 C   0  0  0  0  0  0  0  0  0  0  0  0
   15.0802  -16.6718   17.3612 C   0  0  0  0  0  0  0  0  0  0  0  0
   15.9109  -17.2875   18.0679 O   0  0  0  0  0  0  0  0  0  0  0  0
   12.5447  -15.2732   19.7311 C   0  0  0  0  0  0  0  0  0  0  0  0
   12.9139  -14.2179   20.2743 O   0  0  0  0  0  0  0  0  0  0  0  0
   15.0112  -16.9467   16.0156 O   0  0  0  0  0  0  0  0  0  0  0  0
    8.0727  -12.7858   17.1458 N   0  0  0  0  0  0  0  0  0  0  0  0
    7.4878  -12.5801   18.4261 C   0  0  0  0  0  0  0  0  0  0  0  0
    6.6077  -11.7291   18.5980 O   0  0  0  0  0  0  0  0  0  0  0  0
    8.0106  -13.4598   19.5357 C   0  0  0  0  0  0  0  0  0  0  0  0
    9.0898  -14.3732   19.0232 C   0  0  0  0  0  0  0  0  0  0  0  0
   10.1361  -14.5793   20.0460 C   0  0  2  0  0  0  0  0  0  0  0  0
   11.1613  -15.5170   19.6178 N   0  0  0  0  0  0  0  0  0  0  0  0
    9.6977  -14.9680   21.3930 C   0  0  0  0  0  0  0  0  0  0  0  0
    8.9363  -14.2485   22.0698 O   0  0  0  0  0  0  0  0  0  0  0  0
   14.2692  -18.9112   27.7844 N   0  0  0  0  0  0  0  0  0  0  0  0
   12.9246  -18.8775   28.2980 C   0  0  0  0  0  0  0  0  0  0  0  0
   12.5892  -19.3412   29.4440 N   0  0  0  0  0  0  0  0  0  0  0  0
   11.9038  -18.3021   27.4897 N   0  0  0  0  0  0  0  0  0  0  0  0
   12.1070  -18.0785   26.0813 C   0  0  0  0  0  0  0  0  0  0  0  0
   10.9019  -17.4152   25.4395 C   0  0  0  0  0  0  0  0  0  0  0  0
   11.0572  -17.1539   23.9897 C   0  0  0  0  0  0  0  0  0  0  0  0
    9.8410  -16.4829   23.4157 C   0  0  2  0  0  0  0  0  0  0  0  0
   10.1228  -16.1859   21.9905 N   0  0  0  0  0  0  0  0  0  0  0  0
    9.6120  -15.2074   24.1370 C   0  0  0  0  0  0  0  0  0  0  0  0
    8.6188  -14.9581   25.0474 O   0  0  0  0  0  0  0  0  0  0  0  0
   10.4268  -14.2476   23.8765 O   0  0  0  0  0  0  0  0  0  0  0  0
  2  3  1  0
  2  1  1  6
  4  3  1  0
  5  4  2  0
  6  2  1  0
  7  6  2  0
  8  4  1  0
  9 10  1  0
 10 12  1  0
 11 10  2  0
 12 13  1  0
 14 13  1  6
 14 15  1  0
 15  6  1  0
 16 14  1  0
 16 17  2  0
 18 19  1  0
 19 21  1  0
 20 19  2  0
 21 22  1  0
 22 23  1  0
 23 24  1  0
 25 24  1  1
 26 25  1  0
 26 16  1  0
 27 25  1  0
 28 27  1  0
 29 27  2  0
M  END
$$$$
