PSS.pdb
     RDKit          3D

 20 20  0  0  1  0  0  0  0  0999 V2000
   27.9526  -21.5697  -13.0397 N   0  0  0  0  0  0  0  0  0  0  0  0
   29.1886  -20.9740  -13.5000 C   0  0  0  0  0  0  0  0  0  0  0  0
   28.9082  -19.5168  -13.7629 C   0  0  0  0  0  0  0  0  0  0  0  0
   27.4694  -19.2737  -13.3649 C   0  0  0  0  0  0  0  0  0  0  0  0
   27.1417  -20.4868  -12.5226 C   0  0  1  0  0  0  0  0  0  0  0  0
   25.7190  -20.8334  -12.7786 C   0  0  0  0  0  0  0  0  0  0  0  0
   25.3932  -21.6532  -13.7030 O   0  0  0  0  0  0  0  0  0  0  0  0
   22.4316  -21.3268  -10.1589 O   0  0  0  0  0  0  0  0  0  0  0  0
   22.3933  -20.2931  -11.0711 C   0  0  0  0  0  0  0  0  0  0  0  0
   23.2816  -20.6243  -12.2786 C   0  0  2  0  0  0  0  0  0  0  0  0
   24.6523  -20.2830  -12.0228 N   0  0  0  0  0  0  0  0  0  0  0  0
   22.7855  -19.7831  -13.3936 C   0  0  0  0  0  0  0  0  0  0  0  0
   23.0941  -18.5834  -13.4342 O   0  0  0  0  0  0  0  0  0  0  0  0
   23.3137  -19.8864  -16.8723 O   0  0  0  0  0  0  0  0  0  0  0  0
   21.9457  -19.7319  -16.8209 C   0  0  0  0  0  0  0  0  0  0  0  0
   21.4424  -19.4080  -15.4307 C   0  0  2  0  0  0  0  0  0  0  0  0
   21.9606  -20.2936  -14.4339 N   0  0  0  0  0  0  0  0  0  0  0  0
   19.9559  -19.5390  -15.4653 C   0  0  0  0  0  0  0  0  0  0  0  0
   19.1831  -18.7587  -16.3231 O   0  0  0  0  0  0  0  0  0  0  0  0
   19.3561  -20.3461  -14.7325 O   0  0  0  0  0  0  0  0  0  0  0  0
  1  2  1  0
  3  2  1  0
  4  3  1  0
  4  5  1  0
  5  1  1  0
  6 11  1  0
  5  6  1  6
  7  6  2  0
  8  9  1  0
 10  9  1  1
 10 11  1  0
 10 12  1  0
 12 17  1  0
 13 12  2  0
 14 15  1  0
 16 18  1  0
 16 15  1  6
 17 16  1  0
 18 19  1  0
 20 18  2  0
M  END
$$$$
