PSS.pdb
     RDKit          3D

 20 20  0  0  1  0  0  0  0  0999 V2000
   25.5842  -23.3515  -16.2492 N   0  0  0  0  0  0  0  0  0  0  0  0
   26.8906  -23.9702  -16.3183 C   0  0  0  0  0  0  0  0  0  0  0  0
   26.7046  -25.4349  -16.0160 C   0  0  0  0  0  0  0  0  0  0  0  0
   25.2188  -25.6557  -15.8393 C   0  0  0  0  0  0  0  0  0  0  0  0
   24.6165  -24.4100  -16.4510 C   0  0  1  0  0  0  0  0  0  0  0  0
   23.4074  -24.0662  -15.6574 C   0  0  0  0  0  0  0  0  0  0  0  0
   22.4038  -24.8552  -15.6044 O   0  0  0  0  0  0  0  0  0  0  0  0
   23.1448  -20.4724  -13.5213 O   0  0  0  0  0  0  0  0  0  0  0  0
   22.4919  -21.5689  -12.9985 C   0  0  0  0  0  0  0  0  0  0  0  0
   22.1441  -22.5579  -14.1200 C   0  0  2  0  0  0  0  0  0  0  0  0
   23.2964  -22.8587  -14.9216 N   0  0  0  0  0  0  0  0  0  0  0  0
   21.1419  -21.8742  -14.9714 C   0  0  0  0  0  0  0  0  0  0  0  0
   21.5258  -21.1080  -15.8669 O   0  0  0  0  0  0  0  0  0  0  0  0
   16.8028  -21.6600  -16.9653 O   0  0  0  0  0  0  0  0  0  0  0  0
   17.6010  -22.2235  -15.9941 C   0  0  0  0  0  0  0  0  0  0  0  0
   18.8288  -21.3933  -15.6874 C   0  0  2  0  0  0  0  0  0  0  0  0
   19.7408  -22.0574  -14.8079 N   0  0  0  0  0  0  0  0  0  0  0  0
   18.3529  -20.1401  -15.0309 C   0  0  0  0  0  0  0  0  0  0  0  0
   17.7804  -19.1094  -15.7738 O   0  0  0  0  0  0  0  0  0  0  0  0
   18.4498  -19.9715  -13.8018 O   0  0  0  0  0  0  0  0  0  0  0  0
  1  2  1  0
  3  2  1  0
  4  3  1  0
  4  5  1  0
  5  1  1  0
  6 11  1  0
  5  6  1  1
  7  6  2  0
  8  9  1  0
 10  9  1  1
 10 11  1  0
 10 12  1  0
 12 17  1  0
 13 12  2  0
 14 15  1  0
 16 18  1  0
 16 15  1  1
 17 16  1  0
 18 19  1  0
 20 18  2  0
M  END
$$$$
