PSS.pdb
     RDKit          3D

 20 20  0  0  1  0  0  0  0  0999 V2000
   17.2557  -11.7093  -15.2550 N   0  0  0  0  0  0  0  0  0  0  0  0
   16.6174  -12.9738  -15.5518 C   0  0  0  0  0  0  0  0  0  0  0  0
   17.6237  -13.8159  -16.2931 C   0  0  0  0  0  0  0  0  0  0  0  0
   18.9034  -13.0114  -16.3508 C   0  0  0  0  0  0  0  0  0  0  0  0
   18.6834  -11.9497  -15.2959 C   0  0  1  0  0  0  0  0  0  0  0  0
   19.3319  -10.7026  -15.7798 C   0  0  0  0  0  0  0  0  0  0  0  0
   20.5971  -10.6355  -15.9453 O   0  0  0  0  0  0  0  0  0  0  0  0
   17.0382   -7.4185  -16.8339 O   0  0  0  0  0  0  0  0  0  0  0  0
   18.2648   -7.5248  -17.4553 C   0  0  0  0  0  0  0  0  0  0  0  0
   19.2282   -8.3401  -16.5813 C   0  0  2  0  0  0  0  0  0  0  0  0
   18.5959   -9.5286  -16.0826 N   0  0  0  0  0  0  0  0  0  0  0  0
   19.5723   -7.4703  -15.4317 C   0  0  0  0  0  0  0  0  0  0  0  0
   18.8877   -7.5267  -14.3999 O   0  0  0  0  0  0  0  0  0  0  0  0
   22.5955   -4.4677  -13.1460 O   0  0  0  0  0  0  0  0  0  0  0  0
   22.3729   -5.4292  -14.1073 C   0  0  0  0  0  0  0  0  0  0  0  0
   20.9019   -5.7019  -14.3365 C   0  0  2  0  0  0  0  0  0  0  0  0
   20.6659   -6.5609  -15.4557 N   0  0  0  0  0  0  0  0  0  0  0  0
   20.2508   -4.3839  -14.5952 C   0  0  0  0  0  0  0  0  0  0  0  0
   19.7659   -3.6015  -13.5490 O   0  0  0  0  0  0  0  0  0  0  0  0
   20.1183   -3.9385  -15.7495 O   0  0  0  0  0  0  0  0  0  0  0  0
  1  2  1  0
  3  2  1  0
  4  3  1  0
  4  5  1  0
  5  1  1  0
  6 11  1  0
  5  6  1  6
  7  6  2  0
  8  9  1  0
 10  9  1  6
 10 11  1  0
 10 12  1  0
 12 17  1  0
 13 12  2  0
 14 15  1  0
 16 18  1  0
 16 15  1  6
 17 16  1  0
 18 19  1  0
 20 18  2  0
M  END
$$$$
