PSS.pdb
     RDKit          3D

 20 20  0  0  1  0  0  0  0  0999 V2000
   22.9216  -12.5299  -14.9110 N   0  0  0  0  0  0  0  0  0  0  0  0
   23.2629  -13.9043  -15.2088 C   0  0  0  0  0  0  0  0  0  0  0  0
   24.0222  -13.9011  -16.5106 C   0  0  0  0  0  0  0  0  0  0  0  0
   24.1714  -12.4531  -16.9217 C   0  0  0  0  0  0  0  0  0  0  0  0
   23.8592  -11.7050  -15.6445 C   0  0  1  0  0  0  0  0  0  0  0  0
   23.1507  -10.4547  -16.0247 C   0  0  0  0  0  0  0  0  0  0  0  0
   23.7467   -9.5254  -16.6681 O   0  0  0  0  0  0  0  0  0  0  0  0
   19.0805   -9.9525  -15.2107 O   0  0  0  0  0  0  0  0  0  0  0  0
   19.5825   -9.3851  -16.3631 C   0  0  0  0  0  0  0  0  0  0  0  0
   21.0760   -9.0751  -16.1892 C   0  0  2  0  0  0  0  0  0  0  0  0
   21.7897  -10.2210  -15.7009 N   0  0  0  0  0  0  0  0  0  0  0  0
   21.1544   -8.0007  -15.1714 C   0  0  0  0  0  0  0  0  0  0  0  0
   21.3650   -8.2991  -13.9869 O   0  0  0  0  0  0  0  0  0  0  0  0
   22.8692   -4.1073  -13.5865 O   0  0  0  0  0  0  0  0  0  0  0  0
   22.6481   -5.0890  -14.5274 C   0  0  0  0  0  0  0  0  0  0  0  0
   21.2343   -5.6282  -14.4935 C   0  0  2  0  0  0  0  0  0  0  0  0
   20.9973   -6.6239  -15.4928 N   0  0  0  0  0  0  0  0  0  0  0  0
   20.3224   -4.4724  -14.7395 C   0  0  0  0  0  0  0  0  0  0  0  0
   19.9004   -3.6518  -13.6953 O   0  0  0  0  0  0  0  0  0  0  0  0
   19.9082   -4.2013  -15.8812 O   0  0  0  0  0  0  0  0  0  0  0  0
  1  2  1  0
  3  2  1  0
  4  3  1  0
  4  5  1  0
  5  1  1  0
  6 11  1  0
  5  6  1  6
  7  6  2  0
  8  9  1  0
 10  9  1  1
 10 11  1  0
 10 12  1  0
 12 17  1  0
 13 12  2  0
 14 15  1  0
 16 18  1  0
 16 15  1  6
 17 16  1  0
 18 19  1  0
 20 18  2  0
M  END
$$$$
