PSS.pdb
     RDKit          3D

 20 20  0  0  1  0  0  0  0  0999 V2000
   28.4156  -13.7032  -18.4368 N   0  0  0  0  0  0  0  0  0  0  0  0
   28.0326  -15.0590  -18.7679 C   0  0  0  0  0  0  0  0  0  0  0  0
   28.4257  -15.2932  -20.2038 C   0  0  0  0  0  0  0  0  0  0  0  0
   29.1222  -14.0353  -20.6732 C   0  0  0  0  0  0  0  0  0  0  0  0
   29.4505  -13.3268  -19.3775 C   0  0  1  0  0  0  0  0  0  0  0  0
   29.3189  -11.8668  -19.6246 C   0  0  0  0  0  0  0  0  0  0  0  0
   30.0713  -11.2671  -20.4655 O   0  0  0  0  0  0  0  0  0  0  0  0
   26.3704   -9.5732  -17.7044 O   0  0  0  0  0  0  0  0  0  0  0  0
   26.7054   -9.2584  -19.0047 C   0  0  0  0  0  0  0  0  0  0  0  0
   28.1518   -9.6845  -19.2930 C   0  0  2  0  0  0  0  0  0  0  0  0
   28.3639  -11.0627  -18.9515 N   0  0  0  0  0  0  0  0  0  0  0  0
   29.0066   -8.8448  -18.4209 C   0  0  0  0  0  0  0  0  0  0  0  0
   29.1701   -9.1687  -17.2356 O   0  0  0  0  0  0  0  0  0  0  0  0
   32.0338   -6.3519  -19.7906 O   0  0  0  0  0  0  0  0  0  0  0  0
   31.9460   -6.8676  -18.5161 C   0  0  0  0  0  0  0  0  0  0  0  0
   30.5221   -6.9403  -18.0080 C   0  0  2  0  0  0  0  0  0  0  0  0
   29.6578   -7.6684  -18.8850 N   0  0  0  0  0  0  0  0  0  0  0  0
   30.0271   -5.5362  -17.9004 C   0  0  0  0  0  0  0  0  0  0  0  0
   30.6066   -4.6336  -17.0108 O   0  0  0  0  0  0  0  0  0  0  0  0
   29.0832   -5.1232  -18.5981 O   0  0  0  0  0  0  0  0  0  0  0  0
  1  2  1  0
  3  2  1  0
  4  3  1  0
  4  5  1  0
  5  1  1  0
  6 11  1  0
  5  6  1  6
  7  6  2  0
  8  9  1  0
 10  9  1  1
 10 11  1  0
 10 12  1  0
 12 17  1  0
 13 12  2  0
 14 15  1  0
 16 18  1  0
 16 15  1  6
 17 16  1  0
 18 19  1  0
 20 18  2  0
M  END
$$$$
