PSS.pdb
     RDKit          3D

 20 20  0  0  1  0  0  0  0  0999 V2000
   28.1760  -20.4189  -15.8381 N   0  0  0  0  0  0  0  0  0  0  0  0
   28.5828  -19.2943  -16.6531 C   0  0  0  0  0  0  0  0  0  0  0  0
   28.0505  -18.0500  -15.9900 C   0  0  0  0  0  0  0  0  0  0  0  0
   27.3766  -18.4949  -14.7110 C   0  0  0  0  0  0  0  0  0  0  0  0
   27.9163  -19.8942  -14.5133 C   0  0  1  0  0  0  0  0  0  0  0  0
   26.8263  -20.7099  -13.9164 C   0  0  0  0  0  0  0  0  0  0  0  0
   26.1456  -21.5261  -14.6257 O   0  0  0  0  0  0  0  0  0  0  0  0
   25.6667  -20.0169  -10.0314 O   0  0  0  0  0  0  0  0  0  0  0  0
   25.3564  -21.2886  -10.4658 C   0  0  0  0  0  0  0  0  0  0  0  0
   25.3517  -21.3335  -12.0003 C   0  0  2  0  0  0  0  0  0  0  0  0
   26.4809  -20.6325  -12.5429 N   0  0  0  0  0  0  0  0  0  0  0  0
   24.1145  -20.6371  -12.4256 C   0  0  0  0  0  0  0  0  0  0  0  0
   24.1241  -19.4044  -12.5548 O   0  0  0  0  0  0  0  0  0  0  0  0
   21.2631  -22.3913  -14.7483 O   0  0  0  0  0  0  0  0  0  0  0  0
   21.4043  -21.0272  -14.6174 C   0  0  0  0  0  0  0  0  0  0  0  0
   21.7743  -20.6067  -13.2113 C   0  0  2  0  0  0  0  0  0  0  0  0
   22.8991  -21.3249  -12.6964 N   0  0  0  0  0  0  0  0  0  0  0  0
   20.5888  -20.8855  -12.3483 C   0  0  0  0  0  0  0  0  0  0  0  0
   19.3606  -20.2735  -12.5907 O   0  0  0  0  0  0  0  0  0  0  0  0
   20.6545  -21.6712  -11.3857 O   0  0  0  0  0  0  0  0  0  0  0  0
  1  2  1  0
  3  2  1  0
  4  3  1  0
  4  5  1  0
  5  1  1  0
  6 11  1  0
  5  6  1  6
  7  6  2  0
  8  9  1  0
 10  9  1  1
 10 11  1  0
 10 12  1  0
 12 17  1  0
 13 12  2  0
 14 15  1  0
 16 18  1  0
 16 15  1  6
 17 16  1  0
 18 19  1  0
 20 18  2  0
M  END
$$$$
