PSS.pdb
     RDKit          3D

 20 20  0  0  1  0  0  0  0  0999 V2000
   22.9657  -18.2133  -17.6201 N   0  0  0  0  0  0  0  0  0  0  0  0
   23.7623  -17.4556  -18.5611 C   0  0  0  0  0  0  0  0  0  0  0  0
   25.0878  -17.1794  -17.8993 C   0  0  0  0  0  0  0  0  0  0  0  0
   25.0547  -17.8741  -16.5561 C   0  0  0  0  0  0  0  0  0  0  0  0
   23.8961  -18.8360  -16.7012 C   0  0  1  0  0  0  0  0  0  0  0  0
   23.2244  -18.9242  -15.3780 C   0  0  0  0  0  0  0  0  0  0  0  0
   23.8661  -19.2810  -14.3322 O   0  0  0  0  0  0  0  0  0  0  0  0
   19.4614  -17.3424  -14.7184 O   0  0  0  0  0  0  0  0  0  0  0  0
   20.2635  -17.6091  -13.6287 C   0  0  0  0  0  0  0  0  0  0  0  0
   21.1905  -18.7937  -13.9355 C   0  0  2  0  0  0  0  0  0  0  0  0
   21.8502  -18.6220  -15.1989 N   0  0  0  0  0  0  0  0  0  0  0  0
   20.3150  -19.9867  -14.0181 C   0  0  0  0  0  0  0  0  0  0  0  0
   19.9930  -20.4290  -15.1303 O   0  0  0  0  0  0  0  0  0  0  0  0
   17.9467  -23.6739  -11.9337 O   0  0  0  0  0  0  0  0  0  0  0  0
   18.8081  -22.6099  -11.7794 C   0  0  0  0  0  0  0  0  0  0  0  0
   18.8966  -21.7409  -13.0154 C   0  0  2  0  0  0  0  0  0  0  0  0
   19.8194  -20.6581  -12.8662 N   0  0  0  0  0  0  0  0  0  0  0  0
   17.5329  -21.1823  -13.2523 C   0  0  0  0  0  0  0  0  0  0  0  0
   16.4796  -21.9992  -13.6586 O   0  0  0  0  0  0  0  0  0  0  0  0
   17.2887  -19.9722  -13.0960 O   0  0  0  0  0  0  0  0  0  0  0  0
  1  2  1  0
  3  2  1  0
  4  3  1  0
  4  5  1  0
  5  1  1  0
  6 11  1  0
  5  6  1  1
  7  6  2  0
  8  9  1  0
 10  9  1  6
 10 11  1  0
 10 12  1  0
 12 17  1  0
 13 12  2  0
 14 15  1  0
 16 18  1  0
 16 15  1  1
 17 16  1  0
 18 19  1  0
 20 18  2  0
M  END
$$$$
