PSS.pdb
     RDKit          3D

 20 20  0  0  1  0  0  0  0  0999 V2000
   28.0016  -20.2981  -11.5265 N   0  0  0  0  0  0  0  0  0  0  0  0
   29.2198  -20.7971  -10.9255 C   0  0  0  0  0  0  0  0  0  0  0  0
   29.9557  -21.5698  -11.9898 C   0  0  0  0  0  0  0  0  0  0  0  0
   29.1456  -21.4369  -13.2602 C   0  0  0  0  0  0  0  0  0  0  0  0
   28.2291  -20.2722  -12.9566 C   0  0  1  0  0  0  0  0  0  0  0  0
   26.9277  -20.5472  -13.6203 C   0  0  0  0  0  0  0  0  0  0  0  0
   26.8399  -20.6435  -14.8915 O   0  0  0  0  0  0  0  0  0  0  0  0
   23.3675  -20.9957  -11.4291 O   0  0  0  0  0  0  0  0  0  0  0  0
   23.5946  -21.8620  -12.4779 C   0  0  0  0  0  0  0  0  0  0  0  0
   24.5217  -21.2058  -13.5107 C   0  0  2  0  0  0  0  0  0  0  0  0
   25.7218  -20.7167  -12.8931 N   0  0  0  0  0  0  0  0  0  0  0  0
   23.7697  -20.0529  -14.0604 C   0  0  0  0  0  0  0  0  0  0  0  0
   23.8631  -18.9470  -13.5086 O   0  0  0  0  0  0  0  0  0  0  0  0
   23.7072  -18.1903  -17.3630 O   0  0  0  0  0  0  0  0  0  0  0  0
   22.4526  -18.7078  -17.1262 C   0  0  0  0  0  0  0  0  0  0  0  0
   22.2081  -19.0112  -15.6637 C   0  0  2  0  0  0  0  0  0  0  0  0
   22.9340  -20.1560  -15.2069 N   0  0  0  0  0  0  0  0  0  0  0  0
   20.7469  -19.2760  -15.5133 C   0  0  0  0  0  0  0  0  0  0  0  0
   19.8076  -18.2636  -15.6999 O   0  0  0  0  0  0  0  0  0  0  0  0
   20.3169  -20.4055  -15.2173 O   0  0  0  0  0  0  0  0  0  0  0  0
  1  2  1  0
  3  2  1  0
  4  3  1  0
  4  5  1  0
  5  1  1  0
  6 11  1  0
  5  6  1  6
  7  6  2  0
  8  9  1  0
 10  9  1  1
 10 11  1  0
 10 12  1  0
 12 17  1  0
 13 12  2  0
 14 15  1  0
 16 18  1  0
 16 15  1  6
 17 16  1  0
 18 19  1  0
 20 18  2  0
M  END
$$$$
