PSS.pdb
     RDKit          3D

 20 20  0  0  1  0  0  0  0  0999 V2000
   14.6913   -8.7169  -11.2615 N   0  0  0  0  0  0  0  0  0  0  0  0
   13.5471   -9.3771  -10.6705 C   0  0  0  0  0  0  0  0  0  0  0  0
   14.0741  -10.3338   -9.6321 C   0  0  0  0  0  0  0  0  0  0  0  0
   15.5747  -10.1480   -9.5935 C   0  0  0  0  0  0  0  0  0  0  0  0
   15.7702   -8.8254  -10.3014 C   0  0  1  0  0  0  0  0  0  0  0  0
   17.0412   -8.9157  -11.0670 C   0  0  0  0  0  0  0  0  0  0  0  0
   18.1599   -9.0902  -10.4749 O   0  0  0  0  0  0  0  0  0  0  0  0
   17.0218   -9.1747  -15.2025 O   0  0  0  0  0  0  0  0  0  0  0  0
   18.1169   -9.6780  -14.5320 C   0  0  0  0  0  0  0  0  0  0  0  0
   18.3192   -8.9204  -13.2121 C   0  0  2  0  0  0  0  0  0  0  0  0
   17.0882   -8.8151  -12.4811 N   0  0  0  0  0  0  0  0  0  0  0  0
   18.7637   -7.5573  -13.5875 C   0  0  0  0  0  0  0  0  0  0  0  0
   17.9181   -6.6676  -13.7597 O   0  0  0  0  0  0  0  0  0  0  0  0
   22.0317   -5.6720  -12.3239 O   0  0  0  0  0  0  0  0  0  0  0  0
   21.0163   -5.0524  -13.0189 C   0  0  0  0  0  0  0  0  0  0  0  0
   20.4911   -5.8907  -14.1645 C   0  0  2  0  0  0  0  0  0  0  0  0
   20.1336   -7.2160  -13.7623 N   0  0  0  0  0  0  0  0  0  0  0  0
   21.5833   -5.9733  -15.1786 C   0  0  0  0  0  0  0  0  0  0  0  0
   22.0940   -4.8264  -15.7833 O   0  0  0  0  0  0  0  0  0  0  0  0
   22.0747   -7.0646  -15.5189 O   0  0  0  0  0  0  0  0  0  0  0  0
  1  2  1  0
  3  2  1  0
  4  3  1  0
  4  5  1  0
  5  1  1  0
  6 11  1  0
  5  6  1  6
  7  6  2  0
  8  9  1  0
 10  9  1  6
 10 11  1  0
 10 12  1  0
 12 17  1  0
 13 12  2  0
 14 15  1  0
 16 18  1  0
 16 15  1  1
 17 16  1  0
 18 19  1  0
 20 18  2  0
M  END
$$$$
