AGH.pdb
     RDKit          3D

 20 20  0  0  1  0  0  0  0  0999 V2000
    5.1676  -16.5649   20.6861 C   0  0  0  0  0  0  0  0  0  0  0  0
    6.5151  -17.2128   20.5564 C   0  0  2  0  0  0  0  0  0  0  0  0
    6.6884  -18.2041   21.5839 N   0  0  0  0  0  0  0  0  0  0  0  0
    7.6169  -16.2103   20.6596 C   0  0  0  0  0  0  0  0  0  0  0  0
    7.7500  -15.2738   19.8293 O   0  0  0  0  0  0  0  0  0  0  0  0
    8.5618  -16.2839   21.7133 N   0  0  0  0  0  0  0  0  0  0  0  0
    9.5826  -15.2917   21.8404 C   0  0  0  0  0  0  0  0  0  0  0  0
   10.3371  -15.4291   23.1331 C   0  0  0  0  0  0  0  0  0  0  0  0
   11.4044  -16.0597   23.2255 O   0  0  0  0  0  0  0  0  0  0  0  0
    9.8251  -14.8197   24.3106 N   0  0  0  0  0  0  0  0  0  0  0  0
    9.5141  -15.5296   25.5118 C   0  0  1  0  0  0  0  0  0  0  0  0
    8.0124  -15.6945   25.7070 C   0  0  0  0  0  0  0  0  0  0  0  0
    7.3110  -14.4071   25.8009 C   0  0  0  0  0  0  0  0  0  0  0  0
    7.8683  -13.1460   25.8097 C   0  0  0  0  0  0  0  0  0  0  0  0
    6.8560  -12.2474   25.9102 N   0  0  0  0  0  0  0  0  0  0  0  0
    5.7025  -12.9181   25.9628 C   0  0  0  0  0  0  0  0  0  0  0  0
    5.9800  -14.2396   25.8960 N   0  0  0  0  0  0  0  0  0  0  0  0
   10.1226  -16.8677   25.5793 C   0  0  0  0  0  0  0  0  0  0  0  0
   11.0082  -17.1459   26.4152 O   0  0  0  0  0  0  0  0  0  0  0  0
    9.7134  -17.8528   24.7008 O   0  0  0  0  0  0  0  0  0  0  0  0
  2  1  1  1
  3  2  1  0
  4  5  2  0
  4  2  1  0
  6  4  1  0
  7  6  1  0
  8 10  1  0
  8  7  1  0
  9  8  2  0
 11 10  1  0
 11 12  1  6
 12 13  1  0
 13 17  1  0
 13 14  2  0
 14 15  1  0
 16 15  1  0
 17 16  2  0
 18 11  1  0
 19 18  2  0
 20 18  1  0
M  END
$$$$
