AGH.pdb
     RDKit          3D

 20 20  0  0  1  0  0  0  0  0999 V2000
    4.5737  -17.6913   21.4002 C   0  0  0  0  0  0  0  0  0  0  0  0
    5.8893  -18.2709   20.9689 C   0  0  2  0  0  0  0  0  0  0  0  0
    6.3836  -19.1761   21.9713 N   0  0  0  0  0  0  0  0  0  0  0  0
    6.9073  -17.2038   20.7353 C   0  0  0  0  0  0  0  0  0  0  0  0
    6.7774  -16.3417   19.8276 O   0  0  0  0  0  0  0  0  0  0  0  0
    8.0701  -17.1282   21.5420 N   0  0  0  0  0  0  0  0  0  0  0  0
    9.0290  -16.0892   21.3336 C   0  0  0  0  0  0  0  0  0  0  0  0
    9.5954  -15.5836   22.6308 C   0  0  0  0  0  0  0  0  0  0  0  0
   10.4984  -14.7308   22.6838 O   0  0  0  0  0  0  0  0  0  0  0  0
    9.0907  -16.0894   23.8594 N   0  0  0  0  0  0  0  0  0  0  0  0
    9.7515  -15.9453   25.1189 C   0  0  1  0  0  0  0  0  0  0  0  0
    8.7683  -15.7036   26.2570 C   0  0  0  0  0  0  0  0  0  0  0  0
    7.8280  -14.6127   25.9680 C   0  0  0  0  0  0  0  0  0  0  0  0
    7.9398  -13.2884   26.3354 C   0  0  0  0  0  0  0  0  0  0  0  0
    6.8495  -12.6342   25.8605 N   0  0  0  0  0  0  0  0  0  0  0  0
    6.0785  -13.5144   25.2170 C   0  0  0  0  0  0  0  0  0  0  0  0
    6.6766  -14.7252   25.2824 N   0  0  0  0  0  0  0  0  0  0  0  0
   10.5814  -17.1042   25.4844 C   0  0  0  0  0  0  0  0  0  0  0  0
   11.3083  -17.0982   26.5003 O   0  0  0  0  0  0  0  0  0  0  0  0
   10.5664  -18.2362   24.6920 O   0  0  0  0  0  0  0  0  0  0  0  0
  2  1  1  1
  3  2  1  0
  4  5  2  0
  4  2  1  0
  6  4  1  0
  7  6  1  0
  8 10  1  0
  8  7  1  0
  9  8  2  0
 11 10  1  0
 11 12  1  1
 12 13  1  0
 13 17  1  0
 13 14  2  0
 14 15  1  0
 16 15  1  0
 17 16  2  0
 18 11  1  0
 19 18  2  0
 20 18  1  0
M  END
$$$$
