AGH.pdb
     RDKit          3D

 20 20  0  0  1  0  0  0  0  0999 V2000
    7.3253  -12.7004   19.3027 C   0  0  0  0  0  0  0  0  0  0  0  0
    8.6116  -13.4490   19.4968 C   0  0  2  0  0  0  0  0  0  0  0  0
    9.1365  -13.8687   18.2252 N   0  0  0  0  0  0  0  0  0  0  0  0
    8.4204  -14.6506   20.3625 C   0  0  0  0  0  0  0  0  0  0  0  0
    8.0336  -14.5606   21.5568 O   0  0  0  0  0  0  0  0  0  0  0  0
    8.6729  -15.9504   19.8572 N   0  0  0  0  0  0  0  0  0  0  0  0
    8.5757  -17.0909   20.7130 C   0  0  0  0  0  0  0  0  0  0  0  0
    9.9030  -17.4472   21.3216 C   0  0  0  0  0  0  0  0  0  0  0  0
   10.3022  -18.6198   21.4261 O   0  0  0  0  0  0  0  0  0  0  0  0
   10.7519  -16.4143   21.8038 N   0  0  0  0  0  0  0  0  0  0  0  0
   12.0395  -16.6382   22.3830 C   0  0  1  0  0  0  0  0  0  0  0  0
   12.9860  -15.4688   22.1443 C   0  0  0  0  0  0  0  0  0  0  0  0
   13.2633  -15.2493   20.7185 C   0  0  0  0  0  0  0  0  0  0  0  0
   13.8807  -16.1145   19.8403 C   0  0  0  0  0  0  0  0  0  0  0  0
   13.9290  -15.5076   18.6273 N   0  0  0  0  0  0  0  0  0  0  0  0
   13.3625  -14.3033   18.7371 C   0  0  0  0  0  0  0  0  0  0  0  0
   12.9549  -14.1446   20.0164 N   0  0  0  0  0  0  0  0  0  0  0  0
   11.9976  -16.8901   23.8321 C   0  0  0  0  0  0  0  0  0  0  0  0
   10.9417  -16.7740   24.4895 O   0  0  0  0  0  0  0  0  0  0  0  0
   13.1493  -17.2658   24.4970 O   0  0  0  0  0  0  0  0  0  0  0  0
  2  1  1  6
  3  2  1  0
  4  5  2  0
  4  2  1  0
  6  4  1  0
  7  6  1  0
  8 10  1  0
  8  7  1  0
  9  8  2  0
 11 10  1  0
 11 12  1  1
 12 13  1  0
 13 17  1  0
 13 14  2  0
 14 15  1  0
 16 15  1  0
 17 16  2  0
 18 11  1  0
 19 18  2  0
 20 18  1  0
M  END
$$$$
