AGH.pdb
     RDKit          3D

 20 20  0  0  1  0  0  0  0  0999 V2000
    6.8174  -19.6562   19.1057 C   0  0  0  0  0  0  0  0  0  0  0  0
    7.5713  -19.4668   20.3896 C   0  0  2  0  0  0  0  0  0  0  0  0
    6.6527  -19.2639   21.4774 N   0  0  0  0  0  0  0  0  0  0  0  0
    8.4976  -18.2981   20.3132 C   0  0  0  0  0  0  0  0  0  0  0  0
    9.5381  -18.3135   19.6052 O   0  0  0  0  0  0  0  0  0  0  0  0
    8.2288  -17.1163   21.0479 N   0  0  0  0  0  0  0  0  0  0  0  0
    9.1601  -16.0323   21.0408 C   0  0  0  0  0  0  0  0  0  0  0  0
    9.5950  -15.6606   22.4307 C   0  0  0  0  0  0  0  0  0  0  0  0
   10.4289  -14.7671   22.6584 O   0  0  0  0  0  0  0  0  0  0  0  0
    9.0412  -16.3477   23.5447 N   0  0  0  0  0  0  0  0  0  0  0  0
    9.4008  -16.0931   24.9047 C   0  0  1  0  0  0  0  0  0  0  0  0
    8.1787  -15.9229   25.7979 C   0  0  0  0  0  0  0  0  0  0  0  0
    7.4142  -14.7088   25.4826 C   0  0  0  0  0  0  0  0  0  0  0  0
    6.2799  -14.2433   26.1132 C   0  0  0  0  0  0  0  0  0  0  0  0
    5.9081  -13.0917   25.4984 N   0  0  0  0  0  0  0  0  0  0  0  0
    6.7768  -12.8406   24.5158 C   0  0  0  0  0  0  0  0  0  0  0  0
    7.6986  -13.8296   24.5055 N   0  0  0  0  0  0  0  0  0  0  0  0
   10.2440  -17.1434   25.4973 C   0  0  0  0  0  0  0  0  0  0  0  0
   10.6791  -17.0566   26.6651 O   0  0  0  0  0  0  0  0  0  0  0  0
   10.5715  -18.2613   24.7539 O   0  0  0  0  0  0  0  0  0  0  0  0
  2  1  1  6
  3  2  1  0
  4  5  2  0
  4  2  1  0
  6  4  1  0
  7  6  1  0
  8 10  1  0
  8  7  1  0
  9  8  2  0
 11 10  1  0
 11 12  1  1
 12 13  1  0
 13 17  1  0
 13 14  2  0
 14 15  1  0
 16 15  1  0
 17 16  2  0
 18 11  1  0
 19 18  2  0
 20 18  1  0
M  END
$$$$
