AGH.pdb
     RDKit          3D

 20 20  0  0  1  0  0  0  0  0999 V2000
    8.3418  -22.5530   21.4703 C   0  0  0  0  0  0  0  0  0  0  0  0
    9.3565  -21.4474   21.4493 C   0  0  2  0  0  0  0  0  0  0  0  0
   10.3324  -21.6517   22.4859 N   0  0  0  0  0  0  0  0  0  0  0  0
    8.7159  -20.1126   21.6431 C   0  0  0  0  0  0  0  0  0  0  0  0
    7.7968  -19.6955   20.8912 O   0  0  0  0  0  0  0  0  0  0  0  0
    9.1303  -19.2607   22.6972 N   0  0  0  0  0  0  0  0  0  0  0  0
    8.4737  -18.0106   22.9178 C   0  0  0  0  0  0  0  0  0  0  0  0
    8.4215  -17.6572   24.3778 C   0  0  0  0  0  0  0  0  0  0  0  0
    7.9313  -16.5940   24.7956 O   0  0  0  0  0  0  0  0  0  0  0  0
    8.9496  -18.5636   25.3367 N   0  0  0  0  0  0  0  0  0  0  0  0
    9.0336  -18.2914   26.7376 C   0  0  1  0  0  0  0  0  0  0  0  0
    7.6932  -18.4745   27.4379 C   0  0  0  0  0  0  0  0  0  0  0  0
    7.0584  -19.7591   27.1141 C   0  0  0  0  0  0  0  0  0  0  0  0
    7.5616  -20.7678   26.3202 C   0  0  0  0  0  0  0  0  0  0  0  0
    6.6459  -21.7694   26.2944 N   0  0  0  0  0  0  0  0  0  0  0  0
    5.6033  -21.4049   27.0450 C   0  0  0  0  0  0  0  0  0  0  0  0
    5.8550  -20.1750   27.5469 N   0  0  0  0  0  0  0  0  0  0  0  0
   10.0221  -19.1241   27.4410 C   0  0  0  0  0  0  0  0  0  0  0  0
   10.2399  -18.9944   28.6642 O   0  0  0  0  0  0  0  0  0  0  0  0
   10.7362  -20.0791   26.7426 O   0  0  0  0  0  0  0  0  0  0  0  0
  2  1  1  1
  3  2  1  0
  4  5  2  0
  4  2  1  0
  6  4  1  0
  7  6  1  0
  8 10  1  0
  8  7  1  0
  9  8  2  0
 11 10  1  0
 11 12  1  1
 12 13  1  0
 13 17  1  0
 13 14  2  0
 14 15  1  0
 16 15  1  0
 17 16  2  0
 18 11  1  0
 19 18  2  0
 20 18  1  0
M  END
$$$$
