AGH.pdb
     RDKit          3D

 20 20  0  0  1  0  0  0  0  0999 V2000
   11.1050  -18.5382   14.9008 C   0  0  0  0  0  0  0  0  0  0  0  0
   11.2378  -18.3299   16.3812 C   0  0  2  0  0  0  0  0  0  0  0  0
    9.9705  -17.9460   16.9424 N   0  0  0  0  0  0  0  0  0  0  0  0
   12.2470  -17.2757   16.6973 C   0  0  0  0  0  0  0  0  0  0  0  0
   13.4535  -17.3795   16.3542 O   0  0  0  0  0  0  0  0  0  0  0  0
   11.8707  -16.1069   17.4050 N   0  0  0  0  0  0  0  0  0  0  0  0
   12.8643  -15.1898   17.8677 C   0  0  0  0  0  0  0  0  0  0  0  0
   12.5895  -14.7305   19.2722 C   0  0  0  0  0  0  0  0  0  0  0  0
   13.2867  -13.8788   19.8501 O   0  0  0  0  0  0  0  0  0  0  0  0
   11.4911  -15.2811   19.9865 N   0  0  0  0  0  0  0  0  0  0  0  0
   11.0518  -14.8177   21.2656 C   0  0  1  0  0  0  0  0  0  0  0  0
    9.5443  -14.6037   21.3104 C   0  0  0  0  0  0  0  0  0  0  0  0
    9.0393  -13.8983   20.1249 C   0  0  0  0  0  0  0  0  0  0  0  0
    9.5408  -12.7470   19.5558 C   0  0  0  0  0  0  0  0  0  0  0  0
    8.7697  -12.4480   18.4796 N   0  0  0  0  0  0  0  0  0  0  0  0
    7.8166  -13.3773   18.3743 C   0  0  0  0  0  0  0  0  0  0  0  0
    7.9809  -14.2651   19.3807 N   0  0  0  0  0  0  0  0  0  0  0  0
   11.4078  -15.7195   22.3726 C   0  0  0  0  0  0  0  0  0  0  0  0
   11.9281  -16.8368   22.1692 O   0  0  0  0  0  0  0  0  0  0  0  0
   11.1657  -15.3334   23.6772 O   0  0  0  0  0  0  0  0  0  0  0  0
  2  1  1  6
  3  2  1  0
  4  5  2  0
  4  2  1  0
  6  4  1  0
  7  6  1  0
  8 10  1  0
  8  7  1  0
  9  8  2  0
 11 10  1  0
 11 12  1  6
 12 13  1  0
 13 17  1  0
 13 14  2  0
 14 15  1  0
 16 15  1  0
 17 16  2  0
 18 11  1  0
 19 18  2  0
 20 18  1  0
M  END
$$$$
