AGH.pdb
     RDKit          3D

 20 20  0  0  1  0  0  0  0  0999 V2000
    7.2910  -18.5392   19.1382 C   0  0  0  0  0  0  0  0  0  0  0  0
    8.0770  -18.2216   20.3767 C   0  0  2  0  0  0  0  0  0  0  0  0
    7.4794  -18.8593   21.5190 N   0  0  0  0  0  0  0  0  0  0  0  0
    8.1415  -16.7501   20.6220 C   0  0  0  0  0  0  0  0  0  0  0  0
    8.8175  -15.9788   19.8925 O   0  0  0  0  0  0  0  0  0  0  0  0
    7.4316  -16.1676   21.7015 N   0  0  0  0  0  0  0  0  0  0  0  0
    7.3777  -14.7472   21.8495 C   0  0  0  0  0  0  0  0  0  0  0  0
    8.3376  -14.2580   22.8976 C   0  0  0  0  0  0  0  0  0  0  0  0
    8.5540  -13.0509   23.1009 O   0  0  0  0  0  0  0  0  0  0  0  0
    9.0370  -15.1996   23.7003 N   0  0  0  0  0  0  0  0  0  0  0  0
    9.0723  -15.1672   25.1290 C   0  0  1  0  0  0  0  0  0  0  0  0
    7.6766  -15.2147   25.7376 C   0  0  0  0  0  0  0  0  0  0  0  0
    7.1905  -13.8877   26.1384 C   0  0  0  0  0  0  0  0  0  0  0  0
    7.8774  -12.6931   26.0938 C   0  0  0  0  0  0  0  0  0  0  0  0
    7.0494  -11.7226   26.5572 N   0  0  0  0  0  0  0  0  0  0  0  0
    5.8828  -12.2853   26.8821 C   0  0  0  0  0  0  0  0  0  0  0  0
    5.9683  -13.6101   26.6261 N   0  0  0  0  0  0  0  0  0  0  0  0
    9.8561  -16.2614   25.7236 C   0  0  0  0  0  0  0  0  0  0  0  0
   10.1726  -17.2758   25.0669 O   0  0  0  0  0  0  0  0  0  0  0  0
   10.2598  -16.1784   27.0426 O   0  0  0  0  0  0  0  0  0  0  0  0
  2  1  1  6
  3  2  1  0
  4  5  2  0
  4  2  1  0
  6  4  1  0
  7  6  1  0
  8 10  1  0
  8  7  1  0
  9  8  2  0
 11 10  1  0
 11 12  1  1
 12 13  1  0
 13 17  1  0
 13 14  2  0
 14 15  1  0
 16 15  1  0
 17 16  2  0
 18 11  1  0
 19 18  2  0
 20 18  1  0
M  END
$$$$
