AGH.pdb
     RDKit          3D

 20 20  0  0  1  0  0  0  0  0999 V2000
    6.6228  -18.3060   19.2579 C   0  0  0  0  0  0  0  0  0  0  0  0
    6.9985  -18.1530   20.7029 C   0  0  2  0  0  0  0  0  0  0  0  0
    5.8173  -17.9846   21.5060 N   0  0  0  0  0  0  0  0  0  0  0  0
    7.8986  -16.9804   20.9133 C   0  0  0  0  0  0  0  0  0  0  0  0
    9.0631  -16.9364   20.4377 O   0  0  0  0  0  0  0  0  0  0  0  0
    7.4619  -15.8628   21.6674 N   0  0  0  0  0  0  0  0  0  0  0  0
    8.2708  -14.6878   21.7545 C   0  0  0  0  0  0  0  0  0  0  0  0
    8.9108  -14.5493   23.1074 C   0  0  0  0  0  0  0  0  0  0  0  0
    9.6232  -13.5793   23.4186 O   0  0  0  0  0  0  0  0  0  0  0  0
    8.7049  -15.5594   24.0858 N   0  0  0  0  0  0  0  0  0  0  0  0
    9.2520  -15.5217   25.4060 C   0  0  1  0  0  0  0  0  0  0  0  0
    8.1689  -15.4142   26.4718 C   0  0  0  0  0  0  0  0  0  0  0  0
    7.4035  -14.1642   26.3742 C   0  0  0  0  0  0  0  0  0  0  0  0
    7.6792  -12.9608   26.9879 C   0  0  0  0  0  0  0  0  0  0  0  0
    6.7141  -12.0794   26.6219 N   0  0  0  0  0  0  0  0  0  0  0  0
    5.8610  -12.7048   25.8069 C   0  0  0  0  0  0  0  0  0  0  0  0
    6.2822  -13.9806   25.6548 N   0  0  0  0  0  0  0  0  0  0  0  0
   10.0847  -16.6903   25.7320 C   0  0  0  0  0  0  0  0  0  0  0  0
   10.2147  -17.6468   24.9391 O   0  0  0  0  0  0  0  0  0  0  0  0
   10.7464  -16.7448   26.9439 O   0  0  0  0  0  0  0  0  0  0  0  0
  2  1  1  6
  3  2  1  0
  4  5  2  0
  4  2  1  0
  6  4  1  0
  7  6  1  0
  8 10  1  0
  8  7  1  0
  9  8  2  0
 11 10  1  0
 11 12  1  1
 12 13  1  0
 13 17  1  0
 13 14  2  0
 14 15  1  0
 16 15  1  0
 17 16  2  0
 18 11  1  0
 19 18  2  0
 20 18  1  0
M  END
$$$$
