AGH.pdb
     RDKit          3D

 20 20  0  0  1  0  0  0  0  0999 V2000
    6.1092  -14.8665   19.9906 C   0  0  0  0  0  0  0  0  0  0  0  0
    7.4412  -15.5582   19.9950 C   0  0  2  0  0  0  0  0  0  0  0  0
    7.2790  -16.9417   20.3530 N   0  0  0  0  0  0  0  0  0  0  0  0
    8.3879  -14.9169   20.9552 C   0  0  0  0  0  0  0  0  0  0  0  0
    8.7613  -13.7215   20.8299 O   0  0  0  0  0  0  0  0  0  0  0  0
    8.9035  -15.6470   22.0551 N   0  0  0  0  0  0  0  0  0  0  0  0
    9.7472  -15.0085   23.0158 C   0  0  0  0  0  0  0  0  0  0  0  0
   10.0807  -15.9227   24.1613 C   0  0  0  0  0  0  0  0  0  0  0  0
   10.2543  -17.1453   24.0179 O   0  0  0  0  0  0  0  0  0  0  0  0
   10.2072  -15.3860   25.4712 N   0  0  0  0  0  0  0  0  0  0  0  0
    9.4715  -15.8529   26.6046 C   0  0  1  0  0  0  0  0  0  0  0  0
    7.9666  -15.7695   26.3844 C   0  0  0  0  0  0  0  0  0  0  0  0
    7.4640  -14.3903   26.4392 C   0  0  0  0  0  0  0  0  0  0  0  0
    8.1615  -13.2561   26.7972 C   0  0  0  0  0  0  0  0  0  0  0  0
    7.3108  -12.2022   26.7076 N   0  0  0  0  0  0  0  0  0  0  0  0
    6.1203  -12.6559   26.3077 C   0  0  0  0  0  0  0  0  0  0  0  0
    6.2132  -13.9946   26.1432 N   0  0  0  0  0  0  0  0  0  0  0  0
    9.7911  -17.2383   26.9841 C   0  0  0  0  0  0  0  0  0  0  0  0
   10.5314  -17.4998   27.9557 O   0  0  0  0  0  0  0  0  0  0  0  0
    9.2655  -18.2881   26.2552 O   0  0  0  0  0  0  0  0  0  0  0  0
  2  1  1  1
  3  2  1  0
  4  5  2  0
  4  2  1  0
  6  4  1  0
  7  6  1  0
  8 10  1  0
  8  7  1  0
  9  8  2  0
 11 10  1  0
 11 12  1  6
 12 13  1  0
 13 17  1  0
 13 14  2  0
 14 15  1  0
 16 15  1  0
 17 16  2  0
 18 11  1  0
 19 18  2  0
 20 18  1  0
M  END
$$$$
