AGH.pdb
     RDKit          3D

 20 20  0  0  1  0  0  0  0  0999 V2000
    6.2940  -18.4612   19.5796 C   0  0  0  0  0  0  0  0  0  0  0  0
    7.0622  -18.3402   20.8633 C   0  0  2  0  0  0  0  0  0  0  0  0
    6.2023  -18.6174   21.9824 N   0  0  0  0  0  0  0  0  0  0  0  0
    7.6445  -16.9750   21.0263 C   0  0  0  0  0  0  0  0  0  0  0  0
    8.7886  -16.6790   20.5931 O   0  0  0  0  0  0  0  0  0  0  0  0
    6.9146  -15.9540   21.6845 N   0  0  0  0  0  0  0  0  0  0  0  0
    7.4134  -14.6151   21.7188 C   0  0  0  0  0  0  0  0  0  0  0  0
    8.2333  -14.3560   22.9517 C   0  0  0  0  0  0  0  0  0  0  0  0
    8.7116  -13.2403   23.2194 O   0  0  0  0  0  0  0  0  0  0  0  0
    8.4833  -15.4184   23.8620 N   0  0  0  0  0  0  0  0  0  0  0  0
    9.1712  -15.2647   25.1058 C   0  0  1  0  0  0  0  0  0  0  0  0
    8.2122  -15.2157   26.2883 C   0  0  0  0  0  0  0  0  0  0  0  0
    7.4528  -13.9596   26.3471 C   0  0  0  0  0  0  0  0  0  0  0  0
    7.9546  -12.6759   26.3822 C   0  0  0  0  0  0  0  0  0  0  0  0
    6.9012  -11.8215   26.4327 N   0  0  0  0  0  0  0  0  0  0  0  0
    5.7762  -12.5408   26.4294 C   0  0  0  0  0  0  0  0  0  0  0  0
    6.1129  -13.8492   26.3771 N   0  0  0  0  0  0  0  0  0  0  0  0
   10.1530  -16.3283   25.3710 C   0  0  0  0  0  0  0  0  0  0  0  0
   10.2553  -17.3285   24.6297 O   0  0  0  0  0  0  0  0  0  0  0  0
   10.9908  -16.2314   26.4656 O   0  0  0  0  0  0  0  0  0  0  0  0
  2  1  1  6
  3  2  1  0
  4  5  2  0
  4  2  1  0
  6  4  1  0
  7  6  1  0
  8 10  1  0
  8  7  1  0
  9  8  2  0
 11 10  1  0
 11 12  1  1
 12 13  1  0
 13 17  1  0
 13 14  2  0
 14 15  1  0
 16 15  1  0
 17 16  2  0
 18 11  1  0
 19 18  2  0
 20 18  1  0
M  END
$$$$
