AGH.pdb
     RDKit          3D

 20 20  0  0  1  0  0  0  0  0999 V2000
    8.1478  -19.2991   16.1161 C   0  0  0  0  0  0  0  0  0  0  0  0
    8.6854  -18.0158   16.6788 C   0  0  2  0  0  0  0  0  0  0  0  0
    9.6068  -17.4165   15.7513 N   0  0  0  0  0  0  0  0  0  0  0  0
    9.3836  -18.2384   17.9798 C   0  0  0  0  0  0  0  0  0  0  0  0
    8.7895  -18.7028   18.9876 O   0  0  0  0  0  0  0  0  0  0  0  0
   10.7592  -17.9285   18.1217 N   0  0  0  0  0  0  0  0  0  0  0  0
   11.4286  -18.1592   19.3632 C   0  0  0  0  0  0  0  0  0  0  0  0
   11.3275  -16.9731   20.2810 C   0  0  0  0  0  0  0  0  0  0  0  0
   12.0351  -15.9594   20.1507 O   0  0  0  0  0  0  0  0  0  0  0  0
   10.3896  -16.9922   21.3486 N   0  0  0  0  0  0  0  0  0  0  0  0
   10.2418  -15.9410   22.3062 C   0  0  1  0  0  0  0  0  0  0  0  0
    8.8277  -15.3748   22.3212 C   0  0  0  0  0  0  0  0  0  0  0  0
    8.4711  -14.7142   21.0586 C   0  0  0  0  0  0  0  0  0  0  0  0
    9.2783  -14.5127   19.9591 C   0  0  0  0  0  0  0  0  0  0  0  0
    8.5436  -13.8643   19.0200 N   0  0  0  0  0  0  0  0  0  0  0  0
    7.3175  -13.6644   19.5099 C   0  0  0  0  0  0  0  0  0  0  0  0
    7.2724  -14.1842   20.7573 N   0  0  0  0  0  0  0  0  0  0  0  0
   10.5753  -16.3457   23.6810 C   0  0  0  0  0  0  0  0  0  0  0  0
   10.7107  -17.5463   23.9986 O   0  0  0  0  0  0  0  0  0  0  0  0
   10.7461  -15.3830   24.6575 O   0  0  0  0  0  0  0  0  0  0  0  0
  2  1  1  6
  3  2  1  0
  4  5  2  0
  4  2  1  0
  6  4  1  0
  7  6  1  0
  8 10  1  0
  8  7  1  0
  9  8  2  0
 11 10  1  0
 11 12  1  1
 12 13  1  0
 13 17  1  0
 13 14  2  0
 14 15  1  0
 16 15  1  0
 17 16  2  0
 18 11  1  0
 19 18  2  0
 20 18  1  0
M  END
$$$$
