AGH.pdb
     RDKit          3D

 20 20  0  0  1  0  0  0  0  0999 V2000
    6.9222  -18.8745   17.9727 C   0  0  0  0  0  0  0  0  0  0  0  0
    8.1613  -19.7084   18.1207 C   0  0  2  0  0  0  0  0  0  0  0  0
    8.1679  -20.3615   19.4021 N   0  0  0  0  0  0  0  0  0  0  0  0
    9.3971  -18.8801   17.9928 C   0  0  0  0  0  0  0  0  0  0  0  0
    9.6971  -18.2858   16.9246 O   0  0  0  0  0  0  0  0  0  0  0  0
   10.2845  -18.7356   19.0883 N   0  0  0  0  0  0  0  0  0  0  0  0
   11.4291  -17.8861   18.9852 C   0  0  0  0  0  0  0  0  0  0  0  0
   11.4798  -16.8795   20.1003 C   0  0  0  0  0  0  0  0  0  0  0  0
   12.4245  -16.0849   20.2471 O   0  0  0  0  0  0  0  0  0  0  0  0
   10.4123  -16.8177   21.0366 N   0  0  0  0  0  0  0  0  0  0  0  0
   10.3248  -15.8576   22.0921 C   0  0  1  0  0  0  0  0  0  0  0  0
    8.9217  -15.2798   22.2259 C   0  0  0  0  0  0  0  0  0  0  0  0
    8.5085  -14.5210   21.0378 C   0  0  0  0  0  0  0  0  0  0  0  0
    9.2786  -14.1901   19.9431 C   0  0  0  0  0  0  0  0  0  0  0  0
    8.4966  -13.4872   19.0848 N   0  0  0  0  0  0  0  0  0  0  0  0
    7.2777  -13.3791   19.6194 C   0  0  0  0  0  0  0  0  0  0  0  0
    7.2842  -14.0114   20.8144 N   0  0  0  0  0  0  0  0  0  0  0  0
   10.7153  -16.3907   23.4069 C   0  0  0  0  0  0  0  0  0  0  0  0
   10.7929  -15.6591   24.4165 O   0  0  0  0  0  0  0  0  0  0  0  0
   11.0067  -17.7346   23.5435 O   0  0  0  0  0  0  0  0  0  0  0  0
  2  1  1  1
  3  2  1  0
  4  5  2  0
  4  2  1  0
  6  4  1  0
  7  6  1  0
  8 10  1  0
  8  7  1  0
  9  8  2  0
 11 10  1  0
 11 12  1  1
 12 13  1  0
 13 17  1  0
 13 14  2  0
 14 15  1  0
 16 15  1  0
 17 16  2  0
 18 11  1  0
 19 18  2  0
 20 18  1  0
M  END
$$$$
