AGH.pdb
     RDKit          3D

 20 20  0  0  1  0  0  0  0  0999 V2000
    7.9248  -16.7606   14.5981 C   0  0  0  0  0  0  0  0  0  0  0  0
    8.8345  -16.7932   15.7914 C   0  0  2  0  0  0  0  0  0  0  0  0
    8.1701  -17.4185   16.9032 N   0  0  0  0  0  0  0  0  0  0  0  0
    9.2612  -15.4195   16.1922 C   0  0  0  0  0  0  0  0  0  0  0  0
   10.0192  -14.7174   15.4735 O   0  0  0  0  0  0  0  0  0  0  0  0
    8.8181  -14.8552   17.4144 N   0  0  0  0  0  0  0  0  0  0  0  0
    9.1712  -13.5147   17.7626 C   0  0  0  0  0  0  0  0  0  0  0  0
   10.4442  -13.4616   18.5599 C   0  0  0  0  0  0  0  0  0  0  0  0
   10.9289  -12.3981   18.9835 O   0  0  0  0  0  0  0  0  0  0  0  0
   11.1377  -14.6672   18.8524 N   0  0  0  0  0  0  0  0  0  0  0  0
   12.3279  -14.7375   19.6412 C   0  0  1  0  0  0  0  0  0  0  0  0
   12.3716  -15.9941   20.5012 C   0  0  0  0  0  0  0  0  0  0  0  0
   11.2966  -16.0305   21.5017 C   0  0  0  0  0  0  0  0  0  0  0  0
   10.7440  -14.9646   22.1796 C   0  0  0  0  0  0  0  0  0  0  0  0
    9.7834  -15.4528   23.0050 N   0  0  0  0  0  0  0  0  0  0  0  0
    9.7325  -16.7785   22.8527 C   0  0  0  0  0  0  0  0  0  0  0  0
   10.6581  -17.1327   21.9330 N   0  0  0  0  0  0  0  0  0  0  0  0
   13.5650  -14.6981   18.8452 C   0  0  0  0  0  0  0  0  0  0  0  0
   13.5467  -14.7647   17.5979 O   0  0  0  0  0  0  0  0  0  0  0  0
   14.7867  -14.5847   19.4809 O   0  0  0  0  0  0  0  0  0  0  0  0
  2  1  1  6
  3  2  1  0
  4  5  2  0
  4  2  1  0
  6  4  1  0
  7  6  1  0
  8 10  1  0
  8  7  1  0
  9  8  2  0
 11 10  1  0
 11 12  1  6
 12 13  1  0
 13 17  1  0
 13 14  2  0
 14 15  1  0
 16 15  1  0
 17 16  2  0
 18 11  1  0
 19 18  2  0
 20 18  1  0
M  END
$$$$
