DTM.pdb
     RDKit          3D

 24 23  0  0  1  0  0  0  0  0999 V2000
    9.8856  -13.4256   18.5586 N   0  0  0  0  0  0  0  0  0  0  0  0
    8.4555  -13.4148   18.7035 C   0  0  1  0  0  0  0  0  0  0  0  0
    7.7577  -13.7255   17.4155 C   0  0  0  0  0  0  0  0  0  0  0  0
    8.7171  -14.1937   16.3937 C   0  0  0  0  0  0  0  0  0  0  0  0
    9.8920  -14.5593   16.6469 O   0  0  0  0  0  0  0  0  0  0  0  0
    8.0141  -14.3508   19.7498 C   0  0  0  0  0  0  0  0  0  0  0  0
    6.7650  -14.4307   20.0200 O   0  0  0  0  0  0  0  0  0  0  0  0
    8.3435  -14.2529   15.0438 O   0  0  0  0  0  0  0  0  0  0  0  0
    8.4267  -17.9095   19.9905 C   0  0  0  0  0  0  0  0  0  0  0  0
    8.9862  -17.3918   21.2909 C   0  0  1  0  0  0  0  0  0  0  0  0
   10.3819  -17.2288   21.1355 O   0  0  0  0  0  0  0  0  0  0  0  0
    8.4478  -16.0074   21.5639 C   0  0  2  0  0  0  0  0  0  0  0  0
    8.9217  -15.1551   20.4597 N   0  0  0  0  0  0  0  0  0  0  0  0
    8.8978  -15.4141   22.8336 C   0  0  0  0  0  0  0  0  0  0  0  0
    9.8564  -14.5746   22.7802 O   0  0  0  0  0  0  0  0  0  0  0  0
    5.7542  -12.1058   26.4388 C   0  0  0  0  0  0  0  0  0  0  0  0
    7.4275  -11.7495   27.0870 S   0  0  0  0  0  0  0  0  0  0  0  0
    8.3679  -13.3229   26.9146 C   0  0  0  0  0  0  0  0  0  0  0  0
    7.9607  -13.9777   25.6295 C   0  0  0  0  0  0  0  0  0  0  0  0
    8.8767  -15.1173   25.2711 C   0  0  2  0  0  0  0  0  0  0  0  0
    8.3053  -15.7423   24.0743 N   0  0  0  0  0  0  0  0  0  0  0  0
    8.8821  -16.1137   26.3548 C   0  0  0  0  0  0  0  0  0  0  0  0
    8.2930  -17.2147   26.2756 O   0  0  0  0  0  0  0  0  0  0  0  0
    9.5656  -15.8450   27.5315 O   0  0  0  0  0  0  0  0  0  0  0  0
  2  1  1  6
  2  3  1  0
  3  4  1  0
  4  5  2  0
  4  8  1  0
  6 13  1  0
  6  2  1  0
  7  6  2  0
 10  9  1  6
 10 12  1  0
 11 10  1  0
 12 13  1  6
 12 14  1  0
 14 21  1  0
 14 15  2  0
 17 16  1  0
 17 18  1  0
 18 19  1  0
 20 19  1  1
 21 20  1  0
 22 20  1  0
 22 24  1  0
 23 22  2  0
M  END
$$$$
