DTM.pdb
     RDKit          3D

 24 23  0  0  1  0  0  0  0  0999 V2000
    8.1069  -19.8687   18.6568 N   0  0  0  0  0  0  0  0  0  0  0  0
    8.6684  -18.7184   19.3108 C   0  0  1  0  0  0  0  0  0  0  0  0
    8.8575  -17.5716   18.3668 C   0  0  0  0  0  0  0  0  0  0  0  0
    9.9531  -17.8459   17.4138 C   0  0  0  0  0  0  0  0  0  0  0  0
   10.6336  -18.9019   17.4093 O   0  0  0  0  0  0  0  0  0  0  0  0
    7.8443  -18.2944   20.4539 C   0  0  0  0  0  0  0  0  0  0  0  0
    6.5706  -18.3912   20.3667 O   0  0  0  0  0  0  0  0  0  0  0  0
   10.2946  -16.9027   16.4345 O   0  0  0  0  0  0  0  0  0  0  0  0
    6.5778  -19.7851   22.4393 C   0  0  0  0  0  0  0  0  0  0  0  0
    7.3184  -18.9195   23.4263 C   0  0  1  0  0  0  0  0  0  0  0  0
    8.5975  -19.4848   23.6341 O   0  0  0  0  0  0  0  0  0  0  0  0
    7.5736  -17.5590   22.8224 C   0  0  2  0  0  0  0  0  0  0  0  0
    8.4138  -17.7860   21.6338 N   0  0  0  0  0  0  0  0  0  0  0  0
    8.2720  -16.6154   23.7105 C   0  0  0  0  0  0  0  0  0  0  0  0
    9.4899  -16.3496   23.4406 O   0  0  0  0  0  0  0  0  0  0  0  0
    6.1397  -11.0254   25.8245 C   0  0  0  0  0  0  0  0  0  0  0  0
    6.7321  -11.7321   27.4046 S   0  0  0  0  0  0  0  0  0  0  0  0
    8.0180  -12.9654   26.9412 C   0  0  0  0  0  0  0  0  0  0  0  0
    7.3848  -13.9988   26.0596 C   0  0  0  0  0  0  0  0  0  0  0  0
    8.3976  -14.9854   25.5428 C   0  0  2  0  0  0  0  0  0  0  0  0
    7.6394  -16.0121   24.8213 N   0  0  0  0  0  0  0  0  0  0  0  0
    9.0888  -15.6296   26.6719 C   0  0  0  0  0  0  0  0  0  0  0  0
    9.8751  -15.0204   27.4309 O   0  0  0  0  0  0  0  0  0  0  0  0
    8.8761  -16.9758   26.9296 O   0  0  0  0  0  0  0  0  0  0  0  0
  2  1  1  6
  2  3  1  0
  3  4  1  0
  4  5  2  0
  4  8  1  0
  6 13  1  0
  6  2  1  0
  7  6  2  0
 10  9  1  6
 10 12  1  0
 11 10  1  0
 12 13  1  6
 12 14  1  0
 14 21  1  0
 14 15  2  0
 17 16  1  0
 17 18  1  0
 18 19  1  0
 20 19  1  1
 21 20  1  0
 22 20  1  0
 22 24  1  0
 23 22  2  0
M  END
$$$$
