DTM.pdb
     RDKit          3D

 24 23  0  0  1  0  0  0  0  0999 V2000
   12.2327  -18.6928   20.3858 N   0  0  0  0  0  0  0  0  0  0  0  0
   11.7266  -17.5672   19.6488 C   0  0  1  0  0  0  0  0  0  0  0  0
   11.3777  -17.9298   18.2384 C   0  0  0  0  0  0  0  0  0  0  0  0
   12.5949  -18.1969   17.4443 C   0  0  0  0  0  0  0  0  0  0  0  0
   12.6119  -18.8825   16.3918 O   0  0  0  0  0  0  0  0  0  0  0  0
   10.5584  -16.9698   20.3150 C   0  0  0  0  0  0  0  0  0  0  0  0
   10.0013  -15.9462   19.7846 O   0  0  0  0  0  0  0  0  0  0  0  0
   13.8330  -17.6764   17.8465 O   0  0  0  0  0  0  0  0  0  0  0  0
    7.2900  -18.0809   20.7361 C   0  0  0  0  0  0  0  0  0  0  0  0
    7.7696  -17.8638   22.1485 C   0  0  1  0  0  0  0  0  0  0  0  0
    8.3573  -19.0665   22.6034 O   0  0  0  0  0  0  0  0  0  0  0  0
    8.8829  -16.8433   22.1592 C   0  0  2  0  0  0  0  0  0  0  0  0
   10.0399  -17.4879   21.5140 N   0  0  0  0  0  0  0  0  0  0  0  0
    9.2905  -16.3948   23.5006 C   0  0  0  0  0  0  0  0  0  0  0  0
   10.4995  -16.6076   23.8468 O   0  0  0  0  0  0  0  0  0  0  0  0
    6.6708  -10.5579   26.1309 C   0  0  0  0  0  0  0  0  0  0  0  0
    6.4314  -12.3105   26.5979 S   0  0  0  0  0  0  0  0  0  0  0  0
    7.9414  -13.1867   26.0133 C   0  0  0  0  0  0  0  0  0  0  0  0
    7.8315  -14.6291   26.4052 C   0  0  0  0  0  0  0  0  0  0  0  0
    8.8886  -15.4687   25.7391 C   0  0  2  0  0  0  0  0  0  0  0  0
    8.3980  -15.7487   24.3862 N   0  0  0  0  0  0  0  0  0  0  0  0
    9.0331  -16.7485   26.4523 C   0  0  0  0  0  0  0  0  0  0  0  0
    8.4899  -17.8095   26.0718 O   0  0  0  0  0  0  0  0  0  0  0  0
    9.8030  -16.8096   27.6044 O   0  0  0  0  0  0  0  0  0  0  0  0
  2  1  1  1
  2  3  1  0
  3  4  1  0
  4  5  2  0
  4  8  1  0
  6 13  1  0
  6  2  1  0
  7  6  2  0
 10  9  1  6
 10 12  1  0
 11 10  1  0
 12 13  1  1
 12 14  1  0
 14 21  1  0
 14 15  2  0
 17 16  1  0
 17 18  1  0
 18 19  1  0
 20 19  1  1
 21 20  1  0
 22 20  1  0
 22 24  1  0
 23 22  2  0
M  END
$$$$
