DTM.pdb
     RDKit          3D

 24 23  0  0  1  0  0  0  0  0999 V2000
   13.5974  -18.6060   21.1167 N   0  0  0  0  0  0  0  0  0  0  0  0
   13.5645  -17.1721   21.2128 C   0  0  1  0  0  0  0  0  0  0  0  0
   13.4755  -16.5205   19.8676 C   0  0  0  0  0  0  0  0  0  0  0  0
   14.8000  -16.4731   19.2141 C   0  0  0  0  0  0  0  0  0  0  0  0
   15.6532  -17.3924   19.2858 O   0  0  0  0  0  0  0  0  0  0  0  0
   12.4539  -16.7159   22.0638 C   0  0  0  0  0  0  0  0  0  0  0  0
   12.2109  -15.4612   22.1420 O   0  0  0  0  0  0  0  0  0  0  0  0
   15.1776  -15.3561   18.4557 O   0  0  0  0  0  0  0  0  0  0  0  0
    9.0084  -18.4913   22.2388 C   0  0  0  0  0  0  0  0  0  0  0  0
    9.5079  -18.2230   23.6355 C   0  0  1  0  0  0  0  0  0  0  0  0
   10.2028  -19.3704   24.0821 O   0  0  0  0  0  0  0  0  0  0  0  0
   10.5353  -17.1165   23.6072 C   0  0  2  0  0  0  0  0  0  0  0  0
   11.6566  -17.6151   22.7921 N   0  0  0  0  0  0  0  0  0  0  0  0
   11.0578  -16.7313   24.9284 C   0  0  0  0  0  0  0  0  0  0  0  0
   12.2965  -16.9384   25.1510 O   0  0  0  0  0  0  0  0  0  0  0  0
    6.9056  -12.2286   27.7918 C   0  0  0  0  0  0  0  0  0  0  0  0
    8.7118  -12.4551   27.9750 S   0  0  0  0  0  0  0  0  0  0  0  0
    9.0461  -14.1890   27.4543 C   0  0  0  0  0  0  0  0  0  0  0  0
   10.5222  -14.4324   27.5440 C   0  0  0  0  0  0  0  0  0  0  0  0
   10.8717  -15.8595   27.2164 C   0  0  2  0  0  0  0  0  0  0  0  0
   10.2412  -16.1504   25.9252 N   0  0  0  0  0  0  0  0  0  0  0  0
   10.2927  -16.7602   28.2268 C   0  0  0  0  0  0  0  0  0  0  0  0
    9.3124  -17.5039   27.9997 O   0  0  0  0  0  0  0  0  0  0  0  0
   10.8408  -16.8069   29.5001 O   0  0  0  0  0  0  0  0  0  0  0  0
  2  1  1  6
  2  3  1  0
  3  4  1  0
  4  5  2  0
  4  8  1  0
  6 13  1  0
  6  2  1  0
  7  6  2  0
 10  9  1  6
 10 12  1  0
 11 10  1  0
 12 13  1  6
 12 14  1  0
 14 21  1  0
 14 15  2  0
 17 16  1  0
 17 18  1  0
 18 19  1  0
 20 19  1  1
 21 20  1  0
 22 20  1  0
 22 24  1  0
 23 22  2  0
M  END
$$$$
