DTM.pdb
     RDKit          3D

 24 23  0  0  1  0  0  0  0  0999 V2000
    9.9431  -18.5400   19.4261 N   0  0  0  0  0  0  0  0  0  0  0  0
   10.9745  -17.5597   19.6299 C   0  0  1  0  0  0  0  0  0  0  0  0
   11.5693  -17.0927   18.3375 C   0  0  0  0  0  0  0  0  0  0  0  0
   12.2323  -18.2062   17.6274 C   0  0  0  0  0  0  0  0  0  0  0  0
   13.0359  -19.0062   18.1681 O   0  0  0  0  0  0  0  0  0  0  0  0
   10.4763  -16.4066   20.3965 C   0  0  0  0  0  0  0  0  0  0  0  0
   11.2831  -15.4500   20.6676 O   0  0  0  0  0  0  0  0  0  0  0  0
   11.9840  -18.4273   16.2654 O   0  0  0  0  0  0  0  0  0  0  0  0
    7.1004  -14.4810   19.8571 C   0  0  0  0  0  0  0  0  0  0  0  0
    7.2341  -14.9654   21.2783 C   0  0  1  0  0  0  0  0  0  0  0  0
    6.6540  -16.2520   21.3610 O   0  0  0  0  0  0  0  0  0  0  0  0
    8.6930  -15.1598   21.6169 C   0  0  2  0  0  0  0  0  0  0  0  0
    9.1451  -16.3269   20.8398 N   0  0  0  0  0  0  0  0  0  0  0  0
    8.9626  -15.4183   23.0408 C   0  0  0  0  0  0  0  0  0  0  0  0
   10.0953  -15.0514   23.4981 O   0  0  0  0  0  0  0  0  0  0  0  0
    7.0290  -11.3197   28.3856 C   0  0  0  0  0  0  0  0  0  0  0  0
    6.9068  -11.9391   26.6685 S   0  0  0  0  0  0  0  0  0  0  0  0
    7.4701  -13.6905   26.7353 C   0  0  0  0  0  0  0  0  0  0  0  0
    7.5313  -14.2203   25.3347 C   0  0  0  0  0  0  0  0  0  0  0  0
    8.0239  -15.6424   25.2987 C   0  0  2  0  0  0  0  0  0  0  0  0
    8.0194  -16.0427   23.8884 N   0  0  0  0  0  0  0  0  0  0  0  0
    7.0887  -16.5136   26.0293 C   0  0  0  0  0  0  0  0  0  0  0  0
    7.3179  -16.9532   27.1782 O   0  0  0  0  0  0  0  0  0  0  0  0
    5.8882  -16.8804   25.4393 O   0  0  0  0  0  0  0  0  0  0  0  0
  2  1  1  6
  2  3  1  0
  3  4  1  0
  4  5  2  0
  4  8  1  0
  6 13  1  0
  6  2  1  0
  7  6  2  0
 10  9  1  6
 10 12  1  0
 11 10  1  0
 12 13  1  6
 12 14  1  0
 14 21  1  0
 14 15  2  0
 17 16  1  0
 17 18  1  0
 18 19  1  0
 20 19  1  6
 21 20  1  0
 22 20  1  0
 22 24  1  0
 23 22  2  0
M  END
$$$$
