DTM.pdb
     RDKit          3D

 24 23  0  0  1  0  0  0  0  0999 V2000
   11.3925  -18.5003   19.3173 N   0  0  0  0  0  0  0  0  0  0  0  0
   10.4896  -17.5145   18.7888 C   0  0  1  0  0  0  0  0  0  0  0  0
    9.8201  -17.9812   17.5333 C   0  0  0  0  0  0  0  0  0  0  0  0
   10.8087  -18.2019   16.4573 C   0  0  0  0  0  0  0  0  0  0  0  0
   11.2538  -19.3306   16.1316 O   0  0  0  0  0  0  0  0  0  0  0  0
    9.4751  -17.1274   19.7821 C   0  0  0  0  0  0  0  0  0  0  0  0
    8.5027  -16.3806   19.4129 O   0  0  0  0  0  0  0  0  0  0  0  0
   11.3131  -17.1188   15.7239 O   0  0  0  0  0  0  0  0  0  0  0  0
    7.3470  -19.3961   21.3381 C   0  0  0  0  0  0  0  0  0  0  0  0
    7.9300  -18.6374   22.5028 C   0  0  1  0  0  0  0  0  0  0  0  0
    9.0825  -19.3269   22.9445 O   0  0  0  0  0  0  0  0  0  0  0  0
    8.4227  -17.2874   22.0383 C   0  0  2  0  0  0  0  0  0  0  0  0
    9.5443  -17.5509   21.1202 N   0  0  0  0  0  0  0  0  0  0  0  0
    8.9025  -16.4062   23.1154 C   0  0  0  0  0  0  0  0  0  0  0  0
   10.1478  -16.1319   23.1362 O   0  0  0  0  0  0  0  0  0  0  0  0
    5.9698  -11.4945   25.6109 C   0  0  0  0  0  0  0  0  0  0  0  0
    6.6200  -12.1128   27.2053 S   0  0  0  0  0  0  0  0  0  0  0  0
    7.9840  -13.2686   26.7660 C   0  0  0  0  0  0  0  0  0  0  0  0
    7.5570  -14.0714   25.5747 C   0  0  0  0  0  0  0  0  0  0  0  0
    8.6416  -15.0107   25.1190 C   0  0  2  0  0  0  0  0  0  0  0  0
    8.0373  -15.8699   24.0963 N   0  0  0  0  0  0  0  0  0  0  0  0
    9.0707  -15.8607   26.2418 C   0  0  0  0  0  0  0  0  0  0  0  0
    8.6585  -17.0297   26.4122 O   0  0  0  0  0  0  0  0  0  0  0  0
    9.9751  -15.3670   27.1704 O   0  0  0  0  0  0  0  0  0  0  0  0
  2  1  1  1
  2  3  1  0
  3  4  1  0
  4  5  2  0
  4  8  1  0
  6 13  1  0
  6  2  1  0
  7  6  2  0
 10  9  1  6
 10 12  1  0
 11 10  1  0
 12 13  1  6
 12 14  1  0
 14 21  1  0
 14 15  2  0
 17 16  1  0
 17 18  1  0
 18 19  1  0
 20 19  1  1
 21 20  1  0
 22 20  1  0
 22 24  1  0
 23 22  2  0
M  END
$$$$
