DTM.pdb
     RDKit          3D

 24 23  0  0  1  0  0  0  0  0999 V2000
   12.1470  -17.7129   18.2499 N   0  0  0  0  0  0  0  0  0  0  0  0
   12.1100  -17.8049   19.6840 C   0  0  1  0  0  0  0  0  0  0  0  0
   13.4011  -17.3740   20.3083 C   0  0  0  0  0  0  0  0  0  0  0  0
   14.4939  -18.3058   19.9603 C   0  0  0  0  0  0  0  0  0  0  0  0
   15.2903  -18.1306   19.0047 O   0  0  0  0  0  0  0  0  0  0  0  0
   10.9976  -17.0213   20.2444 C   0  0  0  0  0  0  0  0  0  0  0  0
   10.6756  -15.9167   19.6825 O   0  0  0  0  0  0  0  0  0  0  0  0
   14.6979  -19.4721   20.7109 O   0  0  0  0  0  0  0  0  0  0  0  0
    7.6715  -18.1107   20.3440 C   0  0  0  0  0  0  0  0  0  0  0  0
    7.9422  -17.7053   21.7703 C   0  0  1  0  0  0  0  0  0  0  0  0
    8.4058  -18.8426   22.4706 O   0  0  0  0  0  0  0  0  0  0  0  0
    9.0818  -16.7150   21.8127 C   0  0  2  0  0  0  0  0  0  0  0  0
   10.2824  -17.4485   21.3761 N   0  0  0  0  0  0  0  0  0  0  0  0
    9.3467  -16.1419   23.1424 C   0  0  0  0  0  0  0  0  0  0  0  0
   10.4196  -16.5005   23.7313 O   0  0  0  0  0  0  0  0  0  0  0  0
    5.3096  -12.2215   26.6662 C   0  0  0  0  0  0  0  0  0  0  0  0
    6.9973  -11.6001   27.0014 S   0  0  0  0  0  0  0  0  0  0  0  0
    8.1108  -13.0474   26.7673 C   0  0  0  0  0  0  0  0  0  0  0  0
    7.9284  -13.5622   25.3716 C   0  0  0  0  0  0  0  0  0  0  0  0
    8.8570  -14.7095   25.0760 C   0  0  2  0  0  0  0  0  0  0  0  0
    8.4651  -15.2264   23.7612 N   0  0  0  0  0  0  0  0  0  0  0  0
    8.6625  -15.7785   26.0694 C   0  0  0  0  0  0  0  0  0  0  0  0
    7.8476  -16.7155   25.9163 O   0  0  0  0  0  0  0  0  0  0  0  0
    9.4055  -15.7711   27.2406 O   0  0  0  0  0  0  0  0  0  0  0  0
  2  1  1  6
  2  3  1  0
  3  4  1  0
  4  5  2  0
  4  8  1  0
  6 13  1  0
  6  2  1  0
  7  6  2  0
 10  9  1  6
 10 12  1  0
 11 10  1  0
 12 13  1  1
 12 14  1  0
 14 21  1  0
 14 15  2  0
 17 16  1  0
 17 18  1  0
 18 19  1  0
 20 19  1  1
 21 20  1  0
 22 20  1  0
 22 24  1  0
 23 22  2  0
M  END
$$$$
