DTM.pdb
     RDKit          3D

 24 23  0  0  1  0  0  0  0  0999 V2000
   10.2971  -17.0584   18.4274 N   0  0  0  0  0  0  0  0  0  0  0  0
    9.0727  -16.3054   18.4438 C   0  0  1  0  0  0  0  0  0  0  0  0
    8.2026  -16.6214   17.2668 C   0  0  0  0  0  0  0  0  0  0  0  0
    9.0039  -16.7262   16.0296 C   0  0  0  0  0  0  0  0  0  0  0  0
   10.2292  -17.0025   16.0063 O   0  0  0  0  0  0  0  0  0  0  0  0
    8.3241  -16.5238   19.6919 C   0  0  0  0  0  0  0  0  0  0  0  0
    7.1786  -15.9687   19.8302 O   0  0  0  0  0  0  0  0  0  0  0  0
    8.4085  -16.5135   14.7784 O   0  0  0  0  0  0  0  0  0  0  0  0
    7.6055  -19.0856   23.7854 C   0  0  0  0  0  0  0  0  0  0  0  0
    8.2557  -18.8868   22.4401 C   0  0  1  0  0  0  0  0  0  0  0  0
    7.5534  -19.6664   21.4926 O   0  0  0  0  0  0  0  0  0  0  0  0
    8.0785  -17.4551   21.9932 C   0  0  2  0  0  0  0  0  0  0  0  0
    8.8302  -17.3199   20.7335 N   0  0  0  0  0  0  0  0  0  0  0  0
    8.5814  -16.4497   22.9434 C   0  0  0  0  0  0  0  0  0  0  0  0
    9.8317  -16.1986   22.9227 O   0  0  0  0  0  0  0  0  0  0  0  0
    6.8905  -10.8285   28.1277 C   0  0  0  0  0  0  0  0  0  0  0  0
    6.2344  -11.9669   26.8547 S   0  0  0  0  0  0  0  0  0  0  0  0
    7.6738  -12.9756   26.3069 C   0  0  0  0  0  0  0  0  0  0  0  0
    7.2141  -13.9056   25.2253 C   0  0  0  0  0  0  0  0  0  0  0  0
    8.3460  -14.7438   24.6940 C   0  0  2  0  0  0  0  0  0  0  0  0
    7.7328  -15.7734   23.8493 N   0  0  0  0  0  0  0  0  0  0  0  0
    9.0384  -15.4123   25.8081 C   0  0  0  0  0  0  0  0  0  0  0  0
    9.9458  -14.8678   26.4756 O   0  0  0  0  0  0  0  0  0  0  0  0
    8.6875  -16.7083   26.1561 O   0  0  0  0  0  0  0  0  0  0  0  0
  2  1  1  1
  2  3  1  0
  3  4  1  0
  4  5  2  0
  4  8  1  0
  6 13  1  0
  6  2  1  0
  7  6  2  0
 10  9  1  1
 10 12  1  0
 11 10  1  0
 12 13  1  6
 12 14  1  0
 14 21  1  0
 14 15  2  0
 17 16  1  0
 17 18  1  0
 18 19  1  0
 20 19  1  1
 21 20  1  0
 22 20  1  0
 22 24  1  0
 23 22  2  0
M  END
$$$$
