DTM.pdb
     RDKit          3D

 24 23  0  0  1  0  0  0  0  0999 V2000
   11.2189  -15.9965   17.5723 N   0  0  0  0  0  0  0  0  0  0  0  0
   11.5317  -15.7488   18.9533 C   0  0  1  0  0  0  0  0  0  0  0  0
   12.2347  -14.4405   19.1444 C   0  0  0  0  0  0  0  0  0  0  0  0
   13.6992  -14.6063   19.0368 C   0  0  0  0  0  0  0  0  0  0  0  0
   14.2689  -15.7051   18.8217 O   0  0  0  0  0  0  0  0  0  0  0  0
   10.3251  -15.7955   19.7945 C   0  0  0  0  0  0  0  0  0  0  0  0
    9.2795  -15.1641   19.4103 O   0  0  0  0  0  0  0  0  0  0  0  0
   14.5505  -13.5011   19.1754 O   0  0  0  0  0  0  0  0  0  0  0  0
    8.3611  -18.5810   20.5037 C   0  0  0  0  0  0  0  0  0  0  0  0
    8.6841  -18.0468   21.8757 C   0  0  1  0  0  0  0  0  0  0  0  0
    9.8563  -18.6908   22.3339 O   0  0  0  0  0  0  0  0  0  0  0  0
    9.0403  -16.5820   21.7831 C   0  0  2  0  0  0  0  0  0  0  0  0
   10.2888  -16.5093   21.0044 N   0  0  0  0  0  0  0  0  0  0  0  0
    9.2636  -15.9223   23.0799 C   0  0  0  0  0  0  0  0  0  0  0  0
   10.4724  -15.7453   23.4461 O   0  0  0  0  0  0  0  0  0  0  0  0
    5.9383  -11.3547   26.0899 C   0  0  0  0  0  0  0  0  0  0  0  0
    7.4894  -11.7838   26.9598 S   0  0  0  0  0  0  0  0  0  0  0  0
    7.5072  -13.6222   27.0572 C   0  0  0  0  0  0  0  0  0  0  0  0
    7.3220  -14.1698   25.6744 C   0  0  0  0  0  0  0  0  0  0  0  0
    8.5541  -14.8865   25.1902 C   0  0  2  0  0  0  0  0  0  0  0  0
    8.1983  -15.4900   23.9024 N   0  0  0  0  0  0  0  0  0  0  0  0
    8.9036  -15.9677   26.1263 C   0  0  0  0  0  0  0  0  0  0  0  0
    8.4328  -17.1240   26.0434 O   0  0  0  0  0  0  0  0  0  0  0  0
    9.7955  -15.7202   27.1593 O   0  0  0  0  0  0  0  0  0  0  0  0
  2  1  1  6
  2  3  1  0
  3  4  1  0
  4  5  2  0
  4  8  1  0
  6 13  1  0
  6  2  1  0
  7  6  2  0
 10  9  1  6
 10 12  1  0
 11 10  1  0
 12 13  1  6
 12 14  1  0
 14 21  1  0
 14 15  2  0
 17 16  1  0
 17 18  1  0
 18 19  1  0
 20 19  1  1
 21 20  1  0
 22 20  1  0
 22 24  1  0
 23 22  2  0
M  END
$$$$
