DTM.pdb
     RDKit          3D

 24 23  0  0  1  0  0  0  0  0999 V2000
   10.0512  -17.9920   17.6665 N   0  0  0  0  0  0  0  0  0  0  0  0
    9.1664  -16.8595   17.7017 C   0  0  1  0  0  0  0  0  0  0  0  0
    8.2566  -16.8200   16.5131 C   0  0  0  0  0  0  0  0  0  0  0  0
    8.9214  -17.3820   15.3190 C   0  0  0  0  0  0  0  0  0  0  0  0
   10.0515  -17.9305   15.3357 O   0  0  0  0  0  0  0  0  0  0  0  0
    8.3722  -16.8362   18.9403 C   0  0  0  0  0  0  0  0  0  0  0  0
    7.1226  -16.5662   18.8678 O   0  0  0  0  0  0  0  0  0  0  0  0
    8.2956  -17.3257   14.0658 O   0  0  0  0  0  0  0  0  0  0  0  0
    7.5042  -19.5116   20.7931 C   0  0  0  0  0  0  0  0  0  0  0  0
    8.1402  -18.6325   21.8394 C   0  0  1  0  0  0  0  0  0  0  0  0
    9.5142  -18.9577   21.9112 O   0  0  0  0  0  0  0  0  0  0  0  0
    8.0913  -17.1903   21.3938 C   0  0  2  0  0  0  0  0  0  0  0  0
    8.9447  -17.0991   20.1965 N   0  0  0  0  0  0  0  0  0  0  0  0
    8.5841  -16.2242   22.3891 C   0  0  0  0  0  0  0  0  0  0  0  0
    9.7818  -15.8063   22.2562 O   0  0  0  0  0  0  0  0  0  0  0  0
    6.8864  -10.9092   27.8374 C   0  0  0  0  0  0  0  0  0  0  0  0
    6.2296  -12.0879   26.6020 S   0  0  0  0  0  0  0  0  0  0  0  0
    7.6897  -13.0321   25.9971 C   0  0  0  0  0  0  0  0  0  0  0  0
    7.2314  -13.9749   24.9260 C   0  0  0  0  0  0  0  0  0  0  0  0
    8.3768  -14.7674   24.3550 C   0  0  2  0  0  0  0  0  0  0  0  0
    7.7808  -15.7601   23.4556 N   0  0  0  0  0  0  0  0  0  0  0  0
    9.0764  -15.4832   25.4346 C   0  0  0  0  0  0  0  0  0  0  0  0
    8.8393  -16.6753   25.7316 O   0  0  0  0  0  0  0  0  0  0  0  0
   10.0501  -14.8285   26.1742 O   0  0  0  0  0  0  0  0  0  0  0  0
  2  1  1  6
  2  3  1  0
  3  4  1  0
  4  5  2  0
  4  8  1  0
  6 13  1  0
  6  2  1  0
  7  6  2  0
 10  9  1  6
 10 12  1  0
 11 10  1  0
 12 13  1  6
 12 14  1  0
 14 21  1  0
 14 15  2  0
 17 16  1  0
 17 18  1  0
 18 19  1  0
 20 19  1  1
 21 20  1  0
 22 20  1  0
 22 24  1  0
 23 22  2  0
M  END
$$$$
