DTM.pdb
     RDKit          3D

 24 23  0  0  1  0  0  0  0  0999 V2000
    9.5882  -18.4813   19.9986 N   0  0  0  0  0  0  0  0  0  0  0  0
   10.6692  -17.5342   20.0231 C   0  0  1  0  0  0  0  0  0  0  0  0
   11.2586  -17.3187   18.6635 C   0  0  0  0  0  0  0  0  0  0  0  0
   10.7163  -18.2909   17.6917 C   0  0  0  0  0  0  0  0  0  0  0  0
    9.8223  -19.1312   17.9615 O   0  0  0  0  0  0  0  0  0  0  0  0
   10.2425  -16.2462   20.5929 C   0  0  0  0  0  0  0  0  0  0  0  0
   11.1118  -15.3176   20.7401 O   0  0  0  0  0  0  0  0  0  0  0  0
   11.1946  -18.3192   16.3742 O   0  0  0  0  0  0  0  0  0  0  0  0
    7.8906  -13.4679   19.4820 C   0  0  0  0  0  0  0  0  0  0  0  0
    7.3693  -14.2115   20.6851 C   0  0  1  0  0  0  0  0  0  0  0  0
    6.7184  -15.3815   20.2311 O   0  0  0  0  0  0  0  0  0  0  0  0
    8.5257  -14.6959   21.5272 C   0  0  2  0  0  0  0  0  0  0  0  0
    8.9130  -16.0081   20.9808 N   0  0  0  0  0  0  0  0  0  0  0  0
    8.2157  -14.8622   22.9566 C   0  0  0  0  0  0  0  0  0  0  0  0
    7.1073  -15.4185   23.2543 O   0  0  0  0  0  0  0  0  0  0  0  0
    7.2391  -11.5946   28.4076 C   0  0  0  0  0  0  0  0  0  0  0  0
    6.2321  -11.9779   26.9290 S   0  0  0  0  0  0  0  0  0  0  0  0
    6.5154  -13.7652   26.5899 C   0  0  0  0  0  0  0  0  0  0  0  0
    7.1574  -13.8937   25.2418 C   0  0  0  0  0  0  0  0  0  0  0  0
    8.5681  -14.4090   25.3441 C   0  0  2  0  0  0  0  0  0  0  0  0
    9.0959  -14.4345   23.9766 N   0  0  0  0  0  0  0  0  0  0  0  0
    8.5603  -15.7871   25.8621 C   0  0  0  0  0  0  0  0  0  0  0  0
    8.5900  -16.7964   25.1233 O   0  0  0  0  0  0  0  0  0  0  0  0
    8.5185  -16.0059   27.2311 O   0  0  0  0  0  0  0  0  0  0  0  0
  2  1  1  6
  2  3  1  0
  3  4  1  0
  4  5  2  0
  4  8  1  0
  6 13  1  0
  6  2  1  0
  7  6  2  0
 10  9  1  6
 10 12  1  0
 11 10  1  0
 12 13  1  6
 12 14  1  0
 14 21  1  0
 14 15  2  0
 17 16  1  0
 17 18  1  0
 18 19  1  0
 20 19  1  6
 21 20  1  0
 22 20  1  0
 22 24  1  0
 23 22  2  0
M  END
$$$$
