CHS.pdb
     RDKit          3D

 23 23  0  0  1  0  0  0  0  0999 V2000
   14.3123  -10.4846  -12.9423 N   0  0  0  0  0  0  0  0  0  0  0  0
   15.7311  -10.2564  -12.7622 C   0  0  1  0  0  0  0  0  0  0  0  0
   16.4081  -10.5437  -14.0722 C   0  0  0  0  0  0  0  0  0  0  0  0
   16.7833  -12.3246  -14.0951 S   0  0  0  0  0  0  0  0  0  0  0  0
   15.9828   -8.9247  -12.2271 C   0  0  0  0  0  0  0  0  0  0  0  0
   15.4164   -7.9462  -12.7822 O   0  0  0  0  0  0  0  0  0  0  0  0
   16.8127   -8.6184  -11.1296 N   0  0  0  0  0  0  0  0  0  0  0  0
   17.0968   -7.2883  -10.6548 C   0  0  1  0  0  0  0  0  0  0  0  0
   16.7655   -7.0256   -9.2365 C   0  0  0  0  0  0  0  0  0  0  0  0
   15.3390   -7.0712   -8.8745 C   0  0  0  0  0  0  0  0  0  0  0  0
   14.3640   -6.1223   -9.0338 C   0  0  0  0  0  0  0  0  0  0  0  0
   13.1714   -6.5752   -8.5445 N   0  0  0  0  0  0  0  0  0  0  0  0
   13.4204   -7.7928   -8.0901 C   0  0  0  0  0  0  0  0  0  0  0  0
   14.7073   -8.1245   -8.2701 N   0  0  0  0  0  0  0  0  0  0  0  0
   18.5575   -6.9643  -10.8171 C   0  0  0  0  0  0  0  0  0  0  0  0
   19.3446   -7.6021  -10.0667 O   0  0  0  0  0  0  0  0  0  0  0  0
   22.0949   -7.3756  -13.1795 O   0  0  0  0  0  0  0  0  0  0  0  0
   20.7765   -7.3861  -12.7298 C   0  0  0  0  0  0  0  0  0  0  0  0
   20.3963   -6.0280  -12.1650 C   0  0  2  0  0  0  0  0  0  0  0  0
   19.0162   -6.0034  -11.7543 N   0  0  0  0  0  0  0  0  0  0  0  0
   20.7199   -4.9378  -13.1176 C   0  0  0  0  0  0  0  0  0  0  0  0
   21.9714   -4.3402  -13.1239 O   0  0  0  0  0  0  0  0  0  0  0  0
   19.8692   -4.5272  -13.9436 O   0  0  0  0  0  0  0  0  0  0  0  0
  2  1  1  6
  3  2  1  0
  4  3  1  0
  5  2  1  0
  6  5  2  0
  7  5  1  0
  8  7  1  0
  9 10  1  0
  8  9  1  1
 10 11  2  0
 12 11  1  0
 13 12  1  0
 14 13  2  0
 14 10  1  0
 15 20  1  0
 15  8  1  0
 16 15  2  0
 18 17  1  0
 19 20  1  0
 19 18  1  6
 21 19  1  0
 21 22  1  0
 23 21  2  0
M  END
$$$$
