CHS.pdb
     RDKit          3D

 23 23  0  0  1  0  0  0  0  0999 V2000
   25.7582  -12.7849  -17.0880 N   0  0  0  0  0  0  0  0  0  0  0  0
   25.8544  -11.4947  -16.4370 C   0  0  1  0  0  0  0  0  0  0  0  0
   27.0491  -10.7850  -17.0079 C   0  0  0  0  0  0  0  0  0  0  0  0
   28.5184  -11.4738  -16.1831 S   0  0  0  0  0  0  0  0  0  0  0  0
   24.6012  -10.7594  -16.5458 C   0  0  0  0  0  0  0  0  0  0  0  0
   23.9870  -10.7944  -17.6448 O   0  0  0  0  0  0  0  0  0  0  0  0
   23.9980   -9.9990  -15.5236 N   0  0  0  0  0  0  0  0  0  0  0  0
   22.7526   -9.2859  -15.6500 C   0  0  1  0  0  0  0  0  0  0  0  0
   21.6340   -9.7906  -14.8227 C   0  0  0  0  0  0  0  0  0  0  0  0
   20.9204  -10.9736  -15.3320 C   0  0  0  0  0  0  0  0  0  0  0  0
   21.0659  -11.6406  -16.5194 C   0  0  0  0  0  0  0  0  0  0  0  0
   20.1878  -12.6848  -16.5922 N   0  0  0  0  0  0  0  0  0  0  0  0
   19.5119  -12.6523  -15.4550 C   0  0  0  0  0  0  0  0  0  0  0  0
   19.9224  -11.6416  -14.6750 N   0  0  0  0  0  0  0  0  0  0  0  0
   22.9287   -7.8359  -15.2876 C   0  0  0  0  0  0  0  0  0  0  0  0
   23.6500   -7.6091  -14.2787 O   0  0  0  0  0  0  0  0  0  0  0  0
   22.1977   -3.1459  -16.2700 O   0  0  0  0  0  0  0  0  0  0  0  0
   21.8806   -4.4607  -16.6038 C   0  0  0  0  0  0  0  0  0  0  0  0
   22.5252   -5.4280  -15.6257 C   0  0  2  0  0  0  0  0  0  0  0  0
   22.3215   -6.7938  -16.0344 N   0  0  0  0  0  0  0  0  0  0  0  0
   22.0627   -5.1805  -14.2381 C   0  0  0  0  0  0  0  0  0  0  0  0
   22.7630   -4.3358  -13.3898 O   0  0  0  0  0  0  0  0  0  0  0  0
   21.0250   -5.7292  -13.7948 O   0  0  0  0  0  0  0  0  0  0  0  0
  2  1  1  6
  3  2  1  0
  4  3  1  0
  5  2  1  0
  6  5  2  0
  7  5  1  0
  8  7  1  0
  9 10  1  0
  8  9  1  1
 10 11  2  0
 12 11  1  0
 13 12  1  0
 14 13  2  0
 14 10  1  0
 15 20  1  0
 15  8  1  0
 16 15  2  0
 18 17  1  0
 19 20  1  0
 19 18  1  6
 21 19  1  0
 21 22  1  0
 23 21  2  0
M  END
$$$$
