CHS.pdb
     RDKit          3D

 23 23  0  0  1  0  0  0  0  0999 V2000
   17.7041  -11.1838  -18.0045 N   0  0  0  0  0  0  0  0  0  0  0  0
   17.6518   -9.7609  -17.7393 C   0  0  1  0  0  0  0  0  0  0  0  0
   16.3907   -9.4876  -16.9699 C   0  0  0  0  0  0  0  0  0  0  0  0
   15.0494   -9.3304  -18.1903 S   0  0  0  0  0  0  0  0  0  0  0  0
   18.8725   -9.3053  -17.0871 C   0  0  0  0  0  0  0  0  0  0  0  0
   19.3598  -10.0228  -16.1739 O   0  0  0  0  0  0  0  0  0  0  0  0
   19.5742   -8.1191  -17.3832 N   0  0  0  0  0  0  0  0  0  0  0  0
   20.8878   -7.7917  -16.8905 C   0  0  1  0  0  0  0  0  0  0  0  0
   21.9960   -7.9433  -17.8597 C   0  0  0  0  0  0  0  0  0  0  0  0
   22.2471   -9.3033  -18.3649 C   0  0  0  0  0  0  0  0  0  0  0  0
   21.7805   -9.9174  -19.4969 C   0  0  0  0  0  0  0  0  0  0  0  0
   22.2538  -11.1966  -19.5767 N   0  0  0  0  0  0  0  0  0  0  0  0
   23.0039  -11.3591  -18.4988 C   0  0  0  0  0  0  0  0  0  0  0  0
   23.0240  -10.2473  -17.7492 N   0  0  0  0  0  0  0  0  0  0  0  0
   20.9370   -6.3671  -16.4080 C   0  0  0  0  0  0  0  0  0  0  0  0
   20.2116   -5.5517  -17.0391 O   0  0  0  0  0  0  0  0  0  0  0  0
   22.1693   -3.1570  -13.0106 O   0  0  0  0  0  0  0  0  0  0  0  0
   22.2547   -4.4761  -13.4502 C   0  0  0  0  0  0  0  0  0  0  0  0
   21.6837   -4.6076  -14.8518 C   0  0  2  0  0  0  0  0  0  0  0  0
   21.7478   -5.9701  -15.3138 N   0  0  0  0  0  0  0  0  0  0  0  0
   22.3366   -3.6632  -15.7912 C   0  0  0  0  0  0  0  0  0  0  0  0
   21.8723   -2.3648  -15.9394 O   0  0  0  0  0  0  0  0  0  0  0  0
   23.3270   -4.0143  -16.4770 O   0  0  0  0  0  0  0  0  0  0  0  0
  2  1  1  1
  3  2  1  0
  4  3  1  0
  5  2  1  0
  6  5  2  0
  7  5  1  0
  8  7  1  0
  9 10  1  0
  8  9  1  6
 10 11  2  0
 12 11  1  0
 13 12  1  0
 14 13  2  0
 14 10  1  0
 15 20  1  0
 15  8  1  0
 16 15  2  0
 18 17  1  0
 19 20  1  0
 19 18  1  1
 21 19  1  0
 21 22  1  0
 23 21  2  0
M  END
$$$$
