CHS.pdb
     RDKit          3D

 23 23  0  0  1  0  0  0  0  0999 V2000
   26.0881  -11.1413  -16.5554 N   0  0  0  0  0  0  0  0  0  0  0  0
   25.9031   -9.7053  -16.5911 C   0  0  1  0  0  0  0  0  0  0  0  0
   26.8960   -9.1429  -17.5682 C   0  0  0  0  0  0  0  0  0  0  0  0
   28.5014   -9.0765  -16.7130 S   0  0  0  0  0  0  0  0  0  0  0  0
   24.5146   -9.3638  -16.8710 C   0  0  0  0  0  0  0  0  0  0  0  0
   23.8512  -10.1382  -17.6103 O   0  0  0  0  0  0  0  0  0  0  0  0
   23.8284   -8.2316  -16.3869 N   0  0  0  0  0  0  0  0  0  0  0  0
   22.4321   -7.9548  -16.6082 C   0  0  1  0  0  0  0  0  0  0  0  0
   21.5325   -8.2230  -15.4639 C   0  0  0  0  0  0  0  0  0  0  0  0
   21.2084   -9.6345  -15.1983 C   0  0  0  0  0  0  0  0  0  0  0  0
   20.8649  -10.6335  -16.0701 C   0  0  0  0  0  0  0  0  0  0  0  0
   20.6328  -11.7985  -15.3950 N   0  0  0  0  0  0  0  0  0  0  0  0
   20.8340  -11.5088  -14.1196 C   0  0  0  0  0  0  0  0  0  0  0  0
   21.1799  -10.2228  -13.9625 N   0  0  0  0  0  0  0  0  0  0  0  0
   22.2267   -6.5113  -16.9811 C   0  0  0  0  0  0  0  0  0  0  0  0
   22.9811   -5.6849  -16.4004 O   0  0  0  0  0  0  0  0  0  0  0  0
   20.5921   -5.3384  -20.5441 O   0  0  0  0  0  0  0  0  0  0  0  0
   20.2182   -4.5276  -19.4748 C   0  0  0  0  0  0  0  0  0  0  0  0
   21.1655   -4.7222  -18.3031 C   0  0  2  0  0  0  0  0  0  0  0  0
   21.2471   -6.1094  -17.9252 N   0  0  0  0  0  0  0  0  0  0  0  0
   20.7986   -3.8483  -17.1619 C   0  0  0  0  0  0  0  0  0  0  0  0
   21.2544   -2.5407  -17.0857 O   0  0  0  0  0  0  0  0  0  0  0  0
   20.0656   -4.2694  -16.2345 O   0  0  0  0  0  0  0  0  0  0  0  0
  2  1  1  6
  3  2  1  0
  4  3  1  0
  5  2  1  0
  6  5  2  0
  7  5  1  0
  8  7  1  0
  9 10  1  0
  8  9  1  1
 10 11  2  0
 12 11  1  0
 13 12  1  0
 14 13  2  0
 14 10  1  0
 15 20  1  0
 15  8  1  0
 16 15  2  0
 18 17  1  0
 19 20  1  0
 19 18  1  6
 21 19  1  0
 21 22  1  0
 23 21  2  0
M  END
$$$$
