CHS.pdb
     RDKit          3D

 23 23  0  0  1  0  0  0  0  0999 V2000
   25.5048  -11.4965  -16.5991 N   0  0  0  0  0  0  0  0  0  0  0  0
   25.5686  -10.1696  -16.0222 C   0  0  1  0  0  0  0  0  0  0  0  0
   26.9613   -9.6478  -16.2344 C   0  0  0  0  0  0  0  0  0  0  0  0
   28.0313  -10.4860  -15.0236 S   0  0  0  0  0  0  0  0  0  0  0  0
   24.5127   -9.3173  -16.5528 C   0  0  0  0  0  0  0  0  0  0  0  0
   24.2220   -9.4244  -17.7736 O   0  0  0  0  0  0  0  0  0  0  0  0
   23.7713   -8.3677  -15.8209 N   0  0  0  0  0  0  0  0  0  0  0  0
   22.6649   -7.6052  -16.3404 C   0  0  1  0  0  0  0  0  0  0  0  0
   21.3166   -8.1017  -15.9853 C   0  0  0  0  0  0  0  0  0  0  0  0
   20.9266   -9.4057  -16.5468 C   0  0  0  0  0  0  0  0  0  0  0  0
   20.5491  -10.5571  -15.9080 C   0  0  0  0  0  0  0  0  0  0  0  0
   20.2822  -11.5424  -16.8161 N   0  0  0  0  0  0  0  0  0  0  0  0
   20.4966  -10.9928  -18.0006 C   0  0  0  0  0  0  0  0  0  0  0  0
   20.8837   -9.7145  -17.8798 N   0  0  0  0  0  0  0  0  0  0  0  0
   22.7309   -6.1784  -15.8663 C   0  0  0  0  0  0  0  0  0  0  0  0
   22.9474   -6.0220  -14.6342 O   0  0  0  0  0  0  0  0  0  0  0  0
   22.6415   -1.4240  -16.8077 O   0  0  0  0  0  0  0  0  0  0  0  0
   22.5663   -2.7114  -17.3344 C   0  0  0  0  0  0  0  0  0  0  0  0
   22.5814   -3.7437  -16.2199 C   0  0  2  0  0  0  0  0  0  0  0  0
   22.5602   -5.0823  -16.7505 N   0  0  0  0  0  0  0  0  0  0  0  0
   21.4854   -3.5055  -15.2489 C   0  0  0  0  0  0  0  0  0  0  0  0
   21.7136   -2.8192  -14.0655 O   0  0  0  0  0  0  0  0  0  0  0  0
   20.3220   -3.9189  -15.4728 O   0  0  0  0  0  0  0  0  0  0  0  0
  2  1  1  6
  3  2  1  0
  4  3  1  0
  5  2  1  0
  6  5  2  0
  7  5  1  0
  8  7  1  0
  9 10  1  0
  8  9  1  1
 10 11  2  0
 12 11  1  0
 13 12  1  0
 14 13  2  0
 14 10  1  0
 15 20  1  0
 15  8  1  0
 16 15  2  0
 18 17  1  0
 19 20  1  0
 19 18  1  6
 21 19  1  0
 21 22  1  0
 23 21  2  0
M  END
$$$$
