CHS.pdb
     RDKit          3D

 23 23  0  0  1  0  0  0  0  0999 V2000
   21.9751  -13.6200  -17.1050 N   0  0  0  0  0  0  0  0  0  0  0  0
   21.2199  -12.4340  -17.4527 C   0  0  1  0  0  0  0  0  0  0  0  0
   19.7610  -12.7734  -17.3368 C   0  0  0  0  0  0  0  0  0  0  0  0
   19.3338  -13.7787  -18.7927 S   0  0  0  0  0  0  0  0  0  0  0  0
   21.6435  -11.2914  -16.6539 C   0  0  0  0  0  0  0  0  0  0  0  0
   21.6440  -11.4123  -15.4002 O   0  0  0  0  0  0  0  0  0  0  0  0
   22.0604  -10.0417  -17.1553 N   0  0  0  0  0  0  0  0  0  0  0  0
   22.4327   -8.9095  -16.3460 C   0  0  1  0  0  0  0  0  0  0  0  0
   23.8351   -8.4555  -16.4788 C   0  0  0  0  0  0  0  0  0  0  0  0
   24.8751   -9.3846  -16.0067 C   0  0  0  0  0  0  0  0  0  0  0  0
   24.7487  -10.5964  -15.3808 C   0  0  0  0  0  0  0  0  0  0  0  0
   25.9789  -11.1220  -15.1032 N   0  0  0  0  0  0  0  0  0  0  0  0
   26.8484  -10.2342  -15.5578 C   0  0  0  0  0  0  0  0  0  0  0  0
   26.2251   -9.1806  -16.1054 N   0  0  0  0  0  0  0  0  0  0  0  0
   21.5686   -7.7191  -16.6640 C   0  0  0  0  0  0  0  0  0  0  0  0
   21.3277   -7.5306  -17.8870 O   0  0  0  0  0  0  0  0  0  0  0  0
   18.3024   -4.4877  -15.2813 O   0  0  0  0  0  0  0  0  0  0  0  0
   19.1809   -5.4993  -14.8999 C   0  0  0  0  0  0  0  0  0  0  0  0
   20.1646   -5.7991  -16.0181 C   0  0  2  0  0  0  0  0  0  0  0  0
   21.0596   -6.8660  -15.6513 N   0  0  0  0  0  0  0  0  0  0  0  0
   20.8898   -4.5760  -16.4409 C   0  0  0  0  0  0  0  0  0  0  0  0
   20.3784   -3.7449  -17.4264 O   0  0  0  0  0  0  0  0  0  0  0  0
   21.9859   -4.2608  -15.9178 O   0  0  0  0  0  0  0  0  0  0  0  0
  2  1  1  1
  3  2  1  0
  4  3  1  0
  5  2  1  0
  6  5  2  0
  7  5  1  0
  8  7  1  0
  9 10  1  0
  8  9  1  6
 10 11  2  0
 12 11  1  0
 13 12  1  0
 14 13  2  0
 14 10  1  0
 15 20  1  0
 15  8  1  0
 16 15  2  0
 18 17  1  0
 19 20  1  0
 19 18  1  1
 21 19  1  0
 21 22  1  0
 23 21  2  0
M  END
$$$$
