CHS.pdb
     RDKit          3D

 23 23  0  0  1  0  0  0  0  0999 V2000
   24.8477  -29.4632  -16.9908 N   0  0  0  0  0  0  0  0  0  0  0  0
   23.8596  -28.6612  -16.2995 C   0  0  1  0  0  0  0  0  0  0  0  0
   23.8266  -29.1146  -14.8676 C   0  0  0  0  0  0  0  0  0  0  0  0
   22.6911  -30.5350  -14.7878 S   0  0  0  0  0  0  0  0  0  0  0  0
   24.1203  -27.2392  -16.4811 C   0  0  0  0  0  0  0  0  0  0  0  0
   25.3090  -26.8365  -16.3761 O   0  0  0  0  0  0  0  0  0  0  0  0
   23.1554  -26.2523  -16.7677 N   0  0  0  0  0  0  0  0  0  0  0  0
   23.4304  -24.8455  -16.9114 C   0  0  1  0  0  0  0  0  0  0  0  0
   22.5288  -24.1019  -17.8194 C   0  0  0  0  0  0  0  0  0  0  0  0
   22.7833  -22.6588  -17.9630 C   0  0  0  0  0  0  0  0  0  0  0  0
   23.9255  -22.0040  -18.3410 C   0  0  0  0  0  0  0  0  0  0  0  0
   23.7280  -20.6521  -18.3289 N   0  0  0  0  0  0  0  0  0  0  0  0
   22.4725  -20.4862  -17.9453 C   0  0  0  0  0  0  0  0  0  0  0  0
   21.8748  -21.6648  -17.7170 N   0  0  0  0  0  0  0  0  0  0  0  0
   23.3605  -24.1493  -15.5790 C   0  0  0  0  0  0  0  0  0  0  0  0
   22.5758  -24.6620  -14.7358 O   0  0  0  0  0  0  0  0  0  0  0  0
   25.6871  -20.7486  -14.5338 O   0  0  0  0  0  0  0  0  0  0  0  0
   25.3569  -21.7296  -13.6016 C   0  0  0  0  0  0  0  0  0  0  0  0
   24.0497  -22.4047  -13.9802 C   0  0  2  0  0  0  0  0  0  0  0  0
   24.1286  -22.9915  -15.2929 N   0  0  0  0  0  0  0  0  0  0  0  0
   22.9031  -21.4727  -13.8480 C   0  0  0  0  0  0  0  0  0  0  0  0
   22.4835  -21.0255  -12.6040 O   0  0  0  0  0  0  0  0  0  0  0  0
   22.2821  -21.0641  -14.8588 O   0  0  0  0  0  0  0  0  0  0  0  0
  2  1  1  6
  3  2  1  0
  4  3  1  0
  5  2  1  0
  6  5  2  0
  7  5  1  0
  8  7  1  0
  9 10  1  0
  8  9  1  6
 10 11  2  0
 12 11  1  0
 13 12  1  0
 14 13  2  0
 14 10  1  0
 15 20  1  0
 15  8  1  0
 16 15  2  0
 18 17  1  0
 19 20  1  0
 19 18  1  6
 21 19  1  0
 21 22  1  0
 23 21  2  0
M  END
$$$$
