CHS.pdb
     RDKit          3D

 23 23  0  0  1  0  0  0  0  0999 V2000
   17.4111  -12.3843    4.9587 N   0  0  0  0  0  0  0  0  0  0  0  0
   18.5968  -13.1490    5.2858 C   0  0  1  0  0  0  0  0  0  0  0  0
   19.5113  -12.2553    6.0744 C   0  0  0  0  0  0  0  0  0  0  0  0
   20.5747  -11.3941    4.8741 S   0  0  0  0  0  0  0  0  0  0  0  0
   18.2469  -14.3982    5.9493 C   0  0  0  0  0  0  0  0  0  0  0  0
   17.4020  -14.3572    6.8824 O   0  0  0  0  0  0  0  0  0  0  0  0
   18.7705  -15.6708    5.6438 N   0  0  0  0  0  0  0  0  0  0  0  0
   18.4050  -16.8956    6.3084 C   0  0  1  0  0  0  0  0  0  0  0  0
   18.1373  -18.0529    5.4257 C   0  0  0  0  0  0  0  0  0  0  0  0
   16.9200  -17.9833    4.6002 C   0  0  0  0  0  0  0  0  0  0  0  0
   15.6075  -18.1385    4.9598 C   0  0  0  0  0  0  0  0  0  0  0  0
   14.7941  -18.0061    3.8701 N   0  0  0  0  0  0  0  0  0  0  0  0
   15.6081  -17.7720    2.8534 C   0  0  0  0  0  0  0  0  0  0  0  0
   16.8886  -17.7510    3.2515 N   0  0  0  0  0  0  0  0  0  0  0  0
   19.4864  -17.3290    7.2612 C   0  0  0  0  0  0  0  0  0  0  0  0
   20.6676  -17.2087    6.8374 O   0  0  0  0  0  0  0  0  0  0  0  0
   21.4386  -17.4107   11.4094 O   0  0  0  0  0  0  0  0  0  0  0  0
   20.3520  -17.1355   10.5823 C   0  0  0  0  0  0  0  0  0  0  0  0
   20.2777  -18.1439    9.4486 C   0  0  2  0  0  0  0  0  0  0  0  0
   19.1928  -17.8393    8.5518 N   0  0  0  0  0  0  0  0  0  0  0  0
   20.2079  -19.5327    9.9655 C   0  0  0  0  0  0  0  0  0  0  0  0
   21.3459  -20.1899   10.4086 O   0  0  0  0  0  0  0  0  0  0  0  0
   19.1166  -20.1499   10.0157 O   0  0  0  0  0  0  0  0  0  0  0  0
  2  1  1  1
  3  2  1  0
  4  3  1  0
  5  2  1  0
  6  5  2  0
  7  5  1  0
  8  7  1  0
  9 10  1  0
  8  9  1  6
 10 11  2  0
 12 11  1  0
 13 12  1  0
 14 13  2  0
 14 10  1  0
 15 20  1  0
 15  8  1  0
 16 15  2  0
 18 17  1  0
 19 20  1  0
 19 18  1  1
 21 19  1  0
 21 22  1  0
 23 21  2  0
M  END
$$$$
