CHS.pdb
     RDKit          3D

 23 23  0  0  1  0  0  0  0  0999 V2000
   25.6664  -12.4370  -17.6078 N   0  0  0  0  0  0  0  0  0  0  0  0
   25.5161  -11.5641  -16.4619 C   0  0  1  0  0  0  0  0  0  0  0  0
   26.8432  -10.9045  -16.2153 C   0  0  0  0  0  0  0  0  0  0  0  0
   27.9504  -12.1798  -15.5364 S   0  0  0  0  0  0  0  0  0  0  0  0
   24.4043  -10.6413  -16.6498 C   0  0  0  0  0  0  0  0  0  0  0  0
   24.0484  -10.3742  -17.8281 O   0  0  0  0  0  0  0  0  0  0  0  0
   23.6747  -10.0068  -15.6240 N   0  0  0  0  0  0  0  0  0  0  0  0
   22.5752   -9.0995  -15.8322 C   0  0  1  0  0  0  0  0  0  0  0  0
   21.2667   -9.5394  -15.2987 C   0  0  0  0  0  0  0  0  0  0  0  0
   20.7271  -10.7997  -15.8355 C   0  0  0  0  0  0  0  0  0  0  0  0
   20.4937  -11.9924  -15.2036 C   0  0  0  0  0  0  0  0  0  0  0  0
   19.9957  -12.9107  -16.0842 N   0  0  0  0  0  0  0  0  0  0  0  0
   19.9270  -12.2795  -17.2452 C   0  0  0  0  0  0  0  0  0  0  0  0
   20.3564  -11.0138  -17.1358 N   0  0  0  0  0  0  0  0  0  0  0  0
   22.8616   -7.7614  -15.2059 C   0  0  0  0  0  0  0  0  0  0  0  0
   23.4712   -7.7943  -14.1028 O   0  0  0  0  0  0  0  0  0  0  0  0
   23.4089   -4.3989  -17.3312 O   0  0  0  0  0  0  0  0  0  0  0  0
   22.6963   -4.1369  -16.1633 C   0  0  0  0  0  0  0  0  0  0  0  0
   22.8239   -5.2970  -15.1908 C   0  0  2  0  0  0  0  0  0  0  0  0
   22.4699   -6.5436  -15.8189 N   0  0  0  0  0  0  0  0  0  0  0  0
   22.0467   -5.0502  -13.9515 C   0  0  0  0  0  0  0  0  0  0  0  0
   22.4411   -4.0827  -13.0395 O   0  0  0  0  0  0  0  0  0  0  0  0
   21.0111   -5.7108  -13.6955 O   0  0  0  0  0  0  0  0  0  0  0  0
  2  1  1  6
  3  2  1  0
  4  3  1  0
  5  2  1  0
  6  5  2  0
  7  5  1  0
  8  7  1  0
  9 10  1  0
  8  9  1  1
 10 11  2  0
 12 11  1  0
 13 12  1  0
 14 13  2  0
 14 10  1  0
 15 20  1  0
 15  8  1  0
 16 15  2  0
 18 17  1  0
 19 20  1  0
 19 18  1  6
 21 19  1  0
 21 22  1  0
 23 21  2  0
M  END
$$$$
