CHS.pdb
     RDKit          3D

 23 23  0  0  1  0  0  0  0  0999 V2000
   25.8848  -28.3560  -18.9639 N   0  0  0  0  0  0  0  0  0  0  0  0
   26.6530  -29.5266  -19.3342 C   0  0  1  0  0  0  0  0  0  0  0  0
   26.8766  -29.4730  -20.8189 C   0  0  0  0  0  0  0  0  0  0  0  0
   25.7007  -30.6393  -21.5740 S   0  0  0  0  0  0  0  0  0  0  0  0
   27.8702  -29.6262  -18.5394 C   0  0  0  0  0  0  0  0  0  0  0  0
   28.5027  -28.5664  -18.2888 O   0  0  0  0  0  0  0  0  0  0  0  0
   28.4190  -30.8136  -18.0141 N   0  0  0  0  0  0  0  0  0  0  0  0
   29.6401  -30.8933  -17.2538 C   0  0  1  0  0  0  0  0  0  0  0  0
   29.5744  -31.6941  -16.0109 C   0  0  0  0  0  0  0  0  0  0  0  0
   28.3883  -32.5498  -15.8412 C   0  0  0  0  0  0  0  0  0  0  0  0
   27.3097  -32.7260  -16.6670 C   0  0  0  0  0  0  0  0  0  0  0  0
   26.4242  -33.6082  -16.1155 N   0  0  0  0  0  0  0  0  0  0  0  0
   26.9617  -33.9662  -14.9604 C   0  0  0  0  0  0  0  0  0  0  0  0
   28.1377  -33.3532  -14.7615 N   0  0  0  0  0  0  0  0  0  0  0  0
   30.7474  -31.4858  -18.0831 C   0  0  0  0  0  0  0  0  0  0  0  0
   30.3866  -32.3090  -18.9672 O   0  0  0  0  0  0  0  0  0  0  0  0
   33.7455  -33.4338  -17.1984 O   0  0  0  0  0  0  0  0  0  0  0  0
   33.2624  -33.2039  -18.4846 C   0  0  0  0  0  0  0  0  0  0  0  0
   33.1126  -31.7135  -18.7380 C   0  0  2  0  0  0  0  0  0  0  0  0
   32.1079  -31.1387  -17.8812 N   0  0  0  0  0  0  0  0  0  0  0  0
   32.8571  -31.4330  -20.1721 C   0  0  0  0  0  0  0  0  0  0  0  0
   33.6068  -32.0443  -21.1660 O   0  0  0  0  0  0  0  0  0  0  0  0
   31.9553  -30.6348  -20.5242 O   0  0  0  0  0  0  0  0  0  0  0  0
  2  1  1  1
  3  2  1  0
  4  3  1  0
  5  2  1  0
  6  5  2  0
  7  5  1  0
  8  7  1  0
  9 10  1  0
  8  9  1  1
 10 11  2  0
 12 11  1  0
 13 12  1  0
 14 13  2  0
 14 10  1  0
 15 20  1  0
 15  8  1  0
 16 15  2  0
 18 17  1  0
 19 20  1  0
 19 18  1  6
 21 19  1  0
 21 22  1  0
 23 21  2  0
M  END
$$$$
