CHS.pdb
     RDKit          3D

 23 23  0  0  1  0  0  0  0  0999 V2000
   12.1414  -11.3904   -8.9572 N   0  0  0  0  0  0  0  0  0  0  0  0
   12.3247   -9.9837   -9.2491 C   0  0  1  0  0  0  0  0  0  0  0  0
   11.6721   -9.2012   -8.1451 C   0  0  0  0  0  0  0  0  0  0  0  0
    9.8845   -9.5280   -8.2495 S   0  0  0  0  0  0  0  0  0  0  0  0
   13.7320   -9.6734   -9.4643 C   0  0  0  0  0  0  0  0  0  0  0  0
   14.5468   -9.9474   -8.5439 O   0  0  0  0  0  0  0  0  0  0  0  0
   14.2809   -9.0862  -10.6223 N   0  0  0  0  0  0  0  0  0  0  0  0
   15.6883   -8.8977  -10.8650 C   0  0  1  0  0  0  0  0  0  0  0  0
   16.2327   -9.5768  -12.0620 C   0  0  0  0  0  0  0  0  0  0  0  0
   16.2262  -11.0491  -12.0433 C   0  0  0  0  0  0  0  0  0  0  0  0
   15.9127  -11.9110  -11.0259 C   0  0  0  0  0  0  0  0  0  0  0  0
   16.0522  -13.2066  -11.4366 N   0  0  0  0  0  0  0  0  0  0  0  0
   16.4486  -13.1325  -12.6969 C   0  0  0  0  0  0  0  0  0  0  0  0
   16.5641  -11.8572  -13.0954 N   0  0  0  0  0  0  0  0  0  0  0  0
   16.0118   -7.4362  -11.0216 C   0  0  0  0  0  0  0  0  0  0  0  0
   15.2218   -6.7774  -11.7505 O   0  0  0  0  0  0  0  0  0  0  0  0
   17.7588   -3.3785   -9.3818 O   0  0  0  0  0  0  0  0  0  0  0  0
   17.5010   -4.7364   -9.2071 C   0  0  0  0  0  0  0  0  0  0  0  0
   17.3626   -5.4288  -10.5522 C   0  0  2  0  0  0  0  0  0  0  0  0
   17.1334   -6.8411  -10.3890 N   0  0  0  0  0  0  0  0  0  0  0  0
   18.5262   -5.1447  -11.4275 C   0  0  0  0  0  0  0  0  0  0  0  0
   19.4420   -6.1364  -11.7457 O   0  0  0  0  0  0  0  0  0  0  0  0
   18.7127   -3.9988  -11.9035 O   0  0  0  0  0  0  0  0  0  0  0  0
  2  1  1  1
  3  2  1  0
  4  3  1  0
  5  2  1  0
  6  5  2  0
  7  5  1  0
  8  7  1  0
  9 10  1  0
  8  9  1  6
 10 11  2  0
 12 11  1  0
 13 12  1  0
 14 13  2  0
 14 10  1  0
 15 20  1  0
 15  8  1  0
 16 15  2  0
 18 17  1  0
 19 20  1  0
 19 18  1  1
 21 19  1  0
 21 22  1  0
 23 21  2  0
M  END
$$$$
