CHS.pdb
     RDKit          3D

 23 23  0  0  1  0  0  0  0  0999 V2000
   27.5671  -20.7525  -13.3738 N   0  0  0  0  0  0  0  0  0  0  0  0
   26.2607  -20.8725  -12.7601 C   0  0  1  0  0  0  0  0  0  0  0  0
   26.3931  -20.4554  -11.3229 C   0  0  0  0  0  0  0  0  0  0  0  0
   26.7595  -21.9601  -10.3664 S   0  0  0  0  0  0  0  0  0  0  0  0
   25.2577  -20.1350  -13.5171 C   0  0  0  0  0  0  0  0  0  0  0  0
   25.2960  -18.8766  -13.4827 O   0  0  0  0  0  0  0  0  0  0  0  0
   24.2302  -20.7018  -14.2982 N   0  0  0  0  0  0  0  0  0  0  0  0
   23.2065  -19.9553  -14.9838 C   0  0  1  0  0  0  0  0  0  0  0  0
   23.0887  -20.2078  -16.4374 C   0  0  0  0  0  0  0  0  0  0  0  0
   22.1227  -19.3757  -17.1738 C   0  0  0  0  0  0  0  0  0  0  0  0
   22.1373  -18.0289  -17.4229 C   0  0  0  0  0  0  0  0  0  0  0  0
   21.0321  -17.6627  -18.1377 N   0  0  0  0  0  0  0  0  0  0  0  0
   20.3491  -18.7811  -18.3218 C   0  0  0  0  0  0  0  0  0  0  0  0
   20.9706  -19.8277  -17.7589 N   0  0  0  0  0  0  0  0  0  0  0  0
   21.8521  -20.2391  -14.3921 C   0  0  0  0  0  0  0  0  0  0  0  0
   21.6598  -21.4262  -14.0134 O   0  0  0  0  0  0  0  0  0  0  0  0
   17.6021  -18.6433  -12.7069 O   0  0  0  0  0  0  0  0  0  0  0  0
   18.7893  -18.3133  -13.3568 C   0  0  0  0  0  0  0  0  0  0  0  0
   19.6018  -19.5636  -13.6476 C   0  0  2  0  0  0  0  0  0  0  0  0
   20.8583  -19.2344  -14.2694 N   0  0  0  0  0  0  0  0  0  0  0  0
   18.8198  -20.5426  -14.4418 C   0  0  0  0  0  0  0  0  0  0  0  0
   18.1868  -21.6160  -13.8331 O   0  0  0  0  0  0  0  0  0  0  0  0
   18.7104  -20.4254  -15.6863 O   0  0  0  0  0  0  0  0  0  0  0  0
  2  1  1  6
  3  2  1  0
  4  3  1  0
  5  2  1  0
  6  5  2  0
  7  5  1  0
  8  7  1  0
  9 10  1  0
  8  9  1  6
 10 11  2  0
 12 11  1  0
 13 12  1  0
 14 13  2  0
 14 10  1  0
 15 20  1  0
 15  8  1  0
 16 15  2  0
 18 17  1  0
 19 20  1  0
 19 18  1  6
 21 19  1  0
 21 22  1  0
 23 21  2  0
M  END
$$$$
