CHS.pdb
     RDKit          3D

 23 23  0  0  1  0  0  0  0  0999 V2000
   27.1946  -19.7966  -16.6461 N   0  0  0  0  0  0  0  0  0  0  0  0
   25.9901  -19.0382  -16.3783 C   0  0  1  0  0  0  0  0  0  0  0  0
   25.5929  -18.3501  -17.6534 C   0  0  0  0  0  0  0  0  0  0  0  0
   26.3338  -16.6880  -17.6113 S   0  0  0  0  0  0  0  0  0  0  0  0
   24.9568  -19.8857  -15.7976 C   0  0  0  0  0  0  0  0  0  0  0  0
   24.9844  -21.1174  -16.0590 O   0  0  0  0  0  0  0  0  0  0  0  0
   23.9107  -19.4546  -14.9568 N   0  0  0  0  0  0  0  0  0  0  0  0
   22.9464  -20.3206  -14.3279 C   0  0  1  0  0  0  0  0  0  0  0  0
   22.8158  -20.1816  -12.8602 C   0  0  0  0  0  0  0  0  0  0  0  0
   23.9270  -20.7048  -12.0481 C   0  0  0  0  0  0  0  0  0  0  0  0
   25.0632  -21.3628  -12.4383 C   0  0  0  0  0  0  0  0  0  0  0  0
   25.8267  -21.6842  -11.3519 N   0  0  0  0  0  0  0  0  0  0  0  0
   25.1579  -21.2241  -10.3068 C   0  0  0  0  0  0  0  0  0  0  0  0
   24.0155  -20.6316  -10.6841 N   0  0  0  0  0  0  0  0  0  0  0  0
   21.5730  -20.0946  -14.9001 C   0  0  0  0  0  0  0  0  0  0  0  0
   21.2126  -18.8902  -14.9949 O   0  0  0  0  0  0  0  0  0  0  0  0
   18.8502  -23.1913  -15.8065 O   0  0  0  0  0  0  0  0  0  0  0  0
   18.9156  -22.0822  -16.6470 C   0  0  0  0  0  0  0  0  0  0  0  0
   19.4596  -20.8781  -15.8974 C   0  0  2  0  0  0  0  0  0  0  0  0
   20.7400  -21.1687  -15.3058 N   0  0  0  0  0  0  0  0  0  0  0  0
   18.4810  -20.3745  -14.9027 C   0  0  0  0  0  0  0  0  0  0  0  0
   17.2845  -19.7989  -15.3032 O   0  0  0  0  0  0  0  0  0  0  0  0
   18.7101  -20.4560  -13.6717 O   0  0  0  0  0  0  0  0  0  0  0  0
  2  1  1  6
  3  2  1  0
  4  3  1  0
  5  2  1  0
  6  5  2  0
  7  5  1  0
  8  7  1  0
  9 10  1  0
  8  9  1  1
 10 11  2  0
 12 11  1  0
 13 12  1  0
 14 13  2  0
 14 10  1  0
 15 20  1  0
 15  8  1  0
 16 15  2  0
 18 17  1  0
 19 20  1  0
 19 18  1  1
 21 19  1  0
 21 22  1  0
 23 21  2  0
M  END
$$$$
