LST.pdb
     RDKit          3D

 22 21  0  0  1  0  0  0  0  0999 V2000
    7.3232  -14.5590   19.1919 C   0  0  0  0  0  0  0  0  0  0  0  0
    7.5009  -13.3828   20.1293 C   0  0  2  0  0  0  0  0  0  0  0  0
    7.9010  -12.1471   19.3627 C   0  0  0  0  0  0  0  0  0  0  0  0
    8.4565  -13.7589   21.2265 C   0  0  0  0  0  0  0  0  0  0  0  0
    8.0418  -14.9325   22.0367 C   0  0  2  0  0  0  0  0  0  0  0  0
    6.8676  -14.7183   22.8684 N   0  0  0  0  0  0  0  0  0  0  0  0
    9.2072  -15.3528   22.9029 C   0  0  0  0  0  0  0  0  0  0  0  0
    9.5924  -14.7110   23.8974 O   0  0  0  0  0  0  0  0  0  0  0  0
   10.1967  -19.2074   23.6027 O   0  0  0  0  0  0  0  0  0  0  0  0
   10.9264  -18.1615   24.1264 C   0  0  0  0  0  0  0  0  0  0  0  0
   11.1327  -16.9967   23.2213 C   0  0  2  0  0  0  0  0  0  0  0  0
    9.9236  -16.5595   22.5740 N   0  0  0  0  0  0  0  0  0  0  0  0
   12.2889  -17.1016   22.2977 C   0  0  0  0  0  0  0  0  0  0  0  0
   12.2407  -17.8896   21.3149 O   0  0  0  0  0  0  0  0  0  0  0  0
   14.0117  -14.4269   20.1682 C   0  0  0  0  0  0  0  0  0  0  0  0
   15.0662  -15.1800   20.9505 C   0  0  1  0  0  0  0  0  0  0  0  0
   15.5049  -14.2840   21.9565 O   0  0  0  0  0  0  0  0  0  0  0  0
   14.5997  -16.4624   21.5238 C   0  0  2  0  0  0  0  0  0  0  0  0
   13.4850  -16.3511   22.4509 N   0  0  0  0  0  0  0  0  0  0  0  0
   15.7574  -17.1640   22.1608 C   0  0  0  0  0  0  0  0  0  0  0  0
   15.6769  -17.4197   23.3968 O   0  0  0  0  0  0  0  0  0  0  0  0
   16.8749  -17.5352   21.4836 O   0  0  0  0  0  0  0  0  0  0  0  0
  2  1  1  6
  2  3  1  0
  4  2  1  0
  4  5  1  0
  5  6  1  1
  7  8  2  0
  7  5  1  0
  9 10  1  0
 11 10  1  6
 11 12  1  0
 11 13  1  0
 12  7  1  0
 13 19  1  0
 14 13  2  0
 16 17  1  0
 16 15  1  1
 18 16  1  0
 18 19  1  1
 20 18  1  0
 20 22  1  0
 21 20  2  0
M  END
$$$$
