LST.pdb
     RDKit          3D

 22 21  0  0  1  0  0  0  0  0999 V2000
    7.5895  -14.2593   18.4657 C   0  0  0  0  0  0  0  0  0  0  0  0
    7.3261  -13.6424   19.8234 C   0  0  2  0  0  0  0  0  0  0  0  0
    6.8051  -12.2346   19.6763 C   0  0  0  0  0  0  0  0  0  0  0  0
    8.5629  -13.7522   20.6700 C   0  0  0  0  0  0  0  0  0  0  0  0
    9.0065  -15.1426   20.9448 C   0  0  2  0  0  0  0  0  0  0  0  0
    7.9920  -16.0043   21.5319 N   0  0  0  0  0  0  0  0  0  0  0  0
   10.2142  -15.0898   21.8524 C   0  0  0  0  0  0  0  0  0  0  0  0
   11.2592  -14.4742   21.5727 O   0  0  0  0  0  0  0  0  0  0  0  0
   10.1770  -17.2382   25.7229 O   0  0  0  0  0  0  0  0  0  0  0  0
   10.7461  -16.0059   25.4814 C   0  0  0  0  0  0  0  0  0  0  0  0
   11.2287  -15.7750   24.0913 C   0  0  2  0  0  0  0  0  0  0  0  0
   10.1716  -15.7850   23.1144 N   0  0  0  0  0  0  0  0  0  0  0  0
   12.4122  -16.5717   23.6848 C   0  0  0  0  0  0  0  0  0  0  0  0
   12.2584  -17.7224   23.1933 O   0  0  0  0  0  0  0  0  0  0  0  0
   14.8471  -16.3871   21.0263 C   0  0  0  0  0  0  0  0  0  0  0  0
   15.6641  -16.4926   22.2961 C   0  0  1  0  0  0  0  0  0  0  0  0
   16.2289  -15.2082   22.4921 O   0  0  0  0  0  0  0  0  0  0  0  0
   14.8960  -16.9403   23.4795 C   0  0  2  0  0  0  0  0  0  0  0  0
   13.7495  -16.1119   23.8167 N   0  0  0  0  0  0  0  0  0  0  0  0
   15.8243  -17.0695   24.6457 C   0  0  0  0  0  0  0  0  0  0  0  0
   15.5487  -16.4075   25.6875 O   0  0  0  0  0  0  0  0  0  0  0  0
   16.9330  -17.8542   24.6389 O   0  0  0  0  0  0  0  0  0  0  0  0
  2  1  1  6
  2  3  1  0
  4  2  1  0
  4  5  1  0
  5  6  1  1
  7  8  2  0
  7  5  1  0
  9 10  1  0
 11 10  1  1
 11 12  1  0
 11 13  1  0
 12  7  1  0
 13 19  1  0
 14 13  2  0
 16 17  1  0
 16 15  1  6
 18 16  1  0
 18 19  1  1
 20 18  1  0
 20 22  1  0
 21 20  2  0
M  END
$$$$
