LST.pdb
     RDKit          3D

 22 21  0  0  1  0  0  0  0  0999 V2000
    9.6796  -13.0122   19.2794 C   0  0  0  0  0  0  0  0  0  0  0  0
    8.1983  -13.3036   19.1595 C   0  0  2  0  0  0  0  0  0  0  0  0
    7.4104  -12.0217   19.0558 C   0  0  0  0  0  0  0  0  0  0  0  0
    7.7716  -14.1946   20.2920 C   0  0  0  0  0  0  0  0  0  0  0  0
    8.5700  -15.4381   20.4393 C   0  0  2  0  0  0  0  0  0  0  0  0
    8.2541  -16.4858   19.4806 N   0  0  0  0  0  0  0  0  0  0  0  0
    8.3841  -15.9635   21.8444 C   0  0  0  0  0  0  0  0  0  0  0  0
    7.2910  -16.3527   22.2949 O   0  0  0  0  0  0  0  0  0  0  0  0
   11.6258  -17.6176   24.0911 O   0  0  0  0  0  0  0  0  0  0  0  0
   10.2708  -17.7155   24.3255 C   0  0  0  0  0  0  0  0  0  0  0  0
    9.4803  -16.4750   24.0912 C   0  0  2  0  0  0  0  0  0  0  0  0
    9.5237  -16.0238   22.7251 N   0  0  0  0  0  0  0  0  0  0  0  0
    9.6916  -15.3865   25.0766 C   0  0  0  0  0  0  0  0  0  0  0  0
   10.6039  -14.5365   24.8906 O   0  0  0  0  0  0  0  0  0  0  0  0
    7.4821  -12.4619   26.3174 C   0  0  0  0  0  0  0  0  0  0  0  0
    7.9368  -13.3173   27.4804 C   0  0  1  0  0  0  0  0  0  0  0  0
    6.8160  -14.1105   27.8294 O   0  0  0  0  0  0  0  0  0  0  0  0
    9.1291  -14.1473   27.1968 C   0  0  2  0  0  0  0  0  0  0  0  0
    8.9116  -15.2324   26.2536 N   0  0  0  0  0  0  0  0  0  0  0  0
    9.6849  -14.6629   28.4867 C   0  0  0  0  0  0  0  0  0  0  0  0
    9.7631  -15.9172   28.6289 O   0  0  0  0  0  0  0  0  0  0  0  0
   10.1047  -13.8588   29.4977 O   0  0  0  0  0  0  0  0  0  0  0  0
  2  1  1  1
  2  3  1  0
  4  2  1  0
  4  5  1  0
  5  6  1  6
  7  8  2  0
  7  5  1  0
  9 10  1  0
 11 10  1  6
 11 12  1  0
 11 13  1  0
 12  7  1  0
 13 19  1  0
 14 13  2  0
 16 17  1  0
 16 15  1  6
 18 16  1  0
 18 19  1  6
 20 18  1  0
 20 22  1  0
 21 20  2  0
M  END
$$$$
