LST.pdb
     RDKit          3D

 22 21  0  0  1  0  0  0  0  0999 V2000
    9.1414  -12.5135   19.2948 C   0  0  0  0  0  0  0  0  0  0  0  0
    8.0822  -13.5946   19.3468 C   0  0  2  0  0  0  0  0  0  0  0  0
    6.7383  -13.0429   18.9415 C   0  0  0  0  0  0  0  0  0  0  0  0
    8.0948  -14.2410   20.7034 C   0  0  0  0  0  0  0  0  0  0  0  0
    9.4177  -14.7639   21.1304 C   0  0  2  0  0  0  0  0  0  0  0  0
    9.9798  -15.7886   20.2641 N   0  0  0  0  0  0  0  0  0  0  0  0
    9.2886  -15.3034   22.5366 C   0  0  0  0  0  0  0  0  0  0  0  0
    8.6836  -14.7105   23.4486 O   0  0  0  0  0  0  0  0  0  0  0  0
   11.5137  -18.9179   23.7364 O   0  0  0  0  0  0  0  0  0  0  0  0
   10.2204  -18.6384   24.1238 C   0  0  0  0  0  0  0  0  0  0  0  0
    9.8491  -17.1963   24.1535 C   0  0  2  0  0  0  0  0  0  0  0  0
    9.8934  -16.5719   22.8573 N   0  0  0  0  0  0  0  0  0  0  0  0
   10.4983  -16.3906   25.2165 C   0  0  0  0  0  0  0  0  0  0  0  0
   11.5835  -15.7941   24.9807 O   0  0  0  0  0  0  0  0  0  0  0  0
   10.1604  -13.1535   26.9186 C   0  0  0  0  0  0  0  0  0  0  0  0
   10.0591  -14.2367   27.9711 C   0  0  1  0  0  0  0  0  0  0  0  0
    8.6758  -14.3703   28.2467 O   0  0  0  0  0  0  0  0  0  0  0  0
   10.6670  -15.5276   27.5774 C   0  0  2  0  0  0  0  0  0  0  0  0
    9.9636  -16.2416   26.5239 N   0  0  0  0  0  0  0  0  0  0  0  0
   10.8238  -16.3859   28.7928 C   0  0  0  0  0  0  0  0  0  0  0  0
   10.2700  -17.5228   28.7802 O   0  0  0  0  0  0  0  0  0  0  0  0
   11.5241  -16.0074   29.8935 O   0  0  0  0  0  0  0  0  0  0  0  0
  2  1  1  1
  2  3  1  0
  4  2  1  0
  4  5  1  0
  5  6  1  6
  7  8  2  0
  7  5  1  0
  9 10  1  0
 11 10  1  6
 11 12  1  0
 11 13  1  0
 12  7  1  0
 13 19  1  0
 14 13  2  0
 16 17  1  0
 16 15  1  6
 18 16  1  0
 18 19  1  6
 20 18  1  0
 20 22  1  0
 21 20  2  0
M  END
$$$$
