LST.pdb
     RDKit          3D

 22 21  0  0  1  0  0  0  0  0999 V2000
    9.4472  -13.4918   18.9733 C   0  0  0  0  0  0  0  0  0  0  0  0
    7.9368  -13.4609   19.0796 C   0  0  2  0  0  0  0  0  0  0  0  0
    7.4239  -12.0474   18.9632 C   0  0  0  0  0  0  0  0  0  0  0  0
    7.5105  -14.1654   20.3367 C   0  0  0  0  0  0  0  0  0  0  0  0
    7.9989  -15.5623   20.4626 C   0  0  2  0  0  0  0  0  0  0  0  0
    7.2779  -16.5378   19.6596 N   0  0  0  0  0  0  0  0  0  0  0  0
    7.9397  -15.9613   21.9194 C   0  0  0  0  0  0  0  0  0  0  0  0
    6.8776  -16.1789   22.5310 O   0  0  0  0  0  0  0  0  0  0  0  0
   11.5698  -17.1848   24.1206 O   0  0  0  0  0  0  0  0  0  0  0  0
   10.2492  -17.5193   24.3323 C   0  0  0  0  0  0  0  0  0  0  0  0
    9.2549  -16.4465   24.0517 C   0  0  2  0  0  0  0  0  0  0  0  0
    9.1703  -16.1017   22.6567 N   0  0  0  0  0  0  0  0  0  0  0  0
    9.3194  -15.2649   24.9463 C   0  0  0  0  0  0  0  0  0  0  0  0
    9.9958  -14.2559   24.6094 O   0  0  0  0  0  0  0  0  0  0  0  0
    7.1723  -12.4397   26.0294 C   0  0  0  0  0  0  0  0  0  0  0  0
    7.5622  -13.2370   27.2555 C   0  0  1  0  0  0  0  0  0  0  0  0
    6.4357  -14.0403   27.5603 O   0  0  0  0  0  0  0  0  0  0  0  0
    8.7872  -14.0510   27.0888 C   0  0  2  0  0  0  0  0  0  0  0  0
    8.6501  -15.1912   26.1969 N   0  0  0  0  0  0  0  0  0  0  0  0
    9.2764  -14.4811   28.4357 C   0  0  0  0  0  0  0  0  0  0  0  0
    9.3477  -15.7235   28.6617 O   0  0  0  0  0  0  0  0  0  0  0  0
    9.6435  -13.6125   29.4133 O   0  0  0  0  0  0  0  0  0  0  0  0
  2  1  1  1
  2  3  1  0
  4  2  1  0
  4  5  1  0
  5  6  1  6
  7  8  2  0
  7  5  1  0
  9 10  1  0
 11 10  1  6
 11 12  1  0
 11 13  1  0
 12  7  1  0
 13 19  1  0
 14 13  2  0
 16 17  1  0
 16 15  1  6
 18 16  1  0
 18 19  1  6
 20 18  1  0
 20 22  1  0
 21 20  2  0
M  END
$$$$
