LST.pdb
     RDKit          3D

 22 21  0  0  1  0  0  0  0  0999 V2000
    7.1925  -12.4320   18.9092 C   0  0  0  0  0  0  0  0  0  0  0  0
    8.1637  -13.3467   19.6258 C   0  0  2  0  0  0  0  0  0  0  0  0
    9.4390  -12.6132   19.9581 C   0  0  0  0  0  0  0  0  0  0  0  0
    8.3687  -14.5932   18.8118 C   0  0  0  0  0  0  0  0  0  0  0  0
    9.1560  -15.6551   19.4888 C   0  0  2  0  0  0  0  0  0  0  0  0
    9.3851  -16.8501   18.6913 N   0  0  0  0  0  0  0  0  0  0  0  0
    8.4513  -16.0295   20.7726 C   0  0  0  0  0  0  0  0  0  0  0  0
    7.3936  -16.6846   20.8116 O   0  0  0  0  0  0  0  0  0  0  0  0
    8.7785  -18.0443   24.7979 O   0  0  0  0  0  0  0  0  0  0  0  0
    9.0679  -17.5252   23.5539 C   0  0  0  0  0  0  0  0  0  0  0  0
    8.6255  -16.1230   23.3167 C   0  0  2  0  0  0  0  0  0  0  0  0
    9.0203  -15.6131   22.0298 N   0  0  0  0  0  0  0  0  0  0  0  0
    8.8820  -15.1749   24.4284 C   0  0  0  0  0  0  0  0  0  0  0  0
   10.0101  -14.6229   24.5380 O   0  0  0  0  0  0  0  0  0  0  0  0
    6.6186  -11.9921   25.6662 C   0  0  0  0  0  0  0  0  0  0  0  0
    6.9911  -12.9754   26.7550 C   0  0  1  0  0  0  0  0  0  0  0  0
    5.8238  -13.7436   26.9887 O   0  0  0  0  0  0  0  0  0  0  0  0
    8.1548  -13.8309   26.4314 C   0  0  2  0  0  0  0  0  0  0  0  0
    7.9124  -14.8366   25.4096 N   0  0  0  0  0  0  0  0  0  0  0  0
    8.6659  -14.4589   27.6896 C   0  0  0  0  0  0  0  0  0  0  0  0
    8.7006  -15.7222   27.7393 O   0  0  0  0  0  0  0  0  0  0  0  0
    9.0895  -13.7463   28.7656 O   0  0  0  0  0  0  0  0  0  0  0  0
  2  1  1  6
  2  3  1  0
  4  2  1  0
  4  5  1  0
  5  6  1  6
  7  8  2  0
  7  5  1  0
  9 10  1  0
 11 10  1  1
 11 12  1  0
 11 13  1  0
 12  7  1  0
 13 19  1  0
 14 13  2  0
 16 17  1  0
 16 15  1  6
 18 16  1  0
 18 19  1  6
 20 18  1  0
 20 22  1  0
 21 20  2  0
M  END
$$$$
