LST.pdb
     RDKit          3D

 22 21  0  0  1  0  0  0  0  0999 V2000
    7.2148  -12.3954   20.1994 C   0  0  0  0  0  0  0  0  0  0  0  0
    8.2586  -13.4624   20.4549 C   0  0  2  0  0  0  0  0  0  0  0  0
    9.6426  -12.9295   20.1803 C   0  0  0  0  0  0  0  0  0  0  0  0
    7.9117  -14.6976   19.6724 C   0  0  0  0  0  0  0  0  0  0  0  0
    8.7799  -15.8711   19.9461 C   0  0  2  0  0  0  0  0  0  0  0  0
    8.5416  -17.0223   19.0893 N   0  0  0  0  0  0  0  0  0  0  0  0
    8.6034  -16.2707   21.3933 C   0  0  0  0  0  0  0  0  0  0  0  0
    7.5186  -16.6418   21.8776 O   0  0  0  0  0  0  0  0  0  0  0  0
   11.9035  -17.8090   23.6803 O   0  0  0  0  0  0  0  0  0  0  0  0
   10.5389  -17.9385   23.8280 C   0  0  0  0  0  0  0  0  0  0  0  0
    9.7442  -16.6935   23.6364 C   0  0  2  0  0  0  0  0  0  0  0  0
    9.7426  -16.2250   22.2754 N   0  0  0  0  0  0  0  0  0  0  0  0
    9.9914  -15.6182   24.6278 C   0  0  0  0  0  0  0  0  0  0  0  0
   10.8432  -14.7211   24.3851 O   0  0  0  0  0  0  0  0  0  0  0  0
    7.9537  -12.7404   26.1040 C   0  0  0  0  0  0  0  0  0  0  0  0
    8.4495  -13.6387   27.2169 C   0  0  1  0  0  0  0  0  0  0  0  0
    7.3298  -14.4150   27.6056 O   0  0  0  0  0  0  0  0  0  0  0  0
    9.6035  -14.4881   26.8459 C   0  0  2  0  0  0  0  0  0  0  0  0
    9.3125  -15.5281   25.8722 N   0  0  0  0  0  0  0  0  0  0  0  0
   10.2025  -15.0699   28.0873 C   0  0  0  0  0  0  0  0  0  0  0  0
   10.2716  -16.3303   28.1670 O   0  0  0  0  0  0  0  0  0  0  0  0
   10.6699  -14.3189   29.1181 O   0  0  0  0  0  0  0  0  0  0  0  0
  2  1  1  6
  2  3  1  0
  4  2  1  0
  4  5  1  0
  5  6  1  6
  7  8  2  0
  7  5  1  0
  9 10  1  0
 11 10  1  6
 11 12  1  0
 11 13  1  0
 12  7  1  0
 13 19  1  0
 14 13  2  0
 16 17  1  0
 16 15  1  6
 18 16  1  0
 18 19  1  6
 20 18  1  0
 20 22  1  0
 21 20  2  0
M  END
$$$$
