LST.pdb
     RDKit          3D

 22 21  0  0  1  0  0  0  0  0999 V2000
    6.3645  -16.5158   18.1150 C   0  0  0  0  0  0  0  0  0  0  0  0
    7.3113  -17.6467   18.4589 C   0  0  2  0  0  0  0  0  0  0  0  0
    6.5824  -18.9671   18.4672 C   0  0  0  0  0  0  0  0  0  0  0  0
    8.0200  -17.3305   19.7458 C   0  0  0  0  0  0  0  0  0  0  0  0
    8.7128  -16.0169   19.7673 C   0  0  2  0  0  0  0  0  0  0  0  0
    9.7316  -15.8452   18.7432 N   0  0  0  0  0  0  0  0  0  0  0  0
    9.3293  -15.8226   21.1337 C   0  0  0  0  0  0  0  0  0  0  0  0
   10.5327  -16.0229   21.3809 O   0  0  0  0  0  0  0  0  0  0  0  0
    6.7688  -14.6700   24.5410 O   0  0  0  0  0  0  0  0  0  0  0  0
    8.0893  -14.3075   24.3815 C   0  0  0  0  0  0  0  0  0  0  0  0
    8.9289  -15.2469   23.5873 C   0  0  2  0  0  0  0  0  0  0  0  0
    8.4931  -15.3823   22.2221 N   0  0  0  0  0  0  0  0  0  0  0  0
    9.2284  -16.5449   24.2401 C   0  0  0  0  0  0  0  0  0  0  0  0
    8.4309  -17.5129   24.1129 O   0  0  0  0  0  0  0  0  0  0  0  0
   11.2806  -19.2192   23.4238 C   0  0  0  0  0  0  0  0  0  0  0  0
   11.6995  -18.8690   24.8355 C   0  0  1  0  0  0  0  0  0  0  0  0
   12.9265  -18.1725   24.7059 O   0  0  0  0  0  0  0  0  0  0  0  0
   10.6991  -18.0815   25.5904 C   0  0  2  0  0  0  0  0  0  0  0  0
   10.3893  -16.7784   25.0244 N   0  0  0  0  0  0  0  0  0  0  0  0
   11.1473  -17.9544   27.0122 C   0  0  0  0  0  0  0  0  0  0  0  0
   11.3435  -16.7883   27.4605 O   0  0  0  0  0  0  0  0  0  0  0  0
   11.3495  -19.0176   27.8331 O   0  0  0  0  0  0  0  0  0  0  0  0
  2  1  1  1
  2  3  1  0
  4  2  1  0
  4  5  1  0
  5  6  1  6
  7  8  2  0
  7  5  1  0
  9 10  1  0
 11 10  1  1
 11 12  1  0
 11 13  1  0
 12  7  1  0
 13 19  1  0
 14 13  2  0
 16 17  1  0
 16 15  1  6
 18 16  1  0
 18 19  1  6
 20 18  1  0
 20 22  1  0
 21 20  2  0
M  END
$$$$
