LST.pdb
     RDKit          3D

 22 21  0  0  1  0  0  0  0  0999 V2000
    6.8570  -19.6291   11.0898 C   0  0  0  0  0  0  0  0  0  0  0  0
    8.3459  -19.5787   10.8178 C   0  0  2  0  0  0  0  0  0  0  0  0
    8.8084  -20.8495   10.1501 C   0  0  0  0  0  0  0  0  0  0  0  0
    9.0753  -19.2559   12.0916 C   0  0  0  0  0  0  0  0  0  0  0  0
    9.1705  -20.3816   13.0556 C   0  0  2  0  0  0  0  0  0  0  0  0
    7.9139  -20.7562   13.6856 N   0  0  0  0  0  0  0  0  0  0  0  0
   10.1822  -20.0182   14.1184 C   0  0  0  0  0  0  0  0  0  0  0  0
   11.3180  -19.5763   13.8653 O   0  0  0  0  0  0  0  0  0  0  0  0
    9.0186  -20.0836   18.3620 O   0  0  0  0  0  0  0  0  0  0  0  0
    9.9746  -19.2830   17.7740 C   0  0  0  0  0  0  0  0  0  0  0  0
   10.6953  -19.8777   16.6141 C   0  0  2  0  0  0  0  0  0  0  0  0
    9.8301  -20.1865   15.5059 N   0  0  0  0  0  0  0  0  0  0  0  0
   11.6430  -20.9708   16.9422 C   0  0  0  0  0  0  0  0  0  0  0  0
   11.2172  -22.1463   17.1040 O   0  0  0  0  0  0  0  0  0  0  0  0
   14.7561  -22.2299   14.9639 C   0  0  0  0  0  0  0  0  0  0  0  0
   15.1188  -21.9318   16.4029 C   0  0  1  0  0  0  0  0  0  0  0  0
   15.8211  -20.7017   16.3705 O   0  0  0  0  0  0  0  0  0  0  0  0
   13.9618  -21.8786   17.3245 C   0  0  2  0  0  0  0  0  0  0  0  0
   13.0420  -20.7766   17.0921 N   0  0  0  0  0  0  0  0  0  0  0  0
   14.4595  -21.8716   18.7354 C   0  0  0  0  0  0  0  0  0  0  0  0
   15.1002  -22.8868   19.1336 O   0  0  0  0  0  0  0  0  0  0  0  0
   14.2593  -20.8405   19.5967 O   0  0  0  0  0  0  0  0  0  0  0  0
  2  1  1  1
  2  3  1  0
  4  2  1  0
  4  5  1  0
  5  6  1  1
  7  8  2  0
  7  5  1  0
  9 10  1  0
 11 10  1  1
 11 12  1  0
 11 13  1  0
 12  7  1  0
 13 19  1  0
 14 13  2  0
 16 17  1  0
 16 15  1  6
 18 16  1  0
 18 19  1  6
 20 18  1  0
 20 22  1  0
 21 20  2  0
M  END
$$$$
