LST.pdb
     RDKit          3D

 22 21  0  0  1  0  0  0  0  0999 V2000
    8.6525  -12.2615   19.1497 C   0  0  0  0  0  0  0  0  0  0  0  0
    8.6899  -13.7083   18.7039 C   0  0  2  0  0  0  0  0  0  0  0  0
    7.3036  -14.1972   18.3664 C   0  0  0  0  0  0  0  0  0  0  0  0
    9.3936  -14.5332   19.7445 C   0  0  0  0  0  0  0  0  0  0  0  0
   10.7127  -14.0012   20.1718 C   0  0  2  0  0  0  0  0  0  0  0  0
   11.7950  -14.2134   19.2230 N   0  0  0  0  0  0  0  0  0  0  0  0
   11.0735  -14.6250   21.5006 C   0  0  0  0  0  0  0  0  0  0  0  0
   12.1372  -15.2374   21.7075 O   0  0  0  0  0  0  0  0  0  0  0  0
    7.9770  -15.2892   24.5859 O   0  0  0  0  0  0  0  0  0  0  0  0
    9.2425  -14.8115   24.8522 C   0  0  0  0  0  0  0  0  0  0  0  0
   10.2964  -15.1810   23.8667 C   0  0  2  0  0  0  0  0  0  0  0  0
   10.1470  -14.5152   22.5993 N   0  0  0  0  0  0  0  0  0  0  0  0
   10.5715  -16.6330   23.7389 C   0  0  0  0  0  0  0  0  0  0  0  0
   10.8162  -17.3208   24.7668 O   0  0  0  0  0  0  0  0  0  0  0  0
    8.5628  -19.4324   21.3912 C   0  0  0  0  0  0  0  0  0  0  0  0
   10.0715  -19.4113   21.2708 C   0  0  1  0  0  0  0  0  0  0  0  0
   10.3455  -18.7557   20.0450 O   0  0  0  0  0  0  0  0  0  0  0  0
   10.7644  -18.7625   22.4065 C   0  0  2  0  0  0  0  0  0  0  0  0
   10.5791  -17.3232   22.4975 N   0  0  0  0  0  0  0  0  0  0  0  0
   12.2182  -19.1128   22.3579 C   0  0  0  0  0  0  0  0  0  0  0  0
   13.0484  -18.1588   22.3398 O   0  0  0  0  0  0  0  0  0  0  0  0
   12.6822  -20.3892   22.3336 O   0  0  0  0  0  0  0  0  0  0  0  0
  2  1  1  1
  2  3  1  0
  4  2  1  0
  4  5  1  0
  5  6  1  6
  7  8  2  0
  7  5  1  0
  9 10  1  0
 11 10  1  1
 11 12  1  0
 11 13  1  0
 12  7  1  0
 13 19  1  0
 14 13  2  0
 16 17  1  0
 16 15  1  1
 18 16  1  0
 18 19  1  6
 20 18  1  0
 20 22  1  0
 21 20  2  0
M  END
$$$$
