LST.pdb
     RDKit          3D

 22 21  0  0  1  0  0  0  0  0999 V2000
    9.3481  -13.4446   18.7652 C   0  0  0  0  0  0  0  0  0  0  0  0
    7.8576  -13.5033   19.0268 C   0  0  2  0  0  0  0  0  0  0  0  0
    7.2388  -12.1347   18.8896 C   0  0  0  0  0  0  0  0  0  0  0  0
    7.6097  -14.1567   20.3572 C   0  0  0  0  0  0  0  0  0  0  0  0
    8.1298  -15.5428   20.4754 C   0  0  2  0  0  0  0  0  0  0  0  0
    7.4648  -16.5208   19.6282 N   0  0  0  0  0  0  0  0  0  0  0  0
    8.0276  -15.9714   21.9214 C   0  0  0  0  0  0  0  0  0  0  0  0
    6.9484  -16.2085   22.4945 O   0  0  0  0  0  0  0  0  0  0  0  0
   10.3193  -17.9848   25.6900 O   0  0  0  0  0  0  0  0  0  0  0  0
   10.1929  -17.6262   24.3648 C   0  0  0  0  0  0  0  0  0  0  0  0
    9.2780  -16.4845   24.0858 C   0  0  2  0  0  0  0  0  0  0  0  0
    9.2353  -16.1182   22.6944 N   0  0  0  0  0  0  0  0  0  0  0  0
    9.4117  -15.3208   24.9960 C   0  0  0  0  0  0  0  0  0  0  0  0
   10.2879  -14.4427   24.7715 O   0  0  0  0  0  0  0  0  0  0  0  0
    7.4276  -12.2263   26.0568 C   0  0  0  0  0  0  0  0  0  0  0  0
    7.6938  -13.1072   27.2586 C   0  0  1  0  0  0  0  0  0  0  0  0
    6.4782  -13.7921   27.5042 O   0  0  0  0  0  0  0  0  0  0  0  0
    8.8266  -14.0446   27.0880 C   0  0  2  0  0  0  0  0  0  0  0  0
    8.5940  -15.1227   26.1404 N   0  0  0  0  0  0  0  0  0  0  0  0
    9.2213  -14.5844   28.4263 C   0  0  0  0  0  0  0  0  0  0  0  0
    9.2086  -15.8402   28.5763 O   0  0  0  0  0  0  0  0  0  0  0  0
    9.5885  -13.8005   29.4731 O   0  0  0  0  0  0  0  0  0  0  0  0
  2  1  1  1
  2  3  1  0
  4  2  1  0
  4  5  1  0
  5  6  1  6
  7  8  2  0
  7  5  1  0
  9 10  1  0
 11 10  1  6
 11 12  1  0
 11 13  1  0
 12  7  1  0
 13 19  1  0
 14 13  2  0
 16 17  1  0
 16 15  1  6
 18 16  1  0
 18 19  1  6
 20 18  1  0
 20 22  1  0
 21 20  2  0
M  END
$$$$
