LST.pdb
     RDKit          3D

 22 21  0  0  1  0  0  0  0  0999 V2000
    9.1896  -11.8255   19.0255 C   0  0  0  0  0  0  0  0  0  0  0  0
    8.2903  -13.0377   19.1489 C   0  0  2  0  0  0  0  0  0  0  0  0
    6.9059  -12.6309   19.5880 C   0  0  0  0  0  0  0  0  0  0  0  0
    8.9424  -14.0541   20.0435 C   0  0  0  0  0  0  0  0  0  0  0  0
   10.3327  -14.4142   19.6650 C   0  0  2  0  0  0  0  0  0  0  0  0
   10.5492  -14.6049   18.2391 N   0  0  0  0  0  0  0  0  0  0  0  0
   10.7220  -15.6707   20.4097 C   0  0  0  0  0  0  0  0  0  0  0  0
   10.0014  -16.2141   21.2669 O   0  0  0  0  0  0  0  0  0  0  0  0
   14.7915  -17.2788   19.9821 O   0  0  0  0  0  0  0  0  0  0  0  0
   13.6676  -18.0695   20.0932 C   0  0  0  0  0  0  0  0  0  0  0  0
   12.5070  -17.4532   20.7943 C   0  0  2  0  0  0  0  0  0  0  0  0
   11.9936  -16.2868   20.1251 N   0  0  0  0  0  0  0  0  0  0  0  0
   12.6685  -17.2680   22.2572 C   0  0  0  0  0  0  0  0  0  0  0  0
   13.3163  -16.2812   22.6996 O   0  0  0  0  0  0  0  0  0  0  0  0
   10.0563  -16.7809   25.1034 C   0  0  0  0  0  0  0  0  0  0  0  0
   10.9767  -17.9441   25.4052 C   0  0  1  0  0  0  0  0  0  0  0  0
   10.2211  -19.1092   25.1239 O   0  0  0  0  0  0  0  0  0  0  0  0
   12.2519  -17.9229   24.6541 C   0  0  2  0  0  0  0  0  0  0  0  0
   12.1263  -18.1559   23.2243 N   0  0  0  0  0  0  0  0  0  0  0  0
   13.2016  -18.8989   25.2738 C   0  0  0  0  0  0  0  0  0  0  0  0
   13.6681  -19.8110   24.5321 O   0  0  0  0  0  0  0  0  0  0  0  0
   13.5820  -18.8517   26.5769 O   0  0  0  0  0  0  0  0  0  0  0  0
  2  1  1  1
  2  3  1  0
  4  2  1  0
  4  5  1  0
  5  6  1  6
  7  8  2  0
  7  5  1  0
  9 10  1  0
 11 10  1  6
 11 12  1  0
 11 13  1  0
 12  7  1  0
 13 19  1  0
 14 13  2  0
 16 17  1  0
 16 15  1  6
 18 16  1  0
 18 19  1  6
 20 18  1  0
 20 22  1  0
 21 20  2  0
M  END
$$$$
