MAD.pdb
     RDKit          3D

 22 21  0  0  1  0  0  0  0  0999 V2000
   31.2398  -21.9046   -9.2954 C   0  0  0  0  0  0  0  0  0  0  0  0
   30.0993  -21.7616  -10.6868 S   0  0  0  0  0  0  0  0  0  0  0  0
   28.4635  -21.2108  -10.1277 C   0  0  0  0  0  0  0  0  0  0  0  0
   27.5803  -21.0979  -11.3489 C   0  0  0  0  0  0  0  0  0  0  0  0
   26.2671  -20.4743  -10.9160 C   0  0  2  0  0  0  0  0  0  0  0  0
   25.9255  -20.9627   -9.6066 N   0  0  0  0  0  0  0  0  0  0  0  0
   25.2470  -20.8588  -11.9066 C   0  0  0  0  0  0  0  0  0  0  0  0
   25.5405  -20.8474  -13.1379 O   0  0  0  0  0  0  0  0  0  0  0  0
   21.7546  -22.2100  -11.8371 C   0  0  0  0  0  0  0  0  0  0  0  0
   22.9691  -21.6531  -12.5924 C   0  0  2  0  0  0  0  0  0  0  0  0
   23.9216  -21.2530  -11.5810 N   0  0  0  0  0  0  0  0  0  0  0  0
   22.4945  -20.4594  -13.3208 C   0  0  0  0  0  0  0  0  0  0  0  0
   22.1477  -19.4147  -12.6707 O   0  0  0  0  0  0  0  0  0  0  0  0
   22.3878  -20.3710  -14.7215 N   0  0  0  0  0  0  0  0  0  0  0  0
   21.9433  -19.1804  -15.3741 C   0  0  1  0  0  0  0  0  0  0  0  0
   22.7854  -18.7892  -16.5564 C   0  0  0  0  0  0  0  0  0  0  0  0
   22.2925  -17.5745  -17.2409 C   0  0  0  0  0  0  0  0  0  0  0  0
   21.3312  -16.9760  -16.6899 O   0  0  0  0  0  0  0  0  0  0  0  0
   20.4912  -19.2722  -15.7629 C   0  0  0  0  0  0  0  0  0  0  0  0
   19.8958  -18.3147  -16.3199 O   0  0  0  0  0  0  0  0  0  0  0  0
   22.7906  -17.0612  -18.4036 O   0  0  0  0  0  0  0  0  0  0  0  0
   19.7536  -20.4208  -15.5202 O   0  0  0  0  0  0  0  0  0  0  0  0
  2  1  1  0
  3  2  1  0
  4  3  1  0
  4  5  1  0
  5  6  1  1
  7  5  1  0
  7  8  2  0
 10  9  1  1
 10 11  1  0
 10 12  1  0
 11  7  1  0
 12 14  1  0
 13 12  2  0
 14 15  1  0
 15 16  1  6
 15 19  1  0
 16 17  1  0
 17 18  2  0
 19 22  1  0
 20 19  2  0
 21 17  1  0
M  END
$$$$
