MAD.pdb
     RDKit          3D

 22 21  0  0  1  0  0  0  0  0999 V2000
   11.7653   -9.0658   -8.5021 C   0  0  0  0  0  0  0  0  0  0  0  0
   13.4808   -9.1334   -9.0585 S   0  0  0  0  0  0  0  0  0  0  0  0
   13.6524  -10.2320  -10.4922 C   0  0  0  0  0  0  0  0  0  0  0  0
   15.0921  -10.1640  -10.9468 C   0  0  0  0  0  0  0  0  0  0  0  0
   15.2369  -11.0561  -12.1650 C   0  0  2  0  0  0  0  0  0  0  0  0
   15.4471  -12.4116  -11.7308 N   0  0  0  0  0  0  0  0  0  0  0  0
   16.3894  -10.5641  -12.9392 C   0  0  0  0  0  0  0  0  0  0  0  0
   17.5591  -10.9109  -12.6014 O   0  0  0  0  0  0  0  0  0  0  0  0
   16.8690   -8.9636  -16.2561 C   0  0  0  0  0  0  0  0  0  0  0  0
   17.4334   -9.3900  -14.8941 C   0  0  2  0  0  0  0  0  0  0  0  0
   16.2903   -9.7067  -14.0674 N   0  0  0  0  0  0  0  0  0  0  0  0
   18.1270   -8.2085  -14.3427 C   0  0  0  0  0  0  0  0  0  0  0  0
   17.4858   -7.3800  -13.6101 O   0  0  0  0  0  0  0  0  0  0  0  0
   19.4838   -7.9064  -14.5635 N   0  0  0  0  0  0  0  0  0  0  0  0
   20.1043   -6.7500  -13.9986 C   0  0  1  0  0  0  0  0  0  0  0  0
   21.6066   -6.7981  -14.0228 C   0  0  0  0  0  0  0  0  0  0  0  0
   22.2333   -5.6091  -13.4058 C   0  0  0  0  0  0  0  0  0  0  0  0
   21.9704   -5.4084  -12.1907 O   0  0  0  0  0  0  0  0  0  0  0  0
   19.6027   -5.4837  -14.6413 C   0  0  0  0  0  0  0  0  0  0  0  0
   19.4988   -5.3742  -15.8898 O   0  0  0  0  0  0  0  0  0  0  0  0
   23.0603   -4.7281  -14.0409 O   0  0  0  0  0  0  0  0  0  0  0  0
   19.2352   -4.3868  -13.8771 O   0  0  0  0  0  0  0  0  0  0  0  0
  2  1  1  0
  3  2  1  0
  4  3  1  0
  4  5  1  0
  5  6  1  1
  7  5  1  0
  7  8  2  0
 10  9  1  6
 10 11  1  0
 10 12  1  0
 11  7  1  0
 12 14  1  0
 13 12  2  0
 14 15  1  0
 15 16  1  6
 15 19  1  0
 16 17  1  0
 17 18  2  0
 19 22  1  0
 20 19  2  0
 21 17  1  0
M  END
$$$$
