MAD.pdb
     RDKit          3D

 22 21  0  0  1  0  0  0  0  0999 V2000
   17.0684  -10.2539  -22.0673 C   0  0  0  0  0  0  0  0  0  0  0  0
   17.2767   -8.9767  -20.8093 S   0  0  0  0  0  0  0  0  0  0  0  0
   17.9224   -9.6858  -19.2691 C   0  0  0  0  0  0  0  0  0  0  0  0
   18.0415   -8.5613  -18.2664 C   0  0  0  0  0  0  0  0  0  0  0  0
   18.5224   -9.1564  -16.9566 C   0  0  2  0  0  0  0  0  0  0  0  0
   17.4933  -10.0089  -16.4235 N   0  0  0  0  0  0  0  0  0  0  0  0
   18.8093   -8.0382  -16.0416 C   0  0  0  0  0  0  0  0  0  0  0  0
   17.8592   -7.4974  -15.4036 O   0  0  0  0  0  0  0  0  0  0  0  0
   21.8076   -6.3743  -14.5848 C   0  0  0  0  0  0  0  0  0  0  0  0
   20.3205   -6.3517  -14.9635 C   0  0  2  0  0  0  0  0  0  0  0  0
   20.1048   -7.5028  -15.8114 N   0  0  0  0  0  0  0  0  0  0  0  0
   20.1091   -5.1176  -15.7465 C   0  0  0  0  0  0  0  0  0  0  0  0
   20.2935   -5.1285  -17.0115 O   0  0  0  0  0  0  0  0  0  0  0  0
   19.7071   -3.8853  -15.1981 N   0  0  0  0  0  0  0  0  0  0  0  0
   19.5164   -2.7224  -16.0059 C   0  0  1  0  0  0  0  0  0  0  0  0
   18.4132   -1.8241  -15.5205 C   0  0  0  0  0  0  0  0  0  0  0  0
   17.0749   -2.4454  -15.6212 C   0  0  0  0  0  0  0  0  0  0  0  0
   16.8449   -3.1059  -16.6683 O   0  0  0  0  0  0  0  0  0  0  0  0
   20.7977   -1.9485  -16.1721 C   0  0  0  0  0  0  0  0  0  0  0  0
   21.7757   -2.1186  -15.4002 O   0  0  0  0  0  0  0  0  0  0  0  0
   16.0872   -2.3593  -14.6829 O   0  0  0  0  0  0  0  0  0  0  0  0
   20.9472   -1.0157  -17.1869 O   0  0  0  0  0  0  0  0  0  0  0  0
  2  1  1  0
  3  2  1  0
  4  3  1  0
  4  5  1  0
  5  6  1  1
  7  5  1  0
  7  8  2  0
 10  9  1  6
 10 11  1  0
 10 12  1  0
 11  7  1  0
 12 14  1  0
 13 12  2  0
 14 15  1  0
 15 16  1  1
 15 19  1  0
 16 17  1  0
 17 18  2  0
 19 22  1  0
 20 19  2  0
 21 17  1  0
M  END
$$$$
