MAD.pdb
     RDKit          3D

 22 21  0  0  1  0  0  0  0  0999 V2000
   11.7488  -12.0501  -10.8763 C   0  0  0  0  0  0  0  0  0  0  0  0
   12.5928  -12.4420  -12.4227 S   0  0  0  0  0  0  0  0  0  0  0  0
   14.2903  -11.8014  -12.4128 C   0  0  0  0  0  0  0  0  0  0  0  0
   14.2361  -10.3794  -11.9035 C   0  0  0  0  0  0  0  0  0  0  0  0
   15.6590   -9.8595  -11.8264 C   0  0  2  0  0  0  0  0  0  0  0  0
   16.4167  -10.6982  -10.9363 N   0  0  0  0  0  0  0  0  0  0  0  0
   15.5977   -8.4757  -11.3252 C   0  0  0  0  0  0  0  0  0  0  0  0
   15.0146   -7.5895  -12.0158 O   0  0  0  0  0  0  0  0  0  0  0  0
   16.4307   -6.6832   -8.1560 C   0  0  0  0  0  0  0  0  0  0  0  0
   16.0640   -6.6718   -9.6463 C   0  0  2  0  0  0  0  0  0  0  0  0
   16.1571   -8.0438  -10.0929 N   0  0  0  0  0  0  0  0  0  0  0  0
   17.0979   -5.8631  -10.3230 C   0  0  0  0  0  0  0  0  0  0  0  0
   17.1541   -4.6027  -10.1171 O   0  0  0  0  0  0  0  0  0  0  0  0
   18.0620   -6.3815  -11.2079 N   0  0  0  0  0  0  0  0  0  0  0  0
   19.0688   -5.5579  -11.7989 C   0  0  1  0  0  0  0  0  0  0  0  0
   20.4708   -5.9771  -11.4546 C   0  0  0  0  0  0  0  0  0  0  0  0
   21.5012   -5.1677  -12.1404 C   0  0  0  0  0  0  0  0  0  0  0  0
   21.3699   -3.9177  -12.0635 O   0  0  0  0  0  0  0  0  0  0  0  0
   18.8953   -5.4578  -13.2916 C   0  0  0  0  0  0  0  0  0  0  0  0
   18.4417   -6.4157  -13.9685 O   0  0  0  0  0  0  0  0  0  0  0  0
   22.5650   -5.6628  -12.8381 O   0  0  0  0  0  0  0  0  0  0  0  0
   19.2307   -4.3008  -13.9779 O   0  0  0  0  0  0  0  0  0  0  0  0
  2  1  1  0
  3  2  1  0
  4  3  1  0
  4  5  1  0
  5  6  1  1
  7  5  1  0
  7  8  2  0
 10  9  1  1
 10 11  1  0
 10 12  1  0
 11  7  1  0
 12 14  1  0
 13 12  2  0
 14 15  1  0
 15 16  1  6
 15 19  1  0
 16 17  1  0
 17 18  2  0
 19 22  1  0
 20 19  2  0
 21 17  1  0
M  END
$$$$
