MAD.pdb
     RDKit          3D

 22 21  0  0  1  0  0  0  0  0999 V2000
   10.3815  -14.2504  -12.1119 C   0  0  0  0  0  0  0  0  0  0  0  0
   11.4808  -13.2947  -11.0464 S   0  0  0  0  0  0  0  0  0  0  0  0
   13.1184  -13.1113  -11.8057 C   0  0  0  0  0  0  0  0  0  0  0  0
   13.9109  -12.1505  -10.9495 C   0  0  0  0  0  0  0  0  0  0  0  0
   15.2933  -12.0172  -11.5594 C   0  0  2  0  0  0  0  0  0  0  0  0
   16.0015  -13.2581  -11.3909 N   0  0  0  0  0  0  0  0  0  0  0  0
   15.9806  -10.9171  -10.8614 C   0  0  0  0  0  0  0  0  0  0  0  0
   16.3155  -11.0628   -9.6494 O   0  0  0  0  0  0  0  0  0  0  0  0
   17.7880   -7.8245  -11.7404 C   0  0  0  0  0  0  0  0  0  0  0  0
   16.9588   -8.6122  -10.7169 C   0  0  2  0  0  0  0  0  0  0  0  0
   16.3070   -9.6694  -11.4570 N   0  0  0  0  0  0  0  0  0  0  0  0
   15.9416   -7.6765  -10.1968 C   0  0  0  0  0  0  0  0  0  0  0  0
   14.8518   -7.5004  -10.8414 O   0  0  0  0  0  0  0  0  0  0  0  0
   16.0751   -6.9350   -9.0079 N   0  0  0  0  0  0  0  0  0  0  0  0
   15.0629   -6.0315   -8.5605 C   0  0  1  0  0  0  0  0  0  0  0  0
   15.1365   -5.7215   -7.0914 C   0  0  0  0  0  0  0  0  0  0  0  0
   14.0640   -4.8095   -6.6384 C   0  0  0  0  0  0  0  0  0  0  0  0
   13.1400   -4.5831   -7.4635 O   0  0  0  0  0  0  0  0  0  0  0  0
   15.0566   -4.7626   -9.3718 C   0  0  0  0  0  0  0  0  0  0  0  0
   14.0280   -4.0453   -9.4661 O   0  0  0  0  0  0  0  0  0  0  0  0
   13.9998   -4.2049   -5.4162 O   0  0  0  0  0  0  0  0  0  0  0  0
   16.1895   -4.3363  -10.0478 O   0  0  0  0  0  0  0  0  0  0  0  0
  2  1  1  0
  3  2  1  0
  4  3  1  0
  4  5  1  0
  5  6  1  1
  7  5  1  0
  7  8  2  0
 10  9  1  6
 10 11  1  0
 10 12  1  0
 11  7  1  0
 12 14  1  0
 13 12  2  0
 14 15  1  0
 15 16  1  1
 15 19  1  0
 16 17  1  0
 17 18  2  0
 19 22  1  0
 20 19  2  0
 21 17  1  0
M  END
$$$$
