MAD.pdb
     RDKit          3D

 22 21  0  0  1  0  0  0  0  0999 V2000
   21.3378  -20.8558  -16.4987 C   0  0  0  0  0  0  0  0  0  0  0  0
   22.1739  -19.4708  -15.6987 S   0  0  0  0  0  0  0  0  0  0  0  0
   20.9810  -18.2005  -15.1934 C   0  0  0  0  0  0  0  0  0  0  0  0
   21.7683  -17.0135  -14.6881 C   0  0  0  0  0  0  0  0  0  0  0  0
   21.6632  -15.9114  -15.7249 C   0  0  2  0  0  0  0  0  0  0  0  0
   22.4004  -16.2995  -16.8978 N   0  0  0  0  0  0  0  0  0  0  0  0
   22.2252  -14.6875  -15.1282 C   0  0  0  0  0  0  0  0  0  0  0  0
   21.7640  -14.2638  -14.0280 O   0  0  0  0  0  0  0  0  0  0  0  0
   25.0718  -12.3634  -15.8246 C   0  0  0  0  0  0  0  0  0  0  0  0
   23.7710  -12.7129  -15.0889 C   0  0  2  0  0  0  0  0  0  0  0  0
   23.2738  -13.9225  -15.7053 N   0  0  0  0  0  0  0  0  0  0  0  0
   22.8322  -11.6041  -15.3539 C   0  0  0  0  0  0  0  0  0  0  0  0
   22.1054  -11.6248  -16.4054 O   0  0  0  0  0  0  0  0  0  0  0  0
   22.6637  -10.4856  -14.5163 N   0  0  0  0  0  0  0  0  0  0  0  0
   21.7395   -9.4405  -14.8244 C   0  0  1  0  0  0  0  0  0  0  0  0
   21.4105   -8.5599  -13.6513 C   0  0  0  0  0  0  0  0  0  0  0  0
   20.4610   -7.4775  -13.9890 C   0  0  0  0  0  0  0  0  0  0  0  0
   20.9575   -6.3315  -14.1504 O   0  0  0  0  0  0  0  0  0  0  0  0
   22.2081   -8.6150  -15.9937 C   0  0  0  0  0  0  0  0  0  0  0  0
   21.4056   -7.9414  -16.6892 O   0  0  0  0  0  0  0  0  0  0  0  0
   19.1117   -7.6226  -14.1364 O   0  0  0  0  0  0  0  0  0  0  0  0
   23.5476   -8.5667  -16.3483 O   0  0  0  0  0  0  0  0  0  0  0  0
  2  1  1  0
  3  2  1  0
  4  3  1  0
  4  5  1  0
  5  6  1  6
  7  5  1  0
  7  8  2  0
 10  9  1  6
 10 11  1  0
 10 12  1  0
 11  7  1  0
 12 14  1  0
 13 12  2  0
 14 15  1  0
 15 16  1  1
 15 19  1  0
 16 17  1  0
 17 18  2  0
 19 22  1  0
 20 19  2  0
 21 17  1  0
M  END
$$$$
