MAD.pdb
     RDKit          3D

 22 21  0  0  1  0  0  0  0  0999 V2000
   28.5469  -13.1646  -14.6197 C   0  0  0  0  0  0  0  0  0  0  0  0
   27.4352  -11.8460  -15.1511 S   0  0  0  0  0  0  0  0  0  0  0  0
   27.2931  -11.8101  -16.9595 C   0  0  0  0  0  0  0  0  0  0  0  0
   26.5517  -10.5468  -17.3318 C   0  0  0  0  0  0  0  0  0  0  0  0
   25.2074  -10.5734  -16.6297 C   0  0  2  0  0  0  0  0  0  0  0  0
   24.5196  -11.7874  -16.9802 N   0  0  0  0  0  0  0  0  0  0  0  0
   24.4520   -9.3900  -17.0755 C   0  0  0  0  0  0  0  0  0  0  0  0
   24.9287   -8.2351  -16.8723 O   0  0  0  0  0  0  0  0  0  0  0  0
   21.2923   -8.6920  -18.9572 C   0  0  0  0  0  0  0  0  0  0  0  0
   22.4294   -8.2511  -18.0253 C   0  0  2  0  0  0  0  0  0  0  0  0
   23.1946   -9.4428  -17.7343 N   0  0  0  0  0  0  0  0  0  0  0  0
   21.7879   -7.7641  -16.7875 C   0  0  0  0  0  0  0  0  0  0  0  0
   21.5391   -8.5818  -15.8369 O   0  0  0  0  0  0  0  0  0  0  0  0
   21.4134   -6.4270  -16.5574 N   0  0  0  0  0  0  0  0  0  0  0  0
   20.7917   -6.0130  -15.3395 C   0  0  1  0  0  0  0  0  0  0  0  0
   21.1287   -4.6042  -14.9378 C   0  0  0  0  0  0  0  0  0  0  0  0
   22.5455   -4.4372  -14.5479 C   0  0  0  0  0  0  0  0  0  0  0  0
   23.1322   -5.4684  -14.1259 O   0  0  0  0  0  0  0  0  0  0  0  0
   19.2992   -6.2099  -15.3858 C   0  0  0  0  0  0  0  0  0  0  0  0
   18.6938   -6.4104  -16.4697 O   0  0  0  0  0  0  0  0  0  0  0  0
   23.2536   -3.2717  -14.6093 O   0  0  0  0  0  0  0  0  0  0  0  0
   18.5340   -6.1773  -14.2302 O   0  0  0  0  0  0  0  0  0  0  0  0
  2  1  1  0
  3  2  1  0
  4  3  1  0
  4  5  1  0
  5  6  1  6
  7  5  1  0
  7  8  2  0
 10  9  1  6
 10 11  1  0
 10 12  1  0
 11  7  1  0
 12 14  1  0
 13 12  2  0
 14 15  1  0
 15 16  1  6
 15 19  1  0
 16 17  1  0
 17 18  2  0
 19 22  1  0
 20 19  2  0
 21 17  1  0
M  END
$$$$
