MAD.pdb
     RDKit          3D

 22 21  0  0  1  0  0  0  0  0999 V2000
   17.8040  -13.8112  -14.6351 C   0  0  0  0  0  0  0  0  0  0  0  0
   18.8023  -15.2907  -14.9024 S   0  0  0  0  0  0  0  0  0  0  0  0
   19.8037  -15.1315  -16.4070 C   0  0  0  0  0  0  0  0  0  0  0  0
   20.5386  -13.8133  -16.3261 C   0  0  0  0  0  0  0  0  0  0  0  0
   21.3746  -13.6700  -17.5836 C   0  0  2  0  0  0  0  0  0  0  0  0
   22.4889  -14.5773  -17.5114 N   0  0  0  0  0  0  0  0  0  0  0  0
   21.8344  -12.2723  -17.6522 C   0  0  0  0  0  0  0  0  0  0  0  0
   22.9244  -11.9482  -17.0961 O   0  0  0  0  0  0  0  0  0  0  0  0
   20.8581   -9.1964  -19.5255 C   0  0  0  0  0  0  0  0  0  0  0  0
   21.6712   -9.8919  -18.4253 C   0  0  2  0  0  0  0  0  0  0  0  0
   21.1319  -11.2286  -18.3118 N   0  0  0  0  0  0  0  0  0  0  0  0
   21.4061   -9.1471  -17.1780 C   0  0  0  0  0  0  0  0  0  0  0  0
   20.4421   -9.5037  -16.4179 O   0  0  0  0  0  0  0  0  0  0  0  0
   22.1522   -8.0372  -16.7391 N   0  0  0  0  0  0  0  0  0  0  0  0
   21.8626   -7.3672  -15.5109 C   0  0  1  0  0  0  0  0  0  0  0  0
   22.9466   -6.4253  -15.0666 C   0  0  0  0  0  0  0  0  0  0  0  0
   22.6070   -5.6971  -13.8249 C   0  0  0  0  0  0  0  0  0  0  0  0
   22.4081   -4.4592  -13.9420 O   0  0  0  0  0  0  0  0  0  0  0  0
   20.5340   -6.6600  -15.5668 C   0  0  0  0  0  0  0  0  0  0  0  0
   19.7555   -6.6401  -14.5793 O   0  0  0  0  0  0  0  0  0  0  0  0
   22.4946   -6.2539  -12.5837 O   0  0  0  0  0  0  0  0  0  0  0  0
   20.1181   -6.0018  -16.7139 O   0  0  0  0  0  0  0  0  0  0  0  0
  2  1  1  0
  3  2  1  0
  4  3  1  0
  4  5  1  0
  5  6  1  1
  7  5  1  0
  7  8  2  0
 10  9  1  6
 10 11  1  0
 10 12  1  0
 11  7  1  0
 12 14  1  0
 13 12  2  0
 14 15  1  0
 15 16  1  6
 15 19  1  0
 16 17  1  0
 17 18  2  0
 19 22  1  0
 20 19  2  0
 21 17  1  0
M  END
$$$$
