MAD.pdb
     RDKit          3D

 22 21  0  0  1  0  0  0  0  0999 V2000
   15.1135  -10.6915  -19.0173 C   0  0  0  0  0  0  0  0  0  0  0  0
   16.5406  -10.8252  -20.1139 S   0  0  0  0  0  0  0  0  0  0  0  0
   17.9175  -11.6655  -19.2832 C   0  0  0  0  0  0  0  0  0  0  0  0
   18.3760  -10.7756  -18.1509 C   0  0  0  0  0  0  0  0  0  0  0  0
   19.5266  -11.4720  -17.4498 C   0  0  2  0  0  0  0  0  0  0  0  0
   19.0772  -12.7516  -16.9695 N   0  0  0  0  0  0  0  0  0  0  0  0
   19.9530  -10.6088  -16.3350 C   0  0  0  0  0  0  0  0  0  0  0  0
   19.0797  -10.1034  -15.5707 O   0  0  0  0  0  0  0  0  0  0  0  0
   23.1677   -9.8101  -14.6333 C   0  0  0  0  0  0  0  0  0  0  0  0
   21.6771   -9.5297  -14.8675 C   0  0  2  0  0  0  0  0  0  0  0  0
   21.3054  -10.2889  -16.0405 N   0  0  0  0  0  0  0  0  0  0  0  0
   21.5660   -8.0865  -15.1602 C   0  0  0  0  0  0  0  0  0  0  0  0
   21.8059   -7.6574  -16.3403 O   0  0  0  0  0  0  0  0  0  0  0  0
   21.2053   -7.1076  -14.2154 N   0  0  0  0  0  0  0  0  0  0  0  0
   21.1553   -5.7183  -14.5450 C   0  0  1  0  0  0  0  0  0  0  0  0
   19.8151   -5.0857  -14.2932 C   0  0  0  0  0  0  0  0  0  0  0  0
   19.8070   -3.6284  -14.5449 C   0  0  0  0  0  0  0  0  0  0  0  0
   19.9836   -3.2684  -15.7386 O   0  0  0  0  0  0  0  0  0  0  0  0
   22.2464   -4.9458  -13.8513 C   0  0  0  0  0  0  0  0  0  0  0  0
   22.6192   -3.8174  -14.2625 O   0  0  0  0  0  0  0  0  0  0  0  0
   19.6260   -2.6605  -13.5994 O   0  0  0  0  0  0  0  0  0  0  0  0
   22.8831   -5.4524  -12.7287 O   0  0  0  0  0  0  0  0  0  0  0  0
  2  1  1  0
  3  2  1  0
  4  3  1  0
  4  5  1  0
  5  6  1  1
  7  5  1  0
  7  8  2  0
 10  9  1  6
 10 11  1  0
 10 12  1  0
 11  7  1  0
 12 14  1  0
 13 12  2  0
 14 15  1  0
 15 16  1  1
 15 19  1  0
 16 17  1  0
 17 18  2  0
 19 22  1  0
 20 19  2  0
 21 17  1  0
M  END
$$$$
