MAD.pdb
     RDKit          3D

 22 21  0  0  1  0  0  0  0  0999 V2000
   27.6504  -12.7522  -14.7145 C   0  0  0  0  0  0  0  0  0  0  0  0
   27.6476  -13.7711  -16.2042 S   0  0  0  0  0  0  0  0  0  0  0  0
   25.9557  -14.0326  -16.8050 C   0  0  0  0  0  0  0  0  0  0  0  0
   25.4161  -12.6901  -17.2416 C   0  0  0  0  0  0  0  0  0  0  0  0
   24.3895  -12.2468  -16.2167 C   0  0  2  0  0  0  0  0  0  0  0  0
   23.4745  -13.3296  -15.9714 N   0  0  0  0  0  0  0  0  0  0  0  0
   23.6875  -11.0765  -16.7712 C   0  0  0  0  0  0  0  0  0  0  0  0
   24.3166   -9.9886  -16.9234 O   0  0  0  0  0  0  0  0  0  0  0  0
   20.2565  -10.3009  -18.0663 C   0  0  0  0  0  0  0  0  0  0  0  0
   21.6527   -9.8668  -17.5996 C   0  0  2  0  0  0  0  0  0  0  0  0
   22.3213  -11.0711  -17.1602 N   0  0  0  0  0  0  0  0  0  0  0  0
   21.4453   -8.9702  -16.4446 C   0  0  0  0  0  0  0  0  0  0  0  0
   21.8816   -9.3083  -15.2916 O   0  0  0  0  0  0  0  0  0  0  0  0
   20.7837   -7.7295  -16.5082 N   0  0  0  0  0  0  0  0  0  0  0  0
   20.8547   -6.7775  -15.4452 C   0  0  1  0  0  0  0  0  0  0  0  0
   22.2596   -6.4170  -15.0502 C   0  0  0  0  0  0  0  0  0  0  0  0
   22.3172   -5.3508  -14.0269 C   0  0  0  0  0  0  0  0  0  0  0  0
   21.6886   -5.5703  -12.9580 O   0  0  0  0  0  0  0  0  0  0  0  0
   20.0561   -5.5393  -15.7576 C   0  0  0  0  0  0  0  0  0  0  0  0
   20.1747   -4.9377  -16.8556 O   0  0  0  0  0  0  0  0  0  0  0  0
   22.9874   -4.1680  -14.1498 O   0  0  0  0  0  0  0  0  0  0  0  0
   19.1567   -5.0145  -14.8423 O   0  0  0  0  0  0  0  0  0  0  0  0
  2  1  1  0
  3  2  1  0
  4  3  1  0
  4  5  1  0
  5  6  1  6
  7  5  1  0
  7  8  2  0
 10  9  1  1
 10 11  1  0
 10 12  1  0
 11  7  1  0
 12 14  1  0
 13 12  2  0
 14 15  1  0
 15 16  1  6
 15 19  1  0
 16 17  1  0
 17 18  2  0
 19 22  1  0
 20 19  2  0
 21 17  1  0
M  END
$$$$
