MAD.pdb
     RDKit          3D

 22 21  0  0  1  0  0  0  0  0999 V2000
   28.3185  -12.5617  -15.9512 C   0  0  0  0  0  0  0  0  0  0  0  0
   27.3943  -13.8530  -15.0937 S   0  0  0  0  0  0  0  0  0  0  0  0
   25.7969  -14.1494  -15.9015 C   0  0  0  0  0  0  0  0  0  0  0  0
   25.2528  -12.8085  -16.3376 C   0  0  0  0  0  0  0  0  0  0  0  0
   24.0191  -13.0609  -17.1833 C   0  0  2  0  0  0  0  0  0  0  0  0
   24.4003  -13.7946  -18.3607 N   0  0  0  0  0  0  0  0  0  0  0  0
   23.4503  -11.7494  -17.5384 C   0  0  0  0  0  0  0  0  0  0  0  0
   24.1364  -10.9407  -18.2295 O   0  0  0  0  0  0  0  0  0  0  0  0
   20.1491  -10.2928  -17.9456 C   0  0  0  0  0  0  0  0  0  0  0  0
   21.6197  -10.0358  -17.5893 C   0  0  2  0  0  0  0  0  0  0  0  0
   22.1557  -11.3069  -17.1563 N   0  0  0  0  0  0  0  0  0  0  0  0
   21.6139   -9.0919  -16.4536 C   0  0  0  0  0  0  0  0  0  0  0  0
   21.6237   -9.5390  -15.2560 O   0  0  0  0  0  0  0  0  0  0  0  0
   21.5979   -7.6904  -16.5826 N   0  0  0  0  0  0  0  0  0  0  0  0
   21.5939   -6.8247  -15.4461 C   0  0  1  0  0  0  0  0  0  0  0  0
   22.1064   -5.4420  -15.7383 C   0  0  0  0  0  0  0  0  0  0  0  0
   22.0607   -4.5476  -14.5614 C   0  0  0  0  0  0  0  0  0  0  0  0
   21.1702   -3.6572  -14.5729 O   0  0  0  0  0  0  0  0  0  0  0  0
   20.2334   -6.7624  -14.8032 C   0  0  0  0  0  0  0  0  0  0  0  0
   19.1788   -6.7871  -15.4877 O   0  0  0  0  0  0  0  0  0  0  0  0
   22.8948   -4.6118  -13.4827 O   0  0  0  0  0  0  0  0  0  0  0  0
   20.0925   -6.6752  -13.4267 O   0  0  0  0  0  0  0  0  0  0  0  0
  2  1  1  0
  3  2  1  0
  4  3  1  0
  4  5  1  0
  5  6  1  6
  7  5  1  0
  7  8  2  0
 10  9  1  1
 10 11  1  0
 10 12  1  0
 11  7  1  0
 12 14  1  0
 13 12  2  0
 14 15  1  0
 15 16  1  6
 15 19  1  0
 16 17  1  0
 17 18  2  0
 19 22  1  0
 20 19  2  0
 21 17  1  0
M  END
$$$$
