MAD.pdb
     RDKit          3D

 22 21  0  0  1  0  0  0  0  0999 V2000
   24.2261  -16.3181  -15.2648 C   0  0  0  0  0  0  0  0  0  0  0  0
   23.6086  -14.6820  -15.7109 S   0  0  0  0  0  0  0  0  0  0  0  0
   24.8428  -13.4035  -15.3447 C   0  0  0  0  0  0  0  0  0  0  0  0
   24.2058  -12.0627  -15.6286 C   0  0  0  0  0  0  0  0  0  0  0  0
   23.6796  -12.0906  -17.0510 C   0  0  2  0  0  0  0  0  0  0  0  0
   24.7848  -12.2616  -17.9561 N   0  0  0  0  0  0  0  0  0  0  0  0
   22.9909  -10.8113  -17.2931 C   0  0  0  0  0  0  0  0  0  0  0  0
   23.6746   -9.7607  -17.4698 O   0  0  0  0  0  0  0  0  0  0  0  0
   19.4797   -9.6934  -17.9272 C   0  0  0  0  0  0  0  0  0  0  0  0
   20.9558   -9.3869  -17.6394 C   0  0  2  0  0  0  0  0  0  0  0  0
   21.5797  -10.6577  -17.3458 N   0  0  0  0  0  0  0  0  0  0  0  0
   20.9766   -8.5381  -16.4311 C   0  0  0  0  0  0  0  0  0  0  0  0
   21.3550   -9.0318  -15.3143 O   0  0  0  0  0  0  0  0  0  0  0  0
   20.6015   -7.1817  -16.4039 N   0  0  0  0  0  0  0  0  0  0  0  0
   20.7435   -6.3795  -15.2303 C   0  0  1  0  0  0  0  0  0  0  0  0
   22.1517   -6.3179  -14.7076 C   0  0  0  0  0  0  0  0  0  0  0  0
   22.2982   -5.4153  -13.5454 C   0  0  0  0  0  0  0  0  0  0  0  0
   22.1014   -5.9293  -12.4127 O   0  0  0  0  0  0  0  0  0  0  0  0
   20.1926   -4.9933  -15.4380 C   0  0  0  0  0  0  0  0  0  0  0  0
   19.5487   -4.3977  -14.5368 O   0  0  0  0  0  0  0  0  0  0  0  0
   22.6247   -4.0911  -13.6049 O   0  0  0  0  0  0  0  0  0  0  0  0
   20.3757   -4.3194  -16.6357 O   0  0  0  0  0  0  0  0  0  0  0  0
  2  1  1  0
  3  2  1  0
  4  3  1  0
  4  5  1  0
  5  6  1  6
  7  5  1  0
  7  8  2  0
 10  9  1  1
 10 11  1  0
 10 12  1  0
 11  7  1  0
 12 14  1  0
 13 12  2  0
 14 15  1  0
 15 16  1  6
 15 19  1  0
 16 17  1  0
 17 18  2  0
 19 22  1  0
 20 19  2  0
 21 17  1  0
M  END
$$$$
