MAD.pdb
     RDKit          3D

 22 21  0  0  1  0  0  0  0  0999 V2000
   11.2526   -8.4082  -13.6253 C   0  0  0  0  0  0  0  0  0  0  0  0
   11.9751   -9.7245  -14.6265 S   0  0  0  0  0  0  0  0  0  0  0  0
   13.7334   -9.4062  -14.9411 C   0  0  0  0  0  0  0  0  0  0  0  0
   14.4432   -9.4198  -13.6069 C   0  0  0  0  0  0  0  0  0  0  0  0
   15.9003   -9.0772  -13.8528 C   0  0  2  0  0  0  0  0  0  0  0  0
   16.6330  -10.2916  -14.0937 N   0  0  0  0  0  0  0  0  0  0  0  0
   16.4011   -8.3868  -12.6518 C   0  0  0  0  0  0  0  0  0  0  0  0
   16.6137   -9.0515  -11.5957 O   0  0  0  0  0  0  0  0  0  0  0  0
   18.0399   -5.2069  -11.7987 C   0  0  0  0  0  0  0  0  0  0  0  0
   17.1250   -6.3600  -11.3641 C   0  0  2  0  0  0  0  0  0  0  0  0
   16.6725   -6.9942  -12.5820 N   0  0  0  0  0  0  0  0  0  0  0  0
   15.9747   -5.7415  -10.6749 C   0  0  0  0  0  0  0  0  0  0  0  0
   14.9356   -5.4128  -11.3431 O   0  0  0  0  0  0  0  0  0  0  0  0
   15.9235   -5.4732   -9.2941 N   0  0  0  0  0  0  0  0  0  0  0  0
   14.8223   -4.7875   -8.6956 C   0  0  1  0  0  0  0  0  0  0  0  0
   14.7243   -4.9843   -7.2085 C   0  0  0  0  0  0  0  0  0  0  0  0
   13.5749   -4.2754   -6.6057 C   0  0  0  0  0  0  0  0  0  0  0  0
   12.5675   -4.1186   -7.3449 O   0  0  0  0  0  0  0  0  0  0  0  0
   14.8320   -3.3209   -9.0382 C   0  0  0  0  0  0  0  0  0  0  0  0
   15.8503   -2.6069   -8.8516 O   0  0  0  0  0  0  0  0  0  0  0  0
   13.5229   -3.7865   -5.3323 O   0  0  0  0  0  0  0  0  0  0  0  0
   13.7138   -2.7008   -9.5742 O   0  0  0  0  0  0  0  0  0  0  0  0
  2  1  1  0
  3  2  1  0
  4  3  1  0
  4  5  1  0
  5  6  1  1
  7  5  1  0
  7  8  2  0
 10  9  1  6
 10 11  1  0
 10 12  1  0
 11  7  1  0
 12 14  1  0
 13 12  2  0
 14 15  1  0
 15 16  1  1
 15 19  1  0
 16 17  1  0
 17 18  2  0
 19 22  1  0
 20 19  2  0
 21 17  1  0
M  END
$$$$
