MAD.pdb
     RDKit          3D

 22 21  0  0  1  0  0  0  0  0999 V2000
   29.2269  -12.8388  -16.3127 C   0  0  0  0  0  0  0  0  0  0  0  0
   27.9173  -13.7081  -15.4259 S   0  0  0  0  0  0  0  0  0  0  0  0
   26.2821  -13.1834  -16.0111 C   0  0  0  0  0  0  0  0  0  0  0  0
   26.2353  -11.6747  -15.9357 C   0  0  0  0  0  0  0  0  0  0  0  0
   24.9255  -11.2196  -16.5506 C   0  0  2  0  0  0  0  0  0  0  0  0
   24.8270  -11.7456  -17.8861 N   0  0  0  0  0  0  0  0  0  0  0  0
   24.9301   -9.7466  -16.5616 C   0  0  0  0  0  0  0  0  0  0  0  0
   24.8992   -9.1165  -15.4641 O   0  0  0  0  0  0  0  0  0  0  0  0
   25.1658   -7.0218  -19.1203 C   0  0  0  0  0  0  0  0  0  0  0  0
   24.8580   -7.5125  -17.6990 C   0  0  2  0  0  0  0  0  0  0  0  0
   24.9676   -8.9536  -17.7395 N   0  0  0  0  0  0  0  0  0  0  0  0
   23.4578   -7.1334  -17.4220 C   0  0  0  0  0  0  0  0  0  0  0  0
   22.5035   -7.8575  -17.8683 O   0  0  0  0  0  0  0  0  0  0  0  0
   23.0709   -6.0010  -16.6811 N   0  0  0  0  0  0  0  0  0  0  0  0
   21.6986   -5.6899  -16.4336 C   0  0  1  0  0  0  0  0  0  0  0  0
   20.9398   -6.7991  -15.7599 C   0  0  0  0  0  0  0  0  0  0  0  0
   19.5479   -6.4277  -15.4256 C   0  0  0  0  0  0  0  0  0  0  0  0
   18.8895   -5.8584  -16.3357 O   0  0  0  0  0  0  0  0  0  0  0  0
   21.5533   -4.4031  -15.6645 C   0  0  0  0  0  0  0  0  0  0  0  0
   22.4704   -3.9733  -14.9191 O   0  0  0  0  0  0  0  0  0  0  0  0
   18.9327   -6.6507  -14.2276 O   0  0  0  0  0  0  0  0  0  0  0  0
   20.3981   -3.6414  -15.7502 O   0  0  0  0  0  0  0  0  0  0  0  0
  2  1  1  0
  3  2  1  0
  4  3  1  0
  4  5  1  0
  5  6  1  6
  7  5  1  0
  7  8  2  0
 10  9  1  6
 10 11  1  0
 10 12  1  0
 11  7  1  0
 12 14  1  0
 13 12  2  0
 14 15  1  0
 15 16  1  1
 15 19  1  0
 16 17  1  0
 17 18  2  0
 19 22  1  0
 20 19  2  0
 21 17  1  0
M  END
$$$$
