PVQ.pdb
     RDKit          3D

 24 24  0  0  1  0  0  0  0  0999 V2000
   28.3566  -20.6093  -15.7200 N   0  0  0  0  0  0  0  0  0  0  0  0
   28.6006  -19.6372  -16.7533 C   0  0  0  0  0  0  0  0  0  0  0  0
   27.4319  -18.6805  -16.5539 C   0  0  0  0  0  0  0  0  0  0  0  0
   27.4976  -18.4928  -15.0355 C   0  0  0  0  0  0  0  0  0  0  0  0
   27.8691  -19.8834  -14.5817 C   0  0  1  0  0  0  0  0  0  0  0  0
   26.7120  -20.6123  -14.0104 C   0  0  0  0  0  0  0  0  0  0  0  0
   26.1189  -21.4696  -14.7074 O   0  0  0  0  0  0  0  0  0  0  0  0
   26.4173  -21.7111  -10.2219 C   0  0  0  0  0  0  0  0  0  0  0  0
   25.1473  -21.0499  -10.6870 C   0  0  1  0  0  0  0  0  0  0  0  0
   24.9050  -19.7376  -10.0202 C   0  0  0  0  0  0  0  0  0  0  0  0
   25.0049  -21.0549  -12.1818 C   0  0  2  0  0  0  0  0  0  0  0  0
   26.2213  -20.4030  -12.7076 N   0  0  0  0  0  0  0  0  0  0  0  0
   23.8043  -20.3873  -12.6954 C   0  0  0  0  0  0  0  0  0  0  0  0
   23.8116  -19.1381  -12.8631 O   0  0  0  0  0  0  0  0  0  0  0  0
   21.2386  -21.6940  -17.7294 N   0  0  0  0  0  0  0  0  0  0  0  0
   20.3121  -20.7424  -17.2507 C   0  0  0  0  0  0  0  0  0  0  0  0
   19.4602  -20.2795  -18.0445 O   0  0  0  0  0  0  0  0  0  0  0  0
   20.2974  -20.2540  -15.8256 C   0  0  0  0  0  0  0  0  0  0  0  0
   21.3835  -20.9285  -15.0338 C   0  0  0  0  0  0  0  0  0  0  0  0
   21.4607  -20.4825  -13.5990 C   0  0  2  0  0  0  0  0  0  0  0  0
   22.6430  -21.1207  -13.0056 N   0  0  0  0  0  0  0  0  0  0  0  0
   20.2570  -20.8696  -12.8576 C   0  0  0  0  0  0  0  0  0  0  0  0
   19.1451  -20.0009  -12.7859 O   0  0  0  0  0  0  0  0  0  0  0  0
   20.1050  -21.9521  -12.2471 O   0  0  0  0  0  0  0  0  0  0  0  0
  1  2  1  0
  3  2  1  0
  4  3  1  0
  4  5  1  0
  5  1  1  0
  6  7  2  0
  5  6  1  6
  9  8  1  6
  9 11  1  0
 10  9  1  0
 11 13  1  0
 11 12  1  6
 12  6  1  0
 13 21  1  0
 14 13  2  0
 16 15  1  0
 17 16  2  0
 18 16  1  0
 19 18  1  0
 20 19  1  6
 21 20  1  0
 22 23  1  0
 22 20  1  0
 24 22  2  0
M  END
$$$$
