PVQ.pdb
     RDKit          3D

 24 24  0  0  1  0  0  0  0  0999 V2000
   28.7821  -22.2157  -17.9424 N   0  0  0  0  0  0  0  0  0  0  0  0
   30.1365  -22.6728  -18.1125 C   0  0  0  0  0  0  0  0  0  0  0  0
   30.4992  -23.0866  -16.6920 C   0  0  0  0  0  0  0  0  0  0  0  0
   29.2570  -23.9047  -16.3275 C   0  0  0  0  0  0  0  0  0  0  0  0
   28.1676  -23.1000  -16.9934 C   0  0  1  0  0  0  0  0  0  0  0  0
   27.3948  -22.2931  -16.0197 C   0  0  0  0  0  0  0  0  0  0  0  0
   26.8090  -22.8672  -15.0711 O   0  0  0  0  0  0  0  0  0  0  0  0
   26.8869  -18.2064  -16.7089 C   0  0  0  0  0  0  0  0  0  0  0  0
   26.9653  -18.6766  -15.2809 C   0  0  1  0  0  0  0  0  0  0  0  0
   26.3917  -17.6912  -14.3189 C   0  0  0  0  0  0  0  0  0  0  0  0
   26.5020  -20.0949  -15.1113 C   0  0  2  0  0  0  0  0  0  0  0  0
   27.2703  -20.8924  -16.0884 N   0  0  0  0  0  0  0  0  0  0  0  0
   25.0628  -20.3066  -15.2973 C   0  0  0  0  0  0  0  0  0  0  0  0
   24.5882  -20.3601  -16.4637 O   0  0  0  0  0  0  0  0  0  0  0  0
   21.7089  -24.0528  -14.0542 N   0  0  0  0  0  0  0  0  0  0  0  0
   20.6385  -23.1882  -13.7385 C   0  0  0  0  0  0  0  0  0  0  0  0
   19.4665  -23.5812  -13.9440 O   0  0  0  0  0  0  0  0  0  0  0  0
   20.8371  -21.8097  -13.1640 C   0  0  0  0  0  0  0  0  0  0  0  0
   22.2997  -21.4609  -13.1435 C   0  0  0  0  0  0  0  0  0  0  0  0
   22.7654  -20.7072  -14.3594 C   0  0  2  0  0  0  0  0  0  0  0  0
   24.2022  -20.4523  -14.1923 N   0  0  0  0  0  0  0  0  0  0  0  0
   22.0450  -19.4390  -14.5056 C   0  0  0  0  0  0  0  0  0  0  0  0
   22.3799  -18.3243  -13.7050 O   0  0  0  0  0  0  0  0  0  0  0  0
   21.1108  -19.2313  -15.3130 O   0  0  0  0  0  0  0  0  0  0  0  0
  1  2  1  0
  3  2  1  0
  4  3  1  0
  4  5  1  0
  5  1  1  0
  6  7  2  0
  5  6  1  1
  9  8  1  6
  9 11  1  0
 10  9  1  0
 11 13  1  0
 11 12  1  6
 12  6  1  0
 13 21  1  0
 14 13  2  0
 16 15  1  0
 17 16  2  0
 18 16  1  0
 19 18  1  0
 20 19  1  1
 21 20  1  0
 22 23  1  0
 22 20  1  0
 24 22  2  0
M  END
$$$$
