PVQ.pdb
     RDKit          3D

 24 24  0  0  1  0  0  0  0  0999 V2000
   22.5015  -14.6635  -18.6711 N   0  0  0  0  0  0  0  0  0  0  0  0
   21.8375  -14.8734  -19.9309 C   0  0  0  0  0  0  0  0  0  0  0  0
   21.4243  -13.4538  -20.2980 C   0  0  0  0  0  0  0  0  0  0  0  0
   22.7379  -12.7153  -20.0257 C   0  0  0  0  0  0  0  0  0  0  0  0
   23.2297  -13.4324  -18.7922 C   0  0  1  0  0  0  0  0  0  0  0  0
   23.0233  -12.6326  -17.5616 C   0  0  0  0  0  0  0  0  0  0  0  0
   21.9700  -12.7837  -16.8981 O   0  0  0  0  0  0  0  0  0  0  0  0
   25.2337  -12.3377  -14.5331 C   0  0  0  0  0  0  0  0  0  0  0  0
   24.9772  -10.9516  -15.0616 C   0  0  1  0  0  0  0  0  0  0  0  0
   26.1881  -10.3396  -15.6817 C   0  0  0  0  0  0  0  0  0  0  0  0
   23.7174  -10.8650  -15.8741 C   0  0  2  0  0  0  0  0  0  0  0  0
   23.9511  -11.6922  -17.0749 N   0  0  0  0  0  0  0  0  0  0  0  0
   23.3161   -9.5077  -16.2584 C   0  0  0  0  0  0  0  0  0  0  0  0
   23.7525   -9.0111  -17.3315 O   0  0  0  0  0  0  0  0  0  0  0  0
   19.6158   -8.2121  -19.4879 N   0  0  0  0  0  0  0  0  0  0  0  0
   19.7764   -6.8798  -19.0495 C   0  0  0  0  0  0  0  0  0  0  0  0
   19.2503   -5.9589  -19.7169 O   0  0  0  0  0  0  0  0  0  0  0  0
   20.5530   -6.5091  -17.8129 C   0  0  0  0  0  0  0  0  0  0  0  0
   21.1216   -7.7424  -17.1671 C   0  0  0  0  0  0  0  0  0  0  0  0
   21.8863   -7.4717  -15.9001 C   0  0  2  0  0  0  0  0  0  0  0  0
   22.4493   -8.7505  -15.4472 N   0  0  0  0  0  0  0  0  0  0  0  0
   21.0140   -6.9127  -14.8631 C   0  0  0  0  0  0  0  0  0  0  0  0
   20.6500   -5.5479  -14.8873 O   0  0  0  0  0  0  0  0  0  0  0  0
   20.5316   -7.5576  -13.9043 O   0  0  0  0  0  0  0  0  0  0  0  0
  1  2  1  0
  3  2  1  0
  4  3  1  0
  4  5  1  0
  5  1  1  0
  6  7  2  0
  5  6  1  1
  9  8  1  6
  9 11  1  0
 10  9  1  0
 11 13  1  0
 11 12  1  6
 12  6  1  0
 13 21  1  0
 14 13  2  0
 16 15  1  0
 17 16  2  0
 18 16  1  0
 19 18  1  0
 20 19  1  6
 21 20  1  0
 22 23  1  0
 22 20  1  0
 24 22  2  0
M  END
$$$$
