PVQ.pdb
     RDKit          3D

 24 24  0  0  1  0  0  0  0  0999 V2000
   24.5113  -14.6478  -17.4239 N   0  0  0  0  0  0  0  0  0  0  0  0
   25.6619  -15.0360  -16.6506 C   0  0  0  0  0  0  0  0  0  0  0  0
   25.7474  -13.8994  -15.6398 C   0  0  0  0  0  0  0  0  0  0  0  0
   24.2833  -13.8262  -15.1970 C   0  0  0  0  0  0  0  0  0  0  0  0
   23.5672  -14.0866  -16.4997 C   0  0  1  0  0  0  0  0  0  0  0  0
   23.0049  -12.8468  -17.0855 C   0  0  0  0  0  0  0  0  0  0  0  0
   23.7341  -12.1160  -17.7973 O   0  0  0  0  0  0  0  0  0  0  0  0
   20.4387  -12.3904  -19.5943 C   0  0  0  0  0  0  0  0  0  0  0  0
   19.9770  -11.6515  -18.3667 C   0  0  1  0  0  0  0  0  0  0  0  0
   18.8661  -12.3512  -17.6584 C   0  0  0  0  0  0  0  0  0  0  0  0
   21.1164  -11.1987  -17.4998 C   0  0  2  0  0  0  0  0  0  0  0  0
   21.6762  -12.4232  -16.8929 N   0  0  0  0  0  0  0  0  0  0  0  0
   20.7601  -10.2290  -16.4588 C   0  0  0  0  0  0  0  0  0  0  0  0
   20.5039  -10.6345  -15.2933 O   0  0  0  0  0  0  0  0  0  0  0  0
   23.5744   -5.0004  -15.4972 N   0  0  0  0  0  0  0  0  0  0  0  0
   22.4377   -4.8078  -14.6825 C   0  0  0  0  0  0  0  0  0  0  0  0
   22.3773   -3.7813  -13.9663 O   0  0  0  0  0  0  0  0  0  0  0  0
   21.2882   -5.7804  -14.6317 C   0  0  0  0  0  0  0  0  0  0  0  0
   21.5061   -6.8943  -15.6180 C   0  0  0  0  0  0  0  0  0  0  0  0
   20.3592   -7.8638  -15.7083 C   0  0  2  0  0  0  0  0  0  0  0  0
   20.7008   -8.8507  -16.7410 N   0  0  0  0  0  0  0  0  0  0  0  0
   19.1123   -7.1792  -16.0620 C   0  0  0  0  0  0  0  0  0  0  0  0
   18.3666   -6.4887  -15.0807 O   0  0  0  0  0  0  0  0  0  0  0  0
   18.6127   -7.1418  -17.2095 O   0  0  0  0  0  0  0  0  0  0  0  0
  1  2  1  0
  3  2  1  0
  4  3  1  0
  4  5  1  0
  5  1  1  0
  6  7  2  0
  5  6  1  6
  9  8  1  6
  9 11  1  0
 10  9  1  0
 11 13  1  0
 11 12  1  1
 12  6  1  0
 13 21  1  0
 14 13  2  0
 16 15  1  0
 17 16  2  0
 18 16  1  0
 19 18  1  0
 20 19  1  6
 21 20  1  0
 22 23  1  0
 22 20  1  0
 24 22  2  0
M  END
$$$$
