PVQ.pdb
     RDKit          3D

 24 24  0  0  1  0  0  0  0  0999 V2000
   24.2534  -14.8109  -19.0704 N   0  0  0  0  0  0  0  0  0  0  0  0
   23.5441  -15.3237  -20.2133 C   0  0  0  0  0  0  0  0  0  0  0  0
   22.5325  -14.2134  -20.4676 C   0  0  0  0  0  0  0  0  0  0  0  0
   23.4523  -12.9917  -20.3876 C   0  0  0  0  0  0  0  0  0  0  0  0
   24.3831  -13.3954  -19.2704 C   0  0  1  0  0  0  0  0  0  0  0  0
   24.0641  -12.7026  -17.9997 C   0  0  0  0  0  0  0  0  0  0  0  0
   23.2196  -13.2039  -17.2198 O   0  0  0  0  0  0  0  0  0  0  0  0
   26.3105  -11.9199  -15.2097 C   0  0  0  0  0  0  0  0  0  0  0  0
   25.6750  -10.6222  -15.6321 C   0  0  1  0  0  0  0  0  0  0  0  0
   26.6323   -9.7122  -16.3254 C   0  0  0  0  0  0  0  0  0  0  0  0
   24.3542  -10.8200  -16.3185 C   0  0  2  0  0  0  0  0  0  0  0  0
   24.6584  -11.4910  -17.5985 N   0  0  0  0  0  0  0  0  0  0  0  0
   23.5847   -9.5940  -16.5541 C   0  0  0  0  0  0  0  0  0  0  0  0
   23.8470   -8.8791  -17.5585 O   0  0  0  0  0  0  0  0  0  0  0  0
   17.7359   -9.1951  -16.8212 N   0  0  0  0  0  0  0  0  0  0  0  0
   18.0285   -7.8161  -16.7448 C   0  0  0  0  0  0  0  0  0  0  0  0
   17.1050   -6.9930  -16.9442 O   0  0  0  0  0  0  0  0  0  0  0  0
   19.4029   -7.2833  -16.4338 C   0  0  0  0  0  0  0  0  0  0  0  0
   20.3829   -8.4166  -16.3053 C   0  0  0  0  0  0  0  0  0  0  0  0
   21.7667   -7.9853  -15.9022 C   0  0  2  0  0  0  0  0  0  0  0  0
   22.5559   -9.2031  -15.6758 N   0  0  0  0  0  0  0  0  0  0  0  0
   21.7351   -7.1742  -14.6817 C   0  0  0  0  0  0  0  0  0  0  0  0
   21.5018   -5.7824  -14.7479 O   0  0  0  0  0  0  0  0  0  0  0  0
   21.9034   -7.6136  -13.5213 O   0  0  0  0  0  0  0  0  0  0  0  0
  1  2  1  0
  3  2  1  0
  4  3  1  0
  4  5  1  0
  5  1  1  0
  6  7  2  0
  5  6  1  1
  9  8  1  6
  9 11  1  0
 10  9  1  0
 11 13  1  0
 11 12  1  6
 12  6  1  0
 13 21  1  0
 14 13  2  0
 16 15  1  0
 17 16  2  0
 18 16  1  0
 19 18  1  0
 20 19  1  1
 21 20  1  0
 22 23  1  0
 22 20  1  0
 24 22  2  0
M  END
$$$$
