PVQ.pdb
     RDKit          3D

 24 24  0  0  1  0  0  0  0  0999 V2000
   27.1958  -19.6952  -15.7098 N   0  0  0  0  0  0  0  0  0  0  0  0
   28.5574  -19.3421  -16.0160 C   0  0  0  0  0  0  0  0  0  0  0  0
   29.3287  -20.4081  -15.2482 C   0  0  0  0  0  0  0  0  0  0  0  0
   28.5507  -21.6571  -15.6723 C   0  0  0  0  0  0  0  0  0  0  0  0
   27.1370  -21.1293  -15.6997 C   0  0  1  0  0  0  0  0  0  0  0  0
   26.3545  -21.5668  -14.5195 C   0  0  0  0  0  0  0  0  0  0  0  0
   26.1152  -22.7869  -14.3568 O   0  0  0  0  0  0  0  0  0  0  0  0
   24.5624  -20.4306  -10.0505 C   0  0  0  0  0  0  0  0  0  0  0  0
   25.5275  -20.4054  -11.2057 C   0  0  1  0  0  0  0  0  0  0  0  0
   26.9181  -20.7630  -10.8009 C   0  0  0  0  0  0  0  0  0  0  0  0
   25.0002  -21.1187  -12.4173 C   0  0  2  0  0  0  0  0  0  0  0  0
   25.8493  -20.6851  -13.5452 N   0  0  0  0  0  0  0  0  0  0  0  0
   23.5859  -20.8736  -12.7182 C   0  0  0  0  0  0  0  0  0  0  0  0
   23.2453  -19.7885  -13.2615 O   0  0  0  0  0  0  0  0  0  0  0  0
   19.0100  -25.2269  -11.9245 N   0  0  0  0  0  0  0  0  0  0  0  0
   18.2789  -24.0345  -12.1162 C   0  0  0  0  0  0  0  0  0  0  0  0
   17.0270  -24.0856  -12.0924 O   0  0  0  0  0  0  0  0  0  0  0  0
   18.9329  -22.6975  -12.3490 C   0  0  0  0  0  0  0  0  0  0  0  0
   20.4287  -22.8299  -12.2704 C   0  0  0  0  0  0  0  0  0  0  0  0
   21.1734  -21.5741  -12.6335 C   0  0  2  0  0  0  0  0  0  0  0  0
   22.6020  -21.8326  -12.4104 N   0  0  0  0  0  0  0  0  0  0  0  0
   20.7350  -20.4413  -11.8130 C   0  0  0  0  0  0  0  0  0  0  0  0
   19.7825  -19.5216  -12.3056 O   0  0  0  0  0  0  0  0  0  0  0  0
   21.1413  -20.1916  -10.6553 O   0  0  0  0  0  0  0  0  0  0  0  0
  1  2  1  0
  3  2  1  0
  4  3  1  0
  4  5  1  0
  5  1  1  0
  6  7  2  0
  5  6  1  1
  9  8  1  1
  9 11  1  0
 10  9  1  0
 11 13  1  0
 11 12  1  6
 12  6  1  0
 13 21  1  0
 14 13  2  0
 16 15  1  0
 17 16  2  0
 18 16  1  0
 19 18  1  0
 20 19  1  1
 21 20  1  0
 22 23  1  0
 22 20  1  0
 24 22  2  0
M  END
$$$$
