PVQ.pdb
     RDKit          3D

 24 24  0  0  1  0  0  0  0  0999 V2000
   27.3242  -20.1277  -17.6467 N   0  0  0  0  0  0  0  0  0  0  0  0
   28.5549  -19.5935  -18.1686 C   0  0  0  0  0  0  0  0  0  0  0  0
   29.5839  -20.2569  -17.2620 C   0  0  0  0  0  0  0  0  0  0  0  0
   29.0810  -21.7028  -17.3018 C   0  0  0  0  0  0  0  0  0  0  0  0
   27.5861  -21.4958  -17.3001 C   0  0  1  0  0  0  0  0  0  0  0  0
   26.9849  -21.7760  -15.9747 C   0  0  0  0  0  0  0  0  0  0  0  0
   27.1073  -22.9183  -15.4718 O   0  0  0  0  0  0  0  0  0  0  0  0
   27.8527  -20.6427  -12.7804 C   0  0  0  0  0  0  0  0  0  0  0  0
   26.4044  -20.2560  -12.9186 C   0  0  1  0  0  0  0  0  0  0  0  0
   26.2145  -18.7846  -13.0741 C   0  0  0  0  0  0  0  0  0  0  0  0
   25.6670  -21.1138  -13.9062 C   0  0  2  0  0  0  0  0  0  0  0  0
   26.2687  -20.8248  -15.2236 N   0  0  0  0  0  0  0  0  0  0  0  0
   24.2159  -20.9064  -13.9502 C   0  0  0  0  0  0  0  0  0  0  0  0
   23.7258  -20.1234  -14.8078 O   0  0  0  0  0  0  0  0  0  0  0  0
   20.1837  -23.7486   -9.9190 N   0  0  0  0  0  0  0  0  0  0  0  0
   19.3228  -23.0118  -10.7609 C   0  0  0  0  0  0  0  0  0  0  0  0
   18.0862  -23.0895  -10.5738 O   0  0  0  0  0  0  0  0  0  0  0  0
   19.8202  -22.1325  -11.8786 C   0  0  0  0  0  0  0  0  0  0  0  0
   21.3191  -22.2090  -11.9722 C   0  0  0  0  0  0  0  0  0  0  0  0
   21.9082  -21.3509  -13.0585 C   0  0  2  0  0  0  0  0  0  0  0  0
   23.3606  -21.5696  -13.0494 N   0  0  0  0  0  0  0  0  0  0  0  0
   21.6134  -19.9329  -12.8331 C   0  0  0  0  0  0  0  0  0  0  0  0
   20.5642  -19.2956  -13.5324 O   0  0  0  0  0  0  0  0  0  0  0  0
   22.2311  -19.1869  -12.0395 O   0  0  0  0  0  0  0  0  0  0  0  0
  1  2  1  0
  3  2  1  0
  4  3  1  0
  4  5  1  0
  5  1  1  0
  6  7  2  0
  5  6  1  1
  9  8  1  6
  9 11  1  0
 10  9  1  0
 11 13  1  0
 11 12  1  6
 12  6  1  0
 13 21  1  0
 14 13  2  0
 16 15  1  0
 17 16  2  0
 18 16  1  0
 19 18  1  0
 20 19  1  1
 21 20  1  0
 22 23  1  0
 22 20  1  0
 24 22  2  0
M  END
$$$$
