PVQ.pdb
     RDKit          3D

 24 24  0  0  1  0  0  0  0  0999 V2000
   20.5747  -12.9965  -18.3942 N   0  0  0  0  0  0  0  0  0  0  0  0
   19.4737  -12.9381  -19.3198 C   0  0  0  0  0  0  0  0  0  0  0  0
   19.2879  -11.4344  -19.4780 C   0  0  0  0  0  0  0  0  0  0  0  0
   20.7420  -11.0083  -19.7001 C   0  0  0  0  0  0  0  0  0  0  0  0
   21.4684  -11.9322  -18.7533 C   0  0  1  0  0  0  0  0  0  0  0  0
   21.9035  -11.2372  -17.5187 C   0  0  0  0  0  0  0  0  0  0  0  0
   21.0976  -11.1105  -16.5664 O   0  0  0  0  0  0  0  0  0  0  0  0
   25.9240  -10.1535  -17.0632 C   0  0  0  0  0  0  0  0  0  0  0  0
   25.0420  -10.4155  -15.8717 C   0  0  1  0  0  0  0  0  0  0  0  0
   25.6486   -9.9445  -14.5928 C   0  0  0  0  0  0  0  0  0  0  0  0
   23.6165  -10.0047  -16.1042 C   0  0  2  0  0  0  0  0  0  0  0  0
   23.1907  -10.6964  -17.3376 N   0  0  0  0  0  0  0  0  0  0  0  0
   23.3965   -8.5598  -16.2264 C   0  0  0  0  0  0  0  0  0  0  0  0
   23.7823   -7.9582  -17.2646 O   0  0  0  0  0  0  0  0  0  0  0  0
   18.5550   -5.8596  -16.9553 N   0  0  0  0  0  0  0  0  0  0  0  0
   19.2779   -4.7208  -16.5387 C   0  0  0  0  0  0  0  0  0  0  0  0
   18.7261   -3.5981  -16.6107 O   0  0  0  0  0  0  0  0  0  0  0  0
   20.6867   -4.7894  -16.0095 C   0  0  0  0  0  0  0  0  0  0  0  0
   21.1316   -6.2217  -15.9000 C   0  0  0  0  0  0  0  0  0  0  0  0
   22.5082   -6.3913  -15.3173 C   0  0  2  0  0  0  0  0  0  0  0  0
   22.7596   -7.8338  -15.2017 N   0  0  0  0  0  0  0  0  0  0  0  0
   22.6081   -5.7579  -13.9992 C   0  0  0  0  0  0  0  0  0  0  0  0
   22.7741   -4.3598  -13.8830 O   0  0  0  0  0  0  0  0  0  0  0  0
   22.5587   -6.3634  -12.9044 O   0  0  0  0  0  0  0  0  0  0  0  0
  1  2  1  0
  3  2  1  0
  4  3  1  0
  4  5  1  0
  5  1  1  0
  6  7  2  0
  5  6  1  1
  9  8  1  6
  9 11  1  0
 10  9  1  0
 11 13  1  0
 11 12  1  6
 12  6  1  0
 13 21  1  0
 14 13  2  0
 16 15  1  0
 17 16  2  0
 18 16  1  0
 19 18  1  0
 20 19  1  1
 21 20  1  0
 22 23  1  0
 22 20  1  0
 24 22  2  0
M  END
$$$$
