PVQ.pdb
     RDKit          3D

 24 24  0  0  1  0  0  0  0  0999 V2000
   32.6700  -13.8718  -20.0666 N   0  0  0  0  0  0  0  0  0  0  0  0
   33.4985  -15.0066  -19.7535 C   0  0  0  0  0  0  0  0  0  0  0  0
   32.9220  -15.4444  -18.4131 C   0  0  0  0  0  0  0  0  0  0  0  0
   31.4272  -15.4196  -18.7453 C   0  0  0  0  0  0  0  0  0  0  0  0
   31.3421  -14.2022  -19.6332 C   0  0  1  0  0  0  0  0  0  0  0  0
   30.7663  -13.0341  -18.9257 C   0  0  0  0  0  0  0  0  0  0  0  0
   29.6074  -13.1103  -18.4527 O   0  0  0  0  0  0  0  0  0  0  0  0
   33.3266  -10.3782  -17.9550 C   0  0  0  0  0  0  0  0  0  0  0  0
   31.9839   -9.8275  -17.5546 C   0  0  1  0  0  0  0  0  0  0  0  0
   31.8866   -8.3517  -17.7494 C   0  0  0  0  0  0  0  0  0  0  0  0
   30.8405  -10.6316  -18.1032 C   0  0  2  0  0  0  0  0  0  0  0  0
   31.4476  -11.8156  -18.7440 N   0  0  0  0  0  0  0  0  0  0  0  0
   29.9787   -9.9212  -19.0537 C   0  0  0  0  0  0  0  0  0  0  0  0
   30.4593   -9.5185  -20.1471 O   0  0  0  0  0  0  0  0  0  0  0  0
   24.1345  -11.4652  -19.9128 N   0  0  0  0  0  0  0  0  0  0  0  0
   24.2414  -10.3438  -20.7636 C   0  0  0  0  0  0  0  0  0  0  0  0
   23.2950  -10.0878  -21.5440 O   0  0  0  0  0  0  0  0  0  0  0  0
   25.4433   -9.4354  -20.7794 C   0  0  0  0  0  0  0  0  0  0  0  0
   26.4682   -9.9123  -19.7876 C   0  0  0  0  0  0  0  0  0  0  0  0
   27.7164   -9.0735  -19.7476 C   0  0  2  0  0  0  0  0  0  0  0  0
   28.6215   -9.6827  -18.7643 N   0  0  0  0  0  0  0  0  0  0  0  0
   27.4150   -7.6916  -19.3628 C   0  0  0  0  0  0  0  0  0  0  0  0
   27.3789   -7.3149  -18.0017 O   0  0  0  0  0  0  0  0  0  0  0  0
   27.1727   -6.7588  -20.1620 O   0  0  0  0  0  0  0  0  0  0  0  0
  1  2  1  0
  3  2  1  0
  4  3  1  0
  4  5  1  0
  5  1  1  0
  6  7  2  0
  5  6  1  1
  9  8  1  6
  9 11  1  0
 10  9  1  0
 11 13  1  0
 11 12  1  6
 12  6  1  0
 13 21  1  0
 14 13  2  0
 16 15  1  0
 17 16  2  0
 18 16  1  0
 19 18  1  0
 20 19  1  1
 21 20  1  0
 22 23  1  0
 22 20  1  0
 24 22  2  0
M  END
$$$$
