PVQ.pdb
     RDKit          3D

 24 24  0  0  1  0  0  0  0  0999 V2000
   28.0746  -21.9547  -18.7108 N   0  0  0  0  0  0  0  0  0  0  0  0
   29.1574  -21.9756  -19.6591 C   0  0  0  0  0  0  0  0  0  0  0  0
   30.3693  -21.8922  -18.7399 C   0  0  0  0  0  0  0  0  0  0  0  0
   29.9909  -22.9541  -17.7034 C   0  0  0  0  0  0  0  0  0  0  0  0
   28.5030  -22.7322  -17.5829 C   0  0  1  0  0  0  0  0  0  0  0  0
   28.1451  -22.0082  -16.3402 C   0  0  0  0  0  0  0  0  0  0  0  0
   28.4203  -22.5191  -15.2285 O   0  0  0  0  0  0  0  0  0  0  0  0
   28.6224  -18.3267  -16.2143 C   0  0  0  0  0  0  0  0  0  0  0  0
   27.3882  -18.5721  -15.3880 C   0  0  1  0  0  0  0  0  0  0  0  0
   26.1949  -17.8423  -15.9063 C   0  0  0  0  0  0  0  0  0  0  0  0
   27.1766  -20.0264  -15.0797 C   0  0  2  0  0  0  0  0  0  0  0  0
   27.5018  -20.7561  -16.3219 N   0  0  0  0  0  0  0  0  0  0  0  0
   25.8288  -20.3760  -14.6193 C   0  0  0  0  0  0  0  0  0  0  0  0
   24.9115  -20.5589  -15.4642 O   0  0  0  0  0  0  0  0  0  0  0  0
   24.3148  -20.9127   -8.4561 N   0  0  0  0  0  0  0  0  0  0  0  0
   23.0696  -21.0726   -9.1018 C   0  0  0  0  0  0  0  0  0  0  0  0
   22.0481  -21.2619   -8.4012 O   0  0  0  0  0  0  0  0  0  0  0  0
   22.9081  -21.0266  -10.5990 C   0  0  0  0  0  0  0  0  0  0  0  0
   24.2441  -20.8283  -11.2601 C   0  0  0  0  0  0  0  0  0  0  0  0
   24.1766  -20.7403  -12.7604 C   0  0  2  0  0  0  0  0  0  0  0  0
   25.5434  -20.5117  -13.2471 N   0  0  0  0  0  0  0  0  0  0  0  0
   23.3022  -19.6447  -13.1888 C   0  0  0  0  0  0  0  0  0  0  0  0
   21.9623  -19.8958  -13.5596 O   0  0  0  0  0  0  0  0  0  0  0  0
   23.6405  -18.4414  -13.2638 O   0  0  0  0  0  0  0  0  0  0  0  0
  1  2  1  0
  3  2  1  0
  4  3  1  0
  4  5  1  0
  5  1  1  0
  6  7  2  0
  5  6  1  1
  9  8  1  6
  9 11  1  0
 10  9  1  0
 11 13  1  0
 11 12  1  6
 12  6  1  0
 13 21  1  0
 14 13  2  0
 16 15  1  0
 17 16  2  0
 18 16  1  0
 19 18  1  0
 20 19  1  1
 21 20  1  0
 22 23  1  0
 22 20  1  0
 24 22  2  0
M  END
$$$$
