EFW.pdb
     RDKit          3D

 35 37  0  0  1  0  0  0  0  0999 V2000
   10.5029  -15.9731   17.8790 N   0  0  0  0  0  0  0  0  0  0  0  0
    9.8544  -17.0054   18.7077 C   0  0  1  0  0  0  0  0  0  0  0  0
   10.7201  -18.2130   18.6360 C   0  0  0  0  0  0  0  0  0  0  0  0
   10.2990  -19.3804   19.4532 C   0  0  0  0  0  0  0  0  0  0  0  0
   10.9980  -20.5886   18.8820 C   0  0  0  0  0  0  0  0  0  0  0  0
   12.1505  -20.9209   19.2330 O   0  0  0  0  0  0  0  0  0  0  0  0
    9.7269  -16.5344   20.1054 C   0  0  0  0  0  0  0  0  0  0  0  0
   10.7177  -16.5135   20.8770 O   0  0  0  0  0  0  0  0  0  0  0  0
   10.3563  -21.3690   17.9356 O   0  0  0  0  0  0  0  0  0  0  0  0
    8.5009  -16.0826   20.6660 N   0  0  0  0  0  0  0  0  0  0  0  0
    8.4308  -15.5898   22.0131 C   0  0  1  0  0  0  0  0  0  0  0  0
    7.1247  -14.9571   22.3049 C   0  0  0  0  0  0  0  0  0  0  0  0
    6.9571  -14.3619   23.6235 C   0  0  0  0  0  0  0  0  0  0  0  0
    6.3365  -15.0347   24.6341 C   0  0  0  0  0  0  0  0  0  0  0  0
    6.1604  -14.5020   25.9103 C   0  0  0  0  0  0  0  0  0  0  0  0
    6.6404  -13.2212   26.1698 C   0  0  0  0  0  0  0  0  0  0  0  0
    7.2709  -12.5293   25.1537 C   0  0  0  0  0  0  0  0  0  0  0  0
    7.4360  -13.0791   23.8882 C   0  0  0  0  0  0  0  0  0  0  0  0
    8.7841  -16.6264   23.0204 C   0  0  0  0  0  0  0  0  0  0  0  0
    8.3071  -17.7804   22.8210 O   0  0  0  0  0  0  0  0  0  0  0  0
    9.5865  -16.3991   24.1391 N   0  0  0  0  0  0  0  0  0  0  0  0
   10.0315  -17.5245   24.9669 C   0  0  1  0  0  0  0  0  0  0  0  0
   11.2207  -17.1608   25.7705 C   0  0  0  0  0  0  0  0  0  0  0  0
   10.9382  -16.7246   27.1431 C   0  0  0  0  0  0  0  0  0  0  0  0
   10.6839  -17.5755   28.2253 C   0  0  0  0  0  0  0  0  0  0  0  0
   10.4312  -16.8142   29.3005 N   0  0  0  0  0  0  0  0  0  0  0  0
   10.5065  -15.5127   28.9845 C   0  0  0  0  0  0  0  0  0  0  0  0
   10.3504  -14.3602   29.7212 C   0  0  0  0  0  0  0  0  0  0  0  0
   10.5061  -13.1283   29.1408 C   0  0  0  0  0  0  0  0  0  0  0  0
   10.8224  -13.0549   27.8052 C   0  0  0  0  0  0  0  0  0  0  0  0
   10.9797  -14.1892   27.0616 C   0  0  0  0  0  0  0  0  0  0  0  0
   10.8187  -15.4380   27.6583 C   0  0  0  0  0  0  0  0  0  0  0  0
    8.9029  -18.0134   25.7552 C   0  0  0  0  0  0  0  0  0  0  0  0
    8.8492  -19.2218   26.4323 O   0  0  0  0  0  0  0  0  0  0  0  0
    7.8551  -17.2954   25.8464 O   0  0  0  0  0  0  0  0  0  0  0  0
  2  1  1  6
  2  3  1  0
  3  4  1  0
  4  5  1  0
  5  6  2  0
  5  9  1  0
  7  8  2  0
  7  2  1  0
 10  7  1  0
 11 10  1  0
 11 12  1  1
 13 18  1  0
 13 12  1  0
 14 13  2  0
 15 16  2  0
 15 14  1  0
 16 17  1  0
 17 18  2  0
 19 21  1  0
 19 11  1  0
 20 19  2  0
 22 33  1  0
 22 21  1  0
 22 23  1  1
 24 32  1  0
 24 23  1  0
 25 24  2  0
 26 25  1  0
 26 27  1  0
 27 28  1  0
 27 32  2  0
 28 29  2  0
 29 30  1  0
 31 30  2  0
 32 31  1  0
 33 34  1  0
 35 33  2  0
M  END
$$$$
