EFW.pdb
     RDKit          3D

 35 37  0  0  1  0  0  0  0  0999 V2000
    9.7658  -17.5504   17.9299 N   0  0  0  0  0  0  0  0  0  0  0  0
    9.5659  -18.4317   19.0946 C   0  0  1  0  0  0  0  0  0  0  0  0
   10.5472  -19.5416   18.9605 C   0  0  0  0  0  0  0  0  0  0  0  0
   11.6299  -19.3524   17.9607 C   0  0  0  0  0  0  0  0  0  0  0  0
   12.0081  -20.7243   17.4611 C   0  0  0  0  0  0  0  0  0  0  0  0
   11.4006  -21.7560   17.8194 O   0  0  0  0  0  0  0  0  0  0  0  0
    9.7929  -17.6805   20.3499 C   0  0  0  0  0  0  0  0  0  0  0  0
   10.8423  -17.0138   20.5276 O   0  0  0  0  0  0  0  0  0  0  0  0
   13.0616  -20.8653   16.5742 O   0  0  0  0  0  0  0  0  0  0  0  0
    8.8616  -17.6598   21.4241 N   0  0  0  0  0  0  0  0  0  0  0  0
    9.0580  -16.8147   22.5685 C   0  0  1  0  0  0  0  0  0  0  0  0
    7.8852  -15.9491   22.8265 C   0  0  0  0  0  0  0  0  0  0  0  0
    7.7180  -14.7865   21.9655 C   0  0  0  0  0  0  0  0  0  0  0  0
    7.8584  -14.8773   20.6122 C   0  0  0  0  0  0  0  0  0  0  0  0
    7.7023  -13.7899   19.7541 C   0  0  0  0  0  0  0  0  0  0  0  0
    7.3874  -12.5489   20.3013 C   0  0  0  0  0  0  0  0  0  0  0  0
    7.2428  -12.4443   21.6712 C   0  0  0  0  0  0  0  0  0  0  0  0
    7.4028  -13.5414   22.5090 C   0  0  0  0  0  0  0  0  0  0  0  0
    9.4637  -17.5774   23.7799 C   0  0  0  0  0  0  0  0  0  0  0  0
    8.6178  -18.4057   24.2241 O   0  0  0  0  0  0  0  0  0  0  0  0
   10.6883  -17.4300   24.4323 N   0  0  0  0  0  0  0  0  0  0  0  0
   10.7983  -16.5535   25.6025 C   0  0  1  0  0  0  0  0  0  0  0  0
   10.0807  -15.2768   25.3846 C   0  0  0  0  0  0  0  0  0  0  0  0
    9.6234  -14.6005   26.6041 C   0  0  0  0  0  0  0  0  0  0  0  0
   10.2615  -14.6598   27.8488 C   0  0  0  0  0  0  0  0  0  0  0  0
    9.5301  -13.9529   28.7234 N   0  0  0  0  0  0  0  0  0  0  0  0
    8.4496  -13.4329   28.1223 C   0  0  0  0  0  0  0  0  0  0  0  0
    7.4214  -12.6354   28.5719 C   0  0  0  0  0  0  0  0  0  0  0  0
    6.4304  -12.2198   27.7211 C   0  0  0  0  0  0  0  0  0  0  0  0
    6.4741  -12.6104   26.4040 C   0  0  0  0  0  0  0  0  0  0  0  0
    7.4872  -13.4017   25.9438 C   0  0  0  0  0  0  0  0  0  0  0  0
    8.4905  -13.8212   26.8149 C   0  0  0  0  0  0  0  0  0  0  0  0
   10.3683  -17.2866   26.7907 C   0  0  0  0  0  0  0  0  0  0  0  0
   11.0028  -17.2779   28.0232 O   0  0  0  0  0  0  0  0  0  0  0  0
    9.3251  -18.0142   26.7247 O   0  0  0  0  0  0  0  0  0  0  0  0
  2  1  1  6
  2  3  1  0
  3  4  1  0
  4  5  1  0
  5  6  2  0
  5  9  1  0
  7  8  2  0
  7  2  1  0
 10  7  1  0
 11 10  1  0
 11 12  1  1
 13 18  1  0
 13 12  1  0
 14 13  2  0
 15 16  2  0
 15 14  1  0
 16 17  1  0
 17 18  2  0
 19 21  1  0
 19 11  1  0
 20 19  2  0
 22 33  1  0
 22 21  1  0
 22 23  1  6
 24 32  1  0
 24 23  1  0
 25 24  2  0
 26 25  1  0
 26 27  1  0
 27 28  1  0
 27 32  2  0
 28 29  2  0
 29 30  1  0
 31 30  2  0
 32 31  1  0
 33 34  1  0
 35 33  2  0
M  END
$$$$
