EFW.pdb
     RDKit          3D

 35 37  0  0  1  0  0  0  0  0999 V2000
   11.0730  -16.4619   18.2395 N   0  0  0  0  0  0  0  0  0  0  0  0
    9.6991  -16.6099   18.7528 C   0  0  1  0  0  0  0  0  0  0  0  0
    9.3475  -18.0489   18.6159 C   0  0  0  0  0  0  0  0  0  0  0  0
   10.4087  -19.0273   18.9687 C   0  0  0  0  0  0  0  0  0  0  0  0
    9.8637  -20.3970   18.6500 C   0  0  0  0  0  0  0  0  0  0  0  0
   10.2266  -21.0420   17.6429 O   0  0  0  0  0  0  0  0  0  0  0  0
    9.6337  -16.1872   20.1701 C   0  0  0  0  0  0  0  0  0  0  0  0
   10.6689  -16.1276   20.8789 O   0  0  0  0  0  0  0  0  0  0  0  0
    8.9288  -20.9763   19.4906 O   0  0  0  0  0  0  0  0  0  0  0  0
    8.4216  -15.8271   20.8200 N   0  0  0  0  0  0  0  0  0  0  0  0
    8.4083  -15.3811   22.1851 C   0  0  1  0  0  0  0  0  0  0  0  0
    7.1192  -14.7520   22.5505 C   0  0  0  0  0  0  0  0  0  0  0  0
    7.0251  -14.1568   23.8764 C   0  0  0  0  0  0  0  0  0  0  0  0
    7.4551  -12.8856   24.1178 C   0  0  0  0  0  0  0  0  0  0  0  0
    7.3784  -12.2790   25.3706 C   0  0  0  0  0  0  0  0  0  0  0  0
    6.8368  -13.0028   26.4295 C   0  0  0  0  0  0  0  0  0  0  0  0
    6.3980  -14.2920   26.1974 C   0  0  0  0  0  0  0  0  0  0  0  0
    6.4836  -14.8781   24.9403 C   0  0  0  0  0  0  0  0  0  0  0  0
    8.7944  -16.4540   23.1411 C   0  0  0  0  0  0  0  0  0  0  0  0
    8.2868  -17.5932   22.9325 O   0  0  0  0  0  0  0  0  0  0  0  0
    9.6577  -16.2747   24.2225 N   0  0  0  0  0  0  0  0  0  0  0  0
   10.1202  -17.4319   24.9952 C   0  0  1  0  0  0  0  0  0  0  0  0
   11.2662  -17.0738   25.8615 C   0  0  0  0  0  0  0  0  0  0  0  0
   10.9155  -16.6792   27.2310 C   0  0  0  0  0  0  0  0  0  0  0  0
   10.5632  -17.5599   28.2606 C   0  0  0  0  0  0  0  0  0  0  0  0
   10.2727  -16.8306   29.3483 N   0  0  0  0  0  0  0  0  0  0  0  0
   10.4155  -15.5221   29.0902 C   0  0  0  0  0  0  0  0  0  0  0  0
   10.2568  -14.3931   29.8620 C   0  0  0  0  0  0  0  0  0  0  0  0
   10.4937  -13.1471   29.3422 C   0  0  0  0  0  0  0  0  0  0  0  0
   10.8947  -13.0356   28.0322 C   0  0  0  0  0  0  0  0  0  0  0  0
   11.0558  -14.1462   27.2545 C   0  0  0  0  0  0  0  0  0  0  0  0
   10.8119  -15.4094   27.7895 C   0  0  0  0  0  0  0  0  0  0  0  0
    8.9867  -18.0121   25.7112 C   0  0  0  0  0  0  0  0  0  0  0  0
    8.9854  -19.2262   26.3803 O   0  0  0  0  0  0  0  0  0  0  0  0
    7.8829  -17.3776   25.7398 O   0  0  0  0  0  0  0  0  0  0  0  0
  2  1  1  1
  2  3  1  0
  3  4  1  0
  4  5  1  0
  5  6  2  0
  5  9  1  0
  7  8  2  0
  7  2  1  0
 10  7  1  0
 11 10  1  0
 11 12  1  1
 13 18  1  0
 13 12  1  0
 14 13  2  0
 15 16  2  0
 15 14  1  0
 16 17  1  0
 17 18  2  0
 19 21  1  0
 19 11  1  0
 20 19  2  0
 22 33  1  0
 22 21  1  0
 22 23  1  1
 24 32  1  0
 24 23  1  0
 25 24  2  0
 26 25  1  0
 26 27  1  0
 27 28  1  0
 27 32  2  0
 28 29  2  0
 29 30  1  0
 31 30  2  0
 32 31  1  0
 33 34  1  0
 35 33  2  0
M  END
$$$$
