EFW.pdb
     RDKit          3D

 35 37  0  0  1  0  0  0  0  0999 V2000
    9.0164  -19.0879   18.6434 N   0  0  0  0  0  0  0  0  0  0  0  0
   10.3369  -18.4555   18.8149 C   0  0  1  0  0  0  0  0  0  0  0  0
   10.7807  -18.0258   17.4617 C   0  0  0  0  0  0  0  0  0  0  0  0
   11.0832  -19.1070   16.4884 C   0  0  0  0  0  0  0  0  0  0  0  0
   11.7555  -18.4553   15.3061 C   0  0  0  0  0  0  0  0  0  0  0  0
   11.1391  -18.1851   14.2531 O   0  0  0  0  0  0  0  0  0  0  0  0
   10.2334  -17.2932   19.7260 C   0  0  0  0  0  0  0  0  0  0  0  0
   11.2290  -16.5669   19.9684 O   0  0  0  0  0  0  0  0  0  0  0  0
   13.1013  -18.1374   15.3712 O   0  0  0  0  0  0  0  0  0  0  0  0
    9.0271  -16.9221   20.3807 N   0  0  0  0  0  0  0  0  0  0  0  0
    9.0041  -15.8879   21.3769 C   0  0  1  0  0  0  0  0  0  0  0  0
    7.6521  -15.3084   21.5435 C   0  0  0  0  0  0  0  0  0  0  0  0
    7.4914  -14.2867   22.5687 C   0  0  0  0  0  0  0  0  0  0  0  0
    6.8903  -14.5634   23.7609 C   0  0  0  0  0  0  0  0  0  0  0  0
    6.7214  -13.6151   24.7687 C   0  0  0  0  0  0  0  0  0  0  0  0
    7.1881  -12.3215   24.5515 C   0  0  0  0  0  0  0  0  0  0  0  0
    7.7987  -12.0289   23.3474 C   0  0  0  0  0  0  0  0  0  0  0  0
    7.9570  -12.9894   22.3557 C   0  0  0  0  0  0  0  0  0  0  0  0
    9.5833  -16.3303   22.6740 C   0  0  0  0  0  0  0  0  0  0  0  0
    9.1625  -17.4352   23.1226 O   0  0  0  0  0  0  0  0  0  0  0  0
   10.5344  -15.6122   23.3999 N   0  0  0  0  0  0  0  0  0  0  0  0
   11.0848  -16.1653   24.6413 C   0  0  1  0  0  0  0  0  0  0  0  0
   10.1084  -17.0550   25.3101 C   0  0  0  0  0  0  0  0  0  0  0  0
    9.1852  -16.3871   26.2351 C   0  0  0  0  0  0  0  0  0  0  0  0
    7.8390  -16.7253   26.4178 C   0  0  0  0  0  0  0  0  0  0  0  0
    7.3143  -15.8703   27.3085 N   0  0  0  0  0  0  0  0  0  0  0  0
    8.2406  -14.9918   27.7205 C   0  0  0  0  0  0  0  0  0  0  0  0
    8.2076  -13.9498   28.6196 C   0  0  0  0  0  0  0  0  0  0  0  0
    9.3304  -13.2064   28.8757 C   0  0  0  0  0  0  0  0  0  0  0  0
   10.4988  -13.5147   28.2206 C   0  0  0  0  0  0  0  0  0  0  0  0
   10.5465  -14.5449   27.3257 C   0  0  0  0  0  0  0  0  0  0  0  0
    9.4008  -15.2953   27.0697 C   0  0  0  0  0  0  0  0  0  0  0  0
   12.3709  -16.7959   24.3545 C   0  0  0  0  0  0  0  0  0  0  0  0
   13.5660  -16.5346   25.0066 O   0  0  0  0  0  0  0  0  0  0  0  0
   12.4405  -17.6637   23.4250 O   0  0  0  0  0  0  0  0  0  0  0  0
  2  1  1  6
  2  3  1  0
  3  4  1  0
  4  5  1  0
  5  6  2  0
  5  9  1  0
  7  8  2  0
  7  2  1  0
 10  7  1  0
 11 10  1  0
 11 12  1  1
 13 18  1  0
 13 12  1  0
 14 13  2  0
 15 16  2  0
 15 14  1  0
 16 17  1  0
 17 18  2  0
 19 21  1  0
 19 11  1  0
 20 19  2  0
 22 33  1  0
 22 21  1  0
 22 23  1  6
 24 32  1  0
 24 23  1  0
 25 24  2  0
 26 25  1  0
 26 27  1  0
 27 28  1  0
 27 32  2  0
 28 29  2  0
 29 30  1  0
 31 30  2  0
 32 31  1  0
 33 34  1  0
 35 33  2  0
M  END
$$$$
