EFW.pdb
     RDKit          3D

 35 37  0  0  1  0  0  0  0  0999 V2000
   11.4513  -19.8548   18.6941 N   0  0  0  0  0  0  0  0  0  0  0  0
   12.4118  -18.7662   18.9497 C   0  0  1  0  0  0  0  0  0  0  0  0
   12.8776  -18.2900   17.6195 C   0  0  0  0  0  0  0  0  0  0  0  0
   13.6864  -19.2455   16.8190 C   0  0  0  0  0  0  0  0  0  0  0  0
   14.2818  -18.4630   15.6754 C   0  0  0  0  0  0  0  0  0  0  0  0
   13.7626  -18.4427   14.5387 O   0  0  0  0  0  0  0  0  0  0  0  0
   11.7561  -17.6701   19.6983 C   0  0  0  0  0  0  0  0  0  0  0  0
   12.3661  -16.6026   19.9548 O   0  0  0  0  0  0  0  0  0  0  0  0
   15.4429  -17.7355   15.8726 O   0  0  0  0  0  0  0  0  0  0  0  0
   10.4180  -17.7434   20.1732 N   0  0  0  0  0  0  0  0  0  0  0  0
    9.8506  -16.6965   20.9760 C   0  0  1  0  0  0  0  0  0  0  0  0
    8.5053  -16.3011   20.5016 C   0  0  0  0  0  0  0  0  0  0  0  0
    7.8752  -15.1685   21.1659 C   0  0  0  0  0  0  0  0  0  0  0  0
    8.1824  -13.8840   20.8270 C   0  0  0  0  0  0  0  0  0  0  0  0
    7.5987  -12.7738   21.4355 C   0  0  0  0  0  0  0  0  0  0  0  0
    6.6557  -12.9824   22.4383 C   0  0  0  0  0  0  0  0  0  0  0  0
    6.3364  -14.2794   22.7907 C   0  0  0  0  0  0  0  0  0  0  0  0
    6.9302  -15.3724   22.1712 C   0  0  0  0  0  0  0  0  0  0  0  0
    9.8549  -17.0228   22.4276 C   0  0  0  0  0  0  0  0  0  0  0  0
    9.9090  -18.2516   22.7208 O   0  0  0  0  0  0  0  0  0  0  0  0
    9.8016  -16.0748   23.4501 N   0  0  0  0  0  0  0  0  0  0  0  0
   10.0022  -16.4832   24.8440 C   0  0  1  0  0  0  0  0  0  0  0  0
    9.7454  -15.3596   25.7734 C   0  0  0  0  0  0  0  0  0  0  0  0
    8.3619  -14.8702   25.7955 C   0  0  0  0  0  0  0  0  0  0  0  0
    7.2262  -15.6453   25.5320 C   0  0  0  0  0  0  0  0  0  0  0  0
    6.1521  -14.8451   25.6068 N   0  0  0  0  0  0  0  0  0  0  0  0
    6.5194  -13.5900   25.9054 C   0  0  0  0  0  0  0  0  0  0  0  0
    5.8072  -12.4289   26.1053 C   0  0  0  0  0  0  0  0  0  0  0  0
    6.4453  -11.2595   26.4278 C   0  0  0  0  0  0  0  0  0  0  0  0
    7.8143  -11.2580   26.5507 C   0  0  0  0  0  0  0  0  0  0  0  0
    8.5340  -12.4016   26.3547 C   0  0  0  0  0  0  0  0  0  0  0  0
    7.8785  -13.5863   26.0260 C   0  0  0  0  0  0  0  0  0  0  0  0
    9.2032  -17.6765   25.1119 C   0  0  0  0  0  0  0  0  0  0  0  0
    9.3602  -18.5325   26.1909 O   0  0  0  0  0  0  0  0  0  0  0  0
    8.2743  -17.9938   24.3005 O   0  0  0  0  0  0  0  0  0  0  0  0
  2  1  1  6
  2  3  1  0
  3  4  1  0
  4  5  1  0
  5  6  2  0
  5  9  1  0
  7  8  2  0
  7  2  1  0
 10  7  1  0
 11 10  1  0
 11 12  1  6
 13 18  1  0
 13 12  1  0
 14 13  2  0
 15 16  2  0
 15 14  1  0
 16 17  1  0
 17 18  2  0
 19 21  1  0
 19 11  1  0
 20 19  2  0
 22 33  1  0
 22 21  1  0
 22 23  1  1
 24 32  1  0
 24 23  1  0
 25 24  2  0
 26 25  1  0
 26 27  1  0
 27 28  1  0
 27 32  2  0
 28 29  2  0
 29 30  1  0
 31 30  2  0
 32 31  1  0
 33 34  1  0
 35 33  2  0
M  END
$$$$
