EFW.pdb
     RDKit          3D

 35 37  0  0  1  0  0  0  0  0999 V2000
    9.9516  -16.5380   18.0521 N   0  0  0  0  0  0  0  0  0  0  0  0
    9.8134  -17.5062   19.1550 C   0  0  1  0  0  0  0  0  0  0  0  0
   11.0153  -18.3812   19.1048 C   0  0  0  0  0  0  0  0  0  0  0  0
   11.3410  -18.9858   17.7871 C   0  0  0  0  0  0  0  0  0  0  0  0
   10.8652  -20.4162   17.8329 C   0  0  0  0  0  0  0  0  0  0  0  0
    9.6538  -20.7187   17.7798 O   0  0  0  0  0  0  0  0  0  0  0  0
    9.7356  -16.7970   20.4522 C   0  0  0  0  0  0  0  0  0  0  0  0
   10.7441  -16.6831   21.1921 O   0  0  0  0  0  0  0  0  0  0  0  0
   11.7876  -21.4432   17.9367 O   0  0  0  0  0  0  0  0  0  0  0  0
    8.5403  -16.2068   20.9464 N   0  0  0  0  0  0  0  0  0  0  0  0
    8.4556  -15.6983   22.2869 C   0  0  1  0  0  0  0  0  0  0  0  0
    7.2292  -14.8970   22.4995 C   0  0  0  0  0  0  0  0  0  0  0  0
    7.0447  -14.3059   23.8177 C   0  0  0  0  0  0  0  0  0  0  0  0
    7.5584  -13.0812   24.1265 C   0  0  0  0  0  0  0  0  0  0  0  0
    7.4002  -12.4798   25.3742 C   0  0  0  0  0  0  0  0  0  0  0  0
    6.6832  -13.1592   26.3554 C   0  0  0  0  0  0  0  0  0  0  0  0
    6.1580  -14.4010   26.0545 C   0  0  0  0  0  0  0  0  0  0  0  0
    6.3275  -14.9828   24.8039 C   0  0  0  0  0  0  0  0  0  0  0  0
    8.6087  -16.7641   23.3137 C   0  0  0  0  0  0  0  0  0  0  0  0
    8.0230  -17.8581   23.0706 O   0  0  0  0  0  0  0  0  0  0  0  0
    9.3392  -16.6240   24.4942 N   0  0  0  0  0  0  0  0  0  0  0  0
    9.8254  -17.8111   25.2044 C   0  0  1  0  0  0  0  0  0  0  0  0
   11.0734  -17.5180   25.9453 C   0  0  0  0  0  0  0  0  0  0  0  0
   10.8864  -17.0277   27.3160 C   0  0  0  0  0  0  0  0  0  0  0  0
   10.7331  -17.8353   28.4492 C   0  0  0  0  0  0  0  0  0  0  0  0
   10.5462  -17.0327   29.5077 N   0  0  0  0  0  0  0  0  0  0  0  0
   10.5695  -15.7451   29.1326 C   0  0  0  0  0  0  0  0  0  0  0  0
   10.4450  -14.5647   29.8301 C   0  0  0  0  0  0  0  0  0  0  0  0
   10.5299  -13.3565   29.1883 C   0  0  0  0  0  0  0  0  0  0  0  0
   10.7425  -13.3354   27.8305 C   0  0  0  0  0  0  0  0  0  0  0  0
   10.8673  -14.4980   27.1254 C   0  0  0  0  0  0  0  0  0  0  0  0
   10.7787  -15.7223   27.7844 C   0  0  0  0  0  0  0  0  0  0  0  0
    8.7484  -18.3461   26.0339 C   0  0  0  0  0  0  0  0  0  0  0  0
    8.7575  -19.5697   26.6852 O   0  0  0  0  0  0  0  0  0  0  0  0
    7.6884  -17.6579   26.1906 O   0  0  0  0  0  0  0  0  0  0  0  0
  2  1  1  6
  2  3  1  0
  3  4  1  0
  4  5  1  0
  5  6  2  0
  5  9  1  0
  7  8  2  0
  7  2  1  0
 10  7  1  0
 11 10  1  0
 11 12  1  6
 13 18  1  0
 13 12  1  0
 14 13  2  0
 15 16  2  0
 15 14  1  0
 16 17  1  0
 17 18  2  0
 19 21  1  0
 19 11  1  0
 20 19  2  0
 22 33  1  0
 22 21  1  0
 22 23  1  1
 24 32  1  0
 24 23  1  0
 25 24  2  0
 26 25  1  0
 26 27  1  0
 27 28  1  0
 27 32  2  0
 28 29  2  0
 29 30  1  0
 31 30  2  0
 32 31  1  0
 33 34  1  0
 35 33  2  0
M  END
$$$$
