EFW.pdb
     RDKit          3D

 35 37  0  0  1  0  0  0  0  0999 V2000
   10.3069  -16.7762   17.6629 N   0  0  0  0  0  0  0  0  0  0  0  0
    9.7321  -17.6140   18.7309 C   0  0  1  0  0  0  0  0  0  0  0  0
   10.6263  -18.7944   18.8721 C   0  0  0  0  0  0  0  0  0  0  0  0
   10.8864  -19.5808   17.6385 C   0  0  0  0  0  0  0  0  0  0  0  0
   11.7863  -20.7255   18.0315 C   0  0  0  0  0  0  0  0  0  0  0  0
   12.0875  -20.9595   19.2216 O   0  0  0  0  0  0  0  0  0  0  0  0
    9.6653  -16.8527   19.9988 C   0  0  0  0  0  0  0  0  0  0  0  0
   10.6340  -16.1556   20.3901 O   0  0  0  0  0  0  0  0  0  0  0  0
   12.3058  -21.5569   17.0541 O   0  0  0  0  0  0  0  0  0  0  0  0
    8.5261  -16.8554   20.8495 N   0  0  0  0  0  0  0  0  0  0  0  0
    8.5187  -16.1360   22.0925 C   0  0  1  0  0  0  0  0  0  0  0  0
    7.1567  -15.6962   22.4705 C   0  0  0  0  0  0  0  0  0  0  0  0
    7.0083  -15.0355   23.7599 C   0  0  0  0  0  0  0  0  0  0  0  0
    6.5444  -15.7051   24.8532 C   0  0  0  0  0  0  0  0  0  0  0  0
    6.3922  -15.1102   26.1048 C   0  0  0  0  0  0  0  0  0  0  0  0
    6.7296  -13.7672   26.2497 C   0  0  0  0  0  0  0  0  0  0  0  0
    7.2006  -13.0780   25.1490 C   0  0  0  0  0  0  0  0  0  0  0  0
    7.3447  -13.6903   23.9099 C   0  0  0  0  0  0  0  0  0  0  0  0
    9.1863  -16.8852   23.1910 C   0  0  0  0  0  0  0  0  0  0  0  0
    8.9357  -18.1232   23.2516 O   0  0  0  0  0  0  0  0  0  0  0  0
   10.0451  -16.3119   24.1294 N   0  0  0  0  0  0  0  0  0  0  0  0
   10.9802  -17.1535   24.8826 C   0  0  1  0  0  0  0  0  0  0  0  0
   11.8597  -16.3349   25.7478 C   0  0  0  0  0  0  0  0  0  0  0  0
   11.2592  -15.8964   27.0132 C   0  0  0  0  0  0  0  0  0  0  0  0
   11.0325  -16.7144   28.1264 C   0  0  0  0  0  0  0  0  0  0  0  0
   10.4347  -15.9726   29.0708 N   0  0  0  0  0  0  0  0  0  0  0  0
   10.2578  -14.7147   28.6400 C   0  0  0  0  0  0  0  0  0  0  0  0
    9.7184  -13.5918   29.2261 C   0  0  0  0  0  0  0  0  0  0  0  0
    9.6787  -12.3980   28.5539 C   0  0  0  0  0  0  0  0  0  0  0  0
   10.1873  -12.3328   27.2786 C   0  0  0  0  0  0  0  0  0  0  0  0
   10.7248  -13.4382   26.6841 C   0  0  0  0  0  0  0  0  0  0  0  0
   10.7606  -14.6486   27.3733 C   0  0  0  0  0  0  0  0  0  0  0  0
   10.2282  -18.1827   25.5962 C   0  0  0  0  0  0  0  0  0  0  0  0
    8.8505  -18.2252   25.7439 O   0  0  0  0  0  0  0  0  0  0  0  0
   10.8612  -19.1389   26.1502 O   0  0  0  0  0  0  0  0  0  0  0  0
  2  1  1  6
  2  3  1  0
  3  4  1  0
  4  5  1  0
  5  6  2  0
  5  9  1  0
  7  8  2  0
  7  2  1  0
 10  7  1  0
 11 10  1  0
 11 12  1  1
 13 18  1  0
 13 12  1  0
 14 13  2  0
 15 16  2  0
 15 14  1  0
 16 17  1  0
 17 18  2  0
 19 21  1  0
 19 11  1  0
 20 19  2  0
 22 33  1  0
 22 21  1  0
 22 23  1  1
 24 32  1  0
 24 23  1  0
 25 24  2  0
 26 25  1  0
 26 27  1  0
 27 28  1  0
 27 32  2  0
 28 29  2  0
 29 30  1  0
 31 30  2  0
 32 31  1  0
 33 34  1  0
 35 33  2  0
M  END
$$$$
