EFW.pdb
     RDKit          3D

 35 37  0  0  1  0  0  0  0  0999 V2000
    9.6839  -20.7323   20.7123 N   0  0  0  0  0  0  0  0  0  0  0  0
   10.7617  -19.7594   20.4575 C   0  0  1  0  0  0  0  0  0  0  0  0
   10.7870  -19.5291   18.9881 C   0  0  0  0  0  0  0  0  0  0  0  0
   11.8665  -18.6473   18.4735 C   0  0  0  0  0  0  0  0  0  0  0  0
   11.6517  -18.5155   16.9865 C   0  0  0  0  0  0  0  0  0  0  0  0
   11.4995  -17.4070   16.4298 O   0  0  0  0  0  0  0  0  0  0  0  0
   10.4927  -18.4963   21.1812 C   0  0  0  0  0  0  0  0  0  0  0  0
   11.2907  -17.5284   21.1180 O   0  0  0  0  0  0  0  0  0  0  0  0
   11.6194  -19.6505   16.1945 O   0  0  0  0  0  0  0  0  0  0  0  0
    9.3381  -18.2900   21.9848 N   0  0  0  0  0  0  0  0  0  0  0  0
    9.1820  -17.1045   22.7802 C   0  0  1  0  0  0  0  0  0  0  0  0
    7.8433  -16.4957   22.6115 C   0  0  0  0  0  0  0  0  0  0  0  0
    7.5723  -15.2748   23.3577 C   0  0  0  0  0  0  0  0  0  0  0  0
    8.1002  -14.0765   22.9775 C   0  0  0  0  0  0  0  0  0  0  0  0
    7.8614  -12.8857   23.6619 C   0  0  0  0  0  0  0  0  0  0  0  0
    7.0444  -12.9171   24.7888 C   0  0  0  0  0  0  0  0  0  0  0  0
    6.5039  -14.1255   25.1842 C   0  0  0  0  0  0  0  0  0  0  0  0
    6.7548  -15.3013   24.4874 C   0  0  0  0  0  0  0  0  0  0  0  0
    9.5143  -17.3292   24.2130 C   0  0  0  0  0  0  0  0  0  0  0  0
    8.7593  -18.1264   24.8402 O   0  0  0  0  0  0  0  0  0  0  0  0
   10.5798  -16.7242   24.8807 N   0  0  0  0  0  0  0  0  0  0  0  0
   10.8485  -17.0491   26.2850 C   0  0  1  0  0  0  0  0  0  0  0  0
    9.9088  -16.3448   27.1867 C   0  0  0  0  0  0  0  0  0  0  0  0
    9.7188  -14.9178   26.9009 C   0  0  0  0  0  0  0  0  0  0  0  0
   10.6818  -14.0709   26.3394 C   0  0  0  0  0  0  0  0  0  0  0  0
   10.1584  -12.8378   26.2688 N   0  0  0  0  0  0  0  0  0  0  0  0
    8.9068  -12.8288   26.7511 C   0  0  0  0  0  0  0  0  0  0  0  0
    7.9605  -11.8372   26.8798 C   0  0  0  0  0  0  0  0  0  0  0  0
    6.7222  -12.1104   27.4001 C   0  0  0  0  0  0  0  0  0  0  0  0
    6.4326  -13.3947   27.7949 C   0  0  0  0  0  0  0  0  0  0  0  0
    7.3611  -14.3884   27.6739 C   0  0  0  0  0  0  0  0  0  0  0  0
    8.6182  -14.1028   27.1452 C   0  0  0  0  0  0  0  0  0  0  0  0
   10.8582  -18.5010   26.4461 C   0  0  0  0  0  0  0  0  0  0  0  0
   11.2390  -19.1880   27.5883 O   0  0  0  0  0  0  0  0  0  0  0  0
   10.4967  -19.2340   25.4694 O   0  0  0  0  0  0  0  0  0  0  0  0
  2  1  1  6
  2  3  1  0
  3  4  1  0
  4  5  1  0
  5  6  2  0
  5  9  1  0
  7  8  2  0
  7  2  1  0
 10  7  1  0
 11 10  1  0
 11 12  1  1
 13 18  1  0
 13 12  1  0
 14 13  2  0
 15 16  2  0
 15 14  1  0
 16 17  1  0
 17 18  2  0
 19 21  1  0
 19 11  1  0
 20 19  2  0
 22 33  1  0
 22 21  1  0
 22 23  1  1
 24 32  1  0
 24 23  1  0
 25 24  2  0
 26 25  1  0
 26 27  1  0
 27 28  1  0
 27 32  2  0
 28 29  2  0
 29 30  1  0
 31 30  2  0
 32 31  1  0
 33 34  1  0
 35 33  2  0
M  END
$$$$
