EFW.pdb
     RDKit          3D

 35 37  0  0  1  0  0  0  0  0999 V2000
   10.5705  -17.9814   18.8422 N   0  0  0  0  0  0  0  0  0  0  0  0
    9.6855  -17.9881   20.0210 C   0  0  1  0  0  0  0  0  0  0  0  0
    9.9439  -19.2654   20.7385 C   0  0  0  0  0  0  0  0  0  0  0  0
   11.3678  -19.6556   20.9063 C   0  0  0  0  0  0  0  0  0  0  0  0
   11.3765  -20.9694   21.6469 C   0  0  0  0  0  0  0  0  0  0  0  0
   11.6662  -21.0498   22.8599 O   0  0  0  0  0  0  0  0  0  0  0  0
    9.9839  -16.8286   20.8918 C   0  0  0  0  0  0  0  0  0  0  0  0
   11.0947  -16.2449   20.8388 O   0  0  0  0  0  0  0  0  0  0  0  0
   11.0549  -22.1371   20.9766 O   0  0  0  0  0  0  0  0  0  0  0  0
    9.0567  -16.3025   21.8326 N   0  0  0  0  0  0  0  0  0  0  0  0
    9.3154  -15.0752   22.5321 C   0  0  1  0  0  0  0  0  0  0  0  0
    8.1912  -14.1199   22.4104 C   0  0  0  0  0  0  0  0  0  0  0  0
    7.9297  -13.5700   21.0874 C   0  0  0  0  0  0  0  0  0  0  0  0
    7.0181  -14.1388   20.2480 C   0  0  0  0  0  0  0  0  0  0  0  0
    6.7363  -13.6405   18.9769 C   0  0  0  0  0  0  0  0  0  0  0  0
    7.4163  -12.5071   18.5395 C   0  0  0  0  0  0  0  0  0  0  0  0
    8.3427  -11.9220   19.3810 C   0  0  0  0  0  0  0  0  0  0  0  0
    8.6086  -12.4350   20.6448 C   0  0  0  0  0  0  0  0  0  0  0  0
    9.7061  -15.2967   23.9505 C   0  0  0  0  0  0  0  0  0  0  0  0
    9.7820  -14.2625   24.6740 O   0  0  0  0  0  0  0  0  0  0  0  0
    9.9866  -16.5455   24.5064 N   0  0  0  0  0  0  0  0  0  0  0  0
   10.2549  -16.6686   25.9427 C   0  0  1  0  0  0  0  0  0  0  0  0
    9.0174  -16.9796   26.6938 C   0  0  0  0  0  0  0  0  0  0  0  0
    7.9109  -16.0364   26.4938 C   0  0  0  0  0  0  0  0  0  0  0  0
    6.6794  -16.3484   25.9056 C   0  0  0  0  0  0  0  0  0  0  0  0
    5.9459  -15.2261   25.8602 N   0  0  0  0  0  0  0  0  0  0  0  0
    6.6263  -14.1968   26.3862 C   0  0  0  0  0  0  0  0  0  0  0  0
    6.3132  -12.8707   26.5828 C   0  0  0  0  0  0  0  0  0  0  0  0
    7.2069  -12.0178   27.1767 C   0  0  0  0  0  0  0  0  0  0  0  0
    8.4285  -12.5041   27.5772 C   0  0  0  0  0  0  0  0  0  0  0  0
    8.7533  -13.8168   27.3883 C   0  0  0  0  0  0  0  0  0  0  0  0
    7.8402  -14.6774   26.7828 C   0  0  0  0  0  0  0  0  0  0  0  0
   11.3362  -17.6296   26.1461 C   0  0  0  0  0  0  0  0  0  0  0  0
   11.9388  -17.9282   27.3583 O   0  0  0  0  0  0  0  0  0  0  0  0
   11.7964  -18.2643   25.1425 O   0  0  0  0  0  0  0  0  0  0  0  0
  2  1  1  6
  2  3  1  0
  3  4  1  0
  4  5  1  0
  5  6  2  0
  5  9  1  0
  7  8  2  0
  7  2  1  0
 10  7  1  0
 11 10  1  0
 11 12  1  1
 13 18  1  0
 13 12  1  0
 14 13  2  0
 15 16  2  0
 15 14  1  0
 16 17  1  0
 17 18  2  0
 19 21  1  0
 19 11  1  0
 20 19  2  0
 22 33  1  0
 22 21  1  0
 22 23  1  1
 24 32  1  0
 24 23  1  0
 25 24  2  0
 26 25  1  0
 26 27  1  0
 27 28  1  0
 27 32  2  0
 28 29  2  0
 29 30  1  0
 31 30  2  0
 32 31  1  0
 33 34  1  0
 35 33  2  0
M  END
$$$$
