EFW.pdb
     RDKit          3D

 35 37  0  0  1  0  0  0  0  0999 V2000
    8.7247  -18.4426   18.2025 N   0  0  0  0  0  0  0  0  0  0  0  0
   10.0144  -18.2654   18.8941 C   0  0  1  0  0  0  0  0  0  0  0  0
   10.9559  -17.6913   17.8957 C   0  0  0  0  0  0  0  0  0  0  0  0
   10.3524  -16.8929   16.7974 C   0  0  0  0  0  0  0  0  0  0  0  0
   10.7999  -17.5229   15.5022 C   0  0  0  0  0  0  0  0  0  0  0  0
   11.9841  -17.8688   15.3024 O   0  0  0  0  0  0  0  0  0  0  0  0
    9.8549  -17.3529   20.0489 C   0  0  0  0  0  0  0  0  0  0  0  0
   10.8516  -16.8313   20.6075 O   0  0  0  0  0  0  0  0  0  0  0  0
    9.8813  -17.7336   14.4882 O   0  0  0  0  0  0  0  0  0  0  0  0
    8.5905  -17.0084   20.6001 N   0  0  0  0  0  0  0  0  0  0  0  0
    8.4836  -16.1680   21.7598 C   0  0  1  0  0  0  0  0  0  0  0  0
    7.2185  -15.3996   21.7732 C   0  0  0  0  0  0  0  0  0  0  0  0
    6.9588  -14.5719   22.9431 C   0  0  0  0  0  0  0  0  0  0  0  0
    6.3087  -15.0669   24.0347 C   0  0  0  0  0  0  0  0  0  0  0  0
    6.0451  -14.3090   25.1746 C   0  0  0  0  0  0  0  0  0  0  0  0
    6.4646  -12.9817   25.2042 C   0  0  0  0  0  0  0  0  0  0  0  0
    7.1242  -12.4688   24.1040 C   0  0  0  0  0  0  0  0  0  0  0  0
    7.3769  -13.2418   22.9773 C   0  0  0  0  0  0  0  0  0  0  0  0
    8.6940  -16.9154   23.0291 C   0  0  0  0  0  0  0  0  0  0  0  0
    8.6007  -18.1743   22.9546 O   0  0  0  0  0  0  0  0  0  0  0  0
    8.9774  -16.3195   24.2586 N   0  0  0  0  0  0  0  0  0  0  0  0
    9.7390  -17.0533   25.2742 C   0  0  1  0  0  0  0  0  0  0  0  0
   10.8256  -16.2187   25.8353 C   0  0  0  0  0  0  0  0  0  0  0  0
   11.0392  -16.3591   27.2805 C   0  0  0  0  0  0  0  0  0  0  0  0
   11.4086  -17.5421   27.9317 C   0  0  0  0  0  0  0  0  0  0  0  0
   11.4671  -17.2895   29.2479 N   0  0  0  0  0  0  0  0  0  0  0  0
   11.1581  -16.0081   29.4960 C   0  0  0  0  0  0  0  0  0  0  0  0
   11.0924  -15.2688   30.6555 C   0  0  0  0  0  0  0  0  0  0  0  0
   10.7627  -13.9387   30.6236 C   0  0  0  0  0  0  0  0  0  0  0  0
   10.4964  -13.3460   29.4124 C   0  0  0  0  0  0  0  0  0  0  0  0
   10.5570  -14.0665   28.2542 C   0  0  0  0  0  0  0  0  0  0  0  0
   10.8917  -15.4184   28.2947 C   0  0  0  0  0  0  0  0  0  0  0  0
    8.8148  -17.5840   26.2735 C   0  0  0  0  0  0  0  0  0  0  0  0
    7.9062  -16.8427   27.0128 O   0  0  0  0  0  0  0  0  0  0  0  0
    8.8199  -18.8337   26.5186 O   0  0  0  0  0  0  0  0  0  0  0  0
  2  1  1  6
  2  3  1  0
  3  4  1  0
  4  5  1  0
  5  6  2  0
  5  9  1  0
  7  8  2  0
  7  2  1  0
 10  7  1  0
 11 10  1  0
 11 12  1  1
 13 18  1  0
 13 12  1  0
 14 13  2  0
 15 16  2  0
 15 14  1  0
 16 17  1  0
 17 18  2  0
 19 21  1  0
 19 11  1  0
 20 19  2  0
 22 33  1  0
 22 21  1  0
 22 23  1  1
 24 32  1  0
 24 23  1  0
 25 24  2  0
 26 25  1  0
 26 27  1  0
 27 28  1  0
 27 32  2  0
 28 29  2  0
 29 30  1  0
 31 30  2  0
 32 31  1  0
 33 34  1  0
 35 33  2  0
M  END
$$$$
