EFW.pdb
     RDKit          3D

 35 37  0  0  1  0  0  0  0  0999 V2000
   10.1261  -16.3608   17.5916 N   0  0  0  0  0  0  0  0  0  0  0  0
   10.0344  -17.3824   18.6503 C   0  0  1  0  0  0  0  0  0  0  0  0
   11.2852  -18.1842   18.5761 C   0  0  0  0  0  0  0  0  0  0  0  0
   11.3797  -19.1642   17.4633 C   0  0  0  0  0  0  0  0  0  0  0  0
   12.1791  -18.5052   16.3673 C   0  0  0  0  0  0  0  0  0  0  0  0
   12.5227  -17.3048   16.4211 O   0  0  0  0  0  0  0  0  0  0  0  0
    9.9045  -16.7358   19.9758 C   0  0  0  0  0  0  0  0  0  0  0  0
   10.9181  -16.4051   20.6397 O   0  0  0  0  0  0  0  0  0  0  0  0
   12.5550  -19.2396   15.2555 O   0  0  0  0  0  0  0  0  0  0  0  0
    8.6512  -16.4491   20.5827 N   0  0  0  0  0  0  0  0  0  0  0  0
    8.5701  -15.8597   21.8898 C   0  0  1  0  0  0  0  0  0  0  0  0
    7.2228  -15.3139   22.1695 C   0  0  0  0  0  0  0  0  0  0  0  0
    7.0490  -14.5880   23.4201 C   0  0  0  0  0  0  0  0  0  0  0  0
    6.5749  -15.2040   24.5403 C   0  0  0  0  0  0  0  0  0  0  0  0
    6.3985  -14.5458   25.7565 C   0  0  0  0  0  0  0  0  0  0  0  0
    6.7213  -13.1938   25.8355 C   0  0  0  0  0  0  0  0  0  0  0  0
    7.2024  -12.5586   24.7070 C   0  0  0  0  0  0  0  0  0  0  0  0
    7.3708  -13.2336   23.5040 C   0  0  0  0  0  0  0  0  0  0  0  0
    9.0304  -16.7821   22.9627 C   0  0  0  0  0  0  0  0  0  0  0  0
    8.6465  -17.9830   22.8655 O   0  0  0  0  0  0  0  0  0  0  0  0
    9.8359  -16.4037   24.0374 N   0  0  0  0  0  0  0  0  0  0  0  0
   10.4063  -17.4223   24.9245 C   0  0  1  0  0  0  0  0  0  0  0  0
   11.4394  -16.8416   25.8120 C   0  0  0  0  0  0  0  0  0  0  0  0
   10.9633  -16.4234   27.1358 C   0  0  0  0  0  0  0  0  0  0  0  0
   10.8861  -17.2481   28.2644 C   0  0  0  0  0  0  0  0  0  0  0  0
   10.3675  -16.5270   29.2697 N   0  0  0  0  0  0  0  0  0  0  0  0
   10.1015  -15.2763   28.8641 C   0  0  0  0  0  0  0  0  0  0  0  0
    9.5892  -14.1727   29.5081 C   0  0  0  0  0  0  0  0  0  0  0  0
    9.4359  -12.9815   28.8476 C   0  0  0  0  0  0  0  0  0  0  0  0
    9.8020  -12.8995   27.5253 C   0  0  0  0  0  0  0  0  0  0  0  0
   10.3110  -13.9858   26.8733 C   0  0  0  0  0  0  0  0  0  0  0  0
   10.4628  -15.1937   27.5510 C   0  0  0  0  0  0  0  0  0  0  0  0
    9.3230  -18.1014   25.6311 C   0  0  0  0  0  0  0  0  0  0  0  0
    9.4314  -19.2954   26.3270 O   0  0  0  0  0  0  0  0  0  0  0  0
    8.1597  -17.5832   25.6241 O   0  0  0  0  0  0  0  0  0  0  0  0
  2  1  1  6
  2  3  1  0
  3  4  1  0
  4  5  1  0
  5  6  2  0
  5  9  1  0
  7  8  2  0
  7  2  1  0
 10  7  1  0
 11 10  1  0
 11 12  1  1
 13 18  1  0
 13 12  1  0
 14 13  2  0
 15 16  2  0
 15 14  1  0
 16 17  1  0
 17 18  2  0
 19 21  1  0
 19 11  1  0
 20 19  2  0
 22 33  1  0
 22 21  1  0
 22 23  1  1
 24 32  1  0
 24 23  1  0
 25 24  2  0
 26 25  1  0
 26 27  1  0
 27 28  1  0
 27 32  2  0
 28 29  2  0
 29 30  1  0
 31 30  2  0
 32 31  1  0
 33 34  1  0
 35 33  2  0
M  END
$$$$
