EFW.pdb
     RDKit          3D

 35 37  0  0  1  0  0  0  0  0999 V2000
    8.9719  -19.4206   18.0960 N   0  0  0  0  0  0  0  0  0  0  0  0
   10.2015  -18.6317   18.2923 C   0  0  1  0  0  0  0  0  0  0  0  0
   10.5018  -17.9820   16.9883 C   0  0  0  0  0  0  0  0  0  0  0  0
   10.3474  -18.8264   15.7754 C   0  0  0  0  0  0  0  0  0  0  0  0
   10.6842  -17.9558   14.5909 C   0  0  0  0  0  0  0  0  0  0  0  0
    9.8035  -17.4391   13.8704 O   0  0  0  0  0  0  0  0  0  0  0  0
    9.9945  -17.6153   19.3486 C   0  0  0  0  0  0  0  0  0  0  0  0
   10.8588  -16.7341   19.5810 O   0  0  0  0  0  0  0  0  0  0  0  0
   12.0094  -17.7087   14.2756 O   0  0  0  0  0  0  0  0  0  0  0  0
    8.8289  -17.5632   20.1612 N   0  0  0  0  0  0  0  0  0  0  0  0
    8.7411  -16.6765   21.2876 C   0  0  1  0  0  0  0  0  0  0  0  0
    7.4246  -16.0039   21.3625 C   0  0  0  0  0  0  0  0  0  0  0  0
    7.2574  -14.9887   22.3932 C   0  0  0  0  0  0  0  0  0  0  0  0
    7.5667  -13.6812   22.1608 C   0  0  0  0  0  0  0  0  0  0  0  0
    7.4168  -12.6796   23.1189 C   0  0  0  0  0  0  0  0  0  0  0  0
    6.9276  -13.0270   24.3752 C   0  0  0  0  0  0  0  0  0  0  0  0
    6.6109  -14.3487   24.6228 C   0  0  0  0  0  0  0  0  0  0  0  0
    6.7679  -15.3318   23.6533 C   0  0  0  0  0  0  0  0  0  0  0  0
    9.0992  -17.3425   22.5690 C   0  0  0  0  0  0  0  0  0  0  0  0
    8.1714  -17.9846   23.1398 O   0  0  0  0  0  0  0  0  0  0  0  0
   10.3639  -17.2956   23.1566 N   0  0  0  0  0  0  0  0  0  0  0  0
   10.5325  -16.7235   24.4962 C   0  0  1  0  0  0  0  0  0  0  0  0
    9.8355  -15.4226   24.6144 C   0  0  0  0  0  0  0  0  0  0  0  0
    9.8108  -14.8468   25.9642 C   0  0  0  0  0  0  0  0  0  0  0  0
   10.5642  -15.3044   27.0518 C   0  0  0  0  0  0  0  0  0  0  0  0
   10.2450  -14.5584   28.1200 N   0  0  0  0  0  0  0  0  0  0  0  0
    9.3260  -13.6373   27.7939 C   0  0  0  0  0  0  0  0  0  0  0  0
    8.6995  -12.6447   28.5133 C   0  0  0  0  0  0  0  0  0  0  0  0
    7.7931  -11.8083   27.9153 C   0  0  0  0  0  0  0  0  0  0  0  0
    7.5140  -11.9721   26.5794 C   0  0  0  0  0  0  0  0  0  0  0  0
    8.1270  -12.9525   25.8532 C   0  0  0  0  0  0  0  0  0  0  0  0
    9.0464  -13.7996   26.4683 C   0  0  0  0  0  0  0  0  0  0  0  0
   10.1277  -17.7124   25.4924 C   0  0  0  0  0  0  0  0  0  0  0  0
    9.6532  -18.9869   25.2240 O   0  0  0  0  0  0  0  0  0  0  0  0
   10.1973  -17.4101   26.7276 O   0  0  0  0  0  0  0  0  0  0  0  0
  2  1  1  6
  2  3  1  0
  3  4  1  0
  4  5  1  0
  5  6  2  0
  5  9  1  0
  7  8  2  0
  7  2  1  0
 10  7  1  0
 11 10  1  0
 11 12  1  1
 13 18  1  0
 13 12  1  0
 14 13  2  0
 15 16  2  0
 15 14  1  0
 16 17  1  0
 17 18  2  0
 19 21  1  0
 19 11  1  0
 20 19  2  0
 22 33  1  0
 22 21  1  0
 22 23  1  6
 24 32  1  0
 24 23  1  0
 25 24  2  0
 26 25  1  0
 26 27  1  0
 27 28  1  0
 27 32  2  0
 28 29  2  0
 29 30  1  0
 31 30  2  0
 32 31  1  0
 33 34  1  0
 35 33  2  0
M  END
$$$$
