RMS.pdb
     RDKit          3D

 26 25  0  0  1  0  0  0  0  0999 V2000
   13.0194  -13.7534  -14.5631 N   0  0  0  0  0  0  0  0  0  0  0  0
   13.5813  -15.0010  -14.9598 C   0  0  0  0  0  0  0  0  0  0  0  0
   12.8601  -16.0478  -15.1753 N   0  0  0  0  0  0  0  0  0  0  0  0
   14.9975  -15.1526  -15.1408 N   0  0  0  0  0  0  0  0  0  0  0  0
   15.8420  -13.9906  -15.0248 C   0  0  0  0  0  0  0  0  0  0  0  0
   16.4297  -13.6205  -16.3595 C   0  0  0  0  0  0  0  0  0  0  0  0
   17.2392  -12.3522  -16.2650 C   0  0  0  0  0  0  0  0  0  0  0  0
   18.7168  -12.6072  -16.3564 C   0  0  2  0  0  0  0  0  0  0  0  0
   19.0983  -13.9173  -15.9307 N   0  0  0  0  0  0  0  0  0  0  0  0
   19.4610  -11.5204  -15.6527 C   0  0  0  0  0  0  0  0  0  0  0  0
   18.9517  -11.1474  -14.5699 O   0  0  0  0  0  0  0  0  0  0  0  0
   13.2512  -16.9484  -15.4690 C   0  0  0  0  0  0  0  0  0  0  0  0
   26.4484   -9.9798  -16.0859 S   0  0  0  0  0  0  0  0  0  0  0  0
   25.4672  -10.3437  -14.6162 C   0  0  0  0  0  0  0  0  0  0  0  0
   23.8375   -9.5104  -14.7892 C   0  0  0  0  0  0  0  0  0  0  0  0
   22.9118  -10.5147  -15.3672 C   0  0  1  0  0  0  0  0  0  0  0  0
   21.5056  -10.0220  -15.6315 N   0  0  0  0  0  0  0  0  0  0  0  0
   20.6322  -10.9981  -16.2097 C   0  0  0  0  0  0  0  0  0  0  0  0
   21.5643   -8.7554  -16.3478 O   0  0  0  0  0  0  0  0  0  0  0  0
   22.0330   -8.7122  -17.5143 O   0  0  0  0  0  0  0  0  0  0  0  0
   19.5470   -5.3838  -15.0098 C   0  0  0  0  0  0  0  0  0  0  0  0
   19.7318   -5.5550  -16.3610 C   0  0  1  0  0  0  0  0  0  0  0  0
   21.0109   -6.3145  -16.6252 N   0  0  0  0  0  0  0  0  0  0  0  0
   21.1161   -7.5067  -15.8155 C   0  0  0  0  0  0  0  0  0  0  0  0
   22.1330   -5.4047  -16.3125 O   0  0  0  0  0  0  0  0  0  0  0  0
   22.2585   -4.2282  -17.0195 O   0  0  0  0  0  0  0  0  0  0  0  0
  2  3  2  0
  2  1  1  0
  4  2  1  0
  5  4  1  0
  6  5  1  0
  7  6  1  0
  7  8  1  0
  8  9  1  1
 10  8  1  0
 10 17  1  0
 11 10  2  0
 12 13  1  0
 14 13  1  0
 14 15  1  0
 16 15  1  1
 16 17  1  0
 18 16  1  0
 19 18  2  0
 20 21  1  0
 22 21  1  6
 22 24  1  0
 22 23  1  0
 23 18  1  0
 24 25  1  0
 26 24  2  0
M  END
$$$$
