RMS.pdb
     RDKit          3D

 26 25  0  0  1  0  0  0  0  0999 V2000
   30.0771  -21.7479  -19.2064 N   0  0  0  0  0  0  0  0  0  0  0  0
   29.3900  -20.5036  -19.3019 C   0  0  0  0  0  0  0  0  0  0  0  0
   29.8310  -19.5219  -20.0119 N   0  0  0  0  0  0  0  0  0  0  0  0
   28.1563  -20.2819  -18.6017 N   0  0  0  0  0  0  0  0  0  0  0  0
   27.4855  -21.4071  -18.0009 C   0  0  0  0  0  0  0  0  0  0  0  0
   28.2765  -21.9442  -16.8392 C   0  0  0  0  0  0  0  0  0  0  0  0
   27.3771  -22.2792  -15.6766 C   0  0  0  0  0  0  0  0  0  0  0  0
   27.1568  -21.1052  -14.7656 C   0  0  2  0  0  0  0  0  0  0  0  0
   28.3687  -20.5200  -14.2839 N   0  0  0  0  0  0  0  0  0  0  0  0
   26.2123  -21.4846  -13.6728 C   0  0  0  0  0  0  0  0  0  0  0  0
   25.1637  -22.0544  -14.0556 O   0  0  0  0  0  0  0  0  0  0  0  0
   29.3448  -18.6232  -20.0911 C   0  0  0  0  0  0  0  0  0  0  0  0
   27.7851  -20.8356   -7.1464 S   0  0  0  0  0  0  0  0  0  0  0  0
   26.3004  -19.8415   -7.3964 C   0  0  0  0  0  0  0  0  0  0  0  0
   25.3378  -20.5789   -8.7783 C   0  0  0  0  0  0  0  0  0  0  0  0
   26.2346  -20.5824   -9.9595 C   0  0  2  0  0  0  0  0  0  0  0  0
   25.6273  -21.1335  -11.2313 N   0  0  0  0  0  0  0  0  0  0  0  0
   26.5293  -21.1990  -12.3413 C   0  0  0  0  0  0  0  0  0  0  0  0
   24.3727  -20.4464  -11.5046 O   0  0  0  0  0  0  0  0  0  0  0  0
   24.3543  -19.1953  -11.6333 O   0  0  0  0  0  0  0  0  0  0  0  0
   21.5522  -22.0662  -13.7105 C   0  0  0  0  0  0  0  0  0  0  0  0
   21.5489  -20.7082  -13.4977 C   0  0  1  0  0  0  0  0  0  0  0  0
   21.9183  -20.3990  -12.0657 N   0  0  0  0  0  0  0  0  0  0  0  0
   23.1093  -21.1005  -11.6446 C   0  0  0  0  0  0  0  0  0  0  0  0
   20.7778  -20.8109  -11.2205 O   0  0  0  0  0  0  0  0  0  0  0  0
   19.5474  -20.2237  -11.4230 O   0  0  0  0  0  0  0  0  0  0  0  0
  2  3  2  0
  2  1  1  0
  4  2  1  0
  5  4  1  0
  6  5  1  0
  7  6  1  0
  7  8  1  0
  8  9  1  1
 10  8  1  0
 10 17  1  0
 11 10  2  0
 12 13  1  0
 14 13  1  0
 14 15  1  0
 16 15  1  1
 16 17  1  0
 18 16  1  0
 19 18  2  0
 20 21  1  0
 22 21  1  6
 22 24  1  0
 22 23  1  0
 23 18  1  0
 24 25  1  0
 26 24  2  0
M  END
$$$$
