RMS.pdb
     RDKit          3D

 26 25  0  0  1  0  0  0  0  0999 V2000
   18.3256  -27.5104   -9.7858 N   0  0  0  0  0  0  0  0  0  0  0  0
   17.9654  -26.5213   -8.8259 C   0  0  0  0  0  0  0  0  0  0  0  0
   17.1514  -26.7623   -7.8556 N   0  0  0  0  0  0  0  0  0  0  0  0
   18.5002  -25.1906   -8.8956 N   0  0  0  0  0  0  0  0  0  0  0  0
   17.8338  -24.2153   -9.7210 C   0  0  0  0  0  0  0  0  0  0  0  0
   17.9918  -24.5502  -11.1793 C   0  0  0  0  0  0  0  0  0  0  0  0
   19.3974  -24.2774  -11.6513 C   0  0  0  0  0  0  0  0  0  0  0  0
   19.7601  -22.8224  -11.5606 C   0  0  2  0  0  0  0  0  0  0  0  0
   18.6272  -21.9511  -11.5383 N   0  0  0  0  0  0  0  0  0  0  0  0
   20.7442  -22.4800  -12.6305 C   0  0  0  0  0  0  0  0  0  0  0  0
   21.6627  -23.3175  -12.7905 O   0  0  0  0  0  0  0  0  0  0  0  0
   16.8540  -26.0495   -7.1819 C   0  0  0  0  0  0  0  0  0  0  0  0
   18.1502  -18.5618  -16.7496 S   0  0  0  0  0  0  0  0  0  0  0  0
   19.8062  -18.5652  -17.4657 C   0  0  0  0  0  0  0  0  0  0  0  0
   20.7438  -19.9729  -16.7452 C   0  0  0  0  0  0  0  0  0  0  0  0
   20.7913  -19.7402  -15.2812 C   0  0  2  0  0  0  0  0  0  0  0  0
   21.4006  -20.8610  -14.4673 N   0  0  0  0  0  0  0  0  0  0  0  0
   20.5990  -21.2992  -13.3648 C   0  0  0  0  0  0  0  0  0  0  0  0
   22.7738  -20.5177  -14.1246 O   0  0  0  0  0  0  0  0  0  0  0  0
   23.0131  -19.8143  -13.1097 O   0  0  0  0  0  0  0  0  0  0  0  0
   27.3612  -21.4149  -13.7643 C   0  0  0  0  0  0  0  0  0  0  0  0
   26.1223  -21.7926  -14.2247 C   0  0  2  0  0  0  0  0  0  0  0  0
   25.2651  -20.5763  -14.4866 N   0  0  0  0  0  0  0  0  0  0  0  0
   23.9189  -20.9295  -14.8748 C   0  0  0  0  0  0  0  0  0  0  0  0
   25.9090  -19.8131  -15.5763 O   0  0  0  0  0  0  0  0  0  0  0  0
   27.1756  -19.3057  -15.3812 O   0  0  0  0  0  0  0  0  0  0  0  0
  2  3  2  0
  2  1  1  0
  4  2  1  0
  5  4  1  0
  6  5  1  0
  7  6  1  0
  7  8  1  0
  8  9  1  6
 10  8  1  0
 10 17  1  0
 11 10  2  0
 12 13  1  0
 14 13  1  0
 14 15  1  0
 16 15  1  6
 16 17  1  0
 18 16  1  0
 19 18  2  0
 20 21  1  0
 22 21  1  1
 22 24  1  0
 22 23  1  0
 23 18  1  0
 24 25  1  0
 26 24  2  0
M  END
$$$$
