RMS.pdb
     RDKit          3D

 26 25  0  0  1  0  0  0  0  0999 V2000
   26.7469  -21.0028  -12.3852 N   0  0  0  0  0  0  0  0  0  0  0  0
   25.8355  -21.1165  -11.2962 C   0  0  0  0  0  0  0  0  0  0  0  0
   26.1915  -20.9225  -10.0723 N   0  0  0  0  0  0  0  0  0  0  0  0
   24.4580  -21.4574  -11.5144 N   0  0  0  0  0  0  0  0  0  0  0  0
   23.9507  -21.4743  -12.8632 C   0  0  0  0  0  0  0  0  0  0  0  0
   23.3003  -20.1619  -13.2071 C   0  0  0  0  0  0  0  0  0  0  0  0
   22.8006  -20.1582  -14.6295 C   0  0  0  0  0  0  0  0  0  0  0  0
   23.7955  -19.5633  -15.5849 C   0  0  2  0  0  0  0  0  0  0  0  0
   25.0149  -20.3037  -15.6750 N   0  0  0  0  0  0  0  0  0  0  0  0
   24.0062  -18.1208  -15.2608 C   0  0  0  0  0  0  0  0  0  0  0  0
   24.9026  -17.8954  -14.4144 O   0  0  0  0  0  0  0  0  0  0  0  0
   25.5298  -20.9125   -9.2898 C   0  0  0  0  0  0  0  0  0  0  0  0
   27.3690  -14.8835  -17.4641 S   0  0  0  0  0  0  0  0  0  0  0  0
   27.2347  -14.1882  -15.8048 C   0  0  0  0  0  0  0  0  0  0  0  0
   25.6197  -14.7022  -15.0924 C   0  0  0  0  0  0  0  0  0  0  0  0
   24.8322  -15.2778  -16.2097 C   0  0  2  0  0  0  0  0  0  0  0  0
   23.4312  -15.7236  -15.8515 N   0  0  0  0  0  0  0  0  0  0  0  0
   23.2305  -17.1408  -15.8874 C   0  0  0  0  0  0  0  0  0  0  0  0
   22.4667  -14.9511  -16.6222 O   0  0  0  0  0  0  0  0  0  0  0  0
   22.4835  -14.9963  -17.8792 O   0  0  0  0  0  0  0  0  0  0  0  0
   19.9680  -12.1567  -14.9073 C   0  0  0  0  0  0  0  0  0  0  0  0
   19.4152  -12.7588  -16.0125 C   0  0  1  0  0  0  0  0  0  0  0  0
   20.4911  -13.4068  -16.8522 N   0  0  0  0  0  0  0  0  0  0  0  0
   21.4620  -14.1122  -16.0475 C   0  0  0  0  0  0  0  0  0  0  0  0
   21.1650  -12.3298  -17.6077 O   0  0  0  0  0  0  0  0  0  0  0  0
   20.4552  -11.6384  -18.5658 O   0  0  0  0  0  0  0  0  0  0  0  0
  2  3  2  0
  2  1  1  0
  4  2  1  0
  5  4  1  0
  6  5  1  0
  7  6  1  0
  7  8  1  0
  8  9  1  1
 10  8  1  0
 10 17  1  0
 11 10  2  0
 12 13  1  0
 14 13  1  0
 14 15  1  0
 16 15  1  1
 16 17  1  0
 18 16  1  0
 19 18  2  0
 20 21  1  0
 22 21  1  6
 22 24  1  0
 22 23  1  0
 23 18  1  0
 24 25  1  0
 26 24  2  0
M  END
$$$$
