RMS.pdb
     RDKit          3D

 26 25  0  0  1  0  0  0  0  0999 V2000
   23.4149  -20.8190  -16.6956 N   0  0  0  0  0  0  0  0  0  0  0  0
   24.3662  -21.8211  -17.0425 C   0  0  0  0  0  0  0  0  0  0  0  0
   24.7381  -22.0312  -18.2590 N   0  0  0  0  0  0  0  0  0  0  0  0
   24.9638  -22.6557  -16.0386 N   0  0  0  0  0  0  0  0  0  0  0  0
   24.6917  -22.3782  -14.6509 C   0  0  0  0  0  0  0  0  0  0  0  0
   24.9287  -20.9255  -14.3389 C   0  0  0  0  0  0  0  0  0  0  0  0
   24.5843  -20.6135  -12.9048 C   0  0  0  0  0  0  0  0  0  0  0  0
   25.8025  -20.3392  -12.0694 C   0  0  2  0  0  0  0  0  0  0  0  0
   27.0306  -20.6592  -12.7272 N   0  0  0  0  0  0  0  0  0  0  0  0
   25.6598  -20.9988  -10.7372 C   0  0  0  0  0  0  0  0  0  0  0  0
   25.6068  -22.2505  -10.7708 O   0  0  0  0  0  0  0  0  0  0  0  0
   25.4319  -22.7390  -18.5199 C   0  0  0  0  0  0  0  0  0  0  0  0
   27.7789  -19.0359   -4.3150 S   0  0  0  0  0  0  0  0  0  0  0  0
   28.1207  -18.5876   -6.0288 C   0  0  0  0  0  0  0  0  0  0  0  0
   27.5406  -19.9564   -7.1104 C   0  0  0  0  0  0  0  0  0  0  0  0
   26.0629  -19.8460   -7.1710 C   0  0  2  0  0  0  0  0  0  0  0  0
   25.3942  -20.6886   -8.2353 N   0  0  0  0  0  0  0  0  0  0  0  0
   25.5955  -20.2245   -9.5748 C   0  0  0  0  0  0  0  0  0  0  0  0
   24.0023  -20.9128   -7.8701 O   0  0  0  0  0  0  0  0  0  0  0  0
   23.1304  -20.0507   -8.1508 O   0  0  0  0  0  0  0  0  0  0  0  0
   20.5096  -23.8626   -6.1791 C   0  0  0  0  0  0  0  0  0  0  0  0
   21.8614  -23.6364   -6.2834 C   0  0  2  0  0  0  0  0  0  0  0  0
   22.1221  -22.2888   -6.9150 N   0  0  0  0  0  0  0  0  0  0  0  0
   23.5243  -22.0770   -7.1921 C   0  0  0  0  0  0  0  0  0  0  0  0
   21.6455  -21.2607   -5.9660 O   0  0  0  0  0  0  0  0  0  0  0  0
   20.3140  -20.9045   -5.9773 O   0  0  0  0  0  0  0  0  0  0  0  0
  2  3  2  0
  2  1  1  0
  4  2  1  0
  5  4  1  0
  6  5  1  0
  7  6  1  0
  7  8  1  0
  8  9  1  6
 10  8  1  0
 10 17  1  0
 11 10  2  0
 12 13  1  0
 14 13  1  0
 14 15  1  0
 16 15  1  6
 16 17  1  0
 18 16  1  0
 19 18  2  0
 20 21  1  0
 22 21  1  6
 22 24  1  0
 22 23  1  0
 23 18  1  0
 24 25  1  0
 26 24  2  0
M  END
$$$$
