RMS.pdb
     RDKit          3D

 26 25  0  0  1  0  0  0  0  0999 V2000
   30.9602  -22.3801  -18.9705 N   0  0  0  0  0  0  0  0  0  0  0  0
   30.5255  -23.6088  -18.3953 C   0  0  0  0  0  0  0  0  0  0  0  0
   31.2428  -24.6797  -18.4261 N   0  0  0  0  0  0  0  0  0  0  0  0
   29.2497  -23.7129  -17.7450 N   0  0  0  0  0  0  0  0  0  0  0  0
   28.5245  -22.5059  -17.4383 C   0  0  0  0  0  0  0  0  0  0  0  0
   29.1274  -21.8063  -16.2505 C   0  0  0  0  0  0  0  0  0  0  0  0
   28.2727  -21.9853  -15.0217 C   0  0  0  0  0  0  0  0  0  0  0  0
   27.0825  -21.0687  -15.0129 C   0  0  2  0  0  0  0  0  0  0  0  0
   27.4263  -19.6864  -14.8930 N   0  0  0  0  0  0  0  0  0  0  0  0
   26.1034  -21.5227  -13.9806 C   0  0  0  0  0  0  0  0  0  0  0  0
   25.8173  -22.7421  -14.0246 O   0  0  0  0  0  0  0  0  0  0  0  0
   30.9342  -25.5739  -18.0318 C   0  0  0  0  0  0  0  0  0  0  0  0
   25.1109  -20.6193   -7.3853 S   0  0  0  0  0  0  0  0  0  0  0  0
   26.3953  -19.9505   -8.4615 C   0  0  0  0  0  0  0  0  0  0  0  0
   26.2440  -20.7529  -10.1086 C   0  0  0  0  0  0  0  0  0  0  0  0
   24.9571  -20.2915  -10.6837 C   0  0  2  0  0  0  0  0  0  0  0  0
   24.6106  -20.8676  -12.0394 N   0  0  0  0  0  0  0  0  0  0  0  0
   25.5799  -20.6090  -13.0609 C   0  0  0  0  0  0  0  0  0  0  0  0
   23.2452  -20.4983  -12.3864 O   0  0  0  0  0  0  0  0  0  0  0  0
   22.9130  -19.2861  -12.4344 O   0  0  0  0  0  0  0  0  0  0  0  0
   20.4763  -23.3208  -13.6497 C   0  0  0  0  0  0  0  0  0  0  0  0
   20.3815  -22.0654  -14.2014 C   0  0  1  0  0  0  0  0  0  0  0  0
   20.9419  -21.0306  -13.2538 N   0  0  0  0  0  0  0  0  0  0  0  0
   22.2090  -21.4353  -12.6895 C   0  0  0  0  0  0  0  0  0  0  0  0
   19.9539  -20.8489  -12.1696 O   0  0  0  0  0  0  0  0  0  0  0  0
   18.6944  -20.3843  -12.4819 O   0  0  0  0  0  0  0  0  0  0  0  0
  2  3  2  0
  2  1  1  0
  4  2  1  0
  5  4  1  0
  6  5  1  0
  7  6  1  0
  7  8  1  0
  8  9  1  1
 10  8  1  0
 10 17  1  0
 11 10  2  0
 12 13  1  0
 14 13  1  0
 14 15  1  0
 16 15  1  1
 16 17  1  0
 18 16  1  0
 19 18  2  0
 20 21  1  0
 22 21  1  6
 22 24  1  0
 22 23  1  0
 23 18  1  0
 24 25  1  0
 26 24  2  0
M  END
$$$$
