RMS.pdb
     RDKit          3D

 26 25  0  0  1  0  0  0  0  0999 V2000
   17.9633  -24.4249  -11.8223 N   0  0  0  0  0  0  0  0  0  0  0  0
   17.7654  -23.0166  -11.9066 C   0  0  0  0  0  0  0  0  0  0  0  0
   17.0931  -22.3580  -11.0253 N   0  0  0  0  0  0  0  0  0  0  0  0
   18.3137  -22.2542  -12.9927 N   0  0  0  0  0  0  0  0  0  0  0  0
   19.0718  -22.9381  -14.0097 C   0  0  0  0  0  0  0  0  0  0  0  0
   20.4907  -23.1603  -13.5612 C   0  0  0  0  0  0  0  0  0  0  0  0
   21.4257  -22.1649  -14.1998 C   0  0  0  0  0  0  0  0  0  0  0  0
   21.3461  -20.8096  -13.5566 C   0  0  2  0  0  0  0  0  0  0  0  0
   20.5109  -19.8896  -14.2632 N   0  0  0  0  0  0  0  0  0  0  0  0
   22.7229  -20.2853  -13.3122 C   0  0  0  0  0  0  0  0  0  0  0  0
   23.0983  -19.3951  -14.1105 O   0  0  0  0  0  0  0  0  0  0  0  0
   16.9419  -21.3457  -11.0756 C   0  0  0  0  0  0  0  0  0  0  0  0
   28.4785  -20.0554   -7.9474 S   0  0  0  0  0  0  0  0  0  0  0  0
   26.8079  -20.5423   -8.4238 C   0  0  0  0  0  0  0  0  0  0  0  0
   26.7244  -20.5986  -10.2595 C   0  0  0  0  0  0  0  0  0  0  0  0
   25.3281  -20.9597  -10.6053 C   0  0  2  0  0  0  0  0  0  0  0  0
   24.8643  -20.5127  -11.9746 N   0  0  0  0  0  0  0  0  0  0  0  0
   23.4880  -20.7895  -12.2561 C   0  0  0  0  0  0  0  0  0  0  0  0
   25.8011  -20.9911  -12.9818 O   0  0  0  0  0  0  0  0  0  0  0  0
   25.8729  -22.2195  -13.2427 O   0  0  0  0  0  0  0  0  0  0  0  0
   27.3942  -18.2637  -15.2950 C   0  0  0  0  0  0  0  0  0  0  0  0
   27.9087  -19.4584  -15.7390 C   0  0  2  0  0  0  0  0  0  0  0  0
   27.3623  -20.6038  -14.9191 N   0  0  0  0  0  0  0  0  0  0  0  0
   26.6813  -20.1483  -13.7290 C   0  0  0  0  0  0  0  0  0  0  0  0
   28.5088  -21.4548  -14.5369 O   0  0  0  0  0  0  0  0  0  0  0  0
   29.2485  -22.0663  -15.5262 O   0  0  0  0  0  0  0  0  0  0  0  0
  2  3  2  0
  2  1  1  0
  4  2  1  0
  5  4  1  0
  6  5  1  0
  7  6  1  0
  7  8  1  0
  8  9  1  6
 10  8  1  0
 10 17  1  0
 11 10  2  0
 12 13  1  0
 14 13  1  0
 14 15  1  0
 16 15  1  1
 16 17  1  0
 18 16  1  0
 19 18  2  0
 20 21  1  0
 22 21  1  6
 22 24  1  0
 22 23  1  0
 23 18  1  0
 24 25  1  0
 26 24  2  0
M  END
$$$$
