RMS.pdb
     RDKit          3D

 26 25  0  0  1  0  0  0  0  0999 V2000
   17.3506  -23.5723  -10.1697 N   0  0  0  0  0  0  0  0  0  0  0  0
   16.6463  -23.0687  -11.3010 C   0  0  0  0  0  0  0  0  0  0  0  0
   15.3607  -22.9754  -11.3309 N   0  0  0  0  0  0  0  0  0  0  0  0
   17.3458  -22.6351  -12.4775 N   0  0  0  0  0  0  0  0  0  0  0  0
   18.5247  -23.3538  -12.8905 C   0  0  0  0  0  0  0  0  0  0  0  0
   19.7397  -22.4682  -12.8318 C   0  0  0  0  0  0  0  0  0  0  0  0
   19.6146  -21.3085  -13.7868 C   0  0  0  0  0  0  0  0  0  0  0  0
   20.7707  -21.2260  -14.7426 C   0  0  2  0  0  0  0  0  0  0  0  0
   21.2275  -22.5014  -15.1987 N   0  0  0  0  0  0  0  0  0  0  0  0
   21.8569  -20.3899  -14.1499 C   0  0  0  0  0  0  0  0  0  0  0  0
   21.5204  -19.2194  -13.8542 O   0  0  0  0  0  0  0  0  0  0  0  0
   14.8388  -22.6722  -12.1591 C   0  0  0  0  0  0  0  0  0  0  0  0
   26.9149  -21.3639  -10.2606 S   0  0  0  0  0  0  0  0  0  0  0  0
   25.2188  -21.1765   -9.6748 C   0  0  0  0  0  0  0  0  0  0  0  0
   24.2064  -20.4908  -11.0477 C   0  0  0  0  0  0  0  0  0  0  0  0
   24.9598  -20.7553  -12.2975 C   0  0  2  0  0  0  0  0  0  0  0  0
   24.3179  -20.2303  -13.5634 N   0  0  0  0  0  0  0  0  0  0  0  0
   23.1336  -20.9285  -13.9634 C   0  0  0  0  0  0  0  0  0  0  0  0
   25.3311  -20.1031  -14.6017 O   0  0  0  0  0  0  0  0  0  0  0  0
   25.4089  -20.9641  -15.5153 O   0  0  0  0  0  0  0  0  0  0  0  0
   28.9398  -20.0381  -16.9690 C   0  0  0  0  0  0  0  0  0  0  0  0
   28.0659  -20.1776  -15.9172 C   0  0  1  0  0  0  0  0  0  0  0  0
   27.2361  -18.9257  -15.7531 N   0  0  0  0  0  0  0  0  0  0  0  0
   26.2832  -19.0391  -14.6729 C   0  0  0  0  0  0  0  0  0  0  0  0
   26.5165  -18.7072  -17.0256 O   0  0  0  0  0  0  0  0  0  0  0  0
   27.2375  -18.3935  -18.1576 O   0  0  0  0  0  0  0  0  0  0  0  0
  2  3  2  0
  2  1  1  0
  4  2  1  0
  5  4  1  0
  6  5  1  0
  7  6  1  0
  7  8  1  0
  8  9  1  1
 10  8  1  0
 10 17  1  0
 11 10  2  0
 12 13  1  0
 14 13  1  0
 14 15  1  0
 16 15  1  1
 16 17  1  0
 18 16  1  0
 19 18  2  0
 20 21  1  0
 22 21  1  1
 22 24  1  0
 22 23  1  0
 23 18  1  0
 24 25  1  0
 26 24  2  0
M  END
$$$$
