RMS.pdb
     RDKit          3D

 26 25  0  0  1  0  0  0  0  0999 V2000
   28.2521  -14.0671  -18.3170 N   0  0  0  0  0  0  0  0  0  0  0  0
   28.7605  -15.2228  -18.9767 C   0  0  0  0  0  0  0  0  0  0  0  0
   29.4677  -15.1511  -20.0524 N   0  0  0  0  0  0  0  0  0  0  0  0
   28.5052  -16.5405  -18.4667 N   0  0  0  0  0  0  0  0  0  0  0  0
   27.4479  -16.7212  -17.5042 C   0  0  0  0  0  0  0  0  0  0  0  0
   28.0001  -16.7718  -16.1055 C   0  0  0  0  0  0  0  0  0  0  0  0
   27.8817  -18.1574  -15.5234 C   0  0  0  0  0  0  0  0  0  0  0  0
   26.5354  -18.7732  -15.7787 C   0  0  2  0  0  0  0  0  0  0  0  0
   25.4872  -17.8133  -15.9307 N   0  0  0  0  0  0  0  0  0  0  0  0
   26.2445  -19.8010  -14.7350 C   0  0  0  0  0  0  0  0  0  0  0  0
   27.1636  -20.6305  -14.5403 O   0  0  0  0  0  0  0  0  0  0  0  0
   29.7297  -15.9715  -20.6079 C   0  0  0  0  0  0  0  0  0  0  0  0
   24.9640  -21.2471   -8.3946 S   0  0  0  0  0  0  0  0  0  0  0  0
   25.7196  -19.8813   -9.2993 C   0  0  0  0  0  0  0  0  0  0  0  0
   25.9367  -20.3985  -11.0501 C   0  0  0  0  0  0  0  0  0  0  0  0
   24.5953  -20.3261  -11.6786 C   0  0  2  0  0  0  0  0  0  0  0  0
   24.5351  -20.7597  -13.1271 N   0  0  0  0  0  0  0  0  0  0  0  0
   25.0203  -19.7876  -14.0596 C   0  0  0  0  0  0  0  0  0  0  0  0
   23.2061  -21.2773  -13.4216 O   0  0  0  0  0  0  0  0  0  0  0  0
   22.2419  -20.4849  -13.5794 O   0  0  0  0  0  0  0  0  0  0  0  0
   22.2040  -25.3055  -13.2385 C   0  0  0  0  0  0  0  0  0  0  0  0
   21.5588  -24.6101  -14.2332 C   0  0  1  0  0  0  0  0  0  0  0  0
   21.5790  -23.1286  -13.9376 N   0  0  0  0  0  0  0  0  0  0  0  0
   22.8923  -22.6658  -13.5517 C   0  0  0  0  0  0  0  0  0  0  0  0
   20.6267  -22.8893  -12.8328 O   0  0  0  0  0  0  0  0  0  0  0  0
   21.0977  -22.3842  -11.6400 O   0  0  0  0  0  0  0  0  0  0  0  0
  2  3  2  0
  2  1  1  0
  4  2  1  0
  5  4  1  0
  6  5  1  0
  7  6  1  0
  7  8  1  0
  8  9  1  1
 10  8  1  0
 10 17  1  0
 11 10  2  0
 12 13  1  0
 14 13  1  0
 14 15  1  0
 16 15  1  1
 16 17  1  0
 18 16  1  0
 19 18  2  0
 20 21  1  0
 22 21  1  6
 22 24  1  0
 22 23  1  0
 23 18  1  0
 24 25  1  0
 26 24  2  0
M  END
$$$$
