RMS.pdb
     RDKit          3D

 26 25  0  0  1  0  0  0  0  0999 V2000
   19.0732  -22.4530   -9.9779 N   0  0  0  0  0  0  0  0  0  0  0  0
   19.4114  -22.8381  -11.3071 C   0  0  0  0  0  0  0  0  0  0  0  0
   19.8390  -21.9956  -12.1844 N   0  0  0  0  0  0  0  0  0  0  0  0
   19.2900  -24.2024  -11.7377 N   0  0  0  0  0  0  0  0  0  0  0  0
   18.8841  -25.2005  -10.7806 C   0  0  0  0  0  0  0  0  0  0  0  0
   18.0304  -24.5918   -9.7015 C   0  0  0  0  0  0  0  0  0  0  0  0
   17.3671  -25.6572   -8.8663 C   0  0  0  0  0  0  0  0  0  0  0  0
   18.3493  -26.4162   -8.0200 C   0  0  2  0  0  0  0  0  0  0  0  0
   18.9217  -27.5459   -8.6827 N   0  0  0  0  0  0  0  0  0  0  0  0
   17.7254  -26.7586   -6.7071 C   0  0  0  0  0  0  0  0  0  0  0  0
   17.0621  -27.8219   -6.6991 O   0  0  0  0  0  0  0  0  0  0  0  0
   20.0621  -22.2552  -13.1503 C   0  0  0  0  0  0  0  0  0  0  0  0
   20.6307  -29.3283   -1.6049 S   0  0  0  0  0  0  0  0  0  0  0  0
   19.8324  -27.7110   -1.6527 C   0  0  0  0  0  0  0  0  0  0  0  0
   18.7757  -27.6330   -3.1551 C   0  0  0  0  0  0  0  0  0  0  0  0
   18.1640  -26.2820   -3.1683 C   0  0  2  0  0  0  0  0  0  0  0  0
   17.2448  -25.9993   -4.3367 N   0  0  0  0  0  0  0  0  0  0  0  0
   17.9036  -25.9165   -5.6053 C   0  0  0  0  0  0  0  0  0  0  0  0
   16.3925  -24.8626   -4.0167 O   0  0  0  0  0  0  0  0  0  0  0  0
   16.7923  -23.6916   -4.2427 O   0  0  0  0  0  0  0  0  0  0  0  0
   12.6374  -25.3211   -2.3381 C   0  0  0  0  0  0  0  0  0  0  0  0
   12.7978  -24.1686   -3.0697 C   0  0  1  0  0  0  0  0  0  0  0  0
   14.2624  -23.8137   -3.1780 N   0  0  0  0  0  0  0  0  0  0  0  0
   15.0870  -24.9699   -3.4443 C   0  0  0  0  0  0  0  0  0  0  0  0
   14.6626  -23.2077   -1.8905 O   0  0  0  0  0  0  0  0  0  0  0  0
   14.0702  -22.0287   -1.4922 O   0  0  0  0  0  0  0  0  0  0  0  0
  2  3  2  0
  2  1  1  0
  4  2  1  0
  5  4  1  0
  6  5  1  0
  7  6  1  0
  7  8  1  0
  8  9  1  6
 10  8  1  0
 10 17  1  0
 11 10  2  0
 12 13  1  0
 14 13  1  0
 14 15  1  0
 16 15  1  6
 16 17  1  0
 18 16  1  0
 19 18  2  0
 20 21  1  0
 22 21  1  6
 22 24  1  0
 22 23  1  0
 23 18  1  0
 24 25  1  0
 26 24  2  0
M  END
$$$$
