VAC.pdb
     RDKit          3D

 19 18  0  0  1  0  0  0  0  0999 V2000
    7.9696  -12.9838   18.5928 C   0  0  0  0  0  0  0  0  0  0  0  0
    7.7032  -13.4984   19.9897 C   0  0  2  0  0  0  0  0  0  0  0  0
    8.5920  -12.7490   20.9777 C   0  0  0  0  0  0  0  0  0  0  0  0
    8.0083  -14.9638   20.1280 C   0  0  2  0  0  0  0  0  0  0  0  0
    7.2825  -15.7869   19.2158 N   0  0  0  0  0  0  0  0  0  0  0  0
    7.6870  -15.3781   21.5164 C   0  0  0  0  0  0  0  0  0  0  0  0
    6.4776  -15.3890   21.9346 O   0  0  0  0  0  0  0  0  0  0  0  0
    9.1707  -17.3790   24.1864 C   0  0  0  0  0  0  0  0  0  0  0  0
    8.4498  -16.1191   23.7593 C   0  0  2  0  0  0  0  0  0  0  0  0
    8.7270  -15.7683   22.3980 N   0  0  0  0  0  0  0  0  0  0  0  0
    8.8221  -15.0613   24.7189 C   0  0  0  0  0  0  0  0  0  0  0  0
    9.9572  -14.5533   24.6374 O   0  0  0  0  0  0  0  0  0  0  0  0
    7.9318  -14.6157   25.7168 N   0  0  0  0  0  0  0  0  0  0  0  0
    8.2653  -13.5983   26.6908 C   0  0  1  0  0  0  0  0  0  0  0  0
    7.0186  -12.9086   27.2075 C   0  0  0  0  0  0  0  0  0  0  0  0
    6.0541  -12.1936   25.8723 S   0  0  0  0  0  0  0  0  0  0  0  0
    8.9960  -14.2314   27.8114 C   0  0  0  0  0  0  0  0  0  0  0  0
    9.4767  -13.5643   28.7636 O   0  0  0  0  0  0  0  0  0  0  0  0
    9.1760  -15.6057   27.8459 O   0  0  0  0  0  0  0  0  0  0  0  0
  2  1  1  6
  2  4  1  0
  3  2  1  0
  4  6  1  0
  4  5  1  6
  6  7  2  0
  9  8  1  1
 10  9  1  0
 10  6  1  0
 11 12  2  0
 11  9  1  0
 13 11  1  0
 14 13  1  0
 14 15  1  1
 16 15  1  0
 17 19  1  0
 17 14  1  0
 18 17  2  0
M  END
$$$$
