VAC.pdb
     RDKit          3D

 19 18  0  0  1  0  0  0  0  0999 V2000
    7.9352  -13.0517   18.6371 C   0  0  0  0  0  0  0  0  0  0  0  0
    7.7598  -13.5257   20.0625 C   0  0  2  0  0  0  0  0  0  0  0  0
    8.6870  -12.7273   20.9737 C   0  0  0  0  0  0  0  0  0  0  0  0
    8.1036  -14.9796   20.2289 C   0  0  2  0  0  0  0  0  0  0  0  0
    7.3919  -15.8401   19.3404 N   0  0  0  0  0  0  0  0  0  0  0  0
    7.8042  -15.3724   21.6284 C   0  0  0  0  0  0  0  0  0  0  0  0
    6.5970  -15.5372   22.0196 O   0  0  0  0  0  0  0  0  0  0  0  0
    9.2923  -17.3494   24.1752 C   0  0  0  0  0  0  0  0  0  0  0  0
    8.6070  -16.0325   23.8826 C   0  0  2  0  0  0  0  0  0  0  0  0
    8.8630  -15.5699   22.5509 N   0  0  0  0  0  0  0  0  0  0  0  0
    9.0409  -15.0787   24.9221 C   0  0  0  0  0  0  0  0  0  0  0  0
   10.1938  -14.6098   24.8589 O   0  0  0  0  0  0  0  0  0  0  0  0
    8.1894  -14.6889   25.9756 N   0  0  0  0  0  0  0  0  0  0  0  0
    8.5427  -13.6916   26.9632 C   0  0  1  0  0  0  0  0  0  0  0  0
    7.3049  -13.0458   27.5530 C   0  0  0  0  0  0  0  0  0  0  0  0
    6.2667  -12.3175   26.2817 S   0  0  0  0  0  0  0  0  0  0  0  0
    9.3357  -14.3383   28.0325 C   0  0  0  0  0  0  0  0  0  0  0  0
    9.5111  -15.5832   28.0809 O   0  0  0  0  0  0  0  0  0  0  0  0
    9.9203  -13.5765   29.0325 O   0  0  0  0  0  0  0  0  0  0  0  0
  2  1  1  6
  2  4  1  0
  3  2  1  0
  4  6  1  0
  4  5  1  6
  6  7  2  0
  9  8  1  1
 10  9  1  0
 10  6  1  0
 11 12  2  0
 11  9  1  0
 13 11  1  0
 14 13  1  0
 14 15  1  1
 16 15  1  0
 17 19  1  0
 17 14  1  0
 18 17  2  0
M  END
$$$$
