VAC.pdb
     RDKit          3D

 19 18  0  0  1  0  0  0  0  0999 V2000
    5.7346  -11.0359   26.1382 C   0  0  0  0  0  0  0  0  0  0  0  0
    6.7083  -12.1668   25.8929 C   0  0  2  0  0  0  0  0  0  0  0  0
    7.5406  -11.8515   24.6538 C   0  0  0  0  0  0  0  0  0  0  0  0
    6.0140  -13.4778   25.6501 C   0  0  2  0  0  0  0  0  0  0  0  0
    5.0477  -13.8056   26.6477 N   0  0  0  0  0  0  0  0  0  0  0  0
    7.0415  -14.5474   25.5999 C   0  0  0  0  0  0  0  0  0  0  0  0
    7.4839  -15.0832   26.6747 O   0  0  0  0  0  0  0  0  0  0  0  0
    8.8907  -16.3709   22.8441 C   0  0  0  0  0  0  0  0  0  0  0  0
    8.4734  -16.0766   24.2683 C   0  0  2  0  0  0  0  0  0  0  0  0
    7.5455  -14.9878   24.3497 N   0  0  0  0  0  0  0  0  0  0  0  0
    9.7089  -15.8454   25.0421 C   0  0  0  0  0  0  0  0  0  0  0  0
   10.5980  -15.1259   24.5471 O   0  0  0  0  0  0  0  0  0  0  0  0
    9.9054  -16.4143   26.3168 N   0  0  0  0  0  0  0  0  0  0  0  0
   11.1005  -16.2124   27.1079 C   0  0  1  0  0  0  0  0  0  0  0  0
   10.8018  -15.3935   28.3477 C   0  0  0  0  0  0  0  0  0  0  0  0
    9.8828  -13.9023   27.9524 S   0  0  0  0  0  0  0  0  0  0  0  0
   11.6475  -17.5329   27.4920 C   0  0  0  0  0  0  0  0  0  0  0  0
   11.0733  -18.6118   27.1938 O   0  0  0  0  0  0  0  0  0  0  0  0
   12.8325  -17.6219   28.2061 O   0  0  0  0  0  0  0  0  0  0  0  0
  2  1  1  6
  2  4  1  0
  3  2  1  0
  4  6  1  0
  4  5  1  1
  6  7  2  0
  9  8  1  6
 10  9  1  0
 10  6  1  0
 11 12  2  0
 11  9  1  0
 13 11  1  0
 14 13  1  0
 14 15  1  1
 16 15  1  0
 17 19  1  0
 17 14  1  0
 18 17  2  0
M  END
$$$$
