VAC.pdb
     RDKit          3D

 19 18  0  0  1  0  0  0  0  0999 V2000
    6.5915  -16.1785   20.3084 C   0  0  0  0  0  0  0  0  0  0  0  0
    7.1220  -15.8293   21.6809 C   0  0  2  0  0  0  0  0  0  0  0  0
    6.0527  -16.1369   22.7246 C   0  0  0  0  0  0  0  0  0  0  0  0
    7.4709  -14.3724   21.8063 C   0  0  2  0  0  0  0  0  0  0  0  0
    8.4027  -13.9217   20.8241 N   0  0  0  0  0  0  0  0  0  0  0  0
    8.0415  -14.1442   23.1573 C   0  0  0  0  0  0  0  0  0  0  0  0
    9.2138  -14.5631   23.4537 O   0  0  0  0  0  0  0  0  0  0  0  0
    6.8764  -12.4021   26.3100 C   0  0  0  0  0  0  0  0  0  0  0  0
    7.8082  -13.2314   25.4538 C   0  0  2  0  0  0  0  0  0  0  0  0
    7.2852  -13.4540   24.1385 N   0  0  0  0  0  0  0  0  0  0  0  0
    8.0759  -14.4815   26.1914 C   0  0  0  0  0  0  0  0  0  0  0  0
    7.1461  -15.2975   26.3414 O   0  0  0  0  0  0  0  0  0  0  0  0
    9.3476  -14.7717   26.7259 N   0  0  0  0  0  0  0  0  0  0  0  0
    9.6418  -15.9662   27.4884 C   0  0  1  0  0  0  0  0  0  0  0  0
   10.6534  -16.8365   26.7697 C   0  0  0  0  0  0  0  0  0  0  0  0
    9.9513  -17.5960   25.3019 S   0  0  0  0  0  0  0  0  0  0  0  0
   10.1657  -15.5693   28.8144 C   0  0  0  0  0  0  0  0  0  0  0  0
   10.3017  -14.3648   29.1513 O   0  0  0  0  0  0  0  0  0  0  0  0
   10.5294  -16.5321   29.7434 O   0  0  0  0  0  0  0  0  0  0  0  0
  2  1  1  6
  2  4  1  0
  3  2  1  0
  4  6  1  0
  4  5  1  6
  6  7  2  0
  9  8  1  1
 10  9  1  0
 10  6  1  0
 11 12  2  0
 11  9  1  0
 13 11  1  0
 14 13  1  0
 14 15  1  6
 16 15  1  0
 17 19  1  0
 17 14  1  0
 18 17  2  0
M  END
$$$$
