VAC.pdb
     RDKit          3D

 19 18  0  0  1  0  0  0  0  0999 V2000
    8.2415  -13.0456   18.0879 C   0  0  0  0  0  0  0  0  0  0  0  0
    7.9026  -13.4736   19.4982 C   0  0  2  0  0  0  0  0  0  0  0  0
    8.9097  -12.8575   20.4645 C   0  0  0  0  0  0  0  0  0  0  0  0
    7.9615  -14.9654   19.6736 C   0  0  2  0  0  0  0  0  0  0  0  0
    7.1222  -15.6806   18.7678 N   0  0  0  0  0  0  0  0  0  0  0  0
    7.5589  -15.2876   21.0653 C   0  0  0  0  0  0  0  0  0  0  0  0
    6.3963  -14.9768   21.5006 O   0  0  0  0  0  0  0  0  0  0  0  0
    8.6131  -17.7025   23.6310 C   0  0  0  0  0  0  0  0  0  0  0  0
    8.0781  -16.3385   23.2534 C   0  0  2  0  0  0  0  0  0  0  0  0
    8.4675  -15.9481   21.9309 N   0  0  0  0  0  0  0  0  0  0  0  0
    8.5288  -15.3938   24.2940 C   0  0  0  0  0  0  0  0  0  0  0  0
    9.6490  -14.8614   24.1728 O   0  0  0  0  0  0  0  0  0  0  0  0
    7.7290  -15.0823   25.4122 N   0  0  0  0  0  0  0  0  0  0  0  0
    8.1075  -14.1184   26.4235 C   0  0  1  0  0  0  0  0  0  0  0  0
    6.8942  -13.3842   26.9580 C   0  0  0  0  0  0  0  0  0  0  0  0
    7.1143  -11.6032   26.8926 S   0  0  0  0  0  0  0  0  0  0  0  0
    8.7970  -14.8274   27.5246 C   0  0  0  0  0  0  0  0  0  0  0  0
    8.6165  -16.0511   27.7543 O   0  0  0  0  0  0  0  0  0  0  0  0
    9.6799  -14.1507   28.3521 O   0  0  0  0  0  0  0  0  0  0  0  0
  2  1  1  6
  2  4  1  0
  3  2  1  0
  4  6  1  0
  4  5  1  6
  6  7  2  0
  9  8  1  1
 10  9  1  0
 10  6  1  0
 11 12  2  0
 11  9  1  0
 13 11  1  0
 14 13  1  0
 14 15  1  1
 16 15  1  0
 17 19  1  0
 17 14  1  0
 18 17  2  0
M  END
$$$$
