VAC.pdb
     RDKit          3D

 19 18  0  0  1  0  0  0  0  0999 V2000
    8.0082  -13.0522   18.5680 C   0  0  0  0  0  0  0  0  0  0  0  0
    7.7192  -13.5272   19.9744 C   0  0  2  0  0  0  0  0  0  0  0  0
    8.5784  -12.7370   20.9567 C   0  0  0  0  0  0  0  0  0  0  0  0
    8.0387  -14.9838   20.1638 C   0  0  2  0  0  0  0  0  0  0  0  0
    7.3690  -15.8403   19.2395 N   0  0  0  0  0  0  0  0  0  0  0  0
    7.6578  -15.3689   21.5456 C   0  0  0  0  0  0  0  0  0  0  0  0
    6.4279  -15.4929   21.8767 O   0  0  0  0  0  0  0  0  0  0  0  0
    8.9296  -17.3347   24.2281 C   0  0  0  0  0  0  0  0  0  0  0  0
    8.3225  -16.0008   23.8522 C   0  0  2  0  0  0  0  0  0  0  0  0
    8.6628  -15.6045   22.5180 N   0  0  0  0  0  0  0  0  0  0  0  0
    8.7519  -15.0266   24.8746 C   0  0  0  0  0  0  0  0  0  0  0  0
    9.9421  -14.6575   24.8854 O   0  0  0  0  0  0  0  0  0  0  0  0
    7.8552  -14.5083   25.8308 N   0  0  0  0  0  0  0  0  0  0  0  0
    8.2327  -13.5443   26.8422 C   0  0  1  0  0  0  0  0  0  0  0  0
    7.0102  -12.8970   27.4617 C   0  0  0  0  0  0  0  0  0  0  0  0
    5.8751  -12.2893   26.2102 S   0  0  0  0  0  0  0  0  0  0  0  0
    9.0257  -14.2323   27.8854 C   0  0  0  0  0  0  0  0  0  0  0  0
    9.1480  -15.4839   27.9217 O   0  0  0  0  0  0  0  0  0  0  0  0
    9.6703  -13.5036   28.8732 O   0  0  0  0  0  0  0  0  0  0  0  0
  2  1  1  6
  2  4  1  0
  3  2  1  0
  4  6  1  0
  4  5  1  6
  6  7  2  0
  9  8  1  1
 10  9  1  0
 10  6  1  0
 11 12  2  0
 11  9  1  0
 13 11  1  0
 14 13  1  0
 14 15  1  1
 16 15  1  0
 17 19  1  0
 17 14  1  0
 18 17  2  0
M  END
$$$$
