VAC.pdb
     RDKit          3D

 19 18  0  0  1  0  0  0  0  0999 V2000
    7.7917  -12.8573   19.2062 C   0  0  0  0  0  0  0  0  0  0  0  0
    7.7814  -13.4417   20.6011 C   0  0  2  0  0  0  0  0  0  0  0  0
    8.9716  -12.8940   21.3826 C   0  0  0  0  0  0  0  0  0  0  0  0
    7.8952  -14.9406   20.5948 C   0  0  2  0  0  0  0  0  0  0  0  0
    6.9024  -15.5855   19.7980 N   0  0  0  0  0  0  0  0  0  0  0  0
    7.7828  -15.4227   21.9939 C   0  0  0  0  0  0  0  0  0  0  0  0
    6.6587  -15.4060   22.6053 O   0  0  0  0  0  0  0  0  0  0  0  0
    9.5503  -17.6850   24.2364 C   0  0  0  0  0  0  0  0  0  0  0  0
    8.8536  -16.3581   24.0287 C   0  0  2  0  0  0  0  0  0  0  0  0
    8.9303  -15.9098   22.6699 N   0  0  0  0  0  0  0  0  0  0  0  0
    9.4435  -15.4048   24.9887 C   0  0  0  0  0  0  0  0  0  0  0  0
   10.5876  -14.9638   24.7662 O   0  0  0  0  0  0  0  0  0  0  0  0
    8.7493  -14.9849   26.1415 N   0  0  0  0  0  0  0  0  0  0  0  0
    9.2239  -13.9427   27.0265 C   0  0  1  0  0  0  0  0  0  0  0  0
    8.0669  -13.2060   27.6712 C   0  0  0  0  0  0  0  0  0  0  0  0
    6.9324  -12.5490   26.4441 S   0  0  0  0  0  0  0  0  0  0  0  0
   10.0794  -14.5537   28.0682 C   0  0  0  0  0  0  0  0  0  0  0  0
   10.2061  -15.7996   28.1895 O   0  0  0  0  0  0  0  0  0  0  0  0
   10.7807  -13.7557   28.9590 O   0  0  0  0  0  0  0  0  0  0  0  0
  2  1  1  6
  2  4  1  0
  3  2  1  0
  4  6  1  0
  4  5  1  6
  6  7  2  0
  9  8  1  6
 10  9  1  0
 10  6  1  0
 11 12  2  0
 11  9  1  0
 13 11  1  0
 14 13  1  0
 14 15  1  1
 16 15  1  0
 17 19  1  0
 17 14  1  0
 18 17  2  0
M  END
$$$$
