VAC.pdb
     RDKit          3D

 19 18  0  0  1  0  0  0  0  0999 V2000
    8.6575  -12.9702   20.0890 C   0  0  0  0  0  0  0  0  0  0  0  0
    7.9134  -14.1432   19.4911 C   0  0  2  0  0  0  0  0  0  0  0  0
    6.7653  -13.6229   18.6316 C   0  0  0  0  0  0  0  0  0  0  0  0
    7.3215  -15.0413   20.5414 C   0  0  2  0  0  0  0  0  0  0  0  0
    6.4139  -14.3744   21.4176 N   0  0  0  0  0  0  0  0  0  0  0  0
    8.4310  -15.6190   21.3401 C   0  0  0  0  0  0  0  0  0  0  0  0
    9.2011  -16.5123   20.8434 O   0  0  0  0  0  0  0  0  0  0  0  0
   11.0624  -15.5316   22.8659 C   0  0  0  0  0  0  0  0  0  0  0  0
    9.6933  -15.7447   23.4737 C   0  0  2  0  0  0  0  0  0  0  0  0
    8.6480  -15.1817   22.6715 N   0  0  0  0  0  0  0  0  0  0  0  0
    9.7367  -15.1924   24.8418 C   0  0  0  0  0  0  0  0  0  0  0  0
   10.7870  -15.3127   25.5016 O   0  0  0  0  0  0  0  0  0  0  0  0
    8.6276  -14.5377   25.4148 N   0  0  0  0  0  0  0  0  0  0  0  0
    8.6510  -13.9202   26.7236 C   0  0  1  0  0  0  0  0  0  0  0  0
    7.3755  -13.1437   26.9830 C   0  0  0  0  0  0  0  0  0  0  0  0
    6.7234  -12.4164   25.4763 S   0  0  0  0  0  0  0  0  0  0  0  0
    8.8188  -14.9762   27.7469 C   0  0  0  0  0  0  0  0  0  0  0  0
    9.0644  -14.7123   28.9523 O   0  0  0  0  0  0  0  0  0  0  0  0
    8.7080  -16.3141   27.4009 O   0  0  0  0  0  0  0  0  0  0  0  0
  2  1  1  1
  2  4  1  0
  3  2  1  0
  4  6  1  0
  4  5  1  1
  6  7  2  0
  9  8  1  6
 10  9  1  0
 10  6  1  0
 11 12  2  0
 11  9  1  0
 13 11  1  0
 14 13  1  0
 14 15  1  1
 16 15  1  0
 17 19  1  0
 17 14  1  0
 18 17  2  0
M  END
$$$$
