VAC.pdb
     RDKit          3D

 19 18  0  0  1  0  0  0  0  0999 V2000
    8.2641  -13.0584   18.4444 C   0  0  0  0  0  0  0  0  0  0  0  0
    7.9022  -13.5038   19.8437 C   0  0  2  0  0  0  0  0  0  0  0  0
    8.7549  -12.7370   20.8498 C   0  0  0  0  0  0  0  0  0  0  0  0
    8.1543  -14.9697   20.0612 C   0  0  2  0  0  0  0  0  0  0  0  0
    7.4586  -15.8114   19.1424 N   0  0  0  0  0  0  0  0  0  0  0  0
    7.7397  -15.3140   21.4440 C   0  0  0  0  0  0  0  0  0  0  0  0
    6.5018  -15.3613   21.7653 O   0  0  0  0  0  0  0  0  0  0  0  0
    8.9726  -17.3055   24.1613 C   0  0  0  0  0  0  0  0  0  0  0  0
    8.3463  -15.9897   23.7542 C   0  0  2  0  0  0  0  0  0  0  0  0
    8.7208  -15.5958   22.4284 N   0  0  0  0  0  0  0  0  0  0  0  0
    8.7183  -14.9974   24.7816 C   0  0  0  0  0  0  0  0  0  0  0  0
    9.8755  -14.5351   24.7744 O   0  0  0  0  0  0  0  0  0  0  0  0
    7.8032  -14.5639   25.7624 N   0  0  0  0  0  0  0  0  0  0  0  0
    8.1065  -13.5464   26.7461 C   0  0  1  0  0  0  0  0  0  0  0  0
    6.8381  -12.9659   27.3388 C   0  0  0  0  0  0  0  0  0  0  0  0
    5.7043  -12.4082   26.0630 S   0  0  0  0  0  0  0  0  0  0  0  0
    8.9366  -14.1471   27.8140 C   0  0  0  0  0  0  0  0  0  0  0  0
    9.1515  -15.3848   27.8835 O   0  0  0  0  0  0  0  0  0  0  0  0
    9.5136  -13.3479   28.7890 O   0  0  0  0  0  0  0  0  0  0  0  0
  2  1  1  6
  2  4  1  0
  3  2  1  0
  4  6  1  0
  4  5  1  6
  6  7  2  0
  9  8  1  1
 10  9  1  0
 10  6  1  0
 11 12  2  0
 11  9  1  0
 13 11  1  0
 14 13  1  0
 14 15  1  1
 16 15  1  0
 17 19  1  0
 17 14  1  0
 18 17  2  0
M  END
$$$$
