VAC.pdb
     RDKit          3D

 19 18  0  0  1  0  0  0  0  0999 V2000
    8.1587  -12.0866   18.2729 C   0  0  0  0  0  0  0  0  0  0  0  0
    8.5818  -13.1399   19.2724 C   0  0  2  0  0  0  0  0  0  0  0  0
   10.0393  -12.9075   19.6585 C   0  0  0  0  0  0  0  0  0  0  0  0
    8.4776  -14.5323   18.7156 C   0  0  2  0  0  0  0  0  0  0  0  0
    7.1957  -14.8331   18.1655 N   0  0  0  0  0  0  0  0  0  0  0  0
    8.7754  -15.4940   19.8060 C   0  0  0  0  0  0  0  0  0  0  0  0
    7.9297  -15.7064   20.7427 O   0  0  0  0  0  0  0  0  0  0  0  0
   11.4581  -18.0704   20.4199 C   0  0  0  0  0  0  0  0  0  0  0  0
   10.2808  -17.1993   20.7999 C   0  0  2  0  0  0  0  0  0  0  0  0
   10.0103  -16.1911   19.8183 N   0  0  0  0  0  0  0  0  0  0  0  0
   10.5666  -16.6451   22.1377 C   0  0  0  0  0  0  0  0  0  0  0  0
   11.5008  -15.8293   22.2593 O   0  0  0  0  0  0  0  0  0  0  0  0
    9.8144  -17.0136   23.2715 N   0  0  0  0  0  0  0  0  0  0  0  0
   10.0180  -16.4448   24.5867 C   0  0  1  0  0  0  0  0  0  0  0  0
    8.6947  -16.1309   25.2558 C   0  0  0  0  0  0  0  0  0  0  0  0
    7.6531  -15.1020   24.2162 S   0  0  0  0  0  0  0  0  0  0  0  0
   10.7866  -17.4058   25.4089 C   0  0  0  0  0  0  0  0  0  0  0  0
   11.0811  -18.5580   24.9983 O   0  0  0  0  0  0  0  0  0  0  0  0
   11.2134  -17.0581   26.6814 O   0  0  0  0  0  0  0  0  0  0  0  0
  2  1  1  6
  2  4  1  0
  3  2  1  0
  4  6  1  0
  4  5  1  1
  6  7  2  0
  9  8  1  6
 10  9  1  0
 10  6  1  0
 11 12  2  0
 11  9  1  0
 13 11  1  0
 14 13  1  0
 14 15  1  1
 16 15  1  0
 17 19  1  0
 17 14  1  0
 18 17  2  0
M  END
$$$$
