VAC.pdb
     RDKit          3D

 19 18  0  0  1  0  0  0  0  0999 V2000
    9.5272  -17.8710   19.0239 C   0  0  0  0  0  0  0  0  0  0  0  0
    8.5912  -17.2184   18.0314 C   0  0  2  0  0  0  0  0  0  0  0  0
    8.0993  -18.2693   17.0408 C   0  0  0  0  0  0  0  0  0  0  0  0
    9.2629  -16.1306   17.2407 C   0  0  2  0  0  0  0  0  0  0  0  0
   10.4691  -16.5493   16.6035 N   0  0  0  0  0  0  0  0  0  0  0  0
    9.5650  -15.0049   18.1595 C   0  0  0  0  0  0  0  0  0  0  0  0
   10.7316  -14.8677   18.6676 O   0  0  0  0  0  0  0  0  0  0  0  0
    7.7130  -11.9695   19.4289 C   0  0  0  0  0  0  0  0  0  0  0  0
    8.7853  -13.0366   19.4555 C   0  0  2  0  0  0  0  0  0  0  0  0
    8.5545  -14.0646   18.4843 N   0  0  0  0  0  0  0  0  0  0  0  0
    8.8518  -13.5487   20.8383 C   0  0  0  0  0  0  0  0  0  0  0  0
    9.1969  -12.7698   21.7478 O   0  0  0  0  0  0  0  0  0  0  0  0
    8.5369  -14.8865   21.1517 N   0  0  0  0  0  0  0  0  0  0  0  0
    8.6499  -15.4448   22.4822 C   0  0  1  0  0  0  0  0  0  0  0  0
    7.4713  -16.3439   22.7981 C   0  0  0  0  0  0  0  0  0  0  0  0
    6.0108  -15.8760   21.8642 S   0  0  0  0  0  0  0  0  0  0  0  0
    9.9119  -16.2127   22.5723 C   0  0  0  0  0  0  0  0  0  0  0  0
   10.6645  -16.3892   21.5796 O   0  0  0  0  0  0  0  0  0  0  0  0
   10.3102  -16.7714   23.7770 O   0  0  0  0  0  0  0  0  0  0  0  0
  2  1  1  1
  2  4  1  0
  3  2  1  0
  4  6  1  0
  4  5  1  1
  6  7  2  0
  9  8  1  1
 10  9  1  0
 10  6  1  0
 11 12  2  0
 11  9  1  0
 13 11  1  0
 14 13  1  0
 14 15  1  6
 16 15  1  0
 17 19  1  0
 17 14  1  0
 18 17  2  0
M  END
$$$$
