VAC.pdb
     RDKit          3D

 19 18  0  0  1  0  0  0  0  0999 V2000
    8.3608  -13.1424   18.2123 C   0  0  0  0  0  0  0  0  0  0  0  0
    7.7693  -13.6011   19.5264 C   0  0  2  0  0  0  0  0  0  0  0  0
    8.3254  -12.7379   20.6547 C   0  0  0  0  0  0  0  0  0  0  0  0
    8.1110  -15.0310   19.8401 C   0  0  2  0  0  0  0  0  0  0  0  0
    7.5998  -15.9626   18.8876 N   0  0  0  0  0  0  0  0  0  0  0  0
    7.5639  -15.3579   21.1804 C   0  0  0  0  0  0  0  0  0  0  0  0
    6.3023  -15.4678   21.3651 O   0  0  0  0  0  0  0  0  0  0  0  0
    8.1707  -17.2712   23.9974 C   0  0  0  0  0  0  0  0  0  0  0  0
    7.9385  -15.8332   23.5878 C   0  0  2  0  0  0  0  0  0  0  0  0
    8.4427  -15.5527   22.2762 N   0  0  0  0  0  0  0  0  0  0  0  0
    8.5384  -14.9830   24.6345 C   0  0  0  0  0  0  0  0  0  0  0  0
    9.7804  -14.9118   24.7072 O   0  0  0  0  0  0  0  0  0  0  0  0
    7.7465  -14.2557   25.5461 N   0  0  0  0  0  0  0  0  0  0  0  0
    8.2927  -13.3671   26.5495 C   0  0  1  0  0  0  0  0  0  0  0  0
    7.2624  -12.3487   26.9949 C   0  0  0  0  0  0  0  0  0  0  0  0
    5.6253  -13.0746   27.1254 S   0  0  0  0  0  0  0  0  0  0  0  0
    8.7428  -14.1726   27.7066 C   0  0  0  0  0  0  0  0  0  0  0  0
    8.4188  -15.3794   27.8533 O   0  0  0  0  0  0  0  0  0  0  0  0
    9.5509  -13.6101   28.6828 O   0  0  0  0  0  0  0  0  0  0  0  0
  2  1  1  6
  2  4  1  0
  3  2  1  0
  4  6  1  0
  4  5  1  6
  6  7  2  0
  9  8  1  1
 10  9  1  0
 10  6  1  0
 11 12  2  0
 11  9  1  0
 13 11  1  0
 14 13  1  0
 14 15  1  1
 16 15  1  0
 17 19  1  0
 17 14  1  0
 18 17  2  0
M  END
$$$$
