QCL.pdb
     RDKit          3D

 24 23  0  0  1  0  0  0  0  0999 V2000
   25.1293  -26.1299  -16.6910 N   0  0  0  0  0  0  0  0  0  0  0  0
   24.5545  -24.9337  -17.1906 C   0  0  0  0  0  0  0  0  0  0  0  0
   23.6446  -25.0105  -18.0313 O   0  0  0  0  0  0  0  0  0  0  0  0
   25.0405  -23.6406  -16.7057 C   0  0  0  0  0  0  0  0  0  0  0  0
   26.1452  -23.6748  -15.7196 C   0  0  0  0  0  0  0  0  0  0  0  0
   25.7836  -23.6614  -14.2799 C   0  0  2  0  0  0  0  0  0  0  0  0
   24.3769  -23.6981  -13.9902 N   0  0  0  0  0  0  0  0  0  0  0  0
   26.4498  -22.5330  -13.5439 C   0  0  0  0  0  0  0  0  0  0  0  0
   27.6694  -22.3166  -13.7689 O   0  0  0  0  0  0  0  0  0  0  0  0
   25.7384  -21.7402  -12.6313 N   0  0  0  0  0  0  0  0  0  0  0  0
   26.3732  -20.6417  -11.9061 C   0  0  1  0  0  0  0  0  0  0  0  0
   25.5817  -19.3745  -12.2002 C   0  0  0  0  0  0  0  0  0  0  0  0
   26.0454  -18.1519  -10.9212 S   0  0  0  0  0  0  0  0  0  0  0  0
   26.2701  -20.9148  -10.4448 C   0  0  0  0  0  0  0  0  0  0  0  0
   25.2123  -21.4541   -9.9727 O   0  0  0  0  0  0  0  0  0  0  0  0
   28.7708  -20.9520   -5.2168 C   0  0  0  0  0  0  0  0  0  0  0  0
   28.0526  -19.8115   -5.8700 C   0  0  1  0  0  0  0  0  0  0  0  0
   28.4487  -18.5149   -5.1920 C   0  0  0  0  0  0  0  0  0  0  0  0
   28.0931  -19.7541   -7.3402 C   0  0  0  0  0  0  0  0  0  0  0  0
   27.1813  -20.6274   -8.1163 C   0  0  2  0  0  0  0  0  0  0  0  0
   27.3170  -20.5951   -9.5383 N   0  0  0  0  0  0  0  0  0  0  0  0
   25.7660  -20.5392   -7.6728 C   0  0  0  0  0  0  0  0  0  0  0  0
   25.0822  -19.3453   -7.7763 O   0  0  0  0  0  0  0  0  0  0  0  0
   25.2113  -21.5368   -7.2139 O   0  0  0  0  0  0  0  0  0  0  0  0
  1  2  1  0
  2  4  1  0
  3  2  2  0
  4  5  1  0
  6  7  1  6
  6  5  1  0
  8  6  1  0
  8  9  2  0
 10  8  1  0
 11 10  1  0
 11 14  1  0
 12 13  1  0
 11 12  1  1
 14 15  2  0
 14 21  1  0
 17 16  1  1
 17 18  1  0
 19 17  1  0
 20 19  1  1
 21 20  1  0
 22 23  1  0
 22 20  1  0
 24 22  2  0
M  END
$$$$
