QCL.pdb
     RDKit          3D

 24 23  0  0  1  0  0  0  0  0999 V2000
   17.2314  -23.6406   -7.6564 N   0  0  0  0  0  0  0  0  0  0  0  0
   15.9559  -23.0366   -7.5182 C   0  0  0  0  0  0  0  0  0  0  0  0
   15.7404  -21.9530   -8.0837 O   0  0  0  0  0  0  0  0  0  0  0  0
   14.9244  -23.7006   -6.7189 C   0  0  0  0  0  0  0  0  0  0  0  0
   15.2707  -25.0276   -6.1596 C   0  0  0  0  0  0  0  0  0  0  0  0
   16.6272  -25.1982   -5.5812 C   0  0  2  0  0  0  0  0  0  0  0  0
   17.7099  -25.2146   -6.5255 N   0  0  0  0  0  0  0  0  0  0  0  0
   16.7017  -26.3871   -4.6648 C   0  0  0  0  0  0  0  0  0  0  0  0
   16.7068  -27.5349   -5.1819 O   0  0  0  0  0  0  0  0  0  0  0  0
   16.7639  -26.2288   -3.2724 N   0  0  0  0  0  0  0  0  0  0  0  0
   16.8486  -27.3747   -2.3695 C   0  0  1  0  0  0  0  0  0  0  0  0
   18.2462  -27.9649   -2.5008 C   0  0  0  0  0  0  0  0  0  0  0  0
   19.4273  -26.6013   -2.1984 S   0  0  0  0  0  0  0  0  0  0  0  0
   16.6883  -26.8895   -0.9698 C   0  0  0  0  0  0  0  0  0  0  0  0
   17.2855  -25.8240   -0.5947 O   0  0  0  0  0  0  0  0  0  0  0  0
   11.8608  -26.4601    1.4141 C   0  0  0  0  0  0  0  0  0  0  0  0
   13.3040  -26.2703    1.0616 C   0  0  1  0  0  0  0  0  0  0  0  0
   13.6228  -24.7886    1.0331 C   0  0  0  0  0  0  0  0  0  0  0  0
   14.2828  -27.0783    1.8068 C   0  0  0  0  0  0  0  0  0  0  0  0
   15.6835  -27.1299    1.3253 C   0  0  2  0  0  0  0  0  0  0  0  0
   15.8851  -27.5739   -0.0176 N   0  0  0  0  0  0  0  0  0  0  0  0
   16.6113  -27.7767    2.2889 C   0  0  0  0  0  0  0  0  0  0  0  0
   16.6678  -27.3374    3.5956 O   0  0  0  0  0  0  0  0  0  0  0  0
   17.3263  -28.7044    1.9124 O   0  0  0  0  0  0  0  0  0  0  0  0
  1  2  1  0
  2  4  1  0
  3  2  2  0
  4  5  1  0
  6  7  1  6
  6  5  1  0
  8  6  1  0
  8  9  2  0
 10  8  1  0
 11 10  1  0
 11 14  1  0
 12 13  1  0
 11 12  1  1
 14 15  2  0
 14 21  1  0
 17 16  1  1
 17 18  1  0
 19 17  1  0
 20 19  1  1
 21 20  1  0
 22 23  1  0
 22 20  1  0
 24 22  2  0
M  END
$$$$
