QCL.pdb
     RDKit          3D

 24 23  0  0  1  0  0  0  0  0999 V2000
   18.4163  -30.3964  -10.4851 N   0  0  0  0  0  0  0  0  0  0  0  0
   19.4534  -30.6609  -11.4153 C   0  0  0  0  0  0  0  0  0  0  0  0
   19.4065  -31.7042  -12.0859 O   0  0  0  0  0  0  0  0  0  0  0  0
   20.5498  -29.7027  -11.5672 C   0  0  0  0  0  0  0  0  0  0  0  0
   20.4866  -28.4840  -10.7278 C   0  0  0  0  0  0  0  0  0  0  0  0
   19.7337  -27.3202  -11.2593 C   0  0  2  0  0  0  0  0  0  0  0  0
   20.2811  -26.7100  -12.4393 N   0  0  0  0  0  0  0  0  0  0  0  0
   19.4723  -26.2883  -10.1984 C   0  0  0  0  0  0  0  0  0  0  0  0
   20.3302  -25.3828  -10.0278 O   0  0  0  0  0  0  0  0  0  0  0  0
   18.3077  -26.3276   -9.4175 N   0  0  0  0  0  0  0  0  0  0  0  0
   17.9998  -25.2859   -8.4399 C   0  0  1  0  0  0  0  0  0  0  0  0
   17.0766  -24.2787   -9.1123 C   0  0  0  0  0  0  0  0  0  0  0  0
   15.9300  -25.2349  -10.1692 S   0  0  0  0  0  0  0  0  0  0  0  0
   17.2537  -25.9029   -7.3072 C   0  0  0  0  0  0  0  0  0  0  0  0
   16.2402  -26.6445   -7.5434 O   0  0  0  0  0  0  0  0  0  0  0  0
   18.7522  -28.3636   -4.3260 C   0  0  0  0  0  0  0  0  0  0  0  0
   17.9895  -27.6578   -3.2474 C   0  0  1  0  0  0  0  0  0  0  0  0
   18.7511  -27.7663   -1.9412 C   0  0  0  0  0  0  0  0  0  0  0  0
   17.5124  -26.2987   -3.5502 C   0  0  0  0  0  0  0  0  0  0  0  0
   16.8130  -26.0547   -4.8338 C   0  0  2  0  0  0  0  0  0  0  0  0
   17.6282  -25.6978   -5.9516 N   0  0  0  0  0  0  0  0  0  0  0  0
   15.6177  -25.1833   -4.6939 C   0  0  0  0  0  0  0  0  0  0  0  0
   14.9110  -24.7941   -5.8131 O   0  0  0  0  0  0  0  0  0  0  0  0
   15.2649  -24.8133   -3.5749 O   0  0  0  0  0  0  0  0  0  0  0  0
  1  2  1  0
  2  4  1  0
  3  2  2  0
  4  5  1  0
  6  7  1  6
  6  5  1  0
  8  6  1  0
  8  9  2  0
 10  8  1  0
 11 10  1  0
 11 14  1  0
 12 13  1  0
 11 12  1  6
 14 15  2  0
 14 21  1  0
 17 16  1  6
 17 18  1  0
 19 17  1  0
 20 19  1  1
 21 20  1  0
 22 23  1  0
 22 20  1  0
 24 22  2  0
M  END
$$$$
