QCL.pdb
     RDKit          3D

 24 23  0  0  1  0  0  0  0  0999 V2000
   23.3728  -16.9327  -16.7526 N   0  0  0  0  0  0  0  0  0  0  0  0
   23.8345  -17.1572  -18.0745 C   0  0  0  0  0  0  0  0  0  0  0  0
   23.2933  -18.0411  -18.7573 O   0  0  0  0  0  0  0  0  0  0  0  0
   24.9309  -16.3449  -18.6049 C   0  0  0  0  0  0  0  0  0  0  0  0
   25.4671  -15.2910  -17.7131 C   0  0  0  0  0  0  0  0  0  0  0  0
   25.2423  -13.8770  -18.1054 C   0  0  2  0  0  0  0  0  0  0  0  0
   26.2495  -13.2968  -18.9498 N   0  0  0  0  0  0  0  0  0  0  0  0
   24.9751  -12.9994  -16.9150 C   0  0  0  0  0  0  0  0  0  0  0  0
   24.7900  -13.5533  -15.7996 O   0  0  0  0  0  0  0  0  0  0  0  0
   24.9318  -11.6027  -17.0367 N   0  0  0  0  0  0  0  0  0  0  0  0
   24.7801  -10.7319  -15.8729 C   0  0  1  0  0  0  0  0  0  0  0  0
   26.1219  -10.6819  -15.1545 C   0  0  0  0  0  0  0  0  0  0  0  0
   27.3099   -9.9013  -16.3057 S   0  0  0  0  0  0  0  0  0  0  0  0
   24.4655   -9.3549  -16.3476 C   0  0  0  0  0  0  0  0  0  0  0  0
   25.0177   -8.9076  -17.4095 O   0  0  0  0  0  0  0  0  0  0  0  0
   22.1735   -5.8116  -19.0765 C   0  0  0  0  0  0  0  0  0  0  0  0
   21.3675   -6.7871  -18.2753 C   0  0  1  0  0  0  0  0  0  0  0  0
   20.2332   -7.3202  -19.1278 C   0  0  0  0  0  0  0  0  0  0  0  0
   22.1125   -7.8298  -17.5514 C   0  0  0  0  0  0  0  0  0  0  0  0
   22.7942   -7.4741  -16.2844 C   0  0  2  0  0  0  0  0  0  0  0  0
   23.5613   -8.5032  -15.6569 N   0  0  0  0  0  0  0  0  0  0  0  0
   21.9162   -6.7496  -15.3295 C   0  0  0  0  0  0  0  0  0  0  0  0
   21.3193   -5.5630  -15.7027 O   0  0  0  0  0  0  0  0  0  0  0  0
   21.7268   -7.2158  -14.2068 O   0  0  0  0  0  0  0  0  0  0  0  0
  1  2  1  0
  2  4  1  0
  3  2  2  0
  4  5  1  0
  6  7  1  1
  6  5  1  0
  8  6  1  0
  8  9  2  0
 10  8  1  0
 11 10  1  0
 11 14  1  0
 12 13  1  0
 11 12  1  6
 14 15  2  0
 14 21  1  0
 17 16  1  6
 17 18  1  0
 19 17  1  0
 20 19  1  6
 21 20  1  0
 22 23  1  0
 22 20  1  0
 24 22  2  0
M  END
$$$$
