QCL.pdb
     RDKit          3D

 24 23  0  0  1  0  0  0  0  0999 V2000
   28.9234  -24.8770  -15.9971 N   0  0  0  0  0  0  0  0  0  0  0  0
   29.8002  -23.9459  -16.6096 C   0  0  0  0  0  0  0  0  0  0  0  0
   31.0127  -24.0032  -16.3505 O   0  0  0  0  0  0  0  0  0  0  0  0
   29.2616  -22.9443  -17.5316 C   0  0  0  0  0  0  0  0  0  0  0  0
   29.5896  -21.5298  -17.2395 C   0  0  0  0  0  0  0  0  0  0  0  0
   28.5704  -20.7200  -16.5259 C   0  0  2  0  0  0  0  0  0  0  0  0
   28.8186  -19.3057  -16.4797 N   0  0  0  0  0  0  0  0  0  0  0  0
   28.2889  -21.2566  -15.1505 C   0  0  0  0  0  0  0  0  0  0  0  0
   27.6564  -22.3410  -15.0551 O   0  0  0  0  0  0  0  0  0  0  0  0
   28.7161  -20.5735  -14.0023 N   0  0  0  0  0  0  0  0  0  0  0  0
   28.3672  -21.0308  -12.6589 C   0  0  1  0  0  0  0  0  0  0  0  0
   29.5360  -20.7016  -11.7400 C   0  0  0  0  0  0  0  0  0  0  0  0
   30.6937  -22.1149  -11.8290 S   0  0  0  0  0  0  0  0  0  0  0  0
   27.1840  -20.2581  -12.1863 C   0  0  0  0  0  0  0  0  0  0  0  0
   27.1816  -18.9833  -12.2745 O   0  0  0  0  0  0  0  0  0  0  0  0
   22.6573  -18.9343  -14.7077 C   0  0  0  0  0  0  0  0  0  0  0  0
   22.8912  -19.8052  -13.5118 C   0  0  1  0  0  0  0  0  0  0  0  0
   21.9135  -20.9634  -13.5357 C   0  0  0  0  0  0  0  0  0  0  0  0
   24.2821  -20.2025  -13.2398 C   0  0  0  0  0  0  0  0  0  0  0  0
   24.6980  -20.4389  -11.8371 C   0  0  2  0  0  0  0  0  0  0  0  0
   26.0380  -20.8901  -11.6320 N   0  0  0  0  0  0  0  0  0  0  0  0
   23.7041  -21.2178  -11.0541 C   0  0  0  0  0  0  0  0  0  0  0  0
   22.5434  -20.6146  -10.6154 O   0  0  0  0  0  0  0  0  0  0  0  0
   23.9247  -22.4015  -10.8013 O   0  0  0  0  0  0  0  0  0  0  0  0
  1  2  1  0
  2  4  1  0
  3  2  2  0
  4  5  1  0
  6  7  1  1
  6  5  1  0
  8  6  1  0
  8  9  2  0
 10  8  1  0
 11 10  1  0
 11 14  1  0
 12 13  1  0
 11 12  1  1
 14 15  2  0
 14 21  1  0
 17 16  1  6
 17 18  1  0
 19 17  1  0
 20 19  1  6
 21 20  1  0
 22 23  1  0
 22 20  1  0
 24 22  2  0
M  END
$$$$
