QCL.pdb
     RDKit          3D

 24 23  0  0  1  0  0  0  0  0999 V2000
   23.5235  -27.9832  -16.9055 N   0  0  0  0  0  0  0  0  0  0  0  0
   22.2573  -27.9368  -16.2687 C   0  0  0  0  0  0  0  0  0  0  0  0
   21.3728  -28.7277  -16.6331 O   0  0  0  0  0  0  0  0  0  0  0  0
   22.0212  -26.9655  -15.1990 C   0  0  0  0  0  0  0  0  0  0  0  0
   23.1708  -26.1178  -14.8074 C   0  0  0  0  0  0  0  0  0  0  0  0
   23.0059  -24.6457  -14.9062 C   0  0  2  0  0  0  0  0  0  0  0  0
   21.6658  -24.1828  -15.1382 N   0  0  0  0  0  0  0  0  0  0  0  0
   23.9582  -24.0391  -15.8982 C   0  0  0  0  0  0  0  0  0  0  0  0
   23.5357  -23.1079  -16.6327 O   0  0  0  0  0  0  0  0  0  0  0  0
   25.2809  -24.4931  -16.0074 N   0  0  0  0  0  0  0  0  0  0  0  0
   26.2680  -23.7999  -16.8324 C   0  0  1  0  0  0  0  0  0  0  0  0
   26.4210  -22.3881  -16.2827 C   0  0  0  0  0  0  0  0  0  0  0  0
   27.7604  -21.5898  -17.2391 S   0  0  0  0  0  0  0  0  0  0  0  0
   27.5799  -24.4912  -16.6851 C   0  0  0  0  0  0  0  0  0  0  0  0
   28.0904  -24.6438  -15.5237 O   0  0  0  0  0  0  0  0  0  0  0  0
   28.6255  -29.3826  -18.5965 C   0  0  0  0  0  0  0  0  0  0  0  0
   28.6431  -28.0873  -17.8448 C   0  0  1  0  0  0  0  0  0  0  0  0
   28.7413  -28.3708  -16.3589 C   0  0  0  0  0  0  0  0  0  0  0  0
   29.5788  -27.0551  -18.3196 C   0  0  0  0  0  0  0  0  0  0  0  0
   29.5342  -25.7091  -17.7011 C   0  0  2  0  0  0  0  0  0  0  0  0
   28.2998  -24.9967  -17.8014 N   0  0  0  0  0  0  0  0  0  0  0  0
   30.7112  -24.8683  -18.0409 C   0  0  0  0  0  0  0  0  0  0  0  0
   31.9033  -25.0437  -17.3688 O   0  0  0  0  0  0  0  0  0  0  0  0
   30.6135  -24.0173  -18.9240 O   0  0  0  0  0  0  0  0  0  0  0  0
  1  2  1  0
  2  4  1  0
  3  2  2  0
  4  5  1  0
  6  7  1  6
  6  5  1  0
  8  6  1  0
  8  9  2  0
 10  8  1  0
 11 10  1  0
 11 14  1  0
 12 13  1  0
 11 12  1  1
 14 15  2  0
 14 21  1  0
 17 16  1  6
 17 18  1  0
 19 17  1  0
 20 19  1  6
 21 20  1  0
 22 23  1  0
 22 20  1  0
 24 22  2  0
M  END
$$$$
