QCL.pdb
     RDKit          3D

 24 23  0  0  1  0  0  0  0  0999 V2000
   15.4897  -12.5899  -14.9589 N   0  0  0  0  0  0  0  0  0  0  0  0
   15.8152  -12.9449  -16.2926 C   0  0  0  0  0  0  0  0  0  0  0  0
   15.1706  -13.8488  -16.8475 O   0  0  0  0  0  0  0  0  0  0  0  0
   16.8961  -12.2406  -16.9849 C   0  0  0  0  0  0  0  0  0  0  0  0
   17.5708  -11.1580  -16.2324 C   0  0  0  0  0  0  0  0  0  0  0  0
   18.7230  -10.4832  -16.8812 C   0  0  2  0  0  0  0  0  0  0  0  0
   19.6193  -11.3402  -17.6068 N   0  0  0  0  0  0  0  0  0  0  0  0
   19.4807   -9.6141  -15.9172 C   0  0  0  0  0  0  0  0  0  0  0  0
   18.8251   -8.9797  -15.0495 O   0  0  0  0  0  0  0  0  0  0  0  0
   20.8781   -9.5087  -15.9772 N   0  0  0  0  0  0  0  0  0  0  0  0
   21.6380   -8.7575  -14.9804 C   0  0  1  0  0  0  0  0  0  0  0  0
   23.1046   -9.1370  -15.1340 C   0  0  0  0  0  0  0  0  0  0  0  0
   23.3808  -10.6154  -14.0930 S   0  0  0  0  0  0  0  0  0  0  0  0
   21.5093   -7.3038  -15.2813 C   0  0  0  0  0  0  0  0  0  0  0  0
   21.6737   -6.8859  -16.4776 O   0  0  0  0  0  0  0  0  0  0  0  0
   17.4950   -4.1957  -15.4810 C   0  0  0  0  0  0  0  0  0  0  0  0
   18.9218   -4.6235  -15.6370 C   0  0  1  0  0  0  0  0  0  0  0  0
   19.4251   -4.2026  -17.0036 C   0  0  0  0  0  0  0  0  0  0  0  0
   19.8395   -4.2944  -14.5344 C   0  0  0  0  0  0  0  0  0  0  0  0
   21.1757   -4.9347  -14.4995 C   0  0  2  0  0  0  0  0  0  0  0  0
   21.2060   -6.3456  -14.2763 N   0  0  0  0  0  0  0  0  0  0  0  0
   22.1564   -4.1996  -13.6596 C   0  0  0  0  0  0  0  0  0  0  0  0
   22.4771   -2.8909  -13.9563 O   0  0  0  0  0  0  0  0  0  0  0  0
   22.6782   -4.7665  -12.7004 O   0  0  0  0  0  0  0  0  0  0  0  0
  1  2  1  0
  2  4  1  0
  3  2  2  0
  4  5  1  0
  6  7  1  1
  6  5  1  0
  8  6  1  0
  8  9  2  0
 10  8  1  0
 11 10  1  0
 11 14  1  0
 12 13  1  0
 11 12  1  6
 14 15  2  0
 14 21  1  0
 17 16  1  1
 17 18  1  0
 19 17  1  0
 20 19  1  1
 21 20  1  0
 22 23  1  0
 22 20  1  0
 24 22  2  0
M  END
$$$$
