QCL.pdb
     RDKit          3D

 24 23  0  0  1  0  0  0  0  0999 V2000
   14.6971  -13.0884  -19.9223 N   0  0  0  0  0  0  0  0  0  0  0  0
   15.6381  -12.5936  -18.9840 C   0  0  0  0  0  0  0  0  0  0  0  0
   16.6615  -12.0285  -19.4011 O   0  0  0  0  0  0  0  0  0  0  0  0
   15.3838  -12.7553  -17.5513 C   0  0  0  0  0  0  0  0  0  0  0  0
   16.0444  -11.7860  -16.6470 C   0  0  0  0  0  0  0  0  0  0  0  0
   17.4121  -12.1111  -16.1700 C   0  0  2  0  0  0  0  0  0  0  0  0
   17.5335  -13.3188  -15.4014 N   0  0  0  0  0  0  0  0  0  0  0  0
   18.0451  -10.9547  -15.4485 C   0  0  0  0  0  0  0  0  0  0  0  0
   17.7869  -10.8060  -14.2252 O   0  0  0  0  0  0  0  0  0  0  0  0
   18.8999  -10.0631  -16.1132 N   0  0  0  0  0  0  0  0  0  0  0  0
   19.5103   -8.9253  -15.4287 C   0  0  1  0  0  0  0  0  0  0  0  0
   21.0163   -9.1496  -15.4111 C   0  0  0  0  0  0  0  0  0  0  0  0
   21.7520   -7.7335  -14.5170 S   0  0  0  0  0  0  0  0  0  0  0  0
   19.2421   -7.6934  -16.2229 C   0  0  0  0  0  0  0  0  0  0  0  0
   19.1483   -7.7659  -17.4952 O   0  0  0  0  0  0  0  0  0  0  0  0
   17.3797   -4.2185  -19.4337 C   0  0  0  0  0  0  0  0  0  0  0  0
   17.0241   -4.2315  -17.9788 C   0  0  1  0  0  0  0  0  0  0  0  0
   15.5505   -3.9134  -17.8196 C   0  0  0  0  0  0  0  0  0  0  0  0
   17.4731   -5.3932  -17.1944 C   0  0  0  0  0  0  0  0  0  0  0  0
   18.6543   -5.2476  -16.3113 C   0  0  2  0  0  0  0  0  0  0  0  0
   19.0833   -6.4188  -15.6144 N   0  0  0  0  0  0  0  0  0  0  0  0
   18.5865   -4.0504  -15.4339 C   0  0  0  0  0  0  0  0  0  0  0  0
   18.5344   -4.1997  -14.0633 O   0  0  0  0  0  0  0  0  0  0  0  0
   18.5774   -2.9286  -15.9389 O   0  0  0  0  0  0  0  0  0  0  0  0
  1  2  1  0
  2  4  1  0
  3  2  2  0
  4  5  1  0
  6  7  1  1
  6  5  1  0
  8  6  1  0
  8  9  2  0
 10  8  1  0
 11 10  1  0
 11 14  1  0
 12 13  1  0
 11 12  1  6
 14 15  2  0
 14 21  1  0
 17 16  1  6
 17 18  1  0
 19 17  1  0
 20 19  1  1
 21 20  1  0
 22 23  1  0
 22 20  1  0
 24 22  2  0
M  END
$$$$
