QCL.pdb
     RDKit          3D

 24 23  0  0  1  0  0  0  0  0999 V2000
   21.4086  -18.7422  -18.5258 N   0  0  0  0  0  0  0  0  0  0  0  0
   21.7637  -17.3717  -18.6071 C   0  0  0  0  0  0  0  0  0  0  0  0
   21.1584  -16.6411  -19.4072 O   0  0  0  0  0  0  0  0  0  0  0  0
   22.8283  -16.8488  -17.7487 C   0  0  0  0  0  0  0  0  0  0  0  0
   23.3941  -17.7842  -16.7494 C   0  0  0  0  0  0  0  0  0  0  0  0
   24.8127  -18.1900  -16.9121 C   0  0  2  0  0  0  0  0  0  0  0  0
   25.2030  -18.5730  -18.2407 N   0  0  0  0  0  0  0  0  0  0  0  0
   25.2142  -19.2407  -15.9153 C   0  0  0  0  0  0  0  0  0  0  0  0
   24.4238  -20.1997  -15.7137 O   0  0  0  0  0  0  0  0  0  0  0  0
   26.4334  -19.1609  -15.2262 N   0  0  0  0  0  0  0  0  0  0  0  0
   26.8193  -20.1529  -14.2250 C   0  0  1  0  0  0  0  0  0  0  0  0
   28.3131  -19.9990  -13.9729 C   0  0  0  0  0  0  0  0  0  0  0  0
   28.7324  -21.1100  -12.5817 S   0  0  0  0  0  0  0  0  0  0  0  0
   26.1080  -19.8451  -12.9523 C   0  0  0  0  0  0  0  0  0  0  0  0
   26.1756  -18.6698  -12.4554 O   0  0  0  0  0  0  0  0  0  0  0  0
   20.9799  -21.1771  -11.7645 C   0  0  0  0  0  0  0  0  0  0  0  0
   22.3227  -20.5139  -11.7750 C   0  0  1  0  0  0  0  0  0  0  0  0
   22.1400  -19.0101  -11.7183 C   0  0  0  0  0  0  0  0  0  0  0  0
   23.3273  -21.0301  -10.8312 C   0  0  0  0  0  0  0  0  0  0  0  0
   24.7378  -20.6005  -10.9808 C   0  0  2  0  0  0  0  0  0  0  0  0
   25.3444  -20.8205  -12.2556 N   0  0  0  0  0  0  0  0  0  0  0  0
   25.6039  -21.0280   -9.8518 C   0  0  0  0  0  0  0  0  0  0  0  0
   26.6788  -21.8617  -10.0822 O   0  0  0  0  0  0  0  0  0  0  0  0
   25.3547  -20.6333   -8.7135 O   0  0  0  0  0  0  0  0  0  0  0  0
  1  2  1  0
  2  4  1  0
  3  2  2  0
  4  5  1  0
  6  7  1  6
  6  5  1  0
  8  6  1  0
  8  9  2  0
 10  8  1  0
 11 10  1  0
 11 14  1  0
 12 13  1  0
 11 12  1  1
 14 15  2  0
 14 21  1  0
 17 16  1  1
 17 18  1  0
 19 17  1  0
 20 19  1  6
 21 20  1  0
 22 23  1  0
 22 20  1  0
 24 22  2  0
M  END
$$$$
