QCL.pdb
     RDKit          3D

 24 23  0  0  1  0  0  0  0  0999 V2000
   16.2466  -16.3926  -15.9727 N   0  0  0  0  0  0  0  0  0  0  0  0
   16.9215  -16.0473  -17.1710 C   0  0  0  0  0  0  0  0  0  0  0  0
   17.4659  -16.9447  -17.8333 O   0  0  0  0  0  0  0  0  0  0  0  0
   16.9596  -14.6486  -17.6019 C   0  0  0  0  0  0  0  0  0  0  0  0
   17.9536  -13.7761  -16.9352 C   0  0  0  0  0  0  0  0  0  0  0  0
   19.3907  -14.0746  -17.1578 C   0  0  2  0  0  0  0  0  0  0  0  0
   19.8308  -15.3738  -16.7304 N   0  0  0  0  0  0  0  0  0  0  0  0
   20.2807  -13.0003  -16.5989 C   0  0  0  0  0  0  0  0  0  0  0  0
   20.3272  -12.8597  -15.3486 O   0  0  0  0  0  0  0  0  0  0  0  0
   21.0402  -12.1746  -17.4409 N   0  0  0  0  0  0  0  0  0  0  0  0
   21.9281  -11.1418  -16.9112 C   0  0  1  0  0  0  0  0  0  0  0  0
   23.0374  -10.9183  -17.9301 C   0  0  0  0  0  0  0  0  0  0  0  0
   24.0656   -9.5429  -17.3001 S   0  0  0  0  0  0  0  0  0  0  0  0
   21.1591   -9.8714  -16.7884 C   0  0  0  0  0  0  0  0  0  0  0  0
   20.5961   -9.3677  -17.8189 O   0  0  0  0  0  0  0  0  0  0  0  0
   18.5512  -10.1720  -14.1589 C   0  0  0  0  0  0  0  0  0  0  0  0
   18.2083   -8.7194  -14.2833 C   0  0  1  0  0  0  0  0  0  0  0  0
   18.3115   -8.0611  -12.9217 C   0  0  0  0  0  0  0  0  0  0  0  0
   18.8715   -7.9691  -15.3620 C   0  0  0  0  0  0  0  0  0  0  0  0
   20.3525   -7.9315  -15.4023 C   0  0  2  0  0  0  0  0  0  0  0  0
   21.0229   -9.1843  -15.5517 N   0  0  0  0  0  0  0  0  0  0  0  0
   20.9470   -7.0863  -14.3347 C   0  0  0  0  0  0  0  0  0  0  0  0
   20.5910   -5.7577  -14.2260 O   0  0  0  0  0  0  0  0  0  0  0  0
   21.7567   -7.5801  -13.5510 O   0  0  0  0  0  0  0  0  0  0  0  0
  1  2  1  0
  2  4  1  0
  3  2  2  0
  4  5  1  0
  6  7  1  1
  6  5  1  0
  8  6  1  0
  8  9  2  0
 10  8  1  0
 11 10  1  0
 11 14  1  0
 12 13  1  0
 11 12  1  6
 14 15  2  0
 14 21  1  0
 17 16  1  1
 17 18  1  0
 19 17  1  0
 20 19  1  1
 21 20  1  0
 22 23  1  0
 22 20  1  0
 24 22  2  0
M  END
$$$$
