QCL.pdb
     RDKit          3D

 24 23  0  0  1  0  0  0  0  0999 V2000
   31.7552  -24.6025  -15.5455 N   0  0  0  0  0  0  0  0  0  0  0  0
   31.4465  -24.8746  -16.9025 C   0  0  0  0  0  0  0  0  0  0  0  0
   31.3372  -26.0557  -17.2680 O   0  0  0  0  0  0  0  0  0  0  0  0
   31.2610  -23.7641  -17.8384 C   0  0  0  0  0  0  0  0  0  0  0  0
   30.4269  -22.6337  -17.3691 C   0  0  0  0  0  0  0  0  0  0  0  0
   29.0100  -22.9180  -17.0298 C   0  0  2  0  0  0  0  0  0  0  0  0
   28.2476  -23.5872  -18.0473 N   0  0  0  0  0  0  0  0  0  0  0  0
   28.2908  -21.6900  -16.5466 C   0  0  0  0  0  0  0  0  0  0  0  0
   28.7237  -20.5663  -16.9138 O   0  0  0  0  0  0  0  0  0  0  0  0
   27.1688  -21.7866  -15.7103 N   0  0  0  0  0  0  0  0  0  0  0  0
   26.2232  -20.6828  -15.5587 C   0  0  1  0  0  0  0  0  0  0  0  0
   25.6313  -20.3889  -16.9306 C   0  0  0  0  0  0  0  0  0  0  0  0
   24.4540  -19.0059  -16.7139 S   0  0  0  0  0  0  0  0  0  0  0  0
   25.1134  -21.1266  -14.6689 C   0  0  0  0  0  0  0  0  0  0  0  0
   24.4128  -22.1465  -14.9881 O   0  0  0  0  0  0  0  0  0  0  0  0
   25.5874  -20.0807   -9.1563 C   0  0  0  0  0  0  0  0  0  0  0  0
   25.3924  -20.6189  -10.5403 C   0  0  1  0  0  0  0  0  0  0  0  0
   26.0124  -21.9990  -10.6338 C   0  0  0  0  0  0  0  0  0  0  0  0
   24.0346  -20.5341  -11.1021 C   0  0  0  0  0  0  0  0  0  0  0  0
   23.8215  -20.9099  -12.5198 C   0  0  2  0  0  0  0  0  0  0  0  0
   24.7957  -20.4518  -13.4591 N   0  0  0  0  0  0  0  0  0  0  0  0
   22.4277  -20.6849  -12.9829 C   0  0  0  0  0  0  0  0  0  0  0  0
   21.3797  -21.3325  -12.3616 O   0  0  0  0  0  0  0  0  0  0  0  0
   22.2173  -19.9186  -13.9220 O   0  0  0  0  0  0  0  0  0  0  0  0
  1  2  1  0
  2  4  1  0
  3  2  2  0
  4  5  1  0
  6  7  1  6
  6  5  1  0
  8  6  1  0
  8  9  2  0
 10  8  1  0
 11 10  1  0
 11 14  1  0
 12 13  1  0
 11 12  1  6
 14 15  2  0
 14 21  1  0
 17 16  1  1
 17 18  1  0
 19 17  1  0
 20 19  1  1
 21 20  1  0
 22 23  1  0
 22 20  1  0
 24 22  2  0
M  END
$$$$
