QCL.pdb
     RDKit          3D

 24 23  0  0  1  0  0  0  0  0999 V2000
   11.8656  -11.2266  -12.7178 N   0  0  0  0  0  0  0  0  0  0  0  0
   12.1422  -12.6108  -12.5833 C   0  0  0  0  0  0  0  0  0  0  0  0
   11.3445  -13.4318  -13.0631 O   0  0  0  0  0  0  0  0  0  0  0  0
   13.3570  -13.0411  -11.8885 C   0  0  0  0  0  0  0  0  0  0  0  0
   14.2067  -11.9722  -11.3148 C   0  0  0  0  0  0  0  0  0  0  0  0
   15.5830  -11.8244  -11.8511 C   0  0  2  0  0  0  0  0  0  0  0  0
   16.4000  -13.0054  -11.8049 N   0  0  0  0  0  0  0  0  0  0  0  0
   16.3019  -10.6552  -11.2389 C   0  0  0  0  0  0  0  0  0  0  0  0
   17.0412  -10.8692  -10.2425 O   0  0  0  0  0  0  0  0  0  0  0  0
   16.1574   -9.3602  -11.7581 N   0  0  0  0  0  0  0  0  0  0  0  0
   16.8399   -8.2117  -11.1658 C   0  0  1  0  0  0  0  0  0  0  0  0
   17.6252   -7.5194  -12.2716 C   0  0  0  0  0  0  0  0  0  0  0  0
   18.4226   -6.0558  -11.5180 S   0  0  0  0  0  0  0  0  0  0  0  0
   15.8130   -7.2538  -10.6675 C   0  0  0  0  0  0  0  0  0  0  0  0
   14.8301   -6.9299  -11.4170 O   0  0  0  0  0  0  0  0  0  0  0  0
   12.2533   -5.2077   -7.1041 C   0  0  0  0  0  0  0  0  0  0  0  0
   13.6844   -4.8775   -6.8109 C   0  0  1  0  0  0  0  0  0  0  0  0
   13.8490   -4.6357   -5.3235 C   0  0  0  0  0  0  0  0  0  0  0  0
   14.7045   -5.7676   -7.3884 C   0  0  0  0  0  0  0  0  0  0  0  0
   14.9200   -5.7536   -8.8546 C   0  0  2  0  0  0  0  0  0  0  0  0
   15.8818   -6.6753   -9.3712 N   0  0  0  0  0  0  0  0  0  0  0  0
   15.0802   -4.3852   -9.4107 C   0  0  0  0  0  0  0  0  0  0  0  0
   13.9935   -3.7248   -9.9460 O   0  0  0  0  0  0  0  0  0  0  0  0
   16.1868   -3.8480   -9.3896 O   0  0  0  0  0  0  0  0  0  0  0  0
  1  2  1  0
  2  4  1  0
  3  2  2  0
  4  5  1  0
  6  7  1  1
  6  5  1  0
  8  6  1  0
  8  9  2  0
 10  8  1  0
 11 10  1  0
 11 14  1  0
 12 13  1  0
 11 12  1  6
 14 15  2  0
 14 21  1  0
 17 16  1  1
 17 18  1  0
 19 17  1  0
 20 19  1  1
 21 20  1  0
 22 23  1  0
 22 20  1  0
 24 22  2  0
M  END
$$$$
