FCG.pdb
     RDKit          3D

 22 22  0  0  1  0  0  0  0  0999 V2000
   26.2024  -20.9279  -17.2826 N   0  0  0  0  0  0  0  0  0  0  0  0
   26.3207  -20.0369  -16.1730 C   0  0  1  0  0  0  0  0  0  0  0  0
   25.1834  -19.0437  -16.2277 C   0  0  0  0  0  0  0  0  0  0  0  0
   25.4685  -18.1025  -17.3330 C   0  0  0  0  0  0  0  0  0  0  0  0
   24.5259  -17.1607  -17.6600 C   0  0  0  0  0  0  0  0  0  0  0  0
   24.7417  -16.2548  -18.6866 C   0  0  0  0  0  0  0  0  0  0  0  0
   25.9213  -16.3162  -19.3746 C   0  0  0  0  0  0  0  0  0  0  0  0
   26.8845  -17.2539  -19.0646 C   0  0  0  0  0  0  0  0  0  0  0  0
   26.6472  -18.1595  -18.0246 C   0  0  0  0  0  0  0  0  0  0  0  0
   26.3754  -20.7474  -14.8677 C   0  0  0  0  0  0  0  0  0  0  0  0
   25.6370  -21.7408  -14.6390 O   0  0  0  0  0  0  0  0  0  0  0  0
   27.2534  -20.3467  -13.8237 N   0  0  0  0  0  0  0  0  0  0  0  0
   27.2207  -20.8721  -12.4946 C   0  0  1  0  0  0  0  0  0  0  0  0
   28.5294  -20.6047  -11.7513 C   0  0  0  0  0  0  0  0  0  0  0  0
   29.8708  -21.4998  -12.5636 S   0  0  0  0  0  0  0  0  0  0  0  0
   26.0685  -20.3704  -11.7074 C   0  0  0  0  0  0  0  0  0  0  0  0
   25.6551  -19.2030  -11.8940 O   0  0  0  0  0  0  0  0  0  0  0  0
   25.4186  -21.1795  -10.7443 N   0  0  0  0  0  0  0  0  0  0  0  0
   24.2704  -20.7273   -9.9803 C   0  0  0  0  0  0  0  0  0  0  0  0
   23.0103  -20.9336  -10.7293 C   0  0  0  0  0  0  0  0  0  0  0  0
   21.8154  -20.5465  -10.1829 O   0  0  0  0  0  0  0  0  0  0  0  0
   23.0301  -21.4675  -11.8761 O   0  0  0  0  0  0  0  0  0  0  0  0
  2  1  1  6
  2 10  1  0
  3  2  1  0
  3  4  1  0
  4  5  2  0
  4  9  1  0
  5  6  1  0
  6  7  2  0
  8  7  1  0
  9  8  2  0
 10 11  2  0
 12 10  1  0
 12 13  1  0
 13 16  1  0
 13 14  1  1
 15 14  1  0
 16 18  1  0
 17 16  2  0
 18 19  1  0
 19 20  1  0
 20 22  2  0
 20 21  1  0
M  END
$$$$
