FCG.pdb
     RDKit          3D

 22 22  0  0  1  0  0  0  0  0999 V2000
   14.0415  -14.6846    5.0020 N   0  0  0  0  0  0  0  0  0  0  0  0
   15.2292  -15.3017    4.5046 C   0  0  1  0  0  0  0  0  0  0  0  0
   16.3888  -14.8966    5.3844 C   0  0  0  0  0  0  0  0  0  0  0  0
   17.3373  -14.1319    4.5450 C   0  0  0  0  0  0  0  0  0  0  0  0
   17.6231  -12.8337    4.8840 C   0  0  0  0  0  0  0  0  0  0  0  0
   18.5043  -12.0723    4.1324 C   0  0  0  0  0  0  0  0  0  0  0  0
   19.0896  -12.6425    3.0366 C   0  0  0  0  0  0  0  0  0  0  0  0
   18.8183  -13.9460    2.6753 C   0  0  0  0  0  0  0  0  0  0  0  0
   17.9258  -14.6977    3.4474 C   0  0  0  0  0  0  0  0  0  0  0  0
   15.1064  -16.7796    4.3928 C   0  0  0  0  0  0  0  0  0  0  0  0
   14.3484  -17.4269    5.1614 O   0  0  0  0  0  0  0  0  0  0  0  0
   15.8297  -17.5284    3.4245 N   0  0  0  0  0  0  0  0  0  0  0  0
   15.8084  -18.9543    3.3254 C   0  0  1  0  0  0  0  0  0  0  0  0
   16.1723  -19.4262    1.9177 C   0  0  0  0  0  0  0  0  0  0  0  0
   17.7665  -18.7219    1.4457 S   0  0  0  0  0  0  0  0  0  0  0  0
   16.6773  -19.6125    4.3308 C   0  0  0  0  0  0  0  0  0  0  0  0
   17.6679  -18.9972    4.7876 O   0  0  0  0  0  0  0  0  0  0  0  0
   16.4166  -20.9256    4.7916 N   0  0  0  0  0  0  0  0  0  0  0  0
   17.2826  -21.6191    5.7273 C   0  0  0  0  0  0  0  0  0  0  0  0
   17.8946  -22.8165    5.1083 C   0  0  0  0  0  0  0  0  0  0  0  0
   18.7758  -23.5844    5.8224 O   0  0  0  0  0  0  0  0  0  0  0  0
   17.6076  -23.1366    3.9184 O   0  0  0  0  0  0  0  0  0  0  0  0
  2  1  1  1
  2 10  1  0
  3  2  1  0
  3  4  1  0
  4  5  2  0
  4  9  1  0
  5  6  1  0
  6  7  2  0
  8  7  1  0
  9  8  2  0
 10 11  2  0
 12 10  1  0
 12 13  1  0
 13 16  1  0
 13 14  1  6
 15 14  1  0
 16 18  1  0
 17 16  2  0
 18 19  1  0
 19 20  1  0
 20 22  2  0
 20 21  1  0
M  END
$$$$
