FCG.pdb
     RDKit          3D

 22 22  0  0  1  0  0  0  0  0999 V2000
   28.0160  -20.5069  -15.7085 N   0  0  0  0  0  0  0  0  0  0  0  0
   27.0962  -19.8047  -14.8719 C   0  0  1  0  0  0  0  0  0  0  0  0
   26.2087  -18.9468  -15.7433 C   0  0  0  0  0  0  0  0  0  0  0  0
   26.9685  -17.7238  -16.0833 C   0  0  0  0  0  0  0  0  0  0  0  0
   27.0316  -16.7070  -15.1644 C   0  0  0  0  0  0  0  0  0  0  0  0
   27.7296  -15.5397  -15.4314 C   0  0  0  0  0  0  0  0  0  0  0  0
   28.3604  -15.4174  -16.6380 C   0  0  0  0  0  0  0  0  0  0  0  0
   28.3116  -16.4258  -17.5782 C   0  0  0  0  0  0  0  0  0  0  0  0
   27.6016  -17.5963  -17.2891 C   0  0  0  0  0  0  0  0  0  0  0  0
   26.3063  -20.7115  -13.9969 C   0  0  0  0  0  0  0  0  0  0  0  0
   25.8500  -21.7997  -14.4350 O   0  0  0  0  0  0  0  0  0  0  0  0
   26.0291  -20.4002  -12.6377 N   0  0  0  0  0  0  0  0  0  0  0  0
   25.0238  -21.0432  -11.8506 C   0  0  1  0  0  0  0  0  0  0  0  0
   25.2265  -20.7843  -10.3578 C   0  0  0  0  0  0  0  0  0  0  0  0
   26.9325  -21.1722   -9.9110 S   0  0  0  0  0  0  0  0  0  0  0  0
   23.6484  -20.6665  -12.2574 C   0  0  0  0  0  0  0  0  0  0  0  0
   23.2163  -19.5225  -11.9868 O   0  0  0  0  0  0  0  0  0  0  0  0
   22.8045  -21.5699  -12.9476 N   0  0  0  0  0  0  0  0  0  0  0  0
   21.4712  -21.2156  -13.3983 C   0  0  0  0  0  0  0  0  0  0  0  0
   20.4390  -21.6833  -12.4458 C   0  0  0  0  0  0  0  0  0  0  0  0
   19.1275  -21.3321  -12.6271 O   0  0  0  0  0  0  0  0  0  0  0  0
   20.7619  -22.4086  -11.4607 O   0  0  0  0  0  0  0  0  0  0  0  0
  2  1  1  6
  2 10  1  0
  3  2  1  0
  3  4  1  0
  4  5  2  0
  4  9  1  0
  5  6  1  0
  6  7  2  0
  8  7  1  0
  9  8  2  0
 10 11  2  0
 12 10  1  0
 12 13  1  0
 13 16  1  0
 13 14  1  1
 15 14  1  0
 16 18  1  0
 17 16  2  0
 18 19  1  0
 19 20  1  0
 20 22  2  0
 20 21  1  0
M  END
$$$$
