FCG.pdb
     RDKit          3D

 22 22  0  0  1  0  0  0  0  0999 V2000
   19.8066  -11.4823  -18.0285 N   0  0  0  0  0  0  0  0  0  0  0  0
   20.4729  -10.2204  -18.0803 C   0  0  1  0  0  0  0  0  0  0  0  0
   19.5208   -9.1945  -18.6495 C   0  0  0  0  0  0  0  0  0  0  0  0
   19.4465   -9.4196  -20.1099 C   0  0  0  0  0  0  0  0  0  0  0  0
   20.4470   -8.9247  -20.9075 C   0  0  0  0  0  0  0  0  0  0  0  0
   20.4267   -9.1069  -22.2814 C   0  0  0  0  0  0  0  0  0  0  0  0
   19.3826   -9.7948  -22.8337 C   0  0  0  0  0  0  0  0  0  0  0  0
   18.3647  -10.3020  -22.0527 C   0  0  0  0  0  0  0  0  0  0  0  0
   18.4038  -10.1073  -20.6677 C   0  0  0  0  0  0  0  0  0  0  0  0
   21.0165   -9.8020  -16.7608 C   0  0  0  0  0  0  0  0  0  0  0  0
   20.3780  -10.0197  -15.6982 O   0  0  0  0  0  0  0  0  0  0  0  0
   22.2697   -9.1427  -16.6328 N   0  0  0  0  0  0  0  0  0  0  0  0
   22.8231   -8.6934  -15.3937 C   0  0  1  0  0  0  0  0  0  0  0  0
   24.2085   -9.2902  -15.1466 C   0  0  0  0  0  0  0  0  0  0  0  0
   24.0483  -11.0614  -14.8339 S   0  0  0  0  0  0  0  0  0  0  0  0
   22.8723   -7.2149  -15.2897 C   0  0  0  0  0  0  0  0  0  0  0  0
   23.4162   -6.5500  -16.2010 O   0  0  0  0  0  0  0  0  0  0  0  0
   22.3179   -6.5297  -14.1817 N   0  0  0  0  0  0  0  0  0  0  0  0
   22.2671   -5.0818  -14.0952 C   0  0  0  0  0  0  0  0  0  0  0  0
   21.0437   -4.5469  -14.7343 C   0  0  0  0  0  0  0  0  0  0  0  0
   19.9181   -4.3259  -13.9856 O   0  0  0  0  0  0  0  0  0  0  0  0
   21.0310   -4.2912  -15.9733 O   0  0  0  0  0  0  0  0  0  0  0  0
  2  1  1  1
  2 10  1  0
  3  2  1  0
  3  4  1  0
  4  5  2  0
  4  9  1  0
  5  6  1  0
  6  7  2  0
  8  7  1  0
  9  8  2  0
 10 11  2  0
 12 10  1  0
 12 13  1  0
 13 16  1  0
 13 14  1  6
 15 14  1  0
 16 18  1  0
 17 16  2  0
 18 19  1  0
 19 20  1  0
 20 22  2  0
 20 21  1  0
M  END
$$$$
