FCG.pdb
     RDKit          3D

 22 22  0  0  1  0  0  0  0  0999 V2000
   24.5853  -28.1605  -20.6442 N   0  0  0  0  0  0  0  0  0  0  0  0
   24.3070  -27.2387  -19.5897 C   0  0  1  0  0  0  0  0  0  0  0  0
   23.8411  -25.9361  -20.1972 C   0  0  0  0  0  0  0  0  0  0  0  0
   24.9716  -25.3772  -20.9706 C   0  0  0  0  0  0  0  0  0  0  0  0
   25.9142  -24.6257  -20.3156 C   0  0  0  0  0  0  0  0  0  0  0  0
   26.9934  -24.0785  -20.9917 C   0  0  0  0  0  0  0  0  0  0  0  0
   27.1037  -24.3025  -22.3357 C   0  0  0  0  0  0  0  0  0  0  0  0
   26.1689  -25.0547  -23.0166 C   0  0  0  0  0  0  0  0  0  0  0  0
   25.0868  -25.5983  -22.3155 C   0  0  0  0  0  0  0  0  0  0  0  0
   23.3310  -27.7717  -18.6021 C   0  0  0  0  0  0  0  0  0  0  0  0
   22.6153  -28.7710  -18.8727 O   0  0  0  0  0  0  0  0  0  0  0  0
   23.1580  -27.1874  -17.3176 N   0  0  0  0  0  0  0  0  0  0  0  0
   22.3428  -27.7407  -16.2818 C   0  0  1  0  0  0  0  0  0  0  0  0
   22.8129  -29.1391  -15.8818 C   0  0  0  0  0  0  0  0  0  0  0  0
   22.1476  -30.3482  -17.0463 S   0  0  0  0  0  0  0  0  0  0  0  0
   22.2577  -26.8642  -15.0886 C   0  0  0  0  0  0  0  0  0  0  0  0
   23.2989  -26.5900  -14.4488 O   0  0  0  0  0  0  0  0  0  0  0  0
   21.0242  -26.3252  -14.6497 N   0  0  0  0  0  0  0  0  0  0  0  0
   20.9047  -25.4888  -13.4697 C   0  0  0  0  0  0  0  0  0  0  0  0
   19.5202  -24.9937  -13.2987 C   0  0  0  0  0  0  0  0  0  0  0  0
   19.1657  -24.3257  -12.1566 O   0  0  0  0  0  0  0  0  0  0  0  0
   18.6581  -25.1845  -14.2049 O   0  0  0  0  0  0  0  0  0  0  0  0
  2  1  1  6
  2 10  1  0
  3  2  1  0
  3  4  1  0
  4  5  2  0
  4  9  1  0
  5  6  1  0
  6  7  2  0
  8  7  1  0
  9  8  2  0
 10 11  2  0
 12 10  1  0
 12 13  1  0
 13 16  1  0
 13 14  1  1
 15 14  1  0
 16 18  1  0
 17 16  2  0
 18 19  1  0
 19 20  1  0
 20 22  2  0
 20 21  1  0
M  END
$$$$
