FCG.pdb
     RDKit          3D

 22 22  0  0  1  0  0  0  0  0999 V2000
   24.6730    0.6697   -9.0060 N   0  0  0  0  0  0  0  0  0  0  0  0
   25.1075    1.4354   -7.8817 C   0  0  1  0  0  0  0  0  0  0  0  0
   23.9323    1.6416   -6.9547 C   0  0  0  0  0  0  0  0  0  0  0  0
   23.0666    2.6782   -7.5586 C   0  0  0  0  0  0  0  0  0  0  0  0
   21.9953    2.2846   -8.3199 C   0  0  0  0  0  0  0  0  0  0  0  0
   21.1524    3.2140   -8.9087 C   0  0  0  0  0  0  0  0  0  0  0  0
   21.4090    4.5428   -8.7161 C   0  0  0  0  0  0  0  0  0  0  0  0
   22.4798    4.9634   -7.9549 C   0  0  0  0  0  0  0  0  0  0  0  0
   23.3189    4.0092   -7.3690 C   0  0  0  0  0  0  0  0  0  0  0  0
   26.2669    0.8220   -7.1810 C   0  0  0  0  0  0  0  0  0  0  0  0
   26.4339   -0.4256   -7.1738 O   0  0  0  0  0  0  0  0  0  0  0  0
   27.2346    1.6028   -6.4917 N   0  0  0  0  0  0  0  0  0  0  0  0
   28.4428    1.0823   -5.9323 C   0  0  1  0  0  0  0  0  0  0  0  0
   29.3099    0.4070   -6.9948 C   0  0  0  0  0  0  0  0  0  0  0  0
   30.7614   -0.3215   -6.2058 S   0  0  0  0  0  0  0  0  0  0  0  0
   29.2263    2.1087   -5.2031 C   0  0  0  0  0  0  0  0  0  0  0  0
   29.6147    3.1339   -5.8085 O   0  0  0  0  0  0  0  0  0  0  0  0
   29.5496    1.9609   -3.8326 N   0  0  0  0  0  0  0  0  0  0  0  0
   30.2368    2.9866   -3.0697 C   0  0  0  0  0  0  0  0  0  0  0  0
   29.6023    3.1903   -1.7479 C   0  0  0  0  0  0  0  0  0  0  0  0
   30.1222    4.1042   -0.8699 O   0  0  0  0  0  0  0  0  0  0  0  0
   28.5781    2.5227   -1.4223 O   0  0  0  0  0  0  0  0  0  0  0  0
  2  1  1  6
  2 10  1  0
  3  2  1  0
  3  4  1  0
  4  5  2  0
  4  9  1  0
  5  6  1  0
  6  7  2  0
  8  7  1  0
  9  8  2  0
 10 11  2  0
 12 10  1  0
 12 13  1  0
 13 16  1  0
 13 14  1  6
 15 14  1  0
 16 18  1  0
 17 16  2  0
 18 19  1  0
 19 20  1  0
 20 22  2  0
 20 21  1  0
M  END
$$$$
