FCG.pdb
     RDKit          3D

 22 22  0  0  1  0  0  0  0  0999 V2000
   28.7115  -20.0160  -14.6103 N   0  0  0  0  0  0  0  0  0  0  0  0
   27.4386  -19.5444  -14.1668 C   0  0  1  0  0  0  0  0  0  0  0  0
   26.6454  -19.0915  -15.3704 C   0  0  0  0  0  0  0  0  0  0  0  0
   27.2290  -17.8125  -15.8313 C   0  0  0  0  0  0  0  0  0  0  0  0
   27.0266  -16.6834  -15.0789 C   0  0  0  0  0  0  0  0  0  0  0  0
   27.5507  -15.4596  -15.4646 C   0  0  0  0  0  0  0  0  0  0  0  0
   28.2800  -15.3961  -16.6190 C   0  0  0  0  0  0  0  0  0  0  0  0
   28.4973  -16.5175  -17.3927 C   0  0  0  0  0  0  0  0  0  0  0  0
   27.9596  -17.7435  -16.9857 C   0  0  0  0  0  0  0  0  0  0  0  0
   26.6996  -20.5533  -13.3620 C   0  0  0  0  0  0  0  0  0  0  0  0
   27.2946  -21.5393  -12.8540 O   0  0  0  0  0  0  0  0  0  0  0  0
   25.3006  -20.4576  -13.1276 N   0  0  0  0  0  0  0  0  0  0  0  0
   24.5490  -21.3818  -12.3374 C   0  0  1  0  0  0  0  0  0  0  0  0
   25.0857  -21.4674  -10.9086 C   0  0  0  0  0  0  0  0  0  0  0  0
   24.0550  -20.4583   -9.8225 S   0  0  0  0  0  0  0  0  0  0  0  0
   23.0973  -21.0790  -12.3259 C   0  0  0  0  0  0  0  0  0  0  0  0
   22.7134  -19.9053  -12.1170 O   0  0  0  0  0  0  0  0  0  0  0  0
   22.1270  -22.0863  -12.5458 N   0  0  0  0  0  0  0  0  0  0  0  0
   20.8070  -21.8061  -13.0801 C   0  0  0  0  0  0  0  0  0  0  0  0
   19.8171  -21.6143  -11.9962 C   0  0  0  0  0  0  0  0  0  0  0  0
   20.2143  -21.6653  -10.6863 O   0  0  0  0  0  0  0  0  0  0  0  0
   18.6009  -21.4025  -12.2733 O   0  0  0  0  0  0  0  0  0  0  0  0
  2  1  1  6
  2 10  1  0
  3  2  1  0
  3  4  1  0
  4  5  2  0
  4  9  1  0
  5  6  1  0
  6  7  2  0
  8  7  1  0
  9  8  2  0
 10 11  2  0
 12 10  1  0
 12 13  1  0
 13 16  1  0
 13 14  1  1
 15 14  1  0
 16 18  1  0
 17 16  2  0
 18 19  1  0
 19 20  1  0
 20 22  2  0
 20 21  1  0
M  END
$$$$
