FCG.pdb
     RDKit          3D

 22 22  0  0  1  0  0  0  0  0999 V2000
   22.4001  -18.6302  -15.8092 N   0  0  0  0  0  0  0  0  0  0  0  0
   21.8860  -17.3094  -15.6358 C   0  0  1  0  0  0  0  0  0  0  0  0
   20.6087  -17.3897  -14.8327 C   0  0  0  0  0  0  0  0  0  0  0  0
   19.5126  -17.7123  -15.7725 C   0  0  0  0  0  0  0  0  0  0  0  0
   19.2134  -19.0293  -16.0135 C   0  0  0  0  0  0  0  0  0  0  0  0
   18.1966  -19.3872  -16.8847 C   0  0  0  0  0  0  0  0  0  0  0  0
   17.4897  -18.3958  -17.5060 C   0  0  0  0  0  0  0  0  0  0  0  0
   17.7716  -17.0643  -17.2801 C   0  0  0  0  0  0  0  0  0  0  0  0
   18.8022  -16.7240  -16.3969 C   0  0  0  0  0  0  0  0  0  0  0  0
   22.8731  -16.3840  -15.0186 C   0  0  0  0  0  0  0  0  0  0  0  0
   23.8283  -16.8230  -14.3263 O   0  0  0  0  0  0  0  0  0  0  0  0
   22.7902  -14.9735  -15.1762 N   0  0  0  0  0  0  0  0  0  0  0  0
   23.7657  -14.0478  -14.6914 C   0  0  1  0  0  0  0  0  0  0  0  0
   25.1434  -14.3123  -15.2987 C   0  0  0  0  0  0  0  0  0  0  0  0
   25.0369  -14.1872  -17.0969 S   0  0  0  0  0  0  0  0  0  0  0  0
   23.3710  -12.6343  -14.9040 C   0  0  0  0  0  0  0  0  0  0  0  0
   22.7830  -12.3101  -15.9613 O   0  0  0  0  0  0  0  0  0  0  0  0
   23.6421  -11.6345  -13.9389 N   0  0  0  0  0  0  0  0  0  0  0  0
   23.2534  -10.2467  -14.1108 C   0  0  0  0  0  0  0  0  0  0  0  0
   23.9529   -9.6303  -15.2606 C   0  0  0  0  0  0  0  0  0  0  0  0
   23.3938   -8.5635  -15.9131 O   0  0  0  0  0  0  0  0  0  0  0  0
   25.0690  -10.0845  -15.6463 O   0  0  0  0  0  0  0  0  0  0  0  0
  2  1  1  1
  2 10  1  0
  3  2  1  0
  3  4  1  0
  4  5  2  0
  4  9  1  0
  5  6  1  0
  6  7  2  0
  8  7  1  0
  9  8  2  0
 10 11  2  0
 12 10  1  0
 12 13  1  0
 13 16  1  0
 13 14  1  6
 15 14  1  0
 16 18  1  0
 17 16  2  0
 18 19  1  0
 19 20  1  0
 20 22  2  0
 20 21  1  0
M  END
$$$$
