FCG.pdb
     RDKit          3D

 22 22  0  0  1  0  0  0  0  0999 V2000
   23.2714  -20.3875  -13.3350 N   0  0  0  0  0  0  0  0  0  0  0  0
   24.6786  -20.4476  -13.0999 C   0  0  1  0  0  0  0  0  0  0  0  0
   24.9713  -21.6432  -12.2237 C   0  0  0  0  0  0  0  0  0  0  0  0
   24.8579  -21.2009  -10.8165 C   0  0  0  0  0  0  0  0  0  0  0  0
   25.9614  -20.6693  -10.1988 C   0  0  0  0  0  0  0  0  0  0  0  0
   25.9104  -20.2394   -8.8821 C   0  0  0  0  0  0  0  0  0  0  0  0
   24.7300  -20.3553   -8.2025 C   0  0  0  0  0  0  0  0  0  0  0  0
   23.6066  -20.8865   -8.8017 C   0  0  0  0  0  0  0  0  0  0  0  0
   23.6791  -21.3147  -10.1318 C   0  0  0  0  0  0  0  0  0  0  0  0
   25.4716  -20.4733  -14.3578 C   0  0  0  0  0  0  0  0  0  0  0  0
   24.9450  -20.8136  -15.4492 O   0  0  0  0  0  0  0  0  0  0  0  0
   26.8481  -20.1192  -14.3924 N   0  0  0  0  0  0  0  0  0  0  0  0
   27.6125  -19.9650  -15.5905 C   0  0  1  0  0  0  0  0  0  0  0  0
   28.5781  -18.7838  -15.4939 C   0  0  0  0  0  0  0  0  0  0  0  0
   27.6435  -17.2743  -15.1647 S   0  0  0  0  0  0  0  0  0  0  0  0
   28.3432  -21.1990  -15.9679 C   0  0  0  0  0  0  0  0  0  0  0  0
   29.1018  -21.7462  -15.1350 O   0  0  0  0  0  0  0  0  0  0  0  0
   28.2063  -21.7795  -17.2520 N   0  0  0  0  0  0  0  0  0  0  0  0
   28.9975  -22.9136  -17.6928 C   0  0  0  0  0  0  0  0  0  0  0  0
   28.1983  -24.1597  -17.6936 C   0  0  0  0  0  0  0  0  0  0  0  0
   28.7679  -25.3407  -18.0902 O   0  0  0  0  0  0  0  0  0  0  0  0
   26.9870  -24.1409  -17.3288 O   0  0  0  0  0  0  0  0  0  0  0  0
  2  1  1  6
  2 10  1  0
  3  2  1  0
  3  4  1  0
  4  5  2  0
  4  9  1  0
  5  6  1  0
  6  7  2  0
  8  7  1  0
  9  8  2  0
 10 11  2  0
 12 10  1  0
 12 13  1  0
 13 16  1  0
 13 14  1  1
 15 14  1  0
 16 18  1  0
 17 16  2  0
 18 19  1  0
 19 20  1  0
 20 22  2  0
 20 21  1  0
M  END
$$$$
