FCG.pdb
     RDKit          3D

 22 22  0  0  1  0  0  0  0  0999 V2000
   27.8822  -11.4858  -17.7516 N   0  0  0  0  0  0  0  0  0  0  0  0
   27.4448  -10.1628  -17.4392 C   0  0  1  0  0  0  0  0  0  0  0  0
   27.8747   -9.2364  -18.5526 C   0  0  0  0  0  0  0  0  0  0  0  0
   29.3505   -9.1426  -18.5075 C   0  0  0  0  0  0  0  0  0  0  0  0
   29.9276   -8.1316  -17.7815 C   0  0  0  0  0  0  0  0  0  0  0  0
   31.3050   -7.9975  -17.7056 C   0  0  0  0  0  0  0  0  0  0  0  0
   32.0867   -8.8987  -18.3730 C   0  0  0  0  0  0  0  0  0  0  0  0
   31.5301   -9.9239  -19.1095 C   0  0  0  0  0  0  0  0  0  0  0  0
   30.1374  -10.0418  -19.1734 C   0  0  0  0  0  0  0  0  0  0  0  0
   25.9814  -10.0853  -17.1859 C   0  0  0  0  0  0  0  0  0  0  0  0
   25.1638  -10.7070  -17.9134 O   0  0  0  0  0  0  0  0  0  0  0  0
   25.4368   -9.3147  -16.1224 N   0  0  0  0  0  0  0  0  0  0  0  0
   24.0451   -9.2498  -15.8023 C   0  0  1  0  0  0  0  0  0  0  0  0
   23.6617  -10.2859  -14.7458 C   0  0  0  0  0  0  0  0  0  0  0  0
   24.1392  -11.9296  -15.3210 S   0  0  0  0  0  0  0  0  0  0  0  0
   23.6169   -7.8956  -15.3759 C   0  0  0  0  0  0  0  0  0  0  0  0
   24.3967   -7.1862  -14.6996 O   0  0  0  0  0  0  0  0  0  0  0  0
   22.3429   -7.3789  -15.7142 N   0  0  0  0  0  0  0  0  0  0  0  0
   21.9569   -6.0033  -15.4586 C   0  0  0  0  0  0  0  0  0  0  0  0
   20.5325   -5.7735  -15.7898 C   0  0  0  0  0  0  0  0  0  0  0  0
   19.9233   -4.6016  -15.4269 O   0  0  0  0  0  0  0  0  0  0  0  0
   19.8710   -6.6567  -16.4089 O   0  0  0  0  0  0  0  0  0  0  0  0
  2  1  1  6
  2 10  1  0
  3  2  1  0
  3  4  1  0
  4  5  2  0
  4  9  1  0
  5  6  1  0
  6  7  2  0
  8  7  1  0
  9  8  2  0
 10 11  2  0
 12 10  1  0
 12 13  1  0
 13 16  1  0
 13 14  1  1
 15 14  1  0
 16 18  1  0
 17 16  2  0
 18 19  1  0
 19 20  1  0
 20 22  2  0
 20 21  1  0
M  END
$$$$
