FCG.pdb
     RDKit          3D

 22 22  0  0  1  0  0  0  0  0999 V2000
   31.2666   -7.0270  -17.1725 N   0  0  0  0  0  0  0  0  0  0  0  0
   30.4447   -7.6243  -18.1759 C   0  0  1  0  0  0  0  0  0  0  0  0
   31.2449   -7.7351  -19.4527 C   0  0  0  0  0  0  0  0  0  0  0  0
   31.4476   -6.3640  -19.9703 C   0  0  0  0  0  0  0  0  0  0  0  0
   32.6553   -5.7484  -19.7585 C   0  0  0  0  0  0  0  0  0  0  0  0
   32.8984   -4.4649  -20.2217 C   0  0  0  0  0  0  0  0  0  0  0  0
   31.9045   -3.8162  -20.9000 C   0  0  0  0  0  0  0  0  0  0  0  0
   30.6818   -4.4141  -21.1256 C   0  0  0  0  0  0  0  0  0  0  0  0
   30.4565   -5.7104  -20.6497 C   0  0  0  0  0  0  0  0  0  0  0  0
   29.8850   -8.9364  -17.7554 C   0  0  0  0  0  0  0  0  0  0  0  0
   30.3529   -9.5524  -16.7625 O   0  0  0  0  0  0  0  0  0  0  0  0
   28.8061   -9.5551  -18.4442 N   0  0  0  0  0  0  0  0  0  0  0  0
   28.0747  -10.6813  -17.9542 C   0  0  1  0  0  0  0  0  0  0  0  0
   27.4206  -10.3839  -16.6049 C   0  0  0  0  0  0  0  0  0  0  0  0
   26.9010  -11.9342  -15.8389 S   0  0  0  0  0  0  0  0  0  0  0  0
   27.0632  -11.1733  -18.9205 C   0  0  0  0  0  0  0  0  0  0  0  0
   26.1215  -10.4224  -19.2641 O   0  0  0  0  0  0  0  0  0  0  0  0
   27.1326  -12.4767  -19.4691 N   0  0  0  0  0  0  0  0  0  0  0  0
   27.1833  -13.6745  -18.6512 C   0  0  0  0  0  0  0  0  0  0  0  0
   27.8687  -14.7802  -19.3577 C   0  0  0  0  0  0  0  0  0  0  0  0
   29.2367  -14.8119  -19.4201 O   0  0  0  0  0  0  0  0  0  0  0  0
   27.1959  -15.7004  -19.9067 O   0  0  0  0  0  0  0  0  0  0  0  0
  2  1  1  1
  2 10  1  0
  3  2  1  0
  3  4  1  0
  4  5  2  0
  4  9  1  0
  5  6  1  0
  6  7  2  0
  8  7  1  0
  9  8  2  0
 10 11  2  0
 12 10  1  0
 12 13  1  0
 13 16  1  0
 13 14  1  1
 15 14  1  0
 16 18  1  0
 17 16  2  0
 18 19  1  0
 19 20  1  0
 20 22  2  0
 20 21  1  0
M  END
$$$$
