FCG.pdb
     RDKit          3D

 22 22  0  0  1  0  0  0  0  0999 V2000
   27.5787  -21.6819  -11.0798 N   0  0  0  0  0  0  0  0  0  0  0  0
   26.2894  -21.0689  -11.1115 C   0  0  1  0  0  0  0  0  0  0  0  0
   26.3808  -19.7173  -10.4422 C   0  0  0  0  0  0  0  0  0  0  0  0
   26.4243  -19.9470   -8.9814 C   0  0  0  0  0  0  0  0  0  0  0  0
   25.4104  -20.6597   -8.3929 C   0  0  0  0  0  0  0  0  0  0  0  0
   25.4017  -20.9038   -7.0286 C   0  0  0  0  0  0  0  0  0  0  0  0
   26.4309  -20.4176   -6.2716 C   0  0  0  0  0  0  0  0  0  0  0  0
   27.4618  -19.6982   -6.8401 C   0  0  0  0  0  0  0  0  0  0  0  0
   27.4518  -19.4627   -8.2193 C   0  0  0  0  0  0  0  0  0  0  0  0
   25.7322  -20.9712  -12.4868 C   0  0  0  0  0  0  0  0  0  0  0  0
   26.4583  -20.6330  -13.4578 O   0  0  0  0  0  0  0  0  0  0  0  0
   24.3680  -21.2513  -12.7727 N   0  0  0  0  0  0  0  0  0  0  0  0
   23.7869  -21.1891  -14.0773 C   0  0  1  0  0  0  0  0  0  0  0  0
   23.0454  -22.4797  -14.4254 C   0  0  0  0  0  0  0  0  0  0  0  0
   24.1729  -23.8799  -14.2565 S   0  0  0  0  0  0  0  0  0  0  0  0
   22.8942  -20.0180  -14.2526 C   0  0  0  0  0  0  0  0  0  0  0  0
   22.0987  -19.7058  -13.3370 O   0  0  0  0  0  0  0  0  0  0  0  0
   22.9162  -19.2378  -15.4340 N   0  0  0  0  0  0  0  0  0  0  0  0
   22.0942  -18.0552  -15.6131 C   0  0  0  0  0  0  0  0  0  0  0  0
   20.7221  -18.4127  -16.0387 C   0  0  0  0  0  0  0  0  0  0  0  0
   20.3739  -19.7275  -16.2007 O   0  0  0  0  0  0  0  0  0  0  0  0
   19.8651  -17.5074  -16.2547 O   0  0  0  0  0  0  0  0  0  0  0  0
  2  1  1  6
  2 10  1  0
  3  2  1  0
  3  4  1  0
  4  5  2  0
  4  9  1  0
  5  6  1  0
  6  7  2  0
  8  7  1  0
  9  8  2  0
 10 11  2  0
 12 10  1  0
 12 13  1  0
 13 16  1  0
 13 14  1  1
 15 14  1  0
 16 18  1  0
 17 16  2  0
 18 19  1  0
 19 20  1  0
 20 22  2  0
 20 21  1  0
M  END
$$$$
