YTN.pdb
     RDKit          3D

 28 28  0  0  1  0  0  0  0  0999 V2000
    5.1807  -10.4653   28.2078 O   0  0  0  0  0  0  0  0  0  0  0  0
    5.9272  -11.3945   27.4674 C   0  0  0  0  0  0  0  0  0  0  0  0
    5.8107  -11.4920   26.1000 C   0  0  0  0  0  0  0  0  0  0  0  0
    6.5662  -12.4268   25.3842 C   0  0  0  0  0  0  0  0  0  0  0  0
    7.4374  -13.2630   26.0363 C   0  0  0  0  0  0  0  0  0  0  0  0
    8.2396  -14.2559   25.2739 C   0  0  0  0  0  0  0  0  0  0  0  0
    7.2578  -15.2145   24.6334 C   0  0  2  0  0  0  0  0  0  0  0  0
    6.5148  -15.9554   25.6037 N   0  0  0  0  0  0  0  0  0  0  0  0
    7.9247  -16.1753   23.7191 C   0  0  0  0  0  0  0  0  0  0  0  0
    8.0778  -17.3940   24.0194 O   0  0  0  0  0  0  0  0  0  0  0  0
    7.5505  -13.1600   27.4137 C   0  0  0  0  0  0  0  0  0  0  0  0
    6.8025  -12.2345   28.1228 C   0  0  0  0  0  0  0  0  0  0  0  0
    7.1940  -16.3770   19.9607 C   0  0  0  0  0  0  0  0  0  0  0  0
    8.6998  -16.3717   20.1076 C   0  0  1  0  0  0  0  0  0  0  0  0
    9.2649  -15.1604   19.7035 O   0  0  0  0  0  0  0  0  0  0  0  0
    9.1001  -16.6996   21.5531 C   0  0  2  0  0  0  0  0  0  0  0  0
    8.4355  -15.7692   22.4355 N   0  0  0  0  0  0  0  0  0  0  0  0
   10.5784  -16.5534   21.6060 C   0  0  0  0  0  0  0  0  0  0  0  0
   11.0373  -15.3922   21.7508 O   0  0  0  0  0  0  0  0  0  0  0  0
   13.2158  -16.2296   24.2468 N   0  0  0  0  0  0  0  0  0  0  0  0
   13.0812  -17.6341   24.0640 C   0  0  0  0  0  0  0  0  0  0  0  0
   12.6036  -18.2837   25.0251 O   0  0  0  0  0  0  0  0  0  0  0  0
   13.5078  -18.1975   22.7807 C   0  0  0  0  0  0  0  0  0  0  0  0
   12.9268  -17.4925   21.5826 C   0  0  2  0  0  0  0  0  0  0  0  0
   11.4832  -17.6205   21.5053 N   0  0  0  0  0  0  0  0  0  0  0  0
   13.4854  -18.0363   20.3177 C   0  0  0  0  0  0  0  0  0  0  0  0
   12.7238  -18.6701   19.3467 O   0  0  0  0  0  0  0  0  0  0  0  0
   14.7183  -17.9240   20.0986 O   0  0  0  0  0  0  0  0  0  0  0  0
  2  1  1  0
  3  2  2  0
  4  3  1  0
  5 11  1  0
  5  4  2  0
  6  7  1  0
  6  5  1  0
  7  8  1  1
  7  9  1  0
  9 10  2  0
 11 12  2  0
 12  2  1  0
 14 13  1  1
 14 15  1  0
 16 14  1  0
 17  9  1  0
 16 17  1  1
 18 16  1  0
 18 19  2  0
 20 21  1  0
 21 23  1  0
 22 21  2  0
 24 23  1  1
 24 26  1  0
 24 25  1  0
 25 18  1  0
 26 27  1  0
 28 26  2  0
M  END
$$$$
