YTN.pdb
     RDKit          3D

 28 28  0  0  1  0  0  0  0  0999 V2000
   16.6618  -22.9602    8.9671 O   0  0  0  0  0  0  0  0  0  0  0  0
   16.5236  -22.5245   10.2937 C   0  0  0  0  0  0  0  0  0  0  0  0
   17.4239  -21.6574   10.8685 C   0  0  0  0  0  0  0  0  0  0  0  0
   17.2643  -21.2375   12.1933 C   0  0  0  0  0  0  0  0  0  0  0  0
   16.2047  -21.6849   12.9420 C   0  0  0  0  0  0  0  0  0  0  0  0
   16.0365  -21.2375   14.3499 C   0  0  0  0  0  0  0  0  0  0  0  0
   14.8630  -20.2806   14.3691 C   0  0  2  0  0  0  0  0  0  0  0  0
   15.1431  -19.0681   13.6663 N   0  0  0  0  0  0  0  0  0  0  0  0
   14.4408  -19.9361   15.7500 C   0  0  0  0  0  0  0  0  0  0  0  0
   14.7986  -18.8627   16.3147 O   0  0  0  0  0  0  0  0  0  0  0  0
   15.3010  -22.5581   12.3574 C   0  0  0  0  0  0  0  0  0  0  0  0
   15.4588  -22.9741   11.0457 C   0  0  0  0  0  0  0  0  0  0  0  0
   11.4708  -20.8491   19.6222 C   0  0  0  0  0  0  0  0  0  0  0  0
   11.8334  -21.0310   18.1646 C   0  0  1  0  0  0  0  0  0  0  0  0
   10.9165  -20.4131   17.3118 O   0  0  0  0  0  0  0  0  0  0  0  0
   13.2544  -20.5154   17.8958 C   0  0  2  0  0  0  0  0  0  0  0  0
   13.5973  -20.8095   16.5240 N   0  0  0  0  0  0  0  0  0  0  0  0
   14.1336  -21.2367   18.8531 C   0  0  0  0  0  0  0  0  0  0  0  0
   14.4141  -22.4330   18.5882 O   0  0  0  0  0  0  0  0  0  0  0  0
   18.6088  -20.5476   19.9960 N   0  0  0  0  0  0  0  0  0  0  0  0
   17.4604  -19.8344   20.4395 C   0  0  0  0  0  0  0  0  0  0  0  0
   17.2447  -18.7229   19.8993 O   0  0  0  0  0  0  0  0  0  0  0  0
   16.6349  -20.4527   21.4799 C   0  0  0  0  0  0  0  0  0  0  0  0
   15.5526  -21.3533   20.9436 C   0  0  2  0  0  0  0  0  0  0  0  0
   14.6639  -20.6702   20.0216 N   0  0  0  0  0  0  0  0  0  0  0  0
   14.7134  -21.8962   22.0432 C   0  0  0  0  0  0  0  0  0  0  0  0
   15.0723  -22.9863   22.8225 O   0  0  0  0  0  0  0  0  0  0  0  0
   13.6107  -21.3475   22.2953 O   0  0  0  0  0  0  0  0  0  0  0  0
  2  1  1  0
  3  2  2  0
  4  3  1  0
  5 11  1  0
  5  4  2  0
  6  7  1  0
  6  5  1  0
  7  8  1  6
  7  9  1  0
  9 10  2  0
 11 12  2  0
 12  2  1  0
 14 13  1  1
 14 15  1  0
 16 14  1  0
 17  9  1  0
 16 17  1  6
 18 16  1  0
 18 19  2  0
 20 21  1  0
 21 23  1  0
 22 21  2  0
 24 23  1  1
 24 26  1  0
 24 25  1  0
 25 18  1  0
 26 27  1  0
 28 26  2  0
M  END
$$$$
