YTN.pdb
     RDKit          3D

 28 28  0  0  1  0  0  0  0  0999 V2000
   11.2718  -14.4764   29.6369 O   0  0  0  0  0  0  0  0  0  0  0  0
   10.2911  -14.1453   28.6896 C   0  0  0  0  0  0  0  0  0  0  0  0
   10.4149  -14.4982   27.3656 C   0  0  0  0  0  0  0  0  0  0  0  0
    9.4232  -14.1564   26.4401 C   0  0  0  0  0  0  0  0  0  0  0  0
    8.3086  -13.4621   26.8394 C   0  0  0  0  0  0  0  0  0  0  0  0
    7.2555  -13.0996   25.8544 C   0  0  0  0  0  0  0  0  0  0  0  0
    6.4784  -14.3650   25.5572 C   0  0  2  0  0  0  0  0  0  0  0  0
    6.2182  -15.1288   26.7367 N   0  0  0  0  0  0  0  0  0  0  0  0
    7.1755  -15.2361   24.5780 C   0  0  0  0  0  0  0  0  0  0  0  0
    7.5563  -16.4060   24.8702 O   0  0  0  0  0  0  0  0  0  0  0  0
    8.1896  -13.1095   28.1744 C   0  0  0  0  0  0  0  0  0  0  0  0
    9.1714  -13.4478   29.0910 C   0  0  0  0  0  0  0  0  0  0  0  0
    8.7131  -15.8378   19.8508 C   0  0  0  0  0  0  0  0  0  0  0  0
    8.0088  -14.9934   20.8900 C   0  0  1  0  0  0  0  0  0  0  0  0
    6.6767  -14.7448   20.5532 O   0  0  0  0  0  0  0  0  0  0  0  0
    8.1029  -15.6537   22.2729 C   0  0  2  0  0  0  0  0  0  0  0  0
    7.4568  -14.7939   23.2368 N   0  0  0  0  0  0  0  0  0  0  0  0
    9.5555  -15.8038   22.5509 C   0  0  0  0  0  0  0  0  0  0  0  0
   10.1897  -14.7680   22.8745 O   0  0  0  0  0  0  0  0  0  0  0  0
   10.4517  -19.9306   24.6136 N   0  0  0  0  0  0  0  0  0  0  0  0
   11.4617  -18.9307   24.5507 C   0  0  0  0  0  0  0  0  0  0  0  0
   11.8177  -18.4209   25.6403 O   0  0  0  0  0  0  0  0  0  0  0  0
   11.9956  -18.5844   23.2312 C   0  0  0  0  0  0  0  0  0  0  0  0
   11.6619  -17.1837   22.7875 C   0  0  2  0  0  0  0  0  0  0  0  0
   10.2544  -17.0175   22.4749 N   0  0  0  0  0  0  0  0  0  0  0  0
   12.4300  -16.8092   21.5719 C   0  0  0  0  0  0  0  0  0  0  0  0
   13.7124  -16.2810   21.6009 O   0  0  0  0  0  0  0  0  0  0  0  0
   11.9017  -16.9742   20.4431 O   0  0  0  0  0  0  0  0  0  0  0  0
  2  1  1  0
  3  2  2  0
  4  3  1  0
  5 11  1  0
  5  4  2  0
  6  7  1  0
  6  5  1  0
  7  8  1  1
  7  9  1  0
  9 10  2  0
 11 12  2  0
 12  2  1  0
 14 13  1  6
 14 15  1  0
 16 14  1  0
 17  9  1  0
 16 17  1  1
 18 16  1  0
 18 19  2  0
 20 21  1  0
 21 23  1  0
 22 21  2  0
 24 23  1  6
 24 26  1  0
 24 25  1  0
 25 18  1  0
 26 27  1  0
 28 26  2  0
M  END
$$$$
