YTN.pdb
     RDKit          3D

 28 28  0  0  1  0  0  0  0  0999 V2000
    8.1873  -12.1856   17.0730 O   0  0  0  0  0  0  0  0  0  0  0  0
    8.1572  -12.8879   18.2874 C   0  0  0  0  0  0  0  0  0  0  0  0
    6.9802  -13.3566   18.8239 C   0  0  0  0  0  0  0  0  0  0  0  0
    6.9764  -14.0542   20.0363 C   0  0  0  0  0  0  0  0  0  0  0  0
    8.1494  -14.2826   20.7112 C   0  0  0  0  0  0  0  0  0  0  0  0
    8.1436  -15.0243   21.9998 C   0  0  0  0  0  0  0  0  0  0  0  0
    8.9233  -16.3027   21.7738 C   0  0  2  0  0  0  0  0  0  0  0  0
    8.3735  -17.0911   20.7161 N   0  0  0  0  0  0  0  0  0  0  0  0
    8.9946  -17.1416   22.9965 C   0  0  0  0  0  0  0  0  0  0  0  0
    8.0117  -17.8272   23.4000 O   0  0  0  0  0  0  0  0  0  0  0  0
    9.3319  -13.8081   20.1657 C   0  0  0  0  0  0  0  0  0  0  0  0
    9.3360  -13.1172   18.9652 C   0  0  0  0  0  0  0  0  0  0  0  0
   10.2978  -20.2265   23.8554 C   0  0  0  0  0  0  0  0  0  0  0  0
   11.0736  -19.2676   24.7316 C   0  0  1  0  0  0  0  0  0  0  0  0
   12.3141  -18.9371   24.1824 O   0  0  0  0  0  0  0  0  0  0  0  0
   10.2486  -18.0020   25.0052 C   0  0  2  0  0  0  0  0  0  0  0  0
   10.1921  -17.2201   23.7922 N   0  0  0  0  0  0  0  0  0  0  0  0
   10.9605  -17.2834   26.0945 C   0  0  0  0  0  0  0  0  0  0  0  0
   12.0542  -16.7361   25.8044 O   0  0  0  0  0  0  0  0  0  0  0  0
    9.6938  -13.1242   28.5455 N   0  0  0  0  0  0  0  0  0  0  0  0
    9.6119  -14.5093   28.2313 C   0  0  0  0  0  0  0  0  0  0  0  0
    8.9954  -14.8130   27.1818 O   0  0  0  0  0  0  0  0  0  0  0  0
   10.2485  -15.4549   29.1515 C   0  0  0  0  0  0  0  0  0  0  0  0
   11.1576  -16.4467   28.4732 C   0  0  2  0  0  0  0  0  0  0  0  0
   10.4915  -17.1798   27.4123 N   0  0  0  0  0  0  0  0  0  0  0  0
   11.6763  -17.4475   29.4413 C   0  0  0  0  0  0  0  0  0  0  0  0
   12.5606  -17.1443   30.4663 O   0  0  0  0  0  0  0  0  0  0  0  0
   11.3022  -18.6435   29.3399 O   0  0  0  0  0  0  0  0  0  0  0  0
  2  1  1  0
  3  2  2  0
  4  3  1  0
  5 11  1  0
  5  4  2  0
  6  7  1  0
  6  5  1  0
  7  8  1  6
  7  9  1  0
  9 10  2  0
 11 12  2  0
 12  2  1  0
 14 13  1  6
 14 15  1  0
 16 14  1  0
 17  9  1  0
 16 17  1  6
 18 16  1  0
 18 19  2  0
 20 21  1  0
 21 23  1  0
 22 21  2  0
 24 23  1  1
 24 26  1  0
 24 25  1  0
 25 18  1  0
 26 27  1  0
 28 26  2  0
M  END
$$$$
