YTN.pdb
     RDKit          3D

 28 28  0  0  1  0  0  0  0  0999 V2000
    4.9309  -10.4277   28.1088 O   0  0  0  0  0  0  0  0  0  0  0  0
    5.6996  -11.3751   27.4159 C   0  0  0  0  0  0  0  0  0  0  0  0
    6.0998  -11.1716   26.1153 C   0  0  0  0  0  0  0  0  0  0  0  0
    6.8660  -12.1315   25.4458 C   0  0  0  0  0  0  0  0  0  0  0  0
    7.2314  -13.2940   26.0772 C   0  0  0  0  0  0  0  0  0  0  0  0
    8.0458  -14.3132   25.3641 C   0  0  0  0  0  0  0  0  0  0  0  0
    7.0735  -15.2684   24.7041 C   0  0  2  0  0  0  0  0  0  0  0  0
    6.4170  -16.1121   25.6526 N   0  0  0  0  0  0  0  0  0  0  0  0
    7.7315  -16.1276   23.6879 C   0  0  0  0  0  0  0  0  0  0  0  0
    8.2069  -17.2639   23.9738 O   0  0  0  0  0  0  0  0  0  0  0  0
    6.8253  -13.4933   27.3873 C   0  0  0  0  0  0  0  0  0  0  0  0
    6.0666  -12.5430   28.0505 C   0  0  0  0  0  0  0  0  0  0  0  0
    7.1140  -15.8101   19.6176 C   0  0  0  0  0  0  0  0  0  0  0  0
    8.5762  -15.7759   20.0048 C   0  0  1  0  0  0  0  0  0  0  0  0
    9.1105  -14.4877   19.9345 O   0  0  0  0  0  0  0  0  0  0  0  0
    8.7750  -16.3680   21.4073 C   0  0  2  0  0  0  0  0  0  0  0  0
    7.8643  -15.7114   22.3158 N   0  0  0  0  0  0  0  0  0  0  0  0
   10.1948  -16.1042   21.7597 C   0  0  0  0  0  0  0  0  0  0  0  0
   10.4143  -15.3173   22.7149 O   0  0  0  0  0  0  0  0  0  0  0  0
   12.9922  -16.2961   24.3080 N   0  0  0  0  0  0  0  0  0  0  0  0
   12.4585  -17.6104   24.1993 C   0  0  0  0  0  0  0  0  0  0  0  0
   12.2417  -18.2206   25.2738 O   0  0  0  0  0  0  0  0  0  0  0  0
   12.2096  -18.1350   22.8543 C   0  0  0  0  0  0  0  0  0  0  0  0
   12.4984  -17.1486   21.7527 C   0  0  2  0  0  0  0  0  0  0  0  0
   11.2931  -16.6736   21.0985 N   0  0  0  0  0  0  0  0  0  0  0  0
   13.3594  -17.7536   20.7036 C   0  0  0  0  0  0  0  0  0  0  0  0
   14.7050  -17.4569   20.5429 O   0  0  0  0  0  0  0  0  0  0  0  0
   12.8549  -18.5849   19.9067 O   0  0  0  0  0  0  0  0  0  0  0  0
  2  1  1  0
  3  2  2  0
  4  3  1  0
  5 11  1  0
  5  4  2  0
  6  7  1  0
  6  5  1  0
  7  8  1  1
  7  9  1  0
  9 10  2  0
 11 12  2  0
 12  2  1  0
 14 13  1  1
 14 15  1  0
 16 14  1  0
 17  9  1  0
 16 17  1  1
 18 16  1  0
 18 19  2  0
 20 21  1  0
 21 23  1  0
 22 21  2  0
 24 23  1  1
 24 26  1  0
 24 25  1  0
 25 18  1  0
 26 27  1  0
 28 26  2  0
M  END
$$$$
