YTN.pdb
     RDKit          3D

 28 28  0  0  1  0  0  0  0  0999 V2000
    6.3189  -10.6046   27.6900 O   0  0  0  0  0  0  0  0  0  0  0  0
    6.5154  -11.5328   26.6563 C   0  0  0  0  0  0  0  0  0  0  0  0
    7.3740  -11.2816   25.6110 C   0  0  0  0  0  0  0  0  0  0  0  0
    7.5528  -12.2233   24.5921 C   0  0  0  0  0  0  0  0  0  0  0  0
    6.8732  -13.4152   24.6194 C   0  0  0  0  0  0  0  0  0  0  0  0
    7.0645  -14.4150   23.5357 C   0  0  0  0  0  0  0  0  0  0  0  0
    8.1053  -15.3997   24.0258 C   0  0  2  0  0  0  0  0  0  0  0  0
    9.3143  -14.7524   24.4282 N   0  0  0  0  0  0  0  0  0  0  0  0
    8.4384  -16.4221   23.0023 C   0  0  0  0  0  0  0  0  0  0  0  0
    7.5552  -17.1549   22.4713 O   0  0  0  0  0  0  0  0  0  0  0  0
    6.0097  -13.6626   25.6749 C   0  0  0  0  0  0  0  0  0  0  0  0
    5.8324  -12.7304   26.6840 C   0  0  0  0  0  0  0  0  0  0  0  0
   11.1203  -18.0738   19.3507 C   0  0  0  0  0  0  0  0  0  0  0  0
   10.6295  -17.0220   20.3211 C   0  0  1  0  0  0  0  0  0  0  0  0
    9.6398  -16.2102   19.7632 O   0  0  0  0  0  0  0  0  0  0  0  0
   10.1257  -17.6774   21.6149 C   0  0  2  0  0  0  0  0  0  0  0  0
    9.7910  -16.6352   22.5571 N   0  0  0  0  0  0  0  0  0  0  0  0
   11.2460  -18.5248   22.1012 C   0  0  0  0  0  0  0  0  0  0  0  0
   12.1496  -17.9582   22.7663 O   0  0  0  0  0  0  0  0  0  0  0  0
   13.0085  -23.7821   23.9166 N   0  0  0  0  0  0  0  0  0  0  0  0
   13.1704  -23.1094   22.6735 C   0  0  0  0  0  0  0  0  0  0  0  0
   14.2353  -23.3304   22.0482 O   0  0  0  0  0  0  0  0  0  0  0  0
   12.0898  -22.2237   22.2331 C   0  0  0  0  0  0  0  0  0  0  0  0
   12.3876  -20.7589   22.4218 C   0  0  2  0  0  0  0  0  0  0  0  0
   11.3554  -19.9032   21.8660 N   0  0  0  0  0  0  0  0  0  0  0  0
   13.6688  -20.3840   21.7693 C   0  0  0  0  0  0  0  0  0  0  0  0
   14.8768  -20.2784   22.4432 O   0  0  0  0  0  0  0  0  0  0  0  0
   13.6764  -20.1452   20.5350 O   0  0  0  0  0  0  0  0  0  0  0  0
  2  1  1  0
  3  2  2  0
  4  3  1  0
  5 11  1  0
  5  4  2  0
  6  7  1  0
  6  5  1  0
  7  8  1  6
  7  9  1  0
  9 10  2  0
 11 12  2  0
 12  2  1  0
 14 13  1  6
 14 15  1  0
 16 14  1  0
 17  9  1  0
 16 17  1  1
 18 16  1  0
 18 19  2  0
 20 21  1  0
 21 23  1  0
 22 21  2  0
 24 23  1  6
 24 26  1  0
 24 25  1  0
 25 18  1  0
 26 27  1  0
 28 26  2  0
M  END
$$$$
