YTN.pdb
     RDKit          3D

 28 28  0  0  1  0  0  0  0  0999 V2000
   -0.2743  -20.4360   22.0546 O   0  0  0  0  0  0  0  0  0  0  0  0
    0.9806  -19.8174   21.9487 C   0  0  0  0  0  0  0  0  0  0  0  0
    1.2047  -18.7793   21.0739 C   0  0  0  0  0  0  0  0  0  0  0  0
    2.4652  -18.1789   20.9868 C   0  0  0  0  0  0  0  0  0  0  0  0
    3.5003  -18.6168   21.7744 C   0  0  0  0  0  0  0  0  0  0  0  0
    4.8394  -17.9775   21.6805 C   0  0  0  0  0  0  0  0  0  0  0  0
    5.2229  -17.9754   20.2155 C   0  0  2  0  0  0  0  0  0  0  0  0
    5.0902  -19.2680   19.6205 N   0  0  0  0  0  0  0  0  0  0  0  0
    6.6120  -17.4990   19.9985 C   0  0  0  0  0  0  0  0  0  0  0  0
    7.0540  -17.2157   18.8481 O   0  0  0  0  0  0  0  0  0  0  0  0
    3.2685  -19.6628   22.6536 C   0  0  0  0  0  0  0  0  0  0  0  0
    2.0205  -20.2576   22.7401 C   0  0  0  0  0  0  0  0  0  0  0  0
    7.5115  -14.9187   19.4696 C   0  0  0  0  0  0  0  0  0  0  0  0
    8.2950  -15.0611   20.7560 C   0  0  1  0  0  0  0  0  0  0  0  0
    7.5827  -14.5931   21.8620 O   0  0  0  0  0  0  0  0  0  0  0  0
    8.7226  -16.5207   20.9662 C   0  0  2  0  0  0  0  0  0  0  0  0
    7.5351  -17.3332   21.0912 N   0  0  0  0  0  0  0  0  0  0  0  0
    9.5327  -16.5288   22.2125 C   0  0  0  0  0  0  0  0  0  0  0  0
    8.9974  -16.0636   23.2502 O   0  0  0  0  0  0  0  0  0  0  0  0
   12.6284  -19.7572   21.4230 N   0  0  0  0  0  0  0  0  0  0  0  0
   12.2700  -19.5216   22.7795 C   0  0  0  0  0  0  0  0  0  0  0  0
   11.6250  -20.4293   23.3573 O   0  0  0  0  0  0  0  0  0  0  0  0
   12.6808  -18.2505   23.3811 C   0  0  0  0  0  0  0  0  0  0  0  0
   11.5561  -17.2610   23.5419 C   0  0  2  0  0  0  0  0  0  0  0  0
   10.8441  -17.0185   22.3005 N   0  0  0  0  0  0  0  0  0  0  0  0
   12.0611  -15.9491   24.0232 C   0  0  0  0  0  0  0  0  0  0  0  0
   12.1611  -15.6045   25.3632 O   0  0  0  0  0  0  0  0  0  0  0  0
   12.4231  -15.0895   23.1801 O   0  0  0  0  0  0  0  0  0  0  0  0
  2  1  1  0
  3  2  2  0
  4  3  1  0
  5 11  1  0
  5  4  2  0
  6  7  1  0
  6  5  1  0
  7  8  1  1
  7  9  1  0
  9 10  2  0
 11 12  2  0
 12  2  1  0
 14 13  1  6
 14 15  1  0
 16 14  1  0
 17  9  1  0
 16 17  1  1
 18 16  1  0
 18 19  2  0
 20 21  1  0
 21 23  1  0
 22 21  2  0
 24 23  1  6
 24 26  1  0
 24 25  1  0
 25 18  1  0
 26 27  1  0
 28 26  2  0
M  END
$$$$
