YTN.pdb
     RDKit          3D

 28 28  0  0  1  0  0  0  0  0999 V2000
   12.7165  -17.2844   11.2603 O   0  0  0  0  0  0  0  0  0  0  0  0
   12.5195  -17.0573   12.6308 C   0  0  0  0  0  0  0  0  0  0  0  0
   11.2598  -16.9414   13.1719 C   0  0  0  0  0  0  0  0  0  0  0  0
   11.0895  -16.7151   14.5417 C   0  0  0  0  0  0  0  0  0  0  0  0
   12.1787  -16.6049   15.3693 C   0  0  0  0  0  0  0  0  0  0  0  0
   11.9959  -16.3643   16.8251 C   0  0  0  0  0  0  0  0  0  0  0  0
   11.9141  -14.8641   17.0151 C   0  0  2  0  0  0  0  0  0  0  0  0
   13.1563  -14.2155   16.7349 N   0  0  0  0  0  0  0  0  0  0  0  0
   11.4903  -14.4935   18.3887 C   0  0  0  0  0  0  0  0  0  0  0  0
   12.3167  -14.1198   19.2698 O   0  0  0  0  0  0  0  0  0  0  0  0
   13.4451  -16.7225   14.8185 C   0  0  0  0  0  0  0  0  0  0  0  0
   13.6141  -16.9466   13.4621 C   0  0  0  0  0  0  0  0  0  0  0  0
    8.5350  -12.1512   19.2881 C   0  0  0  0  0  0  0  0  0  0  0  0
    8.3668  -13.4406   20.0616 C   0  0  1  0  0  0  0  0  0  0  0  0
    7.3668  -14.2525   19.5227 O   0  0  0  0  0  0  0  0  0  0  0  0
    9.6989  -14.2005   20.1360 C   0  0  2  0  0  0  0  0  0  0  0  0
   10.1091  -14.5397   18.7934 N   0  0  0  0  0  0  0  0  0  0  0  0
    9.4281  -15.4113   20.9548 C   0  0  0  0  0  0  0  0  0  0  0  0
    9.5090  -16.5256   20.3790 O   0  0  0  0  0  0  0  0  0  0  0  0
   10.9150  -18.7497   24.3440 N   0  0  0  0  0  0  0  0  0  0  0  0
   11.5625  -17.4867   24.2460 C   0  0  0  0  0  0  0  0  0  0  0  0
   12.5243  -17.2851   25.0257 O   0  0  0  0  0  0  0  0  0  0  0  0
   11.0557  -16.5373   23.2520 C   0  0  0  0  0  0  0  0  0  0  0  0
    9.5629  -16.3404   23.3034 C   0  0  2  0  0  0  0  0  0  0  0  0
    9.0912  -15.3867   22.3162 N   0  0  0  0  0  0  0  0  0  0  0  0
    9.1334  -15.8431   24.6361 C   0  0  0  0  0  0  0  0  0  0  0  0
    8.4959  -16.6290   25.5850 O   0  0  0  0  0  0  0  0  0  0  0  0
    9.3528  -14.6425   24.9376 O   0  0  0  0  0  0  0  0  0  0  0  0
  2  1  1  0
  3  2  2  0
  4  3  1  0
  5 11  1  0
  5  4  2  0
  6  7  1  0
  6  5  1  0
  7  8  1  1
  7  9  1  0
  9 10  2  0
 11 12  2  0
 12  2  1  0
 14 13  1  6
 14 15  1  0
 16 14  1  0
 17  9  1  0
 16 17  1  6
 18 16  1  0
 18 19  2  0
 20 21  1  0
 21 23  1  0
 22 21  2  0
 24 23  1  1
 24 26  1  0
 24 25  1  0
 25 18  1  0
 26 27  1  0
 28 26  2  0
M  END
$$$$
