YTN.pdb
     RDKit          3D

 28 28  0  0  1  0  0  0  0  0999 V2000
    7.7480  -11.2462   18.3651 O   0  0  0  0  0  0  0  0  0  0  0  0
    7.9681  -12.3896   19.1481 C   0  0  0  0  0  0  0  0  0  0  0  0
    9.1259  -12.5599   19.8716 C   0  0  0  0  0  0  0  0  0  0  0  0
    9.3218  -13.7090   20.6449 C   0  0  0  0  0  0  0  0  0  0  0  0
    8.3599  -14.6867   20.6940 C   0  0  0  0  0  0  0  0  0  0  0  0
    8.5697  -15.9075   21.5165 C   0  0  0  0  0  0  0  0  0  0  0  0
    9.1626  -16.9573   20.6002 C   0  0  2  0  0  0  0  0  0  0  0  0
    8.3157  -17.2414   19.4847 N   0  0  0  0  0  0  0  0  0  0  0  0
    9.4452  -18.2295   21.3112 C   0  0  0  0  0  0  0  0  0  0  0  0
    8.7651  -19.2768   21.1119 O   0  0  0  0  0  0  0  0  0  0  0  0
    7.1957  -14.5095   19.9631 C   0  0  0  0  0  0  0  0  0  0  0  0
    7.0015  -13.3717   19.1973 C   0  0  0  0  0  0  0  0  0  0  0  0
   12.6291  -19.2922   20.7707 C   0  0  0  0  0  0  0  0  0  0  0  0
   11.7170  -20.2784   21.4667 C   0  0  1  0  0  0  0  0  0  0  0  0
   12.3904  -21.4402   21.8497 O   0  0  0  0  0  0  0  0  0  0  0  0
   11.0395  -19.6217   22.6779 C   0  0  2  0  0  0  0  0  0  0  0  0
   10.5136  -18.3398   22.2702 N   0  0  0  0  0  0  0  0  0  0  0  0
   12.1016  -19.4821   23.7084 C   0  0  0  0  0  0  0  0  0  0  0  0
   12.9567  -18.5773   23.5350 O   0  0  0  0  0  0  0  0  0  0  0  0
   11.2492  -20.2963   29.6805 N   0  0  0  0  0  0  0  0  0  0  0  0
   12.0975  -19.9169   28.6034 C   0  0  0  0  0  0  0  0  0  0  0  0
   13.0629  -19.1666   28.8845 O   0  0  0  0  0  0  0  0  0  0  0  0
   11.7749  -20.4297   27.2696 C   0  0  0  0  0  0  0  0  0  0  0  0
   12.5973  -19.8168   26.1659 C   0  0  2  0  0  0  0  0  0  0  0  0
   12.2071  -20.2897   24.8504 N   0  0  0  0  0  0  0  0  0  0  0  0
   14.0400  -20.1292   26.3359 C   0  0  0  0  0  0  0  0  0  0  0  0
   14.9712  -19.2306   26.8357 O   0  0  0  0  0  0  0  0  0  0  0  0
   14.4581  -21.2700   26.0128 O   0  0  0  0  0  0  0  0  0  0  0  0
  2  1  1  0
  3  2  2  0
  4  3  1  0
  5 11  1  0
  5  4  2  0
  6  7  1  0
  6  5  1  0
  7  8  1  6
  7  9  1  0
  9 10  2  0
 11 12  2  0
 12  2  1  0
 14 13  1  1
 14 15  1  0
 16 14  1  0
 17  9  1  0
 16 17  1  6
 18 16  1  0
 18 19  2  0
 20 21  1  0
 21 23  1  0
 22 21  2  0
 24 23  1  1
 24 26  1  0
 24 25  1  0
 25 18  1  0
 26 27  1  0
 28 26  2  0
M  END
$$$$
