YTN.pdb
     RDKit          3D

 28 28  0  0  1  0  0  0  0  0999 V2000
    7.3291  -10.7233   26.1881 O   0  0  0  0  0  0  0  0  0  0  0  0
    7.2675  -12.1186   26.3228 C   0  0  0  0  0  0  0  0  0  0  0  0
    6.2804  -12.7321   27.0590 C   0  0  0  0  0  0  0  0  0  0  0  0
    6.2405  -14.1253   27.1782 C   0  0  0  0  0  0  0  0  0  0  0  0
    7.1876  -14.9037   26.5613 C   0  0  0  0  0  0  0  0  0  0  0  0
    7.1438  -16.3844   26.6891 C   0  0  0  0  0  0  0  0  0  0  0  0
    6.5034  -16.9153   25.4237 C   0  0  2  0  0  0  0  0  0  0  0  0
    5.9927  -18.2395   25.5911 N   0  0  0  0  0  0  0  0  0  0  0  0
    7.4440  -16.9166   24.2752 C   0  0  0  0  0  0  0  0  0  0  0  0
    8.2834  -17.8448   24.0943 O   0  0  0  0  0  0  0  0  0  0  0  0
    8.1795  -14.2799   25.8211 C   0  0  0  0  0  0  0  0  0  0  0  0
    8.2193  -12.9004   25.7028 C   0  0  0  0  0  0  0  0  0  0  0  0
    8.6400  -14.8767   19.8775 C   0  0  0  0  0  0  0  0  0  0  0  0
    7.6806  -15.0375   21.0363 C   0  0  1  0  0  0  0  0  0  0  0  0
    6.4558  -15.5758   20.6363 O   0  0  0  0  0  0  0  0  0  0  0  0
    8.3126  -15.8944   22.1425 C   0  0  2  0  0  0  0  0  0  0  0  0
    7.4511  -15.8562   23.3011 N   0  0  0  0  0  0  0  0  0  0  0  0
    9.6393  -15.2833   22.4185 C   0  0  0  0  0  0  0  0  0  0  0  0
    9.6701  -14.3074   23.2100 O   0  0  0  0  0  0  0  0  0  0  0  0
   13.7213  -15.3953   25.3849 N   0  0  0  0  0  0  0  0  0  0  0  0
   13.4330  -16.4711   24.4998 C   0  0  0  0  0  0  0  0  0  0  0  0
   14.3200  -17.3491   24.3731 O   0  0  0  0  0  0  0  0  0  0  0  0
   12.1365  -16.4625   23.8176 C   0  0  0  0  0  0  0  0  0  0  0  0
   12.1336  -15.6888   22.5248 C   0  0  2  0  0  0  0  0  0  0  0  0
   10.8461  -15.7243   21.8558 N   0  0  0  0  0  0  0  0  0  0  0  0
   13.1388  -16.2301   21.5738 C   0  0  0  0  0  0  0  0  0  0  0  0
   14.3497  -15.6130   21.2957 O   0  0  0  0  0  0  0  0  0  0  0  0
   12.8935  -17.3096   20.9778 O   0  0  0  0  0  0  0  0  0  0  0  0
  2  1  1  0
  3  2  2  0
  4  3  1  0
  5 11  1  0
  5  4  2  0
  6  7  1  0
  6  5  1  0
  7  8  1  1
  7  9  1  0
  9 10  2  0
 11 12  2  0
 12  2  1  0
 14 13  1  6
 14 15  1  0
 16 14  1  0
 17  9  1  0
 16 17  1  1
 18 16  1  0
 18 19  2  0
 20 21  1  0
 21 23  1  0
 22 21  2  0
 24 23  1  1
 24 26  1  0
 24 25  1  0
 25 18  1  0
 26 27  1  0
 28 26  2  0
M  END
$$$$
