YTN.pdb
     RDKit          3D

 28 28  0  0  1  0  0  0  0  0999 V2000
   -0.1677  -20.8718   22.0872 O   0  0  0  0  0  0  0  0  0  0  0  0
    1.1021  -20.2800   22.1664 C   0  0  0  0  0  0  0  0  0  0  0  0
    2.1766  -20.9420   22.7141 C   0  0  0  0  0  0  0  0  0  0  0  0
    3.4329  -20.3304   22.7816 C   0  0  0  0  0  0  0  0  0  0  0  0
    3.6135  -19.0575   22.3015 C   0  0  0  0  0  0  0  0  0  0  0  0
    4.9495  -18.4089   22.3741 C   0  0  0  0  0  0  0  0  0  0  0  0
    5.4387  -18.2511   20.9496 C   0  0  2  0  0  0  0  0  0  0  0  0
    5.4320  -19.4892   20.2358 N   0  0  0  0  0  0  0  0  0  0  0  0
    6.8071  -17.6793   20.8850 C   0  0  0  0  0  0  0  0  0  0  0  0
    7.8402  -18.4081   20.8621 O   0  0  0  0  0  0  0  0  0  0  0  0
    2.5274  -18.3957   21.7509 C   0  0  0  0  0  0  0  0  0  0  0  0
    1.2833  -19.0010   21.6839 C   0  0  0  0  0  0  0  0  0  0  0  0
    7.4319  -14.1693   18.9895 C   0  0  0  0  0  0  0  0  0  0  0  0
    8.2449  -14.2467   20.2631 C   0  0  1  0  0  0  0  0  0  0  0  0
    7.7198  -13.4392   21.2740 O   0  0  0  0  0  0  0  0  0  0  0  0
    8.3614  -15.7018   20.7389 C   0  0  2  0  0  0  0  0  0  0  0  0
    7.0326  -16.2577   20.8447 N   0  0  0  0  0  0  0  0  0  0  0  0
    9.0433  -15.6419   22.0585 C   0  0  0  0  0  0  0  0  0  0  0  0
    8.3145  -15.6098   23.0821 O   0  0  0  0  0  0  0  0  0  0  0  0
   12.3704  -18.9455   24.9776 N   0  0  0  0  0  0  0  0  0  0  0  0
   11.4709  -17.8492   25.0924 C   0  0  0  0  0  0  0  0  0  0  0  0
   11.3477  -17.3391   26.2319 O   0  0  0  0  0  0  0  0  0  0  0  0
   10.7713  -17.4130   23.8815 C   0  0  0  0  0  0  0  0  0  0  0  0
   11.1272  -16.0165   23.4419 C   0  0  2  0  0  0  0  0  0  0  0  0
   10.4352  -15.6194   22.2295 N   0  0  0  0  0  0  0  0  0  0  0  0
   12.5842  -15.8926   23.1779 C   0  0  0  0  0  0  0  0  0  0  0  0
   13.5228  -15.5883   24.1531 O   0  0  0  0  0  0  0  0  0  0  0  0
   13.0082  -16.0710   22.0078 O   0  0  0  0  0  0  0  0  0  0  0  0
  2  1  1  0
  3  2  2  0
  4  3  1  0
  5 11  1  0
  5  4  2  0
  6  7  1  0
  6  5  1  0
  7  8  1  1
  7  9  1  0
  9 10  2  0
 11 12  2  0
 12  2  1  0
 14 13  1  6
 14 15  1  0
 16 14  1  0
 17  9  1  0
 16 17  1  1
 18 16  1  0
 18 19  2  0
 20 21  1  0
 21 23  1  0
 22 21  2  0
 24 23  1  6
 24 26  1  0
 24 25  1  0
 25 18  1  0
 26 27  1  0
 28 26  2  0
M  END
$$$$
