YTN.pdb
     RDKit          3D

 28 28  0  0  1  0  0  0  0  0999 V2000
    7.2012  -13.9663   15.9449 O   0  0  0  0  0  0  0  0  0  0  0  0
    7.4586  -13.9192   17.3234 C   0  0  0  0  0  0  0  0  0  0  0  0
    7.6462  -12.7275   17.9848 C   0  0  0  0  0  0  0  0  0  0  0  0
    7.9015  -12.7069   19.3600 C   0  0  0  0  0  0  0  0  0  0  0  0
    7.9689  -13.8778   20.0726 C   0  0  0  0  0  0  0  0  0  0  0  0
    8.2404  -13.8541   21.5342 C   0  0  0  0  0  0  0  0  0  0  0  0
    8.1593  -15.2865   22.0189 C   0  0  2  0  0  0  0  0  0  0  0  0
    6.9035  -15.5779   22.6358 N   0  0  0  0  0  0  0  0  0  0  0  0
    9.2421  -15.6175   22.9790 C   0  0  0  0  0  0  0  0  0  0  0  0
    9.3226  -15.0711   24.1165 O   0  0  0  0  0  0  0  0  0  0  0  0
    7.7791  -15.0751   19.4009 C   0  0  0  0  0  0  0  0  0  0  0  0
    7.5263  -15.0959   18.0392 C   0  0  0  0  0  0  0  0  0  0  0  0
   10.6242  -18.3160   25.1458 C   0  0  0  0  0  0  0  0  0  0  0  0
   11.5815  -18.1180   23.9911 C   0  0  1  0  0  0  0  0  0  0  0  0
   11.3788  -19.0507   22.9719 O   0  0  0  0  0  0  0  0  0  0  0  0
   11.4752  -16.6874   23.4440 C   0  0  2  0  0  0  0  0  0  0  0  0
   10.2634  -16.5828   22.6652 N   0  0  0  0  0  0  0  0  0  0  0  0
   12.6887  -16.4826   22.6102 C   0  0  0  0  0  0  0  0  0  0  0  0
   12.5580  -16.5975   21.3654 O   0  0  0  0  0  0  0  0  0  0  0  0
   16.4675  -13.9307   19.9489 N   0  0  0  0  0  0  0  0  0  0  0  0
   16.6265  -14.1881   21.3391 C   0  0  0  0  0  0  0  0  0  0  0  0
   17.7981  -14.1589   21.7867 O   0  0  0  0  0  0  0  0  0  0  0  0
   15.4197  -14.4629   22.1229 C   0  0  0  0  0  0  0  0  0  0  0  0
   15.1394  -15.9307   22.3152 C   0  0  2  0  0  0  0  0  0  0  0  0
   13.9573  -16.1723   23.1219 N   0  0  0  0  0  0  0  0  0  0  0  0
   16.2772  -16.6101   22.9872 C   0  0  0  0  0  0  0  0  0  0  0  0
   16.4425  -16.6612   24.3636 O   0  0  0  0  0  0  0  0  0  0  0  0
   17.1503  -17.1769   22.2821 O   0  0  0  0  0  0  0  0  0  0  0  0
  2  1  1  0
  3  2  2  0
  4  3  1  0
  5 11  1  0
  5  4  2  0
  6  7  1  0
  6  5  1  0
  7  8  1  1
  7  9  1  0
  9 10  2  0
 11 12  2  0
 12  2  1  0
 14 13  1  1
 14 15  1  0
 16 14  1  0
 17  9  1  0
 16 17  1  6
 18 16  1  0
 18 19  2  0
 20 21  1  0
 21 23  1  0
 22 21  2  0
 24 23  1  1
 24 26  1  0
 24 25  1  0
 25 18  1  0
 26 27  1  0
 28 26  2  0
M  END
$$$$
