YTN.pdb
     RDKit          3D

 28 28  0  0  1  0  0  0  0  0999 V2000
    6.6210  -10.9474   28.6708 O   0  0  0  0  0  0  0  0  0  0  0  0
    6.7161  -11.6828   27.4796 C   0  0  0  0  0  0  0  0  0  0  0  0
    7.5536  -11.3003   26.4573 C   0  0  0  0  0  0  0  0  0  0  0  0
    7.6306  -12.0506   25.2792 C   0  0  0  0  0  0  0  0  0  0  0  0
    6.8703  -13.1826   25.1244 C   0  0  0  0  0  0  0  0  0  0  0  0
    6.9534  -13.9789   23.8715 C   0  0  0  0  0  0  0  0  0  0  0  0
    7.6921  -15.2563   24.2117 C   0  0  2  0  0  0  0  0  0  0  0  0
    8.9510  -15.0019   24.8384 N   0  0  0  0  0  0  0  0  0  0  0  0
    7.9255  -16.1062   23.0171 C   0  0  0  0  0  0  0  0  0  0  0  0
    6.9747  -16.5538   22.3139 O   0  0  0  0  0  0  0  0  0  0  0  0
    6.0285  -13.5629   26.1577 C   0  0  0  0  0  0  0  0  0  0  0  0
    5.9520  -12.8202   27.3244 C   0  0  0  0  0  0  0  0  0  0  0  0
    7.7144  -15.3423   20.5726 C   0  0  0  0  0  0  0  0  0  0  0  0
    9.1085  -15.8409   20.2611 C   0  0  1  0  0  0  0  0  0  0  0  0
   10.0480  -14.8079   20.2499 O   0  0  0  0  0  0  0  0  0  0  0  0
    9.5217  -16.9370   21.2536 C   0  0  2  0  0  0  0  0  0  0  0  0
    9.2532  -16.4680   22.5930 N   0  0  0  0  0  0  0  0  0  0  0  0
   10.9734  -17.1615   21.0262 C   0  0  0  0  0  0  0  0  0  0  0  0
   11.3262  -17.5278   19.8768 O   0  0  0  0  0  0  0  0  0  0  0  0
   14.0134  -15.5308   22.5894 N   0  0  0  0  0  0  0  0  0  0  0  0
   14.1409  -16.3274   23.7613 C   0  0  0  0  0  0  0  0  0  0  0  0
   14.7291  -15.8028   24.7373 O   0  0  0  0  0  0  0  0  0  0  0  0
   13.5797  -17.6802   23.7291 C   0  0  0  0  0  0  0  0  0  0  0  0
   12.8898  -18.0229   22.4343 C   0  0  2  0  0  0  0  0  0  0  0  0
   11.9633  -16.9914   22.0053 N   0  0  0  0  0  0  0  0  0  0  0  0
   12.1166  -19.2858   22.5568 C   0  0  0  0  0  0  0  0  0  0  0  0
   12.4267  -20.4509   21.8707 O   0  0  0  0  0  0  0  0  0  0  0  0
   11.1202  -19.3177   23.3228 O   0  0  0  0  0  0  0  0  0  0  0  0
  2  1  1  0
  3  2  2  0
  4  3  1  0
  5 11  1  0
  5  4  2  0
  6  7  1  0
  6  5  1  0
  7  8  1  6
  7  9  1  0
  9 10  2  0
 11 12  2  0
 12  2  1  0
 14 13  1  1
 14 15  1  0
 16 14  1  0
 17  9  1  0
 16 17  1  1
 18 16  1  0
 18 19  2  0
 20 21  1  0
 21 23  1  0
 22 21  2  0
 24 23  1  1
 24 26  1  0
 24 25  1  0
 25 18  1  0
 26 27  1  0
 28 26  2  0
M  END
$$$$
