YTN.pdb
     RDKit          3D

 28 28  0  0  1  0  0  0  0  0999 V2000
   -0.5404  -20.4350   21.6173 O   0  0  0  0  0  0  0  0  0  0  0  0
    0.7475  -19.8784   21.6301 C   0  0  0  0  0  0  0  0  0  0  0  0
    1.2652  -19.2257   20.5352 C   0  0  0  0  0  0  0  0  0  0  0  0
    2.5523  -18.6791   20.5728 C   0  0  0  0  0  0  0  0  0  0  0  0
    3.3205  -18.7856   21.7050 C   0  0  0  0  0  0  0  0  0  0  0  0
    4.6884  -18.2040   21.7433 C   0  0  0  0  0  0  0  0  0  0  0  0
    5.3014  -18.4343   20.3778 C   0  0  2  0  0  0  0  0  0  0  0  0
    5.2271  -19.8039   19.9762 N   0  0  0  0  0  0  0  0  0  0  0  0
    6.7211  -18.0041   20.3189 C   0  0  0  0  0  0  0  0  0  0  0  0
    7.6768  -18.8129   20.4961 O   0  0  0  0  0  0  0  0  0  0  0  0
    2.7936  -19.4442   22.8048 C   0  0  0  0  0  0  0  0  0  0  0  0
    1.5192  -19.9855   22.7679 C   0  0  0  0  0  0  0  0  0  0  0  0
    7.7111  -14.7175   18.0882 C   0  0  0  0  0  0  0  0  0  0  0  0
    8.5085  -14.8025   19.3712 C   0  0  1  0  0  0  0  0  0  0  0  0
    8.0705  -13.8831   20.3265 O   0  0  0  0  0  0  0  0  0  0  0  0
    8.4682  -16.2297   19.9357 C   0  0  2  0  0  0  0  0  0  0  0  0
    7.0876  -16.6368   20.0556 N   0  0  0  0  0  0  0  0  0  0  0  0
    9.1419  -16.1600   21.2589 C   0  0  0  0  0  0  0  0  0  0  0  0
    8.4126  -15.9866   22.2678 O   0  0  0  0  0  0  0  0  0  0  0  0
   12.3538  -16.3530   25.2156 N   0  0  0  0  0  0  0  0  0  0  0  0
   11.6095  -17.5080   24.8468 C   0  0  0  0  0  0  0  0  0  0  0  0
   11.5791  -18.4472   25.6779 O   0  0  0  0  0  0  0  0  0  0  0  0
   10.9476  -17.5026   23.5399 C   0  0  0  0  0  0  0  0  0  0  0  0
   11.1909  -16.2499   22.7389 C   0  0  2  0  0  0  0  0  0  0  0  0
   10.5269  -16.2745   21.4486 N   0  0  0  0  0  0  0  0  0  0  0  0
   12.6411  -16.0500   22.4840 C   0  0  0  0  0  0  0  0  0  0  0  0
   13.3263  -16.6293   21.4260 O   0  0  0  0  0  0  0  0  0  0  0  0
   13.3006  -15.3159   23.2629 O   0  0  0  0  0  0  0  0  0  0  0  0
  2  1  1  0
  3  2  2  0
  4  3  1  0
  5 11  1  0
  5  4  2  0
  6  7  1  0
  6  5  1  0
  7  8  1  1
  7  9  1  0
  9 10  2  0
 11 12  2  0
 12  2  1  0
 14 13  1  6
 14 15  1  0
 16 14  1  0
 17  9  1  0
 16 17  1  1
 18 16  1  0
 18 19  2  0
 20 21  1  0
 21 23  1  0
 22 21  2  0
 24 23  1  6
 24 26  1  0
 24 25  1  0
 25 18  1  0
 26 27  1  0
 28 26  2  0
M  END
$$$$
