YTN.pdb
     RDKit          3D

 28 28  0  0  1  0  0  0  0  0999 V2000
    7.3720  -11.2698   28.5279 O   0  0  0  0  0  0  0  0  0  0  0  0
    7.0606  -12.0876   27.4311 C   0  0  0  0  0  0  0  0  0  0  0  0
    7.9543  -12.2954   26.4059 C   0  0  0  0  0  0  0  0  0  0  0  0
    7.6202  -13.1154   25.3230 C   0  0  0  0  0  0  0  0  0  0  0  0
    6.3929  -13.7268   25.2661 C   0  0  0  0  0  0  0  0  0  0  0  0
    6.0393  -14.5981   24.1143 C   0  0  0  0  0  0  0  0  0  0  0  0
    6.6289  -15.9634   24.3997 C   0  0  2  0  0  0  0  0  0  0  0  0
    7.5737  -15.9307   25.4716 N   0  0  0  0  0  0  0  0  0  0  0  0
    7.2914  -16.5503   23.2078 C   0  0  0  0  0  0  0  0  0  0  0  0
    6.6406  -16.9069   22.1840 O   0  0  0  0  0  0  0  0  0  0  0  0
    5.4968  -13.5137   26.3018 C   0  0  0  0  0  0  0  0  0  0  0  0
    5.8274  -12.7018   27.3742 C   0  0  0  0  0  0  0  0  0  0  0  0
    7.6994  -15.8644   20.6256 C   0  0  0  0  0  0  0  0  0  0  0  0
    9.1746  -16.0967   20.8683 C   0  0  1  0  0  0  0  0  0  0  0  0
    9.8436  -14.9213   21.2156 O   0  0  0  0  0  0  0  0  0  0  0  0
    9.3795  -17.1735   21.9433 C   0  0  2  0  0  0  0  0  0  0  0  0
    8.7169  -16.7458   23.1533 N   0  0  0  0  0  0  0  0  0  0  0  0
   10.8503  -17.2857   22.1275 C   0  0  0  0  0  0  0  0  0  0  0  0
   11.3740  -16.5772   23.0239 O   0  0  0  0  0  0  0  0  0  0  0  0
   13.4346  -21.3769   23.2790 N   0  0  0  0  0  0  0  0  0  0  0  0
   12.7537  -20.9138   22.1189 C   0  0  0  0  0  0  0  0  0  0  0  0
   11.6382  -21.4336   21.8757 O   0  0  0  0  0  0  0  0  0  0  0  0
   13.4070  -19.8787   21.3139 C   0  0  0  0  0  0  0  0  0  0  0  0
   13.0458  -18.4733   21.7193 C   0  0  2  0  0  0  0  0  0  0  0  0
   11.6808  -18.1249   21.3702 N   0  0  0  0  0  0  0  0  0  0  0  0
   13.9351  -17.4807   21.0623 C   0  0  0  0  0  0  0  0  0  0  0  0
   15.1818  -17.1181   21.5509 O   0  0  0  0  0  0  0  0  0  0  0  0
   13.5508  -16.9275   20.0007 O   0  0  0  0  0  0  0  0  0  0  0  0
  2  1  1  0
  3  2  2  0
  4  3  1  0
  5 11  1  0
  5  4  2  0
  6  7  1  0
  6  5  1  0
  7  8  1  1
  7  9  1  0
  9 10  2  0
 11 12  2  0
 12  2  1  0
 14 13  1  1
 14 15  1  0
 16 14  1  0
 17  9  1  0
 16 17  1  1
 18 16  1  0
 18 19  2  0
 20 21  1  0
 21 23  1  0
 22 21  2  0
 24 23  1  6
 24 26  1  0
 24 25  1  0
 25 18  1  0
 26 27  1  0
 28 26  2  0
M  END
$$$$
