NLG.pdb
     RDKit          3D

 21 20  0  0  1  0  0  0  0  0999 V2000
   24.2489  -27.0503  -15.8801 N   0  0  0  0  0  0  0  0  0  0  0  0
   23.4419  -26.1342  -16.5978 C   0  0  0  0  0  0  0  0  0  0  0  0
   22.9766  -26.4496  -17.7337 O   0  0  0  0  0  0  0  0  0  0  0  0
   23.1394  -24.7895  -16.0093 C   0  0  0  0  0  0  0  0  0  0  0  0
   23.9327  -24.6523  -14.7284 C   0  0  2  0  0  0  0  0  0  0  0  0
   23.6814  -25.7950  -13.8904 N   0  0  0  0  0  0  0  0  0  0  0  0
   23.5045  -23.3973  -14.0482 C   0  0  0  0  0  0  0  0  0  0  0  0
   22.2971  -23.1978  -13.7532 O   0  0  0  0  0  0  0  0  0  0  0  0
   26.7779  -20.6122  -10.4188 C   0  0  0  0  0  0  0  0  0  0  0  0
   25.4514  -21.2706  -10.9221 C   0  0  1  0  0  0  0  0  0  0  0  0
   24.3871  -20.8654   -9.8871 C   0  0  0  0  0  0  0  0  0  0  0  0
   25.2079  -20.7181  -12.2685 C   0  0  0  0  0  0  0  0  0  0  0  0
   23.9999  -21.1272  -13.0295 C   0  0  2  0  0  0  0  0  0  0  0  0
   24.4307  -22.3983  -13.7146 N   0  0  0  0  0  0  0  0  0  0  0  0
   23.5344  -20.2761  -14.1052 C   0  0  0  0  0  0  0  0  0  0  0  0
   24.2627  -20.0022  -15.0901 O   0  0  0  0  0  0  0  0  0  0  0  0
   22.2224  -19.7086  -14.1120 N   0  0  0  0  0  0  0  0  0  0  0  0
   21.7806  -18.9168  -15.2334 C   0  0  0  0  0  0  0  0  0  0  0  0
   20.4000  -18.4675  -15.0037 C   0  0  0  0  0  0  0  0  0  0  0  0
   19.4861  -19.2190  -14.2666 O   0  0  0  0  0  0  0  0  0  0  0  0
   19.9940  -17.3851  -15.4663 O   0  0  0  0  0  0  0  0  0  0  0  0
  2  3  2  0
  2  1  1  0
  4  2  1  0
  5  4  1  0
  5  6  1  1
  7  8  2  0
  7  5  1  0
 10  9  1  1
 10 11  1  0
 10 12  1  0
 13 12  1  6
 13 15  1  0
 13 14  1  0
 14  7  1  0
 15 17  1  0
 16 15  2  0
 17 18  1  0
 18 19  1  0
 19 21  2  0
 19 20  1  0
M  END
$$$$
