NLG.pdb
     RDKit          3D

 21 20  0  0  1  0  0  0  0  0999 V2000
   12.0780  -21.2816    0.8197 N   0  0  0  0  0  0  0  0  0  0  0  0
   12.1309  -21.2644    2.2348 C   0  0  0  0  0  0  0  0  0  0  0  0
   11.0860  -21.4948    2.9140 O   0  0  0  0  0  0  0  0  0  0  0  0
   13.4277  -20.9728    2.9272 C   0  0  0  0  0  0  0  0  0  0  0  0
   14.4567  -20.6409    1.8691 C   0  0  2  0  0  0  0  0  0  0  0  0
   14.8264  -21.8450    1.1730 N   0  0  0  0  0  0  0  0  0  0  0  0
   15.6412  -20.0394    2.5445 C   0  0  0  0  0  0  0  0  0  0  0  0
   16.6206  -20.7495    2.8924 O   0  0  0  0  0  0  0  0  0  0  0  0
   19.6020  -16.7318    2.5796 C   0  0  0  0  0  0  0  0  0  0  0  0
   18.3049  -15.9523    2.9751 C   0  0  1  0  0  0  0  0  0  0  0  0
   18.3431  -14.6627    2.1363 C   0  0  0  0  0  0  0  0  0  0  0  0
   17.1768  -16.8426    2.6406 C   0  0  0  0  0  0  0  0  0  0  0  0
   16.9149  -18.0486    3.4669 C   0  0  2  0  0  0  0  0  0  0  0  0
   15.7042  -18.6645    2.8147 N   0  0  0  0  0  0  0  0  0  0  0  0
   16.5295  -17.8722    4.8520 C   0  0  0  0  0  0  0  0  0  0  0  0
   15.3637  -17.5360    5.1732 O   0  0  0  0  0  0  0  0  0  0  0  0
   17.4472  -18.0781    5.9286 N   0  0  0  0  0  0  0  0  0  0  0  0
   17.0304  -17.8510    7.2903 C   0  0  0  0  0  0  0  0  0  0  0  0
   17.1427  -16.4199    7.6060 C   0  0  0  0  0  0  0  0  0  0  0  0
   16.7944  -15.9037    8.8532 O   0  0  0  0  0  0  0  0  0  0  0  0
   17.5588  -15.6083    6.7583 O   0  0  0  0  0  0  0  0  0  0  0  0
  2  3  2  0
  2  1  1  0
  4  2  1  0
  5  4  1  0
  5  6  1  1
  7  8  2  0
  7  5  1  0
 10  9  1  6
 10 11  1  0
 10 12  1  0
 13 12  1  6
 13 15  1  0
 13 14  1  0
 14  7  1  0
 15 17  1  0
 16 15  2  0
 17 18  1  0
 18 19  1  0
 19 21  2  0
 19 20  1  0
M  END
$$$$
