NLG.pdb
     RDKit          3D

 21 20  0  0  1  0  0  0  0  0999 V2000
   27.5520  -18.8749  -18.3492 N   0  0  0  0  0  0  0  0  0  0  0  0
   27.2920  -18.5384  -16.9984 C   0  0  0  0  0  0  0  0  0  0  0  0
   27.8527  -17.5300  -16.4740 O   0  0  0  0  0  0  0  0  0  0  0  0
   26.3507  -19.3792  -16.1902 C   0  0  0  0  0  0  0  0  0  0  0  0
   27.1257  -19.9608  -15.0284 C   0  0  2  0  0  0  0  0  0  0  0  0
   28.1053  -20.8888  -15.5290 N   0  0  0  0  0  0  0  0  0  0  0  0
   26.1619  -20.6505  -14.1249 C   0  0  0  0  0  0  0  0  0  0  0  0
   25.8145  -21.8422  -14.3337 O   0  0  0  0  0  0  0  0  0  0  0  0
   26.7432  -20.1425   -8.7859 C   0  0  0  0  0  0  0  0  0  0  0  0
   26.5297  -20.8141  -10.1823 C   0  0  1  0  0  0  0  0  0  0  0  0
   26.4800  -22.3251   -9.8948 C   0  0  0  0  0  0  0  0  0  0  0  0
   25.2626  -20.2694  -10.7066 C   0  0  0  0  0  0  0  0  0  0  0  0
   24.7463  -20.7297  -12.0209 C   0  0  2  0  0  0  0  0  0  0  0  0
   25.6105  -19.9960  -13.0136 N   0  0  0  0  0  0  0  0  0  0  0  0
   23.3906  -20.3833  -12.3955 C   0  0  0  0  0  0  0  0  0  0  0  0
   22.7361  -19.5148  -11.7689 O   0  0  0  0  0  0  0  0  0  0  0  0
   22.7259  -21.0008  -13.5002 N   0  0  0  0  0  0  0  0  0  0  0  0
   21.3482  -20.6849  -13.7861 C   0  0  0  0  0  0  0  0  0  0  0  0
   20.9689  -21.2692  -15.0805 C   0  0  0  0  0  0  0  0  0  0  0  0
   20.9473  -20.5211  -16.2565 O   0  0  0  0  0  0  0  0  0  0  0  0
   20.6495  -22.4692  -15.1719 O   0  0  0  0  0  0  0  0  0  0  0  0
  2  3  2  0
  2  1  1  0
  4  2  1  0
  5  4  1  0
  5  6  1  6
  7  8  2  0
  7  5  1  0
 10  9  1  1
 10 11  1  0
 10 12  1  0
 13 12  1  1
 13 15  1  0
 13 14  1  0
 14  7  1  0
 15 17  1  0
 16 15  2  0
 17 18  1  0
 18 19  1  0
 19 21  2  0
 19 20  1  0
M  END
$$$$
