NLG.pdb
     RDKit          3D

 21 20  0  0  1  0  0  0  0  0999 V2000
   21.8065  -11.3168  -21.5728 N   0  0  0  0  0  0  0  0  0  0  0  0
   21.0870  -10.2660  -20.9534 C   0  0  0  0  0  0  0  0  0  0  0  0
   20.2051   -9.6286  -21.6032 O   0  0  0  0  0  0  0  0  0  0  0  0
   21.3718   -9.9099  -19.5257 C   0  0  0  0  0  0  0  0  0  0  0  0
   22.4656  -10.8277  -19.0258 C   0  0  2  0  0  0  0  0  0  0  0  0
   21.9355  -12.1567  -18.8710 N   0  0  0  0  0  0  0  0  0  0  0  0
   22.9540  -10.3012  -17.7200 C   0  0  0  0  0  0  0  0  0  0  0  0
   22.4716  -10.7123  -16.6325 O   0  0  0  0  0  0  0  0  0  0  0  0
   28.0794  -10.0795  -16.8900 C   0  0  0  0  0  0  0  0  0  0  0  0
   26.5609  -10.3113  -16.5955 C   0  0  1  0  0  0  0  0  0  0  0  0
   26.5273  -11.1243  -15.2894 C   0  0  0  0  0  0  0  0  0  0  0  0
   25.9604   -8.9690  -16.4726 C   0  0  0  0  0  0  0  0  0  0  0  0
   24.4882   -8.8257  -16.3394 C   0  0  2  0  0  0  0  0  0  0  0  0
   23.9658   -9.3317  -17.6592 N   0  0  0  0  0  0  0  0  0  0  0  0
   23.9274   -7.4961  -16.2139 C   0  0  0  0  0  0  0  0  0  0  0  0
   23.9763   -6.6693  -17.1570 O   0  0  0  0  0  0  0  0  0  0  0  0
   23.2814   -7.0533  -15.0180 N   0  0  0  0  0  0  0  0  0  0  0  0
   22.6981   -5.7360  -14.9540 C   0  0  0  0  0  0  0  0  0  0  0  0
   21.2429   -5.8340  -15.1367 C   0  0  0  0  0  0  0  0  0  0  0  0
   20.6669   -6.1421  -16.3681 O   0  0  0  0  0  0  0  0  0  0  0  0
   20.4640   -5.6424  -14.1842 O   0  0  0  0  0  0  0  0  0  0  0  0
  2  3  2  0
  2  1  1  0
  4  2  1  0
  5  4  1  0
  5  6  1  1
  7  8  2  0
  7  5  1  0
 10  9  1  1
 10 11  1  0
 10 12  1  0
 13 12  1  6
 13 15  1  0
 13 14  1  0
 14  7  1  0
 15 17  1  0
 16 15  2  0
 17 18  1  0
 18 19  1  0
 19 21  2  0
 19 20  1  0
M  END
$$$$
