NLG.pdb
     RDKit          3D

 21 20  0  0  1  0  0  0  0  0999 V2000
   27.9475  -18.5438  -18.5927 N   0  0  0  0  0  0  0  0  0  0  0  0
   27.7149  -18.4206  -17.2012 C   0  0  0  0  0  0  0  0  0  0  0  0
   28.3665  -17.5743  -16.5190 O   0  0  0  0  0  0  0  0  0  0  0  0
   26.6947  -19.2950  -16.5372 C   0  0  0  0  0  0  0  0  0  0  0  0
   27.4313  -20.3708  -15.7700 C   0  0  2  0  0  0  0  0  0  0  0  0
   27.8631  -21.3944  -16.6850 N   0  0  0  0  0  0  0  0  0  0  0  0
   26.5017  -20.9349  -14.7510 C   0  0  0  0  0  0  0  0  0  0  0  0
   25.7999  -21.9491  -15.0027 O   0  0  0  0  0  0  0  0  0  0  0  0
   25.2979  -22.1500   -9.5883 C   0  0  0  0  0  0  0  0  0  0  0  0
   25.2122  -20.6236   -9.9188 C   0  0  1  0  0  0  0  0  0  0  0  0
   25.8324  -19.9163   -8.7009 C   0  0  0  0  0  0  0  0  0  0  0  0
   25.9771  -20.4335  -11.1663 C   0  0  0  0  0  0  0  0  0  0  0  0
   25.4164  -20.9058  -12.4579 C   0  0  2  0  0  0  0  0  0  0  0  0
   26.3776  -20.3555  -13.4796 N   0  0  0  0  0  0  0  0  0  0  0  0
   24.1210  -20.4107  -12.8762 C   0  0  0  0  0  0  0  0  0  0  0  0
   23.9600  -19.2244  -13.2530 O   0  0  0  0  0  0  0  0  0  0  0  0
   22.9584  -21.2424  -12.8925 N   0  0  0  0  0  0  0  0  0  0  0  0
   21.6613  -20.6705  -13.1570 C   0  0  0  0  0  0  0  0  0  0  0  0
   20.9092  -21.5552  -14.0581 C   0  0  0  0  0  0  0  0  0  0  0  0
   19.6854  -22.1174  -13.6981 O   0  0  0  0  0  0  0  0  0  0  0  0
   21.3456  -21.8367  -15.1899 O   0  0  0  0  0  0  0  0  0  0  0  0
  2  3  2  0
  2  1  1  0
  4  2  1  0
  5  4  1  0
  5  6  1  6
  7  8  2  0
  7  5  1  0
 10  9  1  1
 10 11  1  0
 10 12  1  0
 13 12  1  1
 13 15  1  0
 13 14  1  0
 14  7  1  0
 15 17  1  0
 16 15  2  0
 17 18  1  0
 18 19  1  0
 19 21  2  0
 19 20  1  0
M  END
$$$$
