NLG.pdb
     RDKit          3D

 21 20  0  0  1  0  0  0  0  0999 V2000
   26.8026  -18.2018  -17.3429 N   0  0  0  0  0  0  0  0  0  0  0  0
   25.3928  -18.3278  -17.3899 C   0  0  0  0  0  0  0  0  0  0  0  0
   24.7153  -17.6084  -18.1835 O   0  0  0  0  0  0  0  0  0  0  0  0
   24.7040  -19.3154  -16.4976 C   0  0  0  0  0  0  0  0  0  0  0  0
   25.7232  -19.8430  -15.5120 C   0  0  2  0  0  0  0  0  0  0  0  0
   26.7498  -20.5546  -16.2268 N   0  0  0  0  0  0  0  0  0  0  0  0
   25.0226  -20.7488  -14.5583 C   0  0  0  0  0  0  0  0  0  0  0  0
   25.0161  -21.9955  -14.7321 O   0  0  0  0  0  0  0  0  0  0  0  0
   25.9565  -20.1267   -9.4467 C   0  0  0  0  0  0  0  0  0  0  0  0
   25.7343  -20.7597  -10.8597 C   0  0  1  0  0  0  0  0  0  0  0  0
   26.2422  -22.2068  -10.7330 C   0  0  0  0  0  0  0  0  0  0  0  0
   24.2863  -20.6620  -11.1264 C   0  0  0  0  0  0  0  0  0  0  0  0
   23.7347  -21.1616  -12.4117 C   0  0  2  0  0  0  0  0  0  0  0  0
   24.3482  -20.2435  -13.4371 N   0  0  0  0  0  0  0  0  0  0  0  0
   22.3083  -21.0604  -12.6425 C   0  0  0  0  0  0  0  0  0  0  0  0
   21.4744  -21.4879  -11.8075 O   0  0  0  0  0  0  0  0  0  0  0  0
   21.7700  -20.4629  -13.8243 N   0  0  0  0  0  0  0  0  0  0  0  0
   20.3422  -20.3807  -14.0096 C   0  0  0  0  0  0  0  0  0  0  0  0
   19.8790  -21.5450  -14.7778 C   0  0  0  0  0  0  0  0  0  0  0  0
   18.8007  -21.4741  -15.6585 O   0  0  0  0  0  0  0  0  0  0  0  0
   20.4418  -22.6502  -14.6665 O   0  0  0  0  0  0  0  0  0  0  0  0
  2  3  2  0
  2  1  1  0
  4  2  1  0
  5  4  1  0
  5  6  1  6
  7  8  2  0
  7  5  1  0
 10  9  1  1
 10 11  1  0
 10 12  1  0
 13 12  1  1
 13 15  1  0
 13 14  1  0
 14  7  1  0
 15 17  1  0
 16 15  2  0
 17 18  1  0
 18 19  1  0
 19 21  2  0
 19 20  1  0
M  END
$$$$
