NLG.pdb
     RDKit          3D

 21 20  0  0  1  0  0  0  0  0999 V2000
   18.5386  -20.6399  -14.4028 N   0  0  0  0  0  0  0  0  0  0  0  0
   19.3649  -21.5162  -13.6578 C   0  0  0  0  0  0  0  0  0  0  0  0
   19.0411  -22.7337  -13.5202 O   0  0  0  0  0  0  0  0  0  0  0  0
   20.6247  -20.9987  -13.0322 C   0  0  0  0  0  0  0  0  0  0  0  0
   21.7502  -21.1890  -14.0249 C   0  0  2  0  0  0  0  0  0  0  0  0
   21.9785  -22.5968  -14.2187 N   0  0  0  0  0  0  0  0  0  0  0  0
   22.9695  -20.5293  -13.4780 C   0  0  0  0  0  0  0  0  0  0  0  0
   22.9764  -19.3003  -13.2059 O   0  0  0  0  0  0  0  0  0  0  0  0
   24.1171  -20.3462   -9.8907 C   0  0  0  0  0  0  0  0  0  0  0  0
   25.6375  -20.5157  -10.2164 C   0  0  1  0  0  0  0  0  0  0  0  0
   26.2193  -21.2841   -9.0167 C   0  0  0  0  0  0  0  0  0  0  0  0
   25.7009  -21.2649  -11.4860 C   0  0  0  0  0  0  0  0  0  0  0  0
   25.4048  -20.5759  -12.7679 C   0  0  2  0  0  0  0  0  0  0  0  0
   24.1481  -21.2544  -13.2486 N   0  0  0  0  0  0  0  0  0  0  0  0
   26.3373  -20.7208  -13.8668 C   0  0  0  0  0  0  0  0  0  0  0  0
   26.8373  -21.8331  -14.1636 O   0  0  0  0  0  0  0  0  0  0  0  0
   26.7336  -19.6129  -14.6786 N   0  0  0  0  0  0  0  0  0  0  0  0
   27.6167  -19.8152  -15.8006 C   0  0  0  0  0  0  0  0  0  0  0  0
   27.7833  -18.5493  -16.5287 C   0  0  0  0  0  0  0  0  0  0  0  0
   29.0318  -18.0885  -16.9437 O   0  0  0  0  0  0  0  0  0  0  0  0
   26.8010  -17.8351  -16.8036 O   0  0  0  0  0  0  0  0  0  0  0  0
  2  3  2  0
  2  1  1  0
  4  2  1  0
  5  4  1  0
  5  6  1  1
  7  8  2  0
  7  5  1  0
 10  9  1  1
 10 11  1  0
 10 12  1  0
 13 12  1  1
 13 15  1  0
 13 14  1  0
 14  7  1  0
 15 17  1  0
 16 15  2  0
 17 18  1  0
 18 19  1  0
 19 21  2  0
 19 20  1  0
M  END
$$$$
