NLG.pdb
     RDKit          3D

 21 20  0  0  1  0  0  0  0  0999 V2000
   18.8056  -14.5737  -18.3538 N   0  0  0  0  0  0  0  0  0  0  0  0
   18.7829  -13.1675  -18.1875 C   0  0  0  0  0  0  0  0  0  0  0  0
   18.1800  -12.4364  -19.0291 O   0  0  0  0  0  0  0  0  0  0  0  0
   19.4745  -12.5460  -17.0121 C   0  0  0  0  0  0  0  0  0  0  0  0
   20.1700  -11.2907  -17.4908 C   0  0  2  0  0  0  0  0  0  0  0  0
   20.9219  -11.5897  -18.6810 N   0  0  0  0  0  0  0  0  0  0  0  0
   21.0727  -10.8157  -16.4043 C   0  0  0  0  0  0  0  0  0  0  0  0
   20.6617  -10.7069  -15.2195 O   0  0  0  0  0  0  0  0  0  0  0  0
   26.8419  -11.4536  -15.3499 C   0  0  0  0  0  0  0  0  0  0  0  0
   25.8147  -10.2916  -15.1475 C   0  0  1  0  0  0  0  0  0  0  0  0
   26.4259   -9.0861  -15.8832 C   0  0  0  0  0  0  0  0  0  0  0  0
   24.5460  -10.7626  -15.7357 C   0  0  0  0  0  0  0  0  0  0  0  0
   23.3107   -9.9536  -15.5768 C   0  0  2  0  0  0  0  0  0  0  0  0
   22.4079  -10.4746  -16.6651 N   0  0  0  0  0  0  0  0  0  0  0  0
   23.3787   -8.5265  -15.8151 C   0  0  0  0  0  0  0  0  0  0  0  0
   23.5198   -8.0581  -16.9710 O   0  0  0  0  0  0  0  0  0  0  0  0
   23.2807   -7.5732  -14.7544 N   0  0  0  0  0  0  0  0  0  0  0  0
   23.2853   -6.1609  -15.0460 C   0  0  0  0  0  0  0  0  0  0  0  0
   21.9179   -5.6327  -14.9379 C   0  0  0  0  0  0  0  0  0  0  0  0
   21.6479   -4.2652  -14.9196 O   0  0  0  0  0  0  0  0  0  0  0  0
   20.9401   -6.3996  -14.8578 O   0  0  0  0  0  0  0  0  0  0  0  0
  2  3  2  0
  2  1  1  0
  4  2  1  0
  5  4  1  0
  5  6  1  6
  7  8  2  0
  7  5  1  0
 10  9  1  6
 10 11  1  0
 10 12  1  0
 13 12  1  6
 13 15  1  0
 13 14  1  0
 14  7  1  0
 15 17  1  0
 16 15  2  0
 17 18  1  0
 18 19  1  0
 19 21  2  0
 19 20  1  0
M  END
$$$$
