NLG.pdb
     RDKit          3D

 21 20  0  0  1  0  0  0  0  0999 V2000
   17.0195  -11.1857  -18.9474 N   0  0  0  0  0  0  0  0  0  0  0  0
   16.3686  -10.1571  -18.2235 C   0  0  0  0  0  0  0  0  0  0  0  0
   15.3015   -9.6404  -18.6713 O   0  0  0  0  0  0  0  0  0  0  0  0
   16.9462   -9.6812  -16.9250 C   0  0  0  0  0  0  0  0  0  0  0  0
   18.2322  -10.4397  -16.6811 C   0  0  2  0  0  0  0  0  0  0  0  0
   17.9208  -11.7499  -16.1735 N   0  0  0  0  0  0  0  0  0  0  0  0
   19.0445   -9.6732  -15.6945 C   0  0  0  0  0  0  0  0  0  0  0  0
   18.6994   -9.5997  -14.4862 O   0  0  0  0  0  0  0  0  0  0  0  0
   24.2373  -10.4651  -15.1803 C   0  0  0  0  0  0  0  0  0  0  0  0
   22.7654  -10.1759  -14.7373 C   0  0  1  0  0  0  0  0  0  0  0  0
   22.7973  -10.2116  -13.1992 C   0  0  0  0  0  0  0  0  0  0  0  0
   22.4263   -8.8510  -15.2915 C   0  0  0  0  0  0  0  0  0  0  0  0
   21.0724   -8.2812  -15.0725 C   0  0  2  0  0  0  0  0  0  0  0  0
   20.2187   -9.0090  -16.0786 N   0  0  0  0  0  0  0  0  0  0  0  0
   20.8536   -6.8784  -15.3595 C   0  0  0  0  0  0  0  0  0  0  0  0
   21.5444   -5.9804  -14.8193 O   0  0  0  0  0  0  0  0  0  0  0  0
   19.8493   -6.4377  -16.2764 N   0  0  0  0  0  0  0  0  0  0  0  0
   19.6638   -5.0297  -16.5272 C   0  0  0  0  0  0  0  0  0  0  0  0
   18.5360   -4.5327  -15.7264 C   0  0  0  0  0  0  0  0  0  0  0  0
   17.2953   -5.1681  -15.7141 O   0  0  0  0  0  0  0  0  0  0  0  0
   18.6519   -3.5127  -15.0216 O   0  0  0  0  0  0  0  0  0  0  0  0
  2  3  2  0
  2  1  1  0
  4  2  1  0
  5  4  1  0
  5  6  1  1
  7  8  2  0
  7  5  1  0
 10  9  1  6
 10 11  1  0
 10 12  1  0
 13 12  1  6
 13 15  1  0
 13 14  1  0
 14  7  1  0
 15 17  1  0
 16 15  2  0
 17 18  1  0
 18 19  1  0
 19 21  2  0
 19 20  1  0
M  END
$$$$
