NLG.pdb
     RDKit          3D

 21 20  0  0  1  0  0  0  0  0999 V2000
   19.2606  -24.6158   -7.6173 N   0  0  0  0  0  0  0  0  0  0  0  0
   18.7999  -23.8629   -8.7248 C   0  0  0  0  0  0  0  0  0  0  0  0
   17.7175  -24.1787   -9.3035 O   0  0  0  0  0  0  0  0  0  0  0  0
   19.5969  -22.6903   -9.2106 C   0  0  0  0  0  0  0  0  0  0  0  0
   20.8198  -22.5608   -8.3295 C   0  0  2  0  0  0  0  0  0  0  0  0
   20.4040  -22.2981   -6.9769 N   0  0  0  0  0  0  0  0  0  0  0  0
   21.6521  -21.4399   -8.8506 C   0  0  0  0  0  0  0  0  0  0  0  0
   21.2962  -20.2419   -8.6998 O   0  0  0  0  0  0  0  0  0  0  0  0
   26.8879  -21.0602   -7.7485 C   0  0  0  0  0  0  0  0  0  0  0  0
   25.4600  -20.4805   -8.0159 C   0  0  1  0  0  0  0  0  0  0  0  0
   25.6219  -18.9542   -7.9054 C   0  0  0  0  0  0  0  0  0  0  0  0
   25.0806  -20.9391   -9.3661 C   0  0  0  0  0  0  0  0  0  0  0  0
   23.7656  -20.5518   -9.9375 C   0  0  2  0  0  0  0  0  0  0  0  0
   22.8577  -21.6817   -9.5254 N   0  0  0  0  0  0  0  0  0  0  0  0
   23.6264  -20.4824  -11.3776 C   0  0  0  0  0  0  0  0  0  0  0  0
   24.3921  -19.7781  -12.0798 O   0  0  0  0  0  0  0  0  0  0  0  0
   22.6198  -21.2149  -12.0801 N   0  0  0  0  0  0  0  0  0  0  0  0
   22.5903  -21.2069  -13.5219 C   0  0  0  0  0  0  0  0  0  0  0  0
   21.3408  -20.5861  -13.9840 C   0  0  0  0  0  0  0  0  0  0  0  0
   21.1109  -20.2863  -15.3259 O   0  0  0  0  0  0  0  0  0  0  0  0
   20.4320  -20.3026  -13.1813 O   0  0  0  0  0  0  0  0  0  0  0  0
  2  3  2  0
  2  1  1  0
  4  2  1  0
  5  4  1  0
  5  6  1  1
  7  8  2  0
  7  5  1  0
 10  9  1  6
 10 11  1  0
 10 12  1  0
 13 12  1  6
 13 15  1  0
 13 14  1  0
 14  7  1  0
 15 17  1  0
 16 15  2  0
 17 18  1  0
 18 19  1  0
 19 21  2  0
 19 20  1  0
M  END
$$$$
