NLG.pdb
     RDKit          3D

 21 20  0  0  1  0  0  0  0  0999 V2000
   21.2343  -21.6434  -13.0729 N   0  0  0  0  0  0  0  0  0  0  0  0
   21.7544  -20.7502  -12.1047 C   0  0  0  0  0  0  0  0  0  0  0  0
   21.0602  -20.4330  -11.0929 O   0  0  0  0  0  0  0  0  0  0  0  0
   23.1297  -20.1810  -12.2803 C   0  0  0  0  0  0  0  0  0  0  0  0
   23.6959  -20.7215  -13.5749 C   0  0  2  0  0  0  0  0  0  0  0  0
   23.7309  -22.1589  -13.5137 N   0  0  0  0  0  0  0  0  0  0  0  0
   25.0692  -20.1692  -13.7485 C   0  0  0  0  0  0  0  0  0  0  0  0
   25.2808  -18.9292  -13.7057 O   0  0  0  0  0  0  0  0  0  0  0  0
   29.3452  -21.8195  -11.1840 C   0  0  0  0  0  0  0  0  0  0  0  0
   28.3097  -20.8794  -11.8843 C   0  0  1  0  0  0  0  0  0  0  0  0
   28.7322  -19.4541  -11.4868 C   0  0  0  0  0  0  0  0  0  0  0  0
   28.4271  -21.1498  -13.3302 C   0  0  0  0  0  0  0  0  0  0  0  0
   27.5317  -20.4535  -14.2889 C   0  0  2  0  0  0  0  0  0  0  0  0
   26.1698  -21.0113  -13.9653 N   0  0  0  0  0  0  0  0  0  0  0  0
   27.6989  -20.7056  -15.7054 C   0  0  0  0  0  0  0  0  0  0  0  0
   27.7548  -21.8725  -16.1642 O   0  0  0  0  0  0  0  0  0  0  0  0
   27.8005  -19.6458  -16.6594 N   0  0  0  0  0  0  0  0  0  0  0  0
   28.0378  -19.9426  -18.0505 C   0  0  0  0  0  0  0  0  0  0  0  0
   28.1306  -18.6883  -18.8112 C   0  0  0  0  0  0  0  0  0  0  0  0
   28.6874  -18.6321  -20.0879 O   0  0  0  0  0  0  0  0  0  0  0  0
   27.7091  -17.6180  -18.3344 O   0  0  0  0  0  0  0  0  0  0  0  0
  2  3  2  0
  2  1  1  0
  4  2  1  0
  5  4  1  0
  5  6  1  1
  7  8  2  0
  7  5  1  0
 10  9  1  1
 10 11  1  0
 10 12  1  0
 13 12  1  1
 13 15  1  0
 13 14  1  0
 14  7  1  0
 15 17  1  0
 16 15  2  0
 17 18  1  0
 18 19  1  0
 19 21  2  0
 19 20  1  0
M  END
$$$$
