QMK.pdb
     RDKit          3D

 27 26  0  0  1  0  0  0  0  0999 V2000
   15.1656  -23.3690  -13.4714 N   0  0  0  0  0  0  0  0  0  0  0  0
   15.3827  -24.0363  -14.7386 C   0  0  0  0  0  0  0  0  0  0  0  0
   14.7278  -23.5882  -15.6986 O   0  0  0  0  0  0  0  0  0  0  0  0
   16.3384  -25.1447  -14.7442 C   0  0  0  0  0  0  0  0  0  0  0  0
   17.0362  -25.3544  -13.4471 C   0  0  0  0  0  0  0  0  0  0  0  0
   18.2043  -24.4361  -13.2294 C   0  0  2  0  0  0  0  0  0  0  0  0
   19.3274  -24.6440  -14.0679 N   0  0  0  0  0  0  0  0  0  0  0  0
   18.6531  -24.5880  -11.8021 C   0  0  0  0  0  0  0  0  0  0  0  0
   19.1756  -25.6692  -11.4108 O   0  0  0  0  0  0  0  0  0  0  0  0
   21.9077  -18.9956   -9.8880 C   0  0  0  0  0  0  0  0  0  0  0  0
   20.4512  -19.8055   -9.1597 S   0  0  0  0  0  0  0  0  0  0  0  0
   20.4134  -21.5608   -9.6350 C   0  0  0  0  0  0  0  0  0  0  0  0
   19.1662  -22.1812   -9.0965 C   0  0  0  0  0  0  0  0  0  0  0  0
   19.0205  -23.6425   -9.4750 C   0  0  2  0  0  0  0  0  0  0  0  0
   18.5166  -23.5652  -10.8640 N   0  0  0  0  0  0  0  0  0  0  0  0
   18.0810  -24.3421   -8.6245 C   0  0  0  0  0  0  0  0  0  0  0  0
   16.8510  -24.2921   -8.8870 O   0  0  0  0  0  0  0  0  0  0  0  0
   18.4662  -25.0933   -7.5056 N   0  0  0  0  0  0  0  0  0  0  0  0
   17.4712  -25.6420   -6.5647 C   0  0  1  0  0  0  0  0  0  0  0  0
   18.1657  -26.5456   -5.5743 C   0  0  0  0  0  0  0  0  0  0  0  0
   17.2091  -27.1603   -4.5885 C   0  0  0  0  0  0  0  0  0  0  0  0
   17.9834  -27.9999   -3.5625 C   0  0  0  0  0  0  0  0  0  0  0  0
   16.9826  -28.4674   -2.5365 C   0  0  0  0  0  0  0  0  0  0  0  0
   17.5936  -29.4265   -1.6270 N   0  0  0  0  0  0  0  0  0  0  0  0
   16.7234  -24.5681   -5.9119 C   0  0  0  0  0  0  0  0  0  0  0  0
   17.3071  -23.4941   -5.6212 O   0  0  0  0  0  0  0  0  0  0  0  0
   15.3868  -24.6623   -5.5905 O   0  0  0  0  0  0  0  0  0  0  0  0
  2  1  1  0
  2  3  2  0
  4  5  1  0
  4  2  1  0
  5  6  1  0
  6  7  1  6
  8  6  1  0
  8  9  2  0
 11 12  1  0
 11 10  1  0
 14 13  1  1
 13 12  1  0
 15 14  1  0
 15  8  1  0
 16 14  1  0
 17 16  2  0
 18 16  1  0
 19 25  1  0
 19 18  1  0
 19 20  1  1
 21 20  1  0
 22 21  1  0
 23 22  1  0
 23 24  1  0
 25 27  1  0
 26 25  2  0
M  END
$$$$
