QMK.pdb
     RDKit          3D

 27 26  0  0  1  0  0  0  0  0999 V2000
   19.2391  -14.3546  -18.8467 N   0  0  0  0  0  0  0  0  0  0  0  0
   20.3331  -15.2304  -19.2135 C   0  0  0  0  0  0  0  0  0  0  0  0
   20.0529  -16.1198  -20.0391 O   0  0  0  0  0  0  0  0  0  0  0  0
   21.6268  -14.9689  -18.5810 C   0  0  0  0  0  0  0  0  0  0  0  0
   21.6319  -13.7960  -17.6659 C   0  0  0  0  0  0  0  0  0  0  0  0
   21.9448  -12.4946  -18.3469 C   0  0  2  0  0  0  0  0  0  0  0  0
   23.0699  -12.4945  -19.2080 N   0  0  0  0  0  0  0  0  0  0  0  0
   22.1722  -11.4575  -17.2818 C   0  0  0  0  0  0  0  0  0  0  0  0
   21.3619  -11.3452  -16.3195 O   0  0  0  0  0  0  0  0  0  0  0  0
   28.0620  -10.2535  -17.1850 C   0  0  0  0  0  0  0  0  0  0  0  0
   27.4614  -10.4509  -15.4797 S   0  0  0  0  0  0  0  0  0  0  0  0
   25.6525  -10.6416  -15.4760 C   0  0  0  0  0  0  0  0  0  0  0  0
   25.0454   -9.5133  -16.2434 C   0  0  0  0  0  0  0  0  0  0  0  0
   23.5300   -9.5648  -16.2726 C   0  0  2  0  0  0  0  0  0  0  0  0
   23.2639  -10.5901  -17.3056 N   0  0  0  0  0  0  0  0  0  0  0  0
   22.9416   -8.2953  -16.6435 C   0  0  0  0  0  0  0  0  0  0  0  0
   23.2741   -7.7514  -17.7289 O   0  0  0  0  0  0  0  0  0  0  0  0
   21.9991   -7.6229  -15.8536 N   0  0  0  0  0  0  0  0  0  0  0  0
   21.4350   -6.3229  -16.2638 C   0  0  1  0  0  0  0  0  0  0  0  0
   20.0547   -6.5361  -16.8373 C   0  0  0  0  0  0  0  0  0  0  0  0
   19.4348   -5.2576  -17.3332 C   0  0  0  0  0  0  0  0  0  0  0  0
   18.0756   -5.5533  -17.9832 C   0  0  0  0  0  0  0  0  0  0  0  0
   17.5307   -4.2361  -18.4740 C   0  0  0  0  0  0  0  0  0  0  0  0
   16.3687   -4.4494  -19.3252 N   0  0  0  0  0  0  0  0  0  0  0  0
   21.4361   -5.3784  -15.1473 C   0  0  0  0  0  0  0  0  0  0  0  0
   21.3929   -5.8118  -13.9687 O   0  0  0  0  0  0  0  0  0  0  0  0
   21.4851   -4.0112  -15.3113 O   0  0  0  0  0  0  0  0  0  0  0  0
  2  1  1  0
  2  3  2  0
  4  5  1  0
  4  2  1  0
  5  6  1  0
  6  7  1  1
  8  6  1  0
  8  9  2  0
 11 12  1  0
 11 10  1  0
 14 13  1  6
 13 12  1  0
 15 14  1  0
 15  8  1  0
 16 14  1  0
 17 16  2  0
 18 16  1  0
 19 25  1  0
 19 18  1  0
 19 20  1  1
 21 20  1  0
 22 21  1  0
 23 22  1  0
 23 24  1  0
 25 27  1  0
 26 25  2  0
M  END
$$$$
