QMK.pdb
     RDKit          3D

 27 26  0  0  1  0  0  0  0  0999 V2000
   28.7647  -25.3815  -16.4784 N   0  0  0  0  0  0  0  0  0  0  0  0
   29.1432  -24.3250  -17.3943 C   0  0  0  0  0  0  0  0  0  0  0  0
   29.7530  -24.6947  -18.4154 O   0  0  0  0  0  0  0  0  0  0  0  0
   28.7662  -22.9615  -17.0191 C   0  0  0  0  0  0  0  0  0  0  0  0
   27.9753  -22.8717  -15.7623 C   0  0  0  0  0  0  0  0  0  0  0  0
   26.9373  -21.7866  -15.7730 C   0  0  2  0  0  0  0  0  0  0  0  0
   27.4241  -20.4563  -15.8041 N   0  0  0  0  0  0  0  0  0  0  0  0
   26.0894  -21.9445  -14.5409 C   0  0  0  0  0  0  0  0  0  0  0  0
   25.3797  -22.9775  -14.3849 O   0  0  0  0  0  0  0  0  0  0  0  0
   25.0921  -21.0185   -7.1830 C   0  0  0  0  0  0  0  0  0  0  0  0
   26.0476  -21.0814   -8.7292 S   0  0  0  0  0  0  0  0  0  0  0  0
   25.2022  -20.1206  -10.0218 C   0  0  0  0  0  0  0  0  0  0  0  0
   25.9453  -20.2804  -11.3074 C   0  0  0  0  0  0  0  0  0  0  0  0
   25.1638  -21.0553  -12.3507 C   0  0  2  0  0  0  0  0  0  0  0  0
   26.0476  -20.9796  -13.5350 N   0  0  0  0  0  0  0  0  0  0  0  0
   23.8750  -20.4587  -12.6309 C   0  0  0  0  0  0  0  0  0  0  0  0
   23.8195  -19.2788  -13.0656 O   0  0  0  0  0  0  0  0  0  0  0  0
   22.6588  -21.1314  -12.4496 N   0  0  0  0  0  0  0  0  0  0  0  0
   21.4007  -20.6202  -13.0260 C   0  0  1  0  0  0  0  0  0  0  0  0
   21.1896  -21.2353  -14.3886 C   0  0  0  0  0  0  0  0  0  0  0  0
   19.9352  -20.7382  -15.0552 C   0  0  0  0  0  0  0  0  0  0  0  0
   19.7986  -21.3684  -16.4485 C   0  0  0  0  0  0  0  0  0  0  0  0
   18.5608  -20.7784  -17.0751 C   0  0  0  0  0  0  0  0  0  0  0  0
   18.3803  -21.2880  -18.4271 N   0  0  0  0  0  0  0  0  0  0  0  0
   20.2766  -20.8639  -12.1230 C   0  0  0  0  0  0  0  0  0  0  0  0
   20.3065  -21.8533  -11.3489 O   0  0  0  0  0  0  0  0  0  0  0  0
   19.1620  -20.0559  -12.0651 O   0  0  0  0  0  0  0  0  0  0  0  0
  2  1  1  0
  2  3  2  0
  4  5  1  0
  4  2  1  0
  5  6  1  0
  6  7  1  1
  8  6  1  0
  8  9  2  0
 11 12  1  0
 11 10  1  0
 14 13  1  1
 13 12  1  0
 15 14  1  0
 15  8  1  0
 16 14  1  0
 17 16  2  0
 18 16  1  0
 19 25  1  0
 19 18  1  0
 19 20  1  6
 21 20  1  0
 22 21  1  0
 23 22  1  0
 23 24  1  0
 25 27  1  0
 26 25  2  0
M  END
$$$$
