QMK.pdb
     RDKit          3D

 27 26  0  0  1  0  0  0  0  0999 V2000
   28.9853  -21.3979  -15.6894 N   0  0  0  0  0  0  0  0  0  0  0  0
   28.1187  -21.5686  -16.8375 C   0  0  0  0  0  0  0  0  0  0  0  0
   28.6307  -21.2963  -17.9397 O   0  0  0  0  0  0  0  0  0  0  0  0
   26.7585  -22.0392  -16.5720 C   0  0  0  0  0  0  0  0  0  0  0  0
   26.4567  -22.2493  -15.1305 C   0  0  0  0  0  0  0  0  0  0  0  0
   25.7574  -21.0904  -14.4802 C   0  0  2  0  0  0  0  0  0  0  0  0
   26.4687  -19.8653  -14.4554 N   0  0  0  0  0  0  0  0  0  0  0  0
   25.4429  -21.4762  -13.0611 C   0  0  0  0  0  0  0  0  0  0  0  0
   25.0810  -22.6549  -12.7873 O   0  0  0  0  0  0  0  0  0  0  0  0
   28.3553  -19.6168   -6.7611 C   0  0  0  0  0  0  0  0  0  0  0  0
   26.9313  -18.7884   -7.5315 S   0  0  0  0  0  0  0  0  0  0  0  0
   25.8638  -20.0159   -8.3454 C   0  0  0  0  0  0  0  0  0  0  0  0
   25.9796  -19.8523   -9.8254 C   0  0  0  0  0  0  0  0  0  0  0  0
   25.2065  -20.9025  -10.5995 C   0  0  2  0  0  0  0  0  0  0  0  0
   25.5341  -20.5714  -12.0039 N   0  0  0  0  0  0  0  0  0  0  0  0
   23.7798  -20.8184  -10.3699 C   0  0  0  0  0  0  0  0  0  0  0  0
   23.0924  -19.9983  -11.0327 O   0  0  0  0  0  0  0  0  0  0  0  0
   23.1010  -21.6163   -9.4387 N   0  0  0  0  0  0  0  0  0  0  0  0
   21.6274  -21.6408   -9.3722 C   0  0  1  0  0  0  0  0  0  0  0  0
   21.1901  -22.6796   -8.3674 C   0  0  0  0  0  0  0  0  0  0  0  0
   19.6955  -22.8520   -8.3330 C   0  0  0  0  0  0  0  0  0  0  0  0
   19.3274  -24.0460   -7.4407 C   0  0  0  0  0  0  0  0  0  0  0  0
   17.8220  -24.0980   -7.3801 C   0  0  0  0  0  0  0  0  0  0  0  0
   17.3815  -25.2475   -6.6023 N   0  0  0  0  0  0  0  0  0  0  0  0
   21.0971  -20.3122   -9.0687 C   0  0  0  0  0  0  0  0  0  0  0  0
   21.7473  -19.5416   -8.3189 O   0  0  0  0  0  0  0  0  0  0  0  0
   19.9021  -19.8411   -9.5673 O   0  0  0  0  0  0  0  0  0  0  0  0
  2  1  1  0
  2  3  2  0
  4  5  1  0
  4  2  1  0
  5  6  1  0
  6  7  1  1
  8  6  1  0
  8  9  2  0
 11 12  1  0
 11 10  1  0
 14 13  1  1
 13 12  1  0
 15 14  1  0
 15  8  1  0
 16 14  1  0
 17 16  2  0
 18 16  1  0
 19 25  1  0
 19 18  1  0
 19 20  1  1
 21 20  1  0
 22 21  1  0
 23 22  1  0
 23 24  1  0
 25 27  1  0
 26 25  2  0
M  END
$$$$
