QMK.pdb
     RDKit          3D

 27 26  0  0  1  0  0  0  0  0999 V2000
   28.8163  -22.1362  -19.3481 N   0  0  0  0  0  0  0  0  0  0  0  0
   29.1220  -20.8467  -18.7633 C   0  0  0  0  0  0  0  0  0  0  0  0
   29.1475  -19.8900  -19.5604 O   0  0  0  0  0  0  0  0  0  0  0  0
   29.3594  -20.8178  -17.3194 C   0  0  0  0  0  0  0  0  0  0  0  0
   28.2891  -21.4634  -16.5127 C   0  0  0  0  0  0  0  0  0  0  0  0
   27.1585  -20.5424  -16.1540 C   0  0  2  0  0  0  0  0  0  0  0  0
   27.5218  -19.2304  -15.7612 N   0  0  0  0  0  0  0  0  0  0  0  0
   26.3891  -21.1712  -15.0252 C   0  0  0  0  0  0  0  0  0  0  0  0
   25.8875  -22.3224  -15.1605 O   0  0  0  0  0  0  0  0  0  0  0  0
   25.7234  -20.6275   -7.2109 C   0  0  0  0  0  0  0  0  0  0  0  0
   26.4294  -20.1196   -8.8082 S   0  0  0  0  0  0  0  0  0  0  0  0
   25.5230  -20.9156  -10.1697 C   0  0  0  0  0  0  0  0  0  0  0  0
   26.1299  -20.4931  -11.4672 C   0  0  0  0  0  0  0  0  0  0  0  0
   25.4419  -21.1078  -12.6708 C   0  0  2  0  0  0  0  0  0  0  0  0
   26.1974  -20.5277  -13.8030 N   0  0  0  0  0  0  0  0  0  0  0  0
   24.0415  -20.7497  -12.7487 C   0  0  0  0  0  0  0  0  0  0  0  0
   23.7184  -19.5468  -12.9299 O   0  0  0  0  0  0  0  0  0  0  0  0
   23.0006  -21.6819  -12.6384 N   0  0  0  0  0  0  0  0  0  0  0  0
   21.6029  -21.3170  -12.9381 C   0  0  1  0  0  0  0  0  0  0  0  0
   20.9749  -22.3986  -13.7840 C   0  0  0  0  0  0  0  0  0  0  0  0
   19.5783  -22.0477  -14.2212 C   0  0  0  0  0  0  0  0  0  0  0  0
   19.0219  -23.1528  -15.1303 C   0  0  0  0  0  0  0  0  0  0  0  0
   17.6633  -22.6931  -15.5948 C   0  0  0  0  0  0  0  0  0  0  0  0
   17.0760  -23.6698  -16.5012 N   0  0  0  0  0  0  0  0  0  0  0  0
   20.8544  -21.0654  -11.7074 C   0  0  0  0  0  0  0  0  0  0  0  0
   19.7260  -20.5162  -11.7695 O   0  0  0  0  0  0  0  0  0  0  0  0
   21.3193  -21.4031  -10.4550 O   0  0  0  0  0  0  0  0  0  0  0  0
  2  1  1  0
  2  3  2  0
  4  5  1  0
  4  2  1  0
  5  6  1  0
  6  7  1  1
  8  6  1  0
  8  9  2  0
 11 12  1  0
 11 10  1  0
 14 13  1  1
 13 12  1  0
 15 14  1  0
 15  8  1  0
 16 14  1  0
 17 16  2  0
 18 16  1  0
 19 25  1  0
 19 18  1  0
 19 20  1  1
 21 20  1  0
 22 21  1  0
 23 22  1  0
 23 24  1  0
 25 27  1  0
 26 25  2  0
M  END
$$$$
