QMK.pdb
     RDKit          3D

 27 26  0  0  1  0  0  0  0  0999 V2000
   30.4702  -23.6270  -15.2940 N   0  0  0  0  0  0  0  0  0  0  0  0
   30.4053  -22.7630  -16.4548 C   0  0  0  0  0  0  0  0  0  0  0  0
   31.4322  -22.7345  -17.1590 O   0  0  0  0  0  0  0  0  0  0  0  0
   29.1532  -22.0348  -16.6647 C   0  0  0  0  0  0  0  0  0  0  0  0
   28.1218  -22.2823  -15.6216 C   0  0  0  0  0  0  0  0  0  0  0  0
   27.4573  -21.0345  -15.1151 C   0  0  2  0  0  0  0  0  0  0  0  0
   28.3209  -20.0017  -14.6734 N   0  0  0  0  0  0  0  0  0  0  0  0
   26.5640  -21.4184  -13.9678 C   0  0  0  0  0  0  0  0  0  0  0  0
   25.7599  -22.3855  -14.0833 O   0  0  0  0  0  0  0  0  0  0  0  0
   29.0168  -19.9164   -7.9960 C   0  0  0  0  0  0  0  0  0  0  0  0
   27.2039  -20.0453   -8.0603 S   0  0  0  0  0  0  0  0  0  0  0  0
   26.7018  -21.0349   -9.5016 C   0  0  0  0  0  0  0  0  0  0  0  0
   26.1338  -20.1240  -10.5399 C   0  0  0  0  0  0  0  0  0  0  0  0
   25.5306  -20.8689  -11.7151 C   0  0  2  0  0  0  0  0  0  0  0  0
   26.5808  -20.7402  -12.7494 N   0  0  0  0  0  0  0  0  0  0  0  0
   24.2890  -20.2766  -12.1655 C   0  0  0  0  0  0  0  0  0  0  0  0
   24.2832  -19.0877  -12.5788 O   0  0  0  0  0  0  0  0  0  0  0  0
   23.0670  -20.9631  -12.1756 N   0  0  0  0  0  0  0  0  0  0  0  0
   21.8413  -20.3490  -12.7205 C   0  0  1  0  0  0  0  0  0  0  0  0
   21.6525  -20.7951  -14.1505 C   0  0  0  0  0  0  0  0  0  0  0  0
   20.3681  -20.2854  -14.7465 C   0  0  0  0  0  0  0  0  0  0  0  0
   20.2040  -20.8250  -16.1745 C   0  0  0  0  0  0  0  0  0  0  0  0
   18.9768  -20.1665  -16.7517 C   0  0  0  0  0  0  0  0  0  0  0  0
   18.6413  -20.7530  -18.0416 N   0  0  0  0  0  0  0  0  0  0  0  0
   20.6848  -20.6600  -11.8812 C   0  0  0  0  0  0  0  0  0  0  0  0
   19.5722  -20.1367  -12.1402 O   0  0  0  0  0  0  0  0  0  0  0  0
   20.7402  -21.5129  -10.8004 O   0  0  0  0  0  0  0  0  0  0  0  0
  2  1  1  0
  2  3  2  0
  4  5  1  0
  4  2  1  0
  5  6  1  0
  6  7  1  1
  8  6  1  0
  8  9  2  0
 11 12  1  0
 11 10  1  0
 14 13  1  1
 13 12  1  0
 15 14  1  0
 15  8  1  0
 16 14  1  0
 17 16  2  0
 18 16  1  0
 19 25  1  0
 19 18  1  0
 19 20  1  6
 21 20  1  0
 22 21  1  0
 23 22  1  0
 23 24  1  0
 25 27  1  0
 26 25  2  0
M  END
$$$$
