QMK.pdb
     RDKit          3D

 27 26  0  0  1  0  0  0  0  0999 V2000
   17.6848  -23.3041  -10.2648 N   0  0  0  0  0  0  0  0  0  0  0  0
   19.0815  -23.2885  -10.6485 C   0  0  0  0  0  0  0  0  0  0  0  0
   19.2998  -23.2965  -11.8747 O   0  0  0  0  0  0  0  0  0  0  0  0
   20.0627  -23.2617   -9.5629 C   0  0  0  0  0  0  0  0  0  0  0  0
   20.9686  -22.0820   -9.5890 C   0  0  0  0  0  0  0  0  0  0  0  0
   21.9609  -22.0520   -8.4622 C   0  0  2  0  0  0  0  0  0  0  0  0
   21.4400  -21.7551   -7.1785 N   0  0  0  0  0  0  0  0  0  0  0  0
   23.0051  -21.0212   -8.7919 C   0  0  0  0  0  0  0  0  0  0  0  0
   22.6991  -19.7966   -8.8353 O   0  0  0  0  0  0  0  0  0  0  0  0
   28.2570  -19.2049   -5.0382 C   0  0  0  0  0  0  0  0  0  0  0  0
   28.1162  -20.2748   -6.5021 S   0  0  0  0  0  0  0  0  0  0  0  0
   26.6157  -19.8517   -7.4392 C   0  0  0  0  0  0  0  0  0  0  0  0
   26.5412  -20.7207   -8.6516 C   0  0  0  0  0  0  0  0  0  0  0  0
   25.3517  -20.4019   -9.5365 C   0  0  2  0  0  0  0  0  0  0  0  0
   24.3309  -21.3608   -9.0593 N   0  0  0  0  0  0  0  0  0  0  0  0
   25.6368  -20.6093  -10.9404 C   0  0  0  0  0  0  0  0  0  0  0  0
   25.4265  -21.7384  -11.4555 O   0  0  0  0  0  0  0  0  0  0  0  0
   26.1379  -19.6060  -11.7813 N   0  0  0  0  0  0  0  0  0  0  0  0
   26.3852  -19.8526  -13.2146 C   0  0  1  0  0  0  0  0  0  0  0  0
   26.8952  -18.5858  -13.8585 C   0  0  0  0  0  0  0  0  0  0  0  0
   27.0716  -18.7283  -15.3462 C   0  0  0  0  0  0  0  0  0  0  0  0
   27.6386  -17.4275  -15.9325 C   0  0  0  0  0  0  0  0  0  0  0  0
   27.7610  -17.6362  -17.4205 C   0  0  0  0  0  0  0  0  0  0  0  0
   28.2467  -16.4256  -18.0678 N   0  0  0  0  0  0  0  0  0  0  0  0
   27.2981  -20.9799  -13.3998 C   0  0  0  0  0  0  0  0  0  0  0  0
   27.1228  -21.7679  -14.3627 O   0  0  0  0  0  0  0  0  0  0  0  0
   28.3648  -21.2362  -12.5661 O   0  0  0  0  0  0  0  0  0  0  0  0
  2  1  1  0
  2  3  2  0
  4  5  1  0
  4  2  1  0
  5  6  1  0
  6  7  1  1
  8  6  1  0
  8  9  2  0
 11 12  1  0
 11 10  1  0
 14 13  1  1
 13 12  1  0
 15 14  1  0
 15  8  1  0
 16 14  1  0
 17 16  2  0
 18 16  1  0
 19 25  1  0
 19 18  1  0
 19 20  1  1
 21 20  1  0
 22 21  1  0
 23 22  1  0
 23 24  1  0
 25 27  1  0
 26 25  2  0
M  END
$$$$
