QMK.pdb
     RDKit          3D

 27 26  0  0  1  0  0  0  0  0999 V2000
   19.1091  -21.8189  -10.7680 N   0  0  0  0  0  0  0  0  0  0  0  0
   18.0676  -21.8744  -11.7732 C   0  0  0  0  0  0  0  0  0  0  0  0
   17.0929  -22.5980  -11.4946 O   0  0  0  0  0  0  0  0  0  0  0  0
   18.2777  -21.0798  -12.9842 C   0  0  0  0  0  0  0  0  0  0  0  0
   19.5794  -20.3606  -13.0231 C   0  0  0  0  0  0  0  0  0  0  0  0
   20.6132  -21.0203  -13.8898 C   0  0  2  0  0  0  0  0  0  0  0  0
   20.6996  -22.4314  -13.7953 N   0  0  0  0  0  0  0  0  0  0  0  0
   21.9553  -20.4454  -13.5292 C   0  0  0  0  0  0  0  0  0  0  0  0
   22.1636  -19.2038  -13.6297 O   0  0  0  0  0  0  0  0  0  0  0  0
   25.2929  -19.9382   -8.9093 C   0  0  0  0  0  0  0  0  0  0  0  0
   26.4332  -21.2183   -9.5167 S   0  0  0  0  0  0  0  0  0  0  0  0
   26.2769  -21.3843  -11.3213 C   0  0  0  0  0  0  0  0  0  0  0  0
   24.8385  -21.5916  -11.6655 C   0  0  0  0  0  0  0  0  0  0  0  0
   24.3780  -20.7333  -12.8278 C   0  0  2  0  0  0  0  0  0  0  0  0
   23.0097  -21.2381  -13.0768 N   0  0  0  0  0  0  0  0  0  0  0  0
   25.2098  -20.9000  -14.0006 C   0  0  0  0  0  0  0  0  0  0  0  0
   25.1327  -21.9636  -14.6693 O   0  0  0  0  0  0  0  0  0  0  0  0
   26.1113  -19.9256  -14.4507 N   0  0  0  0  0  0  0  0  0  0  0  0
   26.8720  -20.0977  -15.7030 C   0  0  1  0  0  0  0  0  0  0  0  0
   27.5775  -18.8060  -16.0401 C   0  0  0  0  0  0  0  0  0  0  0  0
   28.3944  -18.9095  -17.2998 C   0  0  0  0  0  0  0  0  0  0  0  0
   29.0792  -17.5665  -17.5906 C   0  0  0  0  0  0  0  0  0  0  0  0
   29.8812  -17.7500  -18.8539 C   0  0  0  0  0  0  0  0  0  0  0  0
   30.6491  -16.5488  -19.1503 N   0  0  0  0  0  0  0  0  0  0  0  0
   27.7945  -21.2278  -15.6015 C   0  0  0  0  0  0  0  0  0  0  0  0
   28.3474  -21.4799  -14.5017 O   0  0  0  0  0  0  0  0  0  0  0  0
   28.1001  -22.0541  -16.6609 O   0  0  0  0  0  0  0  0  0  0  0  0
  2  1  1  0
  2  3  2  0
  4  5  1  0
  4  2  1  0
  5  6  1  0
  6  7  1  1
  8  6  1  0
  8  9  2  0
 11 12  1  0
 11 10  1  0
 14 13  1  1
 13 12  1  0
 15 14  1  0
 15  8  1  0
 16 14  1  0
 17 16  2  0
 18 16  1  0
 19 25  1  0
 19 18  1  0
 19 20  1  1
 21 20  1  0
 22 21  1  0
 23 22  1  0
 23 24  1  0
 25 27  1  0
 26 25  2  0
M  END
$$$$
