QMK.pdb
     RDKit          3D

 27 26  0  0  1  0  0  0  0  0999 V2000
   18.0850  -18.5150  -12.3174 N   0  0  0  0  0  0  0  0  0  0  0  0
   17.7895  -19.2830  -13.5095 C   0  0  0  0  0  0  0  0  0  0  0  0
   16.7816  -20.0115  -13.4408 O   0  0  0  0  0  0  0  0  0  0  0  0
   18.6974  -19.1127  -14.6448 C   0  0  0  0  0  0  0  0  0  0  0  0
   19.7535  -18.0867  -14.4321 C   0  0  0  0  0  0  0  0  0  0  0  0
   21.0949  -18.4704  -14.9875 C   0  0  2  0  0  0  0  0  0  0  0  0
   21.5716  -19.7577  -14.6367 N   0  0  0  0  0  0  0  0  0  0  0  0
   22.0994  -17.4559  -14.5146 C   0  0  0  0  0  0  0  0  0  0  0  0
   22.1424  -17.1226  -13.2971 O   0  0  0  0  0  0  0  0  0  0  0  0
   27.6336  -16.8479  -17.4401 C   0  0  0  0  0  0  0  0  0  0  0  0
   27.9049  -15.8909  -15.9176 S   0  0  0  0  0  0  0  0  0  0  0  0
   26.3311  -15.1881  -15.3364 C   0  0  0  0  0  0  0  0  0  0  0  0
   25.2569  -16.2144  -15.4895 C   0  0  0  0  0  0  0  0  0  0  0  0
   23.9069  -15.7379  -14.9894 C   0  0  2  0  0  0  0  0  0  0  0  0
   23.0105  -16.8489  -15.3783 N   0  0  0  0  0  0  0  0  0  0  0  0
   23.4928  -14.4993  -15.6136 C   0  0  0  0  0  0  0  0  0  0  0  0
   24.0379  -13.4185  -15.2685 O   0  0  0  0  0  0  0  0  0  0  0  0
   22.5046  -14.4290  -16.6051 N   0  0  0  0  0  0  0  0  0  0  0  0
   22.1496  -13.1514  -17.2518 C   0  0  1  0  0  0  0  0  0  0  0  0
   21.2348  -13.4215  -18.4222 C   0  0  0  0  0  0  0  0  0  0  0  0
   20.8121  -12.1592  -19.1242 C   0  0  0  0  0  0  0  0  0  0  0  0
   19.8386  -12.4950  -20.2629 C   0  0  0  0  0  0  0  0  0  0  0  0
   19.4458  -11.1871  -20.9014 C   0  0  0  0  0  0  0  0  0  0  0  0
   18.5223  -11.4141  -22.0042 N   0  0  0  0  0  0  0  0  0  0  0  0
   21.5621  -12.2238  -16.2861 C   0  0  0  0  0  0  0  0  0  0  0  0
   21.9454  -11.0274  -16.2634 O   0  0  0  0  0  0  0  0  0  0  0  0
   20.5899  -12.5880  -15.3801 O   0  0  0  0  0  0  0  0  0  0  0  0
  2  1  1  0
  2  3  2  0
  4  5  1  0
  4  2  1  0
  5  6  1  0
  6  7  1  1
  8  6  1  0
  8  9  2  0
 11 12  1  0
 11 10  1  0
 14 13  1  6
 13 12  1  0
 15 14  1  0
 15  8  1  0
 16 14  1  0
 17 16  2  0
 18 16  1  0
 19 25  1  0
 19 18  1  0
 19 20  1  6
 21 20  1  0
 22 21  1  0
 23 22  1  0
 23 24  1  0
 25 27  1  0
 26 25  2  0
M  END
$$$$
