QMK.pdb
     RDKit          3D

 27 26  0  0  1  0  0  0  0  0999 V2000
   18.6076  -19.9489  -13.6773 N   0  0  0  0  0  0  0  0  0  0  0  0
   18.3145  -21.1225  -12.8804 C   0  0  0  0  0  0  0  0  0  0  0  0
   17.1719  -21.5965  -13.0258 O   0  0  0  0  0  0  0  0  0  0  0  0
   19.3842  -21.6113  -12.0094 C   0  0  0  0  0  0  0  0  0  0  0  0
   20.6376  -20.8127  -12.0764 C   0  0  0  0  0  0  0  0  0  0  0  0
   21.3863  -20.9632  -13.3694 C   0  0  2  0  0  0  0  0  0  0  0  0
   21.6851  -22.2897  -13.7678 N   0  0  0  0  0  0  0  0  0  0  0  0
   22.6822  -20.2104  -13.2446 C   0  0  0  0  0  0  0  0  0  0  0  0
   22.6795  -18.9854  -12.9367 O   0  0  0  0  0  0  0  0  0  0  0  0
   26.1316  -21.0627   -8.0426 C   0  0  0  0  0  0  0  0  0  0  0  0
   26.6243  -21.4455   -9.7509 S   0  0  0  0  0  0  0  0  0  0  0  0
   25.6122  -20.4869  -10.9193 C   0  0  0  0  0  0  0  0  0  0  0  0
   25.9549  -20.9041  -12.3118 C   0  0  0  0  0  0  0  0  0  0  0  0
   25.2156  -20.1057  -13.3681 C   0  0  2  0  0  0  0  0  0  0  0  0
   23.9204  -20.8153  -13.4582 N   0  0  0  0  0  0  0  0  0  0  0  0
   25.8977  -20.1147  -14.6448 C   0  0  0  0  0  0  0  0  0  0  0  0
   25.7768  -21.1105  -15.4052 O   0  0  0  0  0  0  0  0  0  0  0  0
   26.6971  -19.0567  -15.0988 N   0  0  0  0  0  0  0  0  0  0  0  0
   27.3052  -19.0704  -16.4428 C   0  0  1  0  0  0  0  0  0  0  0  0
   28.0756  -17.7893  -16.6554 C   0  0  0  0  0  0  0  0  0  0  0  0
   28.6121  -17.6674  -18.0561 C   0  0  0  0  0  0  0  0  0  0  0  0
   29.4092  -16.3630  -18.1989 C   0  0  0  0  0  0  0  0  0  0  0  0
   29.9095  -16.3104  -19.6201 C   0  0  0  0  0  0  0  0  0  0  0  0
   30.7941  -15.1692  -19.8083 N   0  0  0  0  0  0  0  0  0  0  0  0
   28.1367  -20.2592  -16.6267 C   0  0  0  0  0  0  0  0  0  0  0  0
   28.1642  -20.8293  -17.7461 O   0  0  0  0  0  0  0  0  0  0  0  0
   28.9118  -20.8041  -15.6263 O   0  0  0  0  0  0  0  0  0  0  0  0
  2  1  1  0
  2  3  2  0
  4  5  1  0
  4  2  1  0
  5  6  1  0
  6  7  1  1
  8  6  1  0
  8  9  2  0
 11 12  1  0
 11 10  1  0
 14 13  1  1
 13 12  1  0
 15 14  1  0
 15  8  1  0
 16 14  1  0
 17 16  2  0
 18 16  1  0
 19 25  1  0
 19 18  1  0
 19 20  1  1
 21 20  1  0
 22 21  1  0
 23 22  1  0
 23 24  1  0
 25 27  1  0
 26 25  2  0
M  END
$$$$
