QMK.pdb
     RDKit          3D

 27 26  0  0  1  0  0  0  0  0999 V2000
   28.0702  -14.6232  -17.6889 N   0  0  0  0  0  0  0  0  0  0  0  0
   28.2910  -16.0521  -17.7768 C   0  0  0  0  0  0  0  0  0  0  0  0
   28.0670  -16.5608  -18.8913 O   0  0  0  0  0  0  0  0  0  0  0  0
   28.7500  -16.7239  -16.5601 C   0  0  0  0  0  0  0  0  0  0  0  0
   27.9991  -17.9646  -16.2287 C   0  0  0  0  0  0  0  0  0  0  0  0
   26.6498  -17.7145  -15.6189 C   0  0  2  0  0  0  0  0  0  0  0  0
   26.5926  -16.7146  -14.6166 N   0  0  0  0  0  0  0  0  0  0  0  0
   26.1665  -19.0056  -15.0180 C   0  0  0  0  0  0  0  0  0  0  0  0
   26.1181  -20.0551  -15.7191 O   0  0  0  0  0  0  0  0  0  0  0  0
   25.5838  -19.6997   -8.3955 C   0  0  0  0  0  0  0  0  0  0  0  0
   26.2662  -21.2014   -9.1615 S   0  0  0  0  0  0  0  0  0  0  0  0
   25.5384  -21.4436  -10.8108 C   0  0  0  0  0  0  0  0  0  0  0  0
   25.9089  -20.2855  -11.6781 C   0  0  0  0  0  0  0  0  0  0  0  0
   25.2825  -20.3544  -13.0574 C   0  0  2  0  0  0  0  0  0  0  0  0
   25.7580  -19.1033  -13.6883 N   0  0  0  0  0  0  0  0  0  0  0  0
   23.8363  -20.3878  -13.0058 C   0  0  0  0  0  0  0  0  0  0  0  0
   23.1976  -19.3187  -12.8228 O   0  0  0  0  0  0  0  0  0  0  0  0
   23.0869  -21.5627  -13.1566 N   0  0  0  0  0  0  0  0  0  0  0  0
   21.6119  -21.5454  -13.1343 C   0  0  1  0  0  0  0  0  0  0  0  0
   21.0882  -22.8154  -13.7610 C   0  0  0  0  0  0  0  0  0  0  0  0
   19.5863  -22.8329  -13.8545 C   0  0  0  0  0  0  0  0  0  0  0  0
   19.1252  -24.0747  -14.6307 C   0  0  0  0  0  0  0  0  0  0  0  0
   17.6197  -24.0198  -14.6877 C   0  0  0  0  0  0  0  0  0  0  0  0
   17.1039  -25.0567  -15.5704 N   0  0  0  0  0  0  0  0  0  0  0  0
   21.1133  -21.3471  -11.7740 C   0  0  0  0  0  0  0  0  0  0  0  0
   21.7372  -21.8492  -10.8057 O   0  0  0  0  0  0  0  0  0  0  0  0
   19.9769  -20.6251  -11.4811 O   0  0  0  0  0  0  0  0  0  0  0  0
  2  1  1  0
  2  3  2  0
  4  5  1  0
  4  2  1  0
  5  6  1  0
  6  7  1  1
  8  6  1  0
  8  9  2  0
 11 12  1  0
 11 10  1  0
 14 13  1  1
 13 12  1  0
 15 14  1  0
 15  8  1  0
 16 14  1  0
 17 16  2  0
 18 16  1  0
 19 25  1  0
 19 18  1  0
 19 20  1  1
 21 20  1  0
 22 21  1  0
 23 22  1  0
 23 24  1  0
 25 27  1  0
 26 25  2  0
M  END
$$$$
