QMK.pdb
     RDKit          3D

 27 26  0  0  1  0  0  0  0  0999 V2000
   20.0758  -22.2019  -13.9587 N   0  0  0  0  0  0  0  0  0  0  0  0
   19.2894  -21.1533  -14.5754 C   0  0  0  0  0  0  0  0  0  0  0  0
   18.1919  -21.5118  -15.0424 O   0  0  0  0  0  0  0  0  0  0  0  0
   19.8680  -19.8090  -14.5749 C   0  0  0  0  0  0  0  0  0  0  0  0
   21.2065  -19.7217  -13.9314 C   0  0  0  0  0  0  0  0  0  0  0  0
   22.3509  -19.7363  -14.9036 C   0  0  2  0  0  0  0  0  0  0  0  0
   23.4877  -20.4897  -14.5194 N   0  0  0  0  0  0  0  0  0  0  0  0
   22.7871  -18.3145  -15.1269 C   0  0  0  0  0  0  0  0  0  0  0  0
   23.4252  -17.6961  -14.2294 O   0  0  0  0  0  0  0  0  0  0  0  0
   28.2432  -17.5924  -17.7764 C   0  0  0  0  0  0  0  0  0  0  0  0
   26.5990  -17.2100  -18.4531 S   0  0  0  0  0  0  0  0  0  0  0  0
   25.4365  -16.8568  -17.0995 C   0  0  0  0  0  0  0  0  0  0  0  0
   24.0889  -16.5771  -17.6795 C   0  0  0  0  0  0  0  0  0  0  0  0
   23.0403  -16.2806  -16.6249 C   0  0  2  0  0  0  0  0  0  0  0  0
   22.5138  -17.6269  -16.3090 N   0  0  0  0  0  0  0  0  0  0  0  0
   21.9876  -15.4191  -17.1200 C   0  0  0  0  0  0  0  0  0  0  0  0
   21.0913  -15.8991  -17.8620 O   0  0  0  0  0  0  0  0  0  0  0  0
   21.9000  -14.0546  -16.8119 N   0  0  0  0  0  0  0  0  0  0  0  0
   20.8044  -13.2148  -17.3321 C   0  0  1  0  0  0  0  0  0  0  0  0
   20.8444  -11.8659  -16.6549 C   0  0  0  0  0  0  0  0  0  0  0  0
   19.8239  -10.9117  -17.2142 C   0  0  0  0  0  0  0  0  0  0  0  0
   19.9338   -9.5541  -16.5055 C   0  0  0  0  0  0  0  0  0  0  0  0
   18.9557   -8.6279  -17.1824 C   0  0  0  0  0  0  0  0  0  0  0  0
   19.1083   -7.2693  -16.6812 N   0  0  0  0  0  0  0  0  0  0  0  0
   20.8741  -13.1105  -18.7891 C   0  0  0  0  0  0  0  0  0  0  0  0
   19.8338  -12.8456  -19.4421 O   0  0  0  0  0  0  0  0  0  0  0  0
   22.0372  -13.2862  -19.5067 O   0  0  0  0  0  0  0  0  0  0  0  0
  2  1  1  0
  2  3  2  0
  4  5  1  0
  4  2  1  0
  5  6  1  0
  6  7  1  1
  8  6  1  0
  8  9  2  0
 11 12  1  0
 11 10  1  0
 14 13  1  6
 13 12  1  0
 15 14  1  0
 15  8  1  0
 16 14  1  0
 17 16  2  0
 18 16  1  0
 19 25  1  0
 19 18  1  0
 19 20  1  1
 21 20  1  0
 22 21  1  0
 23 22  1  0
 23 24  1  0
 25 27  1  0
 26 25  2  0
M  END
$$$$
