SMI.pdb
     RDKit          3D

 23 22  0  0  1  0  0  0  0  0999 V2000
   18.0712  -12.3789  -18.2941 O   0  0  0  0  0  0  0  0  0  0  0  0
   18.7706  -11.6792  -17.3159 C   0  0  0  0  0  0  0  0  0  0  0  0
   20.2180  -12.0722  -17.3292 C   0  0  2  0  0  0  0  0  0  0  0  0
   20.3270  -13.4955  -17.1278 N   0  0  0  0  0  0  0  0  0  0  0  0
   21.0315  -11.3068  -16.3628 C   0  0  0  0  0  0  0  0  0  0  0  0
   20.7305  -11.2039  -15.1490 O   0  0  0  0  0  0  0  0  0  0  0  0
   27.3469  -12.0919  -14.8707 C   0  0  0  0  0  0  0  0  0  0  0  0
   27.1766  -10.5209  -15.7602 S   0  0  0  0  0  0  0  0  0  0  0  0
   25.5595   -9.7450  -15.3764 C   0  0  0  0  0  0  0  0  0  0  0  0
   24.5339  -10.4677  -16.1936 C   0  0  0  0  0  0  0  0  0  0  0  0
   23.1169  -10.0210  -15.8938 C   0  0  2  0  0  0  0  0  0  0  0  0
   22.2062  -10.6561  -16.8178 N   0  0  0  0  0  0  0  0  0  0  0  0
   23.0854   -8.5440  -16.1946 C   0  0  0  0  0  0  0  0  0  0  0  0
   23.3075   -8.1992  -17.3602 O   0  0  0  0  0  0  0  0  0  0  0  0
   20.3716   -4.1342  -17.8132 C   0  0  0  0  0  0  0  0  0  0  0  0
   21.3716   -4.3527  -16.6657 C   0  0  0  0  0  0  0  0  0  0  0  0
   21.4796   -5.8407  -16.4244 C   0  0  2  0  0  0  0  0  0  0  0  0
   20.1608   -6.2120  -15.7647 C   0  0  0  0  0  0  0  0  0  0  0  0
   22.5715   -6.2300  -15.4888 C   0  0  2  0  0  0  0  0  0  0  0  0
   22.8224   -7.5830  -15.2331 N   0  0  0  0  0  0  0  0  0  0  0  0
   22.5326   -5.4501  -14.2571 C   0  0  0  0  0  0  0  0  0  0  0  0
   22.3674   -6.1508  -13.0405 O   0  0  0  0  0  0  0  0  0  0  0  0
   22.6282   -4.2163  -14.1340 O   0  0  0  0  0  0  0  0  0  0  0  0
  2  1  1  0
  3  2  1  0
  3  4  1  1
  3  5  1  0
  5 12  1  0
  5  6  2  0
  7  8  1  0
  8  9  1  0
  9 10  1  0
 11 10  1  6
 11 13  1  0
 12 11  1  0
 13 14  2  0
 16 15  1  0
 17 18  1  1
 17 16  1  0
 19 17  1  0
 20 13  1  0
 19 20  1  1
 21 22  1  0
 21 19  1  0
 23 21  2  0
M  END
$$$$
