SMI.pdb
     RDKit          3D

 23 22  0  0  1  0  0  0  0  0999 V2000
   26.6797  -18.9240  -15.7488 O   0  0  0  0  0  0  0  0  0  0  0  0
   27.9585  -19.0028  -15.2064 C   0  0  0  0  0  0  0  0  0  0  0  0
   28.2794  -20.4197  -14.8337 C   0  0  2  0  0  0  0  0  0  0  0  0
   28.4917  -21.1913  -16.0327 N   0  0  0  0  0  0  0  0  0  0  0  0
   27.2633  -21.0271  -13.9505 C   0  0  0  0  0  0  0  0  0  0  0  0
   26.4659  -21.9148  -14.3384 O   0  0  0  0  0  0  0  0  0  0  0  0
   27.4944  -20.3223   -7.4019 C   0  0  0  0  0  0  0  0  0  0  0  0
   25.7199  -20.1879   -7.7510 S   0  0  0  0  0  0  0  0  0  0  0  0
   25.3239  -20.9929   -9.3508 C   0  0  0  0  0  0  0  0  0  0  0  0
   26.3520  -20.5220  -10.3323 C   0  0  0  0  0  0  0  0  0  0  0  0
   26.1295  -21.0671  -11.7289 C   0  0  2  0  0  0  0  0  0  0  0  0
   27.1777  -20.5941  -12.6030 N   0  0  0  0  0  0  0  0  0  0  0  0
   24.8447  -20.4408  -12.2086 C   0  0  0  0  0  0  0  0  0  0  0  0
   24.8581  -19.2265  -12.4369 O   0  0  0  0  0  0  0  0  0  0  0  0
   22.7018  -20.6439  -16.7165 C   0  0  0  0  0  0  0  0  0  0  0  0
   23.1489  -20.2727  -15.2929 C   0  0  0  0  0  0  0  0  0  0  0  0
   22.1238  -20.8233  -14.3286 C   0  0  2  0  0  0  0  0  0  0  0  0
   20.8734  -20.0009  -14.5979 C   0  0  0  0  0  0  0  0  0  0  0  0
   22.4765  -20.6415  -12.8927 C   0  0  2  0  0  0  0  0  0  0  0  0
   23.6778  -21.1617  -12.3977 N   0  0  0  0  0  0  0  0  0  0  0  0
   21.3545  -20.9561  -12.0157 C   0  0  0  0  0  0  0  0  0  0  0  0
   21.2678  -22.2716  -11.5058 O   0  0  0  0  0  0  0  0  0  0  0  0
   20.4397  -20.1980  -11.6483 O   0  0  0  0  0  0  0  0  0  0  0  0
  2  1  1  0
  3  2  1  0
  3  4  1  6
  3  5  1  0
  5 12  1  0
  5  6  2  0
  7  8  1  0
  8  9  1  0
  9 10  1  0
 11 10  1  1
 11 13  1  0
 12 11  1  0
 13 14  2  0
 16 15  1  0
 17 18  1  1
 17 16  1  0
 19 17  1  0
 20 13  1  0
 19 20  1  1
 21 22  1  0
 21 19  1  0
 23 21  2  0
M  END
$$$$
