SMI.pdb
     RDKit          3D

 23 22  0  0  1  0  0  0  0  0999 V2000
   28.9390  -21.5690  -16.9466 O   0  0  0  0  0  0  0  0  0  0  0  0
   27.7509  -21.7783  -16.2536 C   0  0  0  0  0  0  0  0  0  0  0  0
   27.6448  -20.8236  -15.1018 C   0  0  2  0  0  0  0  0  0  0  0  0
   28.9610  -20.5681  -14.5721 N   0  0  0  0  0  0  0  0  0  0  0  0
   26.7020  -21.2799  -14.0605 C   0  0  0  0  0  0  0  0  0  0  0  0
   25.7412  -22.0503  -14.3010 O   0  0  0  0  0  0  0  0  0  0  0  0
   26.7813  -18.8774   -7.6610 C   0  0  0  0  0  0  0  0  0  0  0  0
   26.5548  -20.6767   -7.6585 S   0  0  0  0  0  0  0  0  0  0  0  0
   25.6796  -21.2095   -9.1798 C   0  0  0  0  0  0  0  0  0  0  0  0
   26.5438  -20.8051  -10.3339 C   0  0  0  0  0  0  0  0  0  0  0  0
   25.9777  -21.2306  -11.6740 C   0  0  2  0  0  0  0  0  0  0  0  0
   26.8826  -20.8326  -12.7271 N   0  0  0  0  0  0  0  0  0  0  0  0
   24.7157  -20.4259  -11.8548 C   0  0  0  0  0  0  0  0  0  0  0  0
   24.8431  -19.2269  -12.1251 O   0  0  0  0  0  0  0  0  0  0  0  0
   21.3103  -19.6321  -16.0022 C   0  0  0  0  0  0  0  0  0  0  0  0
   21.0807  -19.8046  -14.4916 C   0  0  0  0  0  0  0  0  0  0  0  0
   22.3366  -20.4003  -13.8986 C   0  0  2  0  0  0  0  0  0  0  0  0
   22.3974  -21.8048  -14.4784 C   0  0  0  0  0  0  0  0  0  0  0  0
   22.3090  -20.5311  -12.4149 C   0  0  2  0  0  0  0  0  0  0  0  0
   23.4487  -20.9705  -11.7315 N   0  0  0  0  0  0  0  0  0  0  0  0
   21.1091  -21.2204  -11.9546 C   0  0  0  0  0  0  0  0  0  0  0  0
   21.2784  -22.4270  -11.2380 O   0  0  0  0  0  0  0  0  0  0  0  0
   19.9248  -20.8761  -12.1145 O   0  0  0  0  0  0  0  0  0  0  0  0
  2  1  1  0
  3  2  1  0
  3  4  1  1
  3  5  1  0
  5 12  1  0
  5  6  2  0
  7  8  1  0
  8  9  1  0
  9 10  1  0
 11 10  1  1
 11 13  1  0
 12 11  1  0
 13 14  2  0
 16 15  1  0
 17 18  1  6
 17 16  1  0
 19 17  1  0
 20 13  1  0
 19 20  1  6
 21 22  1  0
 21 19  1  0
 23 21  2  0
M  END
$$$$
