SMI.pdb
     RDKit          3D

 23 22  0  0  1  0  0  0  0  0999 V2000
   26.5970  -17.7052  -15.5643 O   0  0  0  0  0  0  0  0  0  0  0  0
   27.7932  -18.0175  -14.9260 C   0  0  0  0  0  0  0  0  0  0  0  0
   28.1300  -19.4646  -15.1305 C   0  0  2  0  0  0  0  0  0  0  0  0
   28.3965  -19.6988  -16.5278 N   0  0  0  0  0  0  0  0  0  0  0  0
   27.0980  -20.3770  -14.5976 C   0  0  0  0  0  0  0  0  0  0  0  0
   26.3620  -21.0780  -15.3334 O   0  0  0  0  0  0  0  0  0  0  0  0
   24.9984  -20.9586   -7.8538 C   0  0  0  0  0  0  0  0  0  0  0  0
   26.4477  -20.2701   -8.6988 S   0  0  0  0  0  0  0  0  0  0  0  0
   26.0800  -20.0023  -10.4757 C   0  0  0  0  0  0  0  0  0  0  0  0
   26.0593  -21.3555  -11.1166 C   0  0  0  0  0  0  0  0  0  0  0  0
   25.8844  -21.2946  -12.6209 C   0  0  2  0  0  0  0  0  0  0  0  0
   26.9240  -20.4715  -13.1935 N   0  0  0  0  0  0  0  0  0  0  0  0
   24.5804  -20.5729  -12.8484 C   0  0  0  0  0  0  0  0  0  0  0  0
   24.6248  -19.3420  -12.9464 O   0  0  0  0  0  0  0  0  0  0  0  0
   20.7249  -18.9404  -16.4733 C   0  0  0  0  0  0  0  0  0  0  0  0
   20.6867  -19.4655  -15.0286 C   0  0  0  0  0  0  0  0  0  0  0  0
   21.9966  -20.1689  -14.7581 C   0  0  2  0  0  0  0  0  0  0  0  0
   21.9521  -21.4026  -15.6461 C   0  0  0  0  0  0  0  0  0  0  0  0
   22.1600  -20.6365  -13.3531 C   0  0  2  0  0  0  0  0  0  0  0  0
   23.3635  -21.2258  -12.9491 N   0  0  0  0  0  0  0  0  0  0  0  0
   21.0076  -21.4078  -12.9018 C   0  0  0  0  0  0  0  0  0  0  0  0
   19.7636  -20.7420  -12.8170 O   0  0  0  0  0  0  0  0  0  0  0  0
   20.9756  -22.6068  -12.5731 O   0  0  0  0  0  0  0  0  0  0  0  0
  2  1  1  0
  3  2  1  0
  3  4  1  6
  3  5  1  0
  5 12  1  0
  5  6  2  0
  7  8  1  0
  8  9  1  0
  9 10  1  0
 11 10  1  1
 11 13  1  0
 12 11  1  0
 13 14  2  0
 16 15  1  0
 17 18  1  6
 17 16  1  0
 19 17  1  0
 20 13  1  0
 19 20  1  6
 21 22  1  0
 21 19  1  0
 23 21  2  0
M  END
$$$$
