SMI.pdb
     RDKit          3D

 23 22  0  0  1  0  0  0  0  0999 V2000
   28.4961  -19.4513  -14.7188 O   0  0  0  0  0  0  0  0  0  0  0  0
   28.4704  -20.6639  -14.0373 C   0  0  0  0  0  0  0  0  0  0  0  0
   27.0747  -20.9789  -13.5875 C   0  0  2  0  0  0  0  0  0  0  0  0
   26.1699  -20.8255  -14.6993 N   0  0  0  0  0  0  0  0  0  0  0  0
   26.6559  -20.1878  -12.4127 C   0  0  0  0  0  0  0  0  0  0  0  0
   26.5357  -18.9391  -12.4392 O   0  0  0  0  0  0  0  0  0  0  0  0
   21.2474  -19.9641   -9.2107 C   0  0  0  0  0  0  0  0  0  0  0  0
   21.7466  -20.4657  -10.8803 S   0  0  0  0  0  0  0  0  0  0  0  0
   23.4979  -20.0126  -11.1834 C   0  0  0  0  0  0  0  0  0  0  0  0
   24.2839  -20.5463  -10.0260 C   0  0  0  0  0  0  0  0  0  0  0  0
   25.7524  -20.1761  -10.0876 C   0  0  2  0  0  0  0  0  0  0  0  0
   26.3753  -20.8607  -11.1965 N   0  0  0  0  0  0  0  0  0  0  0  0
   26.3647  -20.7359   -8.8288 C   0  0  0  0  0  0  0  0  0  0  0  0
   26.7115  -21.9217   -8.8473 O   0  0  0  0  0  0  0  0  0  0  0  0
   29.3846  -17.6935   -5.2251 C   0  0  0  0  0  0  0  0  0  0  0  0
   28.9590  -18.8220   -6.1788 C   0  0  0  0  0  0  0  0  0  0  0  0
   27.7850  -19.5382   -5.5520 C   0  0  2  0  0  0  0  0  0  0  0  0
   28.4038  -20.3806   -4.4476 C   0  0  0  0  0  0  0  0  0  0  0  0
   27.0723  -20.4659   -6.4743 C   0  0  2  0  0  0  0  0  0  0  0  0
   26.5477  -19.9854   -7.6797 N   0  0  0  0  0  0  0  0  0  0  0  0
   26.1087  -21.2998   -5.7652 C   0  0  0  0  0  0  0  0  0  0  0  0
   26.6075  -22.2071   -4.8029 O   0  0  0  0  0  0  0  0  0  0  0  0
   24.8726  -21.3174   -5.9002 O   0  0  0  0  0  0  0  0  0  0  0  0
  2  1  1  0
  3  2  1  0
  3  4  1  6
  3  5  1  0
  5 12  1  0
  5  6  2  0
  7  8  1  0
  8  9  1  0
  9 10  1  0
 11 10  1  1
 11 13  1  0
 12 11  1  0
 13 14  2  0
 16 15  1  0
 17 18  1  1
 17 16  1  0
 19 17  1  0
 20 13  1  0
 19 20  1  6
 21 22  1  0
 21 19  1  0
 23 21  2  0
M  END
$$$$
