SMI.pdb
     RDKit          3D

 23 22  0  0  1  0  0  0  0  0999 V2000
   27.1820  -34.6577    0.4882 O   0  0  0  0  0  0  0  0  0  0  0  0
   28.1708  -33.7044    0.2664 C   0  0  0  0  0  0  0  0  0  0  0  0
   29.2121  -33.7742    1.3436 C   0  0  2  0  0  0  0  0  0  0  0  0
   30.0009  -34.9678    1.1669 N   0  0  0  0  0  0  0  0  0  0  0  0
   28.6422  -33.6766    2.7027 C   0  0  0  0  0  0  0  0  0  0  0  0
   28.6078  -34.6460    3.4987 O   0  0  0  0  0  0  0  0  0  0  0  0
   25.0609  -28.1676    5.6461 C   0  0  0  0  0  0  0  0  0  0  0  0
   26.6122  -28.7924    6.3473 S   0  0  0  0  0  0  0  0  0  0  0  0
   26.7255  -30.6092    6.1223 C   0  0  0  0  0  0  0  0  0  0  0  0
   27.3261  -30.8358    4.7695 C   0  0  0  0  0  0  0  0  0  0  0  0
   27.4702  -32.3047    4.4251 C   0  0  2  0  0  0  0  0  0  0  0  0
   28.1081  -32.4366    3.1358 N   0  0  0  0  0  0  0  0  0  0  0  0
   26.0634  -32.8250    4.2718 C   0  0  0  0  0  0  0  0  0  0  0  0
   25.5429  -32.7282    3.1554 O   0  0  0  0  0  0  0  0  0  0  0  0
   22.5338  -37.4637    5.6334 C   0  0  0  0  0  0  0  0  0  0  0  0
   22.5213  -35.9593    5.3159 C   0  0  0  0  0  0  0  0  0  0  0  0
   23.9079  -35.4199    5.5806 C   0  0  2  0  0  0  0  0  0  0  0  0
   24.0670  -35.5141    7.0900 C   0  0  0  0  0  0  0  0  0  0  0  0
   24.0901  -33.9909    5.2013 C   0  0  2  0  0  0  0  0  0  0  0  0
   25.3511  -33.3941    5.3139 N   0  0  0  0  0  0  0  0  0  0  0  0
   23.0443  -33.1441    5.7634 C   0  0  0  0  0  0  0  0  0  0  0  0
   23.4435  -32.0593    6.5770 O   0  0  0  0  0  0  0  0  0  0  0  0
   21.8144  -33.2548    5.6165 O   0  0  0  0  0  0  0  0  0  0  0  0
  2  1  1  0
  3  2  1  0
  3  4  1  1
  3  5  1  0
  5 12  1  0
  5  6  2  0
  7  8  1  0
  8  9  1  0
  9 10  1  0
 11 10  1  6
 11 13  1  0
 12 11  1  0
 13 14  2  0
 16 15  1  0
 17 18  1  1
 17 16  1  0
 19 17  1  0
 20 13  1  0
 19 20  1  1
 21 22  1  0
 21 19  1  0
 23 21  2  0
M  END
$$$$
