SMI.pdb
     RDKit          3D

 23 22  0  0  1  0  0  0  0  0999 V2000
   26.7925  -18.6626  -16.1192 O   0  0  0  0  0  0  0  0  0  0  0  0
   27.9485  -18.7400  -15.3488 C   0  0  0  0  0  0  0  0  0  0  0  0
   28.2576  -20.1694  -15.0161 C   0  0  2  0  0  0  0  0  0  0  0  0
   28.6058  -20.8751  -16.2239 N   0  0  0  0  0  0  0  0  0  0  0  0
   27.1691  -20.8360  -14.2731 C   0  0  0  0  0  0  0  0  0  0  0  0
   26.4574  -21.7408  -14.7724 O   0  0  0  0  0  0  0  0  0  0  0  0
   26.9894  -20.3468   -7.9300 C   0  0  0  0  0  0  0  0  0  0  0  0
   25.2111  -20.6236   -8.1526 S   0  0  0  0  0  0  0  0  0  0  0  0
   24.8644  -21.1852   -9.8640 C   0  0  0  0  0  0  0  0  0  0  0  0
   25.9139  -20.5695  -10.7367 C   0  0  0  0  0  0  0  0  0  0  0  0
   25.8286  -21.0297  -12.1783 C   0  0  2  0  0  0  0  0  0  0  0  0
   26.9095  -20.4427  -12.9358 N   0  0  0  0  0  0  0  0  0  0  0  0
   24.5486  -20.4423  -12.7162 C   0  0  0  0  0  0  0  0  0  0  0  0
   24.5174  -19.2198  -12.8927 O   0  0  0  0  0  0  0  0  0  0  0  0
   22.4548  -20.7635  -17.3592 C   0  0  0  0  0  0  0  0  0  0  0  0
   22.8750  -20.3394  -15.9422 C   0  0  0  0  0  0  0  0  0  0  0  0
   21.8938  -20.9488  -14.9677 C   0  0  2  0  0  0  0  0  0  0  0  0
   20.5852  -20.2278  -15.2503 C   0  0  0  0  0  0  0  0  0  0  0  0
   22.2310  -20.7160  -13.5354 C   0  0  2  0  0  0  0  0  0  0  0  0
   23.4329  -21.2069  -13.0125 N   0  0  0  0  0  0  0  0  0  0  0  0
   21.1041  -21.0133  -12.6588 C   0  0  0  0  0  0  0  0  0  0  0  0
   21.1437  -22.2201  -11.9240 O   0  0  0  0  0  0  0  0  0  0  0  0
   20.0857  -20.3254  -12.4685 O   0  0  0  0  0  0  0  0  0  0  0  0
  2  1  1  0
  3  2  1  0
  3  4  1  6
  3  5  1  0
  5 12  1  0
  5  6  2  0
  7  8  1  0
  8  9  1  0
  9 10  1  0
 11 10  1  1
 11 13  1  0
 12 11  1  0
 13 14  2  0
 16 15  1  0
 17 18  1  6
 17 16  1  0
 19 17  1  0
 20 13  1  0
 19 20  1  1
 21 22  1  0
 21 19  1  0
 23 21  2  0
M  END
$$$$
