SMI.pdb
     RDKit          3D

 23 22  0  0  1  0  0  0  0  0999 V2000
   14.0273  -10.9793  -15.7319 O   0  0  0  0  0  0  0  0  0  0  0  0
   14.6047  -10.8926  -14.4690 C   0  0  0  0  0  0  0  0  0  0  0  0
   16.0971  -10.7994  -14.5843 C   0  0  2  0  0  0  0  0  0  0  0  0
   16.6303  -12.0945  -14.9260 N   0  0  0  0  0  0  0  0  0  0  0  0
   16.7337  -10.2334  -13.3777 C   0  0  0  0  0  0  0  0  0  0  0  0
   16.8575  -10.8759  -12.3071 O   0  0  0  0  0  0  0  0  0  0  0  0
   22.0947   -6.8525  -13.5290 C   0  0  0  0  0  0  0  0  0  0  0  0
   21.1290   -5.8155  -12.3974 S   0  0  0  0  0  0  0  0  0  0  0  0
   19.7808   -6.7952  -11.6314 C   0  0  0  0  0  0  0  0  0  0  0  0
   18.9973   -7.3971  -12.7566 C   0  0  0  0  0  0  0  0  0  0  0  0
   17.8876   -8.3132  -12.2806 C   0  0  2  0  0  0  0  0  0  0  0  0
   17.2298   -8.9058  -13.4219 N   0  0  0  0  0  0  0  0  0  0  0  0
   16.8783   -7.4142  -11.6126 C   0  0  0  0  0  0  0  0  0  0  0  0
   16.2333   -6.6501  -12.3386 O   0  0  0  0  0  0  0  0  0  0  0  0
   13.0164   -8.6785   -8.0347 C   0  0  0  0  0  0  0  0  0  0  0  0
   13.8408   -8.0821   -9.1875 C   0  0  0  0  0  0  0  0  0  0  0  0
   14.8044   -7.0796   -8.5957 C   0  0  2  0  0  0  0  0  0  0  0  0
   13.9216   -5.9215   -8.1580 C   0  0  0  0  0  0  0  0  0  0  0  0
   15.7979   -6.5410   -9.5664 C   0  0  2  0  0  0  0  0  0  0  0  0
   16.6541   -7.4148  -10.2463 N   0  0  0  0  0  0  0  0  0  0  0  0
   16.5210   -5.3974   -9.0222 C   0  0  0  0  0  0  0  0  0  0  0  0
   17.9003   -5.5574   -8.7575 O   0  0  0  0  0  0  0  0  0  0  0  0
   16.0706   -4.2698   -8.7535 O   0  0  0  0  0  0  0  0  0  0  0  0
  2  1  1  0
  3  2  1  0
  3  4  1  1
  3  5  1  0
  5 12  1  0
  5  6  2  0
  7  8  1  0
  8  9  1  0
  9 10  1  0
 11 10  1  6
 11 13  1  0
 12 11  1  0
 13 14  2  0
 16 15  1  0
 17 18  1  6
 17 16  1  0
 19 17  1  0
 20 13  1  0
 19 20  1  1
 21 22  1  0
 21 19  1  0
 23 21  2  0
M  END
$$$$
