SMI.pdb
     RDKit          3D

 23 22  0  0  1  0  0  0  0  0999 V2000
   24.5808   -8.9403  -21.5017 O   0  0  0  0  0  0  0  0  0  0  0  0
   23.3823   -8.4120  -21.0326 C   0  0  0  0  0  0  0  0  0  0  0  0
   22.5964   -9.4655  -20.3102 C   0  0  2  0  0  0  0  0  0  0  0  0
   21.7678  -10.1728  -21.2543 N   0  0  0  0  0  0  0  0  0  0  0  0
   21.8177   -8.9271  -19.1765 C   0  0  0  0  0  0  0  0  0  0  0  0
   20.6003   -8.6354  -19.2629 O   0  0  0  0  0  0  0  0  0  0  0  0
   21.7857   -8.7212  -11.2959 C   0  0  0  0  0  0  0  0  0  0  0  0
   22.4480   -9.3016  -12.8812 S   0  0  0  0  0  0  0  0  0  0  0  0
   21.6905   -8.3683  -14.2667 C   0  0  0  0  0  0  0  0  0  0  0  0
   22.3130   -8.8903  -15.5246 C   0  0  0  0  0  0  0  0  0  0  0  0
   21.7403   -8.2547  -16.7756 C   0  0  2  0  0  0  0  0  0  0  0  0
   22.4661   -8.7276  -17.9314 N   0  0  0  0  0  0  0  0  0  0  0  0
   22.0302   -6.7805  -16.6504 C   0  0  0  0  0  0  0  0  0  0  0  0
   23.2033   -6.4205  -16.7947 O   0  0  0  0  0  0  0  0  0  0  0  0
   21.2223   -1.6410  -19.0283 C   0  0  0  0  0  0  0  0  0  0  0  0
   21.1677   -2.2211  -17.6053 C   0  0  0  0  0  0  0  0  0  0  0  0
   21.0631   -3.7241  -17.7230 C   0  0  2  0  0  0  0  0  0  0  0  0
   19.6405   -3.9663  -18.2022 C   0  0  0  0  0  0  0  0  0  0  0  0
   21.2290   -4.4507  -16.4331 C   0  0  2  0  0  0  0  0  0  0  0  0
   21.0509   -5.8382  -16.3857 N   0  0  0  0  0  0  0  0  0  0  0  0
   20.5292   -3.7829  -15.3418 C   0  0  0  0  0  0  0  0  0  0  0  0
   19.5189   -4.5068  -14.6685 O   0  0  0  0  0  0  0  0  0  0  0  0
   20.7100   -2.6289  -14.9149 O   0  0  0  0  0  0  0  0  0  0  0  0
  2  1  1  0
  3  2  1  0
  3  4  1  6
  3  5  1  0
  5 12  1  0
  5  6  2  0
  7  8  1  0
  8  9  1  0
  9 10  1  0
 11 10  1  1
 11 13  1  0
 12 11  1  0
 13 14  2  0
 16 15  1  0
 17 18  1  1
 17 16  1  0
 19 17  1  0
 20 13  1  0
 19 20  1  6
 21 22  1  0
 21 19  1  0
 23 21  2  0
M  END
$$$$
