SMI.pdb
     RDKit          3D

 23 22  0  0  1  0  0  0  0  0999 V2000
   26.8701  -18.8990  -15.9304 O   0  0  0  0  0  0  0  0  0  0  0  0
   28.0357  -18.9563  -15.1729 C   0  0  0  0  0  0  0  0  0  0  0  0
   28.3397  -20.3746  -14.7917 C   0  0  2  0  0  0  0  0  0  0  0  0
   28.5908  -21.1450  -15.9841 N   0  0  0  0  0  0  0  0  0  0  0  0
   27.2922  -20.9805  -13.9449 C   0  0  0  0  0  0  0  0  0  0  0  0
   26.5085  -21.8681  -14.3602 O   0  0  0  0  0  0  0  0  0  0  0  0
   27.4609  -20.3919   -7.3754 C   0  0  0  0  0  0  0  0  0  0  0  0
   25.6881  -20.2955   -7.7449 S   0  0  0  0  0  0  0  0  0  0  0  0
   25.3306  -21.0921   -9.3580 C   0  0  0  0  0  0  0  0  0  0  0  0
   26.2888  -20.5037  -10.3469 C   0  0  0  0  0  0  0  0  0  0  0  0
   26.1344  -21.0856  -11.7378 C   0  0  2  0  0  0  0  0  0  0  0  0
   27.1587  -20.5461  -12.6018 N   0  0  0  0  0  0  0  0  0  0  0  0
   24.8140  -20.5681  -12.2494 C   0  0  0  0  0  0  0  0  0  0  0  0
   24.7799  -19.3980  -12.6450 O   0  0  0  0  0  0  0  0  0  0  0  0
   20.8821  -21.5501  -16.3816 C   0  0  0  0  0  0  0  0  0  0  0  0
   20.9341  -21.0185  -14.9397 C   0  0  0  0  0  0  0  0  0  0  0  0
   22.1738  -21.5820  -14.2843 C   0  0  2  0  0  0  0  0  0  0  0  0
   21.8512  -23.0524  -14.0697 C   0  0  0  0  0  0  0  0  0  0  0  0
   22.4807  -20.9935  -12.9506 C   0  0  2  0  0  0  0  0  0  0  0  0
   23.6653  -21.3400  -12.2905 N   0  0  0  0  0  0  0  0  0  0  0  0
   21.3311  -21.0531  -12.0551 C   0  0  0  0  0  0  0  0  0  0  0  0
   20.1293  -20.4475  -12.4874 O   0  0  0  0  0  0  0  0  0  0  0  0
   21.2685  -21.5813  -10.9310 O   0  0  0  0  0  0  0  0  0  0  0  0
  2  1  1  0
  3  2  1  0
  3  4  1  6
  3  5  1  0
  5 12  1  0
  5  6  2  0
  7  8  1  0
  8  9  1  0
  9 10  1  0
 11 10  1  1
 11 13  1  0
 12 11  1  0
 13 14  2  0
 16 15  1  0
 17 18  1  1
 17 16  1  0
 19 17  1  0
 20 13  1  0
 19 20  1  1
 21 22  1  0
 21 19  1  0
 23 21  2  0
M  END
$$$$
