SMI.pdb
     RDKit          3D

 23 22  0  0  1  0  0  0  0  0999 V2000
   37.0616  -26.9209  -19.2706 O   0  0  0  0  0  0  0  0  0  0  0  0
   35.9550  -27.0145  -18.4326 C   0  0  0  0  0  0  0  0  0  0  0  0
   35.0526  -25.8326  -18.6280 C   0  0  2  0  0  0  0  0  0  0  0  0
   35.7814  -24.6234  -18.3365 N   0  0  0  0  0  0  0  0  0  0  0  0
   33.7992  -25.9305  -17.8528 C   0  0  0  0  0  0  0  0  0  0  0  0
   33.0325  -26.9216  -17.9188 O   0  0  0  0  0  0  0  0  0  0  0  0
   32.7063  -22.6434  -12.4019 C   0  0  0  0  0  0  0  0  0  0  0  0
   33.8970  -24.0094  -12.4719 S   0  0  0  0  0  0  0  0  0  0  0  0
   33.7207  -24.9262  -14.0507 C   0  0  0  0  0  0  0  0  0  0  0  0
   32.6040  -24.2712  -14.8030 C   0  0  0  0  0  0  0  0  0  0  0  0
   32.2936  -24.9586  -16.1176 C   0  0  2  0  0  0  0  0  0  0  0  0
   33.4382  -24.8621  -16.9934 N   0  0  0  0  0  0  0  0  0  0  0  0
   31.1907  -24.1474  -16.7488 C   0  0  0  0  0  0  0  0  0  0  0  0
   31.4919  -23.0367  -17.1987 O   0  0  0  0  0  0  0  0  0  0  0  0
   28.6460  -24.5195  -21.1376 C   0  0  0  0  0  0  0  0  0  0  0  0
   29.2911  -24.0097  -19.8383 C   0  0  0  0  0  0  0  0  0  0  0  0
   28.2869  -24.1882  -18.7231 C   0  0  2  0  0  0  0  0  0  0  0  0
   27.1897  -23.1841  -19.0399 C   0  0  0  0  0  0  0  0  0  0  0  0
   28.8136  -23.8608  -17.3686 C   0  0  2  0  0  0  0  0  0  0  0  0
   29.8829  -24.5929  -16.8398 N   0  0  0  0  0  0  0  0  0  0  0  0
   27.7401  -23.7006  -16.3946 C   0  0  0  0  0  0  0  0  0  0  0  0
   27.0810  -22.4512  -16.3426 O   0  0  0  0  0  0  0  0  0  0  0  0
   27.3176  -24.5420  -15.5822 O   0  0  0  0  0  0  0  0  0  0  0  0
  2  1  1  0
  3  2  1  0
  3  4  1  1
  3  5  1  0
  5 12  1  0
  5  6  2  0
  7  8  1  0
  8  9  1  0
  9 10  1  0
 11 10  1  1
 11 13  1  0
 12 11  1  0
 13 14  2  0
 16 15  1  0
 17 18  1  6
 17 16  1  0
 19 17  1  0
 20 13  1  0
 19 20  1  1
 21 22  1  0
 21 19  1  0
 23 21  2  0
M  END
$$$$
