SMI.pdb
     RDKit          3D

 23 22  0  0  1  0  0  0  0  0999 V2000
   26.5017  -18.6010  -15.9000 O   0  0  0  0  0  0  0  0  0  0  0  0
   27.6390  -18.4331  -15.1164 C   0  0  0  0  0  0  0  0  0  0  0  0
   28.2046  -19.7665  -14.7273 C   0  0  2  0  0  0  0  0  0  0  0  0
   28.6978  -20.4367  -15.9045 N   0  0  0  0  0  0  0  0  0  0  0  0
   27.2483  -20.5988  -13.9695 C   0  0  0  0  0  0  0  0  0  0  0  0
   26.7497  -21.6545  -14.4293 O   0  0  0  0  0  0  0  0  0  0  0  0
   26.9210  -20.6362   -7.4049 C   0  0  0  0  0  0  0  0  0  0  0  0
   25.1741  -20.5824   -7.8888 S   0  0  0  0  0  0  0  0  0  0  0  0
   24.9649  -21.2373   -9.5893 C   0  0  0  0  0  0  0  0  0  0  0  0
   25.9320  -20.4921  -10.4563 C   0  0  0  0  0  0  0  0  0  0  0  0
   25.8872  -20.9325  -11.9059 C   0  0  2  0  0  0  0  0  0  0  0  0
   26.8710  -20.1948  -12.6638 N   0  0  0  0  0  0  0  0  0  0  0  0
   24.5338  -20.5083  -12.4168 C   0  0  0  0  0  0  0  0  0  0  0  0
   24.3473  -19.2988  -12.5878 O   0  0  0  0  0  0  0  0  0  0  0  0
   22.3014  -21.6176  -16.9533 C   0  0  0  0  0  0  0  0  0  0  0  0
   22.7745  -20.9997  -15.6271 C   0  0  0  0  0  0  0  0  0  0  0  0
   21.8292  -21.4582  -14.5409 C   0  0  2  0  0  0  0  0  0  0  0  0
   20.5253  -20.7383  -14.8477 C   0  0  0  0  0  0  0  0  0  0  0  0
   22.2429  -21.0645  -13.1650 C   0  0  2  0  0  0  0  0  0  0  0  0
   23.5163  -21.4054  -12.6945 N   0  0  0  0  0  0  0  0  0  0  0  0
   21.2095  -21.3672  -12.1815 C   0  0  0  0  0  0  0  0  0  0  0  0
   20.4640  -20.2866  -11.6577 O   0  0  0  0  0  0  0  0  0  0  0  0
   20.8901  -22.4817  -11.7315 O   0  0  0  0  0  0  0  0  0  0  0  0
  2  1  1  0
  3  2  1  0
  3  4  1  6
  3  5  1  0
  5 12  1  0
  5  6  2  0
  7  8  1  0
  8  9  1  0
  9 10  1  0
 11 10  1  1
 11 13  1  0
 12 11  1  0
 13 14  2  0
 16 15  1  0
 17 18  1  6
 17 16  1  0
 19 17  1  0
 20 13  1  0
 19 20  1  1
 21 22  1  0
 21 19  1  0
 23 21  2  0
M  END
$$$$
