SMI.pdb
     RDKit          3D

 23 22  0  0  1  0  0  0  0  0999 V2000
   25.5878  -24.3220  -16.5834 O   0  0  0  0  0  0  0  0  0  0  0  0
   25.3717  -25.1042  -15.4533 C   0  0  0  0  0  0  0  0  0  0  0  0
   24.1467  -24.6381  -14.7241 C   0  0  2  0  0  0  0  0  0  0  0  0
   22.9781  -24.9492  -15.5088 N   0  0  0  0  0  0  0  0  0  0  0  0
   24.2064  -23.2101  -14.3519 C   0  0  0  0  0  0  0  0  0  0  0  0
   23.3967  -22.3571  -14.7893 O   0  0  0  0  0  0  0  0  0  0  0  0
   26.7935  -20.4952   -8.3512 C   0  0  0  0  0  0  0  0  0  0  0  0
   25.5593  -19.9901   -9.5801 S   0  0  0  0  0  0  0  0  0  0  0  0
   26.3136  -19.9299  -11.2510 C   0  0  0  0  0  0  0  0  0  0  0  0
   26.2177  -21.3143  -11.8134 C   0  0  0  0  0  0  0  0  0  0  0  0
   25.2697  -21.4093  -12.9922 C   0  0  2  0  0  0  0  0  0  0  0  0
   25.2203  -22.7744  -13.4615 N   0  0  0  0  0  0  0  0  0  0  0  0
   25.9040  -20.5927  -14.0893 C   0  0  0  0  0  0  0  0  0  0  0  0
   26.7435  -21.1554  -14.8002 O   0  0  0  0  0  0  0  0  0  0  0  0
   24.1426  -15.9165  -17.6789 C   0  0  0  0  0  0  0  0  0  0  0  0
   25.2330  -16.9429  -17.3297 C   0  0  0  0  0  0  0  0  0  0  0  0
   24.9405  -17.4745  -15.9456 C   0  0  2  0  0  0  0  0  0  0  0  0
   25.1745  -16.2847  -15.0279 C   0  0  0  0  0  0  0  0  0  0  0  0
   25.8548  -18.5647  -15.5042 C   0  0  2  0  0  0  0  0  0  0  0  0
   25.5863  -19.2653  -14.3227 N   0  0  0  0  0  0  0  0  0  0  0  0
   27.2543  -18.1623  -15.5825 C   0  0  0  0  0  0  0  0  0  0  0  0
   27.8418  -18.0731  -16.8650 O   0  0  0  0  0  0  0  0  0  0  0  0
   28.0188  -17.8799  -14.6431 O   0  0  0  0  0  0  0  0  0  0  0  0
  2  1  1  0
  3  2  1  0
  3  4  1  6
  3  5  1  0
  5 12  1  0
  5  6  2  0
  7  8  1  0
  8  9  1  0
  9 10  1  0
 11 10  1  1
 11 13  1  0
 12 11  1  0
 13 14  2  0
 16 15  1  0
 17 18  1  1
 17 16  1  0
 19 17  1  0
 20 13  1  0
 19 20  1  1
 21 22  1  0
 21 19  1  0
 23 21  2  0
M  END
$$$$
