CLR.pdb
     RDKit          3D

 26 25  0  0  1  0  0  0  0  0999 V2000
   24.9085   -5.2705  -19.7976 N   0  0  0  0  0  0  0  0  0  0  0  0
   24.5548   -5.2848  -18.3915 C   0  0  1  0  0  0  0  0  0  0  0  0
   23.9087   -3.9946  -17.9791 C   0  0  0  0  0  0  0  0  0  0  0  0
   25.2010   -2.7087  -17.9689 S   0  0  0  0  0  0  0  0  0  0  0  0
   23.8057   -6.4790  -18.0189 C   0  0  0  0  0  0  0  0  0  0  0  0
   22.9335   -6.9073  -18.8509 O   0  0  0  0  0  0  0  0  0  0  0  0
   24.8576  -10.9321  -17.3245 C   0  0  0  0  0  0  0  0  0  0  0  0
   25.4127   -9.9366  -16.2854 C   0  0  2  0  0  0  0  0  0  0  0  0
   26.2821  -10.7410  -15.3698 C   0  0  0  0  0  0  0  0  0  0  0  0
   24.2317   -9.2915  -15.6457 C   0  0  0  0  0  0  0  0  0  0  0  0
   23.4127   -8.3999  -16.5391 C   0  0  2  0  0  0  0  0  0  0  0  0
   24.0415   -7.1278  -16.7880 N   0  0  0  0  0  0  0  0  0  0  0  0
   22.1347   -8.1422  -15.8053 C   0  0  0  0  0  0  0  0  0  0  0  0
   22.1720   -7.3486  -14.8325 O   0  0  0  0  0  0  0  0  0  0  0  0
   13.3469   -9.7765  -17.0572 N   0  0  0  0  0  0  0  0  0  0  0  0
   13.5246   -8.8502  -16.0016 C   0  0  0  0  0  0  0  0  0  0  0  0
   12.5023   -8.3107  -15.4015 N   0  0  0  0  0  0  0  0  0  0  0  0
   14.8296   -8.4868  -15.5714 N   0  0  0  0  0  0  0  0  0  0  0  0
   16.0110   -9.0644  -16.1780 C   0  0  0  0  0  0  0  0  0  0  0  0
   17.2450   -8.4658  -15.4652 C   0  0  0  0  0  0  0  0  0  0  0  0
   18.4989   -8.8916  -16.1649 C   0  0  0  0  0  0  0  0  0  0  0  0
   19.7110   -8.4320  -15.4276 C   0  0  2  0  0  0  0  0  0  0  0  0
   20.9214   -8.7708  -16.1926 N   0  0  0  0  0  0  0  0  0  0  0  0
   19.8442   -9.0823  -14.1242 C   0  0  0  0  0  0  0  0  0  0  0  0
   19.4185   -8.4649  -12.9590 O   0  0  0  0  0  0  0  0  0  0  0  0
   20.3645  -10.2350  -14.0631 O   0  0  0  0  0  0  0  0  0  0  0  0
  2  3  1  0
  2  1  1  6
  4  3  1  0
  5  2  1  0
  6  5  2  0
  8  7  1  6
  8 10  1  0
  9  8  1  0
 11 10  1  1
 11 12  1  0
 12  5  1  0
 13 11  1  0
 13 14  2  0
 16 15  1  0
 17 16  2  0
 18 16  1  0
 19 18  1  0
 20 21  1  0
 20 19  1  0
 22 21  1  6
 22 23  1  0
 23 13  1  0
 24 22  1  0
 25 24  1  0
 26 24  2  0
M  END
$$$$
