CLR.pdb
     RDKit          3D

 26 25  0  0  1  0  0  0  0  0999 V2000
   28.4711  -20.1763  -15.4405 N   0  0  0  0  0  0  0  0  0  0  0  0
   27.5947  -19.3925  -14.5917 C   0  0  1  0  0  0  0  0  0  0  0  0
   26.9544  -18.2717  -15.3571 C   0  0  0  0  0  0  0  0  0  0  0  0
   28.1851  -16.9357  -15.5123 S   0  0  0  0  0  0  0  0  0  0  0  0
   26.6580  -20.2222  -13.8432 C   0  0  0  0  0  0  0  0  0  0  0  0
   26.2286  -21.2832  -14.4145 O   0  0  0  0  0  0  0  0  0  0  0  0
   26.8958  -21.9170   -9.6939 C   0  0  0  0  0  0  0  0  0  0  0  0
   26.4464  -20.4419   -9.6598 C   0  0  2  0  0  0  0  0  0  0  0  0
   26.3732  -20.0684   -8.2119 C   0  0  0  0  0  0  0  0  0  0  0  0
   25.1579  -20.3756  -10.4050 C   0  0  0  0  0  0  0  0  0  0  0  0
   25.2440  -20.6534  -11.8813 C   0  0  2  0  0  0  0  0  0  0  0  0
   26.2486  -19.8598  -12.5422 N   0  0  0  0  0  0  0  0  0  0  0  0
   23.9138  -20.2736  -12.4510 C   0  0  0  0  0  0  0  0  0  0  0  0
   23.6724  -19.0501  -12.5997 O   0  0  0  0  0  0  0  0  0  0  0  0
   19.2307  -21.7480  -18.5999 N   0  0  0  0  0  0  0  0  0  0  0  0
   18.7216  -20.4878  -18.2041 C   0  0  0  0  0  0  0  0  0  0  0  0
   17.5883  -20.0448  -18.6685 N   0  0  0  0  0  0  0  0  0  0  0  0
   19.4400  -19.6742  -17.2864 N   0  0  0  0  0  0  0  0  0  0  0  0
   20.7149  -20.0957  -16.7439 C   0  0  0  0  0  0  0  0  0  0  0  0
   20.4304  -21.0842  -15.5902 C   0  0  0  0  0  0  0  0  0  0  0  0
   21.7047  -21.4278  -14.8823 C   0  0  0  0  0  0  0  0  0  0  0  0
   21.7555  -20.8032  -13.5290 C   0  0  2  0  0  0  0  0  0  0  0  0
   22.9566  -21.2589  -12.8115 N   0  0  0  0  0  0  0  0  0  0  0  0
   20.6077  -21.1788  -12.7039 C   0  0  0  0  0  0  0  0  0  0  0  0
   19.3400  -20.6789  -12.9548 O   0  0  0  0  0  0  0  0  0  0  0  0
   20.7814  -21.9770  -11.7365 O   0  0  0  0  0  0  0  0  0  0  0  0
  2  3  1  0
  2  1  1  6
  4  3  1  0
  5  2  1  0
  6  5  2  0
  8  7  1  1
  8 10  1  0
  9  8  1  0
 11 10  1  1
 11 12  1  0
 12  5  1  0
 13 11  1  0
 13 14  2  0
 16 15  1  0
 17 16  2  0
 18 16  1  0
 19 18  1  0
 20 21  1  0
 20 19  1  0
 22 21  1  6
 22 23  1  0
 23 13  1  0
 24 22  1  0
 25 24  1  0
 26 24  2  0
M  END
$$$$
