CLR.pdb
     RDKit          3D

 26 25  0  0  1  0  0  0  0  0999 V2000
   26.8964  -22.1598  -17.6306 N   0  0  0  0  0  0  0  0  0  0  0  0
   27.0965  -22.3826  -16.2118 C   0  0  1  0  0  0  0  0  0  0  0  0
   28.5554  -22.3784  -15.8601 C   0  0  0  0  0  0  0  0  0  0  0  0
   29.3322  -23.7913  -16.7110 S   0  0  0  0  0  0  0  0  0  0  0  0
   26.2769  -21.5004  -15.3897 C   0  0  0  0  0  0  0  0  0  0  0  0
   26.3446  -21.6507  -14.1211 O   0  0  0  0  0  0  0  0  0  0  0  0
   26.7334  -17.7178  -13.8855 C   0  0  0  0  0  0  0  0  0  0  0  0
   26.3580  -17.7167  -15.3814 C   0  0  2  0  0  0  0  0  0  0  0  0
   26.6095  -16.3230  -15.8669 C   0  0  0  0  0  0  0  0  0  0  0  0
   24.9436  -18.1784  -15.4623 C   0  0  0  0  0  0  0  0  0  0  0  0
   24.7107  -19.6264  -15.1263 C   0  0  2  0  0  0  0  0  0  0  0  0
   25.4463  -20.5240  -15.9799 N   0  0  0  0  0  0  0  0  0  0  0  0
   23.2525  -19.8730  -15.3523 C   0  0  0  0  0  0  0  0  0  0  0  0
   22.8783  -20.1149  -16.5266 O   0  0  0  0  0  0  0  0  0  0  0  0
   19.1010  -23.7268   -9.2143 N   0  0  0  0  0  0  0  0  0  0  0  0
   19.5557  -24.4644  -10.3338 C   0  0  0  0  0  0  0  0  0  0  0  0
   19.5214  -25.7663  -10.3399 N   0  0  0  0  0  0  0  0  0  0  0  0
   20.0622  -23.7965  -11.4816 N   0  0  0  0  0  0  0  0  0  0  0  0
   19.7286  -22.4145  -11.7577 C   0  0  0  0  0  0  0  0  0  0  0  0
   20.4675  -22.0026  -13.0513 C   0  0  0  0  0  0  0  0  0  0  0  0
   20.1987  -20.5619  -13.3597 C   0  0  0  0  0  0  0  0  0  0  0  0
   20.9159  -20.1313  -14.5943 C   0  0  2  0  0  0  0  0  0  0  0  0
   22.3225  -19.8356  -14.2795 N   0  0  0  0  0  0  0  0  0  0  0  0
   20.3490  -18.9095  -15.1646 C   0  0  0  0  0  0  0  0  0  0  0  0
   19.1632  -18.9262  -15.8811 O   0  0  0  0  0  0  0  0  0  0  0  0
   20.9612  -17.8134  -15.0004 O   0  0  0  0  0  0  0  0  0  0  0  0
  2  3  1  0
  2  1  1  6
  4  3  1  0
  5  2  1  0
  6  5  2  0
  8  7  1  1
  8 10  1  0
  9  8  1  0
 11 10  1  6
 11 12  1  0
 12  5  1  0
 13 11  1  0
 13 14  2  0
 16 15  1  0
 17 16  2  0
 18 16  1  0
 19 18  1  0
 20 21  1  0
 20 19  1  0
 22 21  1  1
 22 23  1  0
 23 13  1  0
 24 22  1  0
 25 24  1  0
 26 24  2  0
M  END
$$$$
