CLR.pdb
     RDKit          3D

 26 25  0  0  1  0  0  0  0  0999 V2000
   29.0591  -28.4660  -16.6319 N   0  0  0  0  0  0  0  0  0  0  0  0
   27.9962  -27.7954  -17.3551 C   0  0  1  0  0  0  0  0  0  0  0  0
   27.0271  -28.7820  -17.9379 C   0  0  0  0  0  0  0  0  0  0  0  0
   27.9539  -29.8545  -19.0844 S   0  0  0  0  0  0  0  0  0  0  0  0
   27.3758  -26.7330  -16.5725 C   0  0  0  0  0  0  0  0  0  0  0  0
   27.3822  -26.8621  -15.2998 O   0  0  0  0  0  0  0  0  0  0  0  0
   28.5570  -22.6709  -15.7457 C   0  0  0  0  0  0  0  0  0  0  0  0
   27.9713  -22.7898  -17.1675 C   0  0  2  0  0  0  0  0  0  0  0  0
   28.2068  -21.4636  -17.8209 C   0  0  0  0  0  0  0  0  0  0  0  0
   26.5424  -23.1795  -17.0045 C   0  0  0  0  0  0  0  0  0  0  0  0
   26.3019  -24.5313  -16.3891 C   0  0  2  0  0  0  0  0  0  0  0  0
   26.7948  -25.6125  -17.2038 N   0  0  0  0  0  0  0  0  0  0  0  0
   24.8168  -24.6786  -16.2840 C   0  0  0  0  0  0  0  0  0  0  0  0
   24.1780  -24.9031  -17.3419 O   0  0  0  0  0  0  0  0  0  0  0  0
   18.9791  -26.7357   -9.7963 N   0  0  0  0  0  0  0  0  0  0  0  0
   18.3052  -26.6712  -11.0396 C   0  0  0  0  0  0  0  0  0  0  0  0
   17.0788  -27.0922  -11.1620 N   0  0  0  0  0  0  0  0  0  0  0  0
   18.9558  -26.1426  -12.1874 N   0  0  0  0  0  0  0  0  0  0  0  0
   20.3458  -25.7381  -12.1462 C   0  0  0  0  0  0  0  0  0  0  0  0
   20.7770  -25.3924  -13.5896 C   0  0  0  0  0  0  0  0  0  0  0  0
   22.2437  -25.0920  -13.6294 C   0  0  0  0  0  0  0  0  0  0  0  0
   22.6982  -24.8046  -15.0204 C   0  0  2  0  0  0  0  0  0  0  0  0
   24.1506  -24.5691  -15.0345 N   0  0  0  0  0  0  0  0  0  0  0  0
   22.0738  -23.6005  -15.5678 C   0  0  0  0  0  0  0  0  0  0  0  0
   20.8764  -23.6567  -16.2628 O   0  0  0  0  0  0  0  0  0  0  0  0
   22.6459  -22.4830  -15.4036 O   0  0  0  0  0  0  0  0  0  0  0  0
  2  3  1  0
  2  1  1  1
  4  3  1  0
  5  2  1  0
  6  5  2  0
  8  7  1  1
  8 10  1  0
  9  8  1  0
 11 10  1  6
 11 12  1  0
 12  5  1  0
 13 11  1  0
 13 14  2  0
 16 15  1  0
 17 16  2  0
 18 16  1  0
 19 18  1  0
 20 21  1  0
 20 19  1  0
 22 21  1  1
 22 23  1  0
 23 13  1  0
 24 22  1  0
 25 24  1  0
 26 24  2  0
M  END
$$$$
