CLR.pdb
     RDKit          3D

 26 25  0  0  1  0  0  0  0  0999 V2000
   27.3045  -21.1260  -10.2265 N   0  0  0  0  0  0  0  0  0  0  0  0
   25.8769  -21.0897  -10.4779 C   0  0  1  0  0  0  0  0  0  0  0  0
   25.1864  -20.1240   -9.5599 C   0  0  0  0  0  0  0  0  0  0  0  0
   25.5609  -20.6262   -7.8478 S   0  0  0  0  0  0  0  0  0  0  0  0
   25.5658  -20.9045  -11.8904 C   0  0  0  0  0  0  0  0  0  0  0  0
   26.2438  -20.0283  -12.5300 O   0  0  0  0  0  0  0  0  0  0  0  0
   26.2275  -22.7581  -15.7402 C   0  0  0  0  0  0  0  0  0  0  0  0
   25.2512  -23.5952  -14.8888 C   0  0  2  0  0  0  0  0  0  0  0  0
   25.0107  -24.8556  -15.6600 C   0  0  0  0  0  0  0  0  0  0  0  0
   24.0503  -22.7428  -14.6627 C   0  0  0  0  0  0  0  0  0  0  0  0
   24.2937  -21.4586  -13.9174 C   0  0  2  0  0  0  0  0  0  0  0  0
   24.5560  -21.6662  -12.5160 N   0  0  0  0  0  0  0  0  0  0  0  0
   23.0289  -20.6680  -14.0333 C   0  0  0  0  0  0  0  0  0  0  0  0
   22.1135  -20.9102  -13.2081 O   0  0  0  0  0  0  0  0  0  0  0  0
   20.1215  -13.5007  -17.1386 N   0  0  0  0  0  0  0  0  0  0  0  0
   19.1097  -13.8265  -16.2037 C   0  0  0  0  0  0  0  0  0  0  0  0
   18.0090  -13.1336  -16.1357 N   0  0  0  0  0  0  0  0  0  0  0  0
   19.2739  -14.9228  -15.3141 N   0  0  0  0  0  0  0  0  0  0  0  0
   20.5518  -15.5880  -15.1660 C   0  0  0  0  0  0  0  0  0  0  0  0
   20.4822  -16.9182  -15.9499 C   0  0  0  0  0  0  0  0  0  0  0  0
   21.7788  -17.6572  -15.8235 C   0  0  0  0  0  0  0  0  0  0  0  0
   21.6100  -18.9125  -15.0362 C   0  0  2  0  0  0  0  0  0  0  0  0
   22.8662  -19.6787  -15.0392 N   0  0  0  0  0  0  0  0  0  0  0  0
   20.5851  -19.7874  -15.6049 C   0  0  0  0  0  0  0  0  0  0  0  0
   19.2747  -19.7564  -15.1556 O   0  0  0  0  0  0  0  0  0  0  0  0
   20.9076  -20.5931  -16.5268 O   0  0  0  0  0  0  0  0  0  0  0  0
  2  3  1  0
  2  1  1  6
  4  3  1  0
  5  2  1  0
  6  5  2  0
  8  7  1  6
  8 10  1  0
  9  8  1  0
 11 10  1  6
 11 12  1  0
 12  5  1  0
 13 11  1  0
 13 14  2  0
 16 15  1  0
 17 16  2  0
 18 16  1  0
 19 18  1  0
 20 21  1  0
 20 19  1  0
 22 21  1  6
 22 23  1  0
 23 13  1  0
 24 22  1  0
 25 24  1  0
 26 24  2  0
M  END
$$$$
