CLR.pdb
     RDKit          3D

 26 25  0  0  1  0  0  0  0  0999 V2000
   25.1004  -21.2971  -11.8362 N   0  0  0  0  0  0  0  0  0  0  0  0
   25.1048  -21.2495  -13.2854 C   0  0  1  0  0  0  0  0  0  0  0  0
   24.4319  -22.4558  -13.8722 C   0  0  0  0  0  0  0  0  0  0  0  0
   25.2909  -23.9318  -13.2339 S   0  0  0  0  0  0  0  0  0  0  0  0
   24.6147  -19.9768  -13.8012 C   0  0  0  0  0  0  0  0  0  0  0  0
   23.6563  -19.4165  -13.1655 O   0  0  0  0  0  0  0  0  0  0  0  0
   26.4443  -15.8304  -14.0997 C   0  0  0  0  0  0  0  0  0  0  0  0
   27.0394  -16.8693  -15.0720 C   0  0  2  0  0  0  0  0  0  0  0  0
   28.1911  -16.1896  -15.7448 C   0  0  0  0  0  0  0  0  0  0  0  0
   25.9289  -17.2905  -15.9717 C   0  0  0  0  0  0  0  0  0  0  0  0
   24.8097  -18.0508  -15.3134 C   0  0  2  0  0  0  0  0  0  0  0  0
   25.1819  -19.3958  -14.9554 N   0  0  0  0  0  0  0  0  0  0  0  0
   23.7145  -18.1348  -16.3292 C   0  0  0  0  0  0  0  0  0  0  0  0
   23.7488  -19.0898  -17.1443 O   0  0  0  0  0  0  0  0  0  0  0  0
   15.2075  -15.8440  -16.5527 N   0  0  0  0  0  0  0  0  0  0  0  0
   16.1235  -16.6661  -15.8532 C   0  0  0  0  0  0  0  0  0  0  0  0
   15.8137  -17.1883  -14.7010 N   0  0  0  0  0  0  0  0  0  0  0  0
   17.4080  -16.9409  -16.3961 N   0  0  0  0  0  0  0  0  0  0  0  0
   17.9892  -16.0978  -17.4202 C   0  0  0  0  0  0  0  0  0  0  0  0
   19.2716  -16.7943  -17.9296 C   0  0  0  0  0  0  0  0  0  0  0  0
   20.3469  -16.7144  -16.8901 C   0  0  0  0  0  0  0  0  0  0  0  0
   21.5967  -17.3829  -17.3540 C   0  0  2  0  0  0  0  0  0  0  0  0
   22.6723  -17.1710  -16.3726 N   0  0  0  0  0  0  0  0  0  0  0  0
   22.0758  -16.8381  -18.6240 C   0  0  0  0  0  0  0  0  0  0  0  0
   21.8223  -17.4753  -19.8280 O   0  0  0  0  0  0  0  0  0  0  0  0
   22.7404  -15.7604  -18.6185 O   0  0  0  0  0  0  0  0  0  0  0  0
  2  3  1  0
  2  1  1  1
  4  3  1  0
  5  2  1  0
  6  5  2  0
  8  7  1  1
  8 10  1  0
  9  8  1  0
 11 10  1  6
 11 12  1  0
 12  5  1  0
 13 11  1  0
 13 14  2  0
 16 15  1  0
 17 16  2  0
 18 16  1  0
 19 18  1  0
 20 21  1  0
 20 19  1  0
 22 21  1  1
 22 23  1  0
 23 13  1  0
 24 22  1  0
 25 24  1  0
 26 24  2  0
M  END
$$$$
