CLR.pdb
     RDKit          3D

 26 25  0  0  1  0  0  0  0  0999 V2000
   21.2572  -20.3887   -7.9239 N   0  0  0  0  0  0  0  0  0  0  0  0
   22.4284  -21.1475   -7.5298 C   0  0  1  0  0  0  0  0  0  0  0  0
   22.2066  -22.6214   -7.7040 C   0  0  0  0  0  0  0  0  0  0  0  0
   20.8405  -23.1083   -6.5993 S   0  0  0  0  0  0  0  0  0  0  0  0
   23.6498  -20.6455   -8.1482 C   0  0  0  0  0  0  0  0  0  0  0  0
   23.5251  -19.9633   -9.2231 O   0  0  0  0  0  0  0  0  0  0  0  0
   27.2355  -18.2005   -6.3596 C   0  0  0  0  0  0  0  0  0  0  0  0
   27.2131  -19.7049   -6.0202 C   0  0  2  0  0  0  0  0  0  0  0  0
   28.3504  -19.9290   -5.0728 C   0  0  0  0  0  0  0  0  0  0  0  0
   27.3064  -20.4320   -7.3174 C   0  0  0  0  0  0  0  0  0  0  0  0
   26.0884  -20.3537   -8.1973 C   0  0  2  0  0  0  0  0  0  0  0  0
   24.9127  -20.9078   -7.5756 N   0  0  0  0  0  0  0  0  0  0  0  0
   26.3985  -21.1793   -9.4057 C   0  0  0  0  0  0  0  0  0  0  0  0
   26.2386  -22.4220   -9.3182 O   0  0  0  0  0  0  0  0  0  0  0  0
   20.5675  -21.6973  -14.4270 N   0  0  0  0  0  0  0  0  0  0  0  0
   21.5837  -20.8066  -14.8488 C   0  0  0  0  0  0  0  0  0  0  0  0
   21.3064  -19.7747  -15.5935 N   0  0  0  0  0  0  0  0  0  0  0  0
   22.9359  -21.0201  -14.4667 N   0  0  0  0  0  0  0  0  0  0  0  0
   23.3168  -22.1489  -13.6431 C   0  0  0  0  0  0  0  0  0  0  0  0
   24.8437  -22.0702  -13.4161 C   0  0  0  0  0  0  0  0  0  0  0  0
   25.1344  -21.4079  -12.1046 C   0  0  0  0  0  0  0  0  0  0  0  0
   26.6028  -21.3088  -11.8638 C   0  0  2  0  0  0  0  0  0  0  0  0
   26.8572  -20.5821  -10.6099 N   0  0  0  0  0  0  0  0  0  0  0  0
   27.2874  -20.5679  -12.9230 C   0  0  0  0  0  0  0  0  0  0  0  0
   27.6946  -21.1867  -14.0940 O   0  0  0  0  0  0  0  0  0  0  0  0
   27.5144  -19.3329  -12.7607 O   0  0  0  0  0  0  0  0  0  0  0  0
  2  3  1  0
  2  1  1  6
  4  3  1  0
  5  2  1  0
  6  5  2  0
  8  7  1  6
  8 10  1  0
  9  8  1  0
 11 10  1  1
 11 12  1  0
 12  5  1  0
 13 11  1  0
 13 14  2  0
 16 15  1  0
 17 16  2  0
 18 16  1  0
 19 18  1  0
 20 21  1  0
 20 19  1  0
 22 21  1  6
 22 23  1  0
 23 13  1  0
 24 22  1  0
 25 24  1  0
 26 24  2  0
M  END
$$$$
