CLR.pdb
     RDKit          3D

 26 25  0  0  1  0  0  0  0  0999 V2000
   26.7306  -22.6964  -15.8492 N   0  0  0  0  0  0  0  0  0  0  0  0
   25.3769  -23.0399  -16.2395 C   0  0  1  0  0  0  0  0  0  0  0  0
   25.1812  -24.5273  -16.2759 C   0  0  0  0  0  0  0  0  0  0  0  0
   26.5651  -25.2430  -17.2227 S   0  0  0  0  0  0  0  0  0  0  0  0
   24.3749  -22.3199  -15.4627 C   0  0  0  0  0  0  0  0  0  0  0  0
   24.6679  -22.0319  -14.2512 O   0  0  0  0  0  0  0  0  0  0  0  0
   23.0338  -18.4082  -14.4639 C   0  0  0  0  0  0  0  0  0  0  0  0
   22.8342  -18.8092  -15.9398 C   0  0  2  0  0  0  0  0  0  0  0  0
   22.4458  -17.5541  -16.6574 C   0  0  0  0  0  0  0  0  0  0  0  0
   21.8134  -19.8946  -15.9481 C   0  0  0  0  0  0  0  0  0  0  0  0
   22.2134  -21.1706  -15.2584 C   0  0  2  0  0  0  0  0  0  0  0  0
   23.1356  -21.9604  -16.0340 N   0  0  0  0  0  0  0  0  0  0  0  0
   20.9556  -21.9643  -15.0969 C   0  0  0  0  0  0  0  0  0  0  0  0
   20.4905  -22.5317  -16.1164 O   0  0  0  0  0  0  0  0  0  0  0  0
   17.7707  -26.5412   -8.6220 N   0  0  0  0  0  0  0  0  0  0  0  0
   18.6426  -26.7458   -9.7184 C   0  0  0  0  0  0  0  0  0  0  0  0
   19.5712  -27.6581   -9.6775 N   0  0  0  0  0  0  0  0  0  0  0  0
   18.5227  -25.9560  -10.8940 N   0  0  0  0  0  0  0  0  0  0  0  0
   17.4826  -24.9571  -11.0277 C   0  0  0  0  0  0  0  0  0  0  0  0
   17.6327  -24.3071  -12.4220 C   0  0  0  0  0  0  0  0  0  0  0  0
   18.9105  -23.5290  -12.4910 C   0  0  0  0  0  0  0  0  0  0  0  0
   19.0372  -22.8136  -13.7934 C   0  0  2  0  0  0  0  0  0  0  0  0
   20.3085  -22.0741  -13.8374 N   0  0  0  0  0  0  0  0  0  0  0  0
   17.9734  -21.8288  -13.9883 C   0  0  0  0  0  0  0  0  0  0  0  0
   18.0241  -20.5792  -13.3918 O   0  0  0  0  0  0  0  0  0  0  0  0
   16.9829  -22.1305  -14.7170 O   0  0  0  0  0  0  0  0  0  0  0  0
  2  3  1  0
  2  1  1  1
  4  3  1  0
  5  2  1  0
  6  5  2  0
  8  7  1  1
  8 10  1  0
  9  8  1  0
 11 10  1  6
 11 12  1  0
 12  5  1  0
 13 11  1  0
 13 14  2  0
 16 15  1  0
 17 16  2  0
 18 16  1  0
 19 18  1  0
 20 21  1  0
 20 19  1  0
 22 21  1  1
 22 23  1  0
 23 13  1  0
 24 22  1  0
 25 24  1  0
 26 24  2  0
M  END
$$$$
