CLR.pdb
     RDKit          3D

 26 25  0  0  1  0  0  0  0  0999 V2000
   21.4256  -28.2425  -10.7887 N   0  0  0  0  0  0  0  0  0  0  0  0
   20.1312  -28.8896  -10.6974 C   0  0  1  0  0  0  0  0  0  0  0  0
   20.1843  -30.0895   -9.7977 C   0  0  0  0  0  0  0  0  0  0  0  0
   21.5500  -31.1511  -10.3736 S   0  0  0  0  0  0  0  0  0  0  0  0
   19.0609  -27.9501  -10.3848 C   0  0  0  0  0  0  0  0  0  0  0  0
   17.8587  -28.3733  -10.4944 O   0  0  0  0  0  0  0  0  0  0  0  0
   16.7253  -26.5351   -7.3066 C   0  0  0  0  0  0  0  0  0  0  0  0
   18.1589  -25.9835   -7.1673 C   0  0  2  0  0  0  0  0  0  0  0  0
   18.2153  -25.3208   -5.8261 C   0  0  0  0  0  0  0  0  0  0  0  0
   18.3815  -25.0861   -8.3358 C   0  0  0  0  0  0  0  0  0  0  0  0
   18.2602  -25.7348   -9.6880 C   0  0  2  0  0  0  0  0  0  0  0  0
   19.3509  -26.6300   -9.9789 N   0  0  0  0  0  0  0  0  0  0  0  0
   18.3048  -24.6208  -10.6856 C   0  0  0  0  0  0  0  0  0  0  0  0
   19.3547  -23.9340  -10.7444 O   0  0  0  0  0  0  0  0  0  0  0  0
   19.5274  -24.7187  -18.4897 N   0  0  0  0  0  0  0  0  0  0  0  0
   20.1261  -24.6936  -17.2071 C   0  0  0  0  0  0  0  0  0  0  0  0
   21.2235  -25.3517  -16.9646 N   0  0  0  0  0  0  0  0  0  0  0  0
   19.5394  -23.9456  -16.1505 N   0  0  0  0  0  0  0  0  0  0  0  0
   18.1981  -23.4105  -16.2605 C   0  0  0  0  0  0  0  0  0  0  0  0
   17.8305  -22.7813  -14.8975 C   0  0  0  0  0  0  0  0  0  0  0  0
   17.7401  -23.8461  -13.8481 C   0  0  0  0  0  0  0  0  0  0  0  0
   17.3616  -23.2698  -12.5257 C   0  0  2  0  0  0  0  0  0  0  0  0
   17.2012  -24.3475  -11.5368 N   0  0  0  0  0  0  0  0  0  0  0  0
   16.0853  -22.5573  -12.5787 C   0  0  0  0  0  0  0  0  0  0  0  0
   14.8874  -23.1938  -12.2964 O   0  0  0  0  0  0  0  0  0  0  0  0
   16.0790  -21.3310  -12.8937 O   0  0  0  0  0  0  0  0  0  0  0  0
  2  3  1  0
  2  1  1  1
  4  3  1  0
  5  2  1  0
  6  5  2  0
  8  7  1  6
  8 10  1  0
  9  8  1  0
 11 10  1  1
 11 12  1  0
 12  5  1  0
 13 11  1  0
 13 14  2  0
 16 15  1  0
 17 16  2  0
 18 16  1  0
 19 18  1  0
 20 21  1  0
 20 19  1  0
 22 21  1  6
 22 23  1  0
 23 13  1  0
 24 22  1  0
 25 24  1  0
 26 24  2  0
M  END
$$$$
