CLR.pdb
     RDKit          3D

 26 25  0  0  1  0  0  0  0  0999 V2000
   25.1247  -19.4906  -17.0211 N   0  0  0  0  0  0  0  0  0  0  0  0
   24.4748  -18.9601  -15.8384 C   0  0  1  0  0  0  0  0  0  0  0  0
   23.4570  -17.9174  -16.1974 C   0  0  0  0  0  0  0  0  0  0  0  0
   24.3564  -16.4617  -16.8265 S   0  0  0  0  0  0  0  0  0  0  0  0
   23.9754  -20.0113  -14.9600 C   0  0  0  0  0  0  0  0  0  0  0  0
   23.6307  -21.1161  -15.5049 O   0  0  0  0  0  0  0  0  0  0  0  0
   26.0224  -22.1236  -11.6023 C   0  0  0  0  0  0  0  0  0  0  0  0
   25.4834  -20.7320  -11.2128 C   0  0  2  0  0  0  0  0  0  0  0  0
   26.0096  -20.4578   -9.8384 C   0  0  0  0  0  0  0  0  0  0  0  0
   23.9997  -20.8062  -11.3284 C   0  0  0  0  0  0  0  0  0  0  0  0
   23.4592  -20.9012  -12.7293 C   0  0  2  0  0  0  0  0  0  0  0  0
   23.8803  -19.8072  -13.5668 N   0  0  0  0  0  0  0  0  0  0  0  0
   21.9701  -20.8329  -12.6027 C   0  0  0  0  0  0  0  0  0  0  0  0
   21.4789  -19.8166  -12.0519 O   0  0  0  0  0  0  0  0  0  0  0  0
   16.3103  -19.1834  -17.9614 N   0  0  0  0  0  0  0  0  0  0  0  0
   16.8558  -18.4858  -16.8570 C   0  0  0  0  0  0  0  0  0  0  0  0
   17.0106  -17.1930  -16.8884 N   0  0  0  0  0  0  0  0  0  0  0  0
   17.2484  -19.1849  -15.6834 N   0  0  0  0  0  0  0  0  0  0  0  0
   17.0868  -20.6198  -15.5716 C   0  0  0  0  0  0  0  0  0  0  0  0
   17.6416  -21.0486  -14.1942 C   0  0  0  0  0  0  0  0  0  0  0  0
   19.1301  -21.1991  -14.2643 C   0  0  0  0  0  0  0  0  0  0  0  0
   19.6841  -21.6930  -12.9708 C   0  0  2  0  0  0  0  0  0  0  0  0
   21.1393  -21.8780  -13.0869 N   0  0  0  0  0  0  0  0  0  0  0  0
   19.1264  -22.9906  -12.5906 C   0  0  0  0  0  0  0  0  0  0  0  0
   17.8981  -23.0945  -11.9579 O   0  0  0  0  0  0  0  0  0  0  0  0
   19.7863  -24.0410  -12.8442 O   0  0  0  0  0  0  0  0  0  0  0  0
  2  3  1  0
  2  1  1  6
  4  3  1  0
  5  2  1  0
  6  5  2  0
  8  7  1  1
  8 10  1  0
  9  8  1  0
 11 10  1  1
 11 12  1  0
 12  5  1  0
 13 11  1  0
 13 14  2  0
 16 15  1  0
 17 16  2  0
 18 16  1  0
 19 18  1  0
 20 21  1  0
 20 19  1  0
 22 21  1  6
 22 23  1  0
 23 13  1  0
 24 22  1  0
 25 24  1  0
 26 24  2  0
M  END
$$$$
