CLR.pdb
     RDKit          3D

 26 25  0  0  1  0  0  0  0  0999 V2000
   26.3020  -21.7536   -9.1277 N   0  0  0  0  0  0  0  0  0  0  0  0
   26.1749  -20.3158   -9.2657 C   0  0  1  0  0  0  0  0  0  0  0  0
   27.1927  -19.5962   -8.4301 C   0  0  0  0  0  0  0  0  0  0  0  0
   27.0931  -20.2687   -6.7385 S   0  0  0  0  0  0  0  0  0  0  0  0
   26.1338  -19.8928  -10.6605 C   0  0  0  0  0  0  0  0  0  0  0  0
   25.8254  -18.6735  -10.8946 O   0  0  0  0  0  0  0  0  0  0  0  0
   28.5516  -20.9446  -16.0884 C   0  0  0  0  0  0  0  0  0  0  0  0
   27.3745  -20.2789  -15.3467 C   0  0  2  0  0  0  0  0  0  0  0  0
   27.5748  -18.8032  -15.4996 C   0  0  0  0  0  0  0  0  0  0  0  0
   27.4137  -20.7897  -13.9476 C   0  0  0  0  0  0  0  0  0  0  0  0
   26.2694  -20.3665  -13.0671 C   0  0  2  0  0  0  0  0  0  0  0  0
   26.4241  -20.8000  -11.7018 N   0  0  0  0  0  0  0  0  0  0  0  0
   25.0518  -21.0344  -13.6233 C   0  0  0  0  0  0  0  0  0  0  0  0
   24.8314  -22.2223  -13.2800 O   0  0  0  0  0  0  0  0  0  0  0  0
   20.6956  -22.4790  -10.2206 N   0  0  0  0  0  0  0  0  0  0  0  0
   19.7023  -22.8352  -11.1643 C   0  0  0  0  0  0  0  0  0  0  0  0
   19.3919  -24.0824  -11.3750 N   0  0  0  0  0  0  0  0  0  0  0  0
   19.0186  -21.8342  -11.9062 N   0  0  0  0  0  0  0  0  0  0  0  0
   19.7373  -20.7710  -12.5774 C   0  0  0  0  0  0  0  0  0  0  0  0
   20.6830  -21.4235  -13.6112 C   0  0  0  0  0  0  0  0  0  0  0  0
   22.0788  -20.9140  -13.4238 C   0  0  0  0  0  0  0  0  0  0  0  0
   22.8356  -20.9280  -14.7088 C   0  0  2  0  0  0  0  0  0  0  0  0
   24.1747  -20.3523  -14.5080 N   0  0  0  0  0  0  0  0  0  0  0  0
   22.1846  -20.1229  -15.7419 C   0  0  0  0  0  0  0  0  0  0  0  0
   22.7719  -18.9713  -16.2409 O   0  0  0  0  0  0  0  0  0  0  0  0
   21.0565  -20.4882  -16.1855 O   0  0  0  0  0  0  0  0  0  0  0  0
  2  3  1  0
  2  1  1  6
  4  3  1  0
  5  2  1  0
  6  5  2  0
  8  7  1  6
  8 10  1  0
  9  8  1  0
 11 10  1  6
 11 12  1  0
 12  5  1  0
 13 11  1  0
 13 14  2  0
 16 15  1  0
 17 16  2  0
 18 16  1  0
 19 18  1  0
 20 21  1  0
 20 19  1  0
 22 21  1  1
 22 23  1  0
 23 13  1  0
 24 22  1  0
 25 24  1  0
 26 24  2  0
M  END
$$$$
