CLR.pdb
     RDKit          3D

 26 25  0  0  1  0  0  0  0  0999 V2000
   28.5586  -17.7639  -16.8555 N   0  0  0  0  0  0  0  0  0  0  0  0
   27.9620  -19.0350  -17.2174 C   0  0  1  0  0  0  0  0  0  0  0  0
   28.6863  -19.6683  -18.3692 C   0  0  0  0  0  0  0  0  0  0  0  0
   28.6314  -18.4983  -19.7662 S   0  0  0  0  0  0  0  0  0  0  0  0
   27.7795  -19.9112  -16.0663 C   0  0  0  0  0  0  0  0  0  0  0  0
   27.1433  -21.0045  -16.2568 O   0  0  0  0  0  0  0  0  0  0  0  0
   27.9727  -21.0744  -10.7316 C   0  0  0  0  0  0  0  0  0  0  0  0
   29.2283  -21.3547  -11.5824 C   0  0  2  0  0  0  0  0  0  0  0  0
   30.3873  -21.2911  -10.6370 C   0  0  0  0  0  0  0  0  0  0  0  0
   29.2343  -20.3401  -12.6735 C   0  0  0  0  0  0  0  0  0  0  0  0
   28.1522  -20.4895  -13.7082 C   0  0  2  0  0  0  0  0  0  0  0  0
   28.2882  -19.5575  -14.7984 N   0  0  0  0  0  0  0  0  0  0  0  0
   26.8658  -20.1875  -13.0067 C   0  0  0  0  0  0  0  0  0  0  0  0
   26.6679  -19.0032  -12.6383 O   0  0  0  0  0  0  0  0  0  0  0  0
   19.4240  -19.8101  -14.6483 N   0  0  0  0  0  0  0  0  0  0  0  0
   18.9762  -20.3997  -13.4416 C   0  0  0  0  0  0  0  0  0  0  0  0
   17.8309  -20.0696  -12.9168 N   0  0  0  0  0  0  0  0  0  0  0  0
   19.7712  -21.3699  -12.7731 N   0  0  0  0  0  0  0  0  0  0  0  0
   21.0527  -21.7884  -13.3024 C   0  0  0  0  0  0  0  0  0  0  0  0
   22.1525  -21.0402  -12.5154 C   0  0  0  0  0  0  0  0  0  0  0  0
   23.5015  -21.3765  -13.0723 C   0  0  0  0  0  0  0  0  0  0  0  0
   24.5904  -20.7773  -12.2480 C   0  0  2  0  0  0  0  0  0  0  0  0
   25.9012  -21.2015  -12.7646 N   0  0  0  0  0  0  0  0  0  0  0  0
   24.5299  -21.2122  -10.8528 C   0  0  0  0  0  0  0  0  0  0  0  0
   23.9950  -20.4028   -9.8636 O   0  0  0  0  0  0  0  0  0  0  0  0
   24.9813  -22.3545  -10.5453 O   0  0  0  0  0  0  0  0  0  0  0  0
  2  3  1  0
  2  1  1  1
  4  3  1  0
  5  2  1  0
  6  5  2  0
  8  7  1  1
  8 10  1  0
  9  8  1  0
 11 10  1  1
 11 12  1  0
 12  5  1  0
 13 11  1  0
 13 14  2  0
 16 15  1  0
 17 16  2  0
 18 16  1  0
 19 18  1  0
 20 21  1  0
 20 19  1  0
 22 21  1  6
 22 23  1  0
 23 13  1  0
 24 22  1  0
 25 24  1  0
 26 24  2  0
M  END
$$$$
