CLR.pdb
     RDKit          3D

 26 25  0  0  1  0  0  0  0  0999 V2000
   21.6427  -13.7336  -19.7209 N   0  0  0  0  0  0  0  0  0  0  0  0
   20.7268  -13.5537  -18.6113 C   0  0  1  0  0  0  0  0  0  0  0  0
   20.1463  -14.8640  -18.1661 C   0  0  0  0  0  0  0  0  0  0  0  0
   20.3406  -16.0484  -19.5384 S   0  0  0  0  0  0  0  0  0  0  0  0
   21.3054  -12.7558  -17.5368 C   0  0  0  0  0  0  0  0  0  0  0  0
   20.5639  -12.5115  -16.5234 O   0  0  0  0  0  0  0  0  0  0  0  0
   26.7564  -10.4161  -15.8133 C   0  0  0  0  0  0  0  0  0  0  0  0
   25.2372  -10.4412  -15.5485 C   0  0  2  0  0  0  0  0  0  0  0  0
   25.0752  -10.8897  -14.1294 C   0  0  0  0  0  0  0  0  0  0  0  0
   24.6440  -11.3412  -16.5771 C   0  0  0  0  0  0  0  0  0  0  0  0
   23.1437  -11.4538  -16.5572 C   0  0  2  0  0  0  0  0  0  0  0  0
   22.6304  -12.2777  -17.6218 N   0  0  0  0  0  0  0  0  0  0  0  0
   22.6229  -10.0663  -16.7615 C   0  0  0  0  0  0  0  0  0  0  0  0
   22.9356   -9.4782  -17.8264 O   0  0  0  0  0  0  0  0  0  0  0  0
   15.4945  -10.7785  -17.6660 N   0  0  0  0  0  0  0  0  0  0  0  0
   16.4871  -10.8162  -18.6747 C   0  0  0  0  0  0  0  0  0  0  0  0
   16.3051  -11.4942  -19.7717 N   0  0  0  0  0  0  0  0  0  0  0  0
   17.7103  -10.1112  -18.5112 N   0  0  0  0  0  0  0  0  0  0  0  0
   18.0063   -9.3886  -17.2916 C   0  0  0  0  0  0  0  0  0  0  0  0
   19.3667   -8.6806  -17.4839 C   0  0  0  0  0  0  0  0  0  0  0  0
   19.8255   -8.0889  -16.1868 C   0  0  0  0  0  0  0  0  0  0  0  0
   21.3139   -8.0810  -16.0937 C   0  0  2  0  0  0  0  0  0  0  0  0
   21.8042   -9.4343  -15.7882 N   0  0  0  0  0  0  0  0  0  0  0  0
   21.7957   -7.2097  -15.0222 C   0  0  0  0  0  0  0  0  0  0  0  0
   21.8094   -5.8310  -15.1598 O   0  0  0  0  0  0  0  0  0  0  0  0
   22.2123   -7.7317  -13.9465 O   0  0  0  0  0  0  0  0  0  0  0  0
  2  3  1  0
  2  1  1  6
  4  3  1  0
  5  2  1  0
  6  5  2  0
  8  7  1  6
  8 10  1  0
  9  8  1  0
 11 10  1  6
 11 12  1  0
 12  5  1  0
 13 11  1  0
 13 14  2  0
 16 15  1  0
 17 16  2  0
 18 16  1  0
 19 18  1  0
 20 21  1  0
 20 19  1  0
 22 21  1  1
 22 23  1  0
 23 13  1  0
 24 22  1  0
 25 24  1  0
 26 24  2  0
M  END
$$$$
