CLR.pdb
     RDKit          3D

 26 25  0  0  1  0  0  0  0  0999 V2000
   19.2404  -26.8563   -2.6921 N   0  0  0  0  0  0  0  0  0  0  0  0
   18.6284  -27.8772   -1.8640 C   0  0  1  0  0  0  0  0  0  0  0  0
   18.3869  -29.1374   -2.6422 C   0  0  0  0  0  0  0  0  0  0  0  0
   17.5002  -28.6820   -4.1687 S   0  0  0  0  0  0  0  0  0  0  0  0
   19.3402  -28.0735   -0.6067 C   0  0  0  0  0  0  0  0  0  0  0  0
   20.5998  -27.8501   -0.6050 O   0  0  0  0  0  0  0  0  0  0  0  0
   20.4674  -25.8763    2.7369 C   0  0  0  0  0  0  0  0  0  0  0  0
   18.9576  -26.1597    2.5989 C   0  0  2  0  0  0  0  0  0  0  0  0
   18.2785  -25.2528    3.5774 C   0  0  0  0  0  0  0  0  0  0  0  0
   18.7775  -27.6182    2.8447 C   0  0  0  0  0  0  0  0  0  0  0  0
   19.3700  -28.5320    1.8064 C   0  0  2  0  0  0  0  0  0  0  0  0
   18.6574  -28.4931    0.5549 N   0  0  0  0  0  0  0  0  0  0  0  0
   19.2488  -29.9172    2.3584 C   0  0  0  0  0  0  0  0  0  0  0  0
   18.1585  -30.5175    2.1899 O   0  0  0  0  0  0  0  0  0  0  0  0
   24.8909  -32.7868    4.9627 N   0  0  0  0  0  0  0  0  0  0  0  0
   25.0332  -32.2469    3.6618 C   0  0  0  0  0  0  0  0  0  0  0  0
   25.8322  -31.2440    3.4339 N   0  0  0  0  0  0  0  0  0  0  0  0
   24.3031  -32.7906    2.5702 N   0  0  0  0  0  0  0  0  0  0  0  0
   23.3133  -33.8290    2.7683 C   0  0  0  0  0  0  0  0  0  0  0  0
   21.9210  -33.2025    2.5273 C   0  0  0  0  0  0  0  0  0  0  0  0
   21.4173  -32.5701    3.7880 C   0  0  0  0  0  0  0  0  0  0  0  0
   20.1068  -31.8936    3.5662 C   0  0  2  0  0  0  0  0  0  0  0  0
   20.3262  -30.5337    3.0485 N   0  0  0  0  0  0  0  0  0  0  0  0
   19.3420  -31.7514    4.8048 C   0  0  0  0  0  0  0  0  0  0  0  0
   18.9164  -32.8560    5.5249 O   0  0  0  0  0  0  0  0  0  0  0  0
   19.0614  -30.5899    5.2236 O   0  0  0  0  0  0  0  0  0  0  0  0
  2  3  1  0
  2  1  1  6
  4  3  1  0
  5  2  1  0
  6  5  2  0
  8  7  1  1
  8 10  1  0
  9  8  1  0
 11 10  1  1
 11 12  1  0
 12  5  1  0
 13 11  1  0
 13 14  2  0
 16 15  1  0
 17 16  2  0
 18 16  1  0
 19 18  1  0
 20 21  1  0
 20 19  1  0
 22 21  1  1
 22 23  1  0
 23 13  1  0
 24 22  1  0
 25 24  1  0
 26 24  2  0
M  END
$$$$
