ALT.pdb
     RDKit          3D

 21 20  0  0  1  0  0  0  0  0999 V2000
   18.1697  -31.3639   -7.0260 C   0  0  0  0  0  0  0  0  0  0  0  0
   18.0695  -31.3733   -5.5372 C   0  0  2  0  0  0  0  0  0  0  0  0
   17.1144  -32.4185   -5.1803 N   0  0  0  0  0  0  0  0  0  0  0  0
   17.7011  -30.0865   -4.9481 C   0  0  0  0  0  0  0  0  0  0  0  0
   16.4995  -29.7161   -5.0054 O   0  0  0  0  0  0  0  0  0  0  0  0
   17.3529  -26.4784   -1.0182 C   0  0  0  0  0  0  0  0  0  0  0  0
   18.6982  -26.4808   -1.7130 C   0  0  1  0  0  0  0  0  0  0  0  0
   19.7087  -26.3614   -0.5469 C   0  0  0  0  0  0  0  0  0  0  0  0
   19.0088  -27.7709   -2.3849 C   0  0  0  0  0  0  0  0  0  0  0  0
   18.3305  -28.0013   -3.6763 C   0  0  2  0  0  0  0  0  0  0  0  0
   18.6934  -29.2522   -4.3121 N   0  0  0  0  0  0  0  0  0  0  0  0
   18.3140  -26.8755   -4.6339 C   0  0  0  0  0  0  0  0  0  0  0  0
   19.3497  -26.2464   -4.9359 O   0  0  0  0  0  0  0  0  0  0  0  0
   17.3875  -26.7851   -8.2487 C   0  0  0  0  0  0  0  0  0  0  0  0
   16.4923  -25.7922   -7.5509 C   0  0  1  0  0  0  0  0  0  0  0  0
   15.2478  -26.4265   -7.4256 O   0  0  0  0  0  0  0  0  0  0  0  0
   17.0171  -25.3686   -6.2209 C   0  0  2  0  0  0  0  0  0  0  0  0
   17.0922  -26.4454   -5.2627 N   0  0  0  0  0  0  0  0  0  0  0  0
   16.2153  -24.2327   -5.6460 C   0  0  0  0  0  0  0  0  0  0  0  0
   15.6524  -24.2962   -4.5158 O   0  0  0  0  0  0  0  0  0  0  0  0
   16.0336  -23.0331   -6.3106 O   0  0  0  0  0  0  0  0  0  0  0  0
  2  1  1  6
  3  2  1  0
  4  5  2  0
  4  2  1  0
  7  6  1  1
  7  9  1  0
  8  7  1  0
 10  9  1  1
 10 11  1  0
 10 12  1  0
 11  4  1  0
 12 18  1  0
 13 12  2  0
 15 16  1  0
 15 14  1  1
 17 15  1  0
 17 18  1  1
 19 21  1  0
 19 17  1  0
 20 19  2  0
M  END
$$$$
