ALT.pdb
     RDKit          3D

 21 20  0  0  1  0  0  0  0  0999 V2000
   20.6881  -12.1605  -18.2819 C   0  0  0  0  0  0  0  0  0  0  0  0
   21.1514  -10.7753  -18.5872 C   0  0  2  0  0  0  0  0  0  0  0  0
   22.0917  -10.8754  -19.6998 N   0  0  0  0  0  0  0  0  0  0  0  0
   21.7403  -10.0705  -17.4491 C   0  0  0  0  0  0  0  0  0  0  0  0
   21.0467   -9.9106  -16.4111 O   0  0  0  0  0  0  0  0  0  0  0  0
   26.9037  -10.9579  -15.9926 C   0  0  0  0  0  0  0  0  0  0  0  0
   25.4189  -10.6637  -16.0314 C   0  0  1  0  0  0  0  0  0  0  0  0
   24.9326  -11.0650  -14.6181 C   0  0  0  0  0  0  0  0  0  0  0  0
   25.1117   -9.2147  -16.1670 C   0  0  0  0  0  0  0  0  0  0  0  0
   23.6904   -8.8775  -16.3835 C   0  0  2  0  0  0  0  0  0  0  0  0
   23.0916   -9.5649  -17.5102 N   0  0  0  0  0  0  0  0  0  0  0  0
   23.3301   -7.4444  -16.3515 C   0  0  0  0  0  0  0  0  0  0  0  0
   23.7589   -6.6336  -17.1991 O   0  0  0  0  0  0  0  0  0  0  0  0
   20.6565   -5.5888  -17.2826 C   0  0  0  0  0  0  0  0  0  0  0  0
   20.7552   -5.2234  -15.8228 C   0  0  1  0  0  0  0  0  0  0  0  0
   19.7468   -5.9557  -15.1796 O   0  0  0  0  0  0  0  0  0  0  0  0
   22.0938   -5.5208  -15.2368 C   0  0  2  0  0  0  0  0  0  0  0  0
   22.4662   -6.9122  -15.3300 N   0  0  0  0  0  0  0  0  0  0  0  0
   22.1846   -5.0659  -13.8054 C   0  0  0  0  0  0  0  0  0  0  0  0
   22.3831   -5.8642  -12.8455 O   0  0  0  0  0  0  0  0  0  0  0  0
   22.0577   -3.7400  -13.4319 O   0  0  0  0  0  0  0  0  0  0  0  0
  2  1  1  1
  3  2  1  0
  4  5  2  0
  4  2  1  0
  7  6  1  1
  7  9  1  0
  8  7  1  0
 10  9  1  6
 10 11  1  0
 10 12  1  0
 11  4  1  0
 12 18  1  0
 13 12  2  0
 15 16  1  0
 15 14  1  6
 17 15  1  0
 17 18  1  1
 19 21  1  0
 19 17  1  0
 20 19  2  0
M  END
$$$$
