ALT.pdb
     RDKit          3D

 21 20  0  0  1  0  0  0  0  0999 V2000
   27.4021  -17.2915  -16.8203 C   0  0  0  0  0  0  0  0  0  0  0  0
   28.0339  -18.5306  -16.2800 C   0  0  2  0  0  0  0  0  0  0  0  0
   28.5927  -19.2556  -17.4176 N   0  0  0  0  0  0  0  0  0  0  0  0
   27.1340  -19.3752  -15.4955 C   0  0  0  0  0  0  0  0  0  0  0  0
   26.4952  -20.2876  -16.0818 O   0  0  0  0  0  0  0  0  0  0  0  0
   25.4384  -22.2623  -11.1825 C   0  0  0  0  0  0  0  0  0  0  0  0
   25.3741  -20.7584  -11.0185 C   0  0  1  0  0  0  0  0  0  0  0  0
   25.8319  -20.5331   -9.5575 C   0  0  0  0  0  0  0  0  0  0  0  0
   26.3585  -20.0336  -11.8657 C   0  0  0  0  0  0  0  0  0  0  0  0
   26.0271  -19.9457  -13.3021 C   0  0  2  0  0  0  0  0  0  0  0  0
   26.9769  -19.1701  -14.0748 N   0  0  0  0  0  0  0  0  0  0  0  0
   24.6285  -19.6151  -13.6473 C   0  0  0  0  0  0  0  0  0  0  0  0
   24.1569  -18.4707  -13.4806 O   0  0  0  0  0  0  0  0  0  0  0  0
   22.2012  -22.0977  -16.3070 C   0  0  0  0  0  0  0  0  0  0  0  0
   22.0259  -20.6433  -15.9491 C   0  0  1  0  0  0  0  0  0  0  0  0
   20.6851  -20.3426  -16.2300 O   0  0  0  0  0  0  0  0  0  0  0  0
   22.3566  -20.3496  -14.5249 C   0  0  2  0  0  0  0  0  0  0  0  0
   23.7369  -20.6067  -14.1902 N   0  0  0  0  0  0  0  0  0  0  0  0
   21.4571  -21.1015  -13.5818 C   0  0  0  0  0  0  0  0  0  0  0  0
   21.8990  -21.8915  -12.6993 O   0  0  0  0  0  0  0  0  0  0  0  0
   20.0789  -20.9849  -13.6091 O   0  0  0  0  0  0  0  0  0  0  0  0
  2  1  1  6
  3  2  1  0
  4  5  2  0
  4  2  1  0
  7  6  1  6
  7  9  1  0
  8  7  1  0
 10  9  1  1
 10 11  1  0
 10 12  1  0
 11  4  1  0
 12 18  1  0
 13 12  2  0
 15 16  1  0
 15 14  1  1
 17 15  1  0
 17 18  1  1
 19 21  1  0
 19 17  1  0
 20 19  2  0
M  END
$$$$
