ALT.pdb
     RDKit          3D

 21 20  0  0  1  0  0  0  0  0999 V2000
   26.9000  -21.3555  -16.3674 C   0  0  0  0  0  0  0  0  0  0  0  0
   26.8653  -22.2423  -15.1678 C   0  0  2  0  0  0  0  0  0  0  0  0
   26.8504  -23.6187  -15.6550 N   0  0  0  0  0  0  0  0  0  0  0  0
   25.7506  -21.9838  -14.2572 C   0  0  0  0  0  0  0  0  0  0  0  0
   24.7011  -22.6686  -14.3750 O   0  0  0  0  0  0  0  0  0  0  0  0
   26.2780  -20.3319   -8.8463 C   0  0  0  0  0  0  0  0  0  0  0  0
   25.6501  -21.0230  -10.0384 C   0  0  1  0  0  0  0  0  0  0  0  0
   24.3946  -21.7041   -9.4427 C   0  0  0  0  0  0  0  0  0  0  0  0
   25.1446  -20.0746  -11.0666 C   0  0  0  0  0  0  0  0  0  0  0  0
   24.7380  -20.6781  -12.3516 C   0  0  2  0  0  0  0  0  0  0  0  0
   25.8467  -20.9628  -13.2406 N   0  0  0  0  0  0  0  0  0  0  0  0
   23.6061  -20.0445  -13.0602 C   0  0  0  0  0  0  0  0  0  0  0  0
   23.6620  -18.8709  -13.4835 O   0  0  0  0  0  0  0  0  0  0  0  0
   22.0988  -20.7509  -16.2417 C   0  0  0  0  0  0  0  0  0  0  0  0
   20.9392  -20.8232  -15.2802 C   0  0  1  0  0  0  0  0  0  0  0  0
   20.6563  -22.1885  -15.1294 O   0  0  0  0  0  0  0  0  0  0  0  0
   21.2326  -20.1856  -13.9644 C   0  0  2  0  0  0  0  0  0  0  0  0
   22.3754  -20.7551  -13.2913 N   0  0  0  0  0  0  0  0  0  0  0  0
   20.0362  -20.2226  -13.0528 C   0  0  0  0  0  0  0  0  0  0  0  0
   20.0665  -20.7540  -11.9060 O   0  0  0  0  0  0  0  0  0  0  0  0
   18.8130  -19.6780  -13.4005 O   0  0  0  0  0  0  0  0  0  0  0  0
  2  1  1  6
  3  2  1  0
  4  5  2  0
  4  2  1  0
  7  6  1  1
  7  9  1  0
  8  7  1  0
 10  9  1  1
 10 11  1  0
 10 12  1  0
 11  4  1  0
 12 18  1  0
 13 12  2  0
 15 16  1  0
 15 14  1  6
 17 15  1  0
 17 18  1  1
 19 21  1  0
 19 17  1  0
 20 19  2  0
M  END
$$$$
