ALT.pdb
     RDKit          3D

 21 20  0  0  1  0  0  0  0  0999 V2000
   19.7990  -11.2397  -20.0804 C   0  0  0  0  0  0  0  0  0  0  0  0
   20.4529   -9.9104  -19.9024 C   0  0  2  0  0  0  0  0  0  0  0  0
   21.4577   -9.7847  -20.9543 N   0  0  0  0  0  0  0  0  0  0  0  0
   21.0337   -9.6952  -18.5776 C   0  0  0  0  0  0  0  0  0  0  0  0
   20.2769   -9.7261  -17.5723 O   0  0  0  0  0  0  0  0  0  0  0  0
   24.1215  -10.0494  -14.3036 C   0  0  0  0  0  0  0  0  0  0  0  0
   24.9097   -9.6573  -15.5355 C   0  0  1  0  0  0  0  0  0  0  0  0
   26.1493  -10.5823  -15.4824 C   0  0  0  0  0  0  0  0  0  0  0  0
   24.2134   -9.9891  -16.8072 C   0  0  0  0  0  0  0  0  0  0  0  0
   23.0243   -9.1712  -17.1200 C   0  0  2  0  0  0  0  0  0  0  0  0
   22.4481   -9.4506  -18.4202 N   0  0  0  0  0  0  0  0  0  0  0  0
   23.1215   -7.7203  -16.8555 C   0  0  0  0  0  0  0  0  0  0  0  0
   23.9598   -6.9957  -17.4317 O   0  0  0  0  0  0  0  0  0  0  0  0
   21.2520   -4.8910  -17.6915 C   0  0  0  0  0  0  0  0  0  0  0  0
   21.2445   -4.8506  -16.1840 C   0  0  1  0  0  0  0  0  0  0  0  0
   19.9797   -5.3182  -15.7985 O   0  0  0  0  0  0  0  0  0  0  0  0
   22.3306   -5.6702  -15.5737 C   0  0  2  0  0  0  0  0  0  0  0  0
   22.2512   -7.0718  -15.9093 N   0  0  0  0  0  0  0  0  0  0  0  0
   22.3722   -5.5080  -14.0784 C   0  0  0  0  0  0  0  0  0  0  0  0
   22.1610   -6.4656  -13.2805 O   0  0  0  0  0  0  0  0  0  0  0  0
   22.6449   -4.2989  -13.4640 O   0  0  0  0  0  0  0  0  0  0  0  0
  2  1  1  1
  3  2  1  0
  4  5  2  0
  4  2  1  0
  7  6  1  1
  7  9  1  0
  8  7  1  0
 10  9  1  6
 10 11  1  0
 10 12  1  0
 11  4  1  0
 12 18  1  0
 13 12  2  0
 15 16  1  0
 15 14  1  6
 17 15  1  0
 17 18  1  1
 19 21  1  0
 19 17  1  0
 20 19  2  0
M  END
$$$$
