ALT.pdb
     RDKit          3D

 21 20  0  0  1  0  0  0  0  0999 V2000
   43.9817   -9.8795   -4.7619 C   0  0  0  0  0  0  0  0  0  0  0  0
   43.7431  -10.7918   -5.9183 C   0  0  2  0  0  0  0  0  0  0  0  0
   44.9582  -10.7813   -6.7279 N   0  0  0  0  0  0  0  0  0  0  0  0
   42.5638  -10.4596   -6.7168 C   0  0  0  0  0  0  0  0  0  0  0  0
   42.7149   -9.7837   -7.7678 O   0  0  0  0  0  0  0  0  0  0  0  0
   37.5825  -11.4688   -9.0755 C   0  0  0  0  0  0  0  0  0  0  0  0
   37.6877  -11.1277   -7.6041 C   0  0  1  0  0  0  0  0  0  0  0  0
   36.6161  -12.0292   -6.9454 C   0  0  0  0  0  0  0  0  0  0  0  0
   38.9841  -11.5347   -6.9991 C   0  0  0  0  0  0  0  0  0  0  0  0
   40.0675  -10.5337   -7.0697 C   0  0  2  0  0  0  0  0  0  0  0  0
   41.2483  -10.8958   -6.3113 N   0  0  0  0  0  0  0  0  0  0  0  0
   39.6872   -9.1202   -6.8644 C   0  0  0  0  0  0  0  0  0  0  0  0
   39.1868   -8.7167   -5.7936 O   0  0  0  0  0  0  0  0  0  0  0  0
   41.7179   -6.0393   -6.7892 C   0  0  0  0  0  0  0  0  0  0  0  0
   40.6899   -5.8236   -7.8714 C   0  0  1  0  0  0  0  0  0  0  0  0
   41.3694   -6.0146   -9.0833 O   0  0  0  0  0  0  0  0  0  0  0  0
   39.5222   -6.7441   -7.7578 C   0  0  2  0  0  0  0  0  0  0  0  0
   39.8721   -8.1372   -7.9000 N   0  0  0  0  0  0  0  0  0  0  0  0
   38.4405   -6.3894   -8.7417 C   0  0  0  0  0  0  0  0  0  0  0  0
   38.0508   -7.1832   -9.6452 O   0  0  0  0  0  0  0  0  0  0  0  0
   37.7907   -5.1683   -8.7317 O   0  0  0  0  0  0  0  0  0  0  0  0
  2  1  1  1
  3  2  1  0
  4  5  2  0
  4  2  1  0
  7  6  1  6
  7  9  1  0
  8  7  1  0
 10  9  1  1
 10 11  1  0
 10 12  1  0
 11  4  1  0
 12 18  1  0
 13 12  2  0
 15 16  1  0
 15 14  1  1
 17 15  1  0
 17 18  1  6
 19 21  1  0
 19 17  1  0
 20 19  2  0
M  END
$$$$
