ALT.pdb
     RDKit          3D

 21 20  0  0  1  0  0  0  0  0999 V2000
   18.2461   -8.1207  -19.1444 C   0  0  0  0  0  0  0  0  0  0  0  0
   19.1999   -9.0695  -18.4990 C   0  0  2  0  0  0  0  0  0  0  0  0
   18.4513  -10.2854  -18.1934 N   0  0  0  0  0  0  0  0  0  0  0  0
   19.8694   -8.5394  -17.3118 C   0  0  0  0  0  0  0  0  0  0  0  0
   19.1754   -7.9739  -16.4270 O   0  0  0  0  0  0  0  0  0  0  0  0
   23.7536  -11.5137  -14.9095 C   0  0  0  0  0  0  0  0  0  0  0  0
   22.5973  -10.5849  -15.2147 C   0  0  1  0  0  0  0  0  0  0  0  0
   21.8180  -10.5251  -13.8790 C   0  0  0  0  0  0  0  0  0  0  0  0
   23.0253   -9.1882  -15.4946 C   0  0  0  0  0  0  0  0  0  0  0  0
   21.9568   -8.2633  -15.9233 C   0  0  2  0  0  0  0  0  0  0  0  0
   21.2997   -8.6591  -17.1529 N   0  0  0  0  0  0  0  0  0  0  0  0
   22.2729   -6.8196  -15.9019 C   0  0  0  0  0  0  0  0  0  0  0  0
   23.1000   -6.3100  -16.6868 O   0  0  0  0  0  0  0  0  0  0  0  0
   20.3728   -3.9612  -16.8370 C   0  0  0  0  0  0  0  0  0  0  0  0
   20.7273   -3.6925  -15.3961 C   0  0  1  0  0  0  0  0  0  0  0  0
   19.5678   -3.9784  -14.6607 O   0  0  0  0  0  0  0  0  0  0  0  0
   21.8822   -4.5062  -14.9186 C   0  0  2  0  0  0  0  0  0  0  0  0
   21.6412   -5.9287  -14.9637 N   0  0  0  0  0  0  0  0  0  0  0  0
   22.3041   -4.1068  -13.5307 C   0  0  0  0  0  0  0  0  0  0  0  0
   22.7015   -2.9409  -13.2457 O   0  0  0  0  0  0  0  0  0  0  0  0
   22.2890   -4.9848  -12.4619 O   0  0  0  0  0  0  0  0  0  0  0  0
  2  1  1  1
  3  2  1  0
  4  5  2  0
  4  2  1  0
  7  6  1  1
  7  9  1  0
  8  7  1  0
 10  9  1  6
 10 11  1  0
 10 12  1  0
 11  4  1  0
 12 18  1  0
 13 12  2  0
 15 16  1  0
 15 14  1  6
 17 15  1  0
 17 18  1  1
 19 21  1  0
 19 17  1  0
 20 19  2  0
M  END
$$$$
