ALT.pdb
     RDKit          3D

 21 20  0  0  1  0  0  0  0  0999 V2000
   16.9842  -10.1032  -18.6638 C   0  0  0  0  0  0  0  0  0  0  0  0
   18.2694  -10.5597  -18.0584 C   0  0  2  0  0  0  0  0  0  0  0  0
   18.0933  -11.9616  -17.6899 N   0  0  0  0  0  0  0  0  0  0  0  0
   18.7197   -9.7587  -16.9208 C   0  0  0  0  0  0  0  0  0  0  0  0
   17.8884   -9.4586  -16.0246 O   0  0  0  0  0  0  0  0  0  0  0  0
   22.9128   -9.2272  -12.7715 C   0  0  0  0  0  0  0  0  0  0  0  0
   22.0291   -8.4064  -13.6869 C   0  0  1  0  0  0  0  0  0  0  0  0
   22.9601   -7.2654  -14.1623 C   0  0  0  0  0  0  0  0  0  0  0  0
   21.6233   -9.1351  -14.9184 C   0  0  0  0  0  0  0  0  0  0  0  0
   20.5446   -8.5087  -15.7087 C   0  0  2  0  0  0  0  0  0  0  0  0
   20.0911   -9.3171  -16.8229 N   0  0  0  0  0  0  0  0  0  0  0  0
   20.7293   -7.0923  -16.0888 C   0  0  0  0  0  0  0  0  0  0  0  0
   21.5140   -6.7461  -16.9965 O   0  0  0  0  0  0  0  0  0  0  0  0
   18.2748   -4.7827  -17.5504 C   0  0  0  0  0  0  0  0  0  0  0  0
   18.7638   -4.1126  -16.2910 C   0  0  1  0  0  0  0  0  0  0  0  0
   17.7548   -4.3143  -15.3380 O   0  0  0  0  0  0  0  0  0  0  0  0
   20.0703   -4.6507  -15.8141 C   0  0  2  0  0  0  0  0  0  0  0  0
   20.0117   -6.0381  -15.4204 N   0  0  0  0  0  0  0  0  0  0  0  0
   20.6296   -3.8263  -14.6866 C   0  0  0  0  0  0  0  0  0  0  0  0
   20.9383   -2.6075  -14.8182 O   0  0  0  0  0  0  0  0  0  0  0  0
   20.8482   -4.3399  -13.4208 O   0  0  0  0  0  0  0  0  0  0  0  0
  2  1  1  1
  3  2  1  0
  4  5  2  0
  4  2  1  0
  7  6  1  1
  7  9  1  0
  8  7  1  0
 10  9  1  6
 10 11  1  0
 10 12  1  0
 11  4  1  0
 12 18  1  0
 13 12  2  0
 15 16  1  0
 15 14  1  6
 17 15  1  0
 17 18  1  1
 19 21  1  0
 19 17  1  0
 20 19  2  0
M  END
$$$$
