ALT.pdb
     RDKit          3D

 21 20  0  0  1  0  0  0  0  0999 V2000
   15.9956   -9.9694  -16.9725 C   0  0  0  0  0  0  0  0  0  0  0  0
   17.1804   -9.1566  -17.3749 C   0  0  2  0  0  0  0  0  0  0  0  0
   17.9330   -9.9494  -18.3430 N   0  0  0  0  0  0  0  0  0  0  0  0
   18.0253   -8.7272  -16.2611 C   0  0  0  0  0  0  0  0  0  0  0  0
   17.5183   -8.0137  -15.3566 O   0  0  0  0  0  0  0  0  0  0  0  0
   21.4934   -9.1922  -12.1588 C   0  0  0  0  0  0  0  0  0  0  0  0
   22.1237   -9.2469  -13.5344 C   0  0  1  0  0  0  0  0  0  0  0  0
   23.1725  -10.3779  -13.4079 C   0  0  0  0  0  0  0  0  0  0  0  0
   21.1794   -9.6897  -14.5948 C   0  0  0  0  0  0  0  0  0  0  0  0
   20.2755   -8.6489  -15.1244 C   0  0  2  0  0  0  0  0  0  0  0  0
   19.4157   -9.1113  -16.1957 N   0  0  0  0  0  0  0  0  0  0  0  0
   20.8741   -7.3307  -15.4220 C   0  0  0  0  0  0  0  0  0  0  0  0
   21.6563   -7.1586  -16.3803 O   0  0  0  0  0  0  0  0  0  0  0  0
   19.2867   -4.1422  -16.4204 C   0  0  0  0  0  0  0  0  0  0  0  0
   20.0614   -3.8435  -15.1615 C   0  0  1  0  0  0  0  0  0  0  0  0
   19.1090   -3.7919  -14.1334 O   0  0  0  0  0  0  0  0  0  0  0  0
   21.1138   -4.8590  -14.8701 C   0  0  2  0  0  0  0  0  0  0  0  0
   20.5853   -6.1769  -14.6107 N   0  0  0  0  0  0  0  0  0  0  0  0
   21.9941   -4.4312  -13.7273 C   0  0  0  0  0  0  0  0  0  0  0  0
   22.1209   -5.1122  -12.6698 O   0  0  0  0  0  0  0  0  0  0  0  0
   22.7310   -3.2607  -13.7476 O   0  0  0  0  0  0  0  0  0  0  0  0
  2  1  1  1
  3  2  1  0
  4  5  2  0
  4  2  1  0
  7  6  1  1
  7  9  1  0
  8  7  1  0
 10  9  1  6
 10 11  1  0
 10 12  1  0
 11  4  1  0
 12 18  1  0
 13 12  2  0
 15 16  1  0
 15 14  1  6
 17 15  1  0
 17 18  1  1
 19 21  1  0
 19 17  1  0
 20 19  2  0
M  END
$$$$
