ALT.pdb
     RDKit          3D

 21 20  0  0  1  0  0  0  0  0999 V2000
   14.8611  -11.9702  -12.6240 C   0  0  0  0  0  0  0  0  0  0  0  0
   14.4966  -11.4098  -11.2899 C   0  0  2  0  0  0  0  0  0  0  0  0
   13.1298  -11.8379  -11.0062 N   0  0  0  0  0  0  0  0  0  0  0  0
   14.6363   -9.9578  -11.1858 C   0  0  0  0  0  0  0  0  0  0  0  0
   13.8868   -9.2258  -11.8835 O   0  0  0  0  0  0  0  0  0  0  0  0
   14.6099   -6.5586   -6.8872 C   0  0  0  0  0  0  0  0  0  0  0  0
   14.5234   -7.1199   -8.2908 C   0  0  1  0  0  0  0  0  0  0  0  0
   13.8950   -5.9640   -9.1055 C   0  0  0  0  0  0  0  0  0  0  0  0
   15.8547   -7.3691   -8.9055 C   0  0  0  0  0  0  0  0  0  0  0  0
   15.8359   -7.9377  -10.2683 C   0  0  2  0  0  0  0  0  0  0  0  0
   15.6145   -9.3697  -10.3012 N   0  0  0  0  0  0  0  0  0  0  0  0
   16.9209   -7.5221  -11.1819 C   0  0  0  0  0  0  0  0  0  0  0  0
   18.1177   -7.8029  -10.9615 O   0  0  0  0  0  0  0  0  0  0  0  0
   17.8216   -8.4810  -14.6182 C   0  0  0  0  0  0  0  0  0  0  0  0
   17.5281   -7.0021  -14.6518 C   0  0  1  0  0  0  0  0  0  0  0  0
   16.2205   -6.8862  -15.1456 O   0  0  0  0  0  0  0  0  0  0  0  0
   17.6590   -6.3515  -13.3164 C   0  0  2  0  0  0  0  0  0  0  0  0
   16.6460   -6.7632  -12.3742 N   0  0  0  0  0  0  0  0  0  0  0  0
   17.6664   -4.8512  -13.4304 C   0  0  0  0  0  0  0  0  0  0  0  0
   16.7474   -4.1248  -12.9552 O   0  0  0  0  0  0  0  0  0  0  0  0
   18.6794   -4.1536  -14.0636 O   0  0  0  0  0  0  0  0  0  0  0  0
  2  1  1  6
  3  2  1  0
  4  5  2  0
  4  2  1  0
  7  6  1  1
  7  9  1  0
  8  7  1  0
 10  9  1  1
 10 11  1  0
 10 12  1  0
 11  4  1  0
 12 18  1  0
 13 12  2  0
 15 16  1  0
 15 14  1  1
 17 15  1  0
 17 18  1  1
 19 21  1  0
 19 17  1  0
 20 19  2  0
M  END
$$$$
