ALT.pdb
     RDKit          3D

 21 20  0  0  1  0  0  0  0  0999 V2000
   28.5045  -19.5877  -13.8222 C   0  0  0  0  0  0  0  0  0  0  0  0
   28.6789  -20.7086  -12.8529 C   0  0  2  0  0  0  0  0  0  0  0  0
   29.0728  -21.8834  -13.6254 N   0  0  0  0  0  0  0  0  0  0  0  0
   27.5041  -20.9802  -12.0253 C   0  0  0  0  0  0  0  0  0  0  0  0
   26.7582  -21.9468  -12.3314 O   0  0  0  0  0  0  0  0  0  0  0  0
   27.4651  -19.0967   -6.8556 C   0  0  0  0  0  0  0  0  0  0  0  0
   27.2770  -20.0239   -8.0378 C   0  0  1  0  0  0  0  0  0  0  0  0
   27.1330  -21.4195   -7.3846 C   0  0  0  0  0  0  0  0  0  0  0  0
   26.0043  -19.7887   -8.7707 C   0  0  0  0  0  0  0  0  0  0  0  0
   25.9546  -20.3064  -10.1528 C   0  0  2  0  0  0  0  0  0  0  0  0
   27.2005  -20.1576  -10.8780 N   0  0  0  0  0  0  0  0  0  0  0  0
   24.7859  -19.9195  -10.9708 C   0  0  0  0  0  0  0  0  0  0  0  0
   24.5591  -18.7318  -11.2835 O   0  0  0  0  0  0  0  0  0  0  0  0
   24.0483  -21.0750  -14.3924 C   0  0  0  0  0  0  0  0  0  0  0  0
   22.7830  -21.3330  -13.6134 C   0  0  1  0  0  0  0  0  0  0  0  0
   22.7389  -22.7200  -13.4105 O   0  0  0  0  0  0  0  0  0  0  0  0
   22.7366  -20.5974  -12.3170 C   0  0  2  0  0  0  0  0  0  0  0  0
   23.8447  -20.9012  -11.4433 N   0  0  0  0  0  0  0  0  0  0  0  0
   21.4393  -20.8343  -11.5927 C   0  0  0  0  0  0  0  0  0  0  0  0
   21.3853  -21.3330  -10.4322 O   0  0  0  0  0  0  0  0  0  0  0  0
   20.2080  -20.5242  -12.1417 O   0  0  0  0  0  0  0  0  0  0  0  0
  2  1  1  6
  3  2  1  0
  4  5  2  0
  4  2  1  0
  7  6  1  1
  7  9  1  0
  8  7  1  0
 10  9  1  1
 10 11  1  0
 10 12  1  0
 11  4  1  0
 12 18  1  0
 13 12  2  0
 15 16  1  0
 15 14  1  1
 17 15  1  0
 17 18  1  1
 19 21  1  0
 19 17  1  0
 20 19  2  0
M  END
$$$$
