ALT.pdb
     RDKit          3D

 21 20  0  0  1  0  0  0  0  0999 V2000
   26.4903  -21.8233  -16.9793 C   0  0  0  0  0  0  0  0  0  0  0  0
   26.4939  -22.8407  -15.8878 C   0  0  2  0  0  0  0  0  0  0  0  0
   26.1361  -24.1194  -16.4952 N   0  0  0  0  0  0  0  0  0  0  0  0
   25.6204  -22.5199  -14.7596 C   0  0  0  0  0  0  0  0  0  0  0  0
   24.4554  -22.9959  -14.7414 O   0  0  0  0  0  0  0  0  0  0  0  0
   24.1019  -21.4134   -9.6674 C   0  0  0  0  0  0  0  0  0  0  0  0
   24.9960  -20.3610  -10.2884 C   0  0  1  0  0  0  0  0  0  0  0  0
   25.9518  -19.9711   -9.1354 C   0  0  0  0  0  0  0  0  0  0  0  0
   25.8661  -20.8950  -11.3701 C   0  0  0  0  0  0  0  0  0  0  0  0
   25.1832  -21.2330  -12.6350 C   0  0  2  0  0  0  0  0  0  0  0  0
   26.0806  -21.6728  -13.6846 N   0  0  0  0  0  0  0  0  0  0  0  0
   24.1779  -20.2696  -13.1310 C   0  0  0  0  0  0  0  0  0  0  0  0
   24.4611  -19.0755  -13.3623 O   0  0  0  0  0  0  0  0  0  0  0  0
   22.6277  -19.6065  -16.1511 C   0  0  0  0  0  0  0  0  0  0  0  0
   21.4498  -19.8889  -15.2528 C   0  0  1  0  0  0  0  0  0  0  0  0
   21.0387  -21.1928  -15.5653 O   0  0  0  0  0  0  0  0  0  0  0  0
   21.7780  -19.7605  -13.8038 C   0  0  2  0  0  0  0  0  0  0  0  0
   22.8137  -20.6656  -13.3662 N   0  0  0  0  0  0  0  0  0  0  0  0
   20.5563  -19.9327  -12.9425 C   0  0  0  0  0  0  0  0  0  0  0  0
   20.4789  -20.8069  -12.0325 O   0  0  0  0  0  0  0  0  0  0  0  0
   19.4259  -19.1475  -13.0813 O   0  0  0  0  0  0  0  0  0  0  0  0
  2  1  1  6
  3  2  1  0
  4  5  2  0
  4  2  1  0
  7  6  1  1
  7  9  1  0
  8  7  1  0
 10  9  1  1
 10 11  1  0
 10 12  1  0
 11  4  1  0
 12 18  1  0
 13 12  2  0
 15 16  1  0
 15 14  1  6
 17 15  1  0
 17 18  1  1
 19 21  1  0
 19 17  1  0
 20 19  2  0
M  END
$$$$
