DFQ.pdb
     RDKit          3D

 29 29  0  0  1  0  0  0  0  0999 V2000
   28.3364  -22.5355  -16.9156 N   0  0  0  0  0  0  0  0  0  0  0  0
   27.6285  -21.3340  -16.5172 C   0  0  1  0  0  0  0  0  0  0  0  0
   26.8634  -20.8016  -17.6811 C   0  0  0  0  0  0  0  0  0  0  0  0
   27.7326  -19.8686  -18.4357 C   0  0  0  0  0  0  0  0  0  0  0  0
   29.0036  -19.8763  -18.3257 O   0  0  0  0  0  0  0  0  0  0  0  0
   26.7438  -21.6060  -15.3376 C   0  0  0  0  0  0  0  0  0  0  0  0
   26.2336  -22.7371  -15.1251 O   0  0  0  0  0  0  0  0  0  0  0  0
   27.1885  -18.9387  -19.3023 O   0  0  0  0  0  0  0  0  0  0  0  0
   26.4366  -20.5821  -14.3913 N   0  0  0  0  0  0  0  0  0  0  0  0
   25.6592  -20.8273  -13.2045 C   0  0  1  0  0  0  0  0  0  0  0  0
   26.1142  -19.9834  -12.0358 C   0  0  0  0  0  0  0  0  0  0  0  0
   27.2941  -20.5717  -11.3690 C   0  0  0  0  0  0  0  0  0  0  0  0
   27.1588  -21.0658  -10.0925 C   0  0  0  0  0  0  0  0  0  0  0  0
   28.2379  -21.6336   -9.4108 C   0  0  0  0  0  0  0  0  0  0  0  0
   29.4644  -21.7016  -10.0272 C   0  0  0  0  0  0  0  0  0  0  0  0
   29.6144  -21.2115  -11.3032 C   0  0  0  0  0  0  0  0  0  0  0  0
   28.5274  -20.6476  -11.9705 C   0  0  0  0  0  0  0  0  0  0  0  0
   24.2305  -20.6621  -13.5060 C   0  0  0  0  0  0  0  0  0  0  0  0
   23.8803  -19.5469  -14.0298 O   0  0  0  0  0  0  0  0  0  0  0  0
   19.5256  -24.8806  -13.9140 N   0  0  0  0  0  0  0  0  0  0  0  0
   18.8661  -23.6372  -14.0306 C   0  0  0  0  0  0  0  0  0  0  0  0
   17.6235  -23.6054  -14.1691 O   0  0  0  0  0  0  0  0  0  0  0  0
   19.6223  -22.3713  -13.9914 C   0  0  0  0  0  0  0  0  0  0  0  0
   21.0583  -22.6524  -13.6949 C   0  0  0  0  0  0  0  0  0  0  0  0
   21.8902  -21.3879  -13.6064 C   0  0  2  0  0  0  0  0  0  0  0  0
   23.2566  -21.6657  -13.2446 N   0  0  0  0  0  0  0  0  0  0  0  0
   21.2892  -20.5614  -12.5305 C   0  0  0  0  0  0  0  0  0  0  0  0
   20.4702  -19.6613  -12.8179 O   0  0  0  0  0  0  0  0  0  0  0  0
   21.6198  -20.7692  -11.2091 O   0  0  0  0  0  0  0  0  0  0  0  0
  2  1  1  6
  2  6  1  0
  2  3  1  0
  4  3  1  0
  4  8  1  0
  5  4  2  0
  6  7  2  0
  9 10  1  0
  9  6  1  0
 11 12  1  0
 10 11  1  1
 12 17  2  0
 13 14  2  0
 13 12  1  0
 14 15  1  0
 15 16  2  0
 17 16  1  0
 18 10  1  0
 19 18  2  0
 20 21  1  0
 21 22  2  0
 23 21  1  0
 23 24  1  0
 25 24  1  1
 25 26  1  0
 25 27  1  0
 26 18  1  0
 27 29  1  0
 28 27  2  0
M  END
$$$$
