DFQ.pdb
     RDKit          3D

 29 29  0  0  1  0  0  0  0  0999 V2000
   24.7129  -19.9592  -16.1630 N   0  0  0  0  0  0  0  0  0  0  0  0
   25.0723  -21.3048  -15.7587 C   0  0  1  0  0  0  0  0  0  0  0  0
   26.5568  -21.4458  -15.7729 C   0  0  0  0  0  0  0  0  0  0  0  0
   27.0601  -21.0476  -17.1083 C   0  0  0  0  0  0  0  0  0  0  0  0
   27.9527  -20.1494  -17.2638 O   0  0  0  0  0  0  0  0  0  0  0  0
   24.4879  -21.6295  -14.4167 C   0  0  0  0  0  0  0  0  0  0  0  0
   24.6787  -22.7370  -13.8492 O   0  0  0  0  0  0  0  0  0  0  0  0
   26.5724  -21.6456  -18.2556 O   0  0  0  0  0  0  0  0  0  0  0  0
   23.6789  -20.6861  -13.7139 N   0  0  0  0  0  0  0  0  0  0  0  0
   23.1051  -20.9626  -12.4227 C   0  0  1  0  0  0  0  0  0  0  0  0
   23.1491  -19.7615  -11.5061 C   0  0  0  0  0  0  0  0  0  0  0  0
   22.7028  -20.1050  -10.1402 C   0  0  0  0  0  0  0  0  0  0  0  0
   21.4106  -19.8132   -9.7699 C   0  0  0  0  0  0  0  0  0  0  0  0
   20.9311  -20.1141   -8.4926 C   0  0  0  0  0  0  0  0  0  0  0  0
   21.7674  -20.7155   -7.5828 C   0  0  0  0  0  0  0  0  0  0  0  0
   23.0618  -21.0129   -7.9392 C   0  0  0  0  0  0  0  0  0  0  0  0
   23.5255  -20.7063   -9.2182 C   0  0  0  0  0  0  0  0  0  0  0  0
   21.7493  -21.5041  -12.5895 C   0  0  0  0  0  0  0  0  0  0  0  0
   21.0652  -21.0451  -13.5702 O   0  0  0  0  0  0  0  0  0  0  0  0
   18.5965  -26.0455   -9.4308 N   0  0  0  0  0  0  0  0  0  0  0  0
   17.6457  -25.5387  -10.3441 C   0  0  0  0  0  0  0  0  0  0  0  0
   16.5056  -26.0499  -10.3992 O   0  0  0  0  0  0  0  0  0  0  0  0
   17.9774  -24.4123  -11.2368 C   0  0  0  0  0  0  0  0  0  0  0  0
   19.3892  -23.9856  -11.0046 C   0  0  0  0  0  0  0  0  0  0  0  0
   19.8481  -22.9354  -11.9974 C   0  0  2  0  0  0  0  0  0  0  0  0
   21.1904  -22.4882  -11.7272 N   0  0  0  0  0  0  0  0  0  0  0  0
   18.9365  -21.7756  -11.8368 C   0  0  0  0  0  0  0  0  0  0  0  0
   17.9185  -21.6769  -12.5559 O   0  0  0  0  0  0  0  0  0  0  0  0
   19.1935  -20.7968  -10.9016 O   0  0  0  0  0  0  0  0  0  0  0  0
  2  1  1  1
  2  6  1  0
  2  3  1  0
  4  3  1  0
  4  8  1  0
  5  4  2  0
  6  7  2  0
  9 10  1  0
  9  6  1  0
 11 12  1  0
 10 11  1  1
 12 17  2  0
 13 14  2  0
 13 12  1  0
 14 15  1  0
 15 16  2  0
 17 16  1  0
 18 10  1  0
 19 18  2  0
 20 21  1  0
 21 22  2  0
 23 21  1  0
 23 24  1  0
 25 24  1  1
 25 26  1  0
 25 27  1  0
 26 18  1  0
 27 29  1  0
 28 27  2  0
M  END
$$$$
