DFQ.pdb
     RDKit          3D

 29 29  0  0  1  0  0  0  0  0999 V2000
   44.5934  -10.6667   -5.6339 N   0  0  0  0  0  0  0  0  0  0  0  0
   44.5247  -10.4742   -7.0698 C   0  0  1  0  0  0  0  0  0  0  0  0
   44.7818  -11.7729   -7.7559 C   0  0  0  0  0  0  0  0  0  0  0  0
   46.1589  -12.2162   -7.4358 C   0  0  0  0  0  0  0  0  0  0  0  0
   47.1183  -11.3947   -7.2565 O   0  0  0  0  0  0  0  0  0  0  0  0
   43.2055   -9.8801   -7.4630 C   0  0  0  0  0  0  0  0  0  0  0  0
   42.8799   -9.6996   -8.6657 O   0  0  0  0  0  0  0  0  0  0  0  0
   46.4601  -13.5604   -7.3176 O   0  0  0  0  0  0  0  0  0  0  0  0
   42.2479   -9.4878   -6.4794 N   0  0  0  0  0  0  0  0  0  0  0  0
   40.9608   -8.9407   -6.8213 C   0  0  1  0  0  0  0  0  0  0  0  0
   39.9207   -9.2134   -5.7589 C   0  0  0  0  0  0  0  0  0  0  0  0
   38.6024   -8.6637   -6.1368 C   0  0  0  0  0  0  0  0  0  0  0  0
   37.6518   -9.5124   -6.6545 C   0  0  0  0  0  0  0  0  0  0  0  0
   36.3876   -9.0514   -7.0299 C   0  0  0  0  0  0  0  0  0  0  0  0
   36.0836   -7.7195   -6.8796 C   0  0  0  0  0  0  0  0  0  0  0  0
   37.0241   -6.8594   -6.3634 C   0  0  0  0  0  0  0  0  0  0  0  0
   38.2818   -7.3351   -5.9933 C   0  0  0  0  0  0  0  0  0  0  0  0
   41.0977   -7.5112   -7.1327 C   0  0  0  0  0  0  0  0  0  0  0  0
   41.7546   -6.8018   -6.2926 O   0  0  0  0  0  0  0  0  0  0  0  0
   42.3417   -4.5766  -12.2103 N   0  0  0  0  0  0  0  0  0  0  0  0
   43.1759   -5.2189  -11.2689 C   0  0  0  0  0  0  0  0  0  0  0  0
   44.3499   -5.5156  -11.5819 O   0  0  0  0  0  0  0  0  0  0  0  0
   42.6828   -5.5463   -9.9178 C   0  0  0  0  0  0  0  0  0  0  0  0
   41.2672   -5.0933   -9.7758 C   0  0  0  0  0  0  0  0  0  0  0  0
   40.6658   -5.4812   -8.4391 C   0  0  2  0  0  0  0  0  0  0  0  0
   40.5438   -6.9094   -8.2969 N   0  0  0  0  0  0  0  0  0  0  0  0
   39.3017   -4.8980   -8.4047 C   0  0  0  0  0  0  0  0  0  0  0  0
   39.0868   -3.8493   -7.7588 O   0  0  0  0  0  0  0  0  0  0  0  0
   38.2584   -5.4962   -9.0772 O   0  0  0  0  0  0  0  0  0  0  0  0
  2  1  1  1
  2  6  1  0
  2  3  1  0
  4  3  1  0
  4  8  1  0
  5  4  2  0
  6  7  2  0
  9 10  1  0
  9  6  1  0
 11 12  1  0
 10 11  1  1
 12 17  2  0
 13 14  2  0
 13 12  1  0
 14 15  1  0
 15 16  2  0
 17 16  1  0
 18 10  1  0
 19 18  2  0
 20 21  1  0
 21 22  2  0
 23 21  1  0
 23 24  1  0
 25 24  1  6
 25 26  1  0
 25 27  1  0
 26 18  1  0
 27 29  1  0
 28 27  2  0
M  END
$$$$
