DFQ.pdb
     RDKit          3D

 29 29  0  0  1  0  0  0  0  0999 V2000
   28.9268  -20.1319  -13.3865 N   0  0  0  0  0  0  0  0  0  0  0  0
   27.6832  -20.8503  -13.1842 C   0  0  1  0  0  0  0  0  0  0  0  0
   27.6564  -22.0513  -14.0676 C   0  0  0  0  0  0  0  0  0  0  0  0
   28.1973  -21.6780  -15.3954 C   0  0  0  0  0  0  0  0  0  0  0  0
   29.2050  -22.2641  -15.9137 O   0  0  0  0  0  0  0  0  0  0  0  0
   27.5066  -21.2089  -11.7392 C   0  0  0  0  0  0  0  0  0  0  0  0
   26.6259  -22.0196  -11.3494 O   0  0  0  0  0  0  0  0  0  0  0  0
   27.6196  -20.6626  -16.1350 O   0  0  0  0  0  0  0  0  0  0  0  0
   28.3392  -20.6402  -10.7285 N   0  0  0  0  0  0  0  0  0  0  0  0
   28.0294  -20.7274   -9.3251 C   0  0  1  0  0  0  0  0  0  0  0  0
   29.0877  -20.0792   -8.4623 C   0  0  0  0  0  0  0  0  0  0  0  0
   28.6872  -20.0531   -7.0404 C   0  0  0  0  0  0  0  0  0  0  0  0
   28.0035  -18.9595   -6.5623 C   0  0  0  0  0  0  0  0  0  0  0  0
   27.5984  -18.8774   -5.2278 C   0  0  0  0  0  0  0  0  0  0  0  0
   27.8882  -19.9116   -4.3704 C   0  0  0  0  0  0  0  0  0  0  0  0
   28.5711  -21.0112   -4.8345 C   0  0  0  0  0  0  0  0  0  0  0  0
   28.9688  -21.0782   -6.1696 C   0  0  0  0  0  0  0  0  0  0  0  0
   26.6845  -20.1880   -9.0809 C   0  0  0  0  0  0  0  0  0  0  0  0
   26.4423  -19.0195   -9.5461 O   0  0  0  0  0  0  0  0  0  0  0  0
   22.9702  -21.2113  -12.5175 N   0  0  0  0  0  0  0  0  0  0  0  0
   22.0776  -20.5583  -11.6391 C   0  0  0  0  0  0  0  0  0  0  0  0
   20.9552  -20.1943  -12.0539 O   0  0  0  0  0  0  0  0  0  0  0  0
   22.4494  -20.2979  -10.2357 C   0  0  0  0  0  0  0  0  0  0  0  0
   23.8313  -20.8018   -9.9799 C   0  0  0  0  0  0  0  0  0  0  0  0
   24.3063  -20.5019   -8.5715 C   0  0  2  0  0  0  0  0  0  0  0  0
   25.6767  -20.8967   -8.3692 N   0  0  0  0  0  0  0  0  0  0  0  0
   23.4569  -21.3069   -7.6591 C   0  0  0  0  0  0  0  0  0  0  0  0
   23.9542  -22.2607   -7.0218 O   0  0  0  0  0  0  0  0  0  0  0  0
   22.1186  -21.0201   -7.4998 O   0  0  0  0  0  0  0  0  0  0  0  0
  2  1  1  1
  2  6  1  0
  2  3  1  0
  4  3  1  0
  4  8  1  0
  5  4  2  0
  6  7  2  0
  9 10  1  0
  9  6  1  0
 11 12  1  0
 10 11  1  1
 12 17  2  0
 13 14  2  0
 13 12  1  0
 14 15  1  0
 15 16  2  0
 17 16  1  0
 18 10  1  0
 19 18  2  0
 20 21  1  0
 21 22  2  0
 23 21  1  0
 23 24  1  0
 25 24  1  6
 25 26  1  0
 25 27  1  0
 26 18  1  0
 27 29  1  0
 28 27  2  0
M  END
$$$$
