DFQ.pdb
     RDKit          3D

 29 29  0  0  1  0  0  0  0  0999 V2000
   28.2016  -22.6816  -16.7046 N   0  0  0  0  0  0  0  0  0  0  0  0
   27.6001  -21.4280  -16.2921 C   0  0  1  0  0  0  0  0  0  0  0  0
   26.7856  -20.8775  -17.4133 C   0  0  0  0  0  0  0  0  0  0  0  0
   27.6980  -20.4511  -18.5001 C   0  0  0  0  0  0  0  0  0  0  0  0
   27.4340  -20.6483  -19.7326 O   0  0  0  0  0  0  0  0  0  0  0  0
   26.7897  -21.6135  -15.0445 C   0  0  0  0  0  0  0  0  0  0  0  0
   26.0426  -22.6115  -14.8689 O   0  0  0  0  0  0  0  0  0  0  0  0
   28.8903  -19.8125  -18.2134 O   0  0  0  0  0  0  0  0  0  0  0  0
   26.8293  -20.6551  -13.9869 N   0  0  0  0  0  0  0  0  0  0  0  0
   26.0712  -20.8052  -12.7721 C   0  0  1  0  0  0  0  0  0  0  0  0
   26.6233  -19.9646  -11.6436 C   0  0  0  0  0  0  0  0  0  0  0  0
   27.8665  -20.5435  -11.0941 C   0  0  0  0  0  0  0  0  0  0  0  0
   28.9761  -20.6249  -11.9029 C   0  0  0  0  0  0  0  0  0  0  0  0
   30.1797  -21.1622  -11.4399 C   0  0  0  0  0  0  0  0  0  0  0  0
   30.2601  -21.6209  -10.1469 C   0  0  0  0  0  0  0  0  0  0  0  0
   29.1588  -21.5459   -9.3270 C   0  0  0  0  0  0  0  0  0  0  0  0
   27.9643  -21.0068   -9.8040 C   0  0  0  0  0  0  0  0  0  0  0  0
   24.6508  -20.5402  -13.0394 C   0  0  0  0  0  0  0  0  0  0  0  0
   24.3900  -19.6504  -13.9230 O   0  0  0  0  0  0  0  0  0  0  0  0
   20.7220  -24.4539  -14.8091 N   0  0  0  0  0  0  0  0  0  0  0  0
   19.8543  -23.3485  -14.6687 C   0  0  0  0  0  0  0  0  0  0  0  0
   18.6930  -23.4099  -15.1290 O   0  0  0  0  0  0  0  0  0  0  0  0
   20.2975  -22.1187  -13.9854 C   0  0  0  0  0  0  0  0  0  0  0  0
   21.6978  -22.2916  -13.4971 C   0  0  0  0  0  0  0  0  0  0  0  0
   22.2534  -21.0277  -12.8704 C   0  0  2  0  0  0  0  0  0  0  0  0
   23.5917  -21.2164  -12.3721 N   0  0  0  0  0  0  0  0  0  0  0  0
   21.3753  -20.7065  -11.7181 C   0  0  0  0  0  0  0  0  0  0  0  0
   21.4641  -21.3688  -10.6613 O   0  0  0  0  0  0  0  0  0  0  0  0
   20.4558  -19.6829  -11.7919 O   0  0  0  0  0  0  0  0  0  0  0  0
  2  1  1  6
  2  6  1  0
  2  3  1  0
  4  3  1  0
  4  8  1  0
  5  4  2  0
  6  7  2  0
  9 10  1  0
  9  6  1  0
 11 12  1  0
 10 11  1  1
 12 17  2  0
 13 14  2  0
 13 12  1  0
 14 15  1  0
 15 16  2  0
 17 16  1  0
 18 10  1  0
 19 18  2  0
 20 21  1  0
 21 22  2  0
 23 21  1  0
 23 24  1  0
 25 24  1  1
 25 26  1  0
 25 27  1  0
 26 18  1  0
 27 29  1  0
 28 27  2  0
M  END
$$$$
