DFQ.pdb
     RDKit          3D

 29 29  0  0  1  0  0  0  0  0999 V2000
   22.7205   -8.6546  -19.5607 N   0  0  0  0  0  0  0  0  0  0  0  0
   21.4975   -9.0585  -18.8941 C   0  0  1  0  0  0  0  0  0  0  0  0
   21.6109  -10.4847  -18.4738 C   0  0  0  0  0  0  0  0  0  0  0  0
   21.5098  -11.3449  -19.6758 C   0  0  0  0  0  0  0  0  0  0  0  0
   20.9202  -10.9656  -20.7417 O   0  0  0  0  0  0  0  0  0  0  0  0
   21.1990   -8.1519  -17.7379 C   0  0  0  0  0  0  0  0  0  0  0  0
   20.1802   -8.2982  -17.0129 O   0  0  0  0  0  0  0  0  0  0  0  0
   22.0606  -12.6131  -19.6869 O   0  0  0  0  0  0  0  0  0  0  0  0
   22.0671   -7.0689  -17.4034 N   0  0  0  0  0  0  0  0  0  0  0  0
   21.8482   -6.2205  -16.2609 C   0  0  1  0  0  0  0  0  0  0  0  0
   23.0123   -6.2444  -15.2969 C   0  0  0  0  0  0  0  0  0  0  0  0
   23.2192   -7.5928  -14.7297 C   0  0  0  0  0  0  0  0  0  0  0  0
   24.2489   -8.3664  -15.2128 C   0  0  0  0  0  0  0  0  0  0  0  0
   24.4941   -9.6489  -14.7161 C   0  0  0  0  0  0  0  0  0  0  0  0
   23.6896  -10.1522  -13.7219 C   0  0  0  0  0  0  0  0  0  0  0  0
   22.6565   -9.3900  -13.2294 C   0  0  0  0  0  0  0  0  0  0  0  0
   22.4245   -8.1114  -13.7357 C   0  0  0  0  0  0  0  0  0  0  0  0
   21.5067   -4.8638  -16.7102 C   0  0  0  0  0  0  0  0  0  0  0  0
   22.1990   -4.3889  -17.6775 O   0  0  0  0  0  0  0  0  0  0  0  0
   18.3909   -2.4263  -20.4580 N   0  0  0  0  0  0  0  0  0  0  0  0
   17.7680   -3.3043  -19.5437 C   0  0  0  0  0  0  0  0  0  0  0  0
   16.6734   -3.8323  -19.8392 O   0  0  0  0  0  0  0  0  0  0  0  0
   18.3902   -3.6093  -18.2415 C   0  0  0  0  0  0  0  0  0  0  0  0
   19.7038   -2.9078  -18.1353 C   0  0  0  0  0  0  0  0  0  0  0  0
   20.1874   -2.7966  -16.7026 C   0  0  2  0  0  0  0  0  0  0  0  0
   20.4676   -4.0868  -16.1265 N   0  0  0  0  0  0  0  0  0  0  0  0
   19.0810   -2.1791  -15.9302 C   0  0  0  0  0  0  0  0  0  0  0  0
   18.8240   -0.9635  -16.0700 O   0  0  0  0  0  0  0  0  0  0  0  0
   18.3251   -2.9272  -15.0541 O   0  0  0  0  0  0  0  0  0  0  0  0
  2  1  1  1
  2  6  1  0
  2  3  1  0
  4  3  1  0
  4  8  1  0
  5  4  2  0
  6  7  2  0
  9 10  1  0
  9  6  1  0
 11 12  1  0
 10 11  1  1
 12 17  2  0
 13 14  2  0
 13 12  1  0
 14 15  1  0
 15 16  2  0
 17 16  1  0
 18 10  1  0
 19 18  2  0
 20 21  1  0
 21 22  2  0
 23 21  1  0
 23 24  1  0
 25 24  1  6
 25 26  1  0
 25 27  1  0
 26 18  1  0
 27 29  1  0
 28 27  2  0
M  END
$$$$
