DFQ.pdb
     RDKit          3D

 29 29  0  0  1  0  0  0  0  0999 V2000
   27.6066  -19.6874  -19.3381 N   0  0  0  0  0  0  0  0  0  0  0  0
   27.0559  -18.8292  -18.3068 C   0  0  1  0  0  0  0  0  0  0  0  0
   25.8495  -18.1308  -18.8365 C   0  0  0  0  0  0  0  0  0  0  0  0
   26.2724  -16.8531  -19.4558 C   0  0  0  0  0  0  0  0  0  0  0  0
   27.3163  -16.2228  -19.0807 O   0  0  0  0  0  0  0  0  0  0  0  0
   26.7530  -19.6164  -17.0672 C   0  0  0  0  0  0  0  0  0  0  0  0
   26.5739  -20.8624  -17.0877 O   0  0  0  0  0  0  0  0  0  0  0  0
   25.5382  -16.2866  -20.4813 O   0  0  0  0  0  0  0  0  0  0  0  0
   26.6530  -18.9806  -15.7928 N   0  0  0  0  0  0  0  0  0  0  0  0
   26.3509  -19.7029  -14.5845 C   0  0  1  0  0  0  0  0  0  0  0  0
   26.9842  -19.0725  -13.3654 C   0  0  0  0  0  0  0  0  0  0  0  0
   26.6794  -19.8377  -12.1389 C   0  0  0  0  0  0  0  0  0  0  0  0
   25.6464  -19.4185  -11.3333 C   0  0  0  0  0  0  0  0  0  0  0  0
   25.3109  -20.1008  -10.1612 C   0  0  0  0  0  0  0  0  0  0  0  0
   26.0277  -21.2171   -9.8022 C   0  0  0  0  0  0  0  0  0  0  0  0
   27.0631  -21.6477  -10.5980 C   0  0  0  0  0  0  0  0  0  0  0  0
   27.3857  -20.9557  -11.7650 C   0  0  0  0  0  0  0  0  0  0  0  0
   24.8960  -19.8624  -14.4541 C   0  0  0  0  0  0  0  0  0  0  0  0
   24.1803  -18.8342  -14.7210 O   0  0  0  0  0  0  0  0  0  0  0  0
   21.1840  -23.9934  -16.0202 N   0  0  0  0  0  0  0  0  0  0  0  0
   20.3026  -23.4021  -15.0884 C   0  0  0  0  0  0  0  0  0  0  0  0
   19.0689  -23.5668  -15.2116 O   0  0  0  0  0  0  0  0  0  0  0  0
   20.8158  -22.5908  -13.9686 C   0  0  0  0  0  0  0  0  0  0  0  0
   22.3067  -22.5379  -14.0279 C   0  0  0  0  0  0  0  0  0  0  0  0
   22.8378  -21.1179  -14.0051 C   0  0  2  0  0  0  0  0  0  0  0  0
   24.2769  -21.0797  -14.0551 N   0  0  0  0  0  0  0  0  0  0  0  0
   22.4073  -20.5268  -12.7139 C   0  0  0  0  0  0  0  0  0  0  0  0
   21.5503  -19.6165  -12.6984 O   0  0  0  0  0  0  0  0  0  0  0  0
   22.9392  -20.9664  -11.5211 O   0  0  0  0  0  0  0  0  0  0  0  0
  2  1  1  6
  2  6  1  0
  2  3  1  0
  4  3  1  0
  4  8  1  0
  5  4  2  0
  6  7  2  0
  9 10  1  0
  9  6  1  0
 11 12  1  0
 10 11  1  1
 12 17  2  0
 13 14  2  0
 13 12  1  0
 14 15  1  0
 15 16  2  0
 17 16  1  0
 18 10  1  0
 19 18  2  0
 20 21  1  0
 21 22  2  0
 23 21  1  0
 23 24  1  0
 25 24  1  1
 25 26  1  0
 25 27  1  0
 26 18  1  0
 27 29  1  0
 28 27  2  0
M  END
$$$$
