DFQ.pdb
     RDKit          3D

 29 29  0  0  1  0  0  0  0  0999 V2000
   25.5766  -24.8050  -14.9067 N   0  0  0  0  0  0  0  0  0  0  0  0
   24.9059  -23.8104  -15.7218 C   0  0  1  0  0  0  0  0  0  0  0  0
   24.1752  -24.4899  -16.8299 C   0  0  0  0  0  0  0  0  0  0  0  0
   25.1643  -25.1026  -17.7473 C   0  0  0  0  0  0  0  0  0  0  0  0
   26.0020  -24.4084  -18.4136 O   0  0  0  0  0  0  0  0  0  0  0  0
   23.9970  -22.9626  -14.8834 C   0  0  0  0  0  0  0  0  0  0  0  0
   22.9127  -23.3979  -14.4144 O   0  0  0  0  0  0  0  0  0  0  0  0
   25.2168  -26.4736  -17.9181 O   0  0  0  0  0  0  0  0  0  0  0  0
   24.3241  -21.6074  -14.5758 N   0  0  0  0  0  0  0  0  0  0  0  0
   23.4307  -20.7347  -13.8593 C   0  0  1  0  0  0  0  0  0  0  0  0
   24.1697  -19.6700  -13.0814 C   0  0  0  0  0  0  0  0  0  0  0  0
   24.6875  -20.1949  -11.8011 C   0  0  0  0  0  0  0  0  0  0  0  0
   23.8740  -20.1643  -10.6924 C   0  0  0  0  0  0  0  0  0  0  0  0
   24.3076  -20.6460   -9.4548 C   0  0  0  0  0  0  0  0  0  0  0  0
   25.5757  -21.1630   -9.3392 C   0  0  0  0  0  0  0  0  0  0  0  0
   26.4000  -21.1999  -10.4392 C   0  0  0  0  0  0  0  0  0  0  0  0
   25.9525  -20.7151  -11.6679 C   0  0  0  0  0  0  0  0  0  0  0  0
   22.4349  -20.1776  -14.7853 C   0  0  0  0  0  0  0  0  0  0  0  0
   22.8725  -19.7593  -15.9141 O   0  0  0  0  0  0  0  0  0  0  0  0
   16.8777  -21.5434  -17.7265 N   0  0  0  0  0  0  0  0  0  0  0  0
   18.2583  -21.8352  -17.7857 C   0  0  0  0  0  0  0  0  0  0  0  0
   18.6371  -23.0237  -17.8764 O   0  0  0  0  0  0  0  0  0  0  0  0
   19.2637  -20.7568  -17.7422 C   0  0  0  0  0  0  0  0  0  0  0  0
   20.1950  -20.9836  -16.5975 C   0  0  0  0  0  0  0  0  0  0  0  0
   20.1318  -19.8708  -15.5695 C   0  0  2  0  0  0  0  0  0  0  0  0
   21.0480  -20.0906  -14.4800 N   0  0  0  0  0  0  0  0  0  0  0  0
   18.7535  -19.8815  -15.0198 C   0  0  0  0  0  0  0  0  0  0  0  0
   17.8660  -19.1743  -15.5447 O   0  0  0  0  0  0  0  0  0  0  0  0
   18.4308  -20.6634  -13.9320 O   0  0  0  0  0  0  0  0  0  0  0  0
  2  1  1  1
  2  6  1  0
  2  3  1  0
  4  3  1  0
  4  8  1  0
  5  4  2  0
  6  7  2  0
  9 10  1  0
  9  6  1  0
 11 12  1  0
 10 11  1  6
 12 17  2  0
 13 14  2  0
 13 12  1  0
 14 15  1  0
 15 16  2  0
 17 16  1  0
 18 10  1  0
 19 18  2  0
 20 21  1  0
 21 22  2  0
 23 21  1  0
 23 24  1  0
 25 24  1  6
 25 26  1  0
 25 27  1  0
 26 18  1  0
 27 29  1  0
 28 27  2  0
M  END
$$$$
