DFQ.pdb
     RDKit          3D

 29 29  0  0  1  0  0  0  0  0999 V2000
   23.7409  -11.2513  -19.3951 N   0  0  0  0  0  0  0  0  0  0  0  0
   23.1636   -9.9275  -19.5280 C   0  0  1  0  0  0  0  0  0  0  0  0
   21.9745   -9.9941  -20.4253 C   0  0  0  0  0  0  0  0  0  0  0  0
   22.4364  -10.2480  -21.8100 C   0  0  0  0  0  0  0  0  0  0  0  0
   23.4917   -9.7140  -22.2885 O   0  0  0  0  0  0  0  0  0  0  0  0
   22.8239   -9.3593  -18.1828 C   0  0  0  0  0  0  0  0  0  0  0  0
   22.2983  -10.0520  -17.2724 O   0  0  0  0  0  0  0  0  0  0  0  0
   21.7282  -11.0878  -22.6495 O   0  0  0  0  0  0  0  0  0  0  0  0
   23.0842   -7.9907  -17.8703 N   0  0  0  0  0  0  0  0  0  0  0  0
   22.7463   -7.4050  -16.5992 C   0  0  1  0  0  0  0  0  0  0  0  0
   23.9659   -6.9259  -15.8457 C   0  0  0  0  0  0  0  0  0  0  0  0
   24.8950   -8.0372  -15.5549 C   0  0  0  0  0  0  0  0  0  0  0  0
   24.5853   -8.9149  -14.5422 C   0  0  0  0  0  0  0  0  0  0  0  0
   25.4242   -9.9848  -14.2207 C   0  0  0  0  0  0  0  0  0  0  0  0
   26.5866  -10.1671  -14.9309 C   0  0  0  0  0  0  0  0  0  0  0  0
   26.9091   -9.2974  -15.9461 C   0  0  0  0  0  0  0  0  0  0  0  0
   26.0611   -8.2342  -16.2549 C   0  0  0  0  0  0  0  0  0  0  0  0
   21.7430   -6.3489  -16.7921 C   0  0  0  0  0  0  0  0  0  0  0  0
   22.0232   -5.4422  -17.6524 O   0  0  0  0  0  0  0  0  0  0  0  0
   15.5664   -6.6069  -16.3149 N   0  0  0  0  0  0  0  0  0  0  0  0
   15.7828   -5.2329  -16.5601 C   0  0  0  0  0  0  0  0  0  0  0  0
   14.8048   -4.4736  -16.7373 O   0  0  0  0  0  0  0  0  0  0  0  0
   17.1483   -4.6776  -16.6107 C   0  0  0  0  0  0  0  0  0  0  0  0
   18.1444   -5.7752  -16.4313 C   0  0  0  0  0  0  0  0  0  0  0  0
   19.5728   -5.2668  -16.4270 C   0  0  2  0  0  0  0  0  0  0  0  0
   20.5124   -6.3018  -16.0795 N   0  0  0  0  0  0  0  0  0  0  0  0
   19.6430   -4.2136  -15.3840 C   0  0  0  0  0  0  0  0  0  0  0  0
   19.7516   -4.5331  -14.1801 O   0  0  0  0  0  0  0  0  0  0  0  0
   19.5901   -2.8785  -15.7206 O   0  0  0  0  0  0  0  0  0  0  0  0
  2  1  1  1
  2  6  1  0
  2  3  1  0
  4  3  1  0
  4  8  1  0
  5  4  2  0
  6  7  2  0
  9 10  1  0
  9  6  1  0
 11 12  1  0
 10 11  1  6
 12 17  2  0
 13 14  2  0
 13 12  1  0
 14 15  1  0
 15 16  2  0
 17 16  1  0
 18 10  1  0
 19 18  2  0
 20 21  1  0
 21 22  2  0
 23 21  1  0
 23 24  1  0
 25 24  1  1
 25 26  1  0
 25 27  1  0
 26 18  1  0
 27 29  1  0
 28 27  2  0
M  END
$$$$
