DFQ.pdb
     RDKit          3D

 29 29  0  0  1  0  0  0  0  0999 V2000
   23.2930  -14.4293  -18.0685 N   0  0  0  0  0  0  0  0  0  0  0  0
   23.6782  -13.8019  -19.3181 C   0  0  1  0  0  0  0  0  0  0  0  0
   22.4923  -13.7238  -20.2187 C   0  0  0  0  0  0  0  0  0  0  0  0
   22.0159  -15.0984  -20.4991 C   0  0  0  0  0  0  0  0  0  0  0  0
   22.6725  -16.1351  -20.1504 O   0  0  0  0  0  0  0  0  0  0  0  0
   24.2874  -12.4546  -19.0696 C   0  0  0  0  0  0  0  0  0  0  0  0
   23.7080  -11.5690  -18.3877 O   0  0  0  0  0  0  0  0  0  0  0  0
   20.8208  -15.3120  -21.1607 O   0  0  0  0  0  0  0  0  0  0  0  0
   25.5670  -12.1115  -19.6017 N   0  0  0  0  0  0  0  0  0  0  0  0
   26.1868  -10.8321  -19.3739 C   0  0  1  0  0  0  0  0  0  0  0  0
   27.6661  -10.9537  -19.0880 C   0  0  0  0  0  0  0  0  0  0  0  0
   27.9151  -11.6092  -17.7876 C   0  0  0  0  0  0  0  0  0  0  0  0
   28.6192  -10.9266  -16.8231 C   0  0  0  0  0  0  0  0  0  0  0  0
   28.8858  -11.4939  -15.5745 C   0  0  0  0  0  0  0  0  0  0  0  0
   28.4354  -12.7632  -15.3006 C   0  0  0  0  0  0  0  0  0  0  0  0
   27.7302  -13.4574  -16.2554 C   0  0  0  0  0  0  0  0  0  0  0  0
   27.4722  -12.8772  -17.4971 C   0  0  0  0  0  0  0  0  0  0  0  0
   25.8947   -9.9335  -20.4992 C   0  0  0  0  0  0  0  0  0  0  0  0
   25.8633  -10.4651  -21.6642 O   0  0  0  0  0  0  0  0  0  0  0  0
   21.3260   -9.2111  -22.6838 N   0  0  0  0  0  0  0  0  0  0  0  0
   21.8905   -8.1469  -23.4210 C   0  0  0  0  0  0  0  0  0  0  0  0
   21.2672   -7.6676  -24.3937 O   0  0  0  0  0  0  0  0  0  0  0  0
   23.2079   -7.5898  -23.0606 C   0  0  0  0  0  0  0  0  0  0  0  0
   23.7545   -8.3171  -21.8768 C   0  0  0  0  0  0  0  0  0  0  0  0
   25.1279   -7.8174  -21.4728 C   0  0  2  0  0  0  0  0  0  0  0  0
   25.6537   -8.5400  -20.3431 N   0  0  0  0  0  0  0  0  0  0  0  0
   24.9600   -6.3983  -21.0727 C   0  0  0  0  0  0  0  0  0  0  0  0
   24.8950   -5.5064  -21.9464 O   0  0  0  0  0  0  0  0  0  0  0  0
   24.8738   -6.0424  -19.7443 O   0  0  0  0  0  0  0  0  0  0  0  0
  2  1  1  1
  2  6  1  0
  2  3  1  0
  4  3  1  0
  4  8  1  0
  5  4  2  0
  6  7  2  0
  9 10  1  0
  9  6  1  0
 11 12  1  0
 10 11  1  6
 12 17  2  0
 13 14  2  0
 13 12  1  0
 14 15  1  0
 15 16  2  0
 17 16  1  0
 18 10  1  0
 19 18  2  0
 20 21  1  0
 21 22  2  0
 23 21  1  0
 23 24  1  0
 25 24  1  1
 25 26  1  0
 25 27  1  0
 26 18  1  0
 27 29  1  0
 28 27  2  0
M  END
$$$$
