DFQ.pdb
     RDKit          3D

 29 29  0  0  1  0  0  0  0  0999 V2000
   27.6083  -22.5768  -17.2444 N   0  0  0  0  0  0  0  0  0  0  0  0
   27.3604  -21.2847  -16.6340 C   0  0  1  0  0  0  0  0  0  0  0  0
   26.3027  -20.5687  -17.4037 C   0  0  0  0  0  0  0  0  0  0  0  0
   26.9538  -19.6463  -18.3630 C   0  0  0  0  0  0  0  0  0  0  0  0
   27.1710  -18.4186  -18.0926 O   0  0  0  0  0  0  0  0  0  0  0  0
   26.9968  -21.4420  -15.1881 C   0  0  0  0  0  0  0  0  0  0  0  0
   26.1615  -22.2971  -14.7929 O   0  0  0  0  0  0  0  0  0  0  0  0
   27.3573  -20.0900  -19.6088 O   0  0  0  0  0  0  0  0  0  0  0  0
   27.5886  -20.6193  -14.1824 N   0  0  0  0  0  0  0  0  0  0  0  0
   27.2536  -20.7340  -12.7868 C   0  0  1  0  0  0  0  0  0  0  0  0
   28.2917  -20.0951  -11.8931 C   0  0  0  0  0  0  0  0  0  0  0  0
   27.8647  -20.0966  -10.4787 C   0  0  0  0  0  0  0  0  0  0  0  0
   28.3425  -21.0775   -9.6411 C   0  0  0  0  0  0  0  0  0  0  0  0
   27.9747  -21.1310   -8.2944 C   0  0  0  0  0  0  0  0  0  0  0  0
   27.1158  -20.1830   -7.7918 C   0  0  0  0  0  0  0  0  0  0  0  0
   26.6302  -19.1965   -8.6176 C   0  0  0  0  0  0  0  0  0  0  0  0
   27.0068  -19.1567   -9.9599 C   0  0  0  0  0  0  0  0  0  0  0  0
   25.9010  -20.2074  -12.5578 C   0  0  0  0  0  0  0  0  0  0  0  0
   25.5435  -19.2117  -13.2799 O   0  0  0  0  0  0  0  0  0  0  0  0
   21.1354  -22.7330  -13.4481 N   0  0  0  0  0  0  0  0  0  0  0  0
   20.6120  -21.4363  -13.2501 C   0  0  0  0  0  0  0  0  0  0  0  0
   19.3808  -21.2424  -13.3544 O   0  0  0  0  0  0  0  0  0  0  0  0
   21.4974  -20.3033  -12.9212 C   0  0  0  0  0  0  0  0  0  0  0  0
   22.9146  -20.7705  -12.8722 C   0  0  0  0  0  0  0  0  0  0  0  0
   23.6359  -20.3038  -11.6229 C   0  0  2  0  0  0  0  0  0  0  0  0
   25.0057  -20.7485  -11.5934 N   0  0  0  0  0  0  0  0  0  0  0  0
   22.9286  -20.9186  -10.4724 C   0  0  0  0  0  0  0  0  0  0  0  0
   23.4480  -21.8765   -9.8593 O   0  0  0  0  0  0  0  0  0  0  0  0
   21.6992  -20.4493  -10.0637 O   0  0  0  0  0  0  0  0  0  0  0  0
  2  1  1  6
  2  6  1  0
  2  3  1  0
  4  3  1  0
  4  8  1  0
  5  4  2  0
  6  7  2  0
  9 10  1  0
  9  6  1  0
 11 12  1  0
 10 11  1  1
 12 17  2  0
 13 14  2  0
 13 12  1  0
 14 15  1  0
 15 16  2  0
 17 16  1  0
 18 10  1  0
 19 18  2  0
 20 21  1  0
 21 22  2  0
 23 21  1  0
 23 24  1  0
 25 24  1  6
 25 26  1  0
 25 27  1  0
 26 18  1  0
 27 29  1  0
 28 27  2  0
M  END
$$$$
