DFQ.pdb
     RDKit          3D

 29 29  0  0  1  0  0  0  0  0999 V2000
   18.3833  -10.3728  -16.5548 N   0  0  0  0  0  0  0  0  0  0  0  0
   17.6853  -11.0419  -15.4738 C   0  0  1  0  0  0  0  0  0  0  0  0
   17.8849  -12.5148  -15.5928 C   0  0  0  0  0  0  0  0  0  0  0  0
   17.4921  -12.9399  -16.9567 C   0  0  0  0  0  0  0  0  0  0  0  0
   18.2822  -12.8546  -17.9547 O   0  0  0  0  0  0  0  0  0  0  0  0
   18.1385  -10.5170  -14.1445 C   0  0  0  0  0  0  0  0  0  0  0  0
   17.7024  -10.9746  -13.0556 O   0  0  0  0  0  0  0  0  0  0  0  0
   16.2322  -13.4537  -17.2025 O   0  0  0  0  0  0  0  0  0  0  0  0
   19.0961   -9.4621  -14.0527 N   0  0  0  0  0  0  0  0  0  0  0  0
   19.5642   -8.9435  -12.7937 C   0  0  1  0  0  0  0  0  0  0  0  0
   20.9959   -8.4641  -12.8672 C   0  0  0  0  0  0  0  0  0  0  0  0
   21.4365   -7.8737  -11.5866 C   0  0  0  0  0  0  0  0  0  0  0  0
   21.3508   -6.5112  -11.4183 C   0  0  0  0  0  0  0  0  0  0  0  0
   21.7519   -5.8953  -10.2302 C   0  0  0  0  0  0  0  0  0  0  0  0
   22.2439   -6.6657   -9.2040 C   0  0  0  0  0  0  0  0  0  0  0  0
   22.3353   -8.0291   -9.3582 C   0  0  0  0  0  0  0  0  0  0  0  0
   21.9308   -8.6290  -10.5504 C   0  0  0  0  0  0  0  0  0  0  0  0
   18.6397   -7.9087  -12.3105 C   0  0  0  0  0  0  0  0  0  0  0  0
   18.2697   -7.0271  -13.1628 O   0  0  0  0  0  0  0  0  0  0  0  0
   13.5354   -8.3090  -10.5957 N   0  0  0  0  0  0  0  0  0  0  0  0
   14.1880   -8.2257   -9.3460 C   0  0  0  0  0  0  0  0  0  0  0  0
   13.6832   -8.7805   -8.3451 O   0  0  0  0  0  0  0  0  0  0  0  0
   15.4598   -7.4925   -9.2020 C   0  0  0  0  0  0  0  0  0  0  0  0
   15.9056   -6.9925  -10.5363 C   0  0  0  0  0  0  0  0  0  0  0  0
   17.3929   -6.7005  -10.5786 C   0  0  2  0  0  0  0  0  0  0  0  0
   18.1581   -7.8554  -10.9727 N   0  0  0  0  0  0  0  0  0  0  0  0
   17.7909   -6.3356   -9.1964 C   0  0  0  0  0  0  0  0  0  0  0  0
   18.5487   -7.0875   -8.5455 O   0  0  0  0  0  0  0  0  0  0  0  0
   17.3368   -5.1734   -8.6118 O   0  0  0  0  0  0  0  0  0  0  0  0
  2  1  1  6
  2  6  1  0
  2  3  1  0
  4  3  1  0
  4  8  1  0
  5  4  2  0
  6  7  2  0
  9 10  1  0
  9  6  1  0
 11 12  1  0
 10 11  1  6
 12 17  2  0
 13 14  2  0
 13 12  1  0
 14 15  1  0
 15 16  2  0
 17 16  1  0
 18 10  1  0
 19 18  2  0
 20 21  1  0
 21 22  2  0
 23 21  1  0
 23 24  1  0
 25 24  1  1
 25 26  1  0
 25 27  1  0
 26 18  1  0
 27 29  1  0
 28 27  2  0
M  END
$$$$
