DFQ.pdb
     RDKit          3D

 29 29  0  0  1  0  0  0  0  0999 V2000
   12.0125  -14.2253    4.5274 N   0  0  0  0  0  0  0  0  0  0  0  0
   12.6200  -13.6531    5.7136 C   0  0  1  0  0  0  0  0  0  0  0  0
   12.0757  -14.3319    6.9247 C   0  0  0  0  0  0  0  0  0  0  0  0
   10.6726  -13.8994    7.1229 C   0  0  0  0  0  0  0  0  0  0  0  0
   10.3519  -12.6783    7.3063 O   0  0  0  0  0  0  0  0  0  0  0  0
   14.1147  -13.7434    5.6404 C   0  0  0  0  0  0  0  0  0  0  0  0
   14.7047  -14.4913    4.8172 O   0  0  0  0  0  0  0  0  0  0  0  0
    9.6407  -14.8197    7.1163 O   0  0  0  0  0  0  0  0  0  0  0  0
   14.9460  -12.9761    6.5113 N   0  0  0  0  0  0  0  0  0  0  0  0
   16.3840  -13.0203    6.4533 C   0  0  1  0  0  0  0  0  0  0  0  0
   17.0158  -11.7133    6.8744 C   0  0  0  0  0  0  0  0  0  0  0  0
   18.4887  -11.7648    6.7711 C   0  0  0  0  0  0  0  0  0  0  0  0
   19.2337  -11.8409    7.9248 C   0  0  0  0  0  0  0  0  0  0  0  0
   20.6294  -11.8924    7.8910 C   0  0  0  0  0  0  0  0  0  0  0  0
   21.2759  -11.8667    6.6785 C   0  0  0  0  0  0  0  0  0  0  0  0
   20.5439  -11.7907    5.5169 C   0  0  0  0  0  0  0  0  0  0  0  0
   19.1511  -11.7400    5.5674 C   0  0  0  0  0  0  0  0  0  0  0  0
   16.8753  -14.1678    7.2284 C   0  0  0  0  0  0  0  0  0  0  0  0
   16.3694  -14.3316    8.3937 O   0  0  0  0  0  0  0  0  0  0  0  0
   16.9791  -19.3929    4.3184 N   0  0  0  0  0  0  0  0  0  0  0  0
   17.1937  -19.2615    5.7081 C   0  0  0  0  0  0  0  0  0  0  0  0
   17.5253  -20.2621    6.3813 O   0  0  0  0  0  0  0  0  0  0  0  0
   17.0324  -17.9585    6.3804 C   0  0  0  0  0  0  0  0  0  0  0  0
   18.3610  -17.4697    6.8547 C   0  0  0  0  0  0  0  0  0  0  0  0
   18.2611  -16.1558    7.6049 C   0  0  2  0  0  0  0  0  0  0  0  0
   17.8608  -15.0725    6.7439 N   0  0  0  0  0  0  0  0  0  0  0  0
   19.6217  -15.8571    8.1164 C   0  0  0  0  0  0  0  0  0  0  0  0
   20.3506  -15.0399    7.5128 O   0  0  0  0  0  0  0  0  0  0  0  0
   20.1010  -16.4692    9.2541 O   0  0  0  0  0  0  0  0  0  0  0  0
  2  1  1  6
  2  6  1  0
  2  3  1  0
  4  3  1  0
  4  8  1  0
  5  4  2  0
  6  7  2  0
  9 10  1  0
  9  6  1  0
 11 12  1  0
 10 11  1  1
 12 17  2  0
 13 14  2  0
 13 12  1  0
 14 15  1  0
 15 16  2  0
 17 16  1  0
 18 10  1  0
 19 18  2  0
 20 21  1  0
 21 22  2  0
 23 21  1  0
 23 24  1  0
 25 24  1  6
 25 26  1  0
 25 27  1  0
 26 18  1  0
 27 29  1  0
 28 27  2  0
M  END
$$$$
