DFQ.pdb
     RDKit          3D

 29 29  0  0  1  0  0  0  0  0999 V2000
   28.8482  -20.8985  -16.0175 N   0  0  0  0  0  0  0  0  0  0  0  0
   27.5698  -21.5027  -16.3403 C   0  0  1  0  0  0  0  0  0  0  0  0
   27.7982  -22.8006  -17.0382 C   0  0  0  0  0  0  0  0  0  0  0  0
   28.6388  -22.5570  -18.2337 C   0  0  0  0  0  0  0  0  0  0  0  0
   29.7200  -23.1978  -18.4526 O   0  0  0  0  0  0  0  0  0  0  0  0
   26.7332  -21.6652  -15.1068 C   0  0  0  0  0  0  0  0  0  0  0  0
   26.2734  -22.7806  -14.7471 O   0  0  0  0  0  0  0  0  0  0  0  0
   28.2760  -21.6092  -19.1727 O   0  0  0  0  0  0  0  0  0  0  0  0
   26.4165  -20.5489  -14.2750 N   0  0  0  0  0  0  0  0  0  0  0  0
   25.6914  -20.6811  -13.0382 C   0  0  1  0  0  0  0  0  0  0  0  0
   26.0709  -19.6170  -12.0339 C   0  0  0  0  0  0  0  0  0  0  0  0
   26.9843  -20.1473  -11.0008 C   0  0  0  0  0  0  0  0  0  0  0  0
   28.2419  -20.5608  -11.3742 C   0  0  0  0  0  0  0  0  0  0  0  0
   29.1496  -21.0710  -10.4428 C   0  0  0  0  0  0  0  0  0  0  0  0
   28.7805  -21.1632   -9.1222 C   0  0  0  0  0  0  0  0  0  0  0  0
   27.5264  -20.7536   -8.7345 C   0  0  0  0  0  0  0  0  0  0  0  0
   26.6315  -20.2464   -9.6763 C   0  0  0  0  0  0  0  0  0  0  0  0
   24.2483  -20.7188  -13.3123 C   0  0  0  0  0  0  0  0  0  0  0  0
   23.8029  -19.8661  -14.1579 O   0  0  0  0  0  0  0  0  0  0  0  0
   23.0571  -25.3765  -14.4059 N   0  0  0  0  0  0  0  0  0  0  0  0
   22.1601  -24.7509  -15.2996 C   0  0  0  0  0  0  0  0  0  0  0  0
   22.0174  -25.2076  -16.4552 O   0  0  0  0  0  0  0  0  0  0  0  0
   21.3864  -23.5637  -14.8903 C   0  0  0  0  0  0  0  0  0  0  0  0
   21.6741  -23.2446  -13.4604 C   0  0  0  0  0  0  0  0  0  0  0  0
   22.0423  -21.7883  -13.2542 C   0  0  2  0  0  0  0  0  0  0  0  0
   23.3597  -21.6399  -12.6908 N   0  0  0  0  0  0  0  0  0  0  0  0
   21.0632  -21.2385  -12.2840 C   0  0  0  0  0  0  0  0  0  0  0  0
   21.3646  -21.1516  -11.0736 O   0  0  0  0  0  0  0  0  0  0  0  0
   19.8172  -20.8184  -12.6958 O   0  0  0  0  0  0  0  0  0  0  0  0
  2  1  1  1
  2  6  1  0
  2  3  1  0
  4  3  1  0
  4  8  1  0
  5  4  2  0
  6  7  2  0
  9 10  1  0
  9  6  1  0
 11 12  1  0
 10 11  1  1
 12 17  2  0
 13 14  2  0
 13 12  1  0
 14 15  1  0
 15 16  2  0
 17 16  1  0
 18 10  1  0
 19 18  2  0
 20 21  1  0
 21 22  2  0
 23 21  1  0
 23 24  1  0
 25 24  1  1
 25 26  1  0
 25 27  1  0
 26 18  1  0
 27 29  1  0
 28 27  2  0
M  END
$$$$
