EAL.pdb
     RDKit          3D

 23 22  0  0  1  0  0  0  0  0999 V2000
    6.8992  -18.5728   21.1446 N   0  0  0  0  0  0  0  0  0  0  0  0
    8.2833  -18.3448   20.9471 C   0  0  1  0  0  0  0  0  0  0  0  0
    8.8038  -18.8223   19.6145 C   0  0  0  0  0  0  0  0  0  0  0  0
    7.6685  -19.2055   18.6915 C   0  0  0  0  0  0  0  0  0  0  0  0
    8.2604  -19.7291   17.4372 C   0  0  0  0  0  0  0  0  0  0  0  0
    8.7485  -18.9103   16.6293 O   0  0  0  0  0  0  0  0  0  0  0  0
    8.7300  -16.9639   21.1814 C   0  0  0  0  0  0  0  0  0  0  0  0
    9.9713  -16.7476   21.2218 O   0  0  0  0  0  0  0  0  0  0  0  0
    8.2711  -21.0769   17.1723 O   0  0  0  0  0  0  0  0  0  0  0  0
    7.3356  -13.4612   21.2086 C   0  0  0  0  0  0  0  0  0  0  0  0
    8.2999  -14.5145   21.6421 C   0  0  2  0  0  0  0  0  0  0  0  0
    7.8757  -15.8561   21.3659 N   0  0  0  0  0  0  0  0  0  0  0  0
    8.7365  -14.3480   23.0683 C   0  0  0  0  0  0  0  0  0  0  0  0
    9.5553  -13.4404   23.3656 O   0  0  0  0  0  0  0  0  0  0  0  0
    8.2717  -12.0652   26.6600 C   0  0  0  0  0  0  0  0  0  0  0  0
    7.2374  -12.9907   26.1192 C   0  0  2  0  0  0  0  0  0  0  0  0
    5.8828  -12.5951   26.6056 C   0  0  0  0  0  0  0  0  0  0  0  0
    7.5174  -14.4233   26.2107 C   0  0  0  0  0  0  0  0  0  0  0  0
    8.6522  -15.0397   25.5153 C   0  0  2  0  0  0  0  0  0  0  0  0
    8.2584  -15.1798   24.0981 N   0  0  0  0  0  0  0  0  0  0  0  0
    9.2422  -16.2578   26.0297 C   0  0  0  0  0  0  0  0  0  0  0  0
    9.7476  -16.2358   27.3571 O   0  0  0  0  0  0  0  0  0  0  0  0
    9.3780  -17.3612   25.4631 O   0  0  0  0  0  0  0  0  0  0  0  0
  2  1  1  6
  2  3  1  0
  3  4  1  0
  4  5  1  0
  5  9  1  0
  6  5  2  0
  7 12  1  0
  7  2  1  0
  8  7  2  0
 11 10  1  1
 11 12  1  0
 11 13  1  0
 13 20  1  0
 14 13  2  0
 16 15  1  1
 17 16  1  0
 19 18  1  1
 18 16  1  0
 20 19  1  0
 21 19  1  0
 21 22  1  0
 23 21  2  0
M  END
$$$$
