EAL.pdb
     RDKit          3D

 23 22  0  0  1  0  0  0  0  0999 V2000
    8.6375  -18.8493   20.5525 N   0  0  0  0  0  0  0  0  0  0  0  0
    9.7210  -17.9672   20.3191 C   0  0  1  0  0  0  0  0  0  0  0  0
   10.1926  -17.9338   18.8869 C   0  0  0  0  0  0  0  0  0  0  0  0
   11.1626  -19.0598   18.6060 C   0  0  0  0  0  0  0  0  0  0  0  0
   11.5871  -18.9503   17.1898 C   0  0  0  0  0  0  0  0  0  0  0  0
   11.2043  -17.9572   16.5350 O   0  0  0  0  0  0  0  0  0  0  0  0
    9.5245  -16.5927   20.8026 C   0  0  0  0  0  0  0  0  0  0  0  0
   10.5164  -15.8151   20.7793 O   0  0  0  0  0  0  0  0  0  0  0  0
   12.3791  -19.9143   16.6153 O   0  0  0  0  0  0  0  0  0  0  0  0
    6.6990  -14.2401   21.6177 C   0  0  0  0  0  0  0  0  0  0  0  0
    8.1021  -14.7301   21.7533 C   0  0  2  0  0  0  0  0  0  0  0  0
    8.3081  -16.0724   21.2933 N   0  0  0  0  0  0  0  0  0  0  0  0
    8.6584  -14.5190   23.1311 C   0  0  0  0  0  0  0  0  0  0  0  0
    9.7034  -13.8348   23.2814 O   0  0  0  0  0  0  0  0  0  0  0  0
    7.5473  -11.6919   26.2397 C   0  0  0  0  0  0  0  0  0  0  0  0
    6.7309  -12.9060   25.9603 C   0  0  2  0  0  0  0  0  0  0  0  0
    5.3239  -12.7002   26.4143 C   0  0  0  0  0  0  0  0  0  0  0  0
    7.3069  -14.1945   26.3440 C   0  0  0  0  0  0  0  0  0  0  0  0
    8.4729  -14.7602   25.6572 C   0  0  2  0  0  0  0  0  0  0  0  0
    8.0471  -15.0648   24.2755 N   0  0  0  0  0  0  0  0  0  0  0  0
    9.1973  -15.8651   26.2497 C   0  0  0  0  0  0  0  0  0  0  0  0
    9.3605  -17.0404   25.4687 O   0  0  0  0  0  0  0  0  0  0  0  0
    9.7172  -15.9426   27.3813 O   0  0  0  0  0  0  0  0  0  0  0  0
  2  1  1  6
  2  3  1  0
  3  4  1  0
  4  5  1  0
  5  9  1  0
  6  5  2  0
  7 12  1  0
  7  2  1  0
  8  7  2  0
 11 10  1  1
 11 12  1  0
 11 13  1  0
 13 20  1  0
 14 13  2  0
 16 15  1  1
 17 16  1  0
 19 18  1  1
 18 16  1  0
 20 19  1  0
 21 19  1  0
 21 22  1  0
 23 21  2  0
M  END
$$$$
