EAL.pdb
     RDKit          3D

 23 22  0  0  1  0  0  0  0  0999 V2000
   10.8545  -17.5830   15.1497 N   0  0  0  0  0  0  0  0  0  0  0  0
   11.5495  -17.7145   16.3770 C   0  0  1  0  0  0  0  0  0  0  0  0
   12.7775  -16.8458   16.4872 C   0  0  0  0  0  0  0  0  0  0  0  0
   13.8084  -17.2246   15.4472 C   0  0  0  0  0  0  0  0  0  0  0  0
   14.9891  -16.3488   15.6386 C   0  0  0  0  0  0  0  0  0  0  0  0
   15.0249  -15.6215   16.6542 O   0  0  0  0  0  0  0  0  0  0  0  0
   10.7252  -17.5533   17.5836 C   0  0  0  0  0  0  0  0  0  0  0  0
    9.8185  -16.6778   17.5621 O   0  0  0  0  0  0  0  0  0  0  0  0
   16.0141  -16.3384   14.7242 O   0  0  0  0  0  0  0  0  0  0  0  0
   10.0732  -19.4138   20.8158 C   0  0  0  0  0  0  0  0  0  0  0  0
   10.0080  -18.2269   19.9135 C   0  0  2  0  0  0  0  0  0  0  0  0
   10.8692  -18.3041   18.7697 N   0  0  0  0  0  0  0  0  0  0  0  0
   10.1715  -16.9297   20.6505 C   0  0  0  0  0  0  0  0  0  0  0  0
   11.3258  -16.4773   20.8638 O   0  0  0  0  0  0  0  0  0  0  0  0
    9.2683  -12.7708   19.6883 C   0  0  0  0  0  0  0  0  0  0  0  0
    8.0635  -13.5087   20.1602 C   0  0  2  0  0  0  0  0  0  0  0  0
    6.8273  -12.7272   19.8618 C   0  0  0  0  0  0  0  0  0  0  0  0
    8.1146  -14.0654   21.5117 C   0  0  0  0  0  0  0  0  0  0  0  0
    9.1871  -14.9697   21.9400 C   0  0  2  0  0  0  0  0  0  0  0  0
    9.0679  -16.1915   21.1176 N   0  0  0  0  0  0  0  0  0  0  0  0
    9.3528  -15.2836   23.3437 C   0  0  0  0  0  0  0  0  0  0  0  0
    8.9830  -16.5853   23.7759 O   0  0  0  0  0  0  0  0  0  0  0  0
    9.7861  -14.5581   24.2617 O   0  0  0  0  0  0  0  0  0  0  0  0
  2  1  1  6
  2  3  1  0
  3  4  1  0
  4  5  1  0
  5  9  1  0
  6  5  2  0
  7 12  1  0
  7  2  1  0
  8  7  2  0
 11 10  1  1
 11 12  1  0
 11 13  1  0
 13 20  1  0
 14 13  2  0
 16 15  1  1
 17 16  1  0
 19 18  1  1
 18 16  1  0
 20 19  1  0
 21 19  1  0
 21 22  1  0
 23 21  2  0
M  END
$$$$
