EAL.pdb
     RDKit          3D

 23 22  0  0  1  0  0  0  0  0999 V2000
    8.2708  -18.8099   19.3193 N   0  0  0  0  0  0  0  0  0  0  0  0
    8.9897  -18.7434   20.5382 C   0  0  1  0  0  0  0  0  0  0  0  0
   10.3408  -18.0833   20.4229 C   0  0  0  0  0  0  0  0  0  0  0  0
   11.3511  -19.0157   19.7922 C   0  0  0  0  0  0  0  0  0  0  0  0
   12.6861  -18.3808   19.9038 C   0  0  0  0  0  0  0  0  0  0  0  0
   12.7970  -17.3642   20.6219 O   0  0  0  0  0  0  0  0  0  0  0  0
    8.2532  -18.1585   21.6682 C   0  0  0  0  0  0  0  0  0  0  0  0
    7.6511  -17.0681   21.4747 O   0  0  0  0  0  0  0  0  0  0  0  0
   13.7696  -18.8970   19.2358 O   0  0  0  0  0  0  0  0  0  0  0  0
    7.1151  -19.1605   25.1390 C   0  0  0  0  0  0  0  0  0  0  0  0
    7.4222  -18.1798   24.0568 C   0  0  2  0  0  0  0  0  0  0  0  0
    8.1666  -18.7233   22.9584 N   0  0  0  0  0  0  0  0  0  0  0  0
    8.0387  -16.9152   24.5794 C   0  0  0  0  0  0  0  0  0  0  0  0
    9.2871  -16.7673   24.5335 O   0  0  0  0  0  0  0  0  0  0  0  0
    5.6885  -11.7436   27.0879 C   0  0  0  0  0  0  0  0  0  0  0  0
    6.9029  -12.4044   26.5336 C   0  0  2  0  0  0  0  0  0  0  0  0
    7.6915  -11.4367   25.7153 C   0  0  0  0  0  0  0  0  0  0  0  0
    6.7180  -13.7138   25.9088 C   0  0  0  0  0  0  0  0  0  0  0  0
    7.8343  -14.6435   25.7069 C   0  0  2  0  0  0  0  0  0  0  0  0
    7.2626  -15.8758   25.1257 N   0  0  0  0  0  0  0  0  0  0  0  0
    8.7395  -14.9366   26.7983 C   0  0  0  0  0  0  0  0  0  0  0  0
    8.3693  -15.9678   27.7025 O   0  0  0  0  0  0  0  0  0  0  0  0
    9.8327  -14.4016   27.0732 O   0  0  0  0  0  0  0  0  0  0  0  0
  2  1  1  6
  2  3  1  0
  3  4  1  0
  4  5  1  0
  5  9  1  0
  6  5  2  0
  7 12  1  0
  7  2  1  0
  8  7  2  0
 11 10  1  1
 11 12  1  0
 11 13  1  0
 13 20  1  0
 14 13  2  0
 16 15  1  6
 17 16  1  0
 19 18  1  1
 18 16  1  0
 20 19  1  0
 21 19  1  0
 21 22  1  0
 23 21  2  0
M  END
$$$$
