EAL.pdb
     RDKit          3D

 23 22  0  0  1  0  0  0  0  0999 V2000
    8.1880  -19.6430   21.9404 N   0  0  0  0  0  0  0  0  0  0  0  0
    9.3802  -18.9836   21.5523 C   0  0  1  0  0  0  0  0  0  0  0  0
    9.9764  -19.4932   20.2641 C   0  0  0  0  0  0  0  0  0  0  0  0
   11.3408  -18.8886   20.0182 C   0  0  0  0  0  0  0  0  0  0  0  0
   11.8550  -19.4338   18.7391 C   0  0  0  0  0  0  0  0  0  0  0  0
   12.0986  -20.6578   18.6758 O   0  0  0  0  0  0  0  0  0  0  0  0
    9.2979  -17.5164   21.5077 C   0  0  0  0  0  0  0  0  0  0  0  0
   10.3789  -16.8690   21.4716 O   0  0  0  0  0  0  0  0  0  0  0  0
   12.0572  -18.6150   17.6549 O   0  0  0  0  0  0  0  0  0  0  0  0
    6.6463  -14.8112   21.1917 C   0  0  0  0  0  0  0  0  0  0  0  0
    8.0083  -15.3408   21.4942 C   0  0  2  0  0  0  0  0  0  0  0  0
    8.0993  -16.7717   21.5024 N   0  0  0  0  0  0  0  0  0  0  0  0
    8.6032  -14.7351   22.7318 C   0  0  0  0  0  0  0  0  0  0  0  0
    9.1169  -13.5880   22.6771 O   0  0  0  0  0  0  0  0  0  0  0  0
    6.0302  -12.2048   26.5322 C   0  0  0  0  0  0  0  0  0  0  0  0
    7.3752  -12.8346   26.4176 C   0  0  2  0  0  0  0  0  0  0  0  0
    8.4446  -11.8104   26.6057 C   0  0  0  0  0  0  0  0  0  0  0  0
    7.5918  -13.7329   25.2839 C   0  0  0  0  0  0  0  0  0  0  0  0
    8.6694  -14.7279   25.2752 C   0  0  2  0  0  0  0  0  0  0  0  0
    8.6080  -15.4109   23.9665 N   0  0  0  0  0  0  0  0  0  0  0  0
    8.7928  -15.6719   26.3662 C   0  0  0  0  0  0  0  0  0  0  0  0
    9.8230  -15.4477   27.3182 O   0  0  0  0  0  0  0  0  0  0  0  0
    8.1070  -16.6869   26.6038 O   0  0  0  0  0  0  0  0  0  0  0  0
  2  1  1  6
  2  3  1  0
  3  4  1  0
  4  5  1  0
  5  9  1  0
  6  5  2  0
  7 12  1  0
  7  2  1  0
  8  7  2  0
 11 10  1  1
 11 12  1  0
 11 13  1  0
 13 20  1  0
 14 13  2  0
 16 15  1  6
 17 16  1  0
 19 18  1  1
 18 16  1  0
 20 19  1  0
 21 19  1  0
 21 22  1  0
 23 21  2  0
M  END
$$$$
