EAL.pdb
     RDKit          3D

 23 22  0  0  1  0  0  0  0  0999 V2000
    9.9251  -19.8157   19.9492 N   0  0  0  0  0  0  0  0  0  0  0  0
    9.4159  -18.5730   19.4986 C   0  0  1  0  0  0  0  0  0  0  0  0
    8.9232  -18.5878   18.0732 C   0  0  0  0  0  0  0  0  0  0  0  0
    9.7823  -17.7101   17.1903 C   0  0  0  0  0  0  0  0  0  0  0  0
    9.2776  -17.8310   15.8016 C   0  0  0  0  0  0  0  0  0  0  0  0
    9.8340  -17.1531   14.9114 O   0  0  0  0  0  0  0  0  0  0  0  0
    8.3949  -17.9642   20.3637 C   0  0  0  0  0  0  0  0  0  0  0  0
    7.2025  -17.9659   19.9548 O   0  0  0  0  0  0  0  0  0  0  0  0
    8.2278  -18.6652   15.5037 O   0  0  0  0  0  0  0  0  0  0  0  0
    7.5760  -18.9391   23.1904 C   0  0  0  0  0  0  0  0  0  0  0  0
    7.8251  -17.5237   22.7881 C   0  0  2  0  0  0  0  0  0  0  0  0
    8.6450  -17.3749   21.6213 N   0  0  0  0  0  0  0  0  0  0  0  0
    8.3124  -16.6756   23.9264 C   0  0  0  0  0  0  0  0  0  0  0  0
    9.5204  -16.7346   24.2726 O   0  0  0  0  0  0  0  0  0  0  0  0
    5.8202  -11.7357   26.7318 C   0  0  0  0  0  0  0  0  0  0  0  0
    7.0405  -12.4744   26.3031 C   0  0  2  0  0  0  0  0  0  0  0  0
    7.9486  -11.5730   25.5345 C   0  0  0  0  0  0  0  0  0  0  0  0
    6.8398  -13.7898   25.6961 C   0  0  0  0  0  0  0  0  0  0  0  0
    7.9351  -14.7546   25.5516 C   0  0  2  0  0  0  0  0  0  0  0  0
    7.4577  -15.8060   24.6296 N   0  0  0  0  0  0  0  0  0  0  0  0
    8.5633  -15.3192   26.7276 C   0  0  0  0  0  0  0  0  0  0  0  0
    9.7318  -14.6799   27.2216 O   0  0  0  0  0  0  0  0  0  0  0  0
    8.2210  -16.3164   27.3949 O   0  0  0  0  0  0  0  0  0  0  0  0
  2  1  1  1
  2  3  1  0
  3  4  1  0
  4  5  1  0
  5  9  1  0
  6  5  2  0
  7 12  1  0
  7  2  1  0
  8  7  2  0
 11 10  1  1
 11 12  1  0
 11 13  1  0
 13 20  1  0
 14 13  2  0
 16 15  1  6
 17 16  1  0
 19 18  1  1
 18 16  1  0
 20 19  1  0
 21 19  1  0
 21 22  1  0
 23 21  2  0
M  END
$$$$
