EAL.pdb
     RDKit          3D

 23 22  0  0  1  0  0  0  0  0999 V2000
   12.4426  -15.8651   19.9558 N   0  0  0  0  0  0  0  0  0  0  0  0
   11.4912  -16.7845   20.4622 C   0  0  1  0  0  0  0  0  0  0  0  0
   12.0953  -17.9684   21.1749 C   0  0  0  0  0  0  0  0  0  0  0  0
   13.3164  -17.5615   21.9693 C   0  0  0  0  0  0  0  0  0  0  0  0
   13.8483  -18.7738   22.6367 C   0  0  0  0  0  0  0  0  0  0  0  0
   14.2140  -19.7291   21.9189 O   0  0  0  0  0  0  0  0  0  0  0  0
   10.4352  -16.1956   21.2985 C   0  0  0  0  0  0  0  0  0  0  0  0
   10.6773  -15.0928   21.8592 O   0  0  0  0  0  0  0  0  0  0  0  0
   13.9360  -18.8432   24.0057 O   0  0  0  0  0  0  0  0  0  0  0  0
    6.7893  -16.8715   22.1510 C   0  0  0  0  0  0  0  0  0  0  0  0
    8.0977  -16.1626   22.2637 C   0  0  2  0  0  0  0  0  0  0  0  0
    9.1661  -16.7695   21.5247 N   0  0  0  0  0  0  0  0  0  0  0  0
    8.4869  -15.8885   23.6871 C   0  0  0  0  0  0  0  0  0  0  0  0
    9.5174  -16.4295   24.1648 O   0  0  0  0  0  0  0  0  0  0  0  0
    8.1725  -11.6147   25.7626 C   0  0  0  0  0  0  0  0  0  0  0  0
    6.9673  -12.4899   25.7598 C   0  0  2  0  0  0  0  0  0  0  0  0
    5.7591  -11.7094   26.1585 C   0  0  0  0  0  0  0  0  0  0  0  0
    7.0909  -13.7899   26.4185 C   0  0  0  0  0  0  0  0  0  0  0  0
    8.0295  -14.8140   25.9475 C   0  0  2  0  0  0  0  0  0  0  0  0
    7.7328  -15.0385   24.5176 N   0  0  0  0  0  0  0  0  0  0  0  0
    8.1617  -16.0624   26.6690 C   0  0  0  0  0  0  0  0  0  0  0  0
    7.3709  -17.1603   26.2364 O   0  0  0  0  0  0  0  0  0  0  0  0
    8.8905  -16.3277   27.6465 O   0  0  0  0  0  0  0  0  0  0  0  0
  2  1  1  1
  2  3  1  0
  3  4  1  0
  4  5  1  0
  5  9  1  0
  6  5  2  0
  7 12  1  0
  7  2  1  0
  8  7  2  0
 11 10  1  1
 11 12  1  0
 11 13  1  0
 13 20  1  0
 14 13  2  0
 16 15  1  1
 17 16  1  0
 19 18  1  1
 18 16  1  0
 20 19  1  0
 21 19  1  0
 21 22  1  0
 23 21  2  0
M  END
$$$$
