EAL.pdb
     RDKit          3D

 23 22  0  0  1  0  0  0  0  0999 V2000
   10.2117  -20.1533   21.6592 N   0  0  0  0  0  0  0  0  0  0  0  0
   10.7128  -18.8860   22.0458 C   0  0  1  0  0  0  0  0  0  0  0  0
   11.9549  -18.4605   21.3036 C   0  0  0  0  0  0  0  0  0  0  0  0
   12.9744  -19.5770   21.2619 C   0  0  0  0  0  0  0  0  0  0  0  0
   14.1837  -19.0619   20.5763 C   0  0  0  0  0  0  0  0  0  0  0  0
   15.0520  -18.4860   21.2663 O   0  0  0  0  0  0  0  0  0  0  0  0
    9.7309  -17.7920   22.0258 C   0  0  0  0  0  0  0  0  0  0  0  0
   10.0706  -16.7086   21.4780 O   0  0  0  0  0  0  0  0  0  0  0  0
   14.3436  -19.2144   19.2206 O   0  0  0  0  0  0  0  0  0  0  0  0
    6.0260  -17.3537   22.6532 C   0  0  0  0  0  0  0  0  0  0  0  0
    7.4157  -16.8577   22.4297 C   0  0  2  0  0  0  0  0  0  0  0  0
    8.4324  -17.8584   22.5739 N   0  0  0  0  0  0  0  0  0  0  0  0
    7.7260  -15.6254   23.2282 C   0  0  0  0  0  0  0  0  0  0  0  0
    7.4879  -14.4913   22.7387 O   0  0  0  0  0  0  0  0  0  0  0  0
    5.5928  -12.7866   25.9138 C   0  0  0  0  0  0  0  0  0  0  0  0
    7.0031  -13.1238   26.2546 C   0  0  2  0  0  0  0  0  0  0  0  0
    7.5553  -12.1278   27.2194 C   0  0  0  0  0  0  0  0  0  0  0  0
    7.8953  -13.4449   25.1410 C   0  0  0  0  0  0  0  0  0  0  0  0
    8.8749  -14.5337   25.2187 C   0  0  2  0  0  0  0  0  0  0  0  0
    8.2804  -15.6922   24.5203 N   0  0  0  0  0  0  0  0  0  0  0  0
    9.4382  -14.9116   26.4979 C   0  0  0  0  0  0  0  0  0  0  0  0
    9.3153  -16.2695   26.8967 O   0  0  0  0  0  0  0  0  0  0  0  0
   10.0356  -14.1998   27.3305 O   0  0  0  0  0  0  0  0  0  0  0  0
  2  1  1  6
  2  3  1  0
  3  4  1  0
  4  5  1  0
  5  9  1  0
  6  5  2  0
  7 12  1  0
  7  2  1  0
  8  7  2  0
 11 10  1  1
 11 12  1  0
 11 13  1  0
 13 20  1  0
 14 13  2  0
 16 15  1  6
 17 16  1  0
 19 18  1  1
 18 16  1  0
 20 19  1  0
 21 19  1  0
 21 22  1  0
 23 21  2  0
M  END
$$$$
