EAL.pdb
     RDKit          3D

 23 22  0  0  1  0  0  0  0  0999 V2000
    9.0749  -18.8389   20.0130 N   0  0  0  0  0  0  0  0  0  0  0  0
    9.2452  -18.4640   21.3684 C   0  0  1  0  0  0  0  0  0  0  0  0
   10.4677  -19.0560   22.0239 C   0  0  0  0  0  0  0  0  0  0  0  0
   10.0841  -20.0821   23.0669 C   0  0  0  0  0  0  0  0  0  0  0  0
   11.3334  -20.6057   23.6693 C   0  0  0  0  0  0  0  0  0  0  0  0
   11.8358  -19.9762   24.6247 O   0  0  0  0  0  0  0  0  0  0  0  0
    9.2019  -17.0175   21.6280 C   0  0  0  0  0  0  0  0  0  0  0  0
   10.2979  -16.4194   21.8012 O   0  0  0  0  0  0  0  0  0  0  0  0
   11.9207  -21.7510   23.1895 O   0  0  0  0  0  0  0  0  0  0  0  0
    6.7253  -14.1852   21.3361 C   0  0  0  0  0  0  0  0  0  0  0  0
    7.9754  -14.8170   21.8512 C   0  0  2  0  0  0  0  0  0  0  0  0
    8.0252  -16.2419   21.6992 N   0  0  0  0  0  0  0  0  0  0  0  0
    8.3040  -14.3918   23.2525 C   0  0  0  0  0  0  0  0  0  0  0  0
    8.4731  -13.1717   23.5082 O   0  0  0  0  0  0  0  0  0  0  0  0
    8.0293  -11.8960   26.3403 C   0  0  0  0  0  0  0  0  0  0  0  0
    7.0739  -12.9603   25.9239 C   0  0  2  0  0  0  0  0  0  0  0  0
    5.6850  -12.5993   26.3343 C   0  0  0  0  0  0  0  0  0  0  0  0
    7.4512  -14.3421   26.2197 C   0  0  0  0  0  0  0  0  0  0  0  0
    8.6907  -14.9361   25.7076 C   0  0  2  0  0  0  0  0  0  0  0  0
    8.4317  -15.3185   24.3041 N   0  0  0  0  0  0  0  0  0  0  0  0
    9.3404  -16.0019   26.4414 C   0  0  0  0  0  0  0  0  0  0  0  0
    9.8631  -15.6941   27.7260 O   0  0  0  0  0  0  0  0  0  0  0  0
    9.5161  -17.1902   26.1037 O   0  0  0  0  0  0  0  0  0  0  0  0
  2  1  1  6
  2  3  1  0
  3  4  1  0
  4  5  1  0
  5  9  1  0
  6  5  2  0
  7 12  1  0
  7  2  1  0
  8  7  2  0
 11 10  1  1
 11 12  1  0
 11 13  1  0
 13 20  1  0
 14 13  2  0
 16 15  1  1
 17 16  1  0
 19 18  1  1
 18 16  1  0
 20 19  1  0
 21 19  1  0
 21 22  1  0
 23 21  2  0
M  END
$$$$
