EAL.pdb
     RDKit          3D

 23 22  0  0  1  0  0  0  0  0999 V2000
    8.8645  -18.8674   20.8474 N   0  0  0  0  0  0  0  0  0  0  0  0
    9.9710  -18.0335   21.1423 C   0  0  1  0  0  0  0  0  0  0  0  0
   11.0629  -18.0658   20.1025 C   0  0  0  0  0  0  0  0  0  0  0  0
   10.6792  -18.9493   18.9363 C   0  0  0  0  0  0  0  0  0  0  0  0
   11.9144  -19.5941   18.4298 C   0  0  0  0  0  0  0  0  0  0  0  0
   12.9868  -19.3655   19.0292 O   0  0  0  0  0  0  0  0  0  0  0  0
    9.6359  -16.6372   21.4579 C   0  0  0  0  0  0  0  0  0  0  0  0
   10.5856  -15.8507   21.7198 O   0  0  0  0  0  0  0  0  0  0  0  0
   11.8790  -20.4195   17.3324 O   0  0  0  0  0  0  0  0  0  0  0  0
    6.5932  -14.3627   21.4562 C   0  0  0  0  0  0  0  0  0  0  0  0
    7.9912  -14.7482   21.8085 C   0  0  2  0  0  0  0  0  0  0  0  0
    8.3294  -16.1050   21.4915 N   0  0  0  0  0  0  0  0  0  0  0  0
    8.3491  -14.3981   23.2234 C   0  0  0  0  0  0  0  0  0  0  0  0
    8.6990  -13.2226   23.5033 O   0  0  0  0  0  0  0  0  0  0  0  0
    8.3420  -12.0719   26.7507 C   0  0  0  0  0  0  0  0  0  0  0  0
    7.2407  -12.7491   26.0109 C   0  0  2  0  0  0  0  0  0  0  0  0
    5.9292  -12.1184   26.3426 C   0  0  0  0  0  0  0  0  0  0  0  0
    7.2300  -14.2115   26.0314 C   0  0  0  0  0  0  0  0  0  0  0  0
    8.4183  -15.0025   25.6939 C   0  0  2  0  0  0  0  0  0  0  0  0
    8.3074  -15.3477   24.2615 N   0  0  0  0  0  0  0  0  0  0  0  0
    8.7737  -16.1543   26.4960 C   0  0  0  0  0  0  0  0  0  0  0  0
    9.7427  -15.9716   27.5185 O   0  0  0  0  0  0  0  0  0  0  0  0
    8.3422  -17.3227   26.4215 O   0  0  0  0  0  0  0  0  0  0  0  0
  2  1  1  6
  2  3  1  0
  3  4  1  0
  4  5  1  0
  5  9  1  0
  6  5  2  0
  7 12  1  0
  7  2  1  0
  8  7  2  0
 11 10  1  1
 11 12  1  0
 11 13  1  0
 13 20  1  0
 14 13  2  0
 16 15  1  1
 17 16  1  0
 19 18  1  1
 18 16  1  0
 20 19  1  0
 21 19  1  0
 21 22  1  0
 23 21  2  0
M  END
$$$$
