EAL.pdb
     RDKit          3D

 23 22  0  0  1  0  0  0  0  0999 V2000
    6.2262  -16.5999   20.1511 N   0  0  0  0  0  0  0  0  0  0  0  0
    7.3004  -16.0133   20.8644 C   0  0  1  0  0  0  0  0  0  0  0  0
    7.6088  -14.5938   20.4589 C   0  0  0  0  0  0  0  0  0  0  0  0
    7.7232  -14.4688   18.9559 C   0  0  0  0  0  0  0  0  0  0  0  0
    8.9468  -15.1907   18.5323 C   0  0  0  0  0  0  0  0  0  0  0  0
    8.9221  -15.8042   17.4440 O   0  0  0  0  0  0  0  0  0  0  0  0
    7.1971  -16.0933   22.3288 C   0  0  0  0  0  0  0  0  0  0  0  0
    6.4285  -15.2791   22.9081 O   0  0  0  0  0  0  0  0  0  0  0  0
   10.0752  -15.1841   19.3155 O   0  0  0  0  0  0  0  0  0  0  0  0
    7.9453  -18.5270   25.0796 C   0  0  0  0  0  0  0  0  0  0  0  0
    7.7541  -17.1401   24.5627 C   0  0  2  0  0  0  0  0  0  0  0  0
    7.8935  -17.0131   23.1413 N   0  0  0  0  0  0  0  0  0  0  0  0
    8.5830  -16.1285   25.2989 C   0  0  0  0  0  0  0  0  0  0  0  0
    9.7662  -15.9092   24.9323 O   0  0  0  0  0  0  0  0  0  0  0  0
    5.9310  -11.8568   27.4286 C   0  0  0  0  0  0  0  0  0  0  0  0
    7.2389  -12.3721   26.9361 C   0  0  2  0  0  0  0  0  0  0  0  0
    7.1777  -12.6199   25.4654 C   0  0  0  0  0  0  0  0  0  0  0  0
    7.8580  -13.4512   27.7051 C   0  0  0  0  0  0  0  0  0  0  0  0
    8.8424  -14.3627   27.1123 C   0  0  2  0  0  0  0  0  0  0  0  0
    8.0797  -15.4073   26.3979 N   0  0  0  0  0  0  0  0  0  0  0  0
    9.8894  -14.9325   27.9343 C   0  0  0  0  0  0  0  0  0  0  0  0
    9.7687  -16.2996   28.3009 O   0  0  0  0  0  0  0  0  0  0  0  0
   10.9162  -14.3847   28.3842 O   0  0  0  0  0  0  0  0  0  0  0  0
  2  1  1  6
  2  3  1  0
  3  4  1  0
  4  5  1  0
  5  9  1  0
  6  5  2  0
  7 12  1  0
  7  2  1  0
  8  7  2  0
 11 10  1  1
 11 12  1  0
 11 13  1  0
 13 20  1  0
 14 13  2  0
 16 15  1  1
 17 16  1  0
 19 18  1  1
 18 16  1  0
 20 19  1  0
 21 19  1  0
 21 22  1  0
 23 21  2  0
M  END
$$$$
