SPE.pdb
     RDKit          3D

 23 23  0  0  1  0  0  0  0  0999 V2000
    8.0407  -17.9327   17.8326 O   0  0  0  0  0  0  0  0  0  0  0  0
    7.3216  -16.9072   17.2131 C   0  0  0  0  0  0  0  0  0  0  0  0
    8.2700  -15.7398   16.9065 C   0  0  2  0  0  0  0  0  0  0  0  0
    9.0841  -16.2080   15.7864 N   0  0  0  0  0  0  0  0  0  0  0  0
    9.1130  -15.4283   18.1007 C   0  0  0  0  0  0  0  0  0  0  0  0
   10.1182  -16.1882   18.2282 O   0  0  0  0  0  0  0  0  0  0  0  0
    8.7781  -14.3752   18.9775 N   0  0  0  0  0  0  0  0  0  0  0  0
    8.1208  -13.1505   18.4711 C   0  0  0  0  0  0  0  0  0  0  0  0
    6.9243  -13.1297   19.4008 C   0  0  0  0  0  0  0  0  0  0  0  0
    7.5688  -13.4847   20.7337 C   0  0  0  0  0  0  0  0  0  0  0  0
    8.9206  -14.1440   20.3692 C   0  0  1  0  0  0  0  0  0  0  0  0
    9.1516  -15.2931   21.2414 C   0  0  0  0  0  0  0  0  0  0  0  0
    8.3109  -16.1918   21.3762 O   0  0  0  0  0  0  0  0  0  0  0  0
   10.3571  -15.4354   21.9793 N   0  0  0  0  0  0  0  0  0  0  0  0
   10.6372  -16.6275   22.7572 C   0  0  1  0  0  0  0  0  0  0  0  0
   11.5754  -17.5772   22.1026 C   0  0  0  0  0  0  0  0  0  0  0  0
   11.9266  -18.8040   22.8789 C   0  0  0  0  0  0  0  0  0  0  0  0
   12.8929  -19.6941   22.2186 C   0  0  0  0  0  0  0  0  0  0  0  0
   13.9854  -19.2276   21.8154 O   0  0  0  0  0  0  0  0  0  0  0  0
   11.0714  -16.2866   24.1296 C   0  0  0  0  0  0  0  0  0  0  0  0
   10.9050  -17.1618   25.1887 O   0  0  0  0  0  0  0  0  0  0  0  0
   12.6366  -21.0586   22.0206 O   0  0  0  0  0  0  0  0  0  0  0  0
   11.6044  -15.1834   24.3447 O   0  0  0  0  0  0  0  0  0  0  0  0
  2  1  1  0
  3  2  1  0
  3  4  1  6
  5  3  1  0
  5  6  2  0
  7  5  1  0
  8  7  1  0
  9 10  1  0
  9  8  1  0
 10 11  1  0
 11  7  1  0
 11 12  1  1
 12 14  1  0
 13 12  2  0
 14 15  1  0
 15 16  1  6
 16 17  1  0
 17 18  1  0
 18 22  1  0
 19 18  2  0
 20 21  1  0
 20 15  1  0
 23 20  2  0
M  END
$$$$
