SPE.pdb
     RDKit          3D

 23 23  0  0  1  0  0  0  0  0999 V2000
    8.8223  -17.4462   17.1710 O   0  0  0  0  0  0  0  0  0  0  0  0
    8.0669  -16.4395   16.5641 C   0  0  0  0  0  0  0  0  0  0  0  0
    8.8761  -15.1351   16.5587 C   0  0  2  0  0  0  0  0  0  0  0  0
    9.8591  -15.3132   15.4916 N   0  0  0  0  0  0  0  0  0  0  0  0
    9.5392  -14.9299   17.8822 C   0  0  0  0  0  0  0  0  0  0  0  0
   10.5955  -15.6118   18.0352 O   0  0  0  0  0  0  0  0  0  0  0  0
    8.9991  -14.0480   18.8417 N   0  0  0  0  0  0  0  0  0  0  0  0
    8.2038  -12.8725   18.4245 C   0  0  0  0  0  0  0  0  0  0  0  0
    6.9604  -13.1301   19.2515 C   0  0  0  0  0  0  0  0  0  0  0  0
    7.5636  -13.5535   20.5837 C   0  0  0  0  0  0  0  0  0  0  0  0
    9.0175  -13.9713   20.2575 C   0  0  1  0  0  0  0  0  0  0  0  0
    9.3577  -15.1757   21.0113 C   0  0  0  0  0  0  0  0  0  0  0  0
    8.7221  -16.2302   20.8816 O   0  0  0  0  0  0  0  0  0  0  0  0
   10.4389  -15.1951   21.9326 N   0  0  0  0  0  0  0  0  0  0  0  0
   10.8775  -16.4246   22.5656 C   0  0  1  0  0  0  0  0  0  0  0  0
   12.3264  -16.7138   22.3991 C   0  0  0  0  0  0  0  0  0  0  0  0
   13.2670  -15.8713   23.1968 C   0  0  0  0  0  0  0  0  0  0  0  0
   14.6918  -16.1222   22.9335 C   0  0  0  0  0  0  0  0  0  0  0  0
   15.5589  -15.4458   23.5372 O   0  0  0  0  0  0  0  0  0  0  0  0
   10.4681  -16.4761   23.9861 C   0  0  0  0  0  0  0  0  0  0  0  0
   10.6792  -17.5979   24.7687 O   0  0  0  0  0  0  0  0  0  0  0  0
   15.1221  -17.0989   22.0238 O   0  0  0  0  0  0  0  0  0  0  0  0
    9.9194  -15.4846   24.4993 O   0  0  0  0  0  0  0  0  0  0  0  0
  2  1  1  0
  3  2  1  0
  3  4  1  6
  5  3  1  0
  5  6  2  0
  7  5  1  0
  8  7  1  0
  9 10  1  0
  9  8  1  0
 10 11  1  0
 11  7  1  0
 11 12  1  1
 12 14  1  0
 13 12  2  0
 14 15  1  0
 15 16  1  1
 16 17  1  0
 17 18  1  0
 18 22  1  0
 19 18  2  0
 20 21  1  0
 20 15  1  0
 23 20  2  0
M  END
$$$$
