SPE.pdb
     RDKit          3D

 23 23  0  0  1  0  0  0  0  0999 V2000
    9.3949  -16.1824   17.4914 O   0  0  0  0  0  0  0  0  0  0  0  0
    8.2227  -15.4287   17.3904 C   0  0  0  0  0  0  0  0  0  0  0  0
    8.4653  -14.0356   17.9879 C   0  0  2  0  0  0  0  0  0  0  0  0
    9.2166  -13.3174   16.9601 N   0  0  0  0  0  0  0  0  0  0  0  0
    9.2454  -14.1441   19.2580 C   0  0  0  0  0  0  0  0  0  0  0  0
   10.4655  -14.4361   19.0844 O   0  0  0  0  0  0  0  0  0  0  0  0
    8.6341  -13.9332   20.5118 N   0  0  0  0  0  0  0  0  0  0  0  0
    7.4468  -13.0596   20.6361 C   0  0  0  0  0  0  0  0  0  0  0  0
    6.5171  -14.0320   21.3338 C   0  0  0  0  0  0  0  0  0  0  0  0
    7.4506  -14.6641   22.3570 C   0  0  0  0  0  0  0  0  0  0  0  0
    8.8793  -14.3781   21.8356 C   0  0  1  0  0  0  0  0  0  0  0  0
    9.7117  -15.5639   22.0240 C   0  0  0  0  0  0  0  0  0  0  0  0
    9.4517  -16.6406   21.4710 O   0  0  0  0  0  0  0  0  0  0  0  0
   10.8646  -15.5384   22.8537 N   0  0  0  0  0  0  0  0  0  0  0  0
   11.7280  -16.6959   22.9929 C   0  0  1  0  0  0  0  0  0  0  0  0
   13.0596  -16.5454   22.3487 C   0  0  0  0  0  0  0  0  0  0  0  0
   13.9799  -15.5375   22.9553 C   0  0  0  0  0  0  0  0  0  0  0  0
   15.2760  -15.3997   22.2745 C   0  0  0  0  0  0  0  0  0  0  0  0
   15.5364  -16.1325   21.2901 O   0  0  0  0  0  0  0  0  0  0  0  0
   11.8474  -17.1130   24.4071 C   0  0  0  0  0  0  0  0  0  0  0  0
   11.2367  -16.4109   25.4315 O   0  0  0  0  0  0  0  0  0  0  0  0
   16.2415  -14.4708   22.6884 O   0  0  0  0  0  0  0  0  0  0  0  0
   12.5131  -18.1250   24.6907 O   0  0  0  0  0  0  0  0  0  0  0  0
  2  1  1  0
  3  2  1  0
  3  4  1  6
  5  3  1  0
  5  6  2  0
  7  5  1  0
  8  7  1  0
  9 10  1  0
  9  8  1  0
 10 11  1  0
 11  7  1  0
 11 12  1  6
 12 14  1  0
 13 12  2  0
 14 15  1  0
 15 16  1  1
 16 17  1  0
 17 18  1  0
 18 22  1  0
 19 18  2  0
 20 21  1  0
 20 15  1  0
 23 20  2  0
M  END
$$$$
