SPE.pdb
     RDKit          3D

 23 23  0  0  1  0  0  0  0  0999 V2000
    7.6302  -18.9971   23.9026 O   0  0  0  0  0  0  0  0  0  0  0  0
    6.3800  -18.8540   23.2952 C   0  0  0  0  0  0  0  0  0  0  0  0
    6.5718  -18.3483   21.8586 C   0  0  2  0  0  0  0  0  0  0  0  0
    6.6624  -19.5612   21.0478 N   0  0  0  0  0  0  0  0  0  0  0  0
    7.8188  -17.5308   21.7581 C   0  0  0  0  0  0  0  0  0  0  0  0
    8.8836  -18.2133   21.8262 O   0  0  0  0  0  0  0  0  0  0  0  0
    7.7641  -16.1296   21.6037 N   0  0  0  0  0  0  0  0  0  0  0  0
    6.5921  -15.4842   20.9728 C   0  0  0  0  0  0  0  0  0  0  0  0
    6.2567  -14.4931   22.0690 C   0  0  0  0  0  0  0  0  0  0  0  0
    7.6394  -13.9837   22.4517 C   0  0  0  0  0  0  0  0  0  0  0  0
    8.6272  -15.0503   21.9212 C   0  0  1  0  0  0  0  0  0  0  0  0
    9.6790  -15.2733   22.9105 C   0  0  0  0  0  0  0  0  0  0  0  0
   10.1744  -14.3430   23.5599 O   0  0  0  0  0  0  0  0  0  0  0  0
   10.1853  -16.5737   23.1764 N   0  0  0  0  0  0  0  0  0  0  0  0
   11.2941  -16.7872   24.0874 C   0  0  1  0  0  0  0  0  0  0  0  0
   10.9965  -17.7250   25.2022 C   0  0  0  0  0  0  0  0  0  0  0  0
    9.6666  -17.5683   25.8639 C   0  0  0  0  0  0  0  0  0  0  0  0
    9.3862  -18.5509   26.9213 C   0  0  0  0  0  0  0  0  0  0  0  0
   10.2636  -19.3931   27.2289 O   0  0  0  0  0  0  0  0  0  0  0  0
   12.5233  -17.1726   23.3604 C   0  0  0  0  0  0  0  0  0  0  0  0
   13.7538  -17.2448   23.9897 O   0  0  0  0  0  0  0  0  0  0  0  0
    8.1626  -18.5822   27.6056 O   0  0  0  0  0  0  0  0  0  0  0  0
   12.4557  -17.4433   22.1481 O   0  0  0  0  0  0  0  0  0  0  0  0
  2  1  1  0
  3  2  1  0
  3  4  1  6
  5  3  1  0
  5  6  2  0
  7  5  1  0
  8  7  1  0
  9 10  1  0
  9  8  1  0
 10 11  1  0
 11  7  1  0
 11 12  1  1
 12 14  1  0
 13 12  2  0
 14 15  1  0
 15 16  1  1
 16 17  1  0
 17 18  1  0
 18 22  1  0
 19 18  2  0
 20 21  1  0
 20 15  1  0
 23 20  2  0
M  END
$$$$
