SPE.pdb
     RDKit          3D

 23 23  0  0  1  0  0  0  0  0999 V2000
    9.7623  -16.4862   28.5903 O   0  0  0  0  0  0  0  0  0  0  0  0
    9.1671  -16.8039   27.3667 C   0  0  0  0  0  0  0  0  0  0  0  0
    7.6496  -16.5995   27.4755 C   0  0  2  0  0  0  0  0  0  0  0  0
    7.1051  -17.9461   27.6394 N   0  0  0  0  0  0  0  0  0  0  0  0
    7.1239  -15.9454   26.2388 C   0  0  0  0  0  0  0  0  0  0  0  0
    7.0248  -16.7297   25.2493 O   0  0  0  0  0  0  0  0  0  0  0  0
    6.7842  -14.5763   26.2237 N   0  0  0  0  0  0  0  0  0  0  0  0
    6.0867  -13.9582   27.3724 C   0  0  0  0  0  0  0  0  0  0  0  0
    7.0444  -12.8135   27.6349 C   0  0  0  0  0  0  0  0  0  0  0  0
    7.3390  -12.3332   26.2206 C   0  0  0  0  0  0  0  0  0  0  0  0
    6.9441  -13.5126   25.2998 C   0  0  1  0  0  0  0  0  0  0  0  0
    7.9416  -13.6586   24.2423 C   0  0  0  0  0  0  0  0  0  0  0  0
    8.8380  -12.8227   24.0685 O   0  0  0  0  0  0  0  0  0  0  0  0
    7.9311  -14.7716   23.3596 N   0  0  0  0  0  0  0  0  0  0  0  0
    9.0779  -15.0984   22.5331 C   0  0  1  0  0  0  0  0  0  0  0  0
   10.3442  -15.2811   23.2907 C   0  0  0  0  0  0  0  0  0  0  0  0
   11.5292  -15.7346   22.5026 C   0  0  0  0  0  0  0  0  0  0  0  0
   12.7007  -16.1038   23.3109 C   0  0  0  0  0  0  0  0  0  0  0  0
   12.6349  -16.0304   24.5616 O   0  0  0  0  0  0  0  0  0  0  0  0
    8.7960  -16.2516   21.6507 C   0  0  0  0  0  0  0  0  0  0  0  0
    9.6157  -16.5744   20.5834 O   0  0  0  0  0  0  0  0  0  0  0  0
   13.9007  -16.5393   22.7306 O   0  0  0  0  0  0  0  0  0  0  0  0
    7.7955  -16.9576   21.8701 O   0  0  0  0  0  0  0  0  0  0  0  0
  2  1  1  0
  3  2  1  0
  3  4  1  6
  5  3  1  0
  5  6  2  0
  7  5  1  0
  8  7  1  0
  9 10  1  0
  9  8  1  0
 10 11  1  0
 11  7  1  0
 11 12  1  6
 12 14  1  0
 13 12  2  0
 14 15  1  0
 15 16  1  1
 16 17  1  0
 17 18  1  0
 18 22  1  0
 19 18  2  0
 20 21  1  0
 20 15  1  0
 23 20  2  0
M  END
$$$$
