SPE.pdb
     RDKit          3D

 23 23  0  0  1  0  0  0  0  0999 V2000
    6.6683  -16.7532   21.8848 O   0  0  0  0  0  0  0  0  0  0  0  0
    6.2352  -15.6554   22.6329 C   0  0  0  0  0  0  0  0  0  0  0  0
    7.1142  -14.4411   22.3025 C   0  0  2  0  0  0  0  0  0  0  0  0
    7.6788  -14.7392   20.9876 N   0  0  0  0  0  0  0  0  0  0  0  0
    8.1854  -14.2801   23.3322 C   0  0  0  0  0  0  0  0  0  0  0  0
    9.2463  -14.9199   23.0695 O   0  0  0  0  0  0  0  0  0  0  0  0
    7.9854  -13.4791   24.4761 N   0  0  0  0  0  0  0  0  0  0  0  0
    7.1752  -12.2437   24.4013 C   0  0  0  0  0  0  0  0  0  0  0  0
    6.1978  -12.5409   25.5206 C   0  0  0  0  0  0  0  0  0  0  0  0
    7.1219  -13.1113   26.5876 C   0  0  0  0  0  0  0  0  0  0  0  0
    8.4010  -13.5416   25.8303 C   0  0  1  0  0  0  0  0  0  0  0  0
    8.8667  -14.8241   26.3527 C   0  0  0  0  0  0  0  0  0  0  0  0
    8.1046  -15.7897   26.4919 O   0  0  0  0  0  0  0  0  0  0  0  0
   10.2222  -15.0259   26.7270 N   0  0  0  0  0  0  0  0  0  0  0  0
   10.6895  -16.3016   27.2359 C   0  0  1  0  0  0  0  0  0  0  0  0
   12.0167  -16.7190   26.7116 C   0  0  0  0  0  0  0  0  0  0  0  0
   12.2578  -16.4871   25.2559 C   0  0  0  0  0  0  0  0  0  0  0  0
   13.5797  -15.9303   24.9324 C   0  0  0  0  0  0  0  0  0  0  0  0
   14.3151  -15.5098   25.8578 O   0  0  0  0  0  0  0  0  0  0  0  0
   10.6471  -16.3412   28.7140 C   0  0  0  0  0  0  0  0  0  0  0  0
   10.9179  -17.4982   29.4234 O   0  0  0  0  0  0  0  0  0  0  0  0
   14.0541  -15.8508   23.6151 O   0  0  0  0  0  0  0  0  0  0  0  0
   10.3626  -15.3071   29.3442 O   0  0  0  0  0  0  0  0  0  0  0  0
  2  1  1  0
  3  2  1  0
  3  4  1  6
  5  3  1  0
  5  6  2  0
  7  5  1  0
  8  7  1  0
  9 10  1  0
  9  8  1  0
 10 11  1  0
 11  7  1  0
 11 12  1  1
 12 14  1  0
 13 12  2  0
 14 15  1  0
 15 16  1  1
 16 17  1  0
 17 18  1  0
 18 22  1  0
 19 18  2  0
 20 21  1  0
 20 15  1  0
 23 20  2  0
M  END
$$$$
