SPE.pdb
     RDKit          3D

 23 23  0  0  1  0  0  0  0  0999 V2000
    8.2076  -18.3746   18.2687 O   0  0  0  0  0  0  0  0  0  0  0  0
    7.4826  -17.2537   17.8560 C   0  0  0  0  0  0  0  0  0  0  0  0
    8.4598  -16.1326   17.4756 C   0  0  2  0  0  0  0  0  0  0  0  0
    9.3017  -16.7135   16.4313 N   0  0  0  0  0  0  0  0  0  0  0  0
    9.2688  -15.7237   18.6638 C   0  0  0  0  0  0  0  0  0  0  0  0
   10.3014  -16.4338   18.8472 O   0  0  0  0  0  0  0  0  0  0  0  0
    8.8768  -14.6401   19.4775 N   0  0  0  0  0  0  0  0  0  0  0  0
    8.2452  -13.4405   18.8856 C   0  0  0  0  0  0  0  0  0  0  0  0
    6.9949  -13.3926   19.7406 C   0  0  0  0  0  0  0  0  0  0  0  0
    7.5600  -13.6914   21.1224 C   0  0  0  0  0  0  0  0  0  0  0  0
    8.9344  -14.3545   20.8652 C   0  0  1  0  0  0  0  0  0  0  0  0
    9.1182  -15.4675   21.7936 C   0  0  0  0  0  0  0  0  0  0  0  0
    8.2824  -16.3744   21.9017 O   0  0  0  0  0  0  0  0  0  0  0  0
   10.2698  -15.5634   22.6199 N   0  0  0  0  0  0  0  0  0  0  0  0
   10.4713  -16.6853   23.5175 C   0  0  1  0  0  0  0  0  0  0  0  0
   11.7546  -17.4078   23.3133 C   0  0  0  0  0  0  0  0  0  0  0  0
   12.2945  -17.4205   21.9207 C   0  0  0  0  0  0  0  0  0  0  0  0
   13.5638  -18.1451   21.7597 C   0  0  0  0  0  0  0  0  0  0  0  0
   14.1424  -18.6079   22.7721 O   0  0  0  0  0  0  0  0  0  0  0  0
   10.2857  -16.2865   24.9298 C   0  0  0  0  0  0  0  0  0  0  0  0
   10.3099  -17.2098   25.9605 O   0  0  0  0  0  0  0  0  0  0  0  0
   14.1580  -18.3402   20.5045 O   0  0  0  0  0  0  0  0  0  0  0  0
   10.1043  -15.0873   25.2064 O   0  0  0  0  0  0  0  0  0  0  0  0
  2  1  1  0
  3  2  1  0
  3  4  1  6
  5  3  1  0
  5  6  2  0
  7  5  1  0
  8  7  1  0
  9 10  1  0
  9  8  1  0
 10 11  1  0
 11  7  1  0
 11 12  1  1
 12 14  1  0
 13 12  2  0
 14 15  1  0
 15 16  1  1
 16 17  1  0
 17 18  1  0
 18 22  1  0
 19 18  2  0
 20 21  1  0
 20 15  1  0
 23 20  2  0
M  END
$$$$
