SPE.pdb
     RDKit          3D

 23 23  0  0  1  0  0  0  0  0999 V2000
    7.0359  -15.6561   20.5335 O   0  0  0  0  0  0  0  0  0  0  0  0
    6.2013  -14.5380   20.6085 C   0  0  0  0  0  0  0  0  0  0  0  0
    7.0307  -13.3165   21.0288 C   0  0  2  0  0  0  0  0  0  0  0  0
    7.7366  -12.9122   19.8144 N   0  0  0  0  0  0  0  0  0  0  0  0
    7.9857  -13.6870   22.1170 C   0  0  0  0  0  0  0  0  0  0  0  0
    9.0263  -14.2788   21.7034 O   0  0  0  0  0  0  0  0  0  0  0  0
    7.7089  -13.3852   23.4670 N   0  0  0  0  0  0  0  0  0  0  0  0
    6.7940  -12.2781   23.8214 C   0  0  0  0  0  0  0  0  0  0  0  0
    5.8390  -13.0449   24.7139 C   0  0  0  0  0  0  0  0  0  0  0  0
    6.8025  -13.8951   25.5305 C   0  0  0  0  0  0  0  0  0  0  0  0
    8.1193  -13.9118   24.7178 C   0  0  1  0  0  0  0  0  0  0  0  0
    8.6922  -15.2555   24.7485 C   0  0  0  0  0  0  0  0  0  0  0  0
    8.0274  -16.2572   24.4531 O   0  0  0  0  0  0  0  0  0  0  0  0
   10.0452  -15.4782   25.1197 N   0  0  0  0  0  0  0  0  0  0  0  0
   10.6143  -16.8121   25.1581 C   0  0  1  0  0  0  0  0  0  0  0  0
   12.0095  -16.8955   24.6511 C   0  0  0  0  0  0  0  0  0  0  0  0
   12.7063  -18.2033   24.8380 C   0  0  0  0  0  0  0  0  0  0  0  0
   14.1083  -18.2222   24.3951 C   0  0  0  0  0  0  0  0  0  0  0  0
   14.6508  -17.1551   24.0198 O   0  0  0  0  0  0  0  0  0  0  0  0
   10.4825  -17.4165   26.5018 C   0  0  0  0  0  0  0  0  0  0  0  0
   10.5410  -18.7853   26.6978 O   0  0  0  0  0  0  0  0  0  0  0  0
   14.8693  -19.3999   24.3760 O   0  0  0  0  0  0  0  0  0  0  0  0
   10.3164  -16.6784   27.4893 O   0  0  0  0  0  0  0  0  0  0  0  0
  2  1  1  0
  3  2  1  0
  3  4  1  6
  5  3  1  0
  5  6  2  0
  7  5  1  0
  8  7  1  0
  9 10  1  0
  9  8  1  0
 10 11  1  0
 11  7  1  0
 11 12  1  6
 12 14  1  0
 13 12  2  0
 14 15  1  0
 15 16  1  1
 16 17  1  0
 17 18  1  0
 18 22  1  0
 19 18  2  0
 20 21  1  0
 20 15  1  0
 23 20  2  0
M  END
$$$$
