SPE.pdb
     RDKit          3D

 23 23  0  0  1  0  0  0  0  0999 V2000
    6.2956  -15.7295   22.3501 O   0  0  0  0  0  0  0  0  0  0  0  0
    6.7973  -14.8881   21.3538 C   0  0  0  0  0  0  0  0  0  0  0  0
    7.1313  -13.5216   21.9683 C   0  0  2  0  0  0  0  0  0  0  0  0
    7.7952  -12.7847   20.8946 N   0  0  0  0  0  0  0  0  0  0  0  0
    8.0295  -13.6897   23.1509 C   0  0  0  0  0  0  0  0  0  0  0  0
    9.0390  -14.4206   22.9254 O   0  0  0  0  0  0  0  0  0  0  0  0
    7.7370  -13.0720   24.3850 N   0  0  0  0  0  0  0  0  0  0  0  0
    6.8607  -11.8818   24.4452 C   0  0  0  0  0  0  0  0  0  0  0  0
    5.8569  -12.3856   25.4625 C   0  0  0  0  0  0  0  0  0  0  0  0
    6.7677  -13.0549   26.4825 C   0  0  0  0  0  0  0  0  0  0  0  0
    8.0995  -13.3064   25.7356 C   0  0  1  0  0  0  0  0  0  0  0  0
    8.6164  -14.6250   26.0945 C   0  0  0  0  0  0  0  0  0  0  0  0
    7.9613  -15.6583   25.9056 O   0  0  0  0  0  0  0  0  0  0  0  0
    9.9010  -14.7855   26.6794 N   0  0  0  0  0  0  0  0  0  0  0  0
   10.5676  -16.0737   26.7104 C   0  0  1  0  0  0  0  0  0  0  0  0
   11.8528  -16.1143   25.9639 C   0  0  0  0  0  0  0  0  0  0  0  0
   12.6560  -17.3668   26.0934 C   0  0  0  0  0  0  0  0  0  0  0  0
   13.9380  -17.3527   25.3733 C   0  0  0  0  0  0  0  0  0  0  0  0
   14.2874  -16.3176   24.7565 O   0  0  0  0  0  0  0  0  0  0  0  0
   10.7229  -16.5678   28.0961 C   0  0  0  0  0  0  0  0  0  0  0  0
   11.0157  -17.8918   28.3728 O   0  0  0  0  0  0  0  0  0  0  0  0
   14.7933  -18.4638   25.3498 O   0  0  0  0  0  0  0  0  0  0  0  0
   10.5898  -15.7746   29.0451 O   0  0  0  0  0  0  0  0  0  0  0  0
  2  1  1  0
  3  2  1  0
  3  4  1  6
  5  3  1  0
  5  6  2  0
  7  5  1  0
  8  7  1  0
  9 10  1  0
  9  8  1  0
 10 11  1  0
 11  7  1  0
 11 12  1  6
 12 14  1  0
 13 12  2  0
 14 15  1  0
 15 16  1  1
 16 17  1  0
 17 18  1  0
 18 22  1  0
 19 18  2  0
 20 21  1  0
 20 15  1  0
 23 20  2  0
M  END
$$$$
