SPE.pdb
     RDKit          3D

 23 23  0  0  1  0  0  0  0  0999 V2000
    5.0517  -18.5379   20.0993 O   0  0  0  0  0  0  0  0  0  0  0  0
    6.3127  -18.1455   20.5558 C   0  0  0  0  0  0  0  0  0  0  0  0
    7.0394  -17.3838   19.4386 C   0  0  2  0  0  0  0  0  0  0  0  0
    7.3962  -18.4107   18.4614 N   0  0  0  0  0  0  0  0  0  0  0  0
    8.2535  -16.7012   19.9804 C   0  0  0  0  0  0  0  0  0  0  0  0
    9.1940  -17.4946   20.2804 O   0  0  0  0  0  0  0  0  0  0  0  0
    8.2997  -15.2989   20.1271 N   0  0  0  0  0  0  0  0  0  0  0  0
    7.5772  -14.4165   19.1850 C   0  0  0  0  0  0  0  0  0  0  0  0
    6.7768  -13.6125   20.1897 C   0  0  0  0  0  0  0  0  0  0  0  0
    7.8199  -13.3466   21.2663 C   0  0  0  0  0  0  0  0  0  0  0  0
    8.9249  -14.4044   21.0324 C   0  0  1  0  0  0  0  0  0  0  0  0
    9.3779  -14.9268   22.3194 C   0  0  0  0  0  0  0  0  0  0  0  0
    8.6311  -14.9748   23.3056 O   0  0  0  0  0  0  0  0  0  0  0  0
   10.7023  -15.4072   22.5018 N   0  0  0  0  0  0  0  0  0  0  0  0
   11.1699  -15.8792   23.7915 C   0  0  1  0  0  0  0  0  0  0  0  0
   10.4590  -17.0840   24.2952 C   0  0  0  0  0  0  0  0  0  0  0  0
   10.5118  -18.2974   23.4259 C   0  0  0  0  0  0  0  0  0  0  0  0
   10.2597  -19.5663   24.1248 C   0  0  0  0  0  0  0  0  0  0  0  0
   10.0258  -19.5555   25.3573 O   0  0  0  0  0  0  0  0  0  0  0  0
   12.6373  -16.0660   23.7981 C   0  0  0  0  0  0  0  0  0  0  0  0
   13.3902  -15.9897   22.6394 O   0  0  0  0  0  0  0  0  0  0  0  0
   10.2709  -20.8003   23.4588 O   0  0  0  0  0  0  0  0  0  0  0  0
   13.2183  -16.2966   24.8737 O   0  0  0  0  0  0  0  0  0  0  0  0
  2  1  1  0
  3  2  1  0
  3  4  1  6
  5  3  1  0
  5  6  2  0
  7  5  1  0
  8  7  1  0
  9 10  1  0
  9  8  1  0
 10 11  1  0
 11  7  1  0
 11 12  1  1
 12 14  1  0
 13 12  2  0
 14 15  1  0
 15 16  1  6
 16 17  1  0
 17 18  1  0
 18 22  1  0
 19 18  2  0
 20 21  1  0
 20 15  1  0
 23 20  2  0
M  END
$$$$
