SPE.pdb
     RDKit          3D

 23 23  0  0  1  0  0  0  0  0999 V2000
    7.0328  -16.1895   22.2162 O   0  0  0  0  0  0  0  0  0  0  0  0
    6.2510  -15.0329   22.1584 C   0  0  0  0  0  0  0  0  0  0  0  0
    7.1630  -13.8019   22.2548 C   0  0  2  0  0  0  0  0  0  0  0  0
    7.9070  -13.7925   20.9966 N   0  0  0  0  0  0  0  0  0  0  0  0
    8.0790  -13.9251   23.4292 C   0  0  0  0  0  0  0  0  0  0  0  0
    9.0871  -14.6614   23.2153 O   0  0  0  0  0  0  0  0  0  0  0  0
    7.8030  -13.2638   24.6444 N   0  0  0  0  0  0  0  0  0  0  0  0
    7.0391  -11.9972   24.6587 C   0  0  0  0  0  0  0  0  0  0  0  0
    5.9588  -12.3905   25.6460 C   0  0  0  0  0  0  0  0  0  0  0  0
    6.7684  -13.1247   26.7059 C   0  0  0  0  0  0  0  0  0  0  0  0
    8.0959  -13.5094   26.0098 C   0  0  1  0  0  0  0  0  0  0  0  0
    8.4760  -14.8642   26.4032 C   0  0  0  0  0  0  0  0  0  0  0  0
    7.6941  -15.8186   26.3021 O   0  0  0  0  0  0  0  0  0  0  0  0
    9.7665  -15.1528   26.9221 N   0  0  0  0  0  0  0  0  0  0  0  0
   10.2356  -16.5164   27.0810 C   0  0  1  0  0  0  0  0  0  0  0  0
   11.3581  -16.8851   26.1785 C   0  0  0  0  0  0  0  0  0  0  0  0
   11.9494  -18.2424   26.3754 C   0  0  0  0  0  0  0  0  0  0  0  0
   13.1082  -18.5386   25.5200 C   0  0  0  0  0  0  0  0  0  0  0  0
   13.5198  -17.6679   24.7161 O   0  0  0  0  0  0  0  0  0  0  0  0
   10.5475  -16.8184   28.4951 C   0  0  0  0  0  0  0  0  0  0  0  0
   10.5252  -15.8409   29.4746 O   0  0  0  0  0  0  0  0  0  0  0  0
   13.7773  -19.7701   25.5695 O   0  0  0  0  0  0  0  0  0  0  0  0
   10.8371  -17.9836   28.8207 O   0  0  0  0  0  0  0  0  0  0  0  0
  2  1  1  0
  3  2  1  0
  3  4  1  6
  5  3  1  0
  5  6  2  0
  7  5  1  0
  8  7  1  0
  9 10  1  0
  9  8  1  0
 10 11  1  0
 11  7  1  0
 11 12  1  6
 12 14  1  0
 13 12  2  0
 14 15  1  0
 15 16  1  6
 16 17  1  0
 17 18  1  0
 18 22  1  0
 19 18  2  0
 20 21  1  0
 20 15  1  0
 23 20  2  0
M  END
$$$$
