SPE.pdb
     RDKit          3D

 23 23  0  0  1  0  0  0  0  0999 V2000
    9.2632  -17.1503   16.8584 O   0  0  0  0  0  0  0  0  0  0  0  0
    8.3962  -16.3047   16.1615 C   0  0  0  0  0  0  0  0  0  0  0  0
    8.9380  -14.8695   16.2170 C   0  0  2  0  0  0  0  0  0  0  0  0
    9.8620  -14.7782   15.0881 N   0  0  0  0  0  0  0  0  0  0  0  0
    9.6378  -14.6287   17.5154 C   0  0  0  0  0  0  0  0  0  0  0  0
   10.7874  -15.1561   17.5812 O   0  0  0  0  0  0  0  0  0  0  0  0
    9.0319  -13.8773   18.5442 N   0  0  0  0  0  0  0  0  0  0  0  0
    7.9952  -12.8690   18.2333 C   0  0  0  0  0  0  0  0  0  0  0  0
    6.9033  -13.3682   19.1581 C   0  0  0  0  0  0  0  0  0  0  0  0
    7.6949  -13.6861   20.4192 C   0  0  0  0  0  0  0  0  0  0  0  0
    9.1652  -13.8164   19.9546 C   0  0  1  0  0  0  0  0  0  0  0  0
    9.7932  -14.9437   20.6396 C   0  0  0  0  0  0  0  0  0  0  0  0
    9.3551  -16.0972   20.5386 O   0  0  0  0  0  0  0  0  0  0  0  0
   10.9418  -14.7701   21.4574 N   0  0  0  0  0  0  0  0  0  0  0  0
   11.6074  -15.8966   22.0841 C   0  0  1  0  0  0  0  0  0  0  0  0
   13.0463  -16.0276   21.7336 C   0  0  0  0  0  0  0  0  0  0  0  0
   13.7753  -14.7581   21.4374 C   0  0  0  0  0  0  0  0  0  0  0  0
   15.2013  -14.9271   21.1208 C   0  0  0  0  0  0  0  0  0  0  0  0
   15.9655  -15.4407   21.9729 O   0  0  0  0  0  0  0  0  0  0  0  0
   11.3973  -15.9010   23.5483 C   0  0  0  0  0  0  0  0  0  0  0  0
   11.8915  -16.9105   24.3558 O   0  0  0  0  0  0  0  0  0  0  0  0
   15.7446  -14.5318   19.8898 O   0  0  0  0  0  0  0  0  0  0  0  0
   10.7606  -14.9718   24.0762 O   0  0  0  0  0  0  0  0  0  0  0  0
  2  1  1  0
  3  2  1  0
  3  4  1  6
  5  3  1  0
  5  6  2  0
  7  5  1  0
  8  7  1  0
  9 10  1  0
  9  8  1  0
 10 11  1  0
 11  7  1  0
 11 12  1  1
 12 14  1  0
 13 12  2  0
 14 15  1  0
 15 16  1  1
 16 17  1  0
 17 18  1  0
 18 22  1  0
 19 18  2  0
 20 21  1  0
 20 15  1  0
 23 20  2  0
M  END
$$$$
