SPE.pdb
     RDKit          3D

 23 23  0  0  1  0  0  0  0  0999 V2000
    7.3711  -17.4649   17.8133 O   0  0  0  0  0  0  0  0  0  0  0  0
    8.2079  -17.1690   16.7341 C   0  0  0  0  0  0  0  0  0  0  0  0
    8.6544  -15.7034   16.8288 C   0  0  2  0  0  0  0  0  0  0  0  0
    9.6189  -15.5390   15.7428 N   0  0  0  0  0  0  0  0  0  0  0  0
    9.2804  -15.4363   18.1593 C   0  0  0  0  0  0  0  0  0  0  0  0
   10.2177  -16.2362   18.4523 O   0  0  0  0  0  0  0  0  0  0  0  0
    8.8329  -14.3790   18.9790 N   0  0  0  0  0  0  0  0  0  0  0  0
    8.1986  -13.1807   18.3873 C   0  0  0  0  0  0  0  0  0  0  0  0
    6.9150  -13.1778   19.1927 C   0  0  0  0  0  0  0  0  0  0  0  0
    7.4318  -13.4942   20.5894 C   0  0  0  0  0  0  0  0  0  0  0  0
    8.8295  -14.1223   20.3735 C   0  0  1  0  0  0  0  0  0  0  0  0
    9.0012  -15.2508   21.2853 C   0  0  0  0  0  0  0  0  0  0  0  0
    8.2667  -16.2463   21.2401 O   0  0  0  0  0  0  0  0  0  0  0  0
   10.0239  -15.2605   22.2712 N   0  0  0  0  0  0  0  0  0  0  0  0
   10.2694  -16.4244   23.1019 C   0  0  1  0  0  0  0  0  0  0  0  0
   11.6505  -16.9658   23.0016 C   0  0  0  0  0  0  0  0  0  0  0  0
   12.7594  -16.0184   23.3233 C   0  0  0  0  0  0  0  0  0  0  0  0
   14.1106  -16.5769   23.1664 C   0  0  0  0  0  0  0  0  0  0  0  0
   14.2462  -17.7821   22.8453 O   0  0  0  0  0  0  0  0  0  0  0  0
    9.8785  -16.1767   24.5069 C   0  0  0  0  0  0  0  0  0  0  0  0
    9.4189  -14.9425   24.9323 O   0  0  0  0  0  0  0  0  0  0  0  0
   15.2648  -15.8054   23.3641 O   0  0  0  0  0  0  0  0  0  0  0  0
    9.9609  -17.1012   25.3353 O   0  0  0  0  0  0  0  0  0  0  0  0
  2  1  1  0
  3  2  1  0
  3  4  1  6
  5  3  1  0
  5  6  2  0
  7  5  1  0
  8  7  1  0
  9 10  1  0
  9  8  1  0
 10 11  1  0
 11  7  1  0
 11 12  1  1
 12 14  1  0
 13 12  2  0
 14 15  1  0
 15 16  1  1
 16 17  1  0
 17 18  1  0
 18 22  1  0
 19 18  2  0
 20 21  1  0
 20 15  1  0
 23 20  2  0
M  END
$$$$
