SPE.pdb
     RDKit          3D

 23 23  0  0  1  0  0  0  0  0999 V2000
    8.9866  -17.5940   16.9786 O   0  0  0  0  0  0  0  0  0  0  0  0
    8.0134  -16.6392   16.6726 C   0  0  0  0  0  0  0  0  0  0  0  0
    8.6861  -15.2703   16.4996 C   0  0  2  0  0  0  0  0  0  0  0  0
    9.5689  -15.4344   15.3462 N   0  0  0  0  0  0  0  0  0  0  0  0
    9.4562  -14.9113   17.7291 C   0  0  0  0  0  0  0  0  0  0  0  0
   10.5932  -15.4649   17.7992 O   0  0  0  0  0  0  0  0  0  0  0  0
    8.9228  -14.0328   18.6955 N   0  0  0  0  0  0  0  0  0  0  0  0
    7.9442  -12.9919   18.3120 C   0  0  0  0  0  0  0  0  0  0  0  0
    6.8452  -13.3343   19.2977 C   0  0  0  0  0  0  0  0  0  0  0  0
    7.6447  -13.5876   20.5683 C   0  0  0  0  0  0  0  0  0  0  0  0
    9.0927  -13.8537   20.0917 C   0  0  1  0  0  0  0  0  0  0  0  0
    9.6648  -14.9528   20.8658 C   0  0  0  0  0  0  0  0  0  0  0  0
    9.1803  -16.0918   20.8417 O   0  0  0  0  0  0  0  0  0  0  0  0
   10.8096  -14.7669   21.6862 N   0  0  0  0  0  0  0  0  0  0  0  0
   11.4095  -15.8676   22.4166 C   0  0  1  0  0  0  0  0  0  0  0  0
   12.8702  -15.7204   22.6514 C   0  0  0  0  0  0  0  0  0  0  0  0
   13.5441  -16.8457   23.3657 C   0  0  0  0  0  0  0  0  0  0  0  0
   14.9771  -16.6404   23.6236 C   0  0  0  0  0  0  0  0  0  0  0  0
   15.5172  -15.5614   23.2797 O   0  0  0  0  0  0  0  0  0  0  0  0
   10.6778  -16.1446   23.6720 C   0  0  0  0  0  0  0  0  0  0  0  0
   10.7731  -17.3631   24.3213 O   0  0  0  0  0  0  0  0  0  0  0  0
   15.7709  -17.6149   24.2455 O   0  0  0  0  0  0  0  0  0  0  0  0
    9.9557  -15.2599   24.1654 O   0  0  0  0  0  0  0  0  0  0  0  0
  2  1  1  0
  3  2  1  0
  3  4  1  6
  5  3  1  0
  5  6  2  0
  7  5  1  0
  8  7  1  0
  9 10  1  0
  9  8  1  0
 10 11  1  0
 11  7  1  0
 11 12  1  1
 12 14  1  0
 13 12  2  0
 14 15  1  0
 15 16  1  1
 16 17  1  0
 17 18  1  0
 18 22  1  0
 19 18  2  0
 20 21  1  0
 20 15  1  0
 23 20  2  0
M  END
$$$$
