LLD.pdb
     RDKit          3D

 25 24  0  0  1  0  0  0  0  0999 V2000
    8.4084  -12.5532   18.5229 C   0  0  0  0  0  0  0  0  0  0  0  0
    7.8327  -13.5910   19.4817 C   0  0  2  0  0  0  0  0  0  0  0  0
    6.8709  -12.8786   20.4055 C   0  0  0  0  0  0  0  0  0  0  0  0
    8.9487  -14.2422   20.2645 C   0  0  0  0  0  0  0  0  0  0  0  0
    8.5229  -15.3862   21.1183 C   0  0  2  0  0  0  0  0  0  0  0  0
    7.0660  -15.5129   20.9334 N   0  0  0  0  0  0  0  0  0  0  0  0
    8.8326  -15.2169   22.5674 C   0  0  0  0  0  0  0  0  0  0  0  0
   10.0432  -15.1207   22.9383 O   0  0  0  0  0  0  0  0  0  0  0  0
    7.9546  -12.0608   26.2793 C   0  0  0  0  0  0  0  0  0  0  0  0
    6.9224  -12.8846   25.6260 C   0  0  2  0  0  0  0  0  0  0  0  0
    5.5774  -12.6011   26.3437 C   0  0  0  0  0  0  0  0  0  0  0  0
    7.0578  -14.3360   25.5793 C   0  0  0  0  0  0  0  0  0  0  0  0
    8.2204  -15.0301   25.0108 C   0  0  2  0  0  0  0  0  0  0  0  0
    7.8532  -15.1561   23.5615 N   0  0  0  0  0  0  0  0  0  0  0  0
    8.6488  -16.3259   25.4906 C   0  0  0  0  0  0  0  0  0  0  0  0
    7.8163  -17.3278   25.3838 O   0  0  0  0  0  0  0  0  0  0  0  0
    9.8914  -16.6604   26.0651 N   0  0  0  0  0  0  0  0  0  0  0  0
   10.2214  -18.0718   26.3701 C   0  0  1  0  0  0  0  0  0  0  0  0
   11.3557  -18.5026   25.4568 C   0  0  0  0  0  0  0  0  0  0  0  0
   11.7120  -19.9024   25.7325 C   0  0  0  0  0  0  0  0  0  0  0  0
   11.1752  -20.6513   26.5867 O   0  0  0  0  0  0  0  0  0  0  0  0
   10.7059  -18.1400   27.7567 C   0  0  0  0  0  0  0  0  0  0  0  0
   10.8179  -17.0704   28.6314 O   0  0  0  0  0  0  0  0  0  0  0  0
   12.7511  -20.4835   24.9810 O   0  0  0  0  0  0  0  0  0  0  0  0
   11.0622  -19.2478   28.2321 O   0  0  0  0  0  0  0  0  0  0  0  0
  2  1  1  6
  2  3  1  0
  4  5  1  0
  4  2  1  0
  5  6  1  1
  5  7  1  0
  7  8  2  0
 10  9  1  1
 11 10  1  0
 12 10  1  0
 13 12  1  1
 14  7  1  0
 14 13  1  0
 15 13  1  0
 15 16  2  0
 17 15  1  0
 18 17  1  0
 18 22  1  0
 18 19  1  6
 20 24  1  0
 20 19  1  0
 21 20  2  0
 22 23  1  0
 25 22  2  0
M  END
$$$$
