LLD.pdb
     RDKit          3D

 25 24  0  0  1  0  0  0  0  0999 V2000
    9.1511  -14.0420   18.6022 C   0  0  0  0  0  0  0  0  0  0  0  0
    7.9028  -13.5277   19.3129 C   0  0  2  0  0  0  0  0  0  0  0  0
    7.5812  -12.1635   18.7459 C   0  0  0  0  0  0  0  0  0  0  0  0
    8.1549  -13.4469   20.8002 C   0  0  0  0  0  0  0  0  0  0  0  0
    8.4969  -14.7461   21.4437 C   0  0  2  0  0  0  0  0  0  0  0  0
    7.2840  -15.5786   21.3513 N   0  0  0  0  0  0  0  0  0  0  0  0
    8.9194  -14.6304   22.8694 C   0  0  0  0  0  0  0  0  0  0  0  0
   10.0625  -14.1498   23.1430 O   0  0  0  0  0  0  0  0  0  0  0  0
    7.9651  -11.8594   26.4639 C   0  0  0  0  0  0  0  0  0  0  0  0
    7.0271  -12.8860   25.9770 C   0  0  2  0  0  0  0  0  0  0  0  0
    5.7212  -12.7525   26.8023 C   0  0  0  0  0  0  0  0  0  0  0  0
    7.3909  -14.2976   26.0212 C   0  0  0  0  0  0  0  0  0  0  0  0
    8.5783  -14.8562   25.3619 C   0  0  2  0  0  0  0  0  0  0  0  0
    8.1189  -15.0259   23.9436 N   0  0  0  0  0  0  0  0  0  0  0  0
    9.1860  -16.0941   25.7992 C   0  0  0  0  0  0  0  0  0  0  0  0
    9.4500  -16.2344   27.0715 O   0  0  0  0  0  0  0  0  0  0  0  0
    9.5296  -17.2080   25.0071 N   0  0  0  0  0  0  0  0  0  0  0  0
   10.2023  -18.3805   25.6127 C   0  0  1  0  0  0  0  0  0  0  0  0
   11.5650  -18.5356   24.9608 C   0  0  0  0  0  0  0  0  0  0  0  0
   11.4009  -18.9010   23.5459 C   0  0  0  0  0  0  0  0  0  0  0  0
   10.3115  -19.0864   22.9480 O   0  0  0  0  0  0  0  0  0  0  0  0
   10.4129  -18.1011   27.0409 C   0  0  0  0  0  0  0  0  0  0  0  0
   10.8265  -19.0175   27.9952 O   0  0  0  0  0  0  0  0  0  0  0  0
   12.5600  -19.0651   22.7636 O   0  0  0  0  0  0  0  0  0  0  0  0
   10.2102  -16.9405   27.4791 O   0  0  0  0  0  0  0  0  0  0  0  0
  2  1  1  6
  2  3  1  0
  4  5  1  0
  4  2  1  0
  5  6  1  1
  5  7  1  0
  7  8  2  0
 10  9  1  1
 11 10  1  0
 12 10  1  0
 13 12  1  1
 14  7  1  0
 14 13  1  0
 15 13  1  0
 15 16  2  0
 17 15  1  0
 18 17  1  0
 18 22  1  0
 18 19  1  6
 20 24  1  0
 20 19  1  0
 21 20  2  0
 22 23  1  0
 25 22  2  0
M  END
$$$$
