LLD.pdb
     RDKit          3D

 25 24  0  0  1  0  0  0  0  0999 V2000
    6.4593  -18.7273   19.8786 C   0  0  0  0  0  0  0  0  0  0  0  0
    7.9001  -18.9961   20.3026 C   0  0  2  0  0  0  0  0  0  0  0  0
    8.0049  -20.4590   20.6699 C   0  0  0  0  0  0  0  0  0  0  0  0
    8.2620  -18.1186   21.4778 C   0  0  0  0  0  0  0  0  0  0  0  0
    8.1286  -16.6565   21.2256 C   0  0  2  0  0  0  0  0  0  0  0  0
    8.9304  -16.3758   20.0209 N   0  0  0  0  0  0  0  0  0  0  0  0
    8.5948  -15.7963   22.3512 C   0  0  0  0  0  0  0  0  0  0  0  0
    9.8089  -15.4265   22.3907 O   0  0  0  0  0  0  0  0  0  0  0  0
    5.7059  -12.5741   26.7444 C   0  0  0  0  0  0  0  0  0  0  0  0
    6.9922  -13.0851   26.2394 C   0  0  2  0  0  0  0  0  0  0  0  0
    7.9093  -11.8620   25.9795 C   0  0  0  0  0  0  0  0  0  0  0  0
    7.0398  -13.8914   25.0251 C   0  0  0  0  0  0  0  0  0  0  0  0
    8.2730  -14.4708   24.4771 C   0  0  2  0  0  0  0  0  0  0  0  0
    7.7612  -15.3637   23.3853 N   0  0  0  0  0  0  0  0  0  0  0  0
    9.1931  -15.2287   25.2968 C   0  0  0  0  0  0  0  0  0  0  0  0
   10.4625  -14.9221   25.2417 O   0  0  0  0  0  0  0  0  0  0  0  0
    8.8862  -16.2798   26.1839 N   0  0  0  0  0  0  0  0  0  0  0  0
    9.8395  -17.3958   26.3834 C   0  0  1  0  0  0  0  0  0  0  0  0
   11.0646  -17.1334   25.5253 C   0  0  0  0  0  0  0  0  0  0  0  0
   11.5032  -18.3842   24.8887 C   0  0  0  0  0  0  0  0  0  0  0  0
   10.9664  -19.5126   25.0198 O   0  0  0  0  0  0  0  0  0  0  0  0
   10.2634  -17.3905   27.7914 C   0  0  0  0  0  0  0  0  0  0  0  0
    9.8541  -16.4865   28.7593 O   0  0  0  0  0  0  0  0  0  0  0  0
   12.6305  -18.3409   24.0462 O   0  0  0  0  0  0  0  0  0  0  0  0
   11.0696  -18.2659   28.1964 O   0  0  0  0  0  0  0  0  0  0  0  0
  2  1  1  1
  2  3  1  0
  4  5  1  0
  4  2  1  0
  5  6  1  6
  5  7  1  0
  7  8  2  0
 10  9  1  6
 11 10  1  0
 12 10  1  0
 13 12  1  1
 14  7  1  0
 14 13  1  0
 15 13  1  0
 15 16  2  0
 17 15  1  0
 18 17  1  0
 18 22  1  0
 18 19  1  6
 20 24  1  0
 20 19  1  0
 21 20  2  0
 22 23  1  0
 25 22  2  0
M  END
$$$$
