LLD.pdb
     RDKit          3D

 25 24  0  0  1  0  0  0  0  0999 V2000
    8.4607  -14.2593   18.1408 C   0  0  0  0  0  0  0  0  0  0  0  0
    7.6268  -13.5341   19.1928 C   0  0  2  0  0  0  0  0  0  0  0  0
    7.3715  -12.1315   18.6890 C   0  0  0  0  0  0  0  0  0  0  0  0
    8.3695  -13.5070   20.5080 C   0  0  0  0  0  0  0  0  0  0  0  0
    8.4989  -14.8323   21.1756 C   0  0  2  0  0  0  0  0  0  0  0  0
    7.1981  -15.5040   21.0039 N   0  0  0  0  0  0  0  0  0  0  0  0
    8.8376  -14.7564   22.6261 C   0  0  0  0  0  0  0  0  0  0  0  0
    9.9618  -14.2832   22.9791 O   0  0  0  0  0  0  0  0  0  0  0  0
    8.2450  -12.4446   27.0857 C   0  0  0  0  0  0  0  0  0  0  0  0
    7.2182  -12.6523   26.0496 C   0  0  2  0  0  0  0  0  0  0  0  0
    5.8394  -12.3581   26.6951 C   0  0  0  0  0  0  0  0  0  0  0  0
    7.0878  -13.9463   25.3895 C   0  0  0  0  0  0  0  0  0  0  0  0
    8.2247  -14.8214   25.0757 C   0  0  2  0  0  0  0  0  0  0  0  0
    7.9768  -15.1822   23.6405 N   0  0  0  0  0  0  0  0  0  0  0  0
    8.4832  -16.0366   25.8168 C   0  0  0  0  0  0  0  0  0  0  0  0
    8.6751  -15.9421   27.1062 O   0  0  0  0  0  0  0  0  0  0  0  0
    8.5448  -17.3517   25.3140 N   0  0  0  0  0  0  0  0  0  0  0  0
    9.8253  -18.0962   25.3152 C   0  0  1  0  0  0  0  0  0  0  0  0
   10.7984  -17.3694   24.4036 C   0  0  0  0  0  0  0  0  0  0  0  0
   12.1012  -18.0511   24.4222 C   0  0  0  0  0  0  0  0  0  0  0  0
   12.4039  -19.0565   25.1122 O   0  0  0  0  0  0  0  0  0  0  0  0
   10.3729  -18.0644   26.6793 C   0  0  0  0  0  0  0  0  0  0  0  0
   10.9967  -19.1182   27.3288 O   0  0  0  0  0  0  0  0  0  0  0  0
   13.1252  -17.5491   23.5964 O   0  0  0  0  0  0  0  0  0  0  0  0
   10.2883  -17.0069   27.3537 O   0  0  0  0  0  0  0  0  0  0  0  0
  2  1  1  6
  2  3  1  0
  4  5  1  0
  4  2  1  0
  5  6  1  1
  5  7  1  0
  7  8  2  0
 10  9  1  1
 11 10  1  0
 12 10  1  0
 13 12  1  1
 14  7  1  0
 14 13  1  0
 15 13  1  0
 15 16  2  0
 17 15  1  0
 18 17  1  0
 18 22  1  0
 18 19  1  6
 20 24  1  0
 20 19  1  0
 21 20  2  0
 22 23  1  0
 25 22  2  0
M  END
$$$$
