LLD.pdb
     RDKit          3D

 25 24  0  0  1  0  0  0  0  0999 V2000
    8.6984  -13.9034   18.3853 C   0  0  0  0  0  0  0  0  0  0  0  0
    7.4716  -13.6888   19.2666 C   0  0  2  0  0  0  0  0  0  0  0  0
    6.6502  -12.5806   18.6476 C   0  0  0  0  0  0  0  0  0  0  0  0
    7.9030  -13.3215   20.6671 C   0  0  0  0  0  0  0  0  0  0  0  0
    8.6571  -14.3873   21.3843 C   0  0  2  0  0  0  0  0  0  0  0  0
    7.7953  -15.5829   21.3604 N   0  0  0  0  0  0  0  0  0  0  0  0
    9.0056  -14.0472   22.7941 C   0  0  0  0  0  0  0  0  0  0  0  0
    9.2546  -12.8403   23.1001 O   0  0  0  0  0  0  0  0  0  0  0  0
    5.8036  -12.6828   26.4866 C   0  0  0  0  0  0  0  0  0  0  0  0
    7.1060  -13.3702   26.5333 C   0  0  2  0  0  0  0  0  0  0  0  0
    8.1019  -12.4315   27.2624 C   0  0  0  0  0  0  0  0  0  0  0  0
    7.7672  -13.7819   25.3003 C   0  0  0  0  0  0  0  0  0  0  0  0
    8.9937  -14.5886   25.2612 C   0  0  2  0  0  0  0  0  0  0  0  0
    9.0762  -14.9938   23.8189 N   0  0  0  0  0  0  0  0  0  0  0  0
    9.1602  -15.7693   26.0804 C   0  0  0  0  0  0  0  0  0  0  0  0
    9.8856  -15.6701   27.1631 O   0  0  0  0  0  0  0  0  0  0  0  0
    8.6139  -17.0498   25.8611 N   0  0  0  0  0  0  0  0  0  0  0  0
    9.4999  -18.2141   25.6300 C   0  0  1  0  0  0  0  0  0  0  0  0
   10.4965  -17.8449   24.5452 C   0  0  0  0  0  0  0  0  0  0  0  0
   11.4488  -18.9479   24.3484 C   0  0  0  0  0  0  0  0  0  0  0  0
   11.4296  -20.0594   24.9338 O   0  0  0  0  0  0  0  0  0  0  0  0
   10.2519  -18.4706   26.8672 C   0  0  0  0  0  0  0  0  0  0  0  0
   11.1121  -19.5348   27.0889 O   0  0  0  0  0  0  0  0  0  0  0  0
   12.4920  -18.7669   23.4202 O   0  0  0  0  0  0  0  0  0  0  0  0
   10.1327  -17.6797   27.8370 O   0  0  0  0  0  0  0  0  0  0  0  0
  2  1  1  6
  2  3  1  0
  4  5  1  0
  4  2  1  0
  5  6  1  1
  5  7  1  0
  7  8  2  0
 10  9  1  6
 11 10  1  0
 12 10  1  0
 13 12  1  6
 14  7  1  0
 14 13  1  0
 15 13  1  0
 15 16  2  0
 17 15  1  0
 18 17  1  0
 18 22  1  0
 18 19  1  6
 20 24  1  0
 20 19  1  0
 21 20  2  0
 22 23  1  0
 25 22  2  0
M  END
$$$$
