LLD.pdb
     RDKit          3D

 25 24  0  0  1  0  0  0  0  0999 V2000
    8.5473  -14.3011   18.4675 C   0  0  0  0  0  0  0  0  0  0  0  0
    7.5722  -13.6164   19.4206 C   0  0  2  0  0  0  0  0  0  0  0  0
    7.2094  -12.2765   18.8214 C   0  0  0  0  0  0  0  0  0  0  0  0
    8.2152  -13.4435   20.7767 C   0  0  0  0  0  0  0  0  0  0  0  0
    8.5222  -14.7172   21.4854 C   0  0  2  0  0  0  0  0  0  0  0  0
    7.2934  -15.5285   21.4166 N   0  0  0  0  0  0  0  0  0  0  0  0
    8.9297  -14.5423   22.9094 C   0  0  0  0  0  0  0  0  0  0  0  0
   10.1074  -14.1496   23.1763 O   0  0  0  0  0  0  0  0  0  0  0  0
    7.7013  -11.6321   26.4618 C   0  0  0  0  0  0  0  0  0  0  0  0
    6.8555  -12.7448   25.9959 C   0  0  2  0  0  0  0  0  0  0  0  0
    5.5352  -12.6976   26.8079 C   0  0  0  0  0  0  0  0  0  0  0  0
    7.3334  -14.1201   26.0808 C   0  0  0  0  0  0  0  0  0  0  0  0
    8.5423  -14.6079   25.4046 C   0  0  2  0  0  0  0  0  0  0  0  0
    8.0784  -14.7887   23.9892 N   0  0  0  0  0  0  0  0  0  0  0  0
    9.2199  -15.8155   25.8237 C   0  0  0  0  0  0  0  0  0  0  0  0
    9.4647  -15.9733   27.0979 O   0  0  0  0  0  0  0  0  0  0  0  0
    9.6527  -16.8826   25.0113 N   0  0  0  0  0  0  0  0  0  0  0  0
   10.3498  -18.0452   25.6082 C   0  0  1  0  0  0  0  0  0  0  0  0
    9.7829  -19.3095   24.9867 C   0  0  0  0  0  0  0  0  0  0  0  0
   10.5014  -20.4835   25.5040 C   0  0  0  0  0  0  0  0  0  0  0  0
   10.8357  -20.6831   26.6986 O   0  0  0  0  0  0  0  0  0  0  0  0
   11.7726  -17.9618   25.2467 C   0  0  0  0  0  0  0  0  0  0  0  0
   12.8179  -18.5802   25.9148 O   0  0  0  0  0  0  0  0  0  0  0  0
   10.8611  -21.4961   24.5943 O   0  0  0  0  0  0  0  0  0  0  0  0
   12.1169  -17.2779   24.2497 O   0  0  0  0  0  0  0  0  0  0  0  0
  2  1  1  6
  2  3  1  0
  4  5  1  0
  4  2  1  0
  5  6  1  1
  5  7  1  0
  7  8  2  0
 10  9  1  1
 11 10  1  0
 12 10  1  0
 13 12  1  1
 14  7  1  0
 14 13  1  0
 15 13  1  0
 15 16  2  0
 17 15  1  0
 18 17  1  0
 18 22  1  0
 18 19  1  6
 20 24  1  0
 20 19  1  0
 21 20  2  0
 22 23  1  0
 25 22  2  0
M  END
$$$$
