LLD.pdb
     RDKit          3D

 25 24  0  0  1  0  0  0  0  0999 V2000
    6.6948  -20.9442   17.9357 C   0  0  0  0  0  0  0  0  0  0  0  0
    8.1912  -21.1986   17.7814 C   0  0  2  0  0  0  0  0  0  0  0  0
    8.5025  -22.5213   18.4445 C   0  0  0  0  0  0  0  0  0  0  0  0
    8.9721  -20.0768   18.4246 C   0  0  0  0  0  0  0  0  0  0  0  0
    8.6000  -18.7126   17.9559 C   0  0  2  0  0  0  0  0  0  0  0  0
    9.0685  -18.6188   16.5615 N   0  0  0  0  0  0  0  0  0  0  0  0
    9.1932  -17.6060   18.7608 C   0  0  0  0  0  0  0  0  0  0  0  0
   10.3650  -17.1984   18.4905 O   0  0  0  0  0  0  0  0  0  0  0  0
    8.1964  -12.8302   19.7558 C   0  0  0  0  0  0  0  0  0  0  0  0
    7.3855  -13.9851   20.1794 C   0  0  2  0  0  0  0  0  0  0  0  0
    6.1934  -13.4384   21.0067 C   0  0  0  0  0  0  0  0  0  0  0  0
    7.9796  -15.0491   20.9806 C   0  0  0  0  0  0  0  0  0  0  0  0
    9.1476  -15.8335   20.5598 C   0  0  2  0  0  0  0  0  0  0  0  0
    8.5255  -16.9777   19.8148 N   0  0  0  0  0  0  0  0  0  0  0  0
   10.0956  -16.3674   21.5133 C   0  0  0  0  0  0  0  0  0  0  0  0
    9.7874  -17.4762   22.1328 O   0  0  0  0  0  0  0  0  0  0  0  0
   11.3532  -15.8359   21.8624 N   0  0  0  0  0  0  0  0  0  0  0  0
   12.2562  -16.5796   22.7709 C   0  0  1  0  0  0  0  0  0  0  0  0
   13.6397  -15.9604   22.6775 C   0  0  0  0  0  0  0  0  0  0  0  0
   14.5792  -16.7120   23.5229 C   0  0  0  0  0  0  0  0  0  0  0  0
   14.3031  -17.7094   24.2353 O   0  0  0  0  0  0  0  0  0  0  0  0
   11.7717  -16.3995   24.1474 C   0  0  0  0  0  0  0  0  0  0  0  0
   11.9561  -17.2872   25.1960 O   0  0  0  0  0  0  0  0  0  0  0  0
   15.9235  -16.2947   23.5551 O   0  0  0  0  0  0  0  0  0  0  0  0
   11.1264  -15.3621   24.4437 O   0  0  0  0  0  0  0  0  0  0  0  0
  2  1  1  1
  2  3  1  0
  4  5  1  0
  4  2  1  0
  5  6  1  6
  5  7  1  0
  7  8  2  0
 10  9  1  1
 11 10  1  0
 12 10  1  0
 13 12  1  1
 14  7  1  0
 14 13  1  0
 15 13  1  0
 15 16  2  0
 17 15  1  0
 18 17  1  0
 18 22  1  0
 18 19  1  1
 20 24  1  0
 20 19  1  0
 21 20  2  0
 22 23  1  0
 25 22  2  0
M  END
$$$$
