LLD.pdb
     RDKit          3D

 25 24  0  0  1  0  0  0  0  0999 V2000
    5.0656  -20.4362   23.8227 C   0  0  0  0  0  0  0  0  0  0  0  0
    6.5812  -20.5769   23.7169 C   0  0  2  0  0  0  0  0  0  0  0  0
    7.0066  -21.6794   24.6600 C   0  0  0  0  0  0  0  0  0  0  0  0
    7.2452  -19.2700   24.0819 C   0  0  0  0  0  0  0  0  0  0  0  0
    6.8571  -18.1154   23.2244 C   0  0  2  0  0  0  0  0  0  0  0  0
    7.2503  -18.4776   21.8507 N   0  0  0  0  0  0  0  0  0  0  0  0
    7.5001  -16.8253   23.6074 C   0  0  0  0  0  0  0  0  0  0  0  0
    8.6555  -16.5483   23.1595 O   0  0  0  0  0  0  0  0  0  0  0  0
    7.9171  -12.0506   26.6209 C   0  0  0  0  0  0  0  0  0  0  0  0
    6.6956  -12.4480   25.8993 C   0  0  2  0  0  0  0  0  0  0  0  0
    5.4898  -12.1571   26.8298 C   0  0  0  0  0  0  0  0  0  0  0  0
    6.5267  -13.8204   25.4355 C   0  0  0  0  0  0  0  0  0  0  0  0
    7.6004  -14.6139   24.8238 C   0  0  2  0  0  0  0  0  0  0  0  0
    6.8971  -15.8841   24.4452 N   0  0  0  0  0  0  0  0  0  0  0  0
    8.8072  -14.9545   25.5453 C   0  0  0  0  0  0  0  0  0  0  0  0
    9.6869  -14.0105   25.7537 O   0  0  0  0  0  0  0  0  0  0  0  0
    9.1622  -16.2092   26.0797 N   0  0  0  0  0  0  0  0  0  0  0  0
   10.4156  -16.3681   26.8528 C   0  0  1  0  0  0  0  0  0  0  0  0
   10.0524  -16.5333   28.3181 C   0  0  0  0  0  0  0  0  0  0  0  0
   11.0899  -15.9193   29.1601 C   0  0  0  0  0  0  0  0  0  0  0  0
   12.1470  -15.3731   28.7567 O   0  0  0  0  0  0  0  0  0  0  0  0
   11.0753  -17.6045   26.4077 C   0  0  0  0  0  0  0  0  0  0  0  0
   10.5118  -18.8710   26.4083 O   0  0  0  0  0  0  0  0  0  0  0  0
   10.9054  -15.9310   30.5559 O   0  0  0  0  0  0  0  0  0  0  0  0
   12.2570  -17.5546   25.9820 O   0  0  0  0  0  0  0  0  0  0  0  0
  2  1  1  1
  2  3  1  0
  4  5  1  0
  4  2  1  0
  5  6  1  6
  5  7  1  0
  7  8  2  0
 10  9  1  1
 11 10  1  0
 12 10  1  0
 13 12  1  1
 14  7  1  0
 14 13  1  0
 15 13  1  0
 15 16  2  0
 17 15  1  0
 18 17  1  0
 18 22  1  0
 18 19  1  1
 20 24  1  0
 20 19  1  0
 21 20  2  0
 22 23  1  0
 25 22  2  0
M  END
$$$$
