LLD.pdb
     RDKit          3D

 25 24  0  0  1  0  0  0  0  0999 V2000
    8.0179  -14.1751   18.3699 C   0  0  0  0  0  0  0  0  0  0  0  0
    7.5618  -13.3629   19.5784 C   0  0  2  0  0  0  0  0  0  0  0  0
    7.4747  -11.9150   19.1517 C   0  0  0  0  0  0  0  0  0  0  0  0
    8.5459  -13.5318   20.7120 C   0  0  0  0  0  0  0  0  0  0  0  0
    8.5222  -14.8728   21.3604 C   0  0  2  0  0  0  0  0  0  0  0  0
    7.1518  -15.3865   21.1844 N   0  0  0  0  0  0  0  0  0  0  0  0
    8.8707  -14.8576   22.8105 C   0  0  0  0  0  0  0  0  0  0  0  0
   10.0668  -14.6147   23.1609 O   0  0  0  0  0  0  0  0  0  0  0  0
    8.1990  -12.1388   26.6119 C   0  0  0  0  0  0  0  0  0  0  0  0
    7.1621  -12.9560   25.9578 C   0  0  2  0  0  0  0  0  0  0  0  0
    5.8122  -12.6375   26.6512 C   0  0  0  0  0  0  0  0  0  0  0  0
    7.2731  -14.4100   25.9374 C   0  0  0  0  0  0  0  0  0  0  0  0
    8.3596  -15.1370   25.2683 C   0  0  2  0  0  0  0  0  0  0  0  0
    7.9436  -15.0987   23.8272 N   0  0  0  0  0  0  0  0  0  0  0  0
    8.6945  -16.5014   25.6136 C   0  0  0  0  0  0  0  0  0  0  0  0
    8.1929  -17.4621   24.8830 O   0  0  0  0  0  0  0  0  0  0  0  0
    9.5277  -16.9415   26.6616 N   0  0  0  0  0  0  0  0  0  0  0  0
   10.2208  -18.2474   26.5711 C   0  0  1  0  0  0  0  0  0  0  0  0
   11.2336  -18.1706   25.4421 C   0  0  0  0  0  0  0  0  0  0  0  0
   11.9940  -19.4271   25.3697 C   0  0  0  0  0  0  0  0  0  0  0  0
   11.5174  -20.5741   25.1804 O   0  0  0  0  0  0  0  0  0  0  0  0
   10.9568  -18.4635   27.8255 C   0  0  0  0  0  0  0  0  0  0  0  0
   11.1859  -17.5119   28.8070 O   0  0  0  0  0  0  0  0  0  0  0  0
   13.3922  -19.3670   25.5239 O   0  0  0  0  0  0  0  0  0  0  0  0
   11.4399  -19.5981   28.0699 O   0  0  0  0  0  0  0  0  0  0  0  0
  2  1  1  6
  2  3  1  0
  4  5  1  0
  4  2  1  0
  5  6  1  1
  5  7  1  0
  7  8  2  0
 10  9  1  1
 11 10  1  0
 12 10  1  0
 13 12  1  1
 14  7  1  0
 14 13  1  0
 15 13  1  0
 15 16  2  0
 17 15  1  0
 18 17  1  0
 18 22  1  0
 18 19  1  6
 20 24  1  0
 20 19  1  0
 21 20  2  0
 22 23  1  0
 25 22  2  0
M  END
$$$$
