LLD.pdb
     RDKit          3D

 25 24  0  0  1  0  0  0  0  0999 V2000
    8.6222  -14.1278   18.3648 C   0  0  0  0  0  0  0  0  0  0  0  0
    7.7426  -13.3149   19.3100 C   0  0  2  0  0  0  0  0  0  0  0  0
    7.7259  -11.8886   18.8084 C   0  0  0  0  0  0  0  0  0  0  0  0
    8.2952  -13.3854   20.7142 C   0  0  0  0  0  0  0  0  0  0  0  0
    8.3740  -14.7602   21.2824 C   0  0  2  0  0  0  0  0  0  0  0  0
    7.0258  -15.3386   21.1385 N   0  0  0  0  0  0  0  0  0  0  0  0
    8.7912  -14.8079   22.7135 C   0  0  0  0  0  0  0  0  0  0  0  0
   10.0203  -14.6870   23.0081 O   0  0  0  0  0  0  0  0  0  0  0  0
    8.2853  -12.1061   26.6574 C   0  0  0  0  0  0  0  0  0  0  0  0
    7.2000  -12.8753   26.0241 C   0  0  2  0  0  0  0  0  0  0  0  0
    5.9001  -12.5874   26.8190 C   0  0  0  0  0  0  0  0  0  0  0  0
    7.2927  -14.3265   25.9124 C   0  0  0  0  0  0  0  0  0  0  0  0
    8.3674  -15.0235   25.1943 C   0  0  2  0  0  0  0  0  0  0  0  0
    7.8948  -14.9808   23.7708 N   0  0  0  0  0  0  0  0  0  0  0  0
    8.7446  -16.3834   25.5124 C   0  0  0  0  0  0  0  0  0  0  0  0
    7.8325  -17.3144   25.4134 O   0  0  0  0  0  0  0  0  0  0  0  0
   10.0114  -16.8505   25.9163 N   0  0  0  0  0  0  0  0  0  0  0  0
   10.2337  -18.2928   26.1696 C   0  0  1  0  0  0  0  0  0  0  0  0
   11.0890  -18.8467   25.0435 C   0  0  0  0  0  0  0  0  0  0  0  0
   12.2918  -18.0172   24.8783 C   0  0  0  0  0  0  0  0  0  0  0  0
   12.3769  -16.9566   24.2101 O   0  0  0  0  0  0  0  0  0  0  0  0
   10.9922  -18.4268   27.4220 C   0  0  0  0  0  0  0  0  0  0  0  0
   11.3426  -19.6194   28.0356 O   0  0  0  0  0  0  0  0  0  0  0  0
   13.4755  -18.4285   25.5203 O   0  0  0  0  0  0  0  0  0  0  0  0
   11.3761  -17.3925   28.0246 O   0  0  0  0  0  0  0  0  0  0  0  0
  2  1  1  6
  2  3  1  0
  4  5  1  0
  4  2  1  0
  5  6  1  1
  5  7  1  0
  7  8  2  0
 10  9  1  1
 11 10  1  0
 12 10  1  0
 13 12  1  1
 14  7  1  0
 14 13  1  0
 15 13  1  0
 15 16  2  0
 17 15  1  0
 18 17  1  0
 18 22  1  0
 18 19  1  6
 20 24  1  0
 20 19  1  0
 21 20  2  0
 22 23  1  0
 25 22  2  0
M  END
$$$$
