LLD.pdb
     RDKit          3D

 25 24  0  0  1  0  0  0  0  0999 V2000
    6.3738  -16.9983   19.5350 C   0  0  0  0  0  0  0  0  0  0  0  0
    7.6541  -17.5888   20.1183 C   0  0  2  0  0  0  0  0  0  0  0  0
    7.4634  -19.0851   20.2222 C   0  0  0  0  0  0  0  0  0  0  0  0
    7.9262  -16.9851   21.4761 C   0  0  0  0  0  0  0  0  0  0  0  0
    7.9808  -15.4966   21.4944 C   0  0  2  0  0  0  0  0  0  0  0  0
    8.8605  -15.1072   20.3776 N   0  0  0  0  0  0  0  0  0  0  0  0
    8.4997  -14.9189   22.7677 C   0  0  0  0  0  0  0  0  0  0  0  0
    9.7420  -14.6833   22.8839 O   0  0  0  0  0  0  0  0  0  0  0  0
    7.6421  -11.0438   25.7470 C   0  0  0  0  0  0  0  0  0  0  0  0
    6.7051  -12.1670   25.5708 C   0  0  2  0  0  0  0  0  0  0  0  0
    5.4894  -11.9090   26.4982 C   0  0  0  0  0  0  0  0  0  0  0  0
    7.1347  -13.5348   25.8385 C   0  0  0  0  0  0  0  0  0  0  0  0
    8.2742  -14.1783   25.1720 C   0  0  2  0  0  0  0  0  0  0  0  0
    7.6867  -14.6147   23.8622 N   0  0  0  0  0  0  0  0  0  0  0  0
    8.9708  -15.3016   25.7600 C   0  0  0  0  0  0  0  0  0  0  0  0
    9.4924  -15.1487   26.9487 O   0  0  0  0  0  0  0  0  0  0  0  0
    9.1550  -16.5835   25.2042 N   0  0  0  0  0  0  0  0  0  0  0  0
    9.9237  -17.6158   25.9371 C   0  0  1  0  0  0  0  0  0  0  0  0
    9.4068  -18.9806   25.5173 C   0  0  0  0  0  0  0  0  0  0  0  0
   10.2252  -20.0343   26.1356 C   0  0  0  0  0  0  0  0  0  0  0  0
   11.4070  -20.3322   25.8305 O   0  0  0  0  0  0  0  0  0  0  0  0
   11.3315  -17.5184   25.5242 C   0  0  0  0  0  0  0  0  0  0  0  0
   12.4277  -17.9092   26.2774 O   0  0  0  0  0  0  0  0  0  0  0  0
    9.6534  -20.7973   27.1716 O   0  0  0  0  0  0  0  0  0  0  0  0
   11.6119  -17.0427   24.3949 O   0  0  0  0  0  0  0  0  0  0  0  0
  2  1  1  1
  2  3  1  0
  4  5  1  0
  4  2  1  0
  5  6  1  6
  5  7  1  0
  7  8  2  0
 10  9  1  1
 11 10  1  0
 12 10  1  0
 13 12  1  1
 14  7  1  0
 14 13  1  0
 15 13  1  0
 15 16  2  0
 17 15  1  0
 18 17  1  0
 18 22  1  0
 18 19  1  6
 20 24  1  0
 20 19  1  0
 21 20  2  0
 22 23  1  0
 25 22  2  0
M  END
$$$$
