LLD.pdb
     RDKit          3D

 25 24  0  0  1  0  0  0  0  0999 V2000
    7.1509  -18.8661   20.1942 C   0  0  0  0  0  0  0  0  0  0  0  0
    8.5974  -18.9106   20.6773 C   0  0  2  0  0  0  0  0  0  0  0  0
    8.9022  -20.3350   21.0826 C   0  0  0  0  0  0  0  0  0  0  0  0
    8.7786  -17.9683   21.8441 C   0  0  0  0  0  0  0  0  0  0  0  0
    8.5518  -16.5315   21.5231 C   0  0  2  0  0  0  0  0  0  0  0  0
    9.4153  -16.2308   20.3669 N   0  0  0  0  0  0  0  0  0  0  0  0
    8.8671  -15.5972   22.6421 C   0  0  0  0  0  0  0  0  0  0  0  0
   10.0562  -15.1753   22.7846 O   0  0  0  0  0  0  0  0  0  0  0  0
    5.5120  -12.5971   26.8669 C   0  0  0  0  0  0  0  0  0  0  0  0
    6.8558  -12.8762   26.3311 C   0  0  2  0  0  0  0  0  0  0  0  0
    7.5076  -11.5146   25.9765 C   0  0  0  0  0  0  0  0  0  0  0  0
    7.0193  -13.7215   25.1539 C   0  0  0  0  0  0  0  0  0  0  0  0
    8.3044  -14.2924   24.7303 C   0  0  2  0  0  0  0  0  0  0  0  0
    7.9156  -15.1488   23.5613 N   0  0  0  0  0  0  0  0  0  0  0  0
    9.1242  -15.0804   25.6246 C   0  0  0  0  0  0  0  0  0  0  0  0
    9.6661  -14.4810   26.6519 O   0  0  0  0  0  0  0  0  0  0  0  0
    9.4131  -16.4569   25.5349 N   0  0  0  0  0  0  0  0  0  0  0  0
   10.3171  -17.0994   26.5166 C   0  0  1  0  0  0  0  0  0  0  0  0
    9.5636  -18.2374   27.1826 C   0  0  0  0  0  0  0  0  0  0  0  0
   10.4616  -18.9627   28.0936 C   0  0  0  0  0  0  0  0  0  0  0  0
   11.2871  -19.8530   27.7703 O   0  0  0  0  0  0  0  0  0  0  0  0
   11.4537  -17.6767   25.7839 C   0  0  0  0  0  0  0  0  0  0  0  0
   12.7662  -17.7238   26.2273 O   0  0  0  0  0  0  0  0  0  0  0  0
   10.4116  -18.6483   29.4651 O   0  0  0  0  0  0  0  0  0  0  0  0
   11.2633  -18.1827   24.6490 O   0  0  0  0  0  0  0  0  0  0  0  0
  2  1  1  1
  2  3  1  0
  4  5  1  0
  4  2  1  0
  5  6  1  6
  5  7  1  0
  7  8  2  0
 10  9  1  6
 11 10  1  0
 12 10  1  0
 13 12  1  1
 14  7  1  0
 14 13  1  0
 15 13  1  0
 15 16  2  0
 17 15  1  0
 18 17  1  0
 18 22  1  0
 18 19  1  6
 20 24  1  0
 20 19  1  0
 21 20  2  0
 22 23  1  0
 25 22  2  0
M  END
$$$$
