LLD.pdb
     RDKit          3D

 25 24  0  0  1  0  0  0  0  0999 V2000
    8.5886  -14.6123   18.5509 C   0  0  0  0  0  0  0  0  0  0  0  0
    7.6500  -13.8176   19.4539 C   0  0  2  0  0  0  0  0  0  0  0  0
    7.3039  -12.5317   18.7378 C   0  0  0  0  0  0  0  0  0  0  0  0
    8.3262  -13.5332   20.7745 C   0  0  0  0  0  0  0  0  0  0  0  0
    8.6335  -14.7426   21.5881 C   0  0  2  0  0  0  0  0  0  0  0  0
    7.4142  -15.5706   21.5642 N   0  0  0  0  0  0  0  0  0  0  0  0
    9.0144  -14.4498   23.0001 C   0  0  0  0  0  0  0  0  0  0  0  0
   10.1209  -13.8751   23.2401 O   0  0  0  0  0  0  0  0  0  0  0  0
    7.6891  -11.5634   26.5122 C   0  0  0  0  0  0  0  0  0  0  0  0
    6.8830  -12.7153   26.0715 C   0  0  2  0  0  0  0  0  0  0  0  0
    5.5775  -12.7174   26.9083 C   0  0  0  0  0  0  0  0  0  0  0  0
    7.4210  -14.0681   26.1582 C   0  0  0  0  0  0  0  0  0  0  0  0
    8.6621  -14.4973   25.5008 C   0  0  2  0  0  0  0  0  0  0  0  0
    8.2125  -14.7754   24.0966 N   0  0  0  0  0  0  0  0  0  0  0  0
    9.4254  -15.6323   25.9720 C   0  0  0  0  0  0  0  0  0  0  0  0
    9.8080  -15.6408   27.2218 O   0  0  0  0  0  0  0  0  0  0  0  0
    9.8114  -16.7714   25.2374 N   0  0  0  0  0  0  0  0  0  0  0  0
   10.6129  -17.8404   25.8767 C   0  0  1  0  0  0  0  0  0  0  0  0
    9.8809  -19.1581   25.6920 C   0  0  0  0  0  0  0  0  0  0  0  0
    9.8450  -19.8901   26.9668 C   0  0  0  0  0  0  0  0  0  0  0  0
   10.3568  -19.5176   28.0521 O   0  0  0  0  0  0  0  0  0  0  0  0
   11.8989  -17.9340   25.1700 C   0  0  0  0  0  0  0  0  0  0  0  0
   12.2052  -17.3344   23.9583 O   0  0  0  0  0  0  0  0  0  0  0  0
    9.1794  -21.1304   27.0019 O   0  0  0  0  0  0  0  0  0  0  0  0
   12.8321  -18.6093   25.6735 O   0  0  0  0  0  0  0  0  0  0  0  0
  2  1  1  6
  2  3  1  0
  4  5  1  0
  4  2  1  0
  5  6  1  1
  5  7  1  0
  7  8  2  0
 10  9  1  1
 11 10  1  0
 12 10  1  0
 13 12  1  1
 14  7  1  0
 14 13  1  0
 15 13  1  0
 15 16  2  0
 17 15  1  0
 18 17  1  0
 18 22  1  0
 18 19  1  6
 20 24  1  0
 20 19  1  0
 21 20  2  0
 22 23  1  0
 25 22  2  0
M  END
$$$$
