EMF.pdb
     RDKit          3D

 29 29  0  0  1  0  0  0  0  0999 V2000
   26.6370  -18.7684  -15.7419 N   0  0  0  0  0  0  0  0  0  0  0  0
   26.8975  -19.8504  -14.8100 C   0  0  1  0  0  0  0  0  0  0  0  0
   28.4066  -19.9993  -14.6891 C   0  0  0  0  0  0  0  0  0  0  0  0
   28.9346  -20.4868  -16.0345 C   0  0  0  0  0  0  0  0  0  0  0  0
   28.5524  -21.9131  -16.2386 C   0  0  0  0  0  0  0  0  0  0  0  0
   28.8361  -22.7933  -15.3763 O   0  0  0  0  0  0  0  0  0  0  0  0
   26.2646  -19.5244  -13.5147 C   0  0  0  0  0  0  0  0  0  0  0  0
   26.2984  -18.3371  -13.1158 O   0  0  0  0  0  0  0  0  0  0  0  0
   27.8753  -22.3410  -17.3695 O   0  0  0  0  0  0  0  0  0  0  0  0
   20.2365  -20.6861  -11.0935 C   0  0  0  0  0  0  0  0  0  0  0  0
   21.0678  -20.8979  -12.6541 S   0  0  0  0  0  0  0  0  0  0  0  0
   22.7597  -20.3193  -12.6649 C   0  0  0  0  0  0  0  0  0  0  0  0
   23.5830  -20.6948  -11.4731 C   0  0  0  0  0  0  0  0  0  0  0  0
   24.9944  -20.2015  -11.4507 C   0  0  2  0  0  0  0  0  0  0  0  0
   25.6352  -20.5207  -12.7392 N   0  0  0  0  0  0  0  0  0  0  0  0
   25.7833  -20.9441  -10.3977 C   0  0  0  0  0  0  0  0  0  0  0  0
   26.0861  -22.1523  -10.4811 O   0  0  0  0  0  0  0  0  0  0  0  0
   26.2413  -20.2733   -9.2045 N   0  0  0  0  0  0  0  0  0  0  0  0
   26.8854  -21.0025   -8.1175 C   0  0  1  0  0  0  0  0  0  0  0  0
   28.2687  -20.5138   -7.8690 C   0  0  0  0  0  0  0  0  0  0  0  0
   28.4538  -20.0651   -6.4780 C   0  0  0  0  0  0  0  0  0  0  0  0
   29.0436  -20.8445   -5.4857 C   0  0  0  0  0  0  0  0  0  0  0  0
   29.2081  -20.4089   -4.1892 C   0  0  0  0  0  0  0  0  0  0  0  0
   28.7822  -19.1599   -3.8334 C   0  0  0  0  0  0  0  0  0  0  0  0
   28.1974  -18.3560   -4.7687 C   0  0  0  0  0  0  0  0  0  0  0  0
   28.0395  -18.8036   -6.0597 C   0  0  0  0  0  0  0  0  0  0  0  0
   26.0179  -21.0743   -6.9298 C   0  0  0  0  0  0  0  0  0  0  0  0
   26.2481  -21.9850   -5.9302 O   0  0  0  0  0  0  0  0  0  0  0  0
   25.0466  -20.2889   -6.8281 O   0  0  0  0  0  0  0  0  0  0  0  0
  2  1  1  6
  2  7  1  0
  2  3  1  0
  3  4  1  0
  4  5  1  0
  5  9  1  0
  5  6  2  0
  7  8  2  0
 10 11  1  0
 11 12  1  0
 12 13  1  0
 14 13  1  6
 14 15  1  0
 15  7  1  0
 16 14  1  0
 17 16  2  0
 18 16  1  0
 19 27  1  0
 19 18  1  0
 19 20  1  1
 21 20  1  0
 22 21  2  0
 23 22  1  0
 24 23  2  0
 24 25  1  0
 25 26  2  0
 26 21  1  0
 27 28  1  0
 29 27  2  0
M  END
$$$$
