EMF.pdb
     RDKit          3D

 29 29  0  0  1  0  0  0  0  0999 V2000
   19.3320  -11.4720  -17.7041 N   0  0  0  0  0  0  0  0  0  0  0  0
   18.7144  -11.1025  -16.4435 C   0  0  1  0  0  0  0  0  0  0  0  0
   18.0441  -12.3457  -15.8784 C   0  0  0  0  0  0  0  0  0  0  0  0
   17.1559  -12.9318  -16.9711 C   0  0  0  0  0  0  0  0  0  0  0  0
   17.1569  -14.4195  -16.8768 C   0  0  0  0  0  0  0  0  0  0  0  0
   16.4297  -15.1209  -17.6371 O   0  0  0  0  0  0  0  0  0  0  0  0
   19.7581  -10.5734  -15.5403 C   0  0  0  0  0  0  0  0  0  0  0  0
   19.4312  -10.2517  -14.3742 O   0  0  0  0  0  0  0  0  0  0  0  0
   17.9450  -15.1005  -15.9626 O   0  0  0  0  0  0  0  0  0  0  0  0
   25.5976  -14.1718  -15.4129 C   0  0  0  0  0  0  0  0  0  0  0  0
   25.2914  -12.4689  -15.8340 S   0  0  0  0  0  0  0  0  0  0  0  0
   23.7482  -11.8256  -15.1997 C   0  0  0  0  0  0  0  0  0  0  0  0
   23.4657  -10.3894  -15.5104 C   0  0  0  0  0  0  0  0  0  0  0  0
   22.1300   -9.8630  -15.0923 C   0  0  2  0  0  0  0  0  0  0  0  0
   21.0931  -10.4303  -15.9730 N   0  0  0  0  0  0  0  0  0  0  0  0
   22.0782   -8.3671  -15.2976 C   0  0  0  0  0  0  0  0  0  0  0  0
   21.9588   -7.8238  -16.4152 O   0  0  0  0  0  0  0  0  0  0  0  0
   22.1670   -7.4617  -14.1769 N   0  0  0  0  0  0  0  0  0  0  0  0
   21.9596   -6.0265  -14.3359 C   0  0  1  0  0  0  0  0  0  0  0  0
   20.7150   -5.7298  -15.0955 C   0  0  0  0  0  0  0  0  0  0  0  0
   20.5126   -4.2821  -15.2793 C   0  0  0  0  0  0  0  0  0  0  0  0
   21.3462   -3.4763  -16.0511 C   0  0  0  0  0  0  0  0  0  0  0  0
   21.1423   -2.1233  -16.2114 C   0  0  0  0  0  0  0  0  0  0  0  0
   20.0818   -1.5190  -15.5965 C   0  0  0  0  0  0  0  0  0  0  0  0
   19.2345   -2.2642  -14.8286 C   0  0  0  0  0  0  0  0  0  0  0  0
   19.4499   -3.6143  -14.6771 C   0  0  0  0  0  0  0  0  0  0  0  0
   22.1009   -5.3173  -13.0531 C   0  0  0  0  0  0  0  0  0  0  0  0
   22.6138   -4.0467  -12.9913 O   0  0  0  0  0  0  0  0  0  0  0  0
   21.7473   -5.8850  -11.9933 O   0  0  0  0  0  0  0  0  0  0  0  0
  2  1  1  6
  2  7  1  0
  2  3  1  0
  3  4  1  0
  4  5  1  0
  5  9  1  0
  5  6  2  0
  7  8  2  0
 10 11  1  0
 11 12  1  0
 12 13  1  0
 14 13  1  6
 14 15  1  0
 15  7  1  0
 16 14  1  0
 17 16  2  0
 18 16  1  0
 19 27  1  0
 19 18  1  0
 19 20  1  1
 21 20  1  0
 22 21  2  0
 23 22  1  0
 24 23  2  0
 24 25  1  0
 25 26  2  0
 26 21  1  0
 27 28  1  0
 29 27  2  0
M  END
$$$$
