EMF.pdb
     RDKit          3D

 29 29  0  0  1  0  0  0  0  0999 V2000
   27.0911  -21.0054  -15.5411 N   0  0  0  0  0  0  0  0  0  0  0  0
   27.4022  -20.1224  -14.4318 C   0  0  1  0  0  0  0  0  0  0  0  0
   26.2913  -19.0869  -14.3431 C   0  0  0  0  0  0  0  0  0  0  0  0
   25.2476  -19.4337  -15.4000 C   0  0  0  0  0  0  0  0  0  0  0  0
   24.1973  -18.3766  -15.4364 C   0  0  0  0  0  0  0  0  0  0  0  0
   23.0960  -18.5315  -14.8346 O   0  0  0  0  0  0  0  0  0  0  0  0
   27.5109  -20.9294  -13.1982 C   0  0  0  0  0  0  0  0  0  0  0  0
   26.7840  -21.9435  -13.0823 O   0  0  0  0  0  0  0  0  0  0  0  0
   24.3724  -17.1856  -16.1231 O   0  0  0  0  0  0  0  0  0  0  0  0
   33.8330  -22.6178  -11.1017 C   0  0  0  0  0  0  0  0  0  0  0  0
   32.5623  -21.6524  -10.3116 S   0  0  0  0  0  0  0  0  0  0  0  0
   30.9093  -22.0009  -10.8978 C   0  0  0  0  0  0  0  0  0  0  0  0
   29.8183  -21.1702  -10.2988 C   0  0  0  0  0  0  0  0  0  0  0  0
   28.4567  -21.3177  -10.8990 C   0  0  2  0  0  0  0  0  0  0  0  0
   28.4091  -20.5733  -12.1703 N   0  0  0  0  0  0  0  0  0  0  0  0
   27.4253  -20.6753  -10.0012 C   0  0  0  0  0  0  0  0  0  0  0  0
   27.1127  -19.4680  -10.0565 O   0  0  0  0  0  0  0  0  0  0  0  0
   26.7271  -21.4491   -9.0025 N   0  0  0  0  0  0  0  0  0  0  0  0
   25.7100  -20.8502   -8.1452 C   0  0  1  0  0  0  0  0  0  0  0  0
   26.1800  -19.5748   -7.5398 C   0  0  0  0  0  0  0  0  0  0  0  0
   27.1552  -19.8033   -6.4594 C   0  0  0  0  0  0  0  0  0  0  0  0
   27.2918  -21.0134   -5.7836 C   0  0  0  0  0  0  0  0  0  0  0  0
   28.2090  -21.2093   -4.7747 C   0  0  0  0  0  0  0  0  0  0  0  0
   29.0348  -20.1866   -4.4000 C   0  0  0  0  0  0  0  0  0  0  0  0
   28.9413  -18.9799   -5.0309 C   0  0  0  0  0  0  0  0  0  0  0  0
   28.0209  -18.7982   -6.0368 C   0  0  0  0  0  0  0  0  0  0  0  0
   24.4051  -20.7839   -8.8244 C   0  0  0  0  0  0  0  0  0  0  0  0
   23.2485  -20.5404   -8.1286 O   0  0  0  0  0  0  0  0  0  0  0  0
   24.3469  -20.9548  -10.0645 O   0  0  0  0  0  0  0  0  0  0  0  0
  2  1  1  6
  2  7  1  0
  2  3  1  0
  3  4  1  0
  4  5  1  0
  5  9  1  0
  5  6  2  0
  7  8  2  0
 10 11  1  0
 11 12  1  0
 12 13  1  0
 14 13  1  1
 14 15  1  0
 15  7  1  0
 16 14  1  0
 17 16  2  0
 18 16  1  0
 19 27  1  0
 19 18  1  0
 19 20  1  6
 21 20  1  0
 22 21  2  0
 23 22  1  0
 24 23  2  0
 24 25  1  0
 25 26  2  0
 26 21  1  0
 27 28  1  0
 29 27  2  0
M  END
$$$$
