EMF.pdb
     RDKit          3D

 29 29  0  0  1  0  0  0  0  0999 V2000
   28.5393  -21.4286  -15.4283 N   0  0  0  0  0  0  0  0  0  0  0  0
   28.0899  -20.4157  -14.4907 C   0  0  1  0  0  0  0  0  0  0  0  0
   27.4378  -19.3015  -15.2955 C   0  0  0  0  0  0  0  0  0  0  0  0
   28.5300  -18.6170  -16.1110 C   0  0  0  0  0  0  0  0  0  0  0  0
   28.0419  -18.3677  -17.4972 C   0  0  0  0  0  0  0  0  0  0  0  0
   27.0464  -17.6182  -17.7124 O   0  0  0  0  0  0  0  0  0  0  0  0
   27.1485  -21.0369  -13.5353 C   0  0  0  0  0  0  0  0  0  0  0  0
   26.3652  -21.9191  -13.9573 O   0  0  0  0  0  0  0  0  0  0  0  0
   28.6468  -18.9374  -18.6062 O   0  0  0  0  0  0  0  0  0  0  0  0
   27.4780  -19.7694   -7.0187 C   0  0  0  0  0  0  0  0  0  0  0  0
   25.8920  -20.5706   -7.1353 S   0  0  0  0  0  0  0  0  0  0  0  0
   25.4540  -21.0863   -8.7905 C   0  0  0  0  0  0  0  0  0  0  0  0
   26.3952  -20.6629   -9.8740 C   0  0  0  0  0  0  0  0  0  0  0  0
   26.0931  -21.1529  -11.2540 C   0  0  2  0  0  0  0  0  0  0  0  0
   27.1257  -20.6512  -12.1785 N   0  0  0  0  0  0  0  0  0  0  0  0
   24.7850  -20.5685  -11.7337 C   0  0  0  0  0  0  0  0  0  0  0  0
   24.6305  -19.3665  -12.0335 O   0  0  0  0  0  0  0  0  0  0  0  0
   23.6108  -21.3961  -11.8739 N   0  0  0  0  0  0  0  0  0  0  0  0
   22.3774  -20.8798  -12.4573 C   0  0  1  0  0  0  0  0  0  0  0  0
   22.3945  -20.9587  -13.9431 C   0  0  0  0  0  0  0  0  0  0  0  0
   21.1267  -20.4974  -14.5349 C   0  0  0  0  0  0  0  0  0  0  0  0
   20.8428  -19.1623  -14.8119 C   0  0  0  0  0  0  0  0  0  0  0  0
   19.6510  -18.7485  -15.3650 C   0  0  0  0  0  0  0  0  0  0  0  0
   18.6860  -19.6688  -15.6652 C   0  0  0  0  0  0  0  0  0  0  0  0
   18.9145  -20.9906  -15.4132 C   0  0  0  0  0  0  0  0  0  0  0  0
   20.1091  -21.3899  -14.8606 C   0  0  0  0  0  0  0  0  0  0  0  0
   21.1905  -21.4609  -11.8075 C   0  0  0  0  0  0  0  0  0  0  0  0
   20.1633  -20.6714  -11.3572 O   0  0  0  0  0  0  0  0  0  0  0  0
   21.1155  -22.7031  -11.6599 O   0  0  0  0  0  0  0  0  0  0  0  0
  2  1  1  6
  2  7  1  0
  2  3  1  0
  3  4  1  0
  4  5  1  0
  5  9  1  0
  5  6  2  0
  7  8  2  0
 10 11  1  0
 11 12  1  0
 12 13  1  0
 14 13  1  1
 14 15  1  0
 15  7  1  0
 16 14  1  0
 17 16  2  0
 18 16  1  0
 19 27  1  0
 19 18  1  0
 19 20  1  6
 21 20  1  0
 22 21  2  0
 23 22  1  0
 24 23  2  0
 24 25  1  0
 25 26  2  0
 26 21  1  0
 27 28  1  0
 29 27  2  0
M  END
$$$$
