EMF.pdb
     RDKit          3D

 29 29  0  0  1  0  0  0  0  0999 V2000
   28.0022  -21.3694  -15.4450 N   0  0  0  0  0  0  0  0  0  0  0  0
   27.8813  -20.4780  -14.3058 C   0  0  1  0  0  0  0  0  0  0  0  0
   27.5556  -19.0913  -14.8399 C   0  0  0  0  0  0  0  0  0  0  0  0
   27.1993  -19.2340  -16.3161 C   0  0  0  0  0  0  0  0  0  0  0  0
   28.1962  -18.5016  -17.1478 C   0  0  0  0  0  0  0  0  0  0  0  0
   28.0783  -17.2613  -17.3644 O   0  0  0  0  0  0  0  0  0  0  0  0
   26.8239  -20.9923  -13.4101 C   0  0  0  0  0  0  0  0  0  0  0  0
   26.0558  -21.8826  -13.8431 O   0  0  0  0  0  0  0  0  0  0  0  0
   29.2888  -19.1348  -17.7186 O   0  0  0  0  0  0  0  0  0  0  0  0
   28.9375  -20.5953   -6.8731 C   0  0  0  0  0  0  0  0  0  0  0  0
   27.3293  -20.2237   -7.5413 S   0  0  0  0  0  0  0  0  0  0  0  0
   27.0809  -20.8055   -9.2139 C   0  0  0  0  0  0  0  0  0  0  0  0
   25.7841  -20.4172   -9.8516 C   0  0  0  0  0  0  0  0  0  0  0  0
   25.5472  -20.9100  -11.2433 C   0  0  2  0  0  0  0  0  0  0  0  0
   26.6757  -20.4977  -12.0973 N   0  0  0  0  0  0  0  0  0  0  0  0
   24.3209  -20.2452  -11.8238 C   0  0  0  0  0  0  0  0  0  0  0  0
   24.3256  -19.1067  -12.3359 O   0  0  0  0  0  0  0  0  0  0  0  0
   23.0416  -20.9136  -11.8153 N   0  0  0  0  0  0  0  0  0  0  0  0
   22.0263  -20.6331  -12.8247 C   0  0  1  0  0  0  0  0  0  0  0  0
   22.5569  -20.8065  -14.2040 C   0  0  0  0  0  0  0  0  0  0  0  0
   21.5310  -20.5407  -15.2273 C   0  0  0  0  0  0  0  0  0  0  0  0
   21.1653  -19.2625  -15.6423 C   0  0  0  0  0  0  0  0  0  0  0  0
   20.2028  -19.0321  -16.6005 C   0  0  0  0  0  0  0  0  0  0  0  0
   19.5621  -20.0876  -17.1867 C   0  0  0  0  0  0  0  0  0  0  0  0
   19.8837  -21.3611  -16.8154 C   0  0  0  0  0  0  0  0  0  0  0  0
   20.8468  -21.5765  -15.8573 C   0  0  0  0  0  0  0  0  0  0  0  0
   20.7703  -21.3458  -12.5367 C   0  0  0  0  0  0  0  0  0  0  0  0
   19.5622  -20.6963  -12.5422 O   0  0  0  0  0  0  0  0  0  0  0  0
   20.8029  -22.5718  -12.2792 O   0  0  0  0  0  0  0  0  0  0  0  0
  2  1  1  6
  2  7  1  0
  2  3  1  0
  3  4  1  0
  4  5  1  0
  5  9  1  0
  5  6  2  0
  7  8  2  0
 10 11  1  0
 11 12  1  0
 12 13  1  0
 14 13  1  1
 14 15  1  0
 15  7  1  0
 16 14  1  0
 17 16  2  0
 18 16  1  0
 19 27  1  0
 19 18  1  0
 19 20  1  6
 21 20  1  0
 22 21  2  0
 23 22  1  0
 24 23  2  0
 24 25  1  0
 25 26  2  0
 26 21  1  0
 27 28  1  0
 29 27  2  0
M  END
$$$$
