EMF.pdb
     RDKit          3D

 29 29  0  0  1  0  0  0  0  0999 V2000
   24.5529  -21.2337  -15.3792 N   0  0  0  0  0  0  0  0  0  0  0  0
   25.6679  -21.0519  -14.4678 C   0  0  1  0  0  0  0  0  0  0  0  0
   26.7269  -20.2363  -15.1941 C   0  0  0  0  0  0  0  0  0  0  0  0
   27.2960  -21.1042  -16.3118 C   0  0  0  0  0  0  0  0  0  0  0  0
   28.3916  -20.3726  -17.0093 C   0  0  0  0  0  0  0  0  0  0  0  0
   29.0849  -20.9365  -17.9039 O   0  0  0  0  0  0  0  0  0  0  0  0
   25.1797  -20.3717  -13.2496 C   0  0  0  0  0  0  0  0  0  0  0  0
   24.8070  -19.1789  -13.3407 O   0  0  0  0  0  0  0  0  0  0  0  0
   28.7018  -19.0542  -16.7161 O   0  0  0  0  0  0  0  0  0  0  0  0
   20.9591  -22.7356   -8.8260 C   0  0  0  0  0  0  0  0  0  0  0  0
   21.0857  -20.9607   -8.7563 S   0  0  0  0  0  0  0  0  0  0  0  0
   22.7057  -20.3271   -9.1703 C   0  0  0  0  0  0  0  0  0  0  0  0
   23.3054  -20.8526  -10.4366 C   0  0  0  0  0  0  0  0  0  0  0  0
   24.6742  -20.3616  -10.7846 C   0  0  2  0  0  0  0  0  0  0  0  0
   25.1316  -21.0423  -12.0094 N   0  0  0  0  0  0  0  0  0  0  0  0
   25.6526  -20.7512   -9.7013 C   0  0  0  0  0  0  0  0  0  0  0  0
   26.1594  -21.8876   -9.6000 O   0  0  0  0  0  0  0  0  0  0  0  0
   26.0638  -19.7995   -8.6970 N   0  0  0  0  0  0  0  0  0  0  0  0
   26.9173  -20.1886   -7.5797 C   0  0  1  0  0  0  0  0  0  0  0  0
   27.8930  -19.1201   -7.2326 C   0  0  0  0  0  0  0  0  0  0  0  0
   28.6022  -19.4082   -5.9738 C   0  0  0  0  0  0  0  0  0  0  0  0
   29.6711  -20.2954   -5.8736 C   0  0  0  0  0  0  0  0  0  0  0  0
   30.3225  -20.5535   -4.6875 C   0  0  0  0  0  0  0  0  0  0  0  0
   29.9221  -19.9242   -3.5422 C   0  0  0  0  0  0  0  0  0  0  0  0
   28.8790  -19.0450   -3.5863 C   0  0  0  0  0  0  0  0  0  0  0  0
   28.2376  -18.7966   -4.7775 C   0  0  0  0  0  0  0  0  0  0  0  0
   26.1247  -20.7104   -6.4536 C   0  0  0  0  0  0  0  0  0  0  0  0
   26.6670  -21.5754   -5.5377 O   0  0  0  0  0  0  0  0  0  0  0  0
   24.9282  -20.3595   -6.3278 O   0  0  0  0  0  0  0  0  0  0  0  0
  2  1  1  6
  2  7  1  0
  2  3  1  0
  3  4  1  0
  4  5  1  0
  5  9  1  0
  5  6  2  0
  7  8  2  0
 10 11  1  0
 11 12  1  0
 12 13  1  0
 14 13  1  1
 14 15  1  0
 15  7  1  0
 16 14  1  0
 17 16  2  0
 18 16  1  0
 19 27  1  0
 19 18  1  0
 19 20  1  1
 21 20  1  0
 22 21  2  0
 23 22  1  0
 24 23  2  0
 24 25  1  0
 25 26  2  0
 26 21  1  0
 27 28  1  0
 29 27  2  0
M  END
$$$$
