EMF.pdb
     RDKit          3D

 29 29  0  0  1  0  0  0  0  0999 V2000
   19.5644  -11.2344  -18.0586 N   0  0  0  0  0  0  0  0  0  0  0  0
   18.7557  -10.1821  -17.4705 C   0  0  1  0  0  0  0  0  0  0  0  0
   18.5107  -10.5499  -16.0149 C   0  0  0  0  0  0  0  0  0  0  0  0
   17.5068  -11.6979  -15.9886 C   0  0  0  0  0  0  0  0  0  0  0  0
   17.1198  -11.9962  -14.5803 C   0  0  0  0  0  0  0  0  0  0  0  0
   17.8323  -12.7471  -13.8540 O   0  0  0  0  0  0  0  0  0  0  0  0
   19.4749   -8.8979  -17.6069 C   0  0  0  0  0  0  0  0  0  0  0  0
   20.7197   -8.9229  -17.7476 O   0  0  0  0  0  0  0  0  0  0  0  0
   15.9740  -11.4723  -14.0030 O   0  0  0  0  0  0  0  0  0  0  0  0
   17.4635   -5.2685  -22.8648 C   0  0  0  0  0  0  0  0  0  0  0  0
   17.4432   -4.8703  -21.1293 S   0  0  0  0  0  0  0  0  0  0  0  0
   18.5056   -5.9049  -20.1300 C   0  0  0  0  0  0  0  0  0  0  0  0
   18.6115   -5.5257  -18.6863 C   0  0  0  0  0  0  0  0  0  0  0  0
   19.4768   -6.3913  -17.8274 C   0  0  2  0  0  0  0  0  0  0  0  0
   18.7837   -7.6684  -17.5800 N   0  0  0  0  0  0  0  0  0  0  0  0
   19.6642   -5.7498  -16.4724 C   0  0  0  0  0  0  0  0  0  0  0  0
   18.7717   -5.6948  -15.6012 O   0  0  0  0  0  0  0  0  0  0  0  0
   20.9242   -5.1490  -16.1048 N   0  0  0  0  0  0  0  0  0  0  0  0
   21.1184   -4.5161  -14.8048 C   0  0  1  0  0  0  0  0  0  0  0  0
   22.2362   -5.1421  -14.0480 C   0  0  0  0  0  0  0  0  0  0  0  0
   22.0389   -6.5913  -13.8704 C   0  0  0  0  0  0  0  0  0  0  0  0
   22.6445   -7.5581  -14.6693 C   0  0  0  0  0  0  0  0  0  0  0  0
   22.4480   -8.9097  -14.4894 C   0  0  0  0  0  0  0  0  0  0  0  0
   21.6266   -9.3492  -13.4892 C   0  0  0  0  0  0  0  0  0  0  0  0
   21.0086   -8.4420  -12.6779 C   0  0  0  0  0  0  0  0  0  0  0  0
   21.2138   -7.0954  -12.8688 C   0  0  0  0  0  0  0  0  0  0  0  0
   21.1797   -3.0497  -14.9243 C   0  0  0  0  0  0  0  0  0  0  0  0
   21.1514   -2.4302  -16.1477 O   0  0  0  0  0  0  0  0  0  0  0  0
   21.2612   -2.3502  -13.8877 O   0  0  0  0  0  0  0  0  0  0  0  0
  2  1  1  1
  2  7  1  0
  2  3  1  0
  3  4  1  0
  4  5  1  0
  5  9  1  0
  5  6  2  0
  7  8  2  0
 10 11  1  0
 11 12  1  0
 12 13  1  0
 14 13  1  6
 14 15  1  0
 15  7  1  0
 16 14  1  0
 17 16  2  0
 18 16  1  0
 19 27  1  0
 19 18  1  0
 19 20  1  6
 21 20  1  0
 22 21  2  0
 23 22  1  0
 24 23  2  0
 24 25  1  0
 25 26  2  0
 26 21  1  0
 27 28  1  0
 29 27  2  0
M  END
$$$$
