EMF.pdb
     RDKit          3D

 29 29  0  0  1  0  0  0  0  0999 V2000
   19.6963  -13.1033  -20.1920 N   0  0  0  0  0  0  0  0  0  0  0  0
   18.8271  -11.9483  -20.0598 C   0  0  1  0  0  0  0  0  0  0  0  0
   17.8931  -12.2080  -18.8875 C   0  0  0  0  0  0  0  0  0  0  0  0
   16.5138  -12.5281  -19.4545 C   0  0  0  0  0  0  0  0  0  0  0  0
   15.5698  -12.8314  -18.3415 C   0  0  0  0  0  0  0  0  0  0  0  0
   15.9421  -12.7640  -17.1349 O   0  0  0  0  0  0  0  0  0  0  0  0
   19.6622  -10.7467  -19.8510 C   0  0  0  0  0  0  0  0  0  0  0  0
   20.8974  -10.8965  -19.7034 O   0  0  0  0  0  0  0  0  0  0  0  0
   14.2530  -13.1980  -18.5700 O   0  0  0  0  0  0  0  0  0  0  0  0
   17.2484   -4.9485  -21.5684 C   0  0  0  0  0  0  0  0  0  0  0  0
   18.6555   -5.5197  -22.4985 S   0  0  0  0  0  0  0  0  0  0  0  0
   19.5559   -6.8522  -21.7166 C   0  0  0  0  0  0  0  0  0  0  0  0
   19.2436   -7.0884  -20.2723 C   0  0  0  0  0  0  0  0  0  0  0  0
   19.9181   -8.2539  -19.6224 C   0  0  2  0  0  0  0  0  0  0  0  0
   19.0900   -9.4577  -19.8169 N   0  0  0  0  0  0  0  0  0  0  0  0
   19.9949   -8.0380  -18.1290 C   0  0  0  0  0  0  0  0  0  0  0  0
   19.0352   -8.2191  -17.3514 O   0  0  0  0  0  0  0  0  0  0  0  0
   21.2202   -7.5975  -17.5060 N   0  0  0  0  0  0  0  0  0  0  0  0
   21.3188   -7.4094  -16.0627 C   0  0  1  0  0  0  0  0  0  0  0  0
   22.6798   -7.7335  -15.5559 C   0  0  0  0  0  0  0  0  0  0  0  0
   22.7554   -7.6518  -14.0869 C   0  0  0  0  0  0  0  0  0  0  0  0
   22.7702   -6.4527  -13.3785 C   0  0  0  0  0  0  0  0  0  0  0  0
   22.8421   -6.3949  -12.0041 C   0  0  0  0  0  0  0  0  0  0  0  0
   22.9029   -7.5513  -11.2781 C   0  0  0  0  0  0  0  0  0  0  0  0
   22.8916   -8.7535  -11.9244 C   0  0  0  0  0  0  0  0  0  0  0  0
   22.8194   -8.7966  -13.2973 C   0  0  0  0  0  0  0  0  0  0  0  0
   20.7881   -6.0981  -15.6536 C   0  0  0  0  0  0  0  0  0  0  0  0
   20.0085   -5.9602  -14.5336 O   0  0  0  0  0  0  0  0  0  0  0  0
   21.0514   -5.0850  -16.3426 O   0  0  0  0  0  0  0  0  0  0  0  0
  2  1  1  1
  2  7  1  0
  2  3  1  0
  3  4  1  0
  4  5  1  0
  5  9  1  0
  5  6  2  0
  7  8  2  0
 10 11  1  0
 11 12  1  0
 12 13  1  0
 14 13  1  6
 14 15  1  0
 15  7  1  0
 16 14  1  0
 17 16  2  0
 18 16  1  0
 19 27  1  0
 19 18  1  0
 19 20  1  6
 21 20  1  0
 22 21  2  0
 23 22  1  0
 24 23  2  0
 24 25  1  0
 25 26  2  0
 26 21  1  0
 27 28  1  0
 29 27  2  0
M  END
$$$$
