EMF.pdb
     RDKit          3D

 29 29  0  0  1  0  0  0  0  0999 V2000
   16.8627  -14.9561  -15.3057 N   0  0  0  0  0  0  0  0  0  0  0  0
   16.8630  -13.6743  -15.9870 C   0  0  1  0  0  0  0  0  0  0  0  0
   15.9381  -12.7442  -15.2166 C   0  0  0  0  0  0  0  0  0  0  0  0
   14.5055  -13.2086  -15.4585 C   0  0  0  0  0  0  0  0  0  0  0  0
   13.5515  -12.2264  -14.8695 C   0  0  0  0  0  0  0  0  0  0  0  0
   13.9626  -11.1467  -14.3556 O   0  0  0  0  0  0  0  0  0  0  0  0
   18.2493  -13.1639  -16.0385 C   0  0  0  0  0  0  0  0  0  0  0  0
   19.0275  -13.4543  -15.1003 O   0  0  0  0  0  0  0  0  0  0  0  0
   12.1829  -12.4441  -14.8556 O   0  0  0  0  0  0  0  0  0  0  0  0
   21.5679  -15.8406  -20.3801 C   0  0  0  0  0  0  0  0  0  0  0  0
   20.6455  -14.3356  -20.1450 S   0  0  0  0  0  0  0  0  0  0  0  0
   21.3762  -13.2077  -18.9653 C   0  0  0  0  0  0  0  0  0  0  0  0
   20.5531  -12.0074  -18.6175 C   0  0  0  0  0  0  0  0  0  0  0  0
   20.0893  -11.9002  -17.2000 C   0  0  2  0  0  0  0  0  0  0  0  0
   18.6939  -12.3676  -17.1147 N   0  0  0  0  0  0  0  0  0  0  0  0
   20.0702  -10.4514  -16.7720 C   0  0  0  0  0  0  0  0  0  0  0  0
   19.1349   -9.6648  -17.0269 O   0  0  0  0  0  0  0  0  0  0  0  0
   21.1667   -9.8854  -16.0233 N   0  0  0  0  0  0  0  0  0  0  0  0
   21.2242   -8.4616  -15.7109 C   0  0  1  0  0  0  0  0  0  0  0  0
   22.2550   -8.1642  -14.6798 C   0  0  0  0  0  0  0  0  0  0  0  0
   22.3630   -6.7203  -14.4079 C   0  0  0  0  0  0  0  0  0  0  0  0
   23.1481   -5.8484  -15.1584 C   0  0  0  0  0  0  0  0  0  0  0  0
   23.2380   -4.5003  -14.8894 C   0  0  0  0  0  0  0  0  0  0  0  0
   22.5356   -3.9682  -13.8446 C   0  0  0  0  0  0  0  0  0  0  0  0
   21.7510   -4.7801  -13.0777 C   0  0  0  0  0  0  0  0  0  0  0  0
   21.6704   -6.1243  -13.3576 C   0  0  0  0  0  0  0  0  0  0  0  0
   21.3002   -7.6451  -16.9340 C   0  0  0  0  0  0  0  0  0  0  0  0
   22.1196   -7.9944  -17.9770 O   0  0  0  0  0  0  0  0  0  0  0  0
   20.6037   -6.6074  -17.0261 O   0  0  0  0  0  0  0  0  0  0  0  0
  2  1  1  1
  2  7  1  0
  2  3  1  0
  3  4  1  0
  4  5  1  0
  5  9  1  0
  5  6  2  0
  7  8  2  0
 10 11  1  0
 11 12  1  0
 12 13  1  0
 14 13  1  6
 14 15  1  0
 15  7  1  0
 16 14  1  0
 17 16  2  0
 18 16  1  0
 19 27  1  0
 19 18  1  0
 19 20  1  1
 21 20  1  0
 22 21  2  0
 23 22  1  0
 24 23  2  0
 24 25  1  0
 25 26  2  0
 26 21  1  0
 27 28  1  0
 29 27  2  0
M  END
$$$$
