EMF.pdb
     RDKit          3D

 29 29  0  0  1  0  0  0  0  0999 V2000
   21.3827  -21.4737  -13.6651 N   0  0  0  0  0  0  0  0  0  0  0  0
   21.9841  -20.4771  -12.7978 C   0  0  1  0  0  0  0  0  0  0  0  0
   20.9612  -20.1199  -11.7299 C   0  0  0  0  0  0  0  0  0  0  0  0
   19.8299  -19.3539  -12.4080 C   0  0  0  0  0  0  0  0  0  0  0  0
   18.5606  -20.1274  -12.2969 C   0  0  0  0  0  0  0  0  0  0  0  0
   17.7799  -20.2436  -13.2849 O   0  0  0  0  0  0  0  0  0  0  0  0
   23.2225  -21.0377  -12.2173 C   0  0  0  0  0  0  0  0  0  0  0  0
   23.1816  -22.1871  -11.7202 O   0  0  0  0  0  0  0  0  0  0  0  0
   18.1766  -20.7505  -11.1201 O   0  0  0  0  0  0  0  0  0  0  0  0
   29.1575  -19.7116  -14.6435 C   0  0  0  0  0  0  0  0  0  0  0  0
   27.9965  -20.9330  -15.2192 S   0  0  0  0  0  0  0  0  0  0  0  0
   26.6893  -21.3035  -14.0566 C   0  0  0  0  0  0  0  0  0  0  0  0
   26.7687  -20.5944  -12.7412 C   0  0  0  0  0  0  0  0  0  0  0  0
   25.6910  -20.8975  -11.7500 C   0  0  2  0  0  0  0  0  0  0  0  0
   24.4265  -20.3024  -12.2185 N   0  0  0  0  0  0  0  0  0  0  0  0
   26.0018  -20.2302  -10.4306 C   0  0  0  0  0  0  0  0  0  0  0  0
   25.7867  -19.0231  -10.1958 O   0  0  0  0  0  0  0  0  0  0  0  0
   26.5813  -20.9779   -9.3404 N   0  0  0  0  0  0  0  0  0  0  0  0
   27.4175  -20.3352   -8.3325 C   0  0  1  0  0  0  0  0  0  0  0  0
   26.8879  -20.5488   -6.9584 C   0  0  0  0  0  0  0  0  0  0  0  0
   27.7353  -19.9121   -5.9352 C   0  0  0  0  0  0  0  0  0  0  0  0
   28.6268  -20.6108   -5.1248 C   0  0  0  0  0  0  0  0  0  0  0  0
   29.4113  -19.9989   -4.1720 C   0  0  0  0  0  0  0  0  0  0  0  0
   29.3311  -18.6463   -3.9930 C   0  0  0  0  0  0  0  0  0  0  0  0
   28.4726  -17.9150   -4.7619 C   0  0  0  0  0  0  0  0  0  0  0  0
   27.6951  -18.5389   -5.7096 C   0  0  0  0  0  0  0  0  0  0  0  0
   28.8393  -20.6691   -8.5205 C   0  0  0  0  0  0  0  0  0  0  0  0
   29.8341  -19.8247   -8.0979 O   0  0  0  0  0  0  0  0  0  0  0  0
   29.1501  -21.7467   -9.0798 O   0  0  0  0  0  0  0  0  0  0  0  0
  2  1  1  6
  2  7  1  0
  2  3  1  0
  3  4  1  0
  4  5  1  0
  5  9  1  0
  5  6  2  0
  7  8  2  0
 10 11  1  0
 11 12  1  0
 12 13  1  0
 14 13  1  6
 14 15  1  0
 15  7  1  0
 16 14  1  0
 17 16  2  0
 18 16  1  0
 19 27  1  0
 19 18  1  0
 19 20  1  1
 21 20  1  0
 22 21  2  0
 23 22  1  0
 24 23  2  0
 24 25  1  0
 25 26  2  0
 26 21  1  0
 27 28  1  0
 29 27  2  0
M  END
$$$$
