EMF.pdb
     RDKit          3D

 29 29  0  0  1  0  0  0  0  0999 V2000
   25.8703  -18.7885  -15.9653 N   0  0  0  0  0  0  0  0  0  0  0  0
   26.7456  -19.1498  -14.8652 C   0  0  1  0  0  0  0  0  0  0  0  0
   27.9308  -18.1964  -14.8888 C   0  0  0  0  0  0  0  0  0  0  0  0
   28.8983  -18.6846  -15.9622 C   0  0  0  0  0  0  0  0  0  0  0  0
   28.4148  -18.2599  -17.3067 C   0  0  0  0  0  0  0  0  0  0  0  0
   28.3562  -17.0366  -17.6214 O   0  0  0  0  0  0  0  0  0  0  0  0
   25.9832  -19.0592  -13.6021 C   0  0  0  0  0  0  0  0  0  0  0  0
   25.4180  -17.9764  -13.3224 O   0  0  0  0  0  0  0  0  0  0  0  0
   28.0102  -19.1727  -18.2677 O   0  0  0  0  0  0  0  0  0  0  0  0
   21.1227  -22.3309  -12.6378 C   0  0  0  0  0  0  0  0  0  0  0  0
   21.1140  -20.5502  -12.6399 S   0  0  0  0  0  0  0  0  0  0  0  0
   22.7205  -19.8115  -12.3733 C   0  0  0  0  0  0  0  0  0  0  0  0
   23.7474  -20.6984  -11.7424 C   0  0  0  0  0  0  0  0  0  0  0  0
   25.0911  -20.0935  -11.4888 C   0  0  2  0  0  0  0  0  0  0  0  0
   25.8894  -20.1610  -12.7261 N   0  0  0  0  0  0  0  0  0  0  0  0
   25.8404  -20.9132  -10.4644 C   0  0  0  0  0  0  0  0  0  0  0  0
   26.2573  -22.0714  -10.6727 O   0  0  0  0  0  0  0  0  0  0  0  0
   26.1209  -20.3823   -9.1518 N   0  0  0  0  0  0  0  0  0  0  0  0
   26.6170  -21.2314   -8.0742 C   0  0  1  0  0  0  0  0  0  0  0  0
   28.0560  -20.9798   -7.7915 C   0  0  0  0  0  0  0  0  0  0  0  0
   28.2437  -20.1093   -6.6178 C   0  0  0  0  0  0  0  0  0  0  0  0
   28.7365  -20.5562   -5.3942 C   0  0  0  0  0  0  0  0  0  0  0  0
   28.9049  -19.7280   -4.3063 C   0  0  0  0  0  0  0  0  0  0  0  0
   28.5818  -18.4036   -4.4048 C   0  0  0  0  0  0  0  0  0  0  0  0
   28.0946  -17.9151   -5.5825 C   0  0  0  0  0  0  0  0  0  0  0  0
   27.9315  -18.7533   -6.6608 C   0  0  0  0  0  0  0  0  0  0  0  0
   25.7261  -21.1889   -6.9025 C   0  0  0  0  0  0  0  0  0  0  0  0
   25.9229  -22.0137   -5.8244 O   0  0  0  0  0  0  0  0  0  0  0  0
   24.7657  -20.3840   -6.8878 O   0  0  0  0  0  0  0  0  0  0  0  0
  2  1  1  6
  2  7  1  0
  2  3  1  0
  3  4  1  0
  4  5  1  0
  5  9  1  0
  5  6  2  0
  7  8  2  0
 10 11  1  0
 11 12  1  0
 12 13  1  0
 14 13  1  6
 14 15  1  0
 15  7  1  0
 16 14  1  0
 17 16  2  0
 18 16  1  0
 19 27  1  0
 19 18  1  0
 19 20  1  1
 21 20  1  0
 22 21  2  0
 23 22  1  0
 24 23  2  0
 24 25  1  0
 25 26  2  0
 26 21  1  0
 27 28  1  0
 29 27  2  0
M  END
$$$$
