EMF.pdb
     RDKit          3D

 29 29  0  0  1  0  0  0  0  0999 V2000
   28.2842  -20.2733  -15.2502 N   0  0  0  0  0  0  0  0  0  0  0  0
   28.1513  -19.0783  -14.4370 C   0  0  1  0  0  0  0  0  0  0  0  0
   27.7231  -17.9432  -15.3548 C   0  0  0  0  0  0  0  0  0  0  0  0
   27.4930  -18.5304  -16.7436 C   0  0  0  0  0  0  0  0  0  0  0  0
   26.0390  -18.4963  -17.0702 C   0  0  0  0  0  0  0  0  0  0  0  0
   25.1997  -19.1360  -16.3735 O   0  0  0  0  0  0  0  0  0  0  0  0
   27.1603  -19.3367  -13.3712 C   0  0  0  0  0  0  0  0  0  0  0  0
   26.6451  -18.3565  -12.7848 O   0  0  0  0  0  0  0  0  0  0  0  0
   25.5398  -17.7710  -18.1403 O   0  0  0  0  0  0  0  0  0  0  0  0
   24.3062  -25.0454  -13.9242 C   0  0  0  0  0  0  0  0  0  0  0  0
   23.2329  -23.6251  -13.9688 S   0  0  0  0  0  0  0  0  0  0  0  0
   24.0318  -22.0912  -13.5142 C   0  0  0  0  0  0  0  0  0  0  0  0
   25.0284  -22.1819  -12.4017 C   0  0  0  0  0  0  0  0  0  0  0  0
   25.7348  -20.9176  -12.0294 C   0  0  2  0  0  0  0  0  0  0  0  0
   26.7974  -20.6529  -13.0161 N   0  0  0  0  0  0  0  0  0  0  0  0
   26.4333  -21.0895  -10.7009 C   0  0  0  0  0  0  0  0  0  0  0  0
   27.2439  -22.0071  -10.4566 O   0  0  0  0  0  0  0  0  0  0  0  0
   26.1915  -20.1728   -9.6124 N   0  0  0  0  0  0  0  0  0  0  0  0
   26.7066  -20.4263   -8.2713 C   0  0  1  0  0  0  0  0  0  0  0  0
   27.6597  -19.3692   -7.8375 C   0  0  0  0  0  0  0  0  0  0  0  0
   28.0658  -19.5357   -6.4312 C   0  0  0  0  0  0  0  0  0  0  0  0
   29.0245  -20.4523   -6.0061 C   0  0  0  0  0  0  0  0  0  0  0  0
   29.3917  -20.5952   -4.6861 C   0  0  0  0  0  0  0  0  0  0  0  0
   28.8044  -19.8151   -3.7298 C   0  0  0  0  0  0  0  0  0  0  0  0
   27.8586  -18.9009   -4.0939 C   0  0  0  0  0  0  0  0  0  0  0  0
   27.5015  -18.7687   -5.4157 C   0  0  0  0  0  0  0  0  0  0  0  0
   25.6185  -20.7229   -7.3244 C   0  0  0  0  0  0  0  0  0  0  0  0
   25.8357  -21.4761   -6.1988 O   0  0  0  0  0  0  0  0  0  0  0  0
   24.4680  -20.2805   -7.5500 O   0  0  0  0  0  0  0  0  0  0  0  0
  2  1  1  6
  2  7  1  0
  2  3  1  0
  3  4  1  0
  4  5  1  0
  5  9  1  0
  5  6  2  0
  7  8  2  0
 10 11  1  0
 11 12  1  0
 12 13  1  0
 14 13  1  6
 14 15  1  0
 15  7  1  0
 16 14  1  0
 17 16  2  0
 18 16  1  0
 19 27  1  0
 19 18  1  0
 19 20  1  1
 21 20  1  0
 22 21  2  0
 23 22  1  0
 24 23  2  0
 24 25  1  0
 25 26  2  0
 26 21  1  0
 27 28  1  0
 29 27  2  0
M  END
$$$$
