EMF.pdb
     RDKit          3D

 29 29  0  0  1  0  0  0  0  0999 V2000
   15.8049  -23.3229   -2.3073 N   0  0  0  0  0  0  0  0  0  0  0  0
   14.8215  -22.2622   -2.1853 C   0  0  1  0  0  0  0  0  0  0  0  0
   13.5408  -22.7443   -2.8498 C   0  0  0  0  0  0  0  0  0  0  0  0
   13.1104  -24.0300   -2.1511 C   0  0  0  0  0  0  0  0  0  0  0  0
   12.9653  -25.1236   -3.1535 C   0  0  0  0  0  0  0  0  0  0  0  0
   13.9173  -25.9218   -3.3893 O   0  0  0  0  0  0  0  0  0  0  0  0
   14.6251  -21.9590   -0.7520 C   0  0  0  0  0  0  0  0  0  0  0  0
   13.7731  -21.0964   -0.4356 O   0  0  0  0  0  0  0  0  0  0  0  0
   11.7944  -25.3184   -3.8688 O   0  0  0  0  0  0  0  0  0  0  0  0
   18.0033  -24.8166    4.9693 C   0  0  0  0  0  0  0  0  0  0  0  0
   16.2261  -24.7181    4.9166 S   0  0  0  0  0  0  0  0  0  0  0  0
   15.5987  -23.3360    3.9712 C   0  0  0  0  0  0  0  0  0  0  0  0
   15.6750  -23.4777    2.4835 C   0  0  0  0  0  0  0  0  0  0  0  0
   15.1898  -22.3181    1.6737 C   0  0  2  0  0  0  0  0  0  0  0  0
   15.3752  -22.6205    0.2430 N   0  0  0  0  0  0  0  0  0  0  0  0
   16.0394  -21.1010    1.9558 C   0  0  0  0  0  0  0  0  0  0  0  0
   17.2020  -20.9516    1.5261 O   0  0  0  0  0  0  0  0  0  0  0  0
   15.5343  -20.0153    2.7617 N   0  0  0  0  0  0  0  0  0  0  0  0
   16.3344  -18.8249    3.0279 C   0  0  1  0  0  0  0  0  0  0  0  0
   16.1210  -17.7746    1.9956 C   0  0  0  0  0  0  0  0  0  0  0  0
   16.8979  -16.5556    2.2798 C   0  0  0  0  0  0  0  0  0  0  0  0
   16.3848  -15.4511    2.9556 C   0  0  0  0  0  0  0  0  0  0  0  0
   17.1258  -14.3185    3.2122 C   0  0  0  0  0  0  0  0  0  0  0  0
   18.4258  -14.2490    2.7958 C   0  0  0  0  0  0  0  0  0  0  0  0
   18.9767  -15.3048    2.1289 C   0  0  0  0  0  0  0  0  0  0  0  0
   18.2253  -16.4295    1.8795 C   0  0  0  0  0  0  0  0  0  0  0  0
   16.1866  -18.3784    4.4233 C   0  0  0  0  0  0  0  0  0  0  0  0
   17.2134  -17.7576    5.0879 O   0  0  0  0  0  0  0  0  0  0  0  0
   15.1011  -18.5698    5.0195 O   0  0  0  0  0  0  0  0  0  0  0  0
  2  1  1  1
  2  7  1  0
  2  3  1  0
  3  4  1  0
  4  5  1  0
  5  9  1  0
  5  6  2  0
  7  8  2  0
 10 11  1  0
 11 12  1  0
 12 13  1  0
 14 13  1  1
 14 15  1  0
 15  7  1  0
 16 14  1  0
 17 16  2  0
 18 16  1  0
 19 27  1  0
 19 18  1  0
 19 20  1  6
 21 20  1  0
 22 21  2  0
 23 22  1  0
 24 23  2  0
 24 25  1  0
 25 26  2  0
 26 21  1  0
 27 28  1  0
 29 27  2  0
M  END
$$$$
