EMF.pdb
     RDKit          3D

 29 29  0  0  1  0  0  0  0  0999 V2000
   17.1940  -29.5187   -1.5459 N   0  0  0  0  0  0  0  0  0  0  0  0
   18.4561  -29.9913   -2.0851 C   0  0  1  0  0  0  0  0  0  0  0  0
   19.4337  -28.8262   -2.0551 C   0  0  0  0  0  0  0  0  0  0  0  0
   18.9269  -27.7693   -3.0310 C   0  0  0  0  0  0  0  0  0  0  0  0
   19.9415  -26.6865   -3.1724 C   0  0  0  0  0  0  0  0  0  0  0  0
   21.0003  -26.6916   -2.4810 O   0  0  0  0  0  0  0  0  0  0  0  0
   18.9239  -31.1318   -1.2694 C   0  0  0  0  0  0  0  0  0  0  0  0
   18.7092  -31.1107   -0.0351 O   0  0  0  0  0  0  0  0  0  0  0  0
   19.7779  -25.6328   -4.0575 O   0  0  0  0  0  0  0  0  0  0  0  0
   17.5340  -36.8548   -3.1523 C   0  0  0  0  0  0  0  0  0  0  0  0
   17.0024  -36.1738   -1.5951 S   0  0  0  0  0  0  0  0  0  0  0  0
   17.8481  -34.6687   -1.1292 C   0  0  0  0  0  0  0  0  0  0  0  0
   19.2957  -34.5943   -1.5010 C   0  0  0  0  0  0  0  0  0  0  0  0
   20.0406  -33.3766   -1.0561 C   0  0  2  0  0  0  0  0  0  0  0  0
   19.5973  -32.2225   -1.8586 N   0  0  0  0  0  0  0  0  0  0  0  0
   21.5150  -33.5411   -1.3421 C   0  0  0  0  0  0  0  0  0  0  0  0
   22.0332  -33.3300   -2.4581 O   0  0  0  0  0  0  0  0  0  0  0  0
   22.4279  -33.9641   -0.3071 N   0  0  0  0  0  0  0  0  0  0  0  0
   23.8607  -34.0838   -0.5543 C   0  0  1  0  0  0  0  0  0  0  0  0
   24.4538  -32.7932   -0.9976 C   0  0  0  0  0  0  0  0  0  0  0  0
   25.8825  -32.9280   -1.3308 C   0  0  0  0  0  0  0  0  0  0  0  0
   26.8918  -33.0412   -0.3778 C   0  0  0  0  0  0  0  0  0  0  0  0
   28.2236  -33.1659   -0.7074 C   0  0  0  0  0  0  0  0  0  0  0  0
   28.5991  -33.1819   -2.0215 C   0  0  0  0  0  0  0  0  0  0  0  0
   27.6483  -33.0741   -2.9949 C   0  0  0  0  0  0  0  0  0  0  0  0
   26.3222  -32.9502   -2.6515 C   0  0  0  0  0  0  0  0  0  0  0  0
   24.5474  -34.7415    0.5701 C   0  0  0  0  0  0  0  0  0  0  0  0
   25.5385  -35.6662    0.3604 O   0  0  0  0  0  0  0  0  0  0  0  0
   24.2202  -34.4533    1.7450 O   0  0  0  0  0  0  0  0  0  0  0  0
  2  1  1  1
  2  7  1  0
  2  3  1  0
  3  4  1  0
  4  5  1  0
  5  9  1  0
  5  6  2  0
  7  8  2  0
 10 11  1  0
 11 12  1  0
 12 13  1  0
 14 13  1  6
 14 15  1  0
 15  7  1  0
 16 14  1  0
 17 16  2  0
 18 16  1  0
 19 27  1  0
 19 18  1  0
 19 20  1  1
 21 20  1  0
 22 21  2  0
 23 22  1  0
 24 23  2  0
 24 25  1  0
 25 26  2  0
 26 21  1  0
 27 28  1  0
 29 27  2  0
M  END
$$$$
