EMF.pdb
     RDKit          3D

 29 29  0  0  1  0  0  0  0  0999 V2000
   28.4478  -21.4395  -16.8450 N   0  0  0  0  0  0  0  0  0  0  0  0
   28.4011  -20.5597  -15.6914 C   0  0  1  0  0  0  0  0  0  0  0  0
   28.1318  -19.1510  -16.1985 C   0  0  0  0  0  0  0  0  0  0  0  0
   26.7540  -19.1483  -16.8527 C   0  0  0  0  0  0  0  0  0  0  0  0
   26.0381  -17.8855  -16.5136 C   0  0  0  0  0  0  0  0  0  0  0  0
   24.8027  -17.7537  -16.7490 O   0  0  0  0  0  0  0  0  0  0  0  0
   27.3425  -21.0335  -14.7750 C   0  0  0  0  0  0  0  0  0  0  0  0
   26.5373  -21.8993  -15.1900 O   0  0  0  0  0  0  0  0  0  0  0  0
   26.6821  -16.8058  -15.9305 O   0  0  0  0  0  0  0  0  0  0  0  0
   24.8752  -20.8242   -7.1473 C   0  0  0  0  0  0  0  0  0  0  0  0
   26.0098  -20.3104   -8.4201 S   0  0  0  0  0  0  0  0  0  0  0  0
   25.6518  -20.9891  -10.0352 C   0  0  0  0  0  0  0  0  0  0  0  0
   26.5346  -20.5190  -11.1483 C   0  0  0  0  0  0  0  0  0  0  0  0
   26.2502  -21.0711  -12.5085 C   0  0  2  0  0  0  0  0  0  0  0  0
   27.2338  -20.5280  -13.4625 N   0  0  0  0  0  0  0  0  0  0  0  0
   24.8988  -20.5936  -12.9864 C   0  0  0  0  0  0  0  0  0  0  0  0
   24.5837  -19.3897  -13.0864 O   0  0  0  0  0  0  0  0  0  0  0  0
   23.8711  -21.5345  -13.3634 N   0  0  0  0  0  0  0  0  0  0  0  0
   22.5374  -21.0926  -13.7560 C   0  0  1  0  0  0  0  0  0  0  0  0
   21.9870  -21.9181  -14.8649 C   0  0  0  0  0  0  0  0  0  0  0  0
   20.6337  -21.4860  -15.2553 C   0  0  0  0  0  0  0  0  0  0  0  0
   19.4702  -22.1535  -14.8806 C   0  0  0  0  0  0  0  0  0  0  0  0
   18.2123  -21.7355  -15.2556 C   0  0  0  0  0  0  0  0  0  0  0  0
   18.0710  -20.6184  -16.0304 C   0  0  0  0  0  0  0  0  0  0  0  0
   19.1802  -19.9277  -16.4248 C   0  0  0  0  0  0  0  0  0  0  0  0
   20.4302  -20.3563  -16.0431 C   0  0  0  0  0  0  0  0  0  0  0  0
   21.6562  -20.9374  -12.5865 C   0  0  0  0  0  0  0  0  0  0  0  0
   21.4566  -21.9650  -11.7002 O   0  0  0  0  0  0  0  0  0  0  0  0
   21.0734  -19.8446  -12.3952 O   0  0  0  0  0  0  0  0  0  0  0  0
  2  1  1  6
  2  7  1  0
  2  3  1  0
  3  4  1  0
  4  5  1  0
  5  9  1  0
  5  6  2  0
  7  8  2  0
 10 11  1  0
 11 12  1  0
 12 13  1  0
 14 13  1  1
 14 15  1  0
 15  7  1  0
 16 14  1  0
 17 16  2  0
 18 16  1  0
 19 27  1  0
 19 18  1  0
 19 20  1  6
 21 20  1  0
 22 21  2  0
 23 22  1  0
 24 23  2  0
 24 25  1  0
 25 26  2  0
 26 21  1  0
 27 28  1  0
 29 27  2  0
M  END
$$$$
