DVD.pdb
     RDKit          3D

 24 23  0  0  1  0  0  0  0  0999 V2000
   -1.8364  -26.1274   25.9894 N   0  0  0  0  0  0  0  0  0  0  0  0
   -3.2304  -26.0033   26.2743 C   0  0  1  0  0  0  0  0  0  0  0  0
   -3.8632  -27.3325   26.6424 C   0  0  0  0  0  0  0  0  0  0  0  0
   -3.9440  -28.2428   25.4872 C   0  0  0  0  0  0  0  0  0  0  0  0
   -4.5244  -27.9460   24.4089 O   0  0  0  0  0  0  0  0  0  0  0  0
   -3.5213  -25.0078   27.3449 C   0  0  0  0  0  0  0  0  0  0  0  0
   -2.8881  -25.1100   28.4152 O   0  0  0  0  0  0  0  0  0  0  0  0
   -3.3600  -29.4837   25.5773 O   0  0  0  0  0  0  0  0  0  0  0  0
   -2.7316  -21.5431   27.4048 C   0  0  0  0  0  0  0  0  0  0  0  0
   -4.1849  -21.6394   27.7548 C   0  0  1  0  0  0  0  0  0  0  0  0
   -4.9534  -21.1205   26.5508 C   0  0  0  0  0  0  0  0  0  0  0  0
   -4.6863  -22.9522   28.2325 C   0  0  2  0  0  0  0  0  0  0  0  0
   -4.4715  -23.9740   27.1886 N   0  0  0  0  0  0  0  0  0  0  0  0
   -6.0965  -22.9463   28.6304 C   0  0  0  0  0  0  0  0  0  0  0  0
   -7.0478  -22.9510   27.7874 O   0  0  0  0  0  0  0  0  0  0  0  0
   -6.4997  -22.9428   29.9842 N   0  0  0  0  0  0  0  0  0  0  0  0
   -7.9454  -22.9114   30.3105 C   0  0  1  0  0  0  0  0  0  0  0  0
   -8.1368  -23.6416   31.6462 C   0  0  0  0  0  0  0  0  0  0  0  0
   -7.9469  -25.0934   31.5495 C   0  0  0  0  0  0  0  0  0  0  0  0
   -8.4174  -25.8448   30.6630 O   0  0  0  0  0  0  0  0  0  0  0  0
   -8.3200  -21.4885   30.4250 C   0  0  0  0  0  0  0  0  0  0  0  0
   -9.6191  -20.9955   30.2798 O   0  0  0  0  0  0  0  0  0  0  0  0
   -7.1629  -25.6913   32.5475 O   0  0  0  0  0  0  0  0  0  0  0  0
   -7.4550  -20.6002   30.6695 O   0  0  0  0  0  0  0  0  0  0  0  0
  2  1  1  1
  2  3  1  0
  4  3  1  0
  4  8  1  0
  5  4  2  0
  6  2  1  0
  6  7  2  0
 10  9  1  6
 10 12  1  0
 10 11  1  0
 12 13  1  6
 13  6  1  0
 14 12  1  0
 15 14  2  0
 16 14  1  0
 17 21  1  0
 17 16  1  0
 17 18  1  1
 19 20  2  0
 19 18  1  0
 21 22  1  0
 23 19  1  0
 24 21  2  0
M  END
$$$$
