DVD.pdb
     RDKit          3D

 24 23  0  0  1  0  0  0  0  0999 V2000
    8.8850  -15.6782   15.0906 N   0  0  0  0  0  0  0  0  0  0  0  0
    8.6216  -16.4386   16.2706 C   0  0  1  0  0  0  0  0  0  0  0  0
    9.0999  -17.8735   16.1495 C   0  0  0  0  0  0  0  0  0  0  0  0
    8.4751  -18.5683   15.0109 C   0  0  0  0  0  0  0  0  0  0  0  0
    7.2528  -18.4671   14.7220 O   0  0  0  0  0  0  0  0  0  0  0  0
    9.2035  -15.8291   17.5001 C   0  0  0  0  0  0  0  0  0  0  0  0
   10.4309  -15.6045   17.5072 O   0  0  0  0  0  0  0  0  0  0  0  0
    9.2549  -19.3720   14.2141 O   0  0  0  0  0  0  0  0  0  0  0  0
    7.5546  -12.7506   19.2946 C   0  0  0  0  0  0  0  0  0  0  0  0
    8.0321  -13.7744   20.2783 C   0  0  1  0  0  0  0  0  0  0  0  0
    6.7883  -14.3951   20.8923 C   0  0  0  0  0  0  0  0  0  0  0  0
    8.9987  -14.7901   19.7912 C   0  0  2  0  0  0  0  0  0  0  0  0
    8.4250  -15.5048   18.6336 N   0  0  0  0  0  0  0  0  0  0  0  0
    9.4140  -15.7588   20.8091 C   0  0  0  0  0  0  0  0  0  0  0  0
    8.9581  -16.9444   20.8551 O   0  0  0  0  0  0  0  0  0  0  0  0
   10.3597  -15.4446   21.8102 N   0  0  0  0  0  0  0  0  0  0  0  0
   10.8656  -16.5218   22.6941 C   0  0  1  0  0  0  0  0  0  0  0  0
   12.3923  -16.5650   22.5477 C   0  0  0  0  0  0  0  0  0  0  0  0
   13.0325  -17.5656   23.4090 C   0  0  0  0  0  0  0  0  0  0  0  0
   12.4512  -18.4751   24.0468 O   0  0  0  0  0  0  0  0  0  0  0  0
   10.4744  -16.1561   24.0693 C   0  0  0  0  0  0  0  0  0  0  0  0
   10.5806  -17.0018   25.1762 O   0  0  0  0  0  0  0  0  0  0  0  0
   14.4287  -17.4917   23.5256 O   0  0  0  0  0  0  0  0  0  0  0  0
   10.0023  -15.0144   24.3352 O   0  0  0  0  0  0  0  0  0  0  0  0
  2  1  1  6
  2  3  1  0
  4  3  1  0
  4  8  1  0
  5  4  2  0
  6  2  1  0
  6  7  2  0
 10  9  1  6
 10 12  1  0
 10 11  1  0
 12 13  1  6
 13  6  1  0
 14 12  1  0
 15 14  2  0
 16 14  1  0
 17 21  1  0
 17 16  1  0
 17 18  1  1
 19 20  2  0
 19 18  1  0
 21 22  1  0
 23 19  1  0
 24 21  2  0
M  END
$$$$
