DVD.pdb
     RDKit          3D

 24 23  0  0  1  0  0  0  0  0999 V2000
    7.7061  -16.7203   16.6019 N   0  0  0  0  0  0  0  0  0  0  0  0
    9.0483  -17.0159   16.9903 C   0  0  1  0  0  0  0  0  0  0  0  0
   10.0364  -16.7958   15.8600 C   0  0  0  0  0  0  0  0  0  0  0  0
    9.7311  -17.6366   14.6897 C   0  0  0  0  0  0  0  0  0  0  0  0
   10.1058  -17.3592   13.5191 O   0  0  0  0  0  0  0  0  0  0  0  0
    9.4926  -16.2472   18.1876 C   0  0  0  0  0  0  0  0  0  0  0  0
   10.7206  -16.1171   18.3665 O   0  0  0  0  0  0  0  0  0  0  0  0
    9.0002  -18.7864   14.8704 O   0  0  0  0  0  0  0  0  0  0  0  0
    7.5425  -12.9329   19.6262 C   0  0  0  0  0  0  0  0  0  0  0  0
    7.9971  -13.9156   20.6612 C   0  0  1  0  0  0  0  0  0  0  0  0
    6.7446  -14.5925   21.1925 C   0  0  0  0  0  0  0  0  0  0  0  0
    9.0489  -14.8855   20.2660 C   0  0  2  0  0  0  0  0  0  0  0  0
    8.5856  -15.6735   19.1064 N   0  0  0  0  0  0  0  0  0  0  0  0
    9.4632  -15.7913   21.3407 C   0  0  0  0  0  0  0  0  0  0  0  0
    8.8548  -16.8778   21.5954 O   0  0  0  0  0  0  0  0  0  0  0  0
   10.5768  -15.5236   22.1674 N   0  0  0  0  0  0  0  0  0  0  0  0
   10.9079  -16.4632   23.2651 C   0  0  1  0  0  0  0  0  0  0  0  0
   12.3908  -16.2721   23.6095 C   0  0  0  0  0  0  0  0  0  0  0  0
   13.2952  -16.6273   22.5100 C   0  0  0  0  0  0  0  0  0  0  0  0
   13.1473  -17.5785   21.7067 O   0  0  0  0  0  0  0  0  0  0  0  0
   10.0466  -16.0973   24.4063 C   0  0  0  0  0  0  0  0  0  0  0  0
    9.3390  -14.8975   24.5141 O   0  0  0  0  0  0  0  0  0  0  0  0
   14.4321  -15.8214   22.3477 O   0  0  0  0  0  0  0  0  0  0  0  0
    9.8939  -16.8769   25.3891 O   0  0  0  0  0  0  0  0  0  0  0  0
  2  1  1  6
  2  3  1  0
  4  3  1  0
  4  8  1  0
  5  4  2  0
  6  2  1  0
  6  7  2  0
 10  9  1  6
 10 12  1  0
 10 11  1  0
 12 13  1  6
 13  6  1  0
 14 12  1  0
 15 14  2  0
 16 14  1  0
 17 21  1  0
 17 16  1  0
 17 18  1  1
 19 20  2  0
 19 18  1  0
 21 22  1  0
 23 19  1  0
 24 21  2  0
M  END
$$$$
