DVD.pdb
     RDKit          3D

 24 23  0  0  1  0  0  0  0  0999 V2000
    8.2387  -18.0564   17.5134 N   0  0  0  0  0  0  0  0  0  0  0  0
    9.6071  -17.9517   17.9088 C   0  0  1  0  0  0  0  0  0  0  0  0
   10.5165  -17.5972   16.7470 C   0  0  0  0  0  0  0  0  0  0  0  0
   10.3553  -18.5284   15.6172 C   0  0  0  0  0  0  0  0  0  0  0  0
   11.1466  -19.4811   15.3847 O   0  0  0  0  0  0  0  0  0  0  0  0
    9.8221  -16.9769   19.0158 C   0  0  0  0  0  0  0  0  0  0  0  0
   10.9959  -16.6314   19.2603 O   0  0  0  0  0  0  0  0  0  0  0  0
    9.2906  -18.3603   14.7646 O   0  0  0  0  0  0  0  0  0  0  0  0
    6.5292  -15.5654   21.5359 C   0  0  0  0  0  0  0  0  0  0  0  0
    7.7718  -14.7840   21.2372 C   0  0  1  0  0  0  0  0  0  0  0  0
    7.9568  -13.8112   22.3899 C   0  0  0  0  0  0  0  0  0  0  0  0
    9.0045  -15.5526   20.9324 C   0  0  2  0  0  0  0  0  0  0  0  0
    8.7607  -16.4435   19.7805 N   0  0  0  0  0  0  0  0  0  0  0  0
    9.5157  -16.3370   22.0596 C   0  0  0  0  0  0  0  0  0  0  0  0
    9.0766  -17.4951   22.3453 O   0  0  0  0  0  0  0  0  0  0  0  0
   10.5417  -15.8627   22.9068 N   0  0  0  0  0  0  0  0  0  0  0  0
   11.2179  -16.8082   23.8267 C   0  0  1  0  0  0  0  0  0  0  0  0
   12.7303  -16.5898   23.6888 C   0  0  0  0  0  0  0  0  0  0  0  0
   13.5238  -17.4017   24.6185 C   0  0  0  0  0  0  0  0  0  0  0  0
   13.0773  -18.2394   25.4376 O   0  0  0  0  0  0  0  0  0  0  0  0
   10.7554  -16.4744   25.1877 C   0  0  0  0  0  0  0  0  0  0  0  0
    9.8165  -15.4839   25.4865 O   0  0  0  0  0  0  0  0  0  0  0  0
   14.9142  -17.2181   24.5822 O   0  0  0  0  0  0  0  0  0  0  0  0
   11.1987  -17.0877   26.1999 O   0  0  0  0  0  0  0  0  0  0  0  0
  2  1  1  6
  2  3  1  0
  4  3  1  0
  4  8  1  0
  5  4  2  0
  6  2  1  0
  6  7  2  0
 10  9  1  1
 10 12  1  0
 10 11  1  0
 12 13  1  6
 13  6  1  0
 14 12  1  0
 15 14  2  0
 16 14  1  0
 17 21  1  0
 17 16  1  0
 17 18  1  1
 19 20  2  0
 19 18  1  0
 21 22  1  0
 23 19  1  0
 24 21  2  0
M  END
$$$$
