DVD.pdb
     RDKit          3D

 24 23  0  0  1  0  0  0  0  0999 V2000
    7.6688  -17.0265   16.8513 N   0  0  0  0  0  0  0  0  0  0  0  0
    8.9714  -17.3738   17.3229 C   0  0  1  0  0  0  0  0  0  0  0  0
   10.0135  -17.3294   16.2208 C   0  0  0  0  0  0  0  0  0  0  0  0
    9.5504  -18.0063   14.9972 C   0  0  0  0  0  0  0  0  0  0  0  0
    9.9302  -17.6841   13.8397 O   0  0  0  0  0  0  0  0  0  0  0  0
    9.4252  -16.5265   18.4621 C   0  0  0  0  0  0  0  0  0  0  0  0
   10.6452  -16.5173   18.7241 O   0  0  0  0  0  0  0  0  0  0  0  0
    8.6575  -19.0449   15.1100 O   0  0  0  0  0  0  0  0  0  0  0  0
    7.7662  -12.9146   19.4377 C   0  0  0  0  0  0  0  0  0  0  0  0
    8.0660  -13.8079   20.6022 C   0  0  1  0  0  0  0  0  0  0  0  0
    6.7247  -14.2657   21.1507 C   0  0  0  0  0  0  0  0  0  0  0  0
    9.0064  -14.9334   20.3745 C   0  0  2  0  0  0  0  0  0  0  0  0
    8.5358  -15.7500   19.2380 N   0  0  0  0  0  0  0  0  0  0  0  0
    9.2084  -15.7916   21.5449 C   0  0  0  0  0  0  0  0  0  0  0  0
    8.3665  -16.6741   21.9025 O   0  0  0  0  0  0  0  0  0  0  0  0
   10.3609  -15.7036   22.3568 N   0  0  0  0  0  0  0  0  0  0  0  0
   10.7084  -16.8357   23.2484 C   0  0  1  0  0  0  0  0  0  0  0  0
   11.7881  -17.6679   22.5444 C   0  0  0  0  0  0  0  0  0  0  0  0
   12.3002  -18.7720   23.3641 C   0  0  0  0  0  0  0  0  0  0  0  0
   13.2808  -18.7231   24.1438 O   0  0  0  0  0  0  0  0  0  0  0  0
   11.2250  -16.2440   24.4978 C   0  0  0  0  0  0  0  0  0  0  0  0
   11.4046  -14.8753   24.7131 O   0  0  0  0  0  0  0  0  0  0  0  0
   11.6232  -19.9964   23.2606 O   0  0  0  0  0  0  0  0  0  0  0  0
   11.5476  -16.9681   25.4820 O   0  0  0  0  0  0  0  0  0  0  0  0
  2  1  1  6
  2  3  1  0
  4  3  1  0
  4  8  1  0
  5  4  2  0
  6  2  1  0
  6  7  2  0
 10  9  1  6
 10 12  1  0
 10 11  1  0
 12 13  1  6
 13  6  1  0
 14 12  1  0
 15 14  2  0
 16 14  1  0
 17 21  1  0
 17 16  1  0
 17 18  1  6
 19 20  2  0
 19 18  1  0
 21 22  1  0
 23 19  1  0
 24 21  2  0
M  END
$$$$
