DVD.pdb
     RDKit          3D

 24 23  0  0  1  0  0  0  0  0999 V2000
    8.9582  -17.3030   16.0300 N   0  0  0  0  0  0  0  0  0  0  0  0
    8.1506  -17.3948   17.2044 C   0  0  1  0  0  0  0  0  0  0  0  0
    7.9220  -18.8317   17.6350 C   0  0  0  0  0  0  0  0  0  0  0  0
    7.0944  -19.5719   16.6670 C   0  0  0  0  0  0  0  0  0  0  0  0
    6.7476  -19.1040   15.5496 O   0  0  0  0  0  0  0  0  0  0  0  0
    8.6999  -16.6195   18.3529 C   0  0  0  0  0  0  0  0  0  0  0  0
    9.9409  -16.5612   18.4687 O   0  0  0  0  0  0  0  0  0  0  0  0
    6.6718  -20.8398   16.9871 O   0  0  0  0  0  0  0  0  0  0  0  0
    7.7542  -13.2924   22.0053 C   0  0  0  0  0  0  0  0  0  0  0  0
    7.4242  -14.1305   20.8084 C   0  0  1  0  0  0  0  0  0  0  0  0
    7.0185  -13.1665   19.7059 C   0  0  0  0  0  0  0  0  0  0  0  0
    8.4418  -15.1150   20.3630 C   0  0  2  0  0  0  0  0  0  0  0  0
    7.8764  -15.9627   19.2945 N   0  0  0  0  0  0  0  0  0  0  0  0
    8.9652  -15.9633   21.4370 C   0  0  0  0  0  0  0  0  0  0  0  0
    8.3347  -16.9724   21.8839 O   0  0  0  0  0  0  0  0  0  0  0  0
   10.2157  -15.7230   22.0484 N   0  0  0  0  0  0  0  0  0  0  0  0
   10.6394  -16.5683   23.1901 C   0  0  1  0  0  0  0  0  0  0  0  0
   12.1719  -16.5292   23.2542 C   0  0  0  0  0  0  0  0  0  0  0  0
   12.8197  -17.0753   22.0562 C   0  0  0  0  0  0  0  0  0  0  0  0
   12.7000  -18.2432   21.6162 O   0  0  0  0  0  0  0  0  0  0  0  0
   10.0422  -15.9710   24.4002 C   0  0  0  0  0  0  0  0  0  0  0  0
    9.4843  -14.6916   24.4616 O   0  0  0  0  0  0  0  0  0  0  0  0
   13.6511  -16.2017   21.3393 O   0  0  0  0  0  0  0  0  0  0  0  0
    9.9997  -16.6057   25.4922 O   0  0  0  0  0  0  0  0  0  0  0  0
  2  1  1  6
  2  3  1  0
  4  3  1  0
  4  8  1  0
  5  4  2  0
  6  2  1  0
  6  7  2  0
 10  9  1  1
 10 12  1  0
 10 11  1  0
 12 13  1  6
 13  6  1  0
 14 12  1  0
 15 14  2  0
 16 14  1  0
 17 21  1  0
 17 16  1  0
 17 18  1  1
 19 20  2  0
 19 18  1  0
 21 22  1  0
 23 19  1  0
 24 21  2  0
M  END
$$$$
