DVD.pdb
     RDKit          3D

 24 23  0  0  1  0  0  0  0  0999 V2000
    7.3198  -15.9775   21.3556 N   0  0  0  0  0  0  0  0  0  0  0  0
    8.7016  -16.0852   21.7005 C   0  0  1  0  0  0  0  0  0  0  0  0
    9.6137  -15.7065   20.5485 C   0  0  0  0  0  0  0  0  0  0  0  0
    9.3351  -16.5022   19.3407 C   0  0  0  0  0  0  0  0  0  0  0  0
    9.1356  -17.7462   19.3598 O   0  0  0  0  0  0  0  0  0  0  0  0
    9.0680  -15.2819   22.9014 C   0  0  0  0  0  0  0  0  0  0  0  0
   10.2795  -15.0552   23.0961 O   0  0  0  0  0  0  0  0  0  0  0  0
    9.2876  -15.8668   18.1229 O   0  0  0  0  0  0  0  0  0  0  0  0
    6.0792  -13.8705   25.8160 C   0  0  0  0  0  0  0  0  0  0  0  0
    7.3804  -13.2029   25.4918 C   0  0  1  0  0  0  0  0  0  0  0  0
    7.7445  -12.3582   26.7015 C   0  0  0  0  0  0  0  0  0  0  0  0
    8.4980  -14.0691   25.0403 C   0  0  2  0  0  0  0  0  0  0  0  0
    8.1066  -14.7799   23.8068 N   0  0  0  0  0  0  0  0  0  0  0  0
    8.9479  -15.0381   26.0431 C   0  0  0  0  0  0  0  0  0  0  0  0
    8.3527  -16.1428   26.2459 O   0  0  0  0  0  0  0  0  0  0  0  0
   10.0837  -14.8155   26.8529 N   0  0  0  0  0  0  0  0  0  0  0  0
   10.5219  -15.8733   27.7945 C   0  0  1  0  0  0  0  0  0  0  0  0
   11.9953  -16.1802   27.4962 C   0  0  0  0  0  0  0  0  0  0  0  0
   12.1876  -17.3975   26.6997 C   0  0  0  0  0  0  0  0  0  0  0  0
   12.3116  -17.4557   25.4534 O   0  0  0  0  0  0  0  0  0  0  0  0
   10.3594  -15.3207   29.1532 C   0  0  0  0  0  0  0  0  0  0  0  0
   10.3091  -16.0863   30.3208 O   0  0  0  0  0  0  0  0  0  0  0  0
   12.2365  -18.6084   27.4066 O   0  0  0  0  0  0  0  0  0  0  0  0
   10.2516  -14.0765   29.3466 O   0  0  0  0  0  0  0  0  0  0  0  0
  2  1  1  6
  2  3  1  0
  4  3  1  0
  4  8  1  0
  5  4  2  0
  6  2  1  0
  6  7  2  0
 10  9  1  1
 10 12  1  0
 10 11  1  0
 12 13  1  6
 13  6  1  0
 14 12  1  0
 15 14  2  0
 16 14  1  0
 17 21  1  0
 17 16  1  0
 17 18  1  6
 19 20  2  0
 19 18  1  0
 21 22  1  0
 23 19  1  0
 24 21  2  0
M  END
$$$$
