DVD.pdb
     RDKit          3D

 24 23  0  0  1  0  0  0  0  0999 V2000
    7.4811  -18.1602   18.5254 N   0  0  0  0  0  0  0  0  0  0  0  0
    8.8301  -17.7491   18.2994 C   0  0  1  0  0  0  0  0  0  0  0  0
    9.0262  -17.1520   16.9183 C   0  0  0  0  0  0  0  0  0  0  0  0
    8.8194  -18.1480   15.8530 C   0  0  0  0  0  0  0  0  0  0  0  0
    7.6808  -18.5242   15.4661 O   0  0  0  0  0  0  0  0  0  0  0  0
    9.3273  -16.7884   19.3248 C   0  0  0  0  0  0  0  0  0  0  0  0
   10.4467  -16.2706   19.1354 O   0  0  0  0  0  0  0  0  0  0  0  0
    9.9173  -18.7038   15.2411 O   0  0  0  0  0  0  0  0  0  0  0  0
    7.4333  -13.7643   20.9665 C   0  0  0  0  0  0  0  0  0  0  0  0
    8.0870  -14.6346   21.9957 C   0  0  1  0  0  0  0  0  0  0  0  0
    6.9647  -15.3364   22.7422 C   0  0  0  0  0  0  0  0  0  0  0  0
    9.1385  -15.5721   21.5284 C   0  0  2  0  0  0  0  0  0  0  0  0
    8.5863  -16.4530   20.4800 N   0  0  0  0  0  0  0  0  0  0  0  0
    9.7304  -16.3873   22.5924 C   0  0  0  0  0  0  0  0  0  0  0  0
    9.2275  -17.4913   22.9717 O   0  0  0  0  0  0  0  0  0  0  0  0
   10.9104  -16.0061   23.2688 N   0  0  0  0  0  0  0  0  0  0  0  0
   11.4631  -16.8935   24.3197 C   0  0  1  0  0  0  0  0  0  0  0  0
   12.9665  -16.6067   24.4273 C   0  0  0  0  0  0  0  0  0  0  0  0
   13.6709  -16.6986   23.1433 C   0  0  0  0  0  0  0  0  0  0  0  0
   13.5959  -17.6436   22.3229 O   0  0  0  0  0  0  0  0  0  0  0  0
   10.7656  -16.5465   25.5731 C   0  0  0  0  0  0  0  0  0  0  0  0
   10.8230  -17.2998   26.7483 O   0  0  0  0  0  0  0  0  0  0  0  0
   14.5065  -15.6226   22.8080 O   0  0  0  0  0  0  0  0  0  0  0  0
   10.0485  -15.5094   25.6591 O   0  0  0  0  0  0  0  0  0  0  0  0
  2  1  1  1
  2  3  1  0
  4  3  1  0
  4  8  1  0
  5  4  2  0
  6  2  1  0
  6  7  2  0
 10  9  1  6
 10 12  1  0
 10 11  1  0
 12 13  1  6
 13  6  1  0
 14 12  1  0
 15 14  2  0
 16 14  1  0
 17 21  1  0
 17 16  1  0
 17 18  1  1
 19 20  2  0
 19 18  1  0
 21 22  1  0
 23 19  1  0
 24 21  2  0
M  END
$$$$
