DVD.pdb
     RDKit          3D

 24 23  0  0  1  0  0  0  0  0999 V2000
    8.5235  -16.9860   16.2663 N   0  0  0  0  0  0  0  0  0  0  0  0
    8.1497  -17.2296   17.6231 C   0  0  1  0  0  0  0  0  0  0  0  0
    8.3370  -18.6822   18.0198 C   0  0  0  0  0  0  0  0  0  0  0  0
    7.4190  -19.5749   17.2919 C   0  0  0  0  0  0  0  0  0  0  0  0
    7.3094  -20.8063   17.5358 O   0  0  0  0  0  0  0  0  0  0  0  0
    8.8721  -16.3585   18.5932 C   0  0  0  0  0  0  0  0  0  0  0  0
   10.1095  -16.2580   18.4679 O   0  0  0  0  0  0  0  0  0  0  0  0
    6.6356  -19.0500   16.2921 O   0  0  0  0  0  0  0  0  0  0  0  0
    7.7410  -12.7459   19.9923 C   0  0  0  0  0  0  0  0  0  0  0  0
    8.1598  -13.7089   21.0605 C   0  0  1  0  0  0  0  0  0  0  0  0
    6.8966  -14.0948   21.8121 C   0  0  0  0  0  0  0  0  0  0  0  0
    8.9600  -14.8868   20.6419 C   0  0  2  0  0  0  0  0  0  0  0  0
    8.2132  -15.6581   19.6282 N   0  0  0  0  0  0  0  0  0  0  0  0
    9.3466  -15.7711   21.7444 C   0  0  0  0  0  0  0  0  0  0  0  0
    8.6786  -16.8048   22.0620 O   0  0  0  0  0  0  0  0  0  0  0  0
   10.4976  -15.5406   22.5301 N   0  0  0  0  0  0  0  0  0  0  0  0
   10.8695  -16.5215   23.5775 C   0  0  1  0  0  0  0  0  0  0  0  0
   12.3659  -16.3471   23.8678 C   0  0  0  0  0  0  0  0  0  0  0  0
   13.2170  -16.5635   22.6923 C   0  0  0  0  0  0  0  0  0  0  0  0
   14.1170  -15.7954   22.2775 O   0  0  0  0  0  0  0  0  0  0  0  0
   10.0569  -16.1965   24.7658 C   0  0  0  0  0  0  0  0  0  0  0  0
    9.9114  -17.0275   25.8794 O   0  0  0  0  0  0  0  0  0  0  0  0
   12.9975  -17.7448   21.9679 O   0  0  0  0  0  0  0  0  0  0  0  0
    9.4211  -15.1074   24.8477 O   0  0  0  0  0  0  0  0  0  0  0  0
  2  1  1  6
  2  3  1  0
  4  3  1  0
  4  8  1  0
  5  4  2  0
  6  2  1  0
  6  7  2  0
 10  9  1  6
 10 12  1  0
 10 11  1  0
 12 13  1  6
 13  6  1  0
 14 12  1  0
 15 14  2  0
 16 14  1  0
 17 21  1  0
 17 16  1  0
 17 18  1  1
 19 20  2  0
 19 18  1  0
 21 22  1  0
 23 19  1  0
 24 21  2  0
M  END
$$$$
