DVD.pdb
     RDKit          3D

 24 23  0  0  1  0  0  0  0  0999 V2000
    8.8873  -17.3581   15.8856 N   0  0  0  0  0  0  0  0  0  0  0  0
    8.1163  -17.3916   17.0873 C   0  0  1  0  0  0  0  0  0  0  0  0
    7.8587  -18.8080   17.5668 C   0  0  0  0  0  0  0  0  0  0  0  0
    7.1123  -19.5988   16.5732 C   0  0  0  0  0  0  0  0  0  0  0  0
    6.4588  -19.0850   15.6262 O   0  0  0  0  0  0  0  0  0  0  0  0
    8.7262  -16.6017   18.1946 C   0  0  0  0  0  0  0  0  0  0  0  0
    9.9673  -16.6427   18.3168 O   0  0  0  0  0  0  0  0  0  0  0  0
    7.1211  -20.9695   16.6728 O   0  0  0  0  0  0  0  0  0  0  0  0
    8.0552  -13.1320   21.7809 C   0  0  0  0  0  0  0  0  0  0  0  0
    7.6594  -13.9488   20.5893 C   0  0  1  0  0  0  0  0  0  0  0  0
    7.3475  -12.9632   19.4755 C   0  0  0  0  0  0  0  0  0  0  0  0
    8.5883  -15.0239   20.1598 C   0  0  2  0  0  0  0  0  0  0  0  0
    7.9588  -15.8246   19.0909 N   0  0  0  0  0  0  0  0  0  0  0  0
    9.0233  -15.9085   21.2439 C   0  0  0  0  0  0  0  0  0  0  0  0
    8.2942  -16.8441   21.7009 O   0  0  0  0  0  0  0  0  0  0  0  0
   10.2913  -15.7884   21.8546 N   0  0  0  0  0  0  0  0  0  0  0  0
   10.7063  -16.7881   22.8675 C   0  0  1  0  0  0  0  0  0  0  0  0
   12.2114  -17.0295   22.6932 C   0  0  0  0  0  0  0  0  0  0  0  0
   12.7929  -17.8696   23.7464 C   0  0  0  0  0  0  0  0  0  0  0  0
   12.1652  -18.4439   24.6674 O   0  0  0  0  0  0  0  0  0  0  0  0
   10.4129  -16.1965   24.1873 C   0  0  0  0  0  0  0  0  0  0  0  0
   10.1837  -16.9312   25.3533 O   0  0  0  0  0  0  0  0  0  0  0  0
   14.1848  -18.0426   23.7138 O   0  0  0  0  0  0  0  0  0  0  0  0
   10.3489  -14.9443   24.3451 O   0  0  0  0  0  0  0  0  0  0  0  0
  2  1  1  6
  2  3  1  0
  4  3  1  0
  4  8  1  0
  5  4  2  0
  6  2  1  0
  6  7  2  0
 10  9  1  1
 10 12  1  0
 10 11  1  0
 12 13  1  6
 13  6  1  0
 14 12  1  0
 15 14  2  0
 16 14  1  0
 17 21  1  0
 17 16  1  0
 17 18  1  1
 19 20  2  0
 19 18  1  0
 21 22  1  0
 23 19  1  0
 24 21  2  0
M  END
$$$$
