DVD.pdb
     RDKit          3D

 24 23  0  0  1  0  0  0  0  0999 V2000
    7.4613  -17.5372   17.4708 N   0  0  0  0  0  0  0  0  0  0  0  0
    8.8404  -17.1929   17.3314 C   0  0  1  0  0  0  0  0  0  0  0  0
    9.1533  -16.6113   15.9653 C   0  0  0  0  0  0  0  0  0  0  0  0
    8.8517  -17.5605   14.8801 C   0  0  0  0  0  0  0  0  0  0  0  0
    7.7043  -18.0396   14.6760 O   0  0  0  0  0  0  0  0  0  0  0  0
    9.3174  -16.2536   18.3859 C   0  0  0  0  0  0  0  0  0  0  0  0
   10.5383  -15.9986   18.4220 O   0  0  0  0  0  0  0  0  0  0  0  0
    9.8659  -17.9522   14.0393 O   0  0  0  0  0  0  0  0  0  0  0  0
    7.5411  -12.8574   19.7919 C   0  0  0  0  0  0  0  0  0  0  0  0
    7.9585  -13.8376   20.8449 C   0  0  1  0  0  0  0  0  0  0  0  0
    6.6804  -14.4426   21.4015 C   0  0  0  0  0  0  0  0  0  0  0  0
    8.9597  -14.8646   20.4628 C   0  0  2  0  0  0  0  0  0  0  0  0
    8.4484  -15.6559   19.3260 N   0  0  0  0  0  0  0  0  0  0  0  0
    9.3418  -15.7644   21.5544 C   0  0  0  0  0  0  0  0  0  0  0  0
    8.7013  -16.8290   21.8225 O   0  0  0  0  0  0  0  0  0  0  0  0
   10.4576  -15.5150   22.3838 N   0  0  0  0  0  0  0  0  0  0  0  0
   10.7507  -16.4413   23.5034 C   0  0  1  0  0  0  0  0  0  0  0  0
   12.2605  -16.3847   23.7708 C   0  0  0  0  0  0  0  0  0  0  0  0
   13.0733  -16.7448   22.6035 C   0  0  0  0  0  0  0  0  0  0  0  0
   13.7527  -15.9581   21.9024 O   0  0  0  0  0  0  0  0  0  0  0  0
    9.9869  -15.9503   24.6667 C   0  0  0  0  0  0  0  0  0  0  0  0
    9.3610  -14.7032   24.7365 O   0  0  0  0  0  0  0  0  0  0  0  0
   13.0871  -18.1006   22.2429 O   0  0  0  0  0  0  0  0  0  0  0  0
    9.8500  -16.6555   25.7065 O   0  0  0  0  0  0  0  0  0  0  0  0
  2  1  1  6
  2  3  1  0
  4  3  1  0
  4  8  1  0
  5  4  2  0
  6  2  1  0
  6  7  2  0
 10  9  1  6
 10 12  1  0
 10 11  1  0
 12 13  1  6
 13  6  1  0
 14 12  1  0
 15 14  2  0
 16 14  1  0
 17 21  1  0
 17 16  1  0
 17 18  1  1
 19 20  2  0
 19 18  1  0
 21 22  1  0
 23 19  1  0
 24 21  2  0
M  END
$$$$
