DVD.pdb
     RDKit          3D

 24 23  0  0  1  0  0  0  0  0999 V2000
    9.1919  -17.5351   16.3571 N   0  0  0  0  0  0  0  0  0  0  0  0
    8.6620  -17.8541   17.6444 C   0  0  1  0  0  0  0  0  0  0  0  0
    8.8912  -19.3070   18.0174 C   0  0  0  0  0  0  0  0  0  0  0  0
    8.2238  -20.2280   17.0815 C   0  0  0  0  0  0  0  0  0  0  0  0
    8.8461  -21.0261   16.3308 O   0  0  0  0  0  0  0  0  0  0  0  0
    9.1934  -16.9793   18.7279 C   0  0  0  0  0  0  0  0  0  0  0  0
   10.4172  -16.7356   18.7245 O   0  0  0  0  0  0  0  0  0  0  0  0
    6.8511  -20.2267   17.0137 O   0  0  0  0  0  0  0  0  0  0  0  0
    6.6591  -15.4200   21.9467 C   0  0  0  0  0  0  0  0  0  0  0  0
    7.7838  -14.6747   21.2959 C   0  0  1  0  0  0  0  0  0  0  0  0
    8.2545  -13.6391   22.3034 C   0  0  0  0  0  0  0  0  0  0  0  0
    8.8994  -15.4768   20.7345 C   0  0  2  0  0  0  0  0  0  0  0  0
    8.3719  -16.4290   19.7371 N   0  0  0  0  0  0  0  0  0  0  0  0
    9.6811  -16.2019   21.7397 C   0  0  0  0  0  0  0  0  0  0  0  0
    9.3806  -17.3742   22.1283 O   0  0  0  0  0  0  0  0  0  0  0  0
   10.8323  -15.6502   22.3442 N   0  0  0  0  0  0  0  0  0  0  0  0
   11.6694  -16.5019   23.2224 C   0  0  1  0  0  0  0  0  0  0  0  0
   13.1051  -15.9643   23.1603 C   0  0  0  0  0  0  0  0  0  0  0  0
   14.0241  -16.6487   24.0769 C   0  0  0  0  0  0  0  0  0  0  0  0
   14.2003  -17.8872   24.1619 O   0  0  0  0  0  0  0  0  0  0  0  0
   11.1140  -16.3762   24.5839 C   0  0  0  0  0  0  0  0  0  0  0  0
   10.4747  -15.2366   25.0783 O   0  0  0  0  0  0  0  0  0  0  0  0
   14.7743  -15.8335   24.9376 O   0  0  0  0  0  0  0  0  0  0  0  0
   11.1879  -17.3273   25.4127 O   0  0  0  0  0  0  0  0  0  0  0  0
  2  1  1  6
  2  3  1  0
  4  3  1  0
  4  8  1  0
  5  4  2  0
  6  2  1  0
  6  7  2  0
 10  9  1  1
 10 12  1  0
 10 11  1  0
 12 13  1  6
 13  6  1  0
 14 12  1  0
 15 14  2  0
 16 14  1  0
 17 21  1  0
 17 16  1  0
 17 18  1  1
 19 20  2  0
 19 18  1  0
 21 22  1  0
 23 19  1  0
 24 21  2  0
M  END
$$$$
