DVD.pdb
     RDKit          3D

 24 23  0  0  1  0  0  0  0  0999 V2000
    6.6199  -14.9659   20.7399 N   0  0  0  0  0  0  0  0  0  0  0  0
    6.2981  -15.5266   22.0135 C   0  0  1  0  0  0  0  0  0  0  0  0
    6.2587  -17.0431   21.9815 C   0  0  0  0  0  0  0  0  0  0  0  0
    5.2765  -17.5483   21.0070 C   0  0  0  0  0  0  0  0  0  0  0  0
    4.0349  -17.5705   21.2209 O   0  0  0  0  0  0  0  0  0  0  0  0
    7.2201  -15.0820   23.0971 C   0  0  0  0  0  0  0  0  0  0  0  0
    8.4453  -15.1208   22.8640 O   0  0  0  0  0  0  0  0  0  0  0  0
    5.7245  -18.0232   19.7976 O   0  0  0  0  0  0  0  0  0  0  0  0
    7.8341  -12.8211   27.5316 C   0  0  0  0  0  0  0  0  0  0  0  0
    7.0538  -13.2716   26.3349 C   0  0  1  0  0  0  0  0  0  0  0  0
    6.6243  -12.0120   25.6012 C   0  0  0  0  0  0  0  0  0  0  0  0
    7.6931  -14.2672   25.4386 C   0  0  2  0  0  0  0  0  0  0  0  0
    6.7595  -14.6278   24.3531 N   0  0  0  0  0  0  0  0  0  0  0  0
    8.1465  -15.4827   26.1198 C   0  0  0  0  0  0  0  0  0  0  0  0
    7.3426  -16.3198   26.6379 O   0  0  0  0  0  0  0  0  0  0  0  0
    9.5140  -15.8150   26.2423 N   0  0  0  0  0  0  0  0  0  0  0  0
    9.8963  -17.0729   26.9270 C   0  0  1  0  0  0  0  0  0  0  0  0
   10.9175  -17.7946   26.0379 C   0  0  0  0  0  0  0  0  0  0  0  0
   12.0034  -16.9244   25.5726 C   0  0  0  0  0  0  0  0  0  0  0  0
   12.9635  -16.5048   26.2612 O   0  0  0  0  0  0  0  0  0  0  0  0
   10.4975  -16.6836   28.2173 C   0  0  0  0  0  0  0  0  0  0  0  0
   10.6958  -15.3652   28.6352 O   0  0  0  0  0  0  0  0  0  0  0  0
   11.9568  -16.5277   24.2276 O   0  0  0  0  0  0  0  0  0  0  0  0
   10.8830  -17.5526   29.0500 O   0  0  0  0  0  0  0  0  0  0  0  0
  2  1  1  6
  2  3  1  0
  4  3  1  0
  4  8  1  0
  5  4  2  0
  6  2  1  0
  6  7  2  0
 10  9  1  1
 10 12  1  0
 10 11  1  0
 12 13  1  6
 13  6  1  0
 14 12  1  0
 15 14  2  0
 16 14  1  0
 17 21  1  0
 17 16  1  0
 17 18  1  6
 19 20  2  0
 19 18  1  0
 21 22  1  0
 23 19  1  0
 24 21  2  0
M  END
$$$$
