FWW.pdb
     RDKit          3D

 40 44  0  0  1  0  0  0  0  0999 V2000
   27.4995  -19.4888  -19.3606 N   0  0  0  0  0  0  0  0  0  0  0  0
   27.3533  -18.6978  -18.1555 C   0  0  1  0  0  0  0  0  0  0  0  0
   26.4206  -17.5103  -18.4288 C   0  0  0  0  0  0  0  0  0  0  0  0
   27.1725  -16.4265  -19.0986 C   0  0  0  0  0  0  0  0  0  0  0  0
   28.1169  -15.7057  -18.4077 C   0  0  0  0  0  0  0  0  0  0  0  0
   28.7979  -14.6919  -19.0812 C   0  0  0  0  0  0  0  0  0  0  0  0
   28.4899  -14.4670  -20.3968 C   0  0  0  0  0  0  0  0  0  0  0  0
   27.5532  -15.1814  -21.0830 C   0  0  0  0  0  0  0  0  0  0  0  0
   26.8690  -16.1910  -20.4280 C   0  0  0  0  0  0  0  0  0  0  0  0
   26.7300  -19.4866  -17.0614 C   0  0  0  0  0  0  0  0  0  0  0  0
   25.8646  -20.3782  -17.3007 O   0  0  0  0  0  0  0  0  0  0  0  0
   27.0767  -19.2820  -15.6979 N   0  0  0  0  0  0  0  0  0  0  0  0
   26.4485  -20.0355  -14.6083 C   0  0  1  0  0  0  0  0  0  0  0  0
   27.3287  -19.9967  -13.3950 C   0  0  0  0  0  0  0  0  0  0  0  0
   26.8934  -20.7832  -12.2494 C   0  0  0  0  0  0  0  0  0  0  0  0
   26.7430  -22.1577  -12.1352 C   0  0  0  0  0  0  0  0  0  0  0  0
   26.3816  -22.4755  -10.8947 N   0  0  0  0  0  0  0  0  0  0  0  0
   26.2834  -21.3484  -10.1696 C   0  0  0  0  0  0  0  0  0  0  0  0
   25.9331  -21.1393   -8.8623 C   0  0  0  0  0  0  0  0  0  0  0  0
   25.8775  -19.8839   -8.3255 C   0  0  0  0  0  0  0  0  0  0  0  0
   26.1826  -18.7882   -9.1211 C   0  0  0  0  0  0  0  0  0  0  0  0
   26.5297  -19.0236  -10.4213 C   0  0  0  0  0  0  0  0  0  0  0  0
   26.5981  -20.2927  -11.0009 C   0  0  0  0  0  0  0  0  0  0  0  0
   25.0618  -19.5974  -14.4477 C   0  0  0  0  0  0  0  0  0  0  0  0
   24.8217  -18.3346  -14.3279 O   0  0  0  0  0  0  0  0  0  0  0  0
   23.9086  -20.3944  -14.4089 N   0  0  0  0  0  0  0  0  0  0  0  0
   22.5942  -20.0095  -13.9640 C   0  0  1  0  0  0  0  0  0  0  0  0
   21.5660  -19.9965  -15.0165 C   0  0  0  0  0  0  0  0  0  0  0  0
   21.9554  -19.1092  -16.1338 C   0  0  0  0  0  0  0  0  0  0  0  0
   21.8078  -17.7168  -16.2090 C   0  0  0  0  0  0  0  0  0  0  0  0
   22.2590  -17.2905  -17.3910 N   0  0  0  0  0  0  0  0  0  0  0  0
   22.7088  -18.3187  -18.1313 C   0  0  0  0  0  0  0  0  0  0  0  0
   23.2602  -18.4180  -19.3915 C   0  0  0  0  0  0  0  0  0  0  0  0
   23.6472  -19.6381  -19.9302 C   0  0  0  0  0  0  0  0  0  0  0  0
   23.4658  -20.7774  -19.1631 C   0  0  0  0  0  0  0  0  0  0  0  0
   22.9125  -20.6557  -17.9053 C   0  0  0  0  0  0  0  0  0  0  0  0
   22.5204  -19.4497  -17.3506 C   0  0  0  0  0  0  0  0  0  0  0  0
   22.1185  -20.7810  -12.7771 C   0  0  0  0  0  0  0  0  0  0  0  0
   22.7683  -21.7680  -12.3575 O   0  0  0  0  0  0  0  0  0  0  0  0
   20.9613  -20.4828  -12.0698 O   0  0  0  0  0  0  0  0  0  0  0  0
  2  1  1  6
  3  4  1  0
  3  2  1  0
  4  5  2  0
  5  6  1  0
  7  6  2  0
  8  7  1  0
  9  8  2  0
  9  4  1  0
 10 11  2  0
 10  2  1  0
 12 10  1  0
 13 12  1  0
 13 14  1  1
 15 23  1  0
 15 14  1  0
 16 15  2  0
 17 16  1  0
 17 18  1  0
 18 19  1  0
 18 23  2  0
 19 20  2  0
 20 21  1  0
 22 21  2  0
 23 22  1  0
 24 13  1  0
 25 24  2  0
 26 24  1  0
 27 38  1  0
 27 26  1  0
 28 29  1  0
 27 28  1  6
 29 30  2  0
 31 30  1  0
 32 31  1  0
 33 32  2  0
 34 33  1  0
 35 34  2  0
 35 36  1  0
 36 37  2  0
 37 32  1  0
 37 29  1  0
 38 40  1  0
 39 38  2  0
M  END
$$$$
