FWW.pdb
     RDKit          3D

 40 44  0  0  1  0  0  0  0  0999 V2000
   26.6040  -23.9845  -17.2413 N   0  0  0  0  0  0  0  0  0  0  0  0
   25.5069  -23.4477  -16.4619 C   0  0  1  0  0  0  0  0  0  0  0  0
   24.5683  -24.5866  -16.0415 C   0  0  0  0  0  0  0  0  0  0  0  0
   23.7836  -25.0459  -17.2085 C   0  0  0  0  0  0  0  0  0  0  0  0
   24.1498  -26.1827  -17.8885 C   0  0  0  0  0  0  0  0  0  0  0  0
   23.3805  -26.5743  -18.9840 C   0  0  0  0  0  0  0  0  0  0  0  0
   22.2997  -25.8052  -19.3255 C   0  0  0  0  0  0  0  0  0  0  0  0
   21.9358  -24.6774  -18.6516 C   0  0  0  0  0  0  0  0  0  0  0  0
   22.6896  -24.2761  -17.5620 C   0  0  0  0  0  0  0  0  0  0  0  0
   25.9917  -22.8106  -15.2103 C   0  0  0  0  0  0  0  0  0  0  0  0
   27.0582  -23.1913  -14.6458 O   0  0  0  0  0  0  0  0  0  0  0  0
   25.2862  -21.7434  -14.5901 N   0  0  0  0  0  0  0  0  0  0  0  0
   25.8375  -20.9938  -13.4570 C   0  0  1  0  0  0  0  0  0  0  0  0
   25.9431  -19.5418  -13.8161 C   0  0  0  0  0  0  0  0  0  0  0  0
   27.1160  -19.1441  -14.5819 C   0  0  0  0  0  0  0  0  0  0  0  0
   27.2043  -18.2879  -15.6700 C   0  0  0  0  0  0  0  0  0  0  0  0
   28.4752  -18.1468  -16.0375 N   0  0  0  0  0  0  0  0  0  0  0  0
   29.2464  -18.8882  -15.2243 C   0  0  0  0  0  0  0  0  0  0  0  0
   30.6004  -19.0926  -15.1968 C   0  0  0  0  0  0  0  0  0  0  0  0
   31.1836  -19.9193  -14.2782 C   0  0  0  0  0  0  0  0  0  0  0  0
   30.3881  -20.5719  -13.3465 C   0  0  0  0  0  0  0  0  0  0  0  0
   29.0409  -20.3507  -13.3947 C   0  0  0  0  0  0  0  0  0  0  0  0
   28.4129  -19.5116  -14.3183 C   0  0  0  0  0  0  0  0  0  0  0  0
   25.0990  -21.3341  -12.2406 C   0  0  0  0  0  0  0  0  0  0  0  0
   23.8183  -21.4797  -12.3145 O   0  0  0  0  0  0  0  0  0  0  0  0
   25.6138  -21.5367  -10.9520 N   0  0  0  0  0  0  0  0  0  0  0  0
   24.8710  -21.7602   -9.7388 C   0  0  1  0  0  0  0  0  0  0  0  0
   25.6973  -21.9852   -8.5422 C   0  0  0  0  0  0  0  0  0  0  0  0
   26.1690  -20.7057   -7.9696 C   0  0  0  0  0  0  0  0  0  0  0  0
   25.5186  -19.4641   -8.0041 C   0  0  0  0  0  0  0  0  0  0  0  0
   26.2814  -18.5516   -7.3976 N   0  0  0  0  0  0  0  0  0  0  0  0
   27.4224  -19.1030   -6.9484 C   0  0  0  0  0  0  0  0  0  0  0  0
   28.5193  -18.6102   -6.2732 C   0  0  0  0  0  0  0  0  0  0  0  0
   29.5912  -19.4205   -5.9223 C   0  0  0  0  0  0  0  0  0  0  0  0
   29.5378  -20.7605   -6.2697 C   0  0  0  0  0  0  0  0  0  0  0  0
   28.4314  -21.2328   -6.9448 C   0  0  0  0  0  0  0  0  0  0  0  0
   27.3533  -20.4421   -7.3035 C   0  0  0  0  0  0  0  0  0  0  0  0
   23.8382  -20.7148   -9.4726 C   0  0  0  0  0  0  0  0  0  0  0  0
   23.9704  -19.5572   -9.9362 O   0  0  0  0  0  0  0  0  0  0  0  0
   22.6929  -20.9289   -8.7173 O   0  0  0  0  0  0  0  0  0  0  0  0
  2  1  1  1
  3  4  1  0
  3  2  1  0
  4  5  2  0
  5  6  1  0
  7  6  2  0
  8  7  1  0
  9  8  2  0
  9  4  1  0
 10 11  2  0
 10  2  1  0
 12 10  1  0
 13 12  1  0
 13 14  1  6
 15 23  1  0
 15 14  1  0
 16 15  2  0
 17 16  1  0
 17 18  1  0
 18 19  1  0
 18 23  2  0
 19 20  2  0
 20 21  1  0
 22 21  2  0
 23 22  1  0
 24 13  1  0
 25 24  2  0
 26 24  1  0
 27 38  1  0
 27 26  1  0
 28 29  1  0
 27 28  1  1
 29 30  2  0
 31 30  1  0
 32 31  1  0
 33 32  2  0
 34 33  1  0
 35 34  2  0
 35 36  1  0
 36 37  2  0
 37 32  1  0
 37 29  1  0
 38 40  1  0
 39 38  2  0
M  END
$$$$
