FWW.pdb
     RDKit          3D

 40 44  0  0  1  0  0  0  0  0999 V2000
   28.7646  -21.0085  -16.9299 N   0  0  0  0  0  0  0  0  0  0  0  0
   27.4790  -21.2881  -16.3231 C   0  0  1  0  0  0  0  0  0  0  0  0
   27.0731  -22.7377  -16.6212 C   0  0  0  0  0  0  0  0  0  0  0  0
   26.7297  -22.8775  -18.0534 C   0  0  0  0  0  0  0  0  0  0  0  0
   27.6460  -23.3881  -18.9414 C   0  0  0  0  0  0  0  0  0  0  0  0
   27.2771  -23.4981  -20.2819 C   0  0  0  0  0  0  0  0  0  0  0  0
   26.0203  -23.0912  -20.6440 C   0  0  0  0  0  0  0  0  0  0  0  0
   25.1107  -22.5846  -19.7640 C   0  0  0  0  0  0  0  0  0  0  0  0
   25.4623  -22.4694  -18.4299 C   0  0  0  0  0  0  0  0  0  0  0  0
   27.5373  -21.1571  -14.8443 C   0  0  0  0  0  0  0  0  0  0  0  0
   28.5008  -21.6338  -14.1768 O   0  0  0  0  0  0  0  0  0  0  0  0
   26.5198  -20.4889  -14.1098 N   0  0  0  0  0  0  0  0  0  0  0  0
   26.4943  -20.4722  -12.6440 C   0  0  1  0  0  0  0  0  0  0  0  0
   25.5171  -19.4391  -12.1681 C   0  0  0  0  0  0  0  0  0  0  0  0
   24.1224  -19.6456  -12.5320 C   0  0  0  0  0  0  0  0  0  0  0  0
   23.1520  -20.4037  -11.8928 C   0  0  0  0  0  0  0  0  0  0  0  0
   21.9859  -20.2751  -12.5205 N   0  0  0  0  0  0  0  0  0  0  0  0
   22.1465  -19.4494  -13.5685 C   0  0  0  0  0  0  0  0  0  0  0  0
   21.2660  -19.0149  -14.5233 C   0  0  0  0  0  0  0  0  0  0  0  0
   21.6545  -18.1771  -15.5305 C   0  0  0  0  0  0  0  0  0  0  0  0
   22.9745  -17.7523  -15.5929 C   0  0  0  0  0  0  0  0  0  0  0  0
   23.8325  -18.1993  -14.6284 C   0  0  0  0  0  0  0  0  0  0  0  0
   23.4685  -19.0540  -13.5851 C   0  0  0  0  0  0  0  0  0  0  0  0
   26.3281  -21.8367  -12.1428 C   0  0  0  0  0  0  0  0  0  0  0  0
   26.1712  -22.7940  -12.9946 O   0  0  0  0  0  0  0  0  0  0  0  0
   26.3200  -22.2659  -10.8078 N   0  0  0  0  0  0  0  0  0  0  0  0
   26.4483  -21.4520   -9.6268 C   0  0  1  0  0  0  0  0  0  0  0  0
   27.6967  -20.6776   -9.5440 C   0  0  0  0  0  0  0  0  0  0  0  0
   27.8081  -19.9796   -8.2449 C   0  0  0  0  0  0  0  0  0  0  0  0
   27.1896  -18.7799   -7.8650 C   0  0  0  0  0  0  0  0  0  0  0  0
   27.5615  -18.4687   -6.6211 N   0  0  0  0  0  0  0  0  0  0  0  0
   28.4038  -19.3931   -6.1274 C   0  0  0  0  0  0  0  0  0  0  0  0
   29.0614  -19.5392   -4.9240 C   0  0  0  0  0  0  0  0  0  0  0  0
   29.8969  -20.6190   -4.6697 C   0  0  0  0  0  0  0  0  0  0  0  0
   30.0613  -21.5664   -5.6669 C   0  0  0  0  0  0  0  0  0  0  0  0
   29.3943  -21.4010   -6.8631 C   0  0  0  0  0  0  0  0  0  0  0  0
   28.5577  -20.3327   -7.1362 C   0  0  0  0  0  0  0  0  0  0  0  0
   25.2682  -20.5703   -9.3810 C   0  0  0  0  0  0  0  0  0  0  0  0
   25.1018  -19.5270  -10.0563 O   0  0  0  0  0  0  0  0  0  0  0  0
   24.2975  -20.8216   -8.4204 O   0  0  0  0  0  0  0  0  0  0  0  0
  2  1  1  6
  3  4  1  0
  3  2  1  0
  4  5  2  0
  5  6  1  0
  7  6  2  0
  8  7  1  0
  9  8  2  0
  9  4  1  0
 10 11  2  0
 10  2  1  0
 12 10  1  0
 13 12  1  0
 13 14  1  6
 15 23  1  0
 15 14  1  0
 16 15  2  0
 17 16  1  0
 17 18  1  0
 18 19  1  0
 18 23  2  0
 19 20  2  0
 20 21  1  0
 22 21  2  0
 23 22  1  0
 24 13  1  0
 25 24  2  0
 26 24  1  0
 27 38  1  0
 27 26  1  0
 28 29  1  0
 27 28  1  6
 29 30  2  0
 31 30  1  0
 32 31  1  0
 33 32  2  0
 34 33  1  0
 35 34  2  0
 35 36  1  0
 36 37  2  0
 37 32  1  0
 37 29  1  0
 38 40  1  0
 39 38  2  0
M  END
$$$$
