FWW.pdb
     RDKit          3D

 40 44  0  0  1  0  0  0  0  0999 V2000
   28.2380  -21.0509  -14.2444 N   0  0  0  0  0  0  0  0  0  0  0  0
   27.4066  -20.1088  -13.5229 C   0  0  1  0  0  0  0  0  0  0  0  0
   26.4134  -19.4520  -14.4909 C   0  0  0  0  0  0  0  0  0  0  0  0
   27.1108  -18.4396  -15.3139 C   0  0  0  0  0  0  0  0  0  0  0  0
   27.3848  -17.1948  -14.8001 C   0  0  0  0  0  0  0  0  0  0  0  0
   28.0417  -16.2731  -15.6151 C   0  0  0  0  0  0  0  0  0  0  0  0
   28.3797  -16.6567  -16.8859 C   0  0  0  0  0  0  0  0  0  0  0  0
   28.1083  -17.8912  -17.3965 C   0  0  0  0  0  0  0  0  0  0  0  0
   27.4568  -18.8169  -16.5994 C   0  0  0  0  0  0  0  0  0  0  0  0
   26.5979  -20.7885  -12.4782 C   0  0  0  0  0  0  0  0  0  0  0  0
   26.1338  -21.9522  -12.6556 O   0  0  0  0  0  0  0  0  0  0  0  0
   26.3102  -20.1690  -11.2313 N   0  0  0  0  0  0  0  0  0  0  0  0
   25.4866  -20.8172  -10.2060 C   0  0  1  0  0  0  0  0  0  0  0  0
   25.9722  -20.4210   -8.8438 C   0  0  0  0  0  0  0  0  0  0  0  0
   27.3687  -20.7031   -8.5429 C   0  0  0  0  0  0  0  0  0  0  0  0
   28.3100  -21.3823   -9.3028 C   0  0  0  0  0  0  0  0  0  0  0  0
   29.4904  -21.3653   -8.6889 N   0  0  0  0  0  0  0  0  0  0  0  0
   29.3677  -20.6919   -7.5325 C   0  0  0  0  0  0  0  0  0  0  0  0
   30.2754  -20.4124   -6.5458 C   0  0  0  0  0  0  0  0  0  0  0  0
   29.9246  -19.7169   -5.4230 C   0  0  0  0  0  0  0  0  0  0  0  0
   28.6156  -19.2800   -5.2731 C   0  0  0  0  0  0  0  0  0  0  0  0
   27.7299  -19.5710   -6.2716 C   0  0  0  0  0  0  0  0  0  0  0  0
   28.0553  -20.2776   -7.4319 C   0  0  0  0  0  0  0  0  0  0  0  0
   24.0714  -20.5980  -10.5059 C   0  0  0  0  0  0  0  0  0  0  0  0
   23.4745  -19.5869   -9.9691 O   0  0  0  0  0  0  0  0  0  0  0  0
   23.2405  -21.3654  -11.3349 N   0  0  0  0  0  0  0  0  0  0  0  0
   22.2897  -20.8864  -12.3046 C   0  0  1  0  0  0  0  0  0  0  0  0
   22.8091  -19.8609  -13.2232 C   0  0  0  0  0  0  0  0  0  0  0  0
   21.7298  -19.3013  -14.0655 C   0  0  0  0  0  0  0  0  0  0  0  0
   20.6504  -18.5071  -13.6530 C   0  0  0  0  0  0  0  0  0  0  0  0
   19.8837  -18.2254  -14.7091 N   0  0  0  0  0  0  0  0  0  0  0  0
   20.3811  -18.7855  -15.8255 C   0  0  0  0  0  0  0  0  0  0  0  0
   19.9812  -18.8009  -17.1453 C   0  0  0  0  0  0  0  0  0  0  0  0
   20.6990  -19.4777  -18.1227 C   0  0  0  0  0  0  0  0  0  0  0  0
   21.8478  -20.1510  -17.7404 C   0  0  0  0  0  0  0  0  0  0  0  0
   22.2299  -20.1229  -16.4152 C   0  0  0  0  0  0  0  0  0  0  0  0
   21.5288  -19.4546  -15.4263 C   0  0  0  0  0  0  0  0  0  0  0  0
   21.6161  -21.9795  -13.0672 C   0  0  0  0  0  0  0  0  0  0  0  0
   20.3683  -21.9939  -13.1904 O   0  0  0  0  0  0  0  0  0  0  0  0
   22.2890  -23.0303  -13.6765 O   0  0  0  0  0  0  0  0  0  0  0  0
  2  1  1  6
  3  4  1  0
  3  2  1  0
  4  5  2  0
  5  6  1  0
  7  6  2  0
  8  7  1  0
  9  8  2  0
  9  4  1  0
 10 11  2  0
 10  2  1  0
 12 10  1  0
 13 12  1  0
 13 14  1  1
 15 23  1  0
 15 14  1  0
 16 15  2  0
 17 16  1  0
 17 18  1  0
 18 19  1  0
 18 23  2  0
 19 20  2  0
 20 21  1  0
 22 21  2  0
 23 22  1  0
 24 13  1  0
 25 24  2  0
 26 24  1  0
 27 38  1  0
 27 26  1  0
 28 29  1  0
 27 28  1  6
 29 30  2  0
 31 30  1  0
 32 31  1  0
 33 32  2  0
 34 33  1  0
 35 34  2  0
 35 36  1  0
 36 37  2  0
 37 32  1  0
 37 29  1  0
 38 40  1  0
 39 38  2  0
M  END
$$$$
