FWW.pdb
     RDKit          3D

 40 44  0  0  1  0  0  0  0  0999 V2000
   25.7485  -23.3023  -15.6355 N   0  0  0  0  0  0  0  0  0  0  0  0
   25.0523  -22.0524  -15.4066 C   0  0  1  0  0  0  0  0  0  0  0  0
   23.9118  -21.9046  -16.4226 C   0  0  0  0  0  0  0  0  0  0  0  0
   24.4663  -21.5744  -17.7538 C   0  0  0  0  0  0  0  0  0  0  0  0
   25.0292  -20.3424  -17.9864 C   0  0  0  0  0  0  0  0  0  0  0  0
   25.5360  -20.0766  -19.2582 C   0  0  0  0  0  0  0  0  0  0  0  0
   25.4465  -21.0576  -20.2099 C   0  0  0  0  0  0  0  0  0  0  0  0
   24.8883  -22.2800  -19.9803 C   0  0  0  0  0  0  0  0  0  0  0  0
   24.3809  -22.5586  -18.7227 C   0  0  0  0  0  0  0  0  0  0  0  0
   24.4295  -22.0177  -14.0582 C   0  0  0  0  0  0  0  0  0  0  0  0
   23.9853  -23.0675  -13.5089 O   0  0  0  0  0  0  0  0  0  0  0  0
   24.3060  -20.8089  -13.3200 N   0  0  0  0  0  0  0  0  0  0  0  0
   23.6843  -20.7614  -11.9930 C   0  0  1  0  0  0  0  0  0  0  0  0
   24.6847  -20.2825  -10.9839 C   0  0  0  0  0  0  0  0  0  0  0  0
   26.0890  -20.4745  -11.3175 C   0  0  0  0  0  0  0  0  0  0  0  0
   26.9875  -21.4105  -10.8260 C   0  0  0  0  0  0  0  0  0  0  0  0
   28.1609  -21.2828  -11.4402 N   0  0  0  0  0  0  0  0  0  0  0  0
   28.0760  -20.2825  -12.3334 C   0  0  0  0  0  0  0  0  0  0  0  0
   29.0020  -19.7539  -13.1930 C   0  0  0  0  0  0  0  0  0  0  0  0
   28.7022  -18.7042  -14.0150 C   0  0  0  0  0  0  0  0  0  0  0  0
   27.4278  -18.1550  -13.9820 C   0  0  0  0  0  0  0  0  0  0  0  0
   26.5225  -18.7007  -13.1166 C   0  0  0  0  0  0  0  0  0  0  0  0
   26.7951  -19.7737  -12.2647 C   0  0  0  0  0  0  0  0  0  0  0  0
   22.4134  -20.0410  -12.0746 C   0  0  0  0  0  0  0  0  0  0  0  0
   22.4240  -18.8093  -12.4613 O   0  0  0  0  0  0  0  0  0  0  0  0
   21.1308  -20.5269  -11.7824 N   0  0  0  0  0  0  0  0  0  0  0  0
   20.0732  -20.8198  -12.7149 C   0  0  1  0  0  0  0  0  0  0  0  0
   20.5195  -21.3999  -13.9913 C   0  0  0  0  0  0  0  0  0  0  0  0
   20.5342  -20.3830  -15.0651 C   0  0  0  0  0  0  0  0  0  0  0  0
   20.6319  -18.9916  -14.9212 C   0  0  0  0  0  0  0  0  0  0  0  0
   20.5861  -18.4211  -16.1274 N   0  0  0  0  0  0  0  0  0  0  0  0
   20.4618  -19.3493  -17.0921 C   0  0  0  0  0  0  0  0  0  0  0  0
   20.3711  -19.2906  -18.4670 C   0  0  0  0  0  0  0  0  0  0  0  0
   20.2449  -20.4343  -19.2445 C   0  0  0  0  0  0  0  0  0  0  0  0
   20.2110  -21.6607  -18.6012 C   0  0  0  0  0  0  0  0  0  0  0  0
   20.3032  -21.6969  -17.2252 C   0  0  0  0  0  0  0  0  0  0  0  0
   20.4295  -20.5692  -16.4326 C   0  0  0  0  0  0  0  0  0  0  0  0
   18.9703  -21.6365  -12.1259 C   0  0  0  0  0  0  0  0  0  0  0  0
   17.7799  -21.4377  -12.4659 O   0  0  0  0  0  0  0  0  0  0  0  0
   19.1640  -22.6419  -11.1879 O   0  0  0  0  0  0  0  0  0  0  0  0
  2  1  1  6
  3  4  1  0
  3  2  1  0
  4  5  2  0
  5  6  1  0
  7  6  2  0
  8  7  1  0
  9  8  2  0
  9  4  1  0
 10 11  2  0
 10  2  1  0
 12 10  1  0
 13 12  1  0
 13 14  1  1
 15 23  1  0
 15 14  1  0
 16 15  2  0
 17 16  1  0
 17 18  1  0
 18 19  1  0
 18 23  2  0
 19 20  2  0
 20 21  1  0
 22 21  2  0
 23 22  1  0
 24 13  1  0
 25 24  2  0
 26 24  1  0
 27 38  1  0
 27 26  1  0
 28 29  1  0
 27 28  1  6
 29 30  2  0
 31 30  1  0
 32 31  1  0
 33 32  2  0
 34 33  1  0
 35 34  2  0
 35 36  1  0
 36 37  2  0
 37 32  1  0
 37 29  1  0
 38 40  1  0
 39 38  2  0
M  END
$$$$
