FWW.pdb
     RDKit          3D

 40 44  0  0  1  0  0  0  0  0999 V2000
   28.5050  -24.0252  -19.9528 N   0  0  0  0  0  0  0  0  0  0  0  0
   27.3546  -23.6933  -19.1370 C   0  0  1  0  0  0  0  0  0  0  0  0
   26.3718  -24.8718  -19.1289 C   0  0  0  0  0  0  0  0  0  0  0  0
   25.5408  -24.8398  -20.3525 C   0  0  0  0  0  0  0  0  0  0  0  0
   25.9905  -25.4215  -21.5136 C   0  0  0  0  0  0  0  0  0  0  0  0
   25.1727  -25.3632  -22.6419 C   0  0  0  0  0  0  0  0  0  0  0  0
   23.9634  -24.7289  -22.5342 C   0  0  0  0  0  0  0  0  0  0  0  0
   23.5166  -24.1516  -21.3829 C   0  0  0  0  0  0  0  0  0  0  0  0
   24.3172  -24.2013  -20.2546 C   0  0  0  0  0  0  0  0  0  0  0  0
   27.7435  -23.4525  -17.7235 C   0  0  0  0  0  0  0  0  0  0  0  0
   28.8853  -23.7805  -17.2878 O   0  0  0  0  0  0  0  0  0  0  0  0
   26.8570  -22.8405  -16.7956 N   0  0  0  0  0  0  0  0  0  0  0  0
   27.3367  -22.0350  -15.6683 C   0  0  1  0  0  0  0  0  0  0  0  0
   27.9732  -20.7779  -16.1810 C   0  0  0  0  0  0  0  0  0  0  0  0
   28.1341  -19.6923  -15.2239 C   0  0  0  0  0  0  0  0  0  0  0  0
   29.1090  -19.5165  -14.2526 C   0  0  0  0  0  0  0  0  0  0  0  0
   28.9270  -18.3556  -13.6285 N   0  0  0  0  0  0  0  0  0  0  0  0
   27.8521  -17.7445  -14.1546 C   0  0  0  0  0  0  0  0  0  0  0  0
   27.2493  -16.5522  -13.8533 C   0  0  0  0  0  0  0  0  0  0  0  0
   26.1317  -16.1253  -14.5135 C   0  0  0  0  0  0  0  0  0  0  0  0
   25.5884  -16.9165  -15.5164 C   0  0  0  0  0  0  0  0  0  0  0  0
   26.2087  -18.1006  -15.7981 C   0  0  0  0  0  0  0  0  0  0  0  0
   27.3523  -18.5658  -15.1446 C   0  0  0  0  0  0  0  0  0  0  0  0
   26.2674  -21.8928  -14.6798 C   0  0  0  0  0  0  0  0  0  0  0  0
   25.0869  -21.5661  -15.0877 O   0  0  0  0  0  0  0  0  0  0  0  0
   26.3516  -22.0748  -13.2918 N   0  0  0  0  0  0  0  0  0  0  0  0
   25.3466  -21.7680  -12.3071 C   0  0  1  0  0  0  0  0  0  0  0  0
   25.5903  -22.3460  -10.9761 C   0  0  0  0  0  0  0  0  0  0  0  0
   26.1233  -21.3311  -10.0416 C   0  0  0  0  0  0  0  0  0  0  0  0
   25.4926  -20.1566   -9.6070 C   0  0  0  0  0  0  0  0  0  0  0  0
   26.3122  -19.4960   -8.7859 N   0  0  0  0  0  0  0  0  0  0  0  0
   27.4734  -20.1565   -8.6345 C   0  0  0  0  0  0  0  0  0  0  0  0
   28.6242  -19.9110   -7.9153 C   0  0  0  0  0  0  0  0  0  0  0  0
   29.7051  -20.7826   -7.9384 C   0  0  0  0  0  0  0  0  0  0  0  0
   29.6047  -21.9269   -8.7128 C   0  0  0  0  0  0  0  0  0  0  0  0
   28.4448  -22.1532   -9.4244 C   0  0  0  0  0  0  0  0  0  0  0  0
   27.3568  -21.2974   -9.4147 C   0  0  0  0  0  0  0  0  0  0  0  0
   25.0474  -20.3089  -12.1973 C   0  0  0  0  0  0  0  0  0  0  0  0
   23.8981  -19.9167  -11.8851 O   0  0  0  0  0  0  0  0  0  0  0  0
   25.9798  -19.3055  -12.4257 O   0  0  0  0  0  0  0  0  0  0  0  0
  2  1  1  6
  3  4  1  0
  3  2  1  0
  4  5  2  0
  5  6  1  0
  7  6  2  0
  8  7  1  0
  9  8  2  0
  9  4  1  0
 10 11  2  0
 10  2  1  0
 12 10  1  0
 13 12  1  0
 13 14  1  6
 15 23  1  0
 15 14  1  0
 16 15  2  0
 17 16  1  0
 17 18  1  0
 18 19  1  0
 18 23  2  0
 19 20  2  0
 20 21  1  0
 22 21  2  0
 23 22  1  0
 24 13  1  0
 25 24  2  0
 26 24  1  0
 27 38  1  0
 27 26  1  0
 28 29  1  0
 27 28  1  1
 29 30  2  0
 31 30  1  0
 32 31  1  0
 33 32  2  0
 34 33  1  0
 35 34  2  0
 35 36  1  0
 36 37  2  0
 37 32  1  0
 37 29  1  0
 38 40  1  0
 39 38  2  0
M  END
$$$$
