FWW.pdb
     RDKit          3D

 40 44  0  0  1  0  0  0  0  0999 V2000
   29.5356  -23.1360  -17.8524 N   0  0  0  0  0  0  0  0  0  0  0  0
   29.6772  -22.9993  -16.4169 C   0  0  1  0  0  0  0  0  0  0  0  0
   31.1361  -22.6712  -16.0723 C   0  0  0  0  0  0  0  0  0  0  0  0
   31.9875  -23.8560  -16.3172 C   0  0  0  0  0  0  0  0  0  0  0  0
   31.9794  -24.9118  -15.4374 C   0  0  0  0  0  0  0  0  0  0  0  0
   32.8011  -26.0054  -15.7095 C   0  0  0  0  0  0  0  0  0  0  0  0
   33.5739  -25.9703  -16.8399 C   0  0  0  0  0  0  0  0  0  0  0  0
   33.5827  -24.9235  -17.7132 C   0  0  0  0  0  0  0  0  0  0  0  0
   32.7723  -23.8309  -17.4566 C   0  0  0  0  0  0  0  0  0  0  0  0
   28.8533  -21.8785  -15.8950 C   0  0  0  0  0  0  0  0  0  0  0  0
   29.0364  -20.6881  -16.2828 O   0  0  0  0  0  0  0  0  0  0  0  0
   27.8200  -22.0881  -14.9412 N   0  0  0  0  0  0  0  0  0  0  0  0
   26.8903  -21.0251  -14.5470 C   0  0  1  0  0  0  0  0  0  0  0  0
   26.0653  -20.6124  -15.7292 C   0  0  0  0  0  0  0  0  0  0  0  0
   24.9955  -19.6578  -15.4751 C   0  0  0  0  0  0  0  0  0  0  0  0
   25.0778  -18.3442  -15.0364 C   0  0  0  0  0  0  0  0  0  0  0  0
   23.8640  -17.8010  -14.9924 N   0  0  0  0  0  0  0  0  0  0  0  0
   22.9645  -18.7169  -15.3897 C   0  0  0  0  0  0  0  0  0  0  0  0
   21.6010  -18.6584  -15.5036 C   0  0  0  0  0  0  0  0  0  0  0  0
   20.8677  -19.7353  -15.9157 C   0  0  0  0  0  0  0  0  0  0  0  0
   21.5161  -20.9222  -16.2281 C   0  0  0  0  0  0  0  0  0  0  0  0
   22.8764  -20.9545  -16.1070 C   0  0  0  0  0  0  0  0  0  0  0  0
   23.6560  -19.8726  -15.6907 C   0  0  0  0  0  0  0  0  0  0  0  0
   26.1757  -21.4260  -13.3349 C   0  0  0  0  0  0  0  0  0  0  0  0
   25.6184  -22.5900  -13.3014 O   0  0  0  0  0  0  0  0  0  0  0  0
   26.0099  -20.6898  -12.1529 N   0  0  0  0  0  0  0  0  0  0  0  0
   25.1399  -20.9958  -11.0469 C   0  0  1  0  0  0  0  0  0  0  0  0
   25.3964  -20.2155   -9.8260 C   0  0  0  0  0  0  0  0  0  0  0  0
   26.7678  -20.4454   -9.3225 C   0  0  0  0  0  0  0  0  0  0  0  0
   27.8120  -21.1218   -9.9692 C   0  0  0  0  0  0  0  0  0  0  0  0
   28.8848  -21.1357   -9.1746 N   0  0  0  0  0  0  0  0  0  0  0  0
   28.6308  -20.5037   -8.0154 C   0  0  0  0  0  0  0  0  0  0  0  0
   29.3782  -20.2456   -6.8854 C   0  0  0  0  0  0  0  0  0  0  0  0
   28.8554  -19.5534   -5.8010 C   0  0  0  0  0  0  0  0  0  0  0  0
   27.5425  -19.1175   -5.8761 C   0  0  0  0  0  0  0  0  0  0  0  0
   26.8127  -19.3863   -7.0154 C   0  0  0  0  0  0  0  0  0  0  0  0
   27.3150  -20.0743   -8.1065 C   0  0  0  0  0  0  0  0  0  0  0  0
   23.6897  -20.9518  -11.4011 C   0  0  0  0  0  0  0  0  0  0  0  0
   23.2283  -20.0018  -12.0770 O   0  0  0  0  0  0  0  0  0  0  0  0
   22.7683  -21.9197  -11.0237 O   0  0  0  0  0  0  0  0  0  0  0  0
  2  1  1  6
  3  4  1  0
  3  2  1  0
  4  5  2  0
  5  6  1  0
  7  6  2  0
  8  7  1  0
  9  8  2  0
  9  4  1  0
 10 11  2  0
 10  2  1  0
 12 10  1  0
 13 12  1  0
 13 14  1  6
 15 23  1  0
 15 14  1  0
 16 15  2  0
 17 16  1  0
 17 18  1  0
 18 19  1  0
 18 23  2  0
 19 20  2  0
 20 21  1  0
 22 21  2  0
 23 22  1  0
 24 13  1  0
 25 24  2  0
 26 24  1  0
 27 38  1  0
 27 26  1  0
 28 29  1  0
 27 28  1  1
 29 30  2  0
 31 30  1  0
 32 31  1  0
 33 32  2  0
 34 33  1  0
 35 34  2  0
 35 36  1  0
 36 37  2  0
 37 32  1  0
 37 29  1  0
 38 40  1  0
 39 38  2  0
M  END
$$$$
