FWW.pdb
     RDKit          3D

 40 44  0  0  1  0  0  0  0  0999 V2000
   28.6170  -23.4539  -17.7075 N   0  0  0  0  0  0  0  0  0  0  0  0
   28.1475  -22.1257  -17.3688 C   0  0  1  0  0  0  0  0  0  0  0  0
   27.0567  -21.6969  -18.3593 C   0  0  0  0  0  0  0  0  0  0  0  0
   27.6677  -20.9694  -19.4934 C   0  0  0  0  0  0  0  0  0  0  0  0
   28.0462  -19.6557  -19.3536 C   0  0  0  0  0  0  0  0  0  0  0  0
   28.6153  -19.0113  -20.4518 C   0  0  0  0  0  0  0  0  0  0  0  0
   28.7674  -19.7215  -21.6132 C   0  0  0  0  0  0  0  0  0  0  0  0
   28.3922  -21.0246  -21.7528 C   0  0  0  0  0  0  0  0  0  0  0  0
   27.8259  -21.6777  -20.6715 C   0  0  0  0  0  0  0  0  0  0  0  0
   27.5315  -22.0966  -16.0171 C   0  0  0  0  0  0  0  0  0  0  0  0
   26.9880  -23.1241  -15.5170 O   0  0  0  0  0  0  0  0  0  0  0  0
   27.5259  -20.9189  -15.2206 N   0  0  0  0  0  0  0  0  0  0  0  0
   27.0172  -20.9055  -13.8456 C   0  0  1  0  0  0  0  0  0  0  0  0
   27.7922  -19.9138  -13.0305 C   0  0  0  0  0  0  0  0  0  0  0  0
   28.1852  -20.3356  -11.6933 C   0  0  0  0  0  0  0  0  0  0  0  0
   29.3823  -20.8908  -11.2649 C   0  0  0  0  0  0  0  0  0  0  0  0
   29.3541  -21.0751   -9.9475 N   0  0  0  0  0  0  0  0  0  0  0  0
   28.1662  -20.6587   -9.4769 C   0  0  0  0  0  0  0  0  0  0  0  0
   27.6453  -20.6508   -8.2103 C   0  0  0  0  0  0  0  0  0  0  0  0
   26.3836  -20.1922   -7.9553 C   0  0  0  0  0  0  0  0  0  0  0  0
   25.6048  -19.7211   -9.0033 C   0  0  0  0  0  0  0  0  0  0  0  0
   26.1477  -19.7389  -10.2568 C   0  0  0  0  0  0  0  0  0  0  0  0
   27.4333  -20.1988  -10.5519 C   0  0  0  0  0  0  0  0  0  0  0  0
   25.5607  -20.7684  -13.8651 C   0  0  0  0  0  0  0  0  0  0  0  0
   25.0363  -19.8371  -14.5892 O   0  0  0  0  0  0  0  0  0  0  0  0
   24.6159  -21.5457  -13.1795 N   0  0  0  0  0  0  0  0  0  0  0  0
   23.1914  -21.3424  -13.1234 C   0  0  1  0  0  0  0  0  0  0  0  0
   22.4589  -22.3292  -12.3142 C   0  0  0  0  0  0  0  0  0  0  0  0
   20.9977  -22.1220  -12.4116 C   0  0  0  0  0  0  0  0  0  0  0  0
   20.1233  -22.6496  -13.3723 C   0  0  0  0  0  0  0  0  0  0  0  0
   18.8866  -22.2087  -13.1299 N   0  0  0  0  0  0  0  0  0  0  0  0
   18.8671  -21.4053  -12.0520 C   0  0  0  0  0  0  0  0  0  0  0  0
   17.8720  -20.7092  -11.3985 C   0  0  0  0  0  0  0  0  0  0  0  0
   18.1334  -19.9319  -10.2777 C   0  0  0  0  0  0  0  0  0  0  0  0
   19.4388  -19.8670   -9.8182 C   0  0  0  0  0  0  0  0  0  0  0  0
   20.4189  -20.5710  -10.4867 C   0  0  0  0  0  0  0  0  0  0  0  0
   20.1791  -21.3509  -11.6049 C   0  0  0  0  0  0  0  0  0  0  0  0
   22.8038  -19.9540  -12.7329 C   0  0  0  0  0  0  0  0  0  0  0  0
   23.3812  -19.3758  -11.7817 O   0  0  0  0  0  0  0  0  0  0  0  0
   21.8091  -19.2187  -13.3639 O   0  0  0  0  0  0  0  0  0  0  0  0
  2  1  1  6
  3  4  1  0
  3  2  1  0
  4  5  2  0
  5  6  1  0
  7  6  2  0
  8  7  1  0
  9  8  2  0
  9  4  1  0
 10 11  2  0
 10  2  1  0
 12 10  1  0
 13 12  1  0
 13 14  1  1
 15 23  1  0
 15 14  1  0
 16 15  2  0
 17 16  1  0
 17 18  1  0
 18 19  1  0
 18 23  2  0
 19 20  2  0
 20 21  1  0
 22 21  2  0
 23 22  1  0
 24 13  1  0
 25 24  2  0
 26 24  1  0
 27 38  1  0
 27 26  1  0
 28 29  1  0
 27 28  1  1
 29 30  2  0
 31 30  1  0
 32 31  1  0
 33 32  2  0
 34 33  1  0
 35 34  2  0
 35 36  1  0
 36 37  2  0
 37 32  1  0
 37 29  1  0
 38 40  1  0
 39 38  2  0
M  END
$$$$
