FWW.pdb
     RDKit          3D

 40 44  0  0  1  0  0  0  0  0999 V2000
   27.7372  -21.4880  -15.2822 N   0  0  0  0  0  0  0  0  0  0  0  0
   27.6874  -20.4731  -14.2493 C   0  0  1  0  0  0  0  0  0  0  0  0
   26.8393  -19.2887  -14.7316 C   0  0  0  0  0  0  0  0  0  0  0  0
   27.6014  -18.4972  -15.7223 C   0  0  0  0  0  0  0  0  0  0  0  0
   27.4449  -18.7308  -17.0675 C   0  0  0  0  0  0  0  0  0  0  0  0
   28.1871  -17.9610  -17.9629 C   0  0  0  0  0  0  0  0  0  0  0  0
   29.0339  -17.0117  -17.4549 C   0  0  0  0  0  0  0  0  0  0  0  0
   29.1899  -16.7793  -16.1207 C   0  0  0  0  0  0  0  0  0  0  0  0
   28.4599  -17.5354  -15.2196 C   0  0  0  0  0  0  0  0  0  0  0  0
   27.0395  -20.9869  -13.0150 C   0  0  0  0  0  0  0  0  0  0  0  0
   26.1628  -21.8982  -13.0598 O   0  0  0  0  0  0  0  0  0  0  0  0
   27.3741  -20.4849  -11.7276 N   0  0  0  0  0  0  0  0  0  0  0  0
   26.8085  -21.0457  -10.4967 C   0  0  1  0  0  0  0  0  0  0  0  0
   27.8236  -20.9718   -9.3955 C   0  0  0  0  0  0  0  0  0  0  0  0
   27.3064  -20.8273   -8.0419 C   0  0  0  0  0  0  0  0  0  0  0  0
   26.0342  -21.0919   -7.5560 C   0  0  0  0  0  0  0  0  0  0  0  0
   25.9950  -20.8833   -6.2425 N   0  0  0  0  0  0  0  0  0  0  0  0
   27.2100  -20.4832   -5.8307 C   0  0  0  0  0  0  0  0  0  0  0  0
   27.6773  -20.1326   -4.5920 C   0  0  0  0  0  0  0  0  0  0  0  0
   28.9685  -19.7289   -4.3992 C   0  0  0  0  0  0  0  0  0  0  0  0
   29.8335  -19.6704   -5.4832 C   0  0  0  0  0  0  0  0  0  0  0  0
   29.3432  -20.0259   -6.7077 C   0  0  0  0  0  0  0  0  0  0  0  0
   28.0307  -20.4443   -6.9395 C   0  0  0  0  0  0  0  0  0  0  0  0
   25.4976  -20.4469  -10.2445 C   0  0  0  0  0  0  0  0  0  0  0  0
   25.4458  -19.2757   -9.7039 O   0  0  0  0  0  0  0  0  0  0  0  0
   24.2364  -20.9919  -10.5256 N   0  0  0  0  0  0  0  0  0  0  0  0
   23.2370  -20.4678  -11.4203 C   0  0  1  0  0  0  0  0  0  0  0  0
   23.7546  -19.9940  -12.7137 C   0  0  0  0  0  0  0  0  0  0  0  0
   22.6842  -19.3715  -13.5225 C   0  0  0  0  0  0  0  0  0  0  0  0
   21.7826  -18.3749  -13.1226 C   0  0  0  0  0  0  0  0  0  0  0  0
   20.9562  -18.0987  -14.1342 N   0  0  0  0  0  0  0  0  0  0  0  0
   21.2440  -18.8547  -15.2081 C   0  0  0  0  0  0  0  0  0  0  0  0
   20.7067  -18.9581  -16.4741 C   0  0  0  0  0  0  0  0  0  0  0  0
   21.2091  -19.8473  -17.4151 C   0  0  0  0  0  0  0  0  0  0  0  0
   22.2819  -20.6451  -17.0520 C   0  0  0  0  0  0  0  0  0  0  0  0
   22.8041  -20.5258  -15.7807 C   0  0  0  0  0  0  0  0  0  0  0  0
   22.3181  -19.6462  -14.8287 C   0  0  0  0  0  0  0  0  0  0  0  0
   22.0802  -21.3897  -11.6255 C   0  0  0  0  0  0  0  0  0  0  0  0
   22.2677  -22.5744  -11.9910 O   0  0  0  0  0  0  0  0  0  0  0  0
   20.7535  -21.0248  -11.4386 O   0  0  0  0  0  0  0  0  0  0  0  0
  2  1  1  6
  3  4  1  0
  3  2  1  0
  4  5  2  0
  5  6  1  0
  7  6  2  0
  8  7  1  0
  9  8  2  0
  9  4  1  0
 10 11  2  0
 10  2  1  0
 12 10  1  0
 13 12  1  0
 13 14  1  1
 15 23  1  0
 15 14  1  0
 16 15  2  0
 17 16  1  0
 17 18  1  0
 18 19  1  0
 18 23  2  0
 19 20  2  0
 20 21  1  0
 22 21  2  0
 23 22  1  0
 24 13  1  0
 25 24  2  0
 26 24  1  0
 27 38  1  0
 27 26  1  0
 28 29  1  0
 27 28  1  6
 29 30  2  0
 31 30  1  0
 32 31  1  0
 33 32  2  0
 34 33  1  0
 35 34  2  0
 35 36  1  0
 36 37  2  0
 37 32  1  0
 37 29  1  0
 38 40  1  0
 39 38  2  0
M  END
$$$$
