FWW.pdb
     RDKit          3D

 40 44  0  0  1  0  0  0  0  0999 V2000
   31.5382  -31.1120  -16.8234 N   0  0  0  0  0  0  0  0  0  0  0  0
   30.5019  -31.9120  -17.4442 C   0  0  1  0  0  0  0  0  0  0  0  0
   30.7917  -33.4008  -17.2113 C   0  0  0  0  0  0  0  0  0  0  0  0
   31.6733  -33.9133  -18.2832 C   0  0  0  0  0  0  0  0  0  0  0  0
   31.1597  -34.2112  -19.5226 C   0  0  0  0  0  0  0  0  0  0  0  0
   32.0296  -34.6942  -20.4999 C   0  0  0  0  0  0  0  0  0  0  0  0
   33.3512  -34.8467  -20.1736 C   0  0  0  0  0  0  0  0  0  0  0  0
   33.8615  -34.5516  -18.9444 C   0  0  0  0  0  0  0  0  0  0  0  0
   33.0104  -34.0711  -17.9639 C   0  0  0  0  0  0  0  0  0  0  0  0
   29.1714  -31.6373  -16.8428 C   0  0  0  0  0  0  0  0  0  0  0  0
   29.0569  -30.9968  -15.7575 O   0  0  0  0  0  0  0  0  0  0  0  0
   27.9661  -32.0754  -17.4566 N   0  0  0  0  0  0  0  0  0  0  0  0
   26.6456  -31.7615  -16.9021 C   0  0  1  0  0  0  0  0  0  0  0  0
   25.6144  -31.8224  -17.9890 C   0  0  0  0  0  0  0  0  0  0  0  0
   24.2734  -31.3747  -17.6401 C   0  0  0  0  0  0  0  0  0  0  0  0
   23.8096  -30.0869  -17.4137 C   0  0  0  0  0  0  0  0  0  0  0  0
   22.4999  -30.1081  -17.1801 N   0  0  0  0  0  0  0  0  0  0  0  0
   22.0692  -31.3795  -17.2422 C   0  0  0  0  0  0  0  0  0  0  0  0
   20.8260  -31.9251  -17.0622 C   0  0  0  0  0  0  0  0  0  0  0  0
   20.6125  -33.2718  -17.1530 C   0  0  0  0  0  0  0  0  0  0  0  0
   21.6797  -34.1136  -17.4344 C   0  0  0  0  0  0  0  0  0  0  0  0
   22.9091  -33.5446  -17.6103 C   0  0  0  0  0  0  0  0  0  0  0  0
   23.1617  -32.1733  -17.5262 C   0  0  0  0  0  0  0  0  0  0  0  0
   26.4122  -32.5729  -15.7071 C   0  0  0  0  0  0  0  0  0  0  0  0
   26.8998  -33.7675  -15.6653 O   0  0  0  0  0  0  0  0  0  0  0  0
   25.7054  -32.2140  -14.5503 N   0  0  0  0  0  0  0  0  0  0  0  0
   25.5874  -32.9674  -13.3287 C   0  0  1  0  0  0  0  0  0  0  0  0
   25.8557  -32.1999  -12.1023 C   0  0  0  0  0  0  0  0  0  0  0  0
   25.8864  -33.0817  -10.9153 C   0  0  0  0  0  0  0  0  0  0  0  0
   26.3777  -34.3927  -10.8388 C   0  0  0  0  0  0  0  0  0  0  0  0
   26.2032  -34.8555   -9.5987 N   0  0  0  0  0  0  0  0  0  0  0  0
   25.6172  -33.9295   -8.8198 C   0  0  0  0  0  0  0  0  0  0  0  0
   25.2265  -33.9034   -7.4974 C   0  0  0  0  0  0  0  0  0  0  0  0
   24.6255  -32.7871   -6.9307 C   0  0  0  0  0  0  0  0  0  0  0  0
   24.4213  -31.6770   -7.7340 C   0  0  0  0  0  0  0  0  0  0  0  0
   24.8195  -31.7242   -9.0539 C   0  0  0  0  0  0  0  0  0  0  0  0
   25.4198  -32.8265   -9.6375 C   0  0  0  0  0  0  0  0  0  0  0  0
   24.2968  -33.7094  -13.2099 C   0  0  0  0  0  0  0  0  0  0  0  0
   23.2053  -33.0922  -13.2127 O   0  0  0  0  0  0  0  0  0  0  0  0
   24.2026  -35.0895  -13.0884 O   0  0  0  0  0  0  0  0  0  0  0  0
  2  1  1  1
  3  4  1  0
  3  2  1  0
  4  5  2  0
  5  6  1  0
  7  6  2  0
  8  7  1  0
  9  8  2  0
  9  4  1  0
 10 11  2  0
 10  2  1  0
 12 10  1  0
 13 12  1  0
 13 14  1  6
 15 23  1  0
 15 14  1  0
 16 15  2  0
 17 16  1  0
 17 18  1  0
 18 19  1  0
 18 23  2  0
 19 20  2  0
 20 21  1  0
 22 21  2  0
 23 22  1  0
 24 13  1  0
 25 24  2  0
 26 24  1  0
 27 38  1  0
 27 26  1  0
 28 29  1  0
 27 28  1  1
 29 30  2  0
 31 30  1  0
 32 31  1  0
 33 32  2  0
 34 33  1  0
 35 34  2  0
 35 36  1  0
 36 37  2  0
 37 32  1  0
 37 29  1  0
 38 40  1  0
 39 38  2  0
M  END
$$$$
