FWW.pdb
     RDKit          3D

 40 44  0  0  1  0  0  0  0  0999 V2000
   26.1437  -21.0414  -16.8769 N   0  0  0  0  0  0  0  0  0  0  0  0
   25.5562  -22.0855  -16.0621 C   0  0  1  0  0  0  0  0  0  0  0  0
   26.5250  -22.4650  -14.9341 C   0  0  0  0  0  0  0  0  0  0  0  0
   27.7396  -23.0875  -15.5052 C   0  0  0  0  0  0  0  0  0  0  0  0
   27.7157  -24.3929  -15.9342 C   0  0  0  0  0  0  0  0  0  0  0  0
   28.8862  -24.9365  -16.4627 C   0  0  0  0  0  0  0  0  0  0  0  0
   29.9994  -24.1409  -16.5266 C   0  0  0  0  0  0  0  0  0  0  0  0
   30.0241  -22.8460  -16.1012 C   0  0  0  0  0  0  0  0  0  0  0  0
   28.8699  -22.2923  -15.5743 C   0  0  0  0  0  0  0  0  0  0  0  0
   24.3029  -21.6244  -15.4107 C   0  0  0  0  0  0  0  0  0  0  0  0
   24.3233  -20.8128  -14.4401 O   0  0  0  0  0  0  0  0  0  0  0  0
   23.0242  -22.0673  -15.8467 N   0  0  0  0  0  0  0  0  0  0  0  0
   21.7809  -21.6118  -15.2173 C   0  0  1  0  0  0  0  0  0  0  0  0
   21.2219  -20.4518  -15.9856 C   0  0  0  0  0  0  0  0  0  0  0  0
   21.7953  -19.1443  -15.6992 C   0  0  0  0  0  0  0  0  0  0  0  0
   22.8742  -18.5095  -16.2973 C   0  0  0  0  0  0  0  0  0  0  0  0
   23.0327  -17.2940  -15.7797 N   0  0  0  0  0  0  0  0  0  0  0  0
   22.0873  -17.0940  -14.8459 C   0  0  0  0  0  0  0  0  0  0  0  0
   21.8345  -16.0263  -14.0263 C   0  0  0  0  0  0  0  0  0  0  0  0
   20.8139  -16.0440  -13.1178 C   0  0  0  0  0  0  0  0  0  0  0  0
   20.0093  -17.1708  -13.0183 C   0  0  0  0  0  0  0  0  0  0  0  0
   20.2818  -18.2217  -13.8474 C   0  0  0  0  0  0  0  0  0  0  0  0
   21.3150  -18.2361  -14.7875 C   0  0  0  0  0  0  0  0  0  0  0  0
   20.8990  -22.7575  -14.9926 C   0  0  0  0  0  0  0  0  0  0  0  0
   20.8600  -23.6923  -15.8822 O   0  0  0  0  0  0  0  0  0  0  0  0
   20.0582  -22.9915  -13.8949 N   0  0  0  0  0  0  0  0  0  0  0  0
   19.0327  -23.9956  -13.7774 C   0  0  1  0  0  0  0  0  0  0  0  0
   18.4509  -24.1286  -12.4324 C   0  0  0  0  0  0  0  0  0  0  0  0
   17.3824  -25.1510  -12.4105 C   0  0  0  0  0  0  0  0  0  0  0  0
   17.5256  -26.5307  -12.2057 C   0  0  0  0  0  0  0  0  0  0  0  0
   16.3268  -27.1131  -12.2837 N   0  0  0  0  0  0  0  0  0  0  0  0
   15.3677  -26.2041  -12.5317 C   0  0  0  0  0  0  0  0  0  0  0  0
   14.0012  -26.2805  -12.7009 C   0  0  0  0  0  0  0  0  0  0  0  0
   13.2281  -25.1551  -12.9548 C   0  0  0  0  0  0  0  0  0  0  0  0
   13.8674  -23.9288  -13.0367 C   0  0  0  0  0  0  0  0  0  0  0  0
   15.2350  -23.8747  -12.8643 C   0  0  0  0  0  0  0  0  0  0  0  0
   16.0230  -24.9840  -12.6106 C   0  0  0  0  0  0  0  0  0  0  0  0
   17.9551  -23.8679  -14.8035 C   0  0  0  0  0  0  0  0  0  0  0  0
   17.6032  -24.8609  -15.4836 O   0  0  0  0  0  0  0  0  0  0  0  0
   17.2823  -22.6852  -15.0803 O   0  0  0  0  0  0  0  0  0  0  0  0
  2  1  1  1
  3  4  1  0
  3  2  1  0
  4  5  2  0
  5  6  1  0
  7  6  2  0
  8  7  1  0
  9  8  2  0
  9  4  1  0
 10 11  2  0
 10  2  1  0
 12 10  1  0
 13 12  1  0
 13 14  1  6
 15 23  1  0
 15 14  1  0
 16 15  2  0
 17 16  1  0
 17 18  1  0
 18 19  1  0
 18 23  2  0
 19 20  2  0
 20 21  1  0
 22 21  2  0
 23 22  1  0
 24 13  1  0
 25 24  2  0
 26 24  1  0
 27 38  1  0
 27 26  1  0
 28 29  1  0
 27 28  1  1
 29 30  2  0
 31 30  1  0
 32 31  1  0
 33 32  2  0
 34 33  1  0
 35 34  2  0
 35 36  1  0
 36 37  2  0
 37 32  1  0
 37 29  1  0
 38 40  1  0
 39 38  2  0
M  END
$$$$
