FWW.pdb
     RDKit          3D

 40 44  0  0  1  0  0  0  0  0999 V2000
   28.5987  -16.2373  -17.6690 N   0  0  0  0  0  0  0  0  0  0  0  0
   28.4615  -17.6172  -17.2493 C   0  0  1  0  0  0  0  0  0  0  0  0
   29.7044  -18.0399  -16.4547 C   0  0  0  0  0  0  0  0  0  0  0  0
   30.8435  -18.2428  -17.3767 C   0  0  0  0  0  0  0  0  0  0  0  0
   30.8940  -19.3527  -18.1856 C   0  0  0  0  0  0  0  0  0  0  0  0
   31.9893  -19.5016  -19.0360 C   0  0  0  0  0  0  0  0  0  0  0  0
   32.9582  -18.5335  -19.0210 C   0  0  0  0  0  0  0  0  0  0  0  0
   32.9090  -17.4322  -18.2190 C   0  0  0  0  0  0  0  0  0  0  0  0
   31.8280  -17.2705  -17.3694 C   0  0  0  0  0  0  0  0  0  0  0  0
   27.2962  -17.7957  -16.3450 C   0  0  0  0  0  0  0  0  0  0  0  0
   27.0876  -17.0113  -15.3742 O   0  0  0  0  0  0  0  0  0  0  0  0
   26.3597  -18.8498  -16.5275 N   0  0  0  0  0  0  0  0  0  0  0  0
   25.1892  -19.0166  -15.6605 C   0  0  1  0  0  0  0  0  0  0  0  0
   23.9939  -18.3729  -16.2973 C   0  0  0  0  0  0  0  0  0  0  0  0
   22.7378  -18.4657  -15.5664 C   0  0  0  0  0  0  0  0  0  0  0  0
   22.0858  -17.4979  -14.8161 C   0  0  0  0  0  0  0  0  0  0  0  0
   20.9293  -17.9745  -14.3626 N   0  0  0  0  0  0  0  0  0  0  0  0
   20.7859  -19.2411  -14.7880 C   0  0  0  0  0  0  0  0  0  0  0  0
   19.7910  -20.1594  -14.5817 C   0  0  0  0  0  0  0  0  0  0  0  0
   19.8594  -21.4216  -15.1008 C   0  0  0  0  0  0  0  0  0  0  0  0
   20.9638  -21.7883  -15.8577 C   0  0  0  0  0  0  0  0  0  0  0  0
   21.9418  -20.8541  -16.0493 C   0  0  0  0  0  0  0  0  0  0  0  0
   21.9027  -19.5559  -15.5350 C   0  0  0  0  0  0  0  0  0  0  0  0
   25.0680  -20.4209  -15.2684 C   0  0  0  0  0  0  0  0  0  0  0  0
   25.7313  -21.3081  -15.9316 O   0  0  0  0  0  0  0  0  0  0  0  0
   24.3012  -20.9576  -14.2241 N   0  0  0  0  0  0  0  0  0  0  0  0
   24.7016  -21.1485  -12.8540 C   0  0  1  0  0  0  0  0  0  0  0  0
   25.7982  -20.2763  -12.4046 C   0  0  0  0  0  0  0  0  0  0  0  0
   26.3665  -20.7486  -11.1234 C   0  0  0  0  0  0  0  0  0  0  0  0
   26.6659  -22.0687  -10.7579 C   0  0  0  0  0  0  0  0  0  0  0  0
   27.1408  -22.0820   -9.5102 N   0  0  0  0  0  0  0  0  0  0  0  0
   27.1826  -20.8387   -9.0002 C   0  0  0  0  0  0  0  0  0  0  0  0
   27.5784  -20.3181   -7.7860 C   0  0  0  0  0  0  0  0  0  0  0  0
   27.5146  -18.9577   -7.5139 C   0  0  0  0  0  0  0  0  0  0  0  0
   27.0364  -18.1155   -8.5044 C   0  0  0  0  0  0  0  0  0  0  0  0
   26.6457  -18.6570   -9.7116 C   0  0  0  0  0  0  0  0  0  0  0  0
   26.7015  -20.0092  -10.0024 C   0  0  0  0  0  0  0  0  0  0  0  0
   23.5630  -21.0972  -11.8890 C   0  0  0  0  0  0  0  0  0  0  0  0
   22.9709  -20.0158  -11.6603 O   0  0  0  0  0  0  0  0  0  0  0  0
   23.0864  -22.1988  -11.1907 O   0  0  0  0  0  0  0  0  0  0  0  0
  2  1  1  1
  3  4  1  0
  3  2  1  0
  4  5  2  0
  5  6  1  0
  7  6  2  0
  8  7  1  0
  9  8  2  0
  9  4  1  0
 10 11  2  0
 10  2  1  0
 12 10  1  0
 13 12  1  0
 13 14  1  6
 15 23  1  0
 15 14  1  0
 16 15  2  0
 17 16  1  0
 17 18  1  0
 18 19  1  0
 18 23  2  0
 19 20  2  0
 20 21  1  0
 22 21  2  0
 23 22  1  0
 24 13  1  0
 25 24  2  0
 26 24  1  0
 27 38  1  0
 27 26  1  0
 28 29  1  0
 27 28  1  1
 29 30  2  0
 31 30  1  0
 32 31  1  0
 33 32  2  0
 34 33  1  0
 35 34  2  0
 35 36  1  0
 36 37  2  0
 37 32  1  0
 37 29  1  0
 38 40  1  0
 39 38  2  0
M  END
$$$$
