FWW.pdb
     RDKit          3D

 40 44  0  0  1  0  0  0  0  0999 V2000
   28.6776  -20.8745  -18.7382 N   0  0  0  0  0  0  0  0  0  0  0  0
   28.2845  -19.7336  -17.9362 C   0  0  1  0  0  0  0  0  0  0  0  0
   27.6208  -18.6789  -18.8316 C   0  0  0  0  0  0  0  0  0  0  0  0
   28.5939  -18.1860  -19.8311 C   0  0  0  0  0  0  0  0  0  0  0  0
   28.2102  -17.9875  -21.1357 C   0  0  0  0  0  0  0  0  0  0  0  0
   29.1638  -17.5244  -22.0420 C   0  0  0  0  0  0  0  0  0  0  0  0
   30.4338  -17.2915  -21.5846 C   0  0  0  0  0  0  0  0  0  0  0  0
   30.8153  -17.4882  -20.2907 C   0  0  0  0  0  0  0  0  0  0  0  0
   29.8799  -17.9475  -19.3794 C   0  0  0  0  0  0  0  0  0  0  0  0
   27.2810  -20.1132  -16.9084 C   0  0  0  0  0  0  0  0  0  0  0  0
   26.5559  -19.2449  -16.3414 O   0  0  0  0  0  0  0  0  0  0  0  0
   27.0839  -21.4654  -16.5161 N   0  0  0  0  0  0  0  0  0  0  0  0
   26.0290  -21.8633  -15.5788 C   0  0  1  0  0  0  0  0  0  0  0  0
   25.4689  -23.1938  -15.9847 C   0  0  0  0  0  0  0  0  0  0  0  0
   24.3678  -23.7087  -15.1828 C   0  0  0  0  0  0  0  0  0  0  0  0
   24.2282  -24.9496  -14.5784 C   0  0  0  0  0  0  0  0  0  0  0  0
   23.0938  -24.9940  -13.8845 N   0  0  0  0  0  0  0  0  0  0  0  0
   22.4641  -23.8132  -14.0072 C   0  0  0  0  0  0  0  0  0  0  0  0
   21.2711  -23.3657  -13.5052 C   0  0  0  0  0  0  0  0  0  0  0  0
   20.8024  -22.1113  -13.7776 C   0  0  0  0  0  0  0  0  0  0  0  0
   21.5504  -21.2643  -14.5837 C   0  0  0  0  0  0  0  0  0  0  0  0
   22.7368  -21.7343  -15.0713 C   0  0  0  0  0  0  0  0  0  0  0  0
   23.2457  -23.0090  -14.8114 C   0  0  0  0  0  0  0  0  0  0  0  0
   26.5190  -21.7300  -14.2067 C   0  0  0  0  0  0  0  0  0  0  0  0
   27.6908  -22.1902  -13.9205 O   0  0  0  0  0  0  0  0  0  0  0  0
   25.8646  -21.1421  -13.1146 N   0  0  0  0  0  0  0  0  0  0  0  0
   26.1238  -21.3660  -11.7158 C   0  0  1  0  0  0  0  0  0  0  0  0
   27.3731  -20.7697  -11.2169 C   0  0  0  0  0  0  0  0  0  0  0  0
   27.1902  -20.1973   -9.8655 C   0  0  0  0  0  0  0  0  0  0  0  0
   26.0148  -19.6658   -9.3159 C   0  0  0  0  0  0  0  0  0  0  0  0
   26.2667  -19.2284   -8.0798 N   0  0  0  0  0  0  0  0  0  0  0  0
   27.5547  -19.4323   -7.7526 C   0  0  0  0  0  0  0  0  0  0  0  0
   28.3064  -19.1694   -6.6266 C   0  0  0  0  0  0  0  0  0  0  0  0
   29.6553  -19.4910   -6.5521 C   0  0  0  0  0  0  0  0  0  0  0  0
   30.2447  -20.0931   -7.6518 C   0  0  0  0  0  0  0  0  0  0  0  0
   29.4747  -20.3471   -8.7679 C   0  0  0  0  0  0  0  0  0  0  0  0
   28.1295  -20.0346   -8.8620 C   0  0  0  0  0  0  0  0  0  0  0  0
   24.9780  -20.9966  -10.8321 C   0  0  0  0  0  0  0  0  0  0  0  0
   24.3619  -19.9185  -11.0063 O   0  0  0  0  0  0  0  0  0  0  0  0
   24.5202  -21.7840   -9.7839 O   0  0  0  0  0  0  0  0  0  0  0  0
  2  1  1  6
  3  4  1  0
  3  2  1  0
  4  5  2  0
  5  6  1  0
  7  6  2  0
  8  7  1  0
  9  8  2  0
  9  4  1  0
 10 11  2  0
 10  2  1  0
 12 10  1  0
 13 12  1  0
 13 14  1  6
 15 23  1  0
 15 14  1  0
 16 15  2  0
 17 16  1  0
 17 18  1  0
 18 19  1  0
 18 23  2  0
 19 20  2  0
 20 21  1  0
 22 21  2  0
 23 22  1  0
 24 13  1  0
 25 24  2  0
 26 24  1  0
 27 38  1  0
 27 26  1  0
 28 29  1  0
 27 28  1  1
 29 30  2  0
 31 30  1  0
 32 31  1  0
 33 32  2  0
 34 33  1  0
 35 34  2  0
 35 36  1  0
 36 37  2  0
 37 32  1  0
 37 29  1  0
 38 40  1  0
 39 38  2  0
M  END
$$$$
