FWW.pdb
     RDKit          3D

 40 44  0  0  1  0  0  0  0  0999 V2000
   26.3699  -35.3286  -13.4528 N   0  0  0  0  0  0  0  0  0  0  0  0
   25.1969  -34.4940  -13.2896 C   0  0  1  0  0  0  0  0  0  0  0  0
   24.0052  -35.1330  -14.0151 C   0  0  0  0  0  0  0  0  0  0  0  0
   24.2298  -35.0956  -15.4769 C   0  0  0  0  0  0  0  0  0  0  0  0
   24.2593  -33.8950  -16.1452 C   0  0  0  0  0  0  0  0  0  0  0  0
   24.4713  -33.9108  -17.5235 C   0  0  0  0  0  0  0  0  0  0  0  0
   24.6392  -35.1225  -18.1399 C   0  0  0  0  0  0  0  0  0  0  0  0
   24.6101  -36.3138  -17.4779 C   0  0  0  0  0  0  0  0  0  0  0  0
   24.4006  -36.3143  -16.1095 C   0  0  0  0  0  0  0  0  0  0  0  0
   24.8113  -34.3741  -11.8598 C   0  0  0  0  0  0  0  0  0  0  0  0
   25.0660  -35.2930  -11.0280 O   0  0  0  0  0  0  0  0  0  0  0  0
   24.1436  -33.2240  -11.3570 N   0  0  0  0  0  0  0  0  0  0  0  0
   23.7499  -33.0992   -9.9502 C   0  0  1  0  0  0  0  0  0  0  0  0
   23.3052  -31.6942   -9.6734 C   0  0  0  0  0  0  0  0  0  0  0  0
   22.5592  -31.4782   -8.4417 C   0  0  0  0  0  0  0  0  0  0  0  0
   22.7931  -31.9892   -7.1732 C   0  0  0  0  0  0  0  0  0  0  0  0
   21.9087  -31.4936   -6.3115 N   0  0  0  0  0  0  0  0  0  0  0  0
   21.0830  -30.6613   -6.9683 C   0  0  0  0  0  0  0  0  0  0  0  0
   20.0106  -29.9246   -6.5409 C   0  0  0  0  0  0  0  0  0  0  0  0
   19.2856  -29.1467   -7.3992 C   0  0  0  0  0  0  0  0  0  0  0  0
   19.6405  -29.0983   -8.7403 C   0  0  0  0  0  0  0  0  0  0  0  0
   20.7142  -29.8417   -9.1410 C   0  0  0  0  0  0  0  0  0  0  0  0
   21.4774  -30.6453   -8.2906 C   0  0  0  0  0  0  0  0  0  0  0  0
   22.8242  -34.1783   -9.6046 C   0  0  0  0  0  0  0  0  0  0  0  0
   21.7944  -34.3754  -10.3580 O   0  0  0  0  0  0  0  0  0  0  0  0
   22.9080  -35.0682   -8.5241 N   0  0  0  0  0  0  0  0  0  0  0  0
   21.9649  -36.0942   -8.1611 C   0  0  1  0  0  0  0  0  0  0  0  0
   22.5454  -37.2392   -7.4420 C   0  0  0  0  0  0  0  0  0  0  0  0
   21.6009  -38.3763   -7.3955 C   0  0  0  0  0  0  0  0  0  0  0  0
   21.2821  -39.2637   -8.4333 C   0  0  0  0  0  0  0  0  0  0  0  0
   20.3690  -40.1362   -8.0001 N   0  0  0  0  0  0  0  0  0  0  0  0
   20.0444  -39.8933   -6.7183 C   0  0  0  0  0  0  0  0  0  0  0  0
   19.1761  -40.4851   -5.8250 C   0  0  0  0  0  0  0  0  0  0  0  0
   19.0296  -40.0200   -4.5248 C   0  0  0  0  0  0  0  0  0  0  0  0
   19.7868  -38.9282   -4.1327 C   0  0  0  0  0  0  0  0  0  0  0  0
   20.6491  -38.3511   -5.0418 C   0  0  0  0  0  0  0  0  0  0  0  0
   20.8097  -38.7994   -6.3416 C   0  0  0  0  0  0  0  0  0  0  0  0
   20.7685  -35.5724   -7.4353 C   0  0  0  0  0  0  0  0  0  0  0  0
   19.6144  -35.7785   -7.8803 O   0  0  0  0  0  0  0  0  0  0  0  0
   20.8328  -34.8422   -6.2560 O   0  0  0  0  0  0  0  0  0  0  0  0
  2  1  1  1
  3  4  1  0
  3  2  1  0
  4  5  2  0
  5  6  1  0
  7  6  2  0
  8  7  1  0
  9  8  2  0
  9  4  1  0
 10 11  2  0
 10  2  1  0
 12 10  1  0
 13 12  1  0
 13 14  1  6
 15 23  1  0
 15 14  1  0
 16 15  2  0
 17 16  1  0
 17 18  1  0
 18 19  1  0
 18 23  2  0
 19 20  2  0
 20 21  1  0
 22 21  2  0
 23 22  1  0
 24 13  1  0
 25 24  2  0
 26 24  1  0
 27 38  1  0
 27 26  1  0
 28 29  1  0
 27 28  1  1
 29 30  2  0
 31 30  1  0
 32 31  1  0
 33 32  2  0
 34 33  1  0
 35 34  2  0
 35 36  1  0
 36 37  2  0
 37 32  1  0
 37 29  1  0
 38 40  1  0
 39 38  2  0
M  END
$$$$
