FWW.pdb
     RDKit          3D

 40 44  0  0  1  0  0  0  0  0999 V2000
   29.1642  -25.6494  -17.0289 N   0  0  0  0  0  0  0  0  0  0  0  0
   28.0600  -24.7775  -17.3748 C   0  0  1  0  0  0  0  0  0  0  0  0
   26.7368  -25.5418  -17.2343 C   0  0  0  0  0  0  0  0  0  0  0  0
   26.1396  -25.7597  -18.5702 C   0  0  0  0  0  0  0  0  0  0  0  0
   26.6496  -26.7193  -19.4115 C   0  0  0  0  0  0  0  0  0  0  0  0
   26.0548  -26.8858  -20.6619 C   0  0  0  0  0  0  0  0  0  0  0  0
   24.9929  -26.0839  -20.9868 C   0  0  0  0  0  0  0  0  0  0  0  0
   24.4864  -25.1317  -20.1530 C   0  0  0  0  0  0  0  0  0  0  0  0
   25.0662  -24.9547  -18.9084 C   0  0  0  0  0  0  0  0  0  0  0  0
   27.9798  -23.6132  -16.4553 C   0  0  0  0  0  0  0  0  0  0  0  0
   28.1678  -23.7408  -15.2106 O   0  0  0  0  0  0  0  0  0  0  0  0
   27.6930  -22.3031  -16.9274 N   0  0  0  0  0  0  0  0  0  0  0  0
   27.5842  -21.1520  -16.0259 C   0  0  1  0  0  0  0  0  0  0  0  0
   27.5961  -19.8828  -16.8244 C   0  0  0  0  0  0  0  0  0  0  0  0
   27.2960  -18.6554  -16.1007 C   0  0  0  0  0  0  0  0  0  0  0  0
   27.9758  -18.0737  -15.0404 C   0  0  0  0  0  0  0  0  0  0  0  0
   27.4032  -16.9191  -14.7098 N   0  0  0  0  0  0  0  0  0  0  0  0
   26.3527  -16.7084  -15.5209 C   0  0  0  0  0  0  0  0  0  0  0  0
   25.4415  -15.6875  -15.5772 C   0  0  0  0  0  0  0  0  0  0  0  0
   24.4212  -15.6846  -16.4862 C   0  0  0  0  0  0  0  0  0  0  0  0
   24.3000  -16.7414  -17.3780 C   0  0  0  0  0  0  0  0  0  0  0  0
   25.2217  -17.7467  -17.3017 C   0  0  0  0  0  0  0  0  0  0  0  0
   26.2769  -17.7801  -16.3869 C   0  0  0  0  0  0  0  0  0  0  0  0
   26.4659  -21.3569  -15.1050 C   0  0  0  0  0  0  0  0  0  0  0  0
   25.4460  -22.0361  -15.5113 O   0  0  0  0  0  0  0  0  0  0  0  0
   26.3469  -20.9012  -13.7841 N   0  0  0  0  0  0  0  0  0  0  0  0
   25.1876  -20.9788  -12.9333 C   0  0  1  0  0  0  0  0  0  0  0  0
   25.2406  -20.1214  -11.7387 C   0  0  0  0  0  0  0  0  0  0  0  0
   24.1277  -20.4244  -10.8130 C   0  0  0  0  0  0  0  0  0  0  0  0
   24.1656  -21.2354   -9.6698 C   0  0  0  0  0  0  0  0  0  0  0  0
   22.9499  -21.2756   -9.1194 N   0  0  0  0  0  0  0  0  0  0  0  0
   22.0792  -20.5339   -9.8260 C   0  0  0  0  0  0  0  0  0  0  0  0
   20.7366  -20.2497   -9.6893 C   0  0  0  0  0  0  0  0  0  0  0  0
   20.0636  -19.4316  -10.5872 C   0  0  0  0  0  0  0  0  0  0  0  0
   20.7797  -18.8947  -11.6446 C   0  0  0  0  0  0  0  0  0  0  0  0
   22.1216  -19.1916  -11.7627 C   0  0  0  0  0  0  0  0  0  0  0  0
   22.8106  -20.0043  -10.8790 C   0  0  0  0  0  0  0  0  0  0  0  0
   23.9000  -20.7804  -13.6633 C   0  0  0  0  0  0  0  0  0  0  0  0
   23.7108  -19.7492  -14.3512 O   0  0  0  0  0  0  0  0  0  0  0  0
   22.8461  -21.6843  -13.6391 O   0  0  0  0  0  0  0  0  0  0  0  0
  2  1  1  1
  3  4  1  0
  3  2  1  0
  4  5  2  0
  5  6  1  0
  7  6  2  0
  8  7  1  0
  9  8  2  0
  9  4  1  0
 10 11  2  0
 10  2  1  0
 12 10  1  0
 13 12  1  0
 13 14  1  6
 15 23  1  0
 15 14  1  0
 16 15  2  0
 17 16  1  0
 17 18  1  0
 18 19  1  0
 18 23  2  0
 19 20  2  0
 20 21  1  0
 22 21  2  0
 23 22  1  0
 24 13  1  0
 25 24  2  0
 26 24  1  0
 27 38  1  0
 27 26  1  0
 28 29  1  0
 27 28  1  1
 29 30  2  0
 31 30  1  0
 32 31  1  0
 33 32  2  0
 34 33  1  0
 35 34  2  0
 35 36  1  0
 36 37  2  0
 37 32  1  0
 37 29  1  0
 38 40  1  0
 39 38  2  0
M  END
$$$$
