FWW.pdb
     RDKit          3D

 40 44  0  0  1  0  0  0  0  0999 V2000
   31.4505  -23.5458  -20.1559 N   0  0  0  0  0  0  0  0  0  0  0  0
   30.4978  -23.9283  -19.1335 C   0  0  1  0  0  0  0  0  0  0  0  0
   31.2450  -24.5003  -17.9213 C   0  0  0  0  0  0  0  0  0  0  0  0
   31.6716  -25.8882  -18.2049 C   0  0  0  0  0  0  0  0  0  0  0  0
   32.9418  -26.1453  -18.6624 C   0  0  0  0  0  0  0  0  0  0  0  0
   33.2968  -27.4695  -18.9182 C   0  0  0  0  0  0  0  0  0  0  0  0
   32.3607  -28.4455  -18.7003 C   0  0  0  0  0  0  0  0  0  0  0  0
   31.1006  -28.1915  -18.2466 C   0  0  0  0  0  0  0  0  0  0  0  0
   30.7335  -26.8819  -17.9881 C   0  0  0  0  0  0  0  0  0  0  0  0
   29.7267  -22.7560  -18.6449 C   0  0  0  0  0  0  0  0  0  0  0  0
   30.2647  -21.6176  -18.5195 O   0  0  0  0  0  0  0  0  0  0  0  0
   28.3511  -22.8543  -18.2995 N   0  0  0  0  0  0  0  0  0  0  0  0
   27.6034  -21.7279  -17.7323 C   0  0  1  0  0  0  0  0  0  0  0  0
   26.3416  -21.5149  -18.5140 C   0  0  0  0  0  0  0  0  0  0  0  0
   25.4497  -20.4670  -18.0378 C   0  0  0  0  0  0  0  0  0  0  0  0
   25.6459  -19.0939  -18.0094 C   0  0  0  0  0  0  0  0  0  0  0  0
   24.5545  -18.4864  -17.5510 N   0  0  0  0  0  0  0  0  0  0  0  0
   23.6270  -19.4169  -17.2684 C   0  0  0  0  0  0  0  0  0  0  0  0
   22.3587  -19.3082  -16.7631 C   0  0  0  0  0  0  0  0  0  0  0  0
   21.5817  -20.4079  -16.5300 C   0  0  0  0  0  0  0  0  0  0  0  0
   22.0856  -21.6704  -16.8106 C   0  0  0  0  0  0  0  0  0  0  0  0
   23.3527  -21.7517  -17.3144 C   0  0  0  0  0  0  0  0  0  0  0  0
   24.1726  -20.6490  -17.5659 C   0  0  0  0  0  0  0  0  0  0  0  0
   27.4767  -21.9049  -16.2855 C   0  0  0  0  0  0  0  0  0  0  0  0
   27.3510  -23.1014  -15.8170 O   0  0  0  0  0  0  0  0  0  0  0  0
   27.4775  -20.9115  -15.2956 N   0  0  0  0  0  0  0  0  0  0  0  0
   27.1772  -21.0712  -13.8963 C   0  0  1  0  0  0  0  0  0  0  0  0
   27.7580  -20.0422  -13.0194 C   0  0  0  0  0  0  0  0  0  0  0  0
   27.5252  -20.3606  -11.5940 C   0  0  0  0  0  0  0  0  0  0  0  0
   28.4756  -20.7551  -10.6416 C   0  0  0  0  0  0  0  0  0  0  0  0
   27.8641  -20.9724   -9.4748 N   0  0  0  0  0  0  0  0  0  0  0  0
   26.5426  -20.7475   -9.5773 C   0  0  0  0  0  0  0  0  0  0  0  0
   25.4895  -20.8258   -8.6901 C   0  0  0  0  0  0  0  0  0  0  0  0
   24.1863  -20.5316   -9.0689 C   0  0  0  0  0  0  0  0  0  0  0  0
   23.9580  -20.1500  -10.3809 C   0  0  0  0  0  0  0  0  0  0  0  0
   25.0254  -20.0781  -11.2519 C   0  0  0  0  0  0  0  0  0  0  0  0
   26.3310  -20.3671  -10.8943 C   0  0  0  0  0  0  0  0  0  0  0  0
   25.7196  -21.2358  -13.6158 C   0  0  0  0  0  0  0  0  0  0  0  0
   24.8955  -20.3743  -14.0046 O   0  0  0  0  0  0  0  0  0  0  0  0
   25.1780  -22.3125  -12.9261 O   0  0  0  0  0  0  0  0  0  0  0  0
  2  1  1  6
  3  4  1  0
  3  2  1  0
  4  5  2  0
  5  6  1  0
  7  6  2  0
  8  7  1  0
  9  8  2  0
  9  4  1  0
 10 11  2  0
 10  2  1  0
 12 10  1  0
 13 12  1  0
 13 14  1  6
 15 23  1  0
 15 14  1  0
 16 15  2  0
 17 16  1  0
 17 18  1  0
 18 19  1  0
 18 23  2  0
 19 20  2  0
 20 21  1  0
 22 21  2  0
 23 22  1  0
 24 13  1  0
 25 24  2  0
 26 24  1  0
 27 38  1  0
 27 26  1  0
 28 29  1  0
 27 28  1  1
 29 30  2  0
 31 30  1  0
 32 31  1  0
 33 32  2  0
 34 33  1  0
 35 34  2  0
 35 36  1  0
 36 37  2  0
 37 32  1  0
 37 29  1  0
 38 40  1  0
 39 38  2  0
M  END
$$$$
