GNN.pdb
     RDKit          3D

 21 20  0  0  1  0  0  0  0  0999 V2000
   20.0331  -11.8533  -18.1433 N   0  0  0  0  0  0  0  0  0  0  0  0
   19.6671  -11.5710  -16.7654 C   0  0  0  0  0  0  0  0  0  0  0  0
   20.6289  -10.6495  -16.1127 C   0  0  0  0  0  0  0  0  0  0  0  0
   20.4059  -10.3517  -14.9192 O   0  0  0  0  0  0  0  0  0  0  0  0
   25.1971  -11.5628  -17.1005 N   0  0  0  0  0  0  0  0  0  0  0  0
   24.6909  -10.6534  -16.1080 C   0  0  0  0  0  0  0  0  0  0  0  0
   24.7931  -10.9717  -14.8928 O   0  0  0  0  0  0  0  0  0  0  0  0
   24.0813   -9.3978  -16.5932 C   0  0  0  0  0  0  0  0  0  0  0  0
   22.6529   -9.2130  -16.1401 C   0  0  2  0  0  0  0  0  0  0  0  0
   21.7562  -10.1196  -16.7911 N   0  0  0  0  0  0  0  0  0  0  0  0
   22.2727   -7.7990  -16.2772 C   0  0  0  0  0  0  0  0  0  0  0  0
   22.1512   -7.3134  -17.4232 O   0  0  0  0  0  0  0  0  0  0  0  0
   18.9242   -3.4960  -16.2943 N   0  0  0  0  0  0  0  0  0  0  0  0
   19.4935   -4.1252  -15.1687 C   0  0  0  0  0  0  0  0  0  0  0  0
   19.5385   -3.4435  -14.1024 O   0  0  0  0  0  0  0  0  0  0  0  0
   20.0366   -5.4958  -15.1130 C   0  0  0  0  0  0  0  0  0  0  0  0
   21.5197   -5.5562  -15.3874 C   0  0  2  0  0  0  0  0  0  0  0  0
   22.0233   -6.9106  -15.1916 N   0  0  0  0  0  0  0  0  0  0  0  0
   22.2234   -4.6994  -14.4161 C   0  0  0  0  0  0  0  0  0  0  0  0
   22.5783   -3.3780  -14.6064 O   0  0  0  0  0  0  0  0  0  0  0  0
   22.5381   -5.2208  -13.2883 O   0  0  0  0  0  0  0  0  0  0  0  0
  1  2  1  0
  2  3  1  0
  3  4  2  0
  5  6  1  0
  6  8  1  0
  7  6  2  0
  9  8  1  6
 10  9  1  0
 10  3  1  0
 11  9  1  0
 11 18  1  0
 12 11  2  0
 13 14  1  0
 14 16  1  0
 14 15  2  0
 17 16  1  1
 17 18  1  0
 17 19  1  0
 19 21  2  0
 19 20  1  0
M  END
$$$$
