GNN.pdb
     RDKit          3D

 21 20  0  0  1  0  0  0  0  0999 V2000
   20.6742  -13.8772  -16.8582 N   0  0  0  0  0  0  0  0  0  0  0  0
   21.2213  -12.7592  -17.6085 C   0  0  0  0  0  0  0  0  0  0  0  0
   22.1246  -11.9232  -16.7806 C   0  0  0  0  0  0  0  0  0  0  0  0
   22.9048  -12.5248  -16.0110 O   0  0  0  0  0  0  0  0  0  0  0  0
   26.4203  -10.1808  -14.7813 N   0  0  0  0  0  0  0  0  0  0  0  0
   25.5024   -9.4308  -15.5957 C   0  0  0  0  0  0  0  0  0  0  0  0
   25.6049   -8.1748  -15.6166 O   0  0  0  0  0  0  0  0  0  0  0  0
   24.4951  -10.1985  -16.3568 C   0  0  0  0  0  0  0  0  0  0  0  0
   23.0798   -9.7311  -16.1152 C   0  0  2  0  0  0  0  0  0  0  0  0
   22.1212  -10.5062  -16.8432 N   0  0  0  0  0  0  0  0  0  0  0  0
   22.9900   -8.2849  -16.3669 C   0  0  0  0  0  0  0  0  0  0  0  0
   23.2326   -7.8544  -17.5156 O   0  0  0  0  0  0  0  0  0  0  0  0
   21.3968   -3.2142  -16.2651 N   0  0  0  0  0  0  0  0  0  0  0  0
   20.6642   -4.1019  -15.4514 C   0  0  0  0  0  0  0  0  0  0  0  0
   19.5863   -3.6572  -14.9574 O   0  0  0  0  0  0  0  0  0  0  0  0
   21.0292   -5.4934  -15.1241 C   0  0  0  0  0  0  0  0  0  0  0  0
   22.3361   -5.9240  -15.7446 C   0  0  2  0  0  0  0  0  0  0  0  0
   22.6411   -7.3058  -15.3924 N   0  0  0  0  0  0  0  0  0  0  0  0
   23.4251   -5.0975  -15.1935 C   0  0  0  0  0  0  0  0  0  0  0  0
   24.1813   -4.1780  -15.8944 O   0  0  0  0  0  0  0  0  0  0  0  0
   23.7019   -5.2385  -13.9500 O   0  0  0  0  0  0  0  0  0  0  0  0
  1  2  1  0
  2  3  1  0
  3  4  2  0
  5  6  1  0
  6  8  1  0
  7  6  2  0
  9  8  1  6
 10  9  1  0
 10  3  1  0
 11  9  1  0
 11 18  1  0
 12 11  2  0
 13 14  1  0
 14 16  1  0
 14 15  2  0
 17 16  1  1
 17 18  1  0
 17 19  1  0
 19 21  2  0
 19 20  1  0
M  END
$$$$
