GNN.pdb
     RDKit          3D

 21 20  0  0  1  0  0  0  0  0999 V2000
   13.7279  -12.6705  -12.2437 N   0  0  0  0  0  0  0  0  0  0  0  0
   13.3692  -11.4200  -12.8916 C   0  0  0  0  0  0  0  0  0  0  0  0
   13.3627  -10.2827  -11.9393 C   0  0  0  0  0  0  0  0  0  0  0  0
   13.1296   -9.1496  -12.4131 O   0  0  0  0  0  0  0  0  0  0  0  0
   10.8381   -9.7993   -9.6808 N   0  0  0  0  0  0  0  0  0  0  0  0
   11.4689   -9.9850   -8.4018 C   0  0  0  0  0  0  0  0  0  0  0  0
   10.7586  -10.3562   -7.4291 O   0  0  0  0  0  0  0  0  0  0  0  0
   12.9212   -9.7236   -8.3226 C   0  0  0  0  0  0  0  0  0  0  0  0
   13.5326   -9.3409   -9.6491 C   0  0  2  0  0  0  0  0  0  0  0  0
   13.6061  -10.4496  -10.5520 N   0  0  0  0  0  0  0  0  0  0  0  0
   14.8227   -8.6727   -9.4212 C   0  0  0  0  0  0  0  0  0  0  0  0
   15.7756   -9.3381   -8.9597 O   0  0  0  0  0  0  0  0  0  0  0  0
   19.1104   -5.5978   -9.7160 N   0  0  0  0  0  0  0  0  0  0  0  0
   18.6104   -6.4598  -10.7128 C   0  0  0  0  0  0  0  0  0  0  0  0
   19.3629   -6.6673  -11.7102 O   0  0  0  0  0  0  0  0  0  0  0  0
   17.3027   -7.1427  -10.7046 C   0  0  0  0  0  0  0  0  0  0  0  0
   16.4215   -6.7196   -9.5543 C   0  0  2  0  0  0  0  0  0  0  0  0
   15.0900   -7.2988   -9.6876 N   0  0  0  0  0  0  0  0  0  0  0  0
   16.2511   -5.2559   -9.5925 C   0  0  0  0  0  0  0  0  0  0  0  0
   15.4491   -4.5543  -10.4717 O   0  0  0  0  0  0  0  0  0  0  0  0
   16.9034   -4.5631   -8.7338 O   0  0  0  0  0  0  0  0  0  0  0  0
  1  2  1  0
  2  3  1  0
  3  4  2  0
  5  6  1  0
  6  8  1  0
  7  6  2  0
  9  8  1  1
 10  9  1  0
 10  3  1  0
 11  9  1  0
 11 18  1  0
 12 11  2  0
 13 14  1  0
 14 16  1  0
 14 15  2  0
 17 16  1  6
 17 18  1  0
 17 19  1  0
 19 21  2  0
 19 20  1  0
M  END
$$$$
