GNN.pdb
     RDKit          3D

 21 20  0  0  1  0  0  0  0  0999 V2000
   19.0382  -12.3729  -15.4999 N   0  0  0  0  0  0  0  0  0  0  0  0
   19.0995  -11.5449  -16.6928 C   0  0  0  0  0  0  0  0  0  0  0  0
   18.4936  -10.2088  -16.4735 C   0  0  0  0  0  0  0  0  0  0  0  0
   18.7122   -9.3389  -17.3442 O   0  0  0  0  0  0  0  0  0  0  0  0
   15.4523   -6.4511  -15.5030 N   0  0  0  0  0  0  0  0  0  0  0  0
   14.8874   -7.5172  -14.7204 C   0  0  0  0  0  0  0  0  0  0  0  0
   13.7407   -7.3556  -14.2228 O   0  0  0  0  0  0  0  0  0  0  0  0
   15.7037   -8.7379  -14.5560 C   0  0  0  0  0  0  0  0  0  0  0  0
   17.0706   -8.6323  -15.1889 C   0  0  2  0  0  0  0  0  0  0  0  0
   17.6994   -9.9100  -15.3370 N   0  0  0  0  0  0  0  0  0  0  0  0
   17.8805   -7.6529  -14.4490 C   0  0  0  0  0  0  0  0  0  0  0  0
   18.4402   -8.0081  -13.3886 O   0  0  0  0  0  0  0  0  0  0  0  0
   22.8577   -5.0863  -14.5560 N   0  0  0  0  0  0  0  0  0  0  0  0
   21.5926   -5.2469  -13.9557 C   0  0  0  0  0  0  0  0  0  0  0  0
   21.3870   -4.5977  -12.8878 O   0  0  0  0  0  0  0  0  0  0  0  0
   20.4893   -6.0919  -14.4509 C   0  0  0  0  0  0  0  0  0  0  0  0
   19.1302   -5.4643  -14.2564 C   0  0  2  0  0  0  0  0  0  0  0  0
   18.0900   -6.3002  -14.8443 N   0  0  0  0  0  0  0  0  0  0  0  0
   19.0897   -4.1752  -14.9700 C   0  0  0  0  0  0  0  0  0  0  0  0
   19.4628   -2.9492  -14.4541 O   0  0  0  0  0  0  0  0  0  0  0  0
   18.6715   -4.1840  -16.1816 O   0  0  0  0  0  0  0  0  0  0  0  0
  1  2  1  0
  2  3  1  0
  3  4  2  0
  5  6  1  0
  6  8  1  0
  7  6  2  0
  9  8  1  1
 10  9  1  0
 10  3  1  0
 11  9  1  0
 11 18  1  0
 12 11  2  0
 13 14  1  0
 14 16  1  0
 14 15  2  0
 17 16  1  6
 17 18  1  0
 17 19  1  0
 19 21  2  0
 19 20  1  0
M  END
$$$$
