GNN.pdb
     RDKit          3D

 21 20  0  0  1  0  0  0  0  0999 V2000
   13.8376  -11.8234  -10.0393 N   0  0  0  0  0  0  0  0  0  0  0  0
   12.8792  -10.7376   -9.9179 C   0  0  0  0  0  0  0  0  0  0  0  0
   13.5094   -9.4130  -10.1380 C   0  0  0  0  0  0  0  0  0  0  0  0
   12.7926   -8.5228  -10.6445 O   0  0  0  0  0  0  0  0  0  0  0  0
   16.2694   -5.2588  -10.2531 N   0  0  0  0  0  0  0  0  0  0  0  0
   16.3514   -5.8163   -8.9300 C   0  0  0  0  0  0  0  0  0  0  0  0
   16.7070   -5.0657   -7.9820 O   0  0  0  0  0  0  0  0  0  0  0  0
   16.0080   -7.2456   -8.7787 C   0  0  0  0  0  0  0  0  0  0  0  0
   15.4437   -7.8609  -10.0368 C   0  0  2  0  0  0  0  0  0  0  0  0
   14.8600   -9.1460   -9.7968 N   0  0  0  0  0  0  0  0  0  0  0  0
   16.4723   -7.8616  -11.0879 C   0  0  0  0  0  0  0  0  0  0  0  0
   17.6393   -8.2000  -10.7923 O   0  0  0  0  0  0  0  0  0  0  0  0
   18.8483   -9.9345  -13.8918 N   0  0  0  0  0  0  0  0  0  0  0  0
   17.7509   -9.5895  -14.7063 C   0  0  0  0  0  0  0  0  0  0  0  0
   17.4168  -10.4317  -15.5911 O   0  0  0  0  0  0  0  0  0  0  0  0
   16.9563   -8.3490  -14.6258 C   0  0  0  0  0  0  0  0  0  0  0  0
   17.3203   -7.4892  -13.4396 C   0  0  2  0  0  0  0  0  0  0  0  0
   16.2506   -7.5023  -12.4486 N   0  0  0  0  0  0  0  0  0  0  0  0
   17.4657   -6.0918  -13.8857 C   0  0  0  0  0  0  0  0  0  0  0  0
   16.6841   -5.0257  -13.4845 O   0  0  0  0  0  0  0  0  0  0  0  0
   18.4018   -5.8336  -14.7223 O   0  0  0  0  0  0  0  0  0  0  0  0
  1  2  1  0
  2  3  1  0
  3  4  2  0
  5  6  1  0
  6  8  1  0
  7  6  2  0
  9  8  1  1
 10  9  1  0
 10  3  1  0
 11  9  1  0
 11 18  1  0
 12 11  2  0
 13 14  1  0
 14 16  1  0
 14 15  2  0
 17 16  1  6
 17 18  1  0
 17 19  1  0
 19 21  2  0
 19 20  1  0
M  END
$$$$
