GNN.pdb
     RDKit          3D

 21 20  0  0  1  0  0  0  0  0999 V2000
   27.1510  -22.5842  -15.4853 N   0  0  0  0  0  0  0  0  0  0  0  0
   25.9275  -22.0734  -16.0807 C   0  0  0  0  0  0  0  0  0  0  0  0
   24.9663  -21.5995  -15.0552 C   0  0  0  0  0  0  0  0  0  0  0  0
   25.4157  -20.8475  -14.1633 O   0  0  0  0  0  0  0  0  0  0  0  0
   20.9765  -17.8749  -15.2275 N   0  0  0  0  0  0  0  0  0  0  0  0
   21.7471  -18.7673  -14.4042 C   0  0  0  0  0  0  0  0  0  0  0  0
   21.6237  -18.6881  -13.1524 O   0  0  0  0  0  0  0  0  0  0  0  0
   22.6371  -19.7227  -15.0960 C   0  0  0  0  0  0  0  0  0  0  0  0
   22.5949  -21.1125  -14.5072 C   0  0  2  0  0  0  0  0  0  0  0  0
   23.5968  -21.9687  -15.0665 N   0  0  0  0  0  0  0  0  0  0  0  0
   21.2293  -21.6487  -14.6099 C   0  0  0  0  0  0  0  0  0  0  0  0
   20.7574  -21.8895  -15.7426 O   0  0  0  0  0  0  0  0  0  0  0  0
   19.5762  -25.0819  -12.6210 N   0  0  0  0  0  0  0  0  0  0  0  0
   18.7785  -24.1644  -11.9079 C   0  0  0  0  0  0  0  0  0  0  0  0
   18.3317  -24.5542  -10.7888 O   0  0  0  0  0  0  0  0  0  0  0  0
   18.4183  -22.7993  -12.3362 C   0  0  0  0  0  0  0  0  0  0  0  0
   19.0136  -22.4215  -13.6709 C   0  0  2  0  0  0  0  0  0  0  0  0
   20.3747  -21.9258  -13.5041 N   0  0  0  0  0  0  0  0  0  0  0  0
   18.2297  -21.3163  -14.2512 C   0  0  0  0  0  0  0  0  0  0  0  0
   18.2722  -19.9941  -13.8533 O   0  0  0  0  0  0  0  0  0  0  0  0
   17.4333  -21.5997  -15.2147 O   0  0  0  0  0  0  0  0  0  0  0  0
  1  2  1  0
  2  3  1  0
  3  4  2  0
  5  6  1  0
  6  8  1  0
  7  6  2  0
  9  8  1  6
 10  9  1  0
 10  3  1  0
 11  9  1  0
 11 18  1  0
 12 11  2  0
 13 14  1  0
 14 16  1  0
 14 15  2  0
 17 16  1  1
 17 18  1  0
 17 19  1  0
 19 21  2  0
 19 20  1  0
M  END
$$$$
