GNN.pdb
     RDKit          3D

 21 20  0  0  1  0  0  0  0  0999 V2000
   27.1619  -21.5312  -15.5938 N   0  0  0  0  0  0  0  0  0  0  0  0
   26.5616  -20.5547  -14.7002 C   0  0  0  0  0  0  0  0  0  0  0  0
   25.6377  -21.1865  -13.7268 C   0  0  0  0  0  0  0  0  0  0  0  0
   25.2433  -22.3432  -13.9900 O   0  0  0  0  0  0  0  0  0  0  0  0
   26.7473  -21.6699  -10.3887 N   0  0  0  0  0  0  0  0  0  0  0  0
   25.8741  -20.7417   -9.7222 C   0  0  0  0  0  0  0  0  0  0  0  0
   26.3347  -20.0642   -8.7645 O   0  0  0  0  0  0  0  0  0  0  0  0
   24.4844  -20.6505  -10.2164 C   0  0  0  0  0  0  0  0  0  0  0  0
   24.3164  -21.1656  -11.6258 C   0  0  2  0  0  0  0  0  0  0  0  0
   25.2092  -20.5282  -12.5458 N   0  0  0  0  0  0  0  0  0  0  0  0
   22.9007  -21.0804  -12.0148 C   0  0  0  0  0  0  0  0  0  0  0  0
   22.0474  -20.8170  -11.1394 O   0  0  0  0  0  0  0  0  0  0  0  0
   18.9241  -19.1219  -14.8513 N   0  0  0  0  0  0  0  0  0  0  0  0
   20.1157  -18.4953  -14.4340 C   0  0  0  0  0  0  0  0  0  0  0  0
   20.1595  -17.2343  -14.5428 O   0  0  0  0  0  0  0  0  0  0  0  0
   21.3098  -19.1637  -13.8825 C   0  0  0  0  0  0  0  0  0  0  0  0
   21.1648  -20.6642  -13.8041 C   0  0  2  0  0  0  0  0  0  0  0  0
   22.4027  -21.2757  -13.3353 N   0  0  0  0  0  0  0  0  0  0  0  0
   20.9178  -21.1944  -15.1572 C   0  0  0  0  0  0  0  0  0  0  0  0
   21.8064  -21.9322  -15.9151 O   0  0  0  0  0  0  0  0  0  0  0  0
   19.7753  -20.9536  -15.6860 O   0  0  0  0  0  0  0  0  0  0  0  0
  1  2  1  0
  2  3  1  0
  3  4  2  0
  5  6  1  0
  6  8  1  0
  7  6  2  0
  9  8  1  1
 10  9  1  0
 10  3  1  0
 11  9  1  0
 11 18  1  0
 12 11  2  0
 13 14  1  0
 14 16  1  0
 14 15  2  0
 17 16  1  6
 17 18  1  0
 17 19  1  0
 19 21  2  0
 19 20  1  0
M  END
$$$$
