GNN.pdb
     RDKit          3D

 21 20  0  0  1  0  0  0  0  0999 V2000
   22.7852  -22.0696  -14.8091 N   0  0  0  0  0  0  0  0  0  0  0  0
   23.0905  -21.1130  -15.8598 C   0  0  0  0  0  0  0  0  0  0  0  0
   24.4183  -20.4806  -15.6668 C   0  0  0  0  0  0  0  0  0  0  0  0
   24.5249  -19.6652  -14.7252 O   0  0  0  0  0  0  0  0  0  0  0  0
   27.7203  -22.3038  -15.0322 N   0  0  0  0  0  0  0  0  0  0  0  0
   28.3848  -22.0011  -16.2711 C   0  0  0  0  0  0  0  0  0  0  0  0
   29.3190  -22.7561  -16.6527 O   0  0  0  0  0  0  0  0  0  0  0  0
   27.9166  -20.8124  -17.0137 C   0  0  0  0  0  0  0  0  0  0  0  0
   26.7778  -20.0923  -16.3321 C   0  0  2  0  0  0  0  0  0  0  0  0
   25.5292  -20.7727  -16.4989 N   0  0  0  0  0  0  0  0  0  0  0  0
   26.7530  -18.6880  -16.7683 C   0  0  0  0  0  0  0  0  0  0  0  0
   27.7665  -17.9792  -16.5840 O   0  0  0  0  0  0  0  0  0  0  0  0
   27.6129  -14.9014  -20.7543 N   0  0  0  0  0  0  0  0  0  0  0  0
   26.9317  -15.2540  -19.5717 C   0  0  0  0  0  0  0  0  0  0  0  0
   26.4144  -14.3042  -18.9127 O   0  0  0  0  0  0  0  0  0  0  0  0
   26.7618  -16.6165  -19.0321 C   0  0  0  0  0  0  0  0  0  0  0  0
   25.7282  -16.6936  -17.9346 C   0  0  2  0  0  0  0  0  0  0  0  0
   25.6477  -18.0476  -17.3993 N   0  0  0  0  0  0  0  0  0  0  0  0
   24.4027  -16.3836  -18.5002 C   0  0  0  0  0  0  0  0  0  0  0  0
   23.6773  -15.2280  -18.2836 O   0  0  0  0  0  0  0  0  0  0  0  0
   23.8671  -17.2618  -19.2650 O   0  0  0  0  0  0  0  0  0  0  0  0
  1  2  1  0
  2  3  1  0
  3  4  2  0
  5  6  1  0
  6  8  1  0
  7  6  2  0
  9  8  1  6
 10  9  1  0
 10  3  1  0
 11  9  1  0
 11 18  1  0
 12 11  2  0
 13 14  1  0
 14 16  1  0
 14 15  2  0
 17 16  1  6
 17 18  1  0
 17 19  1  0
 19 21  2  0
 19 20  1  0
M  END
$$$$
