GNN.pdb
     RDKit          3D

 21 20  0  0  1  0  0  0  0  0999 V2000
   24.4301  -19.3019  -17.8786 N   0  0  0  0  0  0  0  0  0  0  0  0
   23.5466  -18.4983  -17.0505 C   0  0  0  0  0  0  0  0  0  0  0  0
   22.6732  -19.3367  -16.1935 C   0  0  0  0  0  0  0  0  0  0  0  0
   22.4846  -20.5166  -16.5611 O   0  0  0  0  0  0  0  0  0  0  0  0
   20.2607  -21.5737  -12.5601 N   0  0  0  0  0  0  0  0  0  0  0  0
   20.5919  -20.3197  -11.9389 C   0  0  0  0  0  0  0  0  0  0  0  0
   20.4826  -20.2212  -10.6871 O   0  0  0  0  0  0  0  0  0  0  0  0
   21.0416  -19.2266  -12.8256 C   0  0  0  0  0  0  0  0  0  0  0  0
   21.1218  -19.6304  -14.2784 C   0  0  2  0  0  0  0  0  0  0  0  0
   22.0702  -18.8443  -15.0079 N   0  0  0  0  0  0  0  0  0  0  0  0
   19.7727  -19.6296  -14.8640 C   0  0  0  0  0  0  0  0  0  0  0  0
   19.5664  -18.9720  -15.9074 O   0  0  0  0  0  0  0  0  0  0  0  0
   14.2760  -22.2983  -15.2702 N   0  0  0  0  0  0  0  0  0  0  0  0
   15.4124  -21.6207  -15.7560 C   0  0  0  0  0  0  0  0  0  0  0  0
   15.2531  -20.9303  -16.8058 O   0  0  0  0  0  0  0  0  0  0  0  0
   16.7622  -21.6359  -15.1606 C   0  0  0  0  0  0  0  0  0  0  0  0
   17.3244  -20.2534  -14.9338 C   0  0  2  0  0  0  0  0  0  0  0  0
   18.6513  -20.3309  -14.3342 N   0  0  0  0  0  0  0  0  0  0  0  0
   16.4672  -19.5380  -13.9713 C   0  0  0  0  0  0  0  0  0  0  0  0
   16.4524  -19.7238  -12.6025 O   0  0  0  0  0  0  0  0  0  0  0  0
   15.6585  -18.6607  -14.4396 O   0  0  0  0  0  0  0  0  0  0  0  0
  1  2  1  0
  2  3  1  0
  3  4  2  0
  5  6  1  0
  6  8  1  0
  7  6  2  0
  9  8  1  1
 10  9  1  0
 10  3  1  0
 11  9  1  0
 11 18  1  0
 12 11  2  0
 13 14  1  0
 14 16  1  0
 14 15  2  0
 17 16  1  1
 17 18  1  0
 17 19  1  0
 19 21  2  0
 19 20  1  0
M  END
$$$$
