GNN.pdb
     RDKit          3D

 21 20  0  0  1  0  0  0  0  0999 V2000
   15.7554   -9.8621  -16.9230 N   0  0  0  0  0  0  0  0  0  0  0  0
   15.9591   -9.5040  -15.5292 C   0  0  0  0  0  0  0  0  0  0  0  0
   17.3987   -9.4298  -15.1792 C   0  0  0  0  0  0  0  0  0  0  0  0
   17.6834   -9.3833  -13.9628 O   0  0  0  0  0  0  0  0  0  0  0  0
   19.3680  -11.9908  -15.6248 N   0  0  0  0  0  0  0  0  0  0  0  0
   20.4036  -11.5999  -16.5428 C   0  0  0  0  0  0  0  0  0  0  0  0
   20.9994  -12.4985  -17.1955 O   0  0  0  0  0  0  0  0  0  0  0  0
   20.6954  -10.1555  -16.6539 C   0  0  0  0  0  0  0  0  0  0  0  0
   19.8000   -9.2971  -15.7930 C   0  0  2  0  0  0  0  0  0  0  0  0
   18.4214   -9.4120  -16.1618 N   0  0  0  0  0  0  0  0  0  0  0  0
   20.3012   -7.9145  -15.7881 C   0  0  0  0  0  0  0  0  0  0  0  0
   20.1038   -7.1957  -16.7922 O   0  0  0  0  0  0  0  0  0  0  0  0
   21.3681   -2.9727  -14.3497 N   0  0  0  0  0  0  0  0  0  0  0  0
   20.1385   -3.6522  -14.4641 C   0  0  0  0  0  0  0  0  0  0  0  0
   19.0931   -2.9380  -14.4350 O   0  0  0  0  0  0  0  0  0  0  0  0
   19.9533   -5.1079  -14.6167 C   0  0  0  0  0  0  0  0  0  0  0  0
   21.2560   -5.8699  -14.6495 C   0  0  2  0  0  0  0  0  0  0  0  0
   21.0095   -7.3057  -14.7122 N   0  0  0  0  0  0  0  0  0  0  0  0
   21.9897   -5.6216  -13.3954 C   0  0  0  0  0  0  0  0  0  0  0  0
   22.7670   -4.5146  -13.1147 O   0  0  0  0  0  0  0  0  0  0  0  0
   21.9031   -6.5095  -12.4751 O   0  0  0  0  0  0  0  0  0  0  0  0
  1  2  1  0
  2  3  1  0
  3  4  2  0
  5  6  1  0
  6  8  1  0
  7  6  2  0
  9  8  1  6
 10  9  1  0
 10  3  1  0
 11  9  1  0
 11 18  1  0
 12 11  2  0
 13 14  1  0
 14 16  1  0
 14 15  2  0
 17 16  1  1
 17 18  1  0
 17 19  1  0
 19 21  2  0
 19 20  1  0
M  END
$$$$
