GNN.pdb
     RDKit          3D

 21 20  0  0  1  0  0  0  0  0999 V2000
   18.4801  -12.0645  -16.5115 N   0  0  0  0  0  0  0  0  0  0  0  0
   19.6698  -11.2351  -16.4163 C   0  0  0  0  0  0  0  0  0  0  0  0
   19.3874   -9.9308  -15.7689 C   0  0  0  0  0  0  0  0  0  0  0  0
   18.9228   -9.0268  -16.4968 O   0  0  0  0  0  0  0  0  0  0  0  0
   16.9913   -9.0903  -12.9323 N   0  0  0  0  0  0  0  0  0  0  0  0
   17.9625   -8.8558  -11.8979 C   0  0  0  0  0  0  0  0  0  0  0  0
   17.6152   -9.0226  -10.6978 O   0  0  0  0  0  0  0  0  0  0  0  0
   19.3122   -8.4317  -12.3246 C   0  0  0  0  0  0  0  0  0  0  0  0
   19.4791   -8.3904  -13.8248 C   0  0  2  0  0  0  0  0  0  0  0  0
   19.6248   -9.6977  -14.3901 N   0  0  0  0  0  0  0  0  0  0  0  0
   20.5694   -7.4669  -14.1728 C   0  0  0  0  0  0  0  0  0  0  0  0
   21.7165   -7.9282  -14.3603 O   0  0  0  0  0  0  0  0  0  0  0  0
   23.0353   -5.0047  -18.4633 N   0  0  0  0  0  0  0  0  0  0  0  0
   22.6203   -4.8347  -17.1271 C   0  0  0  0  0  0  0  0  0  0  0  0
   23.1201   -3.8543  -16.5002 O   0  0  0  0  0  0  0  0  0  0  0  0
   21.6620   -5.6830  -16.3930 C   0  0  0  0  0  0  0  0  0  0  0  0
   21.4436   -5.2329  -14.9688 C   0  0  2  0  0  0  0  0  0  0  0  0
   20.4303   -6.0565  -14.3198 N   0  0  0  0  0  0  0  0  0  0  0  0
   20.9256   -3.8529  -14.9751 C   0  0  0  0  0  0  0  0  0  0  0  0
   21.5960   -2.7317  -14.5256 O   0  0  0  0  0  0  0  0  0  0  0  0
   19.7454   -3.6674  -15.4393 O   0  0  0  0  0  0  0  0  0  0  0  0
  1  2  1  0
  2  3  1  0
  3  4  2  0
  5  6  1  0
  6  8  1  0
  7  6  2  0
  9  8  1  1
 10  9  1  0
 10  3  1  0
 11  9  1  0
 11 18  1  0
 12 11  2  0
 13 14  1  0
 14 16  1  0
 14 15  2  0
 17 16  1  6
 17 18  1  0
 17 19  1  0
 19 21  2  0
 19 20  1  0
M  END
$$$$
