TTM.pdb
     RDKit          3D

 23 22  0  0  1  0  0  0  0  0999 V2000
   11.4542  -14.0555   17.8881 C   0  0  0  0  0  0  0  0  0  0  0  0
   10.6643  -14.3660   19.1296 C   0  0  1  0  0  0  0  0  0  0  0  0
   10.8782  -13.3167   20.0353 O   0  0  0  0  0  0  0  0  0  0  0  0
    9.1841  -14.4498   18.7840 C   0  0  2  0  0  0  0  0  0  0  0  0
    8.7950  -13.2079   18.1877 N   0  0  0  0  0  0  0  0  0  0  0  0
    8.3747  -14.8011   19.9758 C   0  0  0  0  0  0  0  0  0  0  0  0
    7.6641  -13.8866   20.4695 O   0  0  0  0  0  0  0  0  0  0  0  0
    6.4877  -18.2121   20.5987 C   0  0  0  0  0  0  0  0  0  0  0  0
    7.2890  -17.8191   21.8119 C   0  0  1  0  0  0  0  0  0  0  0  0
    8.5514  -18.4406   21.7620 O   0  0  0  0  0  0  0  0  0  0  0  0
    7.5592  -16.3250   21.7209 C   0  0  2  0  0  0  0  0  0  0  0  0
    8.3745  -16.0974   20.5618 N   0  0  0  0  0  0  0  0  0  0  0  0
    8.2351  -15.9223   22.9804 C   0  0  0  0  0  0  0  0  0  0  0  0
    9.4712  -15.7049   22.9225 O   0  0  0  0  0  0  0  0  0  0  0  0
    5.8780  -10.9641   26.4982 C   0  0  0  0  0  0  0  0  0  0  0  0
    6.7696  -11.9521   27.6695 S   0  0  0  0  0  0  0  0  0  0  0  0
    7.8512  -13.2143   27.0093 C   0  0  0  0  0  0  0  0  0  0  0  0
    7.3267  -13.9885   25.8625 C   0  0  0  0  0  0  0  0  0  0  0  0
    8.1951  -15.0560   25.2968 C   0  0  2  0  0  0  0  0  0  0  0  0
    7.5755  -15.7745   24.2116 N   0  0  0  0  0  0  0  0  0  0  0  0
    8.6257  -16.0490   26.3236 C   0  0  0  0  0  0  0  0  0  0  0  0
    9.2674  -15.7468   27.3475 O   0  0  0  0  0  0  0  0  0  0  0  0
    8.3187  -17.4168   26.1813 O   0  0  0  0  0  0  0  0  0  0  0  0
  2  1  1  6
  2  3  1  0
  4  2  1  0
  4  5  1  1
  6  4  1  0
  7  6  2  0
  9  8  1  6
  9 11  1  0
 10  9  1  0
 11 12  1  6
 11 13  1  0
 12  6  1  0
 13 20  1  0
 14 13  2  0
 15 16  1  0
 17 16  1  0
 18 17  1  0
 19 18  1  1
 19 21  1  0
 20 19  1  0
 21 22  2  0
 21 23  1  0
M  END
$$$$
