TTM.pdb
     RDKit          3D

 23 22  0  0  1  0  0  0  0  0999 V2000
   11.0693  -13.7458   19.6465 C   0  0  0  0  0  0  0  0  0  0  0  0
   10.0094  -13.0172   18.8670 C   0  0  1  0  0  0  0  0  0  0  0  0
   10.5961  -12.5795   17.6706 O   0  0  0  0  0  0  0  0  0  0  0  0
    8.8616  -13.9676   18.5561 C   0  0  2  0  0  0  0  0  0  0  0  0
    7.9577  -13.2994   17.6698 N   0  0  0  0  0  0  0  0  0  0  0  0
    8.2098  -14.4453   19.7994 C   0  0  0  0  0  0  0  0  0  0  0  0
    7.5026  -13.6132   20.4259 O   0  0  0  0  0  0  0  0  0  0  0  0
    6.7206  -17.9591   20.3713 C   0  0  0  0  0  0  0  0  0  0  0  0
    7.5295  -17.6007   21.5902 C   0  0  1  0  0  0  0  0  0  0  0  0
    8.8046  -18.1905   21.4974 O   0  0  0  0  0  0  0  0  0  0  0  0
    7.7650  -16.0983   21.5609 C   0  0  2  0  0  0  0  0  0  0  0  0
    8.3526  -15.7720   20.2927 N   0  0  0  0  0  0  0  0  0  0  0  0
    8.6562  -15.7700   22.7025 C   0  0  0  0  0  0  0  0  0  0  0  0
    9.5183  -14.8751   22.5168 O   0  0  0  0  0  0  0  0  0  0  0  0
    6.6436  -10.9716   27.3181 C   0  0  0  0  0  0  0  0  0  0  0  0
    6.2464  -12.4888   26.4916 S   0  0  0  0  0  0  0  0  0  0  0  0
    7.5108  -13.7536   26.4657 C   0  0  0  0  0  0  0  0  0  0  0  0
    7.6399  -14.5216   25.2075 C   0  0  0  0  0  0  0  0  0  0  0  0
    8.6403  -15.6222   25.1715 C   0  0  2  0  0  0  0  0  0  0  0  0
    8.5865  -16.3972   23.9573 N   0  0  0  0  0  0  0  0  0  0  0  0
    8.5042  -16.5586   26.3249 C   0  0  0  0  0  0  0  0  0  0  0  0
    7.7738  -17.5675   26.3106 O   0  0  0  0  0  0  0  0  0  0  0  0
    9.2158  -16.3414   27.5216 O   0  0  0  0  0  0  0  0  0  0  0  0
  2  1  1  1
  2  3  1  0
  4  2  1  0
  4  5  1  6
  6  4  1  0
  7  6  2  0
  9  8  1  6
  9 11  1  0
 10  9  1  0
 11 12  1  6
 11 13  1  0
 12  6  1  0
 13 20  1  0
 14 13  2  0
 15 16  1  0
 17 16  1  0
 18 17  1  0
 19 18  1  6
 19 21  1  0
 20 19  1  0
 21 22  2  0
 21 23  1  0
M  END
$$$$
