TTM.pdb
     RDKit          3D

 23 22  0  0  1  0  0  0  0  0999 V2000
    9.2031  -12.5869   19.7090 C   0  0  0  0  0  0  0  0  0  0  0  0
    8.3832  -13.2484   18.6357 C   0  0  1  0  0  0  0  0  0  0  0  0
    8.7797  -12.6990   17.4076 O   0  0  0  0  0  0  0  0  0  0  0  0
    8.6548  -14.7463   18.6375 C   0  0  2  0  0  0  0  0  0  0  0  0
    7.9268  -15.3322   17.5531 N   0  0  0  0  0  0  0  0  0  0  0  0
    8.3252  -15.3490   19.9516 C   0  0  0  0  0  0  0  0  0  0  0  0
    7.1063  -15.4036   20.2619 O   0  0  0  0  0  0  0  0  0  0  0  0
    9.1674  -18.6623   21.0675 C   0  0  0  0  0  0  0  0  0  0  0  0
    9.5965  -17.7877   22.2161 C   0  0  1  0  0  0  0  0  0  0  0  0
   10.9689  -17.4966   22.0972 O   0  0  0  0  0  0  0  0  0  0  0  0
    8.8768  -16.4554   22.0741 C   0  0  2  0  0  0  0  0  0  0  0  0
    9.3105  -15.8522   20.8460 N   0  0  0  0  0  0  0  0  0  0  0  0
    9.2251  -15.6378   23.2638 C   0  0  0  0  0  0  0  0  0  0  0  0
   10.1227  -14.7705   23.1197 O   0  0  0  0  0  0  0  0  0  0  0  0
    5.3743  -11.9182   26.4705 C   0  0  0  0  0  0  0  0  0  0  0  0
    6.6550  -12.1291   27.6782 S   0  0  0  0  0  0  0  0  0  0  0  0
    8.0216  -13.1940   27.2338 C   0  0  0  0  0  0  0  0  0  0  0  0
    7.8593  -13.9793   25.9902 C   0  0  0  0  0  0  0  0  0  0  0  0
    8.9601  -14.9058   25.6117 C   0  0  2  0  0  0  0  0  0  0  0  0
    8.6136  -15.7813   24.5202 N   0  0  0  0  0  0  0  0  0  0  0  0
    9.4182  -15.7490   26.7541 C   0  0  0  0  0  0  0  0  0  0  0  0
    9.2738  -16.9853   26.7990 O   0  0  0  0  0  0  0  0  0  0  0  0
   10.0550  -15.1713   27.8705 O   0  0  0  0  0  0  0  0  0  0  0  0
  2  1  1  1
  2  3  1  0
  4  2  1  0
  4  5  1  6
  6  4  1  0
  7  6  2  0
  9  8  1  6
  9 11  1  0
 10  9  1  0
 11 12  1  6
 11 13  1  0
 12  6  1  0
 13 20  1  0
 14 13  2  0
 15 16  1  0
 17 16  1  0
 18 17  1  0
 19 18  1  1
 19 21  1  0
 20 19  1  0
 21 22  2  0
 21 23  1  0
M  END
$$$$
