TTM.pdb
     RDKit          3D

 23 22  0  0  1  0  0  0  0  0999 V2000
   10.3630  -14.0948   18.1626 C   0  0  0  0  0  0  0  0  0  0  0  0
    9.6968  -14.2885   19.4970 C   0  0  1  0  0  0  0  0  0  0  0  0
   10.0304  -13.1847   20.2956 O   0  0  0  0  0  0  0  0  0  0  0  0
    8.1873  -14.3465   19.3093 C   0  0  2  0  0  0  0  0  0  0  0  0
    7.7598  -13.0998   18.7504 N   0  0  0  0  0  0  0  0  0  0  0  0
    7.5015  -14.6786   20.5814 C   0  0  0  0  0  0  0  0  0  0  0  0
    6.9727  -13.7232   21.2080 O   0  0  0  0  0  0  0  0  0  0  0  0
    5.1067  -17.6548   21.3726 C   0  0  0  0  0  0  0  0  0  0  0  0
    6.2144  -17.6059   22.3919 C   0  0  1  0  0  0  0  0  0  0  0  0
    7.2614  -18.4562   21.9883 O   0  0  0  0  0  0  0  0  0  0  0  0
    6.7934  -16.1995   22.3754 C   0  0  2  0  0  0  0  0  0  0  0  0
    7.4237  -16.0005   21.1013 N   0  0  0  0  0  0  0  0  0  0  0  0
    7.7519  -16.1047   23.5057 C   0  0  0  0  0  0  0  0  0  0  0  0
    8.9747  -16.1818   23.2273 O   0  0  0  0  0  0  0  0  0  0  0  0
    6.1997  -11.1729   25.8913 C   0  0  0  0  0  0  0  0  0  0  0  0
    6.7622  -12.3606   27.0814 S   0  0  0  0  0  0  0  0  0  0  0  0
    8.1294  -13.4078   26.5985 C   0  0  0  0  0  0  0  0  0  0  0  0
    8.0043  -14.8424   26.9386 C   0  0  0  0  0  0  0  0  0  0  0  0
    8.3606  -15.8334   25.8877 C   0  0  2  0  0  0  0  0  0  0  0  0
    7.3691  -15.9363   24.8465 N   0  0  0  0  0  0  0  0  0  0  0  0
    8.5931  -17.1987   26.4423 C   0  0  0  0  0  0  0  0  0  0  0  0
    7.8528  -18.1726   26.2079 O   0  0  0  0  0  0  0  0  0  0  0  0
    9.6933  -17.4610   27.2826 O   0  0  0  0  0  0  0  0  0  0  0  0
  2  1  1  6
  2  3  1  0
  4  2  1  0
  4  5  1  1
  6  4  1  0
  7  6  2  0
  9  8  1  6
  9 11  1  0
 10  9  1  0
 11 12  1  6
 11 13  1  0
 12  6  1  0
 13 20  1  0
 14 13  2  0
 15 16  1  0
 17 16  1  0
 18 17  1  0
 19 18  1  1
 19 21  1  0
 20 19  1  0
 21 22  2  0
 21 23  1  0
M  END
$$$$
