TTM.pdb
     RDKit          3D

 23 22  0  0  1  0  0  0  0  0999 V2000
    9.1762  -12.6166   19.3634 C   0  0  0  0  0  0  0  0  0  0  0  0
    8.3531  -13.2964   18.3040 C   0  0  1  0  0  0  0  0  0  0  0  0
    8.6613  -12.6868   17.0790 O   0  0  0  0  0  0  0  0  0  0  0  0
    8.7165  -14.7735   18.2461 C   0  0  2  0  0  0  0  0  0  0  0  0
    8.0915  -15.3410   17.0900 N   0  0  0  0  0  0  0  0  0  0  0  0
    8.3481  -15.4657   19.5047 C   0  0  0  0  0  0  0  0  0  0  0  0
    7.1187  -15.5926   19.7443 O   0  0  0  0  0  0  0  0  0  0  0  0
    9.3287  -18.7985   20.8049 C   0  0  0  0  0  0  0  0  0  0  0  0
    9.6545  -17.8188   21.9014 C   0  0  1  0  0  0  0  0  0  0  0  0
   11.0044  -17.4320   21.7991 O   0  0  0  0  0  0  0  0  0  0  0  0
    8.8422  -16.5579   21.6485 C   0  0  2  0  0  0  0  0  0  0  0  0
    9.3083  -15.9755   20.4222 N   0  0  0  0  0  0  0  0  0  0  0  0
    9.0434  -15.6629   22.8163 C   0  0  0  0  0  0  0  0  0  0  0  0
    9.9414  -14.7895   22.7202 O   0  0  0  0  0  0  0  0  0  0  0  0
    5.8101  -10.9527   28.1173 C   0  0  0  0  0  0  0  0  0  0  0  0
    5.7748  -12.1206   26.7839 S   0  0  0  0  0  0  0  0  0  0  0  0
    7.2614  -13.0740   26.5011 C   0  0  0  0  0  0  0  0  0  0  0  0
    7.2461  -13.9735   25.3263 C   0  0  0  0  0  0  0  0  0  0  0  0
    8.4734  -14.7680   25.0507 C   0  0  2  0  0  0  0  0  0  0  0  0
    8.2948  -15.7410   24.0022 N   0  0  0  0  0  0  0  0  0  0  0  0
    8.9800  -15.4788   26.2606 C   0  0  0  0  0  0  0  0  0  0  0  0
    9.2695  -14.9034   27.3267 O   0  0  0  0  0  0  0  0  0  0  0  0
    9.1611  -16.8762   26.2565 O   0  0  0  0  0  0  0  0  0  0  0  0
  2  1  1  1
  2  3  1  0
  4  2  1  0
  4  5  1  6
  6  4  1  0
  7  6  2  0
  9  8  1  6
  9 11  1  0
 10  9  1  0
 11 12  1  6
 11 13  1  0
 12  6  1  0
 13 20  1  0
 14 13  2  0
 15 16  1  0
 17 16  1  0
 18 17  1  0
 19 18  1  1
 19 21  1  0
 20 19  1  0
 21 22  2  0
 21 23  1  0
M  END
$$$$
