TTM.pdb
     RDKit          3D

 23 22  0  0  1  0  0  0  0  0999 V2000
   10.0220  -19.4710   21.1696 C   0  0  0  0  0  0  0  0  0  0  0  0
   11.1322  -18.9422   20.3037 C   0  0  1  0  0  0  0  0  0  0  0  0
   11.5333  -19.9840   19.4546 O   0  0  0  0  0  0  0  0  0  0  0  0
   10.6184  -17.7744   19.4733 C   0  0  2  0  0  0  0  0  0  0  0  0
   11.6285  -17.4273   18.5201 N   0  0  0  0  0  0  0  0  0  0  0  0
   10.2193  -16.6372   20.3372 C   0  0  0  0  0  0  0  0  0  0  0  0
   11.1468  -15.9242   20.8023 O   0  0  0  0  0  0  0  0  0  0  0  0
    7.2084  -14.0206   20.0364 C   0  0  0  0  0  0  0  0  0  0  0  0
    7.1868  -14.7800   21.3369 C   0  0  1  0  0  0  0  0  0  0  0  0
    6.3835  -15.9277   21.1968 O   0  0  0  0  0  0  0  0  0  0  0  0
    8.5962  -15.2900   21.5956 C   0  0  2  0  0  0  0  0  0  0  0  0
    8.8645  -16.3344   20.6482 N   0  0  0  0  0  0  0  0  0  0  0  0
    8.6397  -15.7706   23.0000 C   0  0  0  0  0  0  0  0  0  0  0  0
    9.0475  -16.9434   23.1915 O   0  0  0  0  0  0  0  0  0  0  0  0
   10.5802  -14.2366   30.4330 C   0  0  0  0  0  0  0  0  0  0  0  0
   10.4485  -13.8681   28.7038 S   0  0  0  0  0  0  0  0  0  0  0  0
    9.4788  -14.9924   27.7064 C   0  0  0  0  0  0  0  0  0  0  0  0
    9.2534  -14.5891   26.3007 C   0  0  0  0  0  0  0  0  0  0  0  0
    8.4312  -15.4900   25.4487 C   0  0  2  0  0  0  0  0  0  0  0  0
    8.2551  -14.9953   24.1063 N   0  0  0  0  0  0  0  0  0  0  0  0
    7.0809  -15.7513   26.0268 C   0  0  0  0  0  0  0  0  0  0  0  0
    6.0897  -15.0269   25.8168 O   0  0  0  0  0  0  0  0  0  0  0  0
    6.8542  -16.8627   26.8629 O   0  0  0  0  0  0  0  0  0  0  0  0
  2  1  1  1
  2  3  1  0
  4  2  1  0
  4  5  1  6
  6  4  1  0
  7  6  2  0
  9  8  1  6
  9 11  1  0
 10  9  1  0
 11 12  1  6
 11 13  1  0
 12  6  1  0
 13 20  1  0
 14 13  2  0
 15 16  1  0
 17 16  1  0
 18 17  1  0
 19 18  1  1
 19 21  1  0
 20 19  1  0
 21 22  2  0
 21 23  1  0
M  END
$$$$
