TTM.pdb
     RDKit          3D

 23 22  0  0  1  0  0  0  0  0999 V2000
    9.1512  -12.5462   19.6180 C   0  0  0  0  0  0  0  0  0  0  0  0
    8.4246  -13.1040   18.4252 C   0  0  1  0  0  0  0  0  0  0  0  0
    8.9079  -12.4359   17.2906 O   0  0  0  0  0  0  0  0  0  0  0  0
    8.7135  -14.5936   18.3034 C   0  0  2  0  0  0  0  0  0  0  0  0
    8.1175  -15.0651   17.0902 N   0  0  0  0  0  0  0  0  0  0  0  0
    8.2481  -15.3295   19.5037 C   0  0  0  0  0  0  0  0  0  0  0  0
    7.2141  -16.0355   19.3718 O   0  0  0  0  0  0  0  0  0  0  0  0
    8.1680  -17.7946   20.1093 C   0  0  0  0  0  0  0  0  0  0  0  0
    8.7207  -17.5341   21.4859 C   0  0  1  0  0  0  0  0  0  0  0  0
   10.1243  -17.6407   21.4560 O   0  0  0  0  0  0  0  0  0  0  0  0
    8.4229  -16.0839   21.8346 C   0  0  2  0  0  0  0  0  0  0  0  0
    8.9112  -15.2663   20.7608 N   0  0  0  0  0  0  0  0  0  0  0  0
    9.0994  -15.7933   23.1243 C   0  0  0  0  0  0  0  0  0  0  0  0
   10.2823  -15.3735   23.0684 O   0  0  0  0  0  0  0  0  0  0  0  0
    5.7161  -11.4828   26.3751 C   0  0  0  0  0  0  0  0  0  0  0  0
    6.5552  -12.3873   27.6483 S   0  0  0  0  0  0  0  0  0  0  0  0
    7.9318  -13.4113   27.1431 C   0  0  0  0  0  0  0  0  0  0  0  0
    7.7193  -14.2416   25.9368 C   0  0  0  0  0  0  0  0  0  0  0  0
    8.8456  -15.1027   25.4858 C   0  0  2  0  0  0  0  0  0  0  0  0
    8.4959  -15.9606   24.3815 N   0  0  0  0  0  0  0  0  0  0  0  0
    9.3889  -15.9568   26.5818 C   0  0  0  0  0  0  0  0  0  0  0  0
    9.3111  -17.1999   26.5892 O   0  0  0  0  0  0  0  0  0  0  0  0
   10.0353  -15.3825   27.6944 O   0  0  0  0  0  0  0  0  0  0  0  0
  2  1  1  1
  2  3  1  0
  4  2  1  0
  4  5  1  6
  6  4  1  0
  7  6  2  0
  9  8  1  6
  9 11  1  0
 10  9  1  0
 11 12  1  6
 11 13  1  0
 12  6  1  0
 13 20  1  0
 14 13  2  0
 15 16  1  0
 17 16  1  0
 18 17  1  0
 19 18  1  1
 19 21  1  0
 20 19  1  0
 21 22  2  0
 21 23  1  0
M  END
$$$$
