TTM.pdb
     RDKit          3D

 23 22  0  0  1  0  0  0  0  0999 V2000
    9.0257  -12.5898   19.2737 C   0  0  0  0  0  0  0  0  0  0  0  0
    8.2813  -13.3384   18.2025 C   0  0  1  0  0  0  0  0  0  0  0  0
    8.5463  -12.6980   16.9831 O   0  0  0  0  0  0  0  0  0  0  0  0
    8.7802  -14.7754   18.1447 C   0  0  2  0  0  0  0  0  0  0  0  0
    8.2285  -15.3917   16.9763 N   0  0  0  0  0  0  0  0  0  0  0  0
    8.4571  -15.5054   19.3943 C   0  0  0  0  0  0  0  0  0  0  0  0
    7.2415  -15.7515   19.6104 O   0  0  0  0  0  0  0  0  0  0  0  0
    9.6002  -18.7509   20.5918 C   0  0  0  0  0  0  0  0  0  0  0  0
    9.8842  -17.8073   21.7307 C   0  0  1  0  0  0  0  0  0  0  0  0
   11.2153  -17.3564   21.6458 O   0  0  0  0  0  0  0  0  0  0  0  0
    9.0160  -16.5740   21.5341 C   0  0  2  0  0  0  0  0  0  0  0  0
    9.4451  -15.9243   20.3284 N   0  0  0  0  0  0  0  0  0  0  0  0
    9.1893  -15.7175   22.7348 C   0  0  0  0  0  0  0  0  0  0  0  0
   10.0344  -14.7908   22.6599 O   0  0  0  0  0  0  0  0  0  0  0  0
    6.0905  -11.0438   28.0293 C   0  0  0  0  0  0  0  0  0  0  0  0
    6.0020  -12.2685   26.7505 S   0  0  0  0  0  0  0  0  0  0  0  0
    7.4547  -13.2800   26.4941 C   0  0  0  0  0  0  0  0  0  0  0  0
    7.4751  -14.0910   25.2566 C   0  0  0  0  0  0  0  0  0  0  0  0
    8.6495  -14.9762   25.0321 C   0  0  2  0  0  0  0  0  0  0  0  0
    8.4699  -15.8869   23.9293 N   0  0  0  0  0  0  0  0  0  0  0  0
    9.0038  -15.7763   26.2404 C   0  0  0  0  0  0  0  0  0  0  0  0
    9.1986  -15.2766   27.3646 O   0  0  0  0  0  0  0  0  0  0  0  0
    9.1391  -17.1769   26.1671 O   0  0  0  0  0  0  0  0  0  0  0  0
  2  1  1  1
  2  3  1  0
  4  2  1  0
  4  5  1  6
  6  4  1  0
  7  6  2  0
  9  8  1  6
  9 11  1  0
 10  9  1  0
 11 12  1  6
 11 13  1  0
 12  6  1  0
 13 20  1  0
 14 13  2  0
 15 16  1  0
 17 16  1  0
 18 17  1  0
 19 18  1  1
 19 21  1  0
 20 19  1  0
 21 22  2  0
 21 23  1  0
M  END
$$$$
