TTM.pdb
     RDKit          3D

 23 22  0  0  1  0  0  0  0  0999 V2000
   11.3877  -14.2435   20.2231 C   0  0  0  0  0  0  0  0  0  0  0  0
   10.5826  -13.2367   19.4483 C   0  0  1  0  0  0  0  0  0  0  0  0
   11.3789  -12.7959   18.3811 O   0  0  0  0  0  0  0  0  0  0  0  0
    9.3232  -13.8990   18.9073 C   0  0  2  0  0  0  0  0  0  0  0  0
    8.6513  -12.9566   18.0649 N   0  0  0  0  0  0  0  0  0  0  0  0
    8.4694  -14.4064   20.0084 C   0  0  0  0  0  0  0  0  0  0  0  0
    7.6577  -13.5911   20.5197 O   0  0  0  0  0  0  0  0  0  0  0  0
    6.4857  -17.7650   20.4647 C   0  0  0  0  0  0  0  0  0  0  0  0
    7.4598  -17.5672   21.5963 C   0  0  1  0  0  0  0  0  0  0  0  0
    8.6728  -18.2128   21.2895 O   0  0  0  0  0  0  0  0  0  0  0  0
    7.7869  -16.0836   21.6680 C   0  0  2  0  0  0  0  0  0  0  0  0
    8.5351  -15.7429   20.4914 N   0  0  0  0  0  0  0  0  0  0  0  0
    8.5590  -15.8628   22.9172 C   0  0  0  0  0  0  0  0  0  0  0  0
    9.8106  -15.8195   22.8165 O   0  0  0  0  0  0  0  0  0  0  0  0
    5.3220  -11.5267   26.5234 C   0  0  0  0  0  0  0  0  0  0  0  0
    6.8483  -12.2194   27.1012 S   0  0  0  0  0  0  0  0  0  0  0  0
    7.7934  -13.1883   25.9319 C   0  0  0  0  0  0  0  0  0  0  0  0
    8.1226  -14.5705   26.3450 C   0  0  0  0  0  0  0  0  0  0  0  0
    8.7875  -15.4488   25.3451 C   0  0  2  0  0  0  0  0  0  0  0  0
    7.9726  -15.7028   24.1834 N   0  0  0  0  0  0  0  0  0  0  0  0
    9.1979  -16.7631   25.9193 C   0  0  0  0  0  0  0  0  0  0  0  0
    8.6531  -17.8438   25.6246 O   0  0  0  0  0  0  0  0  0  0  0  0
   10.2524  -16.8489   26.8500 O   0  0  0  0  0  0  0  0  0  0  0  0
  2  1  1  6
  2  3  1  0
  4  2  1  0
  4  5  1  1
  6  4  1  0
  7  6  2  0
  9  8  1  6
  9 11  1  0
 10  9  1  0
 11 12  1  6
 11 13  1  0
 12  6  1  0
 13 20  1  0
 14 13  2  0
 15 16  1  0
 17 16  1  0
 18 17  1  0
 19 18  1  1
 19 21  1  0
 20 19  1  0
 21 22  2  0
 21 23  1  0
M  END
$$$$
