TTM.pdb
     RDKit          3D

 23 22  0  0  1  0  0  0  0  0999 V2000
    9.5588  -12.5572   20.0885 C   0  0  0  0  0  0  0  0  0  0  0  0
    8.5790  -12.9221   19.0075 C   0  0  1  0  0  0  0  0  0  0  0  0
    8.9000  -12.1578   17.8761 O   0  0  0  0  0  0  0  0  0  0  0  0
    8.7111  -14.4027   18.6789 C   0  0  2  0  0  0  0  0  0  0  0  0
    7.8358  -14.6957   17.5846 N   0  0  0  0  0  0  0  0  0  0  0  0
    8.4496  -15.2420   19.8731 C   0  0  0  0  0  0  0  0  0  0  0  0
    7.2843  -15.2065   20.3483 O   0  0  0  0  0  0  0  0  0  0  0  0
    9.6636  -18.7264   23.0361 C   0  0  0  0  0  0  0  0  0  0  0  0
   10.0294  -17.9749   21.7832 C   0  0  1  0  0  0  0  0  0  0  0  0
    9.7513  -18.7745   20.6582 O   0  0  0  0  0  0  0  0  0  0  0  0
    9.1005  -16.7751   21.6782 C   0  0  2  0  0  0  0  0  0  0  0  0
    9.4415  -16.0609   20.4809 N   0  0  0  0  0  0  0  0  0  0  0  0
    9.2957  -15.9586   22.9032 C   0  0  0  0  0  0  0  0  0  0  0  0
   10.3419  -15.2659   22.9688 O   0  0  0  0  0  0  0  0  0  0  0  0
    5.8605  -11.0370   25.9739 C   0  0  0  0  0  0  0  0  0  0  0  0
    6.2308  -12.3502   27.1059 S   0  0  0  0  0  0  0  0  0  0  0  0
    7.6289  -13.3929   26.7094 C   0  0  0  0  0  0  0  0  0  0  0  0
    7.5014  -14.2189   25.4884 C   0  0  0  0  0  0  0  0  0  0  0  0
    8.6454  -15.1000   25.1299 C   0  0  2  0  0  0  0  0  0  0  0  0
    8.3873  -15.9214   23.9738 N   0  0  0  0  0  0  0  0  0  0  0  0
    9.0537  -15.9946   26.2517 C   0  0  0  0  0  0  0  0  0  0  0  0
    8.7828  -17.2095   26.2975 O   0  0  0  0  0  0  0  0  0  0  0  0
    9.7871  -15.4946   27.3462 O   0  0  0  0  0  0  0  0  0  0  0  0
  2  1  1  1
  2  3  1  0
  4  2  1  0
  4  5  1  6
  6  4  1  0
  7  6  2  0
  9  8  1  1
  9 11  1  0
 10  9  1  0
 11 12  1  6
 11 13  1  0
 12  6  1  0
 13 20  1  0
 14 13  2  0
 15 16  1  0
 17 16  1  0
 18 17  1  0
 19 18  1  1
 19 21  1  0
 20 19  1  0
 21 22  2  0
 21 23  1  0
M  END
$$$$
