TTM.pdb
     RDKit          3D

 23 22  0  0  1  0  0  0  0  0999 V2000
   12.8465  -19.1109   20.7261 C   0  0  0  0  0  0  0  0  0  0  0  0
   13.0733  -18.1882   19.5604 C   0  0  1  0  0  0  0  0  0  0  0  0
   13.6395  -18.9497   18.5276 O   0  0  0  0  0  0  0  0  0  0  0  0
   11.7415  -17.6120   19.1001 C   0  0  2  0  0  0  0  0  0  0  0  0
   11.9458  -16.9738   17.8351 N   0  0  0  0  0  0  0  0  0  0  0  0
   11.1681  -16.7044   20.1230 C   0  0  0  0  0  0  0  0  0  0  0  0
   11.8085  -15.6488   20.3689 O   0  0  0  0  0  0  0  0  0  0  0  0
    7.5077  -15.4366   20.5004 C   0  0  0  0  0  0  0  0  0  0  0  0
    7.9741  -16.0656   21.7870 C   0  0  1  0  0  0  0  0  0  0  0  0
    7.6202  -17.4283   21.7984 O   0  0  0  0  0  0  0  0  0  0  0  0
    9.4947  -16.0326   21.7907 C   0  0  2  0  0  0  0  0  0  0  0  0
    9.9555  -16.9786   20.8146 N   0  0  0  0  0  0  0  0  0  0  0  0
    9.9391  -16.3721   23.1664 C   0  0  0  0  0  0  0  0  0  0  0  0
   10.6916  -17.3700   23.2951 O   0  0  0  0  0  0  0  0  0  0  0  0
   11.1059  -12.5499   29.0628 C   0  0  0  0  0  0  0  0  0  0  0  0
   10.0724  -13.9808   29.2293 S   0  0  0  0  0  0  0  0  0  0  0  0
   10.2940  -15.2857   28.0263 C   0  0  0  0  0  0  0  0  0  0  0  0
    9.8427  -14.9872   26.6491 C   0  0  0  0  0  0  0  0  0  0  0  0
   10.0444  -16.0376   25.6150 C   0  0  2  0  0  0  0  0  0  0  0  0
    9.5680  -15.6481   24.3114 N   0  0  0  0  0  0  0  0  0  0  0  0
    9.3958  -17.3312   25.9775 C   0  0  0  0  0  0  0  0  0  0  0  0
    8.2404  -17.6431   25.6321 O   0  0  0  0  0  0  0  0  0  0  0  0
   10.0781  -18.2914   26.7508 O   0  0  0  0  0  0  0  0  0  0  0  0
  2  1  1  1
  2  3  1  0
  4  2  1  0
  4  5  1  6
  6  4  1  0
  7  6  2  0
  9  8  1  6
  9 11  1  0
 10  9  1  0
 11 12  1  6
 11 13  1  0
 12  6  1  0
 13 20  1  0
 14 13  2  0
 15 16  1  0
 17 16  1  0
 18 17  1  0
 19 18  1  1
 19 21  1  0
 20 19  1  0
 21 22  2  0
 21 23  1  0
M  END
$$$$
