TTM.pdb
     RDKit          3D

 23 22  0  0  1  0  0  0  0  0999 V2000
    9.6372  -12.5114   19.9383 C   0  0  0  0  0  0  0  0  0  0  0  0
    8.9028  -12.8926   18.6825 C   0  0  1  0  0  0  0  0  0  0  0  0
    9.6078  -12.3427   17.6019 O   0  0  0  0  0  0  0  0  0  0  0  0
    8.8687  -14.4090   18.5525 C   0  0  2  0  0  0  0  0  0  0  0  0
    8.2130  -14.7359   17.3227 N   0  0  0  0  0  0  0  0  0  0  0  0
    8.2298  -15.0340   19.7358 C   0  0  0  0  0  0  0  0  0  0  0  0
    6.9897  -14.8625   19.8687 O   0  0  0  0  0  0  0  0  0  0  0  0
    7.4272  -18.2421   20.6317 C   0  0  0  0  0  0  0  0  0  0  0  0
    8.2772  -17.8080   21.7967 C   0  0  1  0  0  0  0  0  0  0  0  0
    9.6195  -18.1567   21.5540 O   0  0  0  0  0  0  0  0  0  0  0  0
    8.2469  -16.2882   21.8476 C   0  0  2  0  0  0  0  0  0  0  0  0
    8.9497  -15.7975   20.6963 N   0  0  0  0  0  0  0  0  0  0  0  0
    8.8870  -15.8774   23.1231 C   0  0  0  0  0  0  0  0  0  0  0  0
   10.1014  -15.5585   23.0774 O   0  0  0  0  0  0  0  0  0  0  0  0
    5.1482  -12.1805   26.3000 C   0  0  0  0  0  0  0  0  0  0  0  0
    6.8257  -11.9437   26.8227 S   0  0  0  0  0  0  0  0  0  0  0  0
    8.0707  -12.9614   26.0396 C   0  0  0  0  0  0  0  0  0  0  0  0
    8.0114  -14.4096   26.3372 C   0  0  0  0  0  0  0  0  0  0  0  0
    8.8749  -15.3146   25.5317 C   0  0  2  0  0  0  0  0  0  0  0  0
    8.2168  -15.8280   24.3564 N   0  0  0  0  0  0  0  0  0  0  0  0
    9.3842  -16.4737   26.3208 C   0  0  0  0  0  0  0  0  0  0  0  0
    9.0340  -17.6518   26.1185 O   0  0  0  0  0  0  0  0  0  0  0  0
   10.3132  -16.2872   27.3637 O   0  0  0  0  0  0  0  0  0  0  0  0
  2  1  1  1
  2  3  1  0
  4  2  1  0
  4  5  1  6
  6  4  1  0
  7  6  2  0
  9  8  1  6
  9 11  1  0
 10  9  1  0
 11 12  1  6
 11 13  1  0
 12  6  1  0
 13 20  1  0
 14 13  2  0
 15 16  1  0
 17 16  1  0
 18 17  1  0
 19 18  1  1
 19 21  1  0
 20 19  1  0
 21 22  2  0
 21 23  1  0
M  END
$$$$
