TTM.pdb
     RDKit          3D

 23 22  0  0  1  0  0  0  0  0999 V2000
   11.5960  -17.2955   20.2332 C   0  0  0  0  0  0  0  0  0  0  0  0
   11.0191  -17.1980   18.8477 C   0  0  1  0  0  0  0  0  0  0  0  0
   11.9826  -17.6939   17.9572 O   0  0  0  0  0  0  0  0  0  0  0  0
    9.7575  -18.0454   18.7604 C   0  0  2  0  0  0  0  0  0  0  0  0
    9.3033  -18.0291   17.4029 N   0  0  0  0  0  0  0  0  0  0  0  0
    8.7305  -17.5782   19.7225 C   0  0  0  0  0  0  0  0  0  0  0  0
    8.0021  -16.6195   19.3549 O   0  0  0  0  0  0  0  0  0  0  0  0
    5.9541  -19.4351   21.4533 C   0  0  0  0  0  0  0  0  0  0  0  0
    6.8007  -18.7823   22.5142 C   0  0  1  0  0  0  0  0  0  0  0  0
    7.8023  -19.6789   22.9327 O   0  0  0  0  0  0  0  0  0  0  0  0
    7.5326  -17.6169   21.8665 C   0  0  2  0  0  0  0  0  0  0  0  0
    8.5467  -18.1596   21.0079 N   0  0  0  0  0  0  0  0  0  0  0  0
    8.0977  -16.7884   22.9617 C   0  0  0  0  0  0  0  0  0  0  0  0
    9.3449  -16.8109   23.1115 O   0  0  0  0  0  0  0  0  0  0  0  0
    7.1495  -10.3381   26.5598 C   0  0  0  0  0  0  0  0  0  0  0  0
    6.5841  -11.9496   27.0355 S   0  0  0  0  0  0  0  0  0  0  0  0
    7.5883  -13.3422   26.5343 C   0  0  0  0  0  0  0  0  0  0  0  0
    7.0822  -14.1339   25.3913 C   0  0  0  0  0  0  0  0  0  0  0  0
    7.9438  -15.2334   24.8792 C   0  0  2  0  0  0  0  0  0  0  0  0
    7.3234  -15.9948   23.8240 N   0  0  0  0  0  0  0  0  0  0  0  0
    8.3601  -16.1827   25.9521 C   0  0  0  0  0  0  0  0  0  0  0  0
    9.1563  -15.8865   26.8630 O   0  0  0  0  0  0  0  0  0  0  0  0
    7.8586  -17.4991   25.9886 O   0  0  0  0  0  0  0  0  0  0  0  0
  2  1  1  1
  2  3  1  0
  4  2  1  0
  4  5  1  6
  6  4  1  0
  7  6  2  0
  9  8  1  6
  9 11  1  0
 10  9  1  0
 11 12  1  6
 11 13  1  0
 12  6  1  0
 13 20  1  0
 14 13  2  0
 15 16  1  0
 17 16  1  0
 18 17  1  0
 19 18  1  1
 19 21  1  0
 20 19  1  0
 21 22  2  0
 21 23  1  0
M  END
$$$$
