TTM.pdb
     RDKit          3D

 23 22  0  0  1  0  0  0  0  0999 V2000
    9.3340  -12.5448   19.6282 C   0  0  0  0  0  0  0  0  0  0  0  0
    8.7085  -13.0465   18.3558 C   0  0  1  0  0  0  0  0  0  0  0  0
    9.2803  -12.3272   17.2962 O   0  0  0  0  0  0  0  0  0  0  0  0
    9.0107  -14.5292   18.1896 C   0  0  2  0  0  0  0  0  0  0  0  0
    8.4561  -14.9596   16.9420 N   0  0  0  0  0  0  0  0  0  0  0  0
    8.5129  -15.3106   19.3474 C   0  0  0  0  0  0  0  0  0  0  0  0
    7.2680  -15.4811   19.4245 O   0  0  0  0  0  0  0  0  0  0  0  0
    8.9925  -18.6907   20.4581 C   0  0  0  0  0  0  0  0  0  0  0  0
    9.4078  -17.8602   21.6439 C   0  0  1  0  0  0  0  0  0  0  0  0
   10.7990  -17.6477   21.6039 O   0  0  0  0  0  0  0  0  0  0  0  0
    8.7743  -16.4862   21.4880 C   0  0  2  0  0  0  0  0  0  0  0  0
    9.3693  -15.8572   20.3432 N   0  0  0  0  0  0  0  0  0  0  0  0
    9.0299  -15.7384   22.7453 C   0  0  0  0  0  0  0  0  0  0  0  0
   10.0333  -14.9826   22.7681 O   0  0  0  0  0  0  0  0  0  0  0  0
    6.2824  -11.3410   28.5945 C   0  0  0  0  0  0  0  0  0  0  0  0
    6.0787  -12.4188   27.2017 S   0  0  0  0  0  0  0  0  0  0  0  0
    7.4974  -13.3938   26.7162 C   0  0  0  0  0  0  0  0  0  0  0  0
    7.3548  -14.1774   25.4691 C   0  0  0  0  0  0  0  0  0  0  0  0
    8.5022  -15.0293   25.0555 C   0  0  2  0  0  0  0  0  0  0  0  0
    8.2220  -15.8307   23.8906 N   0  0  0  0  0  0  0  0  0  0  0  0
    8.9621  -15.9398   26.1442 C   0  0  0  0  0  0  0  0  0  0  0  0
    8.7297  -17.1633   26.1630 O   0  0  0  0  0  0  0  0  0  0  0  0
    9.7034  -15.4459   27.2361 O   0  0  0  0  0  0  0  0  0  0  0  0
  2  1  1  1
  2  3  1  0
  4  2  1  0
  4  5  1  6
  6  4  1  0
  7  6  2  0
  9  8  1  6
  9 11  1  0
 10  9  1  0
 11 12  1  6
 11 13  1  0
 12  6  1  0
 13 20  1  0
 14 13  2  0
 15 16  1  0
 17 16  1  0
 18 17  1  0
 19 18  1  1
 19 21  1  0
 20 19  1  0
 21 22  2  0
 21 23  1  0
M  END
$$$$
