TTM.pdb
     RDKit          3D

 23 22  0  0  1  0  0  0  0  0999 V2000
    4.8340  -18.3461   23.6950 C   0  0  0  0  0  0  0  0  0  0  0  0
    5.0049  -19.5701   22.8381 C   0  0  1  0  0  0  0  0  0  0  0  0
    3.7617  -20.2167   22.7790 O   0  0  0  0  0  0  0  0  0  0  0  0
    5.4330  -19.1556   21.4372 C   0  0  2  0  0  0  0  0  0  0  0  0
    5.3717  -20.3100   20.5929 N   0  0  0  0  0  0  0  0  0  0  0  0
    6.7715  -18.5175   21.4528 C   0  0  0  0  0  0  0  0  0  0  0  0
    7.7514  -19.2593   21.7259 O   0  0  0  0  0  0  0  0  0  0  0  0
    8.6116  -16.7441   18.8657 C   0  0  0  0  0  0  0  0  0  0  0  0
    8.5876  -15.7931   20.0333 C   0  0  1  0  0  0  0  0  0  0  0  0
    7.4972  -14.9126   19.8990 O   0  0  0  0  0  0  0  0  0  0  0  0
    8.3090  -16.6092   21.2861 C   0  0  2  0  0  0  0  0  0  0  0  0
    6.9787  -17.1371   21.1778 N   0  0  0  0  0  0  0  0  0  0  0  0
    8.4673  -15.6991   22.4488 C   0  0  0  0  0  0  0  0  0  0  0  0
    8.0025  -14.5375   22.3340 O   0  0  0  0  0  0  0  0  0  0  0  0
    6.6012  -10.8897   26.7142 C   0  0  0  0  0  0  0  0  0  0  0  0
    6.4758  -12.6546   26.6023 S   0  0  0  0  0  0  0  0  0  0  0  0
    7.9867  -13.5565   26.2816 C   0  0  0  0  0  0  0  0  0  0  0  0
    7.9633  -14.4783   25.1243 C   0  0  0  0  0  0  0  0  0  0  0  0
    9.2481  -15.1106   24.7209 C   0  0  2  0  0  0  0  0  0  0  0  0
    9.0989  -16.0632   23.6494 N   0  0  0  0  0  0  0  0  0  0  0  0
    9.9321  -15.7946   25.8567 C   0  0  0  0  0  0  0  0  0  0  0  0
   10.2524  -15.2202   26.9145 O   0  0  0  0  0  0  0  0  0  0  0  0
   10.2587  -17.1635   25.7864 O   0  0  0  0  0  0  0  0  0  0  0  0
  2  1  1  1
  2  3  1  0
  4  2  1  0
  4  5  1  6
  6  4  1  0
  7  6  2  0
  9  8  1  6
  9 11  1  0
 10  9  1  0
 11 12  1  6
 11 13  1  0
 12  6  1  0
 13 20  1  0
 14 13  2  0
 15 16  1  0
 17 16  1  0
 18 17  1  0
 19 18  1  1
 19 21  1  0
 20 19  1  0
 21 22  2  0
 21 23  1  0
M  END
$$$$
