TTM.pdb
     RDKit          3D

 23 22  0  0  1  0  0  0  0  0999 V2000
   10.0946  -12.8072   17.9081 C   0  0  0  0  0  0  0  0  0  0  0  0
    9.6076  -13.3409   19.2272 C   0  0  1  0  0  0  0  0  0  0  0  0
    9.2525  -12.2392   20.0192 O   0  0  0  0  0  0  0  0  0  0  0  0
    8.3876  -14.2227   19.0009 C   0  0  2  0  0  0  0  0  0  0  0  0
    7.3728  -13.4277   18.3784 N   0  0  0  0  0  0  0  0  0  0  0  0
    7.9386  -14.8512   20.2667 C   0  0  0  0  0  0  0  0  0  0  0  0
    6.9674  -14.3094   20.8567 O   0  0  0  0  0  0  0  0  0  0  0  0
    7.1852  -18.4824   20.8809 C   0  0  0  0  0  0  0  0  0  0  0  0
    8.1023  -18.0430   21.9918 C   0  0  1  0  0  0  0  0  0  0  0  0
    9.4319  -18.3628   21.6568 O   0  0  0  0  0  0  0  0  0  0  0  0
    8.0466  -16.5246   22.0614 C   0  0  2  0  0  0  0  0  0  0  0  0
    8.5501  -16.0107   20.8194 N   0  0  0  0  0  0  0  0  0  0  0  0
    8.8686  -16.1067   23.2254 C   0  0  0  0  0  0  0  0  0  0  0  0
   10.0222  -15.6710   22.9847 O   0  0  0  0  0  0  0  0  0  0  0  0
    5.7665  -11.5943   26.7441 C   0  0  0  0  0  0  0  0  0  0  0  0
    7.4300  -12.2071   26.7202 S   0  0  0  0  0  0  0  0  0  0  0  0
    7.6628  -13.9015   26.1971 C   0  0  0  0  0  0  0  0  0  0  0  0
    9.0643  -14.3587   26.0707 C   0  0  0  0  0  0  0  0  0  0  0  0
    9.2946  -15.7633   25.6376 C   0  0  2  0  0  0  0  0  0  0  0  0
    8.4309  -16.1723   24.5584 N   0  0  0  0  0  0  0  0  0  0  0  0
    9.1358  -16.7407   26.7535 C   0  0  0  0  0  0  0  0  0  0  0  0
    8.2900  -17.6551   26.7533 O   0  0  0  0  0  0  0  0  0  0  0  0
    9.9588  -16.6755   27.8955 O   0  0  0  0  0  0  0  0  0  0  0  0
  2  1  1  6
  2  3  1  0
  4  2  1  0
  4  5  1  1
  6  4  1  0
  7  6  2  0
  9  8  1  6
  9 11  1  0
 10  9  1  0
 11 12  1  6
 11 13  1  0
 12  6  1  0
 13 20  1  0
 14 13  2  0
 15 16  1  0
 17 16  1  0
 18 17  1  0
 19 18  1  1
 19 21  1  0
 20 19  1  0
 21 22  2  0
 21 23  1  0
M  END
$$$$
