TTM.pdb
     RDKit          3D

 23 22  0  0  1  0  0  0  0  0999 V2000
    7.0469  -19.9199   24.6359 C   0  0  0  0  0  0  0  0  0  0  0  0
    7.0892  -20.7702   23.3961 C   0  0  1  0  0  0  0  0  0  0  0  0
    6.0981  -21.7538   23.5290 O   0  0  0  0  0  0  0  0  0  0  0  0
    6.7940  -19.9082   22.1767 C   0  0  2  0  0  0  0  0  0  0  0  0
    6.5758  -20.7765   21.0597 N   0  0  0  0  0  0  0  0  0  0  0  0
    7.8762  -18.9217   21.9432 C   0  0  0  0  0  0  0  0  0  0  0  0
    9.0386  -19.3796   21.7884 O   0  0  0  0  0  0  0  0  0  0  0  0
    8.5351  -16.6493   19.3304 C   0  0  0  0  0  0  0  0  0  0  0  0
    8.5529  -15.7609   20.5464 C   0  0  1  0  0  0  0  0  0  0  0  0
    7.2795  -15.1880   20.7276 O   0  0  0  0  0  0  0  0  0  0  0  0
    8.7849  -16.6471   21.7606 C   0  0  2  0  0  0  0  0  0  0  0  0
    7.6513  -17.5179   21.8899 N   0  0  0  0  0  0  0  0  0  0  0  0
    8.9517  -15.7518   22.9336 C   0  0  0  0  0  0  0  0  0  0  0  0
    8.9517  -14.5147   22.7143 O   0  0  0  0  0  0  0  0  0  0  0  0
    7.0481  -10.9753   25.6258 C   0  0  0  0  0  0  0  0  0  0  0  0
    6.5891  -12.3413   26.6585 S   0  0  0  0  0  0  0  0  0  0  0  0
    7.7424  -13.7046   26.7605 C   0  0  0  0  0  0  0  0  0  0  0  0
    7.8741  -14.5401   25.5464 C   0  0  0  0  0  0  0  0  0  0  0  0
    9.1511  -15.2786   25.3533 C   0  0  2  0  0  0  0  0  0  0  0  0
    9.1069  -16.2086   24.2528 N   0  0  0  0  0  0  0  0  0  0  0  0
    9.5718  -16.0256   26.5742 C   0  0  0  0  0  0  0  0  0  0  0  0
    9.7314  -15.4911   27.6879 O   0  0  0  0  0  0  0  0  0  0  0  0
    9.8161  -17.4125   26.5260 O   0  0  0  0  0  0  0  0  0  0  0  0
  2  1  1  1
  2  3  1  0
  4  2  1  0
  4  5  1  6
  6  4  1  0
  7  6  2  0
  9  8  1  6
  9 11  1  0
 10  9  1  0
 11 12  1  1
 11 13  1  0
 12  6  1  0
 13 20  1  0
 14 13  2  0
 15 16  1  0
 17 16  1  0
 18 17  1  0
 19 18  1  1
 19 21  1  0
 20 19  1  0
 21 22  2  0
 21 23  1  0
M  END
$$$$
