WHE.pdb
     RDKit          3D

 34 36  0  0  1  0  0  0  0  0999 V2000
   12.7041  -13.9907   20.0767 N   0  0  0  0  0  0  0  0  0  0  0  0
   11.7454  -15.0325   20.2107 C   0  0  1  0  0  0  0  0  0  0  0  0
   11.3392  -15.5027   18.8134 C   0  0  0  0  0  0  0  0  0  0  0  0
   10.2187  -14.7617   18.2480 C   0  0  0  0  0  0  0  0  0  0  0  0
    9.7225  -14.8742   16.9682 C   0  0  0  0  0  0  0  0  0  0  0  0
    8.7135  -14.0129   16.7933 N   0  0  0  0  0  0  0  0  0  0  0  0
    8.5165  -13.3095   17.9521 C   0  0  0  0  0  0  0  0  0  0  0  0
    7.6084  -12.3292   18.2729 C   0  0  0  0  0  0  0  0  0  0  0  0
    7.5969  -11.7727   19.5157 C   0  0  0  0  0  0  0  0  0  0  0  0
    8.5219  -12.2282   20.4268 C   0  0  0  0  0  0  0  0  0  0  0  0
    9.4395  -13.2121   20.1172 C   0  0  0  0  0  0  0  0  0  0  0  0
    9.4606  -13.7858   18.8516 C   0  0  0  0  0  0  0  0  0  0  0  0
   12.3220  -16.2454   20.8973 C   0  0  0  0  0  0  0  0  0  0  0  0
   13.4605  -16.1178   21.3946 O   0  0  0  0  0  0  0  0  0  0  0  0
   11.6041  -17.4703   20.9743 N   0  0  0  0  0  0  0  0  0  0  0  0
   11.8883  -18.3324   22.0965 C   0  0  1  0  0  0  0  0  0  0  0  0
   10.9281  -19.5456   22.0721 C   0  0  0  0  0  0  0  0  0  0  0  0
   11.2462  -20.4811   23.1737 C   0  0  0  0  0  0  0  0  0  0  0  0
   11.9561  -21.6556   23.1298 C   0  0  0  0  0  0  0  0  0  0  0  0
   11.9961  -22.1754   24.3659 N   0  0  0  0  0  0  0  0  0  0  0  0
   11.3245  -21.3453   25.1763 C   0  0  0  0  0  0  0  0  0  0  0  0
   10.8673  -20.3128   24.4504 N   0  0  0  0  0  0  0  0  0  0  0  0
   13.2581  -18.9040   22.0656 C   0  0  0  0  0  0  0  0  0  0  0  0
   13.6440  -19.5718   21.0449 O   0  0  0  0  0  0  0  0  0  0  0  0
   14.2135  -18.7724   23.0985 N   0  0  0  0  0  0  0  0  0  0  0  0
   15.5389  -19.4061   23.0393 C   0  0  1  0  0  0  0  0  0  0  0  0
   16.6232  -18.4274   23.2891 C   0  0  0  0  0  0  0  0  0  0  0  0
   16.8635  -17.3536   22.3022 C   0  0  0  0  0  0  0  0  0  0  0  0
   17.9484  -16.4129   22.5067 C   0  0  0  0  0  0  0  0  0  0  0  0
   18.6823  -16.4339   23.4998 O   0  0  0  0  0  0  0  0  0  0  0  0
   15.5800  -20.6549   23.7659 C   0  0  0  0  0  0  0  0  0  0  0  0
   14.9780  -20.8386   25.0295 O   0  0  0  0  0  0  0  0  0  0  0  0
   18.2361  -15.3996   21.5666 O   0  0  0  0  0  0  0  0  0  0  0  0
   16.1668  -21.6714   23.3169 O   0  0  0  0  0  0  0  0  0  0  0  0
  2  3  1  0
  2  1  1  6
  3  4  1  0
  4 12  1  0
  5  6  1  0
  5  4  2  0
  6  7  1  0
  7  8  2  0
  8  9  1  0
 10  9  2  0
 11 10  1  0
 12  7  1  0
 12 11  2  0
 13  2  1  0
 14 13  2  0
 15 13  1  0
 16 23  1  0
 16 15  1  0
 16 17  1  6
 18 22  1  0
 18 17  1  0
 19 18  2  0
 20 19  1  0
 20 21  1  0
 21 22  2  0
 23 24  2  0
 25 26  1  0
 25 23  1  0
 26 27  1  1
 28 27  1  0
 29 28  1  0
 29 33  1  0
 30 29  2  0
 31 32  1  0
 31 26  1  0
 34 31  2  0
M  END
$$$$
