WHE.pdb
     RDKit          3D

 34 36  0  0  1  0  0  0  0  0999 V2000
    7.3315  -17.6014   24.6005 N   0  0  0  0  0  0  0  0  0  0  0  0
    7.0818  -16.3854   23.9067 C   0  0  1  0  0  0  0  0  0  0  0  0
    7.8600  -15.2636   24.5955 C   0  0  0  0  0  0  0  0  0  0  0  0
    7.0744  -14.5184   25.5712 C   0  0  0  0  0  0  0  0  0  0  0  0
    6.0640  -15.0160   26.3637 C   0  0  0  0  0  0  0  0  0  0  0  0
    5.5461  -14.0346   27.1114 N   0  0  0  0  0  0  0  0  0  0  0  0
    6.2004  -12.8638   26.8329 C   0  0  0  0  0  0  0  0  0  0  0  0
    6.0417  -11.5957   27.3383 C   0  0  0  0  0  0  0  0  0  0  0  0
    6.8301  -10.5725   26.9072 C   0  0  0  0  0  0  0  0  0  0  0  0
    7.7818  -10.8582   25.9553 C   0  0  0  0  0  0  0  0  0  0  0  0
    7.9511  -12.1275   25.4395 C   0  0  0  0  0  0  0  0  0  0  0  0
    7.1513  -13.1785   25.8717 C   0  0  0  0  0  0  0  0  0  0  0  0
    7.5967  -16.4280   22.4896 C   0  0  0  0  0  0  0  0  0  0  0  0
    8.1236  -17.4977   22.1182 O   0  0  0  0  0  0  0  0  0  0  0  0
    7.4858  -15.3070   21.6220 N   0  0  0  0  0  0  0  0  0  0  0  0
    7.9444  -15.4756   20.2639 C   0  0  1  0  0  0  0  0  0  0  0  0
    7.6875  -14.1746   19.4666 C   0  0  0  0  0  0  0  0  0  0  0  0
    8.1136  -14.3364   18.0587 C   0  0  0  0  0  0  0  0  0  0  0  0
    8.7023  -15.4200   17.4550 C   0  0  0  0  0  0  0  0  0  0  0  0
    8.9162  -15.1242   16.1641 N   0  0  0  0  0  0  0  0  0  0  0  0
    8.4710  -13.8772   15.9552 C   0  0  0  0  0  0  0  0  0  0  0  0
    7.9820  -13.3966   17.1093 N   0  0  0  0  0  0  0  0  0  0  0  0
    9.4043  -15.7259   20.1639 C   0  0  0  0  0  0  0  0  0  0  0  0
   10.2293  -14.8513   20.6008 O   0  0  0  0  0  0  0  0  0  0  0  0
    9.9904  -16.8869   19.6110 N   0  0  0  0  0  0  0  0  0  0  0  0
   11.4430  -17.0399   19.4432 C   0  0  1  0  0  0  0  0  0  0  0  0
   11.9946  -18.0589   20.3669 C   0  0  0  0  0  0  0  0  0  0  0  0
   12.0028  -17.7833   21.8191 C   0  0  0  0  0  0  0  0  0  0  0  0
   12.6443  -18.7136   22.7283 C   0  0  0  0  0  0  0  0  0  0  0  0
   13.8046  -19.1102   22.5810 O   0  0  0  0  0  0  0  0  0  0  0  0
   11.8270  -17.1158   18.0518 C   0  0  0  0  0  0  0  0  0  0  0  0
   12.9657  -16.4695   17.5239 O   0  0  0  0  0  0  0  0  0  0  0  0
   11.9698  -19.2302   23.8560 O   0  0  0  0  0  0  0  0  0  0  0  0
   11.1607  -17.7665   17.2082 O   0  0  0  0  0  0  0  0  0  0  0  0
  2  3  1  0
  2  1  1  1
  3  4  1  0
  4 12  1  0
  5  6  1  0
  5  4  2  0
  6  7  1  0
  7  8  2  0
  8  9  1  0
 10  9  2  0
 11 10  1  0
 12  7  1  0
 12 11  2  0
 13  2  1  0
 14 13  2  0
 15 13  1  0
 16 23  1  0
 16 15  1  0
 16 17  1  6
 18 22  1  0
 18 17  1  0
 19 18  2  0
 20 19  1  0
 20 21  1  0
 21 22  2  0
 23 24  2  0
 25 26  1  0
 25 23  1  0
 26 27  1  1
 28 27  1  0
 29 28  1  0
 29 33  1  0
 30 29  2  0
 31 32  1  0
 31 26  1  0
 34 31  2  0
M  END
$$$$
