WHE.pdb
     RDKit          3D

 34 36  0  0  1  0  0  0  0  0999 V2000
    6.1334  -17.6764   23.7308 N   0  0  0  0  0  0  0  0  0  0  0  0
    6.9274  -16.5055   23.5859 C   0  0  1  0  0  0  0  0  0  0  0  0
    7.5950  -16.2012   24.9277 C   0  0  0  0  0  0  0  0  0  0  0  0
    6.8803  -15.2144   25.7277 C   0  0  0  0  0  0  0  0  0  0  0  0
    5.7314  -15.4256   26.4571 C   0  0  0  0  0  0  0  0  0  0  0  0
    5.3419  -14.2832   27.0348 N   0  0  0  0  0  0  0  0  0  0  0  0
    6.2227  -13.2881   26.7026 C   0  0  0  0  0  0  0  0  0  0  0  0
    6.2587  -11.9584   27.0480 C   0  0  0  0  0  0  0  0  0  0  0  0
    7.2565  -11.1498   26.5953 C   0  0  0  0  0  0  0  0  0  0  0  0
    8.2167  -11.7136   25.7868 C   0  0  0  0  0  0  0  0  0  0  0  0
    8.1919  -13.0476   25.4324 C   0  0  0  0  0  0  0  0  0  0  0  0
    7.1776  -13.8812   25.8879 C   0  0  0  0  0  0  0  0  0  0  0  0
    8.0560  -16.7064   22.6056 C   0  0  0  0  0  0  0  0  0  0  0  0
    8.4028  -17.8860   22.3865 O   0  0  0  0  0  0  0  0  0  0  0  0
    8.6906  -15.6078   21.9638 N   0  0  0  0  0  0  0  0  0  0  0  0
    9.7589  -15.9095   21.0414 C   0  0  1  0  0  0  0  0  0  0  0  0
   10.0614  -14.6632   20.1757 C   0  0  0  0  0  0  0  0  0  0  0  0
    8.9506  -14.4045   19.2328 C   0  0  0  0  0  0  0  0  0  0  0  0
    8.6678  -15.0266   18.0419 C   0  0  0  0  0  0  0  0  0  0  0  0
    7.5649  -14.4680   17.5211 N   0  0  0  0  0  0  0  0  0  0  0  0
    7.1577  -13.5109   18.3666 C   0  0  0  0  0  0  0  0  0  0  0  0
    8.0017  -13.4717   19.4097 N   0  0  0  0  0  0  0  0  0  0  0  0
   11.0373  -16.2503   21.7148 C   0  0  0  0  0  0  0  0  0  0  0  0
   11.5800  -15.4075   22.5097 O   0  0  0  0  0  0  0  0  0  0  0  0
   11.7372  -17.4675   21.5546 N   0  0  0  0  0  0  0  0  0  0  0  0
   13.0132  -17.7444   22.2304 C   0  0  1  0  0  0  0  0  0  0  0  0
   13.0299  -19.0991   22.8307 C   0  0  0  0  0  0  0  0  0  0  0  0
   11.9896  -19.4613   23.8163 C   0  0  0  0  0  0  0  0  0  0  0  0
   11.9794  -20.7879   24.4027 C   0  0  0  0  0  0  0  0  0  0  0  0
   11.2646  -21.7049   23.9860 O   0  0  0  0  0  0  0  0  0  0  0  0
   14.1511  -17.3490   21.4317 C   0  0  0  0  0  0  0  0  0  0  0  0
   15.4694  -17.2904   21.9332 O   0  0  0  0  0  0  0  0  0  0  0  0
   12.8002  -21.1167   25.5034 O   0  0  0  0  0  0  0  0  0  0  0  0
   14.0395  -17.0219   20.2235 O   0  0  0  0  0  0  0  0  0  0  0  0
  2  3  1  0
  2  1  1  1
  3  4  1  0
  4 12  1  0
  5  6  1  0
  5  4  2  0
  6  7  1  0
  7  8  2  0
  8  9  1  0
 10  9  2  0
 11 10  1  0
 12  7  1  0
 12 11  2  0
 13  2  1  0
 14 13  2  0
 15 13  1  0
 16 23  1  0
 16 15  1  0
 16 17  1  6
 18 22  1  0
 18 17  1  0
 19 18  2  0
 20 19  1  0
 20 21  1  0
 21 22  2  0
 23 24  2  0
 25 26  1  0
 25 23  1  0
 26 27  1  6
 28 27  1  0
 29 28  1  0
 29 33  1  0
 30 29  2  0
 31 32  1  0
 31 26  1  0
 34 31  2  0
M  END
$$$$
