WHE.pdb
     RDKit          3D

 34 36  0  0  1  0  0  0  0  0999 V2000
    6.8276  -17.8857   25.1035 N   0  0  0  0  0  0  0  0  0  0  0  0
    6.8246  -16.5730   24.5565 C   0  0  1  0  0  0  0  0  0  0  0  0
    7.7275  -15.6861   25.4148 C   0  0  0  0  0  0  0  0  0  0  0  0
    6.9983  -14.7284   26.2369 C   0  0  0  0  0  0  0  0  0  0  0  0
    6.1532  -15.0216   27.2840 C   0  0  0  0  0  0  0  0  0  0  0  0
    5.6349  -13.8925   27.7810 N   0  0  0  0  0  0  0  0  0  0  0  0
    6.1238  -12.8247   27.0761 C   0  0  0  0  0  0  0  0  0  0  0  0
    5.8995  -11.4750   27.2059 C   0  0  0  0  0  0  0  0  0  0  0  0
    6.5167  -10.5857   26.3798 C   0  0  0  0  0  0  0  0  0  0  0  0
    7.3650  -11.0892   25.4205 C   0  0  0  0  0  0  0  0  0  0  0  0
    7.5986  -12.4425   25.2796 C   0  0  0  0  0  0  0  0  0  0  0  0
    6.9731  -13.3586   26.1166 C   0  0  0  0  0  0  0  0  0  0  0  0
    7.4178  -16.5378   23.1701 C   0  0  0  0  0  0  0  0  0  0  0  0
    8.2126  -17.4560   22.8787 O   0  0  0  0  0  0  0  0  0  0  0  0
    7.0867  -15.5115   22.2434 N   0  0  0  0  0  0  0  0  0  0  0  0
    7.7594  -15.5332   20.9665 C   0  0  1  0  0  0  0  0  0  0  0  0
    7.2596  -14.3532   20.0993 C   0  0  0  0  0  0  0  0  0  0  0  0
    7.9510  -14.3418   18.7909 C   0  0  0  0  0  0  0  0  0  0  0  0
    8.9255  -15.1885   18.3232 C   0  0  0  0  0  0  0  0  0  0  0  0
    9.2634  -14.8049   17.0828 N   0  0  0  0  0  0  0  0  0  0  0  0
    8.5165  -13.7361   16.7719 C   0  0  0  0  0  0  0  0  0  0  0  0
    7.7167  -13.4535   17.8123 N   0  0  0  0  0  0  0  0  0  0  0  0
    9.2296  -15.3574   21.0744 C   0  0  0  0  0  0  0  0  0  0  0  0
    9.7123  -14.2050   21.3493 O   0  0  0  0  0  0  0  0  0  0  0  0
   10.1828  -16.3853   20.8967 N   0  0  0  0  0  0  0  0  0  0  0  0
   11.6210  -16.1825   21.1250 C   0  0  1  0  0  0  0  0  0  0  0  0
   12.0913  -16.9135   22.3251 C   0  0  0  0  0  0  0  0  0  0  0  0
   12.3917  -18.3566   22.2158 C   0  0  0  0  0  0  0  0  0  0  0  0
   12.7888  -19.1041   23.3936 C   0  0  0  0  0  0  0  0  0  0  0  0
   12.9388  -20.3299   23.3968 O   0  0  0  0  0  0  0  0  0  0  0  0
   12.3915  -16.3193   19.9097 C   0  0  0  0  0  0  0  0  0  0  0  0
   11.8767  -16.8847   18.7231 O   0  0  0  0  0  0  0  0  0  0  0  0
   13.0325  -18.4643   24.6285 O   0  0  0  0  0  0  0  0  0  0  0  0
   13.5880  -15.9436   19.8301 O   0  0  0  0  0  0  0  0  0  0  0  0
  2  3  1  0
  2  1  1  1
  3  4  1  0
  4 12  1  0
  5  6  1  0
  5  4  2  0
  6  7  1  0
  7  8  2  0
  8  9  1  0
 10  9  2  0
 11 10  1  0
 12  7  1  0
 12 11  2  0
 13  2  1  0
 14 13  2  0
 15 13  1  0
 16 23  1  0
 16 15  1  0
 16 17  1  6
 18 22  1  0
 18 17  1  0
 19 18  2  0
 20 19  1  0
 20 21  1  0
 21 22  2  0
 23 24  2  0
 25 26  1  0
 25 23  1  0
 26 27  1  1
 28 27  1  0
 29 28  1  0
 29 33  1  0
 30 29  2  0
 31 32  1  0
 31 26  1  0
 34 31  2  0
M  END
$$$$
