WHE.pdb
     RDKit          3D

 34 36  0  0  1  0  0  0  0  0999 V2000
    5.9997  -17.3255   23.8613 N   0  0  0  0  0  0  0  0  0  0  0  0
    6.6818  -16.7142   22.7734 C   0  0  1  0  0  0  0  0  0  0  0  0
    6.8557  -15.2266   23.0822 C   0  0  0  0  0  0  0  0  0  0  0  0
    6.7862  -14.9107   24.5034 C   0  0  0  0  0  0  0  0  0  0  0  0
    6.4918  -15.7859   25.5252 C   0  0  0  0  0  0  0  0  0  0  0  0
    6.4839  -15.1352   26.6944 N   0  0  0  0  0  0  0  0  0  0  0  0
    6.7727  -13.8142   26.4759 C   0  0  0  0  0  0  0  0  0  0  0  0
    6.8876  -12.7566   27.3460 C   0  0  0  0  0  0  0  0  0  0  0  0
    7.1979  -11.5118   26.8893 C   0  0  0  0  0  0  0  0  0  0  0  0
    7.3897  -11.3589   25.5354 C   0  0  0  0  0  0  0  0  0  0  0  0
    7.2770  -12.4128   24.6509 C   0  0  0  0  0  0  0  0  0  0  0  0
    6.9597  -13.6868   25.1062 C   0  0  0  0  0  0  0  0  0  0  0  0
    8.0773  -17.2609   22.6033 C   0  0  0  0  0  0  0  0  0  0  0  0
    8.6423  -17.6820   23.6344 O   0  0  0  0  0  0  0  0  0  0  0  0
    8.7148  -17.2954   21.3328 N   0  0  0  0  0  0  0  0  0  0  0  0
    9.7233  -16.2960   21.0731 C   0  0  1  0  0  0  0  0  0  0  0  0
    9.1542  -14.8928   21.3917 C   0  0  0  0  0  0  0  0  0  0  0  0
    8.4959  -14.3168   20.1981 C   0  0  0  0  0  0  0  0  0  0  0  0
    8.3648  -14.8548   18.9416 C   0  0  0  0  0  0  0  0  0  0  0  0
    7.6958  -13.9827   18.1726 N   0  0  0  0  0  0  0  0  0  0  0  0
    7.4090  -12.9133   18.9284 C   0  0  0  0  0  0  0  0  0  0  0  0
    7.8964  -13.1163   20.1625 N   0  0  0  0  0  0  0  0  0  0  0  0
   10.9292  -16.4432   21.9264 C   0  0  0  0  0  0  0  0  0  0  0  0
   11.7078  -15.4435   22.1023 O   0  0  0  0  0  0  0  0  0  0  0  0
   11.3109  -17.6310   22.5901 N   0  0  0  0  0  0  0  0  0  0  0  0
   12.2740  -17.6452   23.7009 C   0  0  1  0  0  0  0  0  0  0  0  0
   11.8531  -18.5740   24.7761 C   0  0  0  0  0  0  0  0  0  0  0  0
   12.7214  -18.7433   25.9602 C   0  0  0  0  0  0  0  0  0  0  0  0
   12.1454  -18.7050   27.2909 C   0  0  0  0  0  0  0  0  0  0  0  0
   12.3105  -19.6014   28.1242 O   0  0  0  0  0  0  0  0  0  0  0  0
   13.6407  -17.7284   23.2377 C   0  0  0  0  0  0  0  0  0  0  0  0
   13.9915  -18.0091   21.8994 O   0  0  0  0  0  0  0  0  0  0  0  0
   11.3482  -17.6220   27.7211 O   0  0  0  0  0  0  0  0  0  0  0  0
   14.6196  -17.5594   24.0072 O   0  0  0  0  0  0  0  0  0  0  0  0
  2  3  1  0
  2  1  1  1
  3  4  1  0
  4 12  1  0
  5  6  1  0
  5  4  2  0
  6  7  1  0
  7  8  2  0
  8  9  1  0
 10  9  2  0
 11 10  1  0
 12  7  1  0
 12 11  2  0
 13  2  1  0
 14 13  2  0
 15 13  1  0
 16 23  1  0
 16 15  1  0
 16 17  1  1
 18 22  1  0
 18 17  1  0
 19 18  2  0
 20 19  1  0
 20 21  1  0
 21 22  2  0
 23 24  2  0
 25 26  1  0
 25 23  1  0
 26 27  1  1
 28 27  1  0
 29 28  1  0
 29 33  1  0
 30 29  2  0
 31 32  1  0
 31 26  1  0
 34 31  2  0
M  END
$$$$
