WHE.pdb
     RDKit          3D

 34 36  0  0  1  0  0  0  0  0999 V2000
    8.7571  -16.4878   25.1427 N   0  0  0  0  0  0  0  0  0  0  0  0
    7.9475  -16.8580   24.0337 C   0  0  1  0  0  0  0  0  0  0  0  0
    6.7916  -15.8632   23.9214 C   0  0  0  0  0  0  0  0  0  0  0  0
    6.6174  -15.0306   25.1050 C   0  0  0  0  0  0  0  0  0  0  0  0
    5.9261  -15.3641   26.2485 C   0  0  0  0  0  0  0  0  0  0  0  0
    5.9484  -14.3399   27.1094 N   0  0  0  0  0  0  0  0  0  0  0  0
    6.6545  -13.3039   26.5578 C   0  0  0  0  0  0  0  0  0  0  0  0
    6.9595  -12.0555   27.0448 C   0  0  0  0  0  0  0  0  0  0  0  0
    7.6969  -11.1822   26.3046 C   0  0  0  0  0  0  0  0  0  0  0  0
    8.1194  -11.5974   25.0626 C   0  0  0  0  0  0  0  0  0  0  0  0
    7.8197  -12.8485   24.5618 C   0  0  0  0  0  0  0  0  0  0  0  0
    7.0669  -13.7469   25.3084 C   0  0  0  0  0  0  0  0  0  0  0  0
    8.6982  -16.7594   22.7290 C   0  0  0  0  0  0  0  0  0  0  0  0
    8.2953  -17.4854   21.7961 O   0  0  0  0  0  0  0  0  0  0  0  0
    9.8068  -15.8833   22.5711 N   0  0  0  0  0  0  0  0  0  0  0  0
   10.5947  -16.0256   21.3702 C   0  0  1  0  0  0  0  0  0  0  0  0
   10.7413  -14.6474   20.6821 C   0  0  0  0  0  0  0  0  0  0  0  0
    9.4897  -14.2811   19.9827 C   0  0  0  0  0  0  0  0  0  0  0  0
    8.3515  -15.0281   19.8038 C   0  0  0  0  0  0  0  0  0  0  0  0
    7.4672  -14.2968   19.1088 N   0  0  0  0  0  0  0  0  0  0  0  0
    8.0352  -13.1099   18.8532 C   0  0  0  0  0  0  0  0  0  0  0  0
    9.2675  -13.0998   19.3854 N   0  0  0  0  0  0  0  0  0  0  0  0
   11.9794  -16.4944   21.6286 C   0  0  0  0  0  0  0  0  0  0  0  0
   12.6208  -16.0503   22.6425 O   0  0  0  0  0  0  0  0  0  0  0  0
   12.6819  -17.4236   20.8285 N   0  0  0  0  0  0  0  0  0  0  0  0
   14.0193  -17.9228   21.1803 C   0  0  1  0  0  0  0  0  0  0  0  0
   13.9433  -19.1285   22.0384 C   0  0  0  0  0  0  0  0  0  0  0  0
   13.0894  -20.2586   21.6158 C   0  0  0  0  0  0  0  0  0  0  0  0
   13.1360  -21.5121   22.3441 C   0  0  0  0  0  0  0  0  0  0  0  0
   13.9217  -21.7247   23.2729 O   0  0  0  0  0  0  0  0  0  0  0  0
   14.9042  -17.9652   20.0382 C   0  0  0  0  0  0  0  0  0  0  0  0
   16.2813  -18.2608   20.1331 O   0  0  0  0  0  0  0  0  0  0  0  0
   12.2707  -22.5828   22.0302 O   0  0  0  0  0  0  0  0  0  0  0  0
   14.5015  -17.7334   18.8706 O   0  0  0  0  0  0  0  0  0  0  0  0
  2  3  1  0
  2  1  1  1
  3  4  1  0
  4 12  1  0
  5  6  1  0
  5  4  2  0
  6  7  1  0
  7  8  2  0
  8  9  1  0
 10  9  2  0
 11 10  1  0
 12  7  1  0
 12 11  2  0
 13  2  1  0
 14 13  2  0
 15 13  1  0
 16 23  1  0
 16 15  1  0
 16 17  1  1
 18 22  1  0
 18 17  1  0
 19 18  2  0
 20 19  1  0
 20 21  1  0
 21 22  2  0
 23 24  2  0
 25 26  1  0
 25 23  1  0
 26 27  1  6
 28 27  1  0
 29 28  1  0
 29 33  1  0
 30 29  2  0
 31 32  1  0
 31 26  1  0
 34 31  2  0
M  END
$$$$
