WHE.pdb
     RDKit          3D

 34 36  0  0  1  0  0  0  0  0999 V2000
    6.3536  -17.2969   23.7650 N   0  0  0  0  0  0  0  0  0  0  0  0
    7.0747  -16.0924   23.5378 C   0  0  1  0  0  0  0  0  0  0  0  0
    7.7456  -15.6727   24.8464 C   0  0  0  0  0  0  0  0  0  0  0  0
    6.9241  -14.7959   25.6715 C   0  0  0  0  0  0  0  0  0  0  0  0
    5.8583  -15.1712   26.4589 C   0  0  0  0  0  0  0  0  0  0  0  0
    5.3227  -14.0938   27.0444 N   0  0  0  0  0  0  0  0  0  0  0  0
    6.0201  -12.9794   26.6597 C   0  0  0  0  0  0  0  0  0  0  0  0
    5.8639  -11.6546   26.9904 C   0  0  0  0  0  0  0  0  0  0  0  0
    6.7003  -10.7083   26.4812 C   0  0  0  0  0  0  0  0  0  0  0  0
    7.6974  -11.1291   25.6314 C   0  0  0  0  0  0  0  0  0  0  0  0
    7.8648  -12.4566   25.2913 C   0  0  0  0  0  0  0  0  0  0  0  0
    7.0163  -13.4302   25.8043 C   0  0  0  0  0  0  0  0  0  0  0  0
    8.1967  -16.2843   22.5480 C   0  0  0  0  0  0  0  0  0  0  0  0
    8.7797  -17.3885   22.5712 O   0  0  0  0  0  0  0  0  0  0  0  0
    8.5691  -15.2597   21.6353 N   0  0  0  0  0  0  0  0  0  0  0  0
    9.7584  -15.4781   20.8472 C   0  0  1  0  0  0  0  0  0  0  0  0
    9.9537  -14.2959   19.8681 C   0  0  0  0  0  0  0  0  0  0  0  0
    9.0005  -14.3936   18.7404 C   0  0  0  0  0  0  0  0  0  0  0  0
    8.1094  -15.3968   18.4488 C   0  0  0  0  0  0  0  0  0  0  0  0
    7.4470  -15.0661   17.3301 N   0  0  0  0  0  0  0  0  0  0  0  0
    7.9102  -13.8762   16.9219 C   0  0  0  0  0  0  0  0  0  0  0  0
    8.8568  -13.4661   17.7808 N   0  0  0  0  0  0  0  0  0  0  0  0
   10.9992  -15.5350   21.6603 C   0  0  0  0  0  0  0  0  0  0  0  0
   11.0316  -14.9719   22.8086 O   0  0  0  0  0  0  0  0  0  0  0  0
   12.1942  -16.1800   21.2693 N   0  0  0  0  0  0  0  0  0  0  0  0
   13.1648  -16.7087   22.2389 C   0  0  1  0  0  0  0  0  0  0  0  0
   12.5058  -17.5442   23.2702 C   0  0  0  0  0  0  0  0  0  0  0  0
   13.3323  -18.1703   24.3236 C   0  0  0  0  0  0  0  0  0  0  0  0
   12.7114  -19.0246   25.3178 C   0  0  0  0  0  0  0  0  0  0  0  0
   11.5081  -19.3027   25.3127 O   0  0  0  0  0  0  0  0  0  0  0  0
   14.3445  -17.2412   21.5956 C   0  0  0  0  0  0  0  0  0  0  0  0
   14.3083  -17.9704   20.3874 O   0  0  0  0  0  0  0  0  0  0  0  0
   13.4580  -19.6001   26.3690 O   0  0  0  0  0  0  0  0  0  0  0  0
   15.4950  -17.0925   22.0787 O   0  0  0  0  0  0  0  0  0  0  0  0
  2  3  1  0
  2  1  1  1
  3  4  1  0
  4 12  1  0
  5  6  1  0
  5  4  2  0
  6  7  1  0
  7  8  2  0
  8  9  1  0
 10  9  2  0
 11 10  1  0
 12  7  1  0
 12 11  2  0
 13  2  1  0
 14 13  2  0
 15 13  1  0
 16 23  1  0
 16 15  1  0
 16 17  1  6
 18 22  1  0
 18 17  1  0
 19 18  2  0
 20 19  1  0
 20 21  1  0
 21 22  2  0
 23 24  2  0
 25 26  1  0
 25 23  1  0
 26 27  1  6
 28 27  1  0
 29 28  1  0
 29 33  1  0
 30 29  2  0
 31 32  1  0
 31 26  1  0
 34 31  2  0
M  END
$$$$
