WHE.pdb
     RDKit          3D

 34 36  0  0  1  0  0  0  0  0999 V2000
    6.4950  -18.0027   24.3080 N   0  0  0  0  0  0  0  0  0  0  0  0
    6.9872  -16.7312   23.9040 C   0  0  1  0  0  0  0  0  0  0  0  0
    7.6438  -16.0580   25.1099 C   0  0  0  0  0  0  0  0  0  0  0  0
    6.8206  -15.0239   25.7244 C   0  0  0  0  0  0  0  0  0  0  0  0
    5.6619  -15.2167   26.4433 C   0  0  0  0  0  0  0  0  0  0  0  0
    5.1598  -14.0361   26.8236 N   0  0  0  0  0  0  0  0  0  0  0  0
    5.9730  -13.0331   26.3664 C   0  0  0  0  0  0  0  0  0  0  0  0
    5.8899  -11.6679   26.5007 C   0  0  0  0  0  0  0  0  0  0  0  0
    6.8395  -10.8573   25.9571 C   0  0  0  0  0  0  0  0  0  0  0  0
    7.8744  -11.4555   25.2755 C   0  0  0  0  0  0  0  0  0  0  0  0
    7.9694  -12.8254   25.1333 C   0  0  0  0  0  0  0  0  0  0  0  0
    7.0052  -13.6616   25.6831 C   0  0  0  0  0  0  0  0  0  0  0  0
    8.0724  -16.8506   22.8631 C   0  0  0  0  0  0  0  0  0  0  0  0
    8.7927  -17.8692   22.9209 O   0  0  0  0  0  0  0  0  0  0  0  0
    8.2632  -15.8539   21.8672 N   0  0  0  0  0  0  0  0  0  0  0  0
    9.5020  -15.8888   21.1274 C   0  0  1  0  0  0  0  0  0  0  0  0
    9.5860  -14.6515   20.2019 C   0  0  0  0  0  0  0  0  0  0  0  0
   10.8477  -14.6669   19.4288 C   0  0  0  0  0  0  0  0  0  0  0  0
   11.9418  -13.8458   19.5474 C   0  0  0  0  0  0  0  0  0  0  0  0
   12.8565  -14.2215   18.6408 N   0  0  0  0  0  0  0  0  0  0  0  0
   12.3506  -15.2607   17.9618 C   0  0  0  0  0  0  0  0  0  0  0  0
   11.1266  -15.5324   18.4414 N   0  0  0  0  0  0  0  0  0  0  0  0
   10.7055  -15.8240   21.9942 C   0  0  0  0  0  0  0  0  0  0  0  0
   10.7815  -14.9326   22.9087 O   0  0  0  0  0  0  0  0  0  0  0  0
   11.8178  -16.6906   21.9008 N   0  0  0  0  0  0  0  0  0  0  0  0
   12.8599  -16.7590   22.9357 C   0  0  1  0  0  0  0  0  0  0  0  0
   12.2867  -17.0628   24.2679 C   0  0  0  0  0  0  0  0  0  0  0  0
   12.5329  -18.3898   24.8706 C   0  0  0  0  0  0  0  0  0  0  0  0
   11.9568  -18.7163   26.1610 C   0  0  0  0  0  0  0  0  0  0  0  0
   11.0378  -19.5289   26.3042 O   0  0  0  0  0  0  0  0  0  0  0  0
   14.0064  -17.5273   22.5061 C   0  0  0  0  0  0  0  0  0  0  0  0
   13.9447  -18.5217   21.5061 O   0  0  0  0  0  0  0  0  0  0  0  0
   12.4200  -18.1150   27.3516 O   0  0  0  0  0  0  0  0  0  0  0  0
   15.1479  -17.3620   23.0052 O   0  0  0  0  0  0  0  0  0  0  0  0
  2  3  1  0
  2  1  1  1
  3  4  1  0
  4 12  1  0
  5  6  1  0
  5  4  2  0
  6  7  1  0
  7  8  2  0
  8  9  1  0
 10  9  2  0
 11 10  1  0
 12  7  1  0
 12 11  2  0
 13  2  1  0
 14 13  2  0
 15 13  1  0
 16 23  1  0
 16 15  1  0
 16 17  1  6
 18 22  1  0
 18 17  1  0
 19 18  2  0
 20 19  1  0
 20 21  1  0
 21 22  2  0
 23 24  2  0
 25 26  1  0
 25 23  1  0
 26 27  1  1
 28 27  1  0
 29 28  1  0
 29 33  1  0
 30 29  2  0
 31 32  1  0
 31 26  1  0
 34 31  2  0
M  END
$$$$
