WHE.pdb
     RDKit          3D

 34 36  0  0  1  0  0  0  0  0999 V2000
    6.1901  -17.9724   24.5701 N   0  0  0  0  0  0  0  0  0  0  0  0
    6.8251  -16.9711   23.7849 C   0  0  1  0  0  0  0  0  0  0  0  0
    7.7858  -16.1874   24.6799 C   0  0  0  0  0  0  0  0  0  0  0  0
    7.1382  -15.1402   25.4600 C   0  0  0  0  0  0  0  0  0  0  0  0
    6.2248  -15.3190   26.4751 C   0  0  0  0  0  0  0  0  0  0  0  0
    5.8186  -14.1307   26.9370 N   0  0  0  0  0  0  0  0  0  0  0  0
    6.4526  -13.1365   26.2401 C   0  0  0  0  0  0  0  0  0  0  0  0
    6.3779  -11.7682   26.3445 C   0  0  0  0  0  0  0  0  0  0  0  0
    7.1238  -10.9678   25.5339 C   0  0  0  0  0  0  0  0  0  0  0  0
    7.9467  -11.5794   24.6161 C   0  0  0  0  0  0  0  0  0  0  0  0
    8.0308  -12.9526   24.5010 C   0  0  0  0  0  0  0  0  0  0  0  0
    7.2731  -13.7785   25.3225 C   0  0  0  0  0  0  0  0  0  0  0  0
    7.6791  -17.5668   22.6935 C   0  0  0  0  0  0  0  0  0  0  0  0
    8.1791  -18.6878   22.9240 O   0  0  0  0  0  0  0  0  0  0  0  0
    7.9013  -16.8859   21.4652 N   0  0  0  0  0  0  0  0  0  0  0  0
    8.9192  -17.4173   20.5908 C   0  0  1  0  0  0  0  0  0  0  0  0
    8.9555  -16.5948   19.2806 C   0  0  0  0  0  0  0  0  0  0  0  0
    9.7491  -17.2983   18.2485 C   0  0  0  0  0  0  0  0  0  0  0  0
   10.0379  -18.6368   18.1464 C   0  0  0  0  0  0  0  0  0  0  0  0
   10.7888  -18.8280   17.0513 N   0  0  0  0  0  0  0  0  0  0  0  0
   10.9713  -17.6332   16.4716 C   0  0  0  0  0  0  0  0  0  0  0  0
   10.3381  -16.7008   17.2007 N   0  0  0  0  0  0  0  0  0  0  0  0
   10.2875  -17.3267   21.1595 C   0  0  0  0  0  0  0  0  0  0  0  0
   10.6594  -16.2545   21.7501 O   0  0  0  0  0  0  0  0  0  0  0  0
   11.2548  -18.3556   21.1088 N   0  0  0  0  0  0  0  0  0  0  0  0
   12.5571  -18.2548   21.7839 C   0  0  1  0  0  0  0  0  0  0  0  0
   12.7405  -19.3368   22.7797 C   0  0  0  0  0  0  0  0  0  0  0  0
   13.6491  -19.1137   23.9240 C   0  0  0  0  0  0  0  0  0  0  0  0
   13.9655  -20.2090   24.8206 C   0  0  0  0  0  0  0  0  0  0  0  0
   13.1412  -20.7100   25.5919 O   0  0  0  0  0  0  0  0  0  0  0  0
   13.6360  -18.0065   20.8547 C   0  0  0  0  0  0  0  0  0  0  0  0
   14.8802  -17.4601   21.2372 O   0  0  0  0  0  0  0  0  0  0  0  0
   15.2566  -20.7786   24.8661 O   0  0  0  0  0  0  0  0  0  0  0  0
   13.5342  -18.2590   19.6279 O   0  0  0  0  0  0  0  0  0  0  0  0
  2  3  1  0
  2  1  1  1
  3  4  1  0
  4 12  1  0
  5  6  1  0
  5  4  2  0
  6  7  1  0
  7  8  2  0
  8  9  1  0
 10  9  2  0
 11 10  1  0
 12  7  1  0
 12 11  2  0
 13  2  1  0
 14 13  2  0
 15 13  1  0
 16 23  1  0
 16 15  1  0
 16 17  1  6
 18 22  1  0
 18 17  1  0
 19 18  2  0
 20 19  1  0
 20 21  1  0
 21 22  2  0
 23 24  2  0
 25 26  1  0
 25 23  1  0
 26 27  1  6
 28 27  1  0
 29 28  1  0
 29 33  1  0
 30 29  2  0
 31 32  1  0
 31 26  1  0
 34 31  2  0
M  END
$$$$
