WHE.pdb
     RDKit          3D

 34 36  0  0  1  0  0  0  0  0999 V2000
    6.3631  -17.3752   23.8093 N   0  0  0  0  0  0  0  0  0  0  0  0
    7.1659  -16.2091   23.6744 C   0  0  1  0  0  0  0  0  0  0  0  0
    7.6798  -15.8094   25.0582 C   0  0  0  0  0  0  0  0  0  0  0  0
    6.8028  -14.8839   25.7646 C   0  0  0  0  0  0  0  0  0  0  0  0
    5.6309  -15.1989   26.4157 C   0  0  0  0  0  0  0  0  0  0  0  0
    5.0764  -14.0896   26.9181 N   0  0  0  0  0  0  0  0  0  0  0  0
    5.8670  -13.0135   26.6126 C   0  0  0  0  0  0  0  0  0  0  0  0
    5.7318  -11.6780   26.9073 C   0  0  0  0  0  0  0  0  0  0  0  0
    6.6679  -10.7779   26.4974 C   0  0  0  0  0  0  0  0  0  0  0  0
    7.7429  -11.2561   25.7840 C   0  0  0  0  0  0  0  0  0  0  0  0
    7.8903  -12.5950   25.4813 C   0  0  0  0  0  0  0  0  0  0  0  0
    6.9405  -13.5217   25.8937 C   0  0  0  0  0  0  0  0  0  0  0  0
    8.3968  -16.4644   22.8408 C   0  0  0  0  0  0  0  0  0  0  0  0
    8.8773  -17.6161   22.8916 O   0  0  0  0  0  0  0  0  0  0  0  0
    8.9781  -15.4451   22.0379 N   0  0  0  0  0  0  0  0  0  0  0  0
   10.1166  -15.8106   21.2294 C   0  0  1  0  0  0  0  0  0  0  0  0
   10.3915  -14.6970   20.1908 C   0  0  0  0  0  0  0  0  0  0  0  0
    9.2780  -14.6066   19.2203 C   0  0  0  0  0  0  0  0  0  0  0  0
    8.4921  -15.6119   18.7134 C   0  0  0  0  0  0  0  0  0  0  0  0
    7.6065  -15.0721   17.8625 N   0  0  0  0  0  0  0  0  0  0  0  0
    7.8279  -13.7504   17.8320 C   0  0  0  0  0  0  0  0  0  0  0  0
    8.8463  -13.4662   18.6590 N   0  0  0  0  0  0  0  0  0  0  0  0
   11.3713  -15.9492   22.0107 C   0  0  0  0  0  0  0  0  0  0  0  0
   11.8223  -14.9494   22.6692 O   0  0  0  0  0  0  0  0  0  0  0  0
   12.1431  -17.1296   22.0998 N   0  0  0  0  0  0  0  0  0  0  0  0
   13.3850  -17.2089   22.8827 C   0  0  1  0  0  0  0  0  0  0  0  0
   13.4295  -18.4358   23.7125 C   0  0  0  0  0  0  0  0  0  0  0  0
   12.2316  -18.8235   24.4869 C   0  0  0  0  0  0  0  0  0  0  0  0
   12.3710  -19.6570   25.6657 C   0  0  0  0  0  0  0  0  0  0  0  0
   11.4085  -20.0506   26.3321 O   0  0  0  0  0  0  0  0  0  0  0  0
   14.5513  -16.8906   22.0904 C   0  0  0  0  0  0  0  0  0  0  0  0
   15.8208  -16.6263   22.6482 O   0  0  0  0  0  0  0  0  0  0  0  0
   13.6367  -20.0762   26.1300 O   0  0  0  0  0  0  0  0  0  0  0  0
   14.5100  -16.8222   20.8362 O   0  0  0  0  0  0  0  0  0  0  0  0
  2  3  1  0
  2  1  1  1
  3  4  1  0
  4 12  1  0
  5  6  1  0
  5  4  2  0
  6  7  1  0
  7  8  2  0
  8  9  1  0
 10  9  2  0
 11 10  1  0
 12  7  1  0
 12 11  2  0
 13  2  1  0
 14 13  2  0
 15 13  1  0
 16 23  1  0
 16 15  1  0
 16 17  1  6
 18 22  1  0
 18 17  1  0
 19 18  2  0
 20 19  1  0
 20 21  1  0
 21 22  2  0
 23 24  2  0
 25 26  1  0
 25 23  1  0
 26 27  1  6
 28 27  1  0
 29 28  1  0
 29 33  1  0
 30 29  2  0
 31 32  1  0
 31 26  1  0
 34 31  2  0
M  END
$$$$
