WHE.pdb
     RDKit          3D

 34 36  0  0  1  0  0  0  0  0999 V2000
    6.2891  -17.2046   23.9469 N   0  0  0  0  0  0  0  0  0  0  0  0
    7.2137  -16.1979   23.5543 C   0  0  1  0  0  0  0  0  0  0  0  0
    7.8553  -15.6095   24.8116 C   0  0  0  0  0  0  0  0  0  0  0  0
    6.9942  -14.6764   25.5275 C   0  0  0  0  0  0  0  0  0  0  0  0
    5.8719  -14.9923   26.2604 C   0  0  0  0  0  0  0  0  0  0  0  0
    5.3154  -13.8763   26.7456 N   0  0  0  0  0  0  0  0  0  0  0  0
    6.0550  -12.7947   26.3464 C   0  0  0  0  0  0  0  0  0  0  0  0
    5.8982  -11.4512   26.5896 C   0  0  0  0  0  0  0  0  0  0  0  0
    6.7821  -10.5462   26.0855 C   0  0  0  0  0  0  0  0  0  0  0  0
    7.8273  -11.0278   25.3312 C   0  0  0  0  0  0  0  0  0  0  0  0
    7.9960  -12.3746   25.0795 C   0  0  0  0  0  0  0  0  0  0  0  0
    7.0992  -13.3064   25.5881 C   0  0  0  0  0  0  0  0  0  0  0  0
    8.3523  -16.7630   22.7422 C   0  0  0  0  0  0  0  0  0  0  0  0
    9.0847  -17.5988   23.3122 O   0  0  0  0  0  0  0  0  0  0  0  0
    8.5780  -16.3640   21.3963 N   0  0  0  0  0  0  0  0  0  0  0  0
    9.9168  -15.9550   21.0447 C   0  0  1  0  0  0  0  0  0  0  0  0
    9.9200  -14.4495   20.6872 C   0  0  0  0  0  0  0  0  0  0  0  0
    9.0543  -14.1930   19.5148 C   0  0  0  0  0  0  0  0  0  0  0  0
    9.0356  -14.8330   18.3001 C   0  0  0  0  0  0  0  0  0  0  0  0
    8.0880  -14.2689   17.5362 N   0  0  0  0  0  0  0  0  0  0  0  0
    7.5180  -13.2909   18.2541 C   0  0  0  0  0  0  0  0  0  0  0  0
    8.1065  -13.2441   19.4597 N   0  0  0  0  0  0  0  0  0  0  0  0
   10.8878  -16.1053   22.1576 C   0  0  0  0  0  0  0  0  0  0  0  0
   11.2331  -15.0805   22.8411 O   0  0  0  0  0  0  0  0  0  0  0  0
   11.4885  -17.3232   22.5487 N   0  0  0  0  0  0  0  0  0  0  0  0
   12.4715  -17.4095   23.6386 C   0  0  1  0  0  0  0  0  0  0  0  0
   12.1702  -18.5324   24.5574 C   0  0  0  0  0  0  0  0  0  0  0  0
   13.1385  -18.8693   25.6222 C   0  0  0  0  0  0  0  0  0  0  0  0
   12.9162  -20.0318   26.4605 C   0  0  0  0  0  0  0  0  0  0  0  0
   13.7805  -20.8889   26.6695 O   0  0  0  0  0  0  0  0  0  0  0  0
   13.8293  -17.2775   23.1610 C   0  0  0  0  0  0  0  0  0  0  0  0
   14.8588  -16.6635   23.9066 O   0  0  0  0  0  0  0  0  0  0  0  0
   11.6774  -20.2573   27.0995 O   0  0  0  0  0  0  0  0  0  0  0  0
   14.1863  -17.7016   22.0332 O   0  0  0  0  0  0  0  0  0  0  0  0
  2  3  1  0
  2  1  1  1
  3  4  1  0
  4 12  1  0
  5  6  1  0
  5  4  2  0
  6  7  1  0
  7  8  2  0
  8  9  1  0
 10  9  2  0
 11 10  1  0
 12  7  1  0
 12 11  2  0
 13  2  1  0
 14 13  2  0
 15 13  1  0
 16 23  1  0
 16 15  1  0
 16 17  1  1
 18 22  1  0
 18 17  1  0
 19 18  2  0
 20 19  1  0
 20 21  1  0
 21 22  2  0
 23 24  2  0
 25 26  1  0
 25 23  1  0
 26 27  1  6
 28 27  1  0
 29 28  1  0
 29 33  1  0
 30 29  2  0
 31 32  1  0
 31 26  1  0
 34 31  2  0
M  END
$$$$
