WHE.pdb
     RDKit          3D

 34 36  0  0  1  0  0  0  0  0999 V2000
    6.4318  -17.1602   23.4321 N   0  0  0  0  0  0  0  0  0  0  0  0
    7.3095  -16.0463   23.3256 C   0  0  1  0  0  0  0  0  0  0  0  0
    7.8741  -15.7373   24.7128 C   0  0  0  0  0  0  0  0  0  0  0  0
    6.9879  -14.9273   25.5394 C   0  0  0  0  0  0  0  0  0  0  0  0
    5.8902  -15.3700   26.2434 C   0  0  0  0  0  0  0  0  0  0  0  0
    5.2976  -14.3399   26.8585 N   0  0  0  0  0  0  0  0  0  0  0  0
    5.9879  -13.1907   26.5774 C   0  0  0  0  0  0  0  0  0  0  0  0
    5.7820  -11.8909   26.9736 C   0  0  0  0  0  0  0  0  0  0  0  0
    6.6218  -10.8993   26.5666 C   0  0  0  0  0  0  0  0  0  0  0  0
    7.6736  -11.2490   25.7513 C   0  0  0  0  0  0  0  0  0  0  0  0
    7.8913  -12.5506   25.3460 C   0  0  0  0  0  0  0  0  0  0  0  0
    7.0398  -13.5700   25.7546 C   0  0  0  0  0  0  0  0  0  0  0  0
    8.5050  -16.3506   22.4576 C   0  0  0  0  0  0  0  0  0  0  0  0
    8.8633  -17.5456   22.3986 O   0  0  0  0  0  0  0  0  0  0  0  0
    9.1872  -15.3280   21.7430 N   0  0  0  0  0  0  0  0  0  0  0  0
   10.2716  -15.7354   20.8821 C   0  0  1  0  0  0  0  0  0  0  0  0
   10.6184  -14.5842   19.9080 C   0  0  0  0  0  0  0  0  0  0  0  0
    9.4809  -14.3113   19.0017 C   0  0  0  0  0  0  0  0  0  0  0  0
    9.0323  -15.0495   17.9344 C   0  0  0  0  0  0  0  0  0  0  0  0
    7.9725  -14.4245   17.3997 N   0  0  0  0  0  0  0  0  0  0  0  0
    7.7548  -13.3122   18.1153 C   0  0  0  0  0  0  0  0  0  0  0  0
    8.6736  -13.2426   19.0915 N   0  0  0  0  0  0  0  0  0  0  0  0
   11.5268  -16.0300   21.6182 C   0  0  0  0  0  0  0  0  0  0  0  0
   12.0110  -15.1592   22.4205 O   0  0  0  0  0  0  0  0  0  0  0  0
   12.2643  -17.2308   21.5123 N   0  0  0  0  0  0  0  0  0  0  0  0
   13.5305  -17.4503   22.2267 C   0  0  1  0  0  0  0  0  0  0  0  0
   13.7211  -18.8785   22.5729 C   0  0  0  0  0  0  0  0  0  0  0  0
   12.7322  -19.5443   23.4466 C   0  0  0  0  0  0  0  0  0  0  0  0
   12.7920  -19.3536   24.8832 C   0  0  0  0  0  0  0  0  0  0  0  0
   13.8530  -19.2625   25.5087 O   0  0  0  0  0  0  0  0  0  0  0  0
   14.6355  -16.7560   21.6053 C   0  0  0  0  0  0  0  0  0  0  0  0
   14.5171  -16.0269   20.4023 O   0  0  0  0  0  0  0  0  0  0  0  0
   11.6210  -19.2585   25.6663 O   0  0  0  0  0  0  0  0  0  0  0  0
   15.7911  -16.7601   22.0991 O   0  0  0  0  0  0  0  0  0  0  0  0
  2  3  1  0
  2  1  1  1
  3  4  1  0
  4 12  1  0
  5  6  1  0
  5  4  2  0
  6  7  1  0
  7  8  2  0
  8  9  1  0
 10  9  2  0
 11 10  1  0
 12  7  1  0
 12 11  2  0
 13  2  1  0
 14 13  2  0
 15 13  1  0
 16 23  1  0
 16 15  1  0
 16 17  1  6
 18 22  1  0
 18 17  1  0
 19 18  2  0
 20 19  1  0
 20 21  1  0
 21 22  2  0
 23 24  2  0
 25 26  1  0
 25 23  1  0
 26 27  1  6
 28 27  1  0
 29 28  1  0
 29 33  1  0
 30 29  2  0
 31 32  1  0
 31 26  1  0
 34 31  2  0
M  END
$$$$
