WHE.pdb
     RDKit          3D

 34 36  0  0  1  0  0  0  0  0999 V2000
    6.7353  -18.0373   25.0813 N   0  0  0  0  0  0  0  0  0  0  0  0
    7.2367  -17.0410   24.1991 C   0  0  1  0  0  0  0  0  0  0  0  0
    8.0318  -16.0223   25.0169 C   0  0  0  0  0  0  0  0  0  0  0  0
    7.2020  -15.0131   25.6630 C   0  0  0  0  0  0  0  0  0  0  0  0
    6.1777  -15.2410   26.5549 C   0  0  0  0  0  0  0  0  0  0  0  0
    5.6178  -14.0794   26.9122 N   0  0  0  0  0  0  0  0  0  0  0  0
    6.2571  -13.0544   26.2664 C   0  0  0  0  0  0  0  0  0  0  0  0
    6.0580  -11.6952   26.3063 C   0  0  0  0  0  0  0  0  0  0  0  0
    6.8389  -10.8569   25.5703 C   0  0  0  0  0  0  0  0  0  0  0  0
    7.8249  -11.4212   24.7939 C   0  0  0  0  0  0  0  0  0  0  0  0
    8.0350  -12.7848   24.7449 C   0  0  0  0  0  0  0  0  0  0  0  0
    7.2431  -13.6492   25.4910 C   0  0  0  0  0  0  0  0  0  0  0  0
    8.2118  -17.6111   23.1994 C   0  0  0  0  0  0  0  0  0  0  0  0
    8.9006  -18.5806   23.5807 O   0  0  0  0  0  0  0  0  0  0  0  0
    8.3380  -17.0717   21.8899 N   0  0  0  0  0  0  0  0  0  0  0  0
    9.5675  -17.3377   21.1822 C   0  0  1  0  0  0  0  0  0  0  0  0
    9.5347  -16.6310   19.8060 C   0  0  0  0  0  0  0  0  0  0  0  0
   10.7513  -16.9540   19.0279 C   0  0  0  0  0  0  0  0  0  0  0  0
   11.8359  -17.7104   19.3978 C   0  0  0  0  0  0  0  0  0  0  0  0
   12.7057  -17.7355   18.3767 N   0  0  0  0  0  0  0  0  0  0  0  0
   12.1811  -17.0090   17.3799 C   0  0  0  0  0  0  0  0  0  0  0  0
   10.9903  -16.5325   17.7761 N   0  0  0  0  0  0  0  0  0  0  0  0
   10.7698  -16.8106   21.8754 C   0  0  0  0  0  0  0  0  0  0  0  0
   10.7548  -15.6265   22.3596 O   0  0  0  0  0  0  0  0  0  0  0  0
   11.9759  -17.5236   22.0590 N   0  0  0  0  0  0  0  0  0  0  0  0
   13.1078  -16.9845   22.8271 C   0  0  1  0  0  0  0  0  0  0  0  0
   12.9825  -17.2912   24.2714 C   0  0  0  0  0  0  0  0  0  0  0  0
   12.9516  -18.7036   24.7061 C   0  0  0  0  0  0  0  0  0  0  0  0
   12.0029  -19.1284   25.7177 C   0  0  0  0  0  0  0  0  0  0  0  0
   11.9328  -18.6118   26.8373 O   0  0  0  0  0  0  0  0  0  0  0  0
   14.3772  -17.2535   22.1904 C   0  0  0  0  0  0  0  0  0  0  0  0
   14.5178  -18.0859   21.0589 O   0  0  0  0  0  0  0  0  0  0  0  0
   11.0864  -20.1757   25.4792 O   0  0  0  0  0  0  0  0  0  0  0  0
   15.4544  -16.7618   22.6111 O   0  0  0  0  0  0  0  0  0  0  0  0
  2  3  1  0
  2  1  1  1
  3  4  1  0
  4 12  1  0
  5  6  1  0
  5  4  2  0
  6  7  1  0
  7  8  2  0
  8  9  1  0
 10  9  2  0
 11 10  1  0
 12  7  1  0
 12 11  2  0
 13  2  1  0
 14 13  2  0
 15 13  1  0
 16 23  1  0
 16 15  1  0
 16 17  1  6
 18 22  1  0
 18 17  1  0
 19 18  2  0
 20 19  1  0
 20 21  1  0
 21 22  2  0
 23 24  2  0
 25 26  1  0
 25 23  1  0
 26 27  1  1
 28 27  1  0
 29 28  1  0
 29 33  1  0
 30 29  2  0
 31 32  1  0
 31 26  1  0
 34 31  2  0
M  END
$$$$
