WHE.pdb
     RDKit          3D

 34 36  0  0  1  0  0  0  0  0999 V2000
    6.8080  -18.2045   24.6612 N   0  0  0  0  0  0  0  0  0  0  0  0
    7.3467  -17.1523   23.8705 C   0  0  1  0  0  0  0  0  0  0  0  0
    8.0825  -16.1788   24.7922 C   0  0  0  0  0  0  0  0  0  0  0  0
    7.2078  -15.2081   25.4381 C   0  0  0  0  0  0  0  0  0  0  0  0
    6.1893  -15.4827   26.3235 C   0  0  0  0  0  0  0  0  0  0  0  0
    5.5793  -14.3472   26.6827 N   0  0  0  0  0  0  0  0  0  0  0  0
    6.1785  -13.2934   26.0448 C   0  0  0  0  0  0  0  0  0  0  0  0
    5.9224  -11.9439   26.0893 C   0  0  0  0  0  0  0  0  0  0  0  0
    6.6714  -11.0703   25.3611 C   0  0  0  0  0  0  0  0  0  0  0  0
    7.6841  -11.5894   24.5877 C   0  0  0  0  0  0  0  0  0  0  0  0
    7.9515  -12.9428   24.5340 C   0  0  0  0  0  0  0  0  0  0  0  0
    7.1926  -13.8429   25.2722 C   0  0  0  0  0  0  0  0  0  0  0  0
    8.3831  -17.6526   22.8955 C   0  0  0  0  0  0  0  0  0  0  0  0
    9.0933  -18.6072   23.2753 O   0  0  0  0  0  0  0  0  0  0  0  0
    8.5411  -17.0669   21.6095 N   0  0  0  0  0  0  0  0  0  0  0  0
    9.6873  -17.4768   20.8339 C   0  0  1  0  0  0  0  0  0  0  0  0
    9.6553  -16.7759   19.4548 C   0  0  0  0  0  0  0  0  0  0  0  0
   10.7734  -17.2468   18.6075 C   0  0  0  0  0  0  0  0  0  0  0  0
   11.2704  -18.5188   18.4643 C   0  0  0  0  0  0  0  0  0  0  0  0
   12.2886  -18.4823   17.5916 N   0  0  0  0  0  0  0  0  0  0  0  0
   12.4329  -17.2114   17.1904 C   0  0  0  0  0  0  0  0  0  0  0  0
   11.5100  -16.4582   17.8092 N   0  0  0  0  0  0  0  0  0  0  0  0
   10.9816  -17.0911   21.4502 C   0  0  0  0  0  0  0  0  0  0  0  0
   11.0013  -16.2379   22.4032 O   0  0  0  0  0  0  0  0  0  0  0  0
   12.2434  -17.6000   21.0683 N   0  0  0  0  0  0  0  0  0  0  0  0
   13.2896  -17.9421   22.0431 C   0  0  1  0  0  0  0  0  0  0  0  0
   12.7454  -18.7315   23.1730 C   0  0  0  0  0  0  0  0  0  0  0  0
   12.9872  -18.2682   24.5557 C   0  0  0  0  0  0  0  0  0  0  0  0
   12.9593  -19.2177   25.6518 C   0  0  0  0  0  0  0  0  0  0  0  0
   13.4651  -20.3423   25.5842 O   0  0  0  0  0  0  0  0  0  0  0  0
   14.4940  -18.4235   21.4053 C   0  0  0  0  0  0  0  0  0  0  0  0
   15.6781  -17.6614   21.3056 O   0  0  0  0  0  0  0  0  0  0  0  0
   12.3421  -18.9079   26.8834 O   0  0  0  0  0  0  0  0  0  0  0  0
   14.5655  -19.5655   20.8859 O   0  0  0  0  0  0  0  0  0  0  0  0
  2  3  1  0
  2  1  1  1
  3  4  1  0
  4 12  1  0
  5  6  1  0
  5  4  2  0
  6  7  1  0
  7  8  2  0
  8  9  1  0
 10  9  2  0
 11 10  1  0
 12  7  1  0
 12 11  2  0
 13  2  1  0
 14 13  2  0
 15 13  1  0
 16 23  1  0
 16 15  1  0
 16 17  1  6
 18 22  1  0
 18 17  1  0
 19 18  2  0
 20 19  1  0
 20 21  1  0
 21 22  2  0
 23 24  2  0
 25 26  1  0
 25 23  1  0
 26 27  1  1
 28 27  1  0
 29 28  1  0
 29 33  1  0
 30 29  2  0
 31 32  1  0
 31 26  1  0
 34 31  2  0
M  END
$$$$
