FGE.pdb
     RDKit          3D

 25 25  0  0  1  0  0  0  0  0999 V2000
   26.3208  -14.4314  -17.7662 N   0  0  0  0  0  0  0  0  0  0  0  0
   25.6107  -14.3373  -16.5039 C   0  0  1  0  0  0  0  0  0  0  0  0
   26.1413  -15.3984  -15.5802 C   0  0  0  0  0  0  0  0  0  0  0  0
   25.8399  -16.7302  -16.2266 C   0  0  0  0  0  0  0  0  0  0  0  0
   26.8297  -17.4403  -16.8629 C   0  0  0  0  0  0  0  0  0  0  0  0
   26.5238  -18.6403  -17.4395 C   0  0  0  0  0  0  0  0  0  0  0  0
   25.2375  -19.1612  -17.3991 C   0  0  0  0  0  0  0  0  0  0  0  0
   24.2372  -18.4558  -16.7627 C   0  0  0  0  0  0  0  0  0  0  0  0
   24.5705  -17.2517  -16.1909 C   0  0  0  0  0  0  0  0  0  0  0  0
   25.7144  -12.9671  -16.0014 C   0  0  0  0  0  0  0  0  0  0  0  0
   26.6809  -12.2296  -16.3227 O   0  0  0  0  0  0  0  0  0  0  0  0
   24.7305  -12.3906  -15.1218 N   0  0  0  0  0  0  0  0  0  0  0  0
   24.7353  -11.0275  -14.6972 C   0  0  0  0  0  0  0  0  0  0  0  0
   23.8032  -10.1479  -15.4457 C   0  0  0  0  0  0  0  0  0  0  0  0
   23.6499  -10.2843  -16.6749 O   0  0  0  0  0  0  0  0  0  0  0  0
   23.0850   -9.1488  -14.7570 N   0  0  0  0  0  0  0  0  0  0  0  0
   22.0534   -8.3068  -15.3692 C   0  0  1  0  0  0  0  0  0  0  0  0
   21.0747   -9.2107  -16.0125 C   0  0  0  0  0  0  0  0  0  0  0  0
   20.4150  -10.2401  -15.1674 C   0  0  0  0  0  0  0  0  0  0  0  0
   19.4389  -11.0037  -15.9845 C   0  0  0  0  0  0  0  0  0  0  0  0
   19.7140  -12.1074  -16.5350 O   0  0  0  0  0  0  0  0  0  0  0  0
   21.6099   -7.2011  -14.5528 C   0  0  0  0  0  0  0  0  0  0  0  0
   20.9490   -6.0668  -15.0091 O   0  0  0  0  0  0  0  0  0  0  0  0
   18.1689  -10.4757  -16.1450 O   0  0  0  0  0  0  0  0  0  0  0  0
   21.8397   -7.2422  -13.3088 O   0  0  0  0  0  0  0  0  0  0  0  0
  2  1  1  6
  2 10  1  0
  3  2  1  0
  4  3  1  0
  4  9  2  0
  5  4  1  0
  6  5  2  0
  6  7  1  0
  7  8  2  0
  8  9  1  0
 10 11  2  0
 12 13  1  0
 12 10  1  0
 13 14  1  0
 14 16  1  0
 15 14  2  0
 16 17  1  0
 17 22  1  0
 17 18  1  1
 19 18  1  0
 19 20  1  0
 20 21  2  0
 20 24  1  0
 22 25  2  0
 22 23  1  0
M  END
$$$$
