FGE.pdb
     RDKit          3D

 25 25  0  0  1  0  0  0  0  0999 V2000
   26.0906  -19.7750   -7.8134 N   0  0  0  0  0  0  0  0  0  0  0  0
   27.4560  -19.9837   -8.2592 C   0  0  1  0  0  0  0  0  0  0  0  0
   28.1338  -20.9157   -7.2934 C   0  0  0  0  0  0  0  0  0  0  0  0
   28.3324  -20.1447   -6.0094 C   0  0  0  0  0  0  0  0  0  0  0  0
   27.6859  -20.5236   -4.8573 C   0  0  0  0  0  0  0  0  0  0  0  0
   27.8850  -19.8038   -3.7135 C   0  0  0  0  0  0  0  0  0  0  0  0
   28.7244  -18.6983   -3.6852 C   0  0  0  0  0  0  0  0  0  0  0  0
   29.3778  -18.3102   -4.8366 C   0  0  0  0  0  0  0  0  0  0  0  0
   29.1606  -19.0505   -5.9736 C   0  0  0  0  0  0  0  0  0  0  0  0
   27.4378  -20.4359   -9.6505 C   0  0  0  0  0  0  0  0  0  0  0  0
   28.3953  -21.0940  -10.1315 O   0  0  0  0  0  0  0  0  0  0  0  0
   26.3386  -20.1578  -10.5386 N   0  0  0  0  0  0  0  0  0  0  0  0
   26.3338  -20.4720  -11.9313 C   0  0  0  0  0  0  0  0  0  0  0  0
   25.4087  -21.5690  -12.3100 C   0  0  0  0  0  0  0  0  0  0  0  0
   24.9328  -22.3268  -11.4426 O   0  0  0  0  0  0  0  0  0  0  0  0
   25.0663  -21.7536  -13.6654 N   0  0  0  0  0  0  0  0  0  0  0  0
   23.9368  -22.5665  -14.1256 C   0  0  1  0  0  0  0  0  0  0  0  0
   22.7455  -22.1328  -13.3632 C   0  0  0  0  0  0  0  0  0  0  0  0
   22.1511  -20.8103  -13.6899 C   0  0  0  0  0  0  0  0  0  0  0  0
   20.9478  -20.5845  -12.8504 C   0  0  0  0  0  0  0  0  0  0  0  0
   20.4897  -21.4520  -12.0539 O   0  0  0  0  0  0  0  0  0  0  0  0
   23.8684  -22.7549  -15.5558 C   0  0  0  0  0  0  0  0  0  0  0  0
   23.2550  -23.8182  -16.2077 O   0  0  0  0  0  0  0  0  0  0  0  0
   20.3038  -19.3628  -12.9495 O   0  0  0  0  0  0  0  0  0  0  0  0
   24.4160  -21.8923  -16.3028 O   0  0  0  0  0  0  0  0  0  0  0  0
  2  1  1  1
  2 10  1  0
  3  2  1  0
  4  3  1  0
  4  9  2  0
  5  4  1  0
  6  5  2  0
  6  7  1  0
  7  8  2  0
  8  9  1  0
 10 11  2  0
 12 13  1  0
 12 10  1  0
 13 14  1  0
 14 16  1  0
 15 14  2  0
 16 17  1  0
 17 22  1  0
 17 18  1  6
 19 18  1  0
 19 20  1  0
 20 21  2  0
 20 24  1  0
 22 25  2  0
 22 23  1  0
M  END
$$$$
