FGE.pdb
     RDKit          3D

 25 25  0  0  1  0  0  0  0  0999 V2000
   27.1484  -21.6840  -14.4405 N   0  0  0  0  0  0  0  0  0  0  0  0
   26.9723  -20.2964  -14.0531 C   0  0  1  0  0  0  0  0  0  0  0  0
   26.3309  -19.5615  -15.1973 C   0  0  0  0  0  0  0  0  0  0  0  0
   27.3518  -19.5096  -16.3097 C   0  0  0  0  0  0  0  0  0  0  0  0
   28.3514  -18.5665  -16.3001 C   0  0  0  0  0  0  0  0  0  0  0  0
   29.2574  -18.5447  -17.3221 C   0  0  0  0  0  0  0  0  0  0  0  0
   29.1941  -19.4519  -18.3713 C   0  0  0  0  0  0  0  0  0  0  0  0
   28.1944  -20.4023  -18.3898 C   0  0  0  0  0  0  0  0  0  0  0  0
   27.2957  -20.4030  -17.3505 C   0  0  0  0  0  0  0  0  0  0  0  0
   26.2351  -20.2456  -12.7903 C   0  0  0  0  0  0  0  0  0  0  0  0
   25.8464  -19.1505  -12.3096 O   0  0  0  0  0  0  0  0  0  0  0  0
   25.9163  -21.4290  -12.0340 N   0  0  0  0  0  0  0  0  0  0  0  0
   25.1738  -21.4253  -10.8145 C   0  0  0  0  0  0  0  0  0  0  0  0
   23.7275  -21.1348  -10.9771 C   0  0  0  0  0  0  0  0  0  0  0  0
   22.9790  -21.0598   -9.9835 O   0  0  0  0  0  0  0  0  0  0  0  0
   23.1974  -20.9421  -12.2694 N   0  0  0  0  0  0  0  0  0  0  0  0
   21.7828  -20.6785  -12.5479 C   0  0  1  0  0  0  0  0  0  0  0  0
   21.7279  -19.5693  -13.5253 C   0  0  0  0  0  0  0  0  0  0  0  0
   22.0433  -19.8742  -14.9454 C   0  0  0  0  0  0  0  0  0  0  0  0
   21.8750  -18.6492  -15.7666 C   0  0  0  0  0  0  0  0  0  0  0  0
   21.0699  -17.7226  -15.4664 O   0  0  0  0  0  0  0  0  0  0  0  0
   20.9696  -21.8587  -12.7256 C   0  0  0  0  0  0  0  0  0  0  0  0
   19.6101  -21.9581  -12.4546 O   0  0  0  0  0  0  0  0  0  0  0  0
   22.6410  -18.5227  -16.9131 O   0  0  0  0  0  0  0  0  0  0  0  0
   21.5240  -22.9113  -13.1577 O   0  0  0  0  0  0  0  0  0  0  0  0
  2  1  1  6
  2 10  1  0
  3  2  1  0
  4  3  1  0
  4  9  2  0
  5  4  1  0
  6  5  2  0
  6  7  1  0
  7  8  2  0
  8  9  1  0
 10 11  2  0
 12 13  1  0
 12 10  1  0
 13 14  1  0
 14 16  1  0
 15 14  2  0
 16 17  1  0
 17 22  1  0
 17 18  1  6
 19 18  1  0
 19 20  1  0
 20 21  2  0
 20 24  1  0
 22 25  2  0
 22 23  1  0
M  END
$$$$
