FGE.pdb
     RDKit          3D

 25 25  0  0  1  0  0  0  0  0999 V2000
   26.2296  -22.0351  -12.4142 N   0  0  0  0  0  0  0  0  0  0  0  0
   25.9184  -21.0053  -11.4399 C   0  0  1  0  0  0  0  0  0  0  0  0
   27.0302  -19.9931  -11.4470 C   0  0  0  0  0  0  0  0  0  0  0  0
   28.2675  -20.7004  -10.9455 C   0  0  0  0  0  0  0  0  0  0  0  0
   28.3747  -21.0753   -9.6277 C   0  0  0  0  0  0  0  0  0  0  0  0
   29.5076  -21.7110   -9.2055 C   0  0  0  0  0  0  0  0  0  0  0  0
   30.5544  -21.9883  -10.0745 C   0  0  0  0  0  0  0  0  0  0  0  0
   30.4560  -21.6158  -11.3992 C   0  0  0  0  0  0  0  0  0  0  0  0
   29.3066  -20.9778  -11.7987 C   0  0  0  0  0  0  0  0  0  0  0  0
   24.5873  -20.4687  -11.7245 C   0  0  0  0  0  0  0  0  0  0  0  0
   24.2912  -19.2811  -11.4360 O   0  0  0  0  0  0  0  0  0  0  0  0
   23.5526  -21.2573  -12.3423 N   0  0  0  0  0  0  0  0  0  0  0  0
   22.1798  -21.2262  -11.9517 C   0  0  0  0  0  0  0  0  0  0  0  0
   21.2869  -22.0764  -12.7778 C   0  0  0  0  0  0  0  0  0  0  0  0
   21.7340  -22.7024  -13.7583 O   0  0  0  0  0  0  0  0  0  0  0  0
   19.9194  -22.1753  -12.4482 N   0  0  0  0  0  0  0  0  0  0  0  0
   19.0320  -23.2387  -12.9275 C   0  0  1  0  0  0  0  0  0  0  0  0
   18.0520  -23.5093  -11.8528 C   0  0  0  0  0  0  0  0  0  0  0  0
   18.0010  -24.8816  -11.2842 C   0  0  0  0  0  0  0  0  0  0  0  0
   18.7439  -24.9157   -9.9995 C   0  0  0  0  0  0  0  0  0  0  0  0
   19.1319  -23.8738   -9.3990 O   0  0  0  0  0  0  0  0  0  0  0  0
   18.6019  -23.0973  -14.2989 C   0  0  0  0  0  0  0  0  0  0  0  0
   18.3642  -24.1385  -15.1883 O   0  0  0  0  0  0  0  0  0  0  0  0
   19.0194  -26.1514   -9.4386 O   0  0  0  0  0  0  0  0  0  0  0  0
   18.4273  -21.9304  -14.7570 O   0  0  0  0  0  0  0  0  0  0  0  0
  2  1  1  6
  2 10  1  0
  3  2  1  0
  4  3  1  0
  4  9  2  0
  5  4  1  0
  6  5  2  0
  6  7  1  0
  7  8  2  0
  8  9  1  0
 10 11  2  0
 12 13  1  0
 12 10  1  0
 13 14  1  0
 14 16  1  0
 15 14  2  0
 16 17  1  0
 17 22  1  0
 17 18  1  1
 19 18  1  0
 19 20  1  0
 20 21  2  0
 20 24  1  0
 22 25  2  0
 22 23  1  0
M  END
$$$$
