FGE.pdb
     RDKit          3D

 25 25  0  0  1  0  0  0  0  0999 V2000
   18.3935  -19.1001    3.6684 N   0  0  0  0  0  0  0  0  0  0  0  0
   18.7383  -18.2113    4.7628 C   0  0  1  0  0  0  0  0  0  0  0  0
   17.5535  -17.3318    5.0518 C   0  0  0  0  0  0  0  0  0  0  0  0
   17.5886  -16.2072    4.0435 C   0  0  0  0  0  0  0  0  0  0  0  0
   16.6027  -15.2499    4.0270 C   0  0  0  0  0  0  0  0  0  0  0  0
   16.6622  -14.2475    3.1010 C   0  0  0  0  0  0  0  0  0  0  0  0
   17.6941  -14.1711    2.1752 C   0  0  0  0  0  0  0  0  0  0  0  0
   18.6883  -15.1275    2.1839 C   0  0  0  0  0  0  0  0  0  0  0  0
   18.6055  -16.1252    3.1250 C   0  0  0  0  0  0  0  0  0  0  0  0
   19.2096  -19.0109    5.8938 C   0  0  0  0  0  0  0  0  0  0  0  0
   19.4251  -20.2438    5.7717 O   0  0  0  0  0  0  0  0  0  0  0  0
   19.4505  -18.4420    7.1947 N   0  0  0  0  0  0  0  0  0  0  0  0
   19.8955  -19.1894    8.3268 C   0  0  0  0  0  0  0  0  0  0  0  0
   18.9246  -20.1997    8.8159 C   0  0  0  0  0  0  0  0  0  0  0  0
   17.9300  -20.5086    8.1314 O   0  0  0  0  0  0  0  0  0  0  0  0
   19.1315  -20.8148   10.0678 N   0  0  0  0  0  0  0  0  0  0  0  0
   18.3446  -21.9447   10.5698 C   0  0  1  0  0  0  0  0  0  0  0  0
   18.2603  -22.9395    9.4780 C   0  0  0  0  0  0  0  0  0  0  0  0
   17.5740  -24.2276    9.7588 C   0  0  0  0  0  0  0  0  0  0  0  0
   17.5967  -25.0789    8.5430 C   0  0  0  0  0  0  0  0  0  0  0  0
   16.6119  -25.1878    7.7587 O   0  0  0  0  0  0  0  0  0  0  0  0
   18.6634  -22.3545   11.9174 C   0  0  0  0  0  0  0  0  0  0  0  0
   19.9022  -22.8036   12.3595 O   0  0  0  0  0  0  0  0  0  0  0  0
   18.7557  -25.7822    8.2612 O   0  0  0  0  0  0  0  0  0  0  0  0
   17.7469  -22.3182   12.7895 O   0  0  0  0  0  0  0  0  0  0  0  0
  2  1  1  6
  2 10  1  0
  3  2  1  0
  4  3  1  0
  4  9  2  0
  5  4  1  0
  6  5  2  0
  6  7  1  0
  7  8  2  0
  8  9  1  0
 10 11  2  0
 12 13  1  0
 12 10  1  0
 13 14  1  0
 14 16  1  0
 15 14  2  0
 16 17  1  0
 17 22  1  0
 17 18  1  6
 19 18  1  0
 19 20  1  0
 20 21  2  0
 20 24  1  0
 22 25  2  0
 22 23  1  0
M  END
$$$$
