FGE.pdb
     RDKit          3D

 25 25  0  0  1  0  0  0  0  0999 V2000
   28.0980  -20.5965   -8.6928 N   0  0  0  0  0  0  0  0  0  0  0  0
   26.7383  -20.6869   -8.1931 C   0  0  1  0  0  0  0  0  0  0  0  0
   26.4857  -19.5127   -7.2886 C   0  0  0  0  0  0  0  0  0  0  0  0
   27.4689  -19.6219   -6.1468 C   0  0  0  0  0  0  0  0  0  0  0  0
   28.4092  -18.6421   -5.9355 C   0  0  0  0  0  0  0  0  0  0  0  0
   29.2854  -18.7720   -4.8957 C   0  0  0  0  0  0  0  0  0  0  0  0
   29.2503  -19.8696   -4.0461 C   0  0  0  0  0  0  0  0  0  0  0  0
   28.3102  -20.8583   -4.2501 C   0  0  0  0  0  0  0  0  0  0  0  0
   27.4406  -20.7042   -5.3027 C   0  0  0  0  0  0  0  0  0  0  0  0
   25.8222  -20.8062   -9.3276 C   0  0  0  0  0  0  0  0  0  0  0  0
   24.5788  -20.8750   -9.1530 O   0  0  0  0  0  0  0  0  0  0  0  0
   26.2833  -20.8518  -10.6912 N   0  0  0  0  0  0  0  0  0  0  0  0
   25.5688  -21.4745  -11.7589 C   0  0  0  0  0  0  0  0  0  0  0  0
   24.2883  -20.8113  -12.1099 C   0  0  0  0  0  0  0  0  0  0  0  0
   23.9275  -19.7742  -11.5206 O   0  0  0  0  0  0  0  0  0  0  0  0
   23.4735  -21.3621  -13.1203 N   0  0  0  0  0  0  0  0  0  0  0  0
   22.1975  -20.7860  -13.5540 C   0  0  1  0  0  0  0  0  0  0  0  0
   21.8963  -21.3444  -14.8905 C   0  0  0  0  0  0  0  0  0  0  0  0
   23.0378  -21.7618  -15.7459 C   0  0  0  0  0  0  0  0  0  0  0  0
   22.6119  -21.7846  -17.1677 C   0  0  0  0  0  0  0  0  0  0  0  0
   21.4311  -21.5296  -17.5383 O   0  0  0  0  0  0  0  0  0  0  0  0
   21.1789  -20.7301  -12.5318 C   0  0  0  0  0  0  0  0  0  0  0  0
   20.3736  -19.6341  -12.2451 O   0  0  0  0  0  0  0  0  0  0  0  0
   23.5595  -22.0996  -18.1270 O   0  0  0  0  0  0  0  0  0  0  0  0
   20.9900  -21.7556  -11.8145 O   0  0  0  0  0  0  0  0  0  0  0  0
  2  1  1  6
  2 10  1  0
  3  2  1  0
  4  3  1  0
  4  9  2  0
  5  4  1  0
  6  5  2  0
  6  7  1  0
  7  8  2  0
  8  9  1  0
 10 11  2  0
 12 13  1  0
 12 10  1  0
 13 14  1  0
 14 16  1  0
 15 14  2  0
 16 17  1  0
 17 22  1  0
 17 18  1  6
 19 18  1  0
 19 20  1  0
 20 21  2  0
 20 24  1  0
 22 25  2  0
 22 23  1  0
M  END
$$$$
