FGE.pdb
     RDKit          3D

 25 25  0  0  1  0  0  0  0  0999 V2000
   27.5464  -20.2302  -14.8979 N   0  0  0  0  0  0  0  0  0  0  0  0
   26.6474  -19.5366  -13.9939 C   0  0  1  0  0  0  0  0  0  0  0  0
   25.7297  -18.6689  -14.8098 C   0  0  0  0  0  0  0  0  0  0  0  0
   26.5817  -17.5740  -15.4079 C   0  0  0  0  0  0  0  0  0  0  0  0
   27.0738  -17.6881  -16.6860 C   0  0  0  0  0  0  0  0  0  0  0  0
   27.8431  -16.6815  -17.1966 C   0  0  0  0  0  0  0  0  0  0  0  0
   28.1408  -15.5450  -16.4566 C   0  0  0  0  0  0  0  0  0  0  0  0
   27.6514  -15.4213  -15.1727 C   0  0  0  0  0  0  0  0  0  0  0  0
   26.8804  -16.4475  -14.6824 C   0  0  0  0  0  0  0  0  0  0  0  0
   25.9785  -20.5200  -13.1418 C   0  0  0  0  0  0  0  0  0  0  0  0
   25.7085  -21.6716  -13.5687 O   0  0  0  0  0  0  0  0  0  0  0  0
   25.5950  -20.2315  -11.7839 N   0  0  0  0  0  0  0  0  0  0  0  0
   24.4745  -20.8215  -11.1247 C   0  0  0  0  0  0  0  0  0  0  0  0
   23.1611  -20.4924  -11.7325 C   0  0  0  0  0  0  0  0  0  0  0  0
   23.0525  -19.5470  -12.5372 O   0  0  0  0  0  0  0  0  0  0  0  0
   22.0264  -21.2582  -11.3944 N   0  0  0  0  0  0  0  0  0  0  0  0
   20.7144  -21.1106  -12.0307 C   0  0  1  0  0  0  0  0  0  0  0  0
   20.9370  -21.0852  -13.4931 C   0  0  0  0  0  0  0  0  0  0  0  0
   19.7456  -21.0212  -14.3794 C   0  0  0  0  0  0  0  0  0  0  0  0
   19.9723  -20.0139  -15.4459 C   0  0  0  0  0  0  0  0  0  0  0  0
   21.1031  -19.5019  -15.6820 O   0  0  0  0  0  0  0  0  0  0  0  0
   19.6678  -21.9247  -11.4584 C   0  0  0  0  0  0  0  0  0  0  0  0
   19.8420  -23.1580  -10.8417 O   0  0  0  0  0  0  0  0  0  0  0  0
   18.8888  -19.6235  -16.2147 O   0  0  0  0  0  0  0  0  0  0  0  0
   18.4763  -21.5022  -11.5192 O   0  0  0  0  0  0  0  0  0  0  0  0
  2  1  1  6
  2 10  1  0
  3  2  1  0
  4  3  1  0
  4  9  2  0
  5  4  1  0
  6  5  2  0
  6  7  1  0
  7  8  2  0
  8  9  1  0
 10 11  2  0
 12 13  1  0
 12 10  1  0
 13 14  1  0
 14 16  1  0
 15 14  2  0
 16 17  1  0
 17 22  1  0
 17 18  1  6
 19 18  1  0
 19 20  1  0
 20 21  2  0
 20 24  1  0
 22 25  2  0
 22 23  1  0
M  END
$$$$
