FGE.pdb
     RDKit          3D

 25 25  0  0  1  0  0  0  0  0999 V2000
   25.4152  -20.8236   -8.0893 N   0  0  0  0  0  0  0  0  0  0  0  0
   26.5220  -20.3804   -8.9170 C   0  0  1  0  0  0  0  0  0  0  0  0
   27.8007  -20.8919   -8.3138 C   0  0  0  0  0  0  0  0  0  0  0  0
   27.9894  -20.1602   -7.0055 C   0  0  0  0  0  0  0  0  0  0  0  0
   28.1428  -20.8551   -5.8298 C   0  0  0  0  0  0  0  0  0  0  0  0
   28.3089  -20.1637   -4.6635 C   0  0  0  0  0  0  0  0  0  0  0  0
   28.3268  -18.7757   -4.6356 C   0  0  0  0  0  0  0  0  0  0  0  0
   28.1736  -18.0693   -5.8106 C   0  0  0  0  0  0  0  0  0  0  0  0
   28.0080  -18.7880   -6.9699 C   0  0  0  0  0  0  0  0  0  0  0  0
   26.2773  -20.7941  -10.2989 C   0  0  0  0  0  0  0  0  0  0  0  0
   25.3348  -21.5758  -10.5849 O   0  0  0  0  0  0  0  0  0  0  0  0
   27.0897  -20.3377  -11.3970 N   0  0  0  0  0  0  0  0  0  0  0  0
   26.7247  -19.2741  -12.2765 C   0  0  0  0  0  0  0  0  0  0  0  0
   25.8348  -19.6787  -13.3933 C   0  0  0  0  0  0  0  0  0  0  0  0
   26.1374  -19.4171  -14.5736 O   0  0  0  0  0  0  0  0  0  0  0  0
   24.6356  -20.3657  -13.1135 N   0  0  0  0  0  0  0  0  0  0  0  0
   23.6562  -20.7594  -14.1302 C   0  0  1  0  0  0  0  0  0  0  0  0
   24.0870  -22.0677  -14.6703 C   0  0  0  0  0  0  0  0  0  0  0  0
   24.2461  -23.1976  -13.7180 C   0  0  0  0  0  0  0  0  0  0  0  0
   24.5279  -24.4461  -14.4700 C   0  0  0  0  0  0  0  0  0  0  0  0
   23.6201  -25.1776  -14.9574 O   0  0  0  0  0  0  0  0  0  0  0  0
   22.2778  -20.5304  -13.7652 C   0  0  0  0  0  0  0  0  0  0  0  0
   21.2455  -20.2172  -14.6415 O   0  0  0  0  0  0  0  0  0  0  0  0
   25.8503  -24.8188  -14.6423 O   0  0  0  0  0  0  0  0  0  0  0  0
   21.9587  -20.6079  -12.5428 O   0  0  0  0  0  0  0  0  0  0  0  0
  2  1  1  1
  2 10  1  0
  3  2  1  0
  4  3  1  0
  4  9  2  0
  5  4  1  0
  6  5  2  0
  6  7  1  0
  7  8  2  0
  8  9  1  0
 10 11  2  0
 12 13  1  0
 12 10  1  0
 13 14  1  0
 14 16  1  0
 15 14  2  0
 16 17  1  0
 17 22  1  0
 17 18  1  1
 19 18  1  0
 19 20  1  0
 20 21  2  0
 20 24  1  0
 22 25  2  0
 22 23  1  0
M  END
$$$$
