FGE.pdb
     RDKit          3D

 25 25  0  0  1  0  0  0  0  0999 V2000
   28.9583  -21.6487   -8.5943 N   0  0  0  0  0  0  0  0  0  0  0  0
   27.6562  -21.0076   -8.6070 C   0  0  1  0  0  0  0  0  0  0  0  0
   27.8058  -19.6174   -8.0541 C   0  0  0  0  0  0  0  0  0  0  0  0
   28.1845  -19.7649   -6.5990 C   0  0  0  0  0  0  0  0  0  0  0  0
   29.5046  -19.8039   -6.2188 C   0  0  0  0  0  0  0  0  0  0  0  0
   29.8136  -19.9406   -4.8953 C   0  0  0  0  0  0  0  0  0  0  0  0
   28.8271  -20.0412   -3.9235 C   0  0  0  0  0  0  0  0  0  0  0  0
   27.4991  -20.0030   -4.2952 C   0  0  0  0  0  0  0  0  0  0  0  0
   27.2148  -19.8651   -5.6324 C   0  0  0  0  0  0  0  0  0  0  0  0
   27.1029  -21.0826   -9.9593 C   0  0  0  0  0  0  0  0  0  0  0  0
   27.8298  -21.3765  -10.9425 O   0  0  0  0  0  0  0  0  0  0  0  0
   25.7137  -20.8275  -10.2406 N   0  0  0  0  0  0  0  0  0  0  0  0
   25.1493  -20.8201  -11.5520 C   0  0  0  0  0  0  0  0  0  0  0  0
   23.6793  -20.6183  -11.5868 C   0  0  0  0  0  0  0  0  0  0  0  0
   23.0248  -20.5310  -10.5299 O   0  0  0  0  0  0  0  0  0  0  0  0
   23.0191  -20.5248  -12.8292 N   0  0  0  0  0  0  0  0  0  0  0  0
   21.5687  -20.3788  -12.9815 C   0  0  1  0  0  0  0  0  0  0  0  0
   21.3200  -19.8798  -14.3518 C   0  0  0  0  0  0  0  0  0  0  0  0
   20.3736  -18.7463  -14.5208 C   0  0  0  0  0  0  0  0  0  0  0  0
   21.0053  -17.6901  -15.3507 C   0  0  0  0  0  0  0  0  0  0  0  0
   21.9399  -17.9224  -16.1689 O   0  0  0  0  0  0  0  0  0  0  0  0
   20.7895  -21.4680  -12.4409 C   0  0  0  0  0  0  0  0  0  0  0  0
   19.6813  -21.3421  -11.6116 O   0  0  0  0  0  0  0  0  0  0  0  0
   20.5421  -16.3920  -15.2172 O   0  0  0  0  0  0  0  0  0  0  0  0
   21.1323  -22.6523  -12.7269 O   0  0  0  0  0  0  0  0  0  0  0  0
  2  1  1  6
  2 10  1  0
  3  2  1  0
  4  3  1  0
  4  9  2  0
  5  4  1  0
  6  5  2  0
  6  7  1  0
  7  8  2  0
  8  9  1  0
 10 11  2  0
 12 13  1  0
 12 10  1  0
 13 14  1  0
 14 16  1  0
 15 14  2  0
 16 17  1  0
 17 22  1  0
 17 18  1  6
 19 18  1  0
 19 20  1  0
 20 21  2  0
 20 24  1  0
 22 25  2  0
 22 23  1  0
M  END
$$$$
