FGE.pdb
     RDKit          3D

 25 25  0  0  1  0  0  0  0  0999 V2000
   23.8456  -12.5258  -15.9095 N   0  0  0  0  0  0  0  0  0  0  0  0
   24.3142  -11.2136  -16.3158 C   0  0  1  0  0  0  0  0  0  0  0  0
   25.3206  -11.3893  -17.4190 C   0  0  0  0  0  0  0  0  0  0  0  0
   26.4926  -12.1357  -16.8258 C   0  0  0  0  0  0  0  0  0  0  0  0
   27.0806  -13.1734  -17.5084 C   0  0  0  0  0  0  0  0  0  0  0  0
   28.1370  -13.8296  -16.9433 C   0  0  0  0  0  0  0  0  0  0  0  0
   28.6323  -13.4745  -15.6958 C   0  0  0  0  0  0  0  0  0  0  0  0
   28.0486  -12.4342  -15.0028 C   0  0  0  0  0  0  0  0  0  0  0  0
   26.9877  -11.7906  -15.5927 C   0  0  0  0  0  0  0  0  0  0  0  0
   23.1600  -10.3806  -16.6540 C   0  0  0  0  0  0  0  0  0  0  0  0
   23.3073   -9.1895  -17.0296 O   0  0  0  0  0  0  0  0  0  0  0  0
   21.8070  -10.8679  -16.5776 N   0  0  0  0  0  0  0  0  0  0  0  0
   20.6524  -10.0749  -16.8541 C   0  0  0  0  0  0  0  0  0  0  0  0
   20.5296   -8.8559  -16.0165 C   0  0  0  0  0  0  0  0  0  0  0  0
   20.6386   -8.9232  -14.7768 O   0  0  0  0  0  0  0  0  0  0  0  0
   20.2873   -7.6105  -16.6316 N   0  0  0  0  0  0  0  0  0  0  0  0
   20.2605   -6.3310  -15.9172 C   0  0  1  0  0  0  0  0  0  0  0  0
   21.5068   -6.2454  -15.1248 C   0  0  0  0  0  0  0  0  0  0  0  0
   22.7500   -5.8253  -15.8226 C   0  0  0  0  0  0  0  0  0  0  0  0
   23.3524   -4.6690  -15.1130 C   0  0  0  0  0  0  0  0  0  0  0  0
   24.5791   -4.3755  -15.1896 O   0  0  0  0  0  0  0  0  0  0  0  0
   19.8079   -5.2071  -16.7031 C   0  0  0  0  0  0  0  0  0  0  0  0
   19.8141   -5.1297  -18.0908 O   0  0  0  0  0  0  0  0  0  0  0  0
   22.5242   -3.8789  -14.3338 O   0  0  0  0  0  0  0  0  0  0  0  0
   19.3701   -4.1864  -16.0961 O   0  0  0  0  0  0  0  0  0  0  0  0
  2  1  1  6
  2 10  1  0
  3  2  1  0
  4  3  1  0
  4  9  2  0
  5  4  1  0
  6  5  2  0
  6  7  1  0
  7  8  2  0
  8  9  1  0
 10 11  2  0
 12 13  1  0
 12 10  1  0
 13 14  1  0
 14 16  1  0
 15 14  2  0
 16 17  1  0
 17 22  1  0
 17 18  1  6
 19 18  1  0
 19 20  1  0
 20 21  2  0
 20 24  1  0
 22 25  2  0
 22 23  1  0
M  END
$$$$
