FGE.pdb
     RDKit          3D

 25 25  0  0  1  0  0  0  0  0999 V2000
   28.8420  -21.0853   -8.7778 N   0  0  0  0  0  0  0  0  0  0  0  0
   27.4196  -20.8652   -8.9648 C   0  0  1  0  0  0  0  0  0  0  0  0
   27.0157  -19.6602   -8.1612 C   0  0  0  0  0  0  0  0  0  0  0  0
   27.5957  -19.8437   -6.7783 C   0  0  0  0  0  0  0  0  0  0  0  0
   27.0758  -20.7818   -5.9190 C   0  0  0  0  0  0  0  0  0  0  0  0
   27.6214  -20.9210   -4.6745 C   0  0  0  0  0  0  0  0  0  0  0  0
   28.6887  -20.1383   -4.2552 C   0  0  0  0  0  0  0  0  0  0  0  0
   29.2175  -19.1939   -5.1105 C   0  0  0  0  0  0  0  0  0  0  0  0
   28.6509  -19.0734   -6.3565 C   0  0  0  0  0  0  0  0  0  0  0  0
   27.1363  -20.7802  -10.3977 C   0  0  0  0  0  0  0  0  0  0  0  0
   27.9683  -20.2766  -11.1949 O   0  0  0  0  0  0  0  0  0  0  0  0
   25.9058  -21.2606  -10.9715 N   0  0  0  0  0  0  0  0  0  0  0  0
   25.7041  -21.4799  -12.3677 C   0  0  0  0  0  0  0  0  0  0  0  0
   24.3041  -21.7984  -12.7434 C   0  0  0  0  0  0  0  0  0  0  0  0
   23.7021  -22.7477  -12.2052 O   0  0  0  0  0  0  0  0  0  0  0  0
   23.6506  -21.0178  -13.7190 N   0  0  0  0  0  0  0  0  0  0  0  0
   22.2284  -21.1379  -14.0521 C   0  0  1  0  0  0  0  0  0  0  0  0
   21.4714  -21.0343  -12.7852 C   0  0  0  0  0  0  0  0  0  0  0  0
   20.6354  -19.8246  -12.5687 C   0  0  0  0  0  0  0  0  0  0  0  0
   20.7876  -19.3590  -11.1674 C   0  0  0  0  0  0  0  0  0  0  0  0
   21.2376  -18.2176  -10.8648 O   0  0  0  0  0  0  0  0  0  0  0  0
   21.8146  -20.3972  -15.2208 C   0  0  0  0  0  0  0  0  0  0  0  0
   22.2837  -19.1445  -15.5980 O   0  0  0  0  0  0  0  0  0  0  0  0
   20.4153  -20.2213  -10.1500 O   0  0  0  0  0  0  0  0  0  0  0  0
   20.9417  -20.9106  -15.9800 O   0  0  0  0  0  0  0  0  0  0  0  0
  2  1  1  6
  2 10  1  0
  3  2  1  0
  4  3  1  0
  4  9  2  0
  5  4  1  0
  6  5  2  0
  6  7  1  0
  7  8  2  0
  8  9  1  0
 10 11  2  0
 12 13  1  0
 12 10  1  0
 13 14  1  0
 14 16  1  0
 15 14  2  0
 16 17  1  0
 17 22  1  0
 17 18  1  1
 19 18  1  0
 19 20  1  0
 20 21  2  0
 20 24  1  0
 22 25  2  0
 22 23  1  0
M  END
$$$$
