FGE.pdb
     RDKit          3D

 25 25  0  0  1  0  0  0  0  0999 V2000
   28.8776  -21.1857   -8.8291 N   0  0  0  0  0  0  0  0  0  0  0  0
   27.4707  -20.8409   -8.7384 C   0  0  1  0  0  0  0  0  0  0  0  0
   27.3512  -19.5112   -8.0467 C   0  0  0  0  0  0  0  0  0  0  0  0
   27.9151  -19.6902   -6.6565 C   0  0  0  0  0  0  0  0  0  0  0  0
   28.9520  -18.9041   -6.2144 C   0  0  0  0  0  0  0  0  0  0  0  0
   29.4408  -19.0928   -4.9529 C   0  0  0  0  0  0  0  0  0  0  0  0
   28.9162  -20.0594   -4.1053 C   0  0  0  0  0  0  0  0  0  0  0  0
   27.8752  -20.8533   -4.5402 C   0  0  0  0  0  0  0  0  0  0  0  0
   27.4018  -20.6438   -5.8129 C   0  0  0  0  0  0  0  0  0  0  0  0
   26.8794  -20.9016  -10.0753 C   0  0  0  0  0  0  0  0  0  0  0  0
   27.4607  -20.3893  -11.0657 O   0  0  0  0  0  0  0  0  0  0  0  0
   25.6152  -21.5417  -10.3322 N   0  0  0  0  0  0  0  0  0  0  0  0
   24.9319  -21.4932  -11.5849 C   0  0  0  0  0  0  0  0  0  0  0  0
   23.7182  -20.6391  -11.5897 C   0  0  0  0  0  0  0  0  0  0  0  0
   23.2935  -20.1325  -10.5332 O   0  0  0  0  0  0  0  0  0  0  0  0
   23.0405  -20.3998  -12.8028 N   0  0  0  0  0  0  0  0  0  0  0  0
   21.7784  -19.6623  -12.9090 C   0  0  1  0  0  0  0  0  0  0  0  0
   21.6604  -19.1945  -14.3076 C   0  0  0  0  0  0  0  0  0  0  0  0
   20.7724  -19.9550  -15.2253 C   0  0  0  0  0  0  0  0  0  0  0  0
   20.7916  -19.3270  -16.5701 C   0  0  0  0  0  0  0  0  0  0  0  0
   21.7631  -19.4398  -17.3703 O   0  0  0  0  0  0  0  0  0  0  0  0
   20.6568  -20.2804  -12.2414 C   0  0  0  0  0  0  0  0  0  0  0  0
   19.5654  -19.6134  -11.6978 O   0  0  0  0  0  0  0  0  0  0  0  0
   19.6887  -18.5856  -16.9591 O   0  0  0  0  0  0  0  0  0  0  0  0
   20.6489  -21.5403  -12.1208 O   0  0  0  0  0  0  0  0  0  0  0  0
  2  1  1  6
  2 10  1  0
  3  2  1  0
  4  3  1  0
  4  9  2  0
  5  4  1  0
  6  5  2  0
  6  7  1  0
  7  8  2  0
  8  9  1  0
 10 11  2  0
 12 13  1  0
 12 10  1  0
 13 14  1  0
 14 16  1  0
 15 14  2  0
 16 17  1  0
 17 22  1  0
 17 18  1  6
 19 18  1  0
 19 20  1  0
 20 21  2  0
 20 24  1  0
 22 25  2  0
 22 23  1  0
M  END
$$$$
