FGE.pdb
     RDKit          3D

 25 25  0  0  1  0  0  0  0  0999 V2000
   19.3862   -9.2094  -13.0789 N   0  0  0  0  0  0  0  0  0  0  0  0
   18.5760   -8.1076  -12.5928 C   0  0  1  0  0  0  0  0  0  0  0  0
   19.3877   -6.8452  -12.6828 C   0  0  0  0  0  0  0  0  0  0  0  0
   20.5397   -6.9973  -11.7171 C   0  0  0  0  0  0  0  0  0  0  0  0
   21.7782   -7.3947  -12.1607 C   0  0  0  0  0  0  0  0  0  0  0  0
   22.7982   -7.5250  -11.2615 C   0  0  0  0  0  0  0  0  0  0  0  0
   22.6154   -7.2661   -9.9097 C   0  0  0  0  0  0  0  0  0  0  0  0
   21.3757   -6.8667   -9.4549 C   0  0  0  0  0  0  0  0  0  0  0  0
   20.3666   -6.7433  -10.3791 C   0  0  0  0  0  0  0  0  0  0  0  0
   17.3113   -8.0872  -13.3281 C   0  0  0  0  0  0  0  0  0  0  0  0
   17.1810   -8.7111  -14.4122 O   0  0  0  0  0  0  0  0  0  0  0  0
   16.1581   -7.3619  -12.8613 N   0  0  0  0  0  0  0  0  0  0  0  0
   14.9182   -7.2880  -13.5653 C   0  0  0  0  0  0  0  0  0  0  0  0
   13.9863   -8.4091  -13.2872 C   0  0  0  0  0  0  0  0  0  0  0  0
   14.3602   -9.3969  -12.6256 O   0  0  0  0  0  0  0  0  0  0  0  0
   12.6654   -8.3538  -13.7773 N   0  0  0  0  0  0  0  0  0  0  0  0
   11.6379   -9.3585  -13.4892 C   0  0  1  0  0  0  0  0  0  0  0  0
   11.5865   -9.5238  -12.0199 C   0  0  0  0  0  0  0  0  0  0  0  0
   10.9217   -8.4615  -11.2209 C   0  0  0  0  0  0  0  0  0  0  0  0
   10.8134   -8.8974   -9.8060 C   0  0  0  0  0  0  0  0  0  0  0  0
   11.2546  -10.0059   -9.3900 O   0  0  0  0  0  0  0  0  0  0  0  0
   10.4234   -9.2216  -14.2585 C   0  0  0  0  0  0  0  0  0  0  0  0
   10.0700   -8.1223  -15.0320 O   0  0  0  0  0  0  0  0  0  0  0  0
   10.2000   -8.0425   -8.9058 O   0  0  0  0  0  0  0  0  0  0  0  0
    9.5867  -10.1710  -14.2352 O   0  0  0  0  0  0  0  0  0  0  0  0
  2  1  1  6
  2 10  1  0
  3  2  1  0
  4  3  1  0
  4  9  2  0
  5  4  1  0
  6  5  2  0
  6  7  1  0
  7  8  2  0
  8  9  1  0
 10 11  2  0
 12 13  1  0
 12 10  1  0
 13 14  1  0
 14 16  1  0
 15 14  2  0
 16 17  1  0
 17 22  1  0
 17 18  1  1
 19 18  1  0
 19 20  1  0
 20 21  2  0
 20 24  1  0
 22 25  2  0
 22 23  1  0
M  END
$$$$
