FGE.pdb
     RDKit          3D

 25 25  0  0  1  0  0  0  0  0999 V2000
   25.4059  -10.2796  -17.1527 N   0  0  0  0  0  0  0  0  0  0  0  0
   25.2188  -10.7541  -15.7938 C   0  0  1  0  0  0  0  0  0  0  0  0
   26.5125  -10.5803  -15.0477 C   0  0  0  0  0  0  0  0  0  0  0  0
   27.5493  -11.4051  -15.7740 C   0  0  0  0  0  0  0  0  0  0  0  0
   27.6136  -12.7661  -15.5944 C   0  0  0  0  0  0  0  0  0  0  0  0
   28.5644  -13.4827  -16.2639 C   0  0  0  0  0  0  0  0  0  0  0  0
   29.4683  -12.8706  -17.1220 C   0  0  0  0  0  0  0  0  0  0  0  0
   29.4116  -11.5050  -17.3087 C   0  0  0  0  0  0  0  0  0  0  0  0
   28.4464  -10.8070  -16.6237 C   0  0  0  0  0  0  0  0  0  0  0  0
   24.0659  -10.0711  -15.2066 C   0  0  0  0  0  0  0  0  0  0  0  0
   23.6524  -10.3678  -14.0566 O   0  0  0  0  0  0  0  0  0  0  0  0
   23.3465   -9.0343  -15.9006 N   0  0  0  0  0  0  0  0  0  0  0  0
   22.2270   -8.3340  -15.3579 C   0  0  0  0  0  0  0  0  0  0  0  0
   22.5210   -6.9437  -14.9299 C   0  0  0  0  0  0  0  0  0  0  0  0
   23.6913   -6.5154  -14.9220 O   0  0  0  0  0  0  0  0  0  0  0  0
   21.4641   -6.1009  -14.5286 N   0  0  0  0  0  0  0  0  0  0  0  0
   21.5773   -4.6459  -14.3941 C   0  0  1  0  0  0  0  0  0  0  0  0
   22.2651   -4.1460  -15.6048 C   0  0  0  0  0  0  0  0  0  0  0  0
   21.4673   -3.9995  -16.8502 C   0  0  0  0  0  0  0  0  0  0  0  0
   22.3066   -3.3850  -17.9093 C   0  0  0  0  0  0  0  0  0  0  0  0
   22.6291   -2.1632  -17.9117 O   0  0  0  0  0  0  0  0  0  0  0  0
   20.3918   -3.9889  -13.8955 C   0  0  0  0  0  0  0  0  0  0  0  0
   20.3489   -2.7403  -13.2866 O   0  0  0  0  0  0  0  0  0  0  0  0
   22.7544   -4.1958  -18.9385 O   0  0  0  0  0  0  0  0  0  0  0  0
   19.2820   -4.5878  -14.0039 O   0  0  0  0  0  0  0  0  0  0  0  0
  2  1  1  6
  2 10  1  0
  3  2  1  0
  4  3  1  0
  4  9  2  0
  5  4  1  0
  6  5  2  0
  6  7  1  0
  7  8  2  0
  8  9  1  0
 10 11  2  0
 12 13  1  0
 12 10  1  0
 13 14  1  0
 14 16  1  0
 15 14  2  0
 16 17  1  0
 17 22  1  0
 17 18  1  6
 19 18  1  0
 19 20  1  0
 20 21  2  0
 20 24  1  0
 22 25  2  0
 22 23  1  0
M  END
$$$$
