CVL.pdb
     RDKit          3D

 22 21  0  0  1  0  0  0  0  0999 V2000
   16.0740  -11.4836  -16.1855 N   0  0  0  0  0  0  0  0  0  0  0  0
   16.4992  -10.1168  -16.2018 C   0  0  1  0  0  0  0  0  0  0  0  0
   15.5166   -9.1980  -15.5419 C   0  0  0  0  0  0  0  0  0  0  0  0
   14.0761   -8.8559  -16.5516 S   0  0  0  0  0  0  0  0  0  0  0  0
   17.8082   -9.9400  -15.4765 C   0  0  0  0  0  0  0  0  0  0  0  0
   18.0414  -10.6190  -14.4439 O   0  0  0  0  0  0  0  0  0  0  0  0
   20.8383   -8.1528  -17.4704 C   0  0  0  0  0  0  0  0  0  0  0  0
   21.1303   -9.0343  -16.2781 C   0  0  1  0  0  0  0  0  0  0  0  0
   22.5269   -8.7921  -15.8186 C   0  0  0  0  0  0  0  0  0  0  0  0
   20.0686   -8.8563  -15.2236 C   0  0  2  0  0  0  0  0  0  0  0  0
   18.7861   -9.0177  -15.9394 N   0  0  0  0  0  0  0  0  0  0  0  0
   20.0930   -7.4224  -14.7572 C   0  0  0  0  0  0  0  0  0  0  0  0
   19.6732   -6.5045  -15.5155 O   0  0  0  0  0  0  0  0  0  0  0  0
   17.6987   -5.2247  -12.1371 C   0  0  0  0  0  0  0  0  0  0  0  0
   18.7364   -5.9712  -11.3591 C   0  0  2  0  0  0  0  0  0  0  0  0
   18.4103   -6.0688   -9.9186 C   0  0  0  0  0  0  0  0  0  0  0  0
   20.1401   -5.6371  -11.6410 C   0  0  0  0  0  0  0  0  0  0  0  0
   20.5134   -5.6397  -13.0799 C   0  0  2  0  0  0  0  0  0  0  0  0
   20.5744   -7.0670  -13.4832 N   0  0  0  0  0  0  0  0  0  0  0  0
   21.7817   -5.0435  -13.4582 C   0  0  0  0  0  0  0  0  0  0  0  0
   22.8152   -5.7822  -13.6664 O   0  0  0  0  0  0  0  0  0  0  0  0
   22.0467   -3.6870  -13.6455 O   0  0  0  0  0  0  0  0  0  0  0  0
  2  1  1  1
  2  3  1  0
  4  3  1  0
  5  2  1  0
  5  6  2  0
  8  7  1  6
  8 10  1  0
  9  8  1  0
 10 11  1  6
 10 12  1  0
 11  5  1  0
 12 19  1  0
 13 12  2  0
 15 16  1  1
 15 14  1  0
 17 15  1  0
 18 17  1  1
 19 18  1  0
 20 22  1  0
 20 18  1  0
 21 20  2  0
M  END
$$$$
