CVL.pdb
     RDKit          3D

 22 21  0  0  1  0  0  0  0  0999 V2000
   26.7915  -21.2292   -9.5237 N   0  0  0  0  0  0  0  0  0  0  0  0
   25.5406  -21.0199  -10.1875 C   0  0  1  0  0  0  0  0  0  0  0  0
   24.7047  -19.9666   -9.5265 C   0  0  0  0  0  0  0  0  0  0  0  0
   23.8492  -20.5529   -8.0651 S   0  0  0  0  0  0  0  0  0  0  0  0
   25.7428  -20.5771  -11.6137 C   0  0  0  0  0  0  0  0  0  0  0  0
   26.6140  -19.7087  -11.8755 O   0  0  0  0  0  0  0  0  0  0  0  0
   24.5086  -23.0605  -14.5265 C   0  0  0  0  0  0  0  0  0  0  0  0
   25.5662  -22.0118  -14.7825 C   0  0  1  0  0  0  0  0  0  0  0  0
   25.7852  -21.8833  -16.2507 C   0  0  0  0  0  0  0  0  0  0  0  0
   25.2143  -20.7301  -14.0723 C   0  0  2  0  0  0  0  0  0  0  0  0
   24.9649  -21.1243  -12.6704 N   0  0  0  0  0  0  0  0  0  0  0  0
   23.8875  -20.2413  -14.5965 C   0  0  0  0  0  0  0  0  0  0  0  0
   22.8178  -20.8006  -14.2271 O   0  0  0  0  0  0  0  0  0  0  0  0
   21.1408  -16.7344  -14.1977 C   0  0  0  0  0  0  0  0  0  0  0  0
   22.3359  -16.4274  -15.0444 C   0  0  2  0  0  0  0  0  0  0  0  0
   22.4937  -14.9791  -15.3067 C   0  0  0  0  0  0  0  0  0  0  0  0
   22.5486  -17.2826  -16.2213 C   0  0  0  0  0  0  0  0  0  0  0  0
   22.4549  -18.7440  -15.9654 C   0  0  2  0  0  0  0  0  0  0  0  0
   23.7998  -19.1633  -15.4974 N   0  0  0  0  0  0  0  0  0  0  0  0
   22.1092  -19.6117  -17.0765 C   0  0  0  0  0  0  0  0  0  0  0  0
   23.0251  -20.0782  -17.8514 O   0  0  0  0  0  0  0  0  0  0  0  0
   20.8324  -20.0421  -17.4372 O   0  0  0  0  0  0  0  0  0  0  0  0
  2  1  1  1
  2  3  1  0
  4  3  1  0
  5  2  1  0
  5  6  2  0
  8  7  1  6
  8 10  1  0
  9  8  1  0
 10 11  1  1
 10 12  1  0
 11  5  1  0
 12 19  1  0
 13 12  2  0
 15 16  1  6
 15 14  1  0
 17 15  1  0
 18 17  1  6
 19 18  1  0
 20 22  1  0
 20 18  1  0
 21 20  2  0
M  END
$$$$
