CVL.pdb
     RDKit          3D

 22 21  0  0  1  0  0  0  0  0999 V2000
   27.9407  -20.6427  -16.1555 N   0  0  0  0  0  0  0  0  0  0  0  0
   28.1520  -21.0418  -14.7971 C   0  0  1  0  0  0  0  0  0  0  0  0
   29.5740  -20.8673  -14.3581 C   0  0  0  0  0  0  0  0  0  0  0  0
   29.9306  -21.6433  -12.7825 S   0  0  0  0  0  0  0  0  0  0  0  0
   27.3061  -20.2320  -13.8486 C   0  0  0  0  0  0  0  0  0  0  0  0
   27.1705  -18.9964  -14.0396 O   0  0  0  0  0  0  0  0  0  0  0  0
   24.3337  -19.4743  -13.7084 C   0  0  0  0  0  0  0  0  0  0  0  0
   24.4268  -20.1428  -12.3563 C   0  0  1  0  0  0  0  0  0  0  0  0
   23.8882  -21.5285  -12.4554 C   0  0  0  0  0  0  0  0  0  0  0  0
   25.8298  -20.0374  -11.8164 C   0  0  2  0  0  0  0  0  0  0  0  0
   26.6575  -20.8408  -12.7397 N   0  0  0  0  0  0  0  0  0  0  0  0
   25.8881  -20.7566  -10.4921 C   0  0  0  0  0  0  0  0  0  0  0  0
   25.9603  -22.0166  -10.4604 O   0  0  0  0  0  0  0  0  0  0  0  0
   28.7931  -20.7740   -7.4294 C   0  0  0  0  0  0  0  0  0  0  0  0
   27.8439  -19.6377   -7.2115 C   0  0  2  0  0  0  0  0  0  0  0  0
   28.3832  -18.6110   -6.2917 C   0  0  0  0  0  0  0  0  0  0  0  0
   26.4374  -19.9898   -6.9686 C   0  0  0  0  0  0  0  0  0  0  0  0
   25.8108  -20.8441   -8.0113 C   0  0  2  0  0  0  0  0  0  0  0  0
   25.8663  -20.0589   -9.2699 N   0  0  0  0  0  0  0  0  0  0  0  0
   24.4271  -21.2429   -7.8277 C   0  0  0  0  0  0  0  0  0  0  0  0
   23.4925  -20.7034   -8.5295 O   0  0  0  0  0  0  0  0  0  0  0  0
   23.9428  -22.2015   -6.9377 O   0  0  0  0  0  0  0  0  0  0  0  0
  2  1  1  6
  2  3  1  0
  4  3  1  0
  5  2  1  0
  5  6  2  0
  8  7  1  6
  8 10  1  0
  9  8  1  0
 10 11  1  6
 10 12  1  0
 11  5  1  0
 12 19  1  0
 13 12  2  0
 15 16  1  1
 15 14  1  0
 17 15  1  0
 18 17  1  1
 19 18  1  0
 20 22  1  0
 20 18  1  0
 21 20  2  0
M  END
$$$$
