CVL.pdb
     RDKit          3D

 22 21  0  0  1  0  0  0  0  0999 V2000
   17.7116  -12.4399  -16.9584 N   0  0  0  0  0  0  0  0  0  0  0  0
   18.4528  -11.2577  -17.2777 C   0  0  1  0  0  0  0  0  0  0  0  0
   17.5745  -10.0586  -17.4676 C   0  0  0  0  0  0  0  0  0  0  0  0
   16.4026  -10.2429  -18.8109 S   0  0  0  0  0  0  0  0  0  0  0  0
   19.4278  -10.9081  -16.1831 C   0  0  0  0  0  0  0  0  0  0  0  0
   19.0555  -10.9557  -14.9828 O   0  0  0  0  0  0  0  0  0  0  0  0
   24.0945  -10.3787  -14.8337 C   0  0  0  0  0  0  0  0  0  0  0  0
   22.9654  -10.8969  -15.6943 C   0  0  1  0  0  0  0  0  0  0  0  0
   22.8676  -12.3755  -15.5380 C   0  0  0  0  0  0  0  0  0  0  0  0
   21.6968  -10.1365  -15.4060 C   0  0  2  0  0  0  0  0  0  0  0  0
   20.7635  -10.5248  -16.4836 N   0  0  0  0  0  0  0  0  0  0  0  0
   21.9626   -8.6665  -15.6123 C   0  0  0  0  0  0  0  0  0  0  0  0
   22.2670   -8.2346  -16.7588 O   0  0  0  0  0  0  0  0  0  0  0  0
   21.8237   -4.0720  -16.8285 C   0  0  0  0  0  0  0  0  0  0  0  0
   20.8718   -5.2266  -16.8421 C   0  0  2  0  0  0  0  0  0  0  0  0
   19.6044   -4.9142  -17.5399 C   0  0  0  0  0  0  0  0  0  0  0  0
   20.7027   -5.9577  -15.5778 C   0  0  0  0  0  0  0  0  0  0  0  0
   21.9654   -6.2964  -14.8701 C   0  0  2  0  0  0  0  0  0  0  0  0
   21.8796   -7.7439  -14.5524 N   0  0  0  0  0  0  0  0  0  0  0  0
   22.2556   -5.6110  -13.6239 C   0  0  0  0  0  0  0  0  0  0  0  0
   21.8070   -6.0672  -12.5069 O   0  0  0  0  0  0  0  0  0  0  0  0
   23.0118   -4.4501  -13.4629 O   0  0  0  0  0  0  0  0  0  0  0  0
  2  1  1  1
  2  3  1  0
  4  3  1  0
  5  2  1  0
  5  6  2  0
  8  7  1  1
  8 10  1  0
  9  8  1  0
 10 11  1  6
 10 12  1  0
 11  5  1  0
 12 19  1  0
 13 12  2  0
 15 16  1  1
 15 14  1  0
 17 15  1  0
 18 17  1  1
 19 18  1  0
 20 22  1  0
 20 18  1  0
 21 20  2  0
M  END
$$$$
