CVL.pdb
     RDKit          3D

 22 21  0  0  1  0  0  0  0  0999 V2000
   16.4856  -15.3561  -16.2915 N   0  0  0  0  0  0  0  0  0  0  0  0
   16.5249  -14.0392  -16.8513 C   0  0  1  0  0  0  0  0  0  0  0  0
   15.1596  -13.4548  -17.0502 C   0  0  0  0  0  0  0  0  0  0  0  0
   14.1232  -14.4277  -18.1416 S   0  0  0  0  0  0  0  0  0  0  0  0
   17.2759  -13.0850  -15.9588 C   0  0  0  0  0  0  0  0  0  0  0  0
   17.2018  -13.2156  -14.7102 O   0  0  0  0  0  0  0  0  0  0  0  0
   20.8595  -12.4355  -15.8095 C   0  0  0  0  0  0  0  0  0  0  0  0
   20.2093  -11.1050  -16.1107 C   0  0  1  0  0  0  0  0  0  0  0  0
   20.3832  -10.7895  -17.5565 C   0  0  0  0  0  0  0  0  0  0  0  0
   18.7847  -11.0961  -15.6195 C   0  0  2  0  0  0  0  0  0  0  0  0
   18.0680  -12.0378  -16.5040 N   0  0  0  0  0  0  0  0  0  0  0  0
   18.1886   -9.7406  -15.9051 C   0  0  0  0  0  0  0  0  0  0  0  0
   18.0023   -9.3713  -17.0979 O   0  0  0  0  0  0  0  0  0  0  0  0
   14.7835   -7.5594  -16.7539 C   0  0  0  0  0  0  0  0  0  0  0  0
   14.9480   -7.9085  -15.3080 C   0  0  2  0  0  0  0  0  0  0  0  0
   13.6689   -7.8788  -14.5638 C   0  0  0  0  0  0  0  0  0  0  0  0
   16.0744   -7.2811  -14.6015 C   0  0  0  0  0  0  0  0  0  0  0  0
   17.4059   -7.4819  -15.2314 C   0  0  2  0  0  0  0  0  0  0  0  0
   17.8250   -8.8593  -14.8696 N   0  0  0  0  0  0  0  0  0  0  0  0
   18.4884   -6.5984  -14.8381 C   0  0  0  0  0  0  0  0  0  0  0  0
   18.4666   -5.3529  -15.1630 O   0  0  0  0  0  0  0  0  0  0  0  0
   19.6217   -6.9394  -14.1000 O   0  0  0  0  0  0  0  0  0  0  0  0
  2  1  1  1
  2  3  1  0
  4  3  1  0
  5  2  1  0
  5  6  2  0
  8  7  1  6
  8 10  1  0
  9  8  1  0
 10 11  1  6
 10 12  1  0
 11  5  1  0
 12 19  1  0
 13 12  2  0
 15 16  1  1
 15 14  1  0
 17 15  1  0
 18 17  1  1
 19 18  1  0
 20 22  1  0
 20 18  1  0
 21 20  2  0
M  END
$$$$
