CVL.pdb
     RDKit          3D

 22 21  0  0  1  0  0  0  0  0999 V2000
   18.4835  -19.1514  -15.7341 N   0  0  0  0  0  0  0  0  0  0  0  0
   19.3072  -18.8880  -14.5934 C   0  0  1  0  0  0  0  0  0  0  0  0
   18.5122  -18.5031  -13.3830 C   0  0  0  0  0  0  0  0  0  0  0  0
   19.5304  -18.0680  -11.9739 S   0  0  0  0  0  0  0  0  0  0  0  0
   20.1173  -20.0992  -14.2091 C   0  0  0  0  0  0  0  0  0  0  0  0
   19.5780  -21.0200  -13.5435 O   0  0  0  0  0  0  0  0  0  0  0  0
   22.7462  -21.5061  -16.6079 C   0  0  0  0  0  0  0  0  0  0  0  0
   22.3054  -22.2894  -15.3930 C   0  0  1  0  0  0  0  0  0  0  0  0
   23.1499  -23.5101  -15.2628 C   0  0  0  0  0  0  0  0  0  0  0  0
   22.2760  -21.3979  -14.1784 C   0  0  2  0  0  0  0  0  0  0  0  0
   21.4827  -20.2200  -14.5861 N   0  0  0  0  0  0  0  0  0  0  0  0
   23.6705  -20.8797  -13.9312 C   0  0  0  0  0  0  0  0  0  0  0  0
   24.0775  -19.8490  -14.5359 O   0  0  0  0  0  0  0  0  0  0  0  0
   24.9567  -19.2794  -10.5442 C   0  0  0  0  0  0  0  0  0  0  0  0
   25.3581  -20.7151  -10.4136 C   0  0  2  0  0  0  0  0  0  0  0  0
   25.7131  -21.0852   -9.0251 C   0  0  0  0  0  0  0  0  0  0  0  0
   26.2779  -21.2389  -11.4340 C   0  0  0  0  0  0  0  0  0  0  0  0
   25.9006  -20.9364  -12.8397 C   0  0  2  0  0  0  0  0  0  0  0  0
   24.5476  -21.5158  -13.0327 N   0  0  0  0  0  0  0  0  0  0  0  0
   26.7376  -21.4654  -13.9011 C   0  0  0  0  0  0  0  0  0  0  0  0
   26.4932  -22.6214  -14.4120 O   0  0  0  0  0  0  0  0  0  0  0  0
   27.8413  -20.8444  -14.4856 O   0  0  0  0  0  0  0  0  0  0  0  0
  2  1  1  6
  2  3  1  0
  4  3  1  0
  5  2  1  0
  5  6  2  0
  8  7  1  6
  8 10  1  0
  9  8  1  0
 10 11  1  6
 10 12  1  0
 11  5  1  0
 12 19  1  0
 13 12  2  0
 15 16  1  1
 15 14  1  0
 17 15  1  0
 18 17  1  1
 19 18  1  0
 20 22  1  0
 20 18  1  0
 21 20  2  0
M  END
$$$$
