CVL.pdb
     RDKit          3D

 22 21  0  0  1  0  0  0  0  0999 V2000
   18.0201  -12.3764  -15.2192 N   0  0  0  0  0  0  0  0  0  0  0  0
   17.7418  -11.1434  -15.8911 C   0  0  1  0  0  0  0  0  0  0  0  0
   16.2739  -10.8623  -15.9985 C   0  0  0  0  0  0  0  0  0  0  0  0
   15.4021  -12.0300  -17.0416 S   0  0  0  0  0  0  0  0  0  0  0  0
   18.3525   -9.9723  -15.1655 C   0  0  0  0  0  0  0  0  0  0  0  0
   18.2217   -9.8793  -13.9182 O   0  0  0  0  0  0  0  0  0  0  0  0
   21.4954   -9.1701  -14.2337 C   0  0  0  0  0  0  0  0  0  0  0  0
   21.1313   -8.0311  -15.1579 C   0  0  1  0  0  0  0  0  0  0  0  0
   21.7284   -8.2782  -16.5005 C   0  0  0  0  0  0  0  0  0  0  0  0
   19.6411   -7.8074  -15.1503 C   0  0  2  0  0  0  0  0  0  0  0  0
   19.0752   -8.9689  -15.8670 N   0  0  0  0  0  0  0  0  0  0  0  0
   19.3326   -6.6104  -16.0141 C   0  0  0  0  0  0  0  0  0  0  0  0
   19.4352   -6.6943  -17.2696 O   0  0  0  0  0  0  0  0  0  0  0  0
   16.5029   -4.9462  -18.4705 C   0  0  0  0  0  0  0  0  0  0  0  0
   16.2680   -4.8887  -16.9937 C   0  0  2  0  0  0  0  0  0  0  0  0
   14.8335   -4.7742  -16.6472 C   0  0  0  0  0  0  0  0  0  0  0  0
   17.1507   -4.0045  -16.2188 C   0  0  0  0  0  0  0  0  0  0  0  0
   18.6054   -4.2642  -16.3808 C   0  0  2  0  0  0  0  0  0  0  0  0
   18.9254   -5.3828  -15.4588 N   0  0  0  0  0  0  0  0  0  0  0  0
   19.5303   -3.1891  -16.0712 C   0  0  0  0  0  0  0  0  0  0  0  0
   20.1979   -3.1975  -14.9706 O   0  0  0  0  0  0  0  0  0  0  0  0
   19.8171   -2.0770  -16.8627 O   0  0  0  0  0  0  0  0  0  0  0  0
  2  1  1  1
  2  3  1  0
  4  3  1  0
  5  2  1  0
  5  6  2  0
  8  7  1  1
  8 10  1  0
  9  8  1  0
 10 11  1  6
 10 12  1  0
 11  5  1  0
 12 19  1  0
 13 12  2  0
 15 16  1  6
 15 14  1  0
 17 15  1  0
 18 17  1  1
 19 18  1  0
 20 22  1  0
 20 18  1  0
 21 20  2  0
M  END
$$$$
