CVL.pdb
     RDKit          3D

 22 21  0  0  1  0  0  0  0  0999 V2000
   14.5807  -13.0144  -16.7878 N   0  0  0  0  0  0  0  0  0  0  0  0
   15.2906  -12.1100  -15.9350 C   0  0  1  0  0  0  0  0  0  0  0  0
   15.8192  -12.7746  -14.7004 C   0  0  0  0  0  0  0  0  0  0  0  0
   14.5411  -13.1872  -13.5138 S   0  0  0  0  0  0  0  0  0  0  0  0
   16.4774  -11.5064  -16.6407 C   0  0  0  0  0  0  0  0  0  0  0  0
   17.1923  -12.2295  -17.3807 O   0  0  0  0  0  0  0  0  0  0  0  0
   16.2377   -7.7310  -17.4259 C   0  0  0  0  0  0  0  0  0  0  0  0
   17.2867   -8.5312  -18.1629 C   0  0  1  0  0  0  0  0  0  0  0  0
   18.2322   -7.5978  -18.8373 C   0  0  0  0  0  0  0  0  0  0  0  0
   17.9262   -9.5333  -17.2369 C   0  0  2  0  0  0  0  0  0  0  0  0
   16.8040  -10.1315  -16.4848 N   0  0  0  0  0  0  0  0  0  0  0  0
   18.7446   -8.7857  -16.2143 C   0  0  0  0  0  0  0  0  0  0  0  0
   18.1752   -8.2271  -15.2358 O   0  0  0  0  0  0  0  0  0  0  0  0
   21.5511   -9.7872  -12.9336 C   0  0  0  0  0  0  0  0  0  0  0  0
   22.2240   -9.9094  -14.2647 C   0  0  2  0  0  0  0  0  0  0  0  0
   23.5441  -10.5734  -14.1788 C   0  0  0  0  0  0  0  0  0  0  0  0
   22.1993   -8.7201  -15.1286 C   0  0  0  0  0  0  0  0  0  0  0  0
   20.8867   -8.0272  -15.2123 C   0  0  2  0  0  0  0  0  0  0  0  0
   20.1453   -8.6895  -16.3147 N   0  0  0  0  0  0  0  0  0  0  0  0
   20.8819   -6.6045  -15.5004 C   0  0  0  0  0  0  0  0  0  0  0  0
   20.8728   -6.1837  -16.7170 O   0  0  0  0  0  0  0  0  0  0  0  0
   20.8787   -5.5623  -14.5734 O   0  0  0  0  0  0  0  0  0  0  0  0
  2  1  1  6
  2  3  1  0
  4  3  1  0
  5  2  1  0
  5  6  2  0
  8  7  1  1
  8 10  1  0
  9  8  1  0
 10 11  1  1
 10 12  1  0
 11  5  1  0
 12 19  1  0
 13 12  2  0
 15 16  1  1
 15 14  1  0
 17 15  1  0
 18 17  1  6
 19 18  1  0
 20 22  1  0
 20 18  1  0
 21 20  2  0
M  END
$$$$
