CVL.pdb
     RDKit          3D

 22 21  0  0  1  0  0  0  0  0999 V2000
   27.1256  -20.1844  -15.3134 N   0  0  0  0  0  0  0  0  0  0  0  0
   27.4817  -20.7962  -14.0691 C   0  0  1  0  0  0  0  0  0  0  0  0
   28.9613  -20.8064  -13.8328 C   0  0  0  0  0  0  0  0  0  0  0  0
   29.4213  -21.4932  -12.2427 S   0  0  0  0  0  0  0  0  0  0  0  0
   26.8644  -20.0688  -12.9026 C   0  0  0  0  0  0  0  0  0  0  0  0
   26.9286  -18.8139  -12.8504 O   0  0  0  0  0  0  0  0  0  0  0  0
   23.4804  -19.9752  -12.0919 C   0  0  0  0  0  0  0  0  0  0  0  0
   24.1106  -20.4611  -10.8071 C   0  0  1  0  0  0  0  0  0  0  0  0
   23.8587  -21.9221  -10.6584 C   0  0  0  0  0  0  0  0  0  0  0  0
   25.5594  -20.0511  -10.7476 C   0  0  2  0  0  0  0  0  0  0  0  0
   26.2095  -20.7769  -11.8583 N   0  0  0  0  0  0  0  0  0  0  0  0
   26.1651  -20.6155   -9.4871 C   0  0  0  0  0  0  0  0  0  0  0  0
   26.3221  -21.8622   -9.3653 O   0  0  0  0  0  0  0  0  0  0  0  0
   28.3644  -18.6369   -4.0853 C   0  0  0  0  0  0  0  0  0  0  0  0
   28.2854  -19.7242   -5.1105 C   0  0  2  0  0  0  0  0  0  0  0  0
   29.4922  -20.5811   -5.1289 C   0  0  0  0  0  0  0  0  0  0  0  0
   27.7941  -19.3414   -6.4423 C   0  0  0  0  0  0  0  0  0  0  0  0
   27.1114  -20.4237   -7.1989 C   0  0  2  0  0  0  0  0  0  0  0  0
   26.5696  -19.7854   -8.4248 N   0  0  0  0  0  0  0  0  0  0  0  0
   26.0036  -21.1104   -6.5602 C   0  0  0  0  0  0  0  0  0  0  0  0
   26.1846  -22.2456   -5.9808 O   0  0  0  0  0  0  0  0  0  0  0  0
   24.6818  -20.6725   -6.4786 O   0  0  0  0  0  0  0  0  0  0  0  0
  2  1  1  6
  2  3  1  0
  4  3  1  0
  5  2  1  0
  5  6  2  0
  8  7  1  6
  8 10  1  0
  9  8  1  0
 10 11  1  6
 10 12  1  0
 11  5  1  0
 12 19  1  0
 13 12  2  0
 15 16  1  6
 15 14  1  0
 17 15  1  0
 18 17  1  1
 19 18  1  0
 20 22  1  0
 20 18  1  0
 21 20  2  0
M  END
$$$$
