CVL.pdb
     RDKit          3D

 22 21  0  0  1  0  0  0  0  0999 V2000
   24.5336  -16.5760  -15.6850 N   0  0  0  0  0  0  0  0  0  0  0  0
   24.1017  -15.4315  -16.4285 C   0  0  1  0  0  0  0  0  0  0  0  0
   22.6691  -15.5276  -16.8568 C   0  0  0  0  0  0  0  0  0  0  0  0
   22.3172  -16.9870  -17.8355 S   0  0  0  0  0  0  0  0  0  0  0  0
   24.2241  -14.1693  -15.6144 C   0  0  0  0  0  0  0  0  0  0  0  0
   23.9816  -14.2013  -14.3808 O   0  0  0  0  0  0  0  0  0  0  0  0
   26.2148  -11.0769  -17.2847 C   0  0  0  0  0  0  0  0  0  0  0  0
   26.0612  -11.1205  -15.7819 C   0  0  1  0  0  0  0  0  0  0  0  0
   26.3370   -9.7680  -15.2207 C   0  0  0  0  0  0  0  0  0  0  0  0
   24.7247  -11.7086  -15.4096 C   0  0  2  0  0  0  0  0  0  0  0  0
   24.6094  -12.9406  -16.2170 N   0  0  0  0  0  0  0  0  0  0  0  0
   23.6403  -10.7910  -15.9160 C   0  0  0  0  0  0  0  0  0  0  0  0
   23.3646  -10.7587  -17.1475 O   0  0  0  0  0  0  0  0  0  0  0  0
   19.2164   -7.6873  -15.4653 C   0  0  0  0  0  0  0  0  0  0  0  0
   19.4178   -9.0629  -16.0189 C   0  0  2  0  0  0  0  0  0  0  0  0
   18.1697   -9.8584  -16.0412 C   0  0  0  0  0  0  0  0  0  0  0  0
   20.5973   -9.8001  -15.5425 C   0  0  0  0  0  0  0  0  0  0  0  0
   21.8832   -9.0593  -15.6303 C   0  0  2  0  0  0  0  0  0  0  0  0
   22.9118   -9.9568  -15.0473 N   0  0  0  0  0  0  0  0  0  0  0  0
   21.9904   -7.7910  -14.9324 C   0  0  0  0  0  0  0  0  0  0  0  0
   21.8651   -6.6805  -15.5713 O   0  0  0  0  0  0  0  0  0  0  0  0
   22.2197   -7.6017  -13.5697 O   0  0  0  0  0  0  0  0  0  0  0  0
  2  1  1  1
  2  3  1  0
  4  3  1  0
  5  2  1  0
  5  6  2  0
  8  7  1  6
  8 10  1  0
  9  8  1  0
 10 11  1  6
 10 12  1  0
 11  5  1  0
 12 19  1  0
 13 12  2  0
 15 16  1  1
 15 14  1  0
 17 15  1  0
 18 17  1  1
 19 18  1  0
 20 22  1  0
 20 18  1  0
 21 20  2  0
M  END
$$$$
