CVL.pdb
     RDKit          3D

 22 21  0  0  1  0  0  0  0  0999 V2000
   18.3693  -14.6300  -16.2447 N   0  0  0  0  0  0  0  0  0  0  0  0
   18.6672  -13.3718  -16.8591 C   0  0  1  0  0  0  0  0  0  0  0  0
   17.4390  -12.6512  -17.3253 C   0  0  0  0  0  0  0  0  0  0  0  0
   16.4865  -13.5771  -18.5283 S   0  0  0  0  0  0  0  0  0  0  0  0
   19.3722  -12.4461  -15.9015 C   0  0  0  0  0  0  0  0  0  0  0  0
   18.8785  -12.2380  -14.7638 O   0  0  0  0  0  0  0  0  0  0  0  0
   23.5156  -10.0514  -14.7873 C   0  0  0  0  0  0  0  0  0  0  0  0
   22.7081  -11.1567  -15.4276 C   0  0  1  0  0  0  0  0  0  0  0  0
   23.1155  -12.4649  -14.8421 C   0  0  0  0  0  0  0  0  0  0  0  0
   21.2360  -10.8463  -15.3411 C   0  0  2  0  0  0  0  0  0  0  0  0
   20.5876  -11.8026  -16.2619 N   0  0  0  0  0  0  0  0  0  0  0  0
   20.9983   -9.4834  -15.9412 C   0  0  0  0  0  0  0  0  0  0  0  0
   20.8695   -9.3573  -17.1907 O   0  0  0  0  0  0  0  0  0  0  0  0
   17.0354   -5.9910  -16.8055 C   0  0  0  0  0  0  0  0  0  0  0  0
   18.5128   -6.1416  -16.9901 C   0  0  2  0  0  0  0  0  0  0  0  0
   18.9402   -5.9137  -18.3888 C   0  0  0  0  0  0  0  0  0  0  0  0
   19.1436   -7.3027  -16.3456 C   0  0  0  0  0  0  0  0  0  0  0  0
   20.4981   -7.0557  -15.7850 C   0  0  2  0  0  0  0  0  0  0  0  0
   20.9118   -8.3280  -15.1418 N   0  0  0  0  0  0  0  0  0  0  0  0
   20.6443   -6.0142  -14.7845 C   0  0  0  0  0  0  0  0  0  0  0  0
   20.4084   -6.2619  -13.5435 O   0  0  0  0  0  0  0  0  0  0  0  0
   21.0391   -4.6941  -15.0013 O   0  0  0  0  0  0  0  0  0  0  0  0
  2  1  1  1
  2  3  1  0
  4  3  1  0
  5  2  1  0
  5  6  2  0
  8  7  1  1
  8 10  1  0
  9  8  1  0
 10 11  1  6
 10 12  1  0
 11  5  1  0
 12 19  1  0
 13 12  2  0
 15 16  1  6
 15 14  1  0
 17 15  1  0
 18 17  1  1
 19 18  1  0
 20 22  1  0
 20 18  1  0
 21 20  2  0
M  END
$$$$
