CVL.pdb
     RDKit          3D

 22 21  0  0  1  0  0  0  0  0999 V2000
   26.2071  -18.1553  -16.3235 N   0  0  0  0  0  0  0  0  0  0  0  0
   26.8626  -18.8091  -15.2317 C   0  0  1  0  0  0  0  0  0  0  0  0
   28.2103  -18.2258  -14.9340 C   0  0  0  0  0  0  0  0  0  0  0  0
   29.4013  -18.4837  -16.2480 S   0  0  0  0  0  0  0  0  0  0  0  0
   26.0569  -18.7011  -13.9629 C   0  0  0  0  0  0  0  0  0  0  0  0
   25.6678  -17.5716  -13.5699 O   0  0  0  0  0  0  0  0  0  0  0  0
   22.7028  -20.7467  -11.2151 C   0  0  0  0  0  0  0  0  0  0  0  0
   23.6338  -20.6173  -12.3984 C   0  0  1  0  0  0  0  0  0  0  0  0
   22.8577  -20.1629  -13.5865 C   0  0  0  0  0  0  0  0  0  0  0  0
   24.8189  -19.7583  -12.0401 C   0  0  2  0  0  0  0  0  0  0  0  0
   25.7280  -19.8553  -13.2007 N   0  0  0  0  0  0  0  0  0  0  0  0
   25.5538  -20.4101  -10.8958 C   0  0  0  0  0  0  0  0  0  0  0  0
   26.0133  -21.5788  -11.0245 O   0  0  0  0  0  0  0  0  0  0  0  0
   27.6691  -19.0327   -5.3174 C   0  0  0  0  0  0  0  0  0  0  0  0
   27.6703  -19.9768   -6.4786 C   0  0  2  0  0  0  0  0  0  0  0  0
   28.9586  -20.6888   -6.6349 C   0  0  0  0  0  0  0  0  0  0  0  0
   27.0984  -19.4761   -7.7371 C   0  0  0  0  0  0  0  0  0  0  0  0
   26.3953  -20.4945   -8.5607 C   0  0  2  0  0  0  0  0  0  0  0  0
   25.7497  -19.7477   -9.6694 N   0  0  0  0  0  0  0  0  0  0  0  0
   25.3557  -21.2860   -7.9283 C   0  0  0  0  0  0  0  0  0  0  0  0
   24.1613  -20.8208   -7.8085 O   0  0  0  0  0  0  0  0  0  0  0  0
   25.4844  -22.5721   -7.4040 O   0  0  0  0  0  0  0  0  0  0  0  0
  2  1  1  6
  2  3  1  0
  4  3  1  0
  5  2  1  0
  5  6  2  0
  8  7  1  1
  8 10  1  0
  9  8  1  0
 10 11  1  6
 10 12  1  0
 11  5  1  0
 12 19  1  0
 13 12  2  0
 15 16  1  6
 15 14  1  0
 17 15  1  0
 18 17  1  1
 19 18  1  0
 20 22  1  0
 20 18  1  0
 21 20  2  0
M  END
$$$$
