CVL.pdb
     RDKit          3D

 22 21  0  0  1  0  0  0  0  0999 V2000
   26.8719  -21.4825  -16.7943 N   0  0  0  0  0  0  0  0  0  0  0  0
   27.3114  -21.7757  -15.4639 C   0  0  1  0  0  0  0  0  0  0  0  0
   28.8044  -21.7845  -15.3372 C   0  0  0  0  0  0  0  0  0  0  0  0
   29.3736  -22.1304  -13.6735 S   0  0  0  0  0  0  0  0  0  0  0  0
   26.8018  -20.7549  -14.4794 C   0  0  0  0  0  0  0  0  0  0  0  0
   26.6712  -19.5572  -14.8401 O   0  0  0  0  0  0  0  0  0  0  0  0
   24.3811  -19.4584  -14.1491 C   0  0  0  0  0  0  0  0  0  0  0  0
   24.3895  -20.0502  -12.7586 C   0  0  1  0  0  0  0  0  0  0  0  0
   23.6167  -21.3242  -12.7625 C   0  0  0  0  0  0  0  0  0  0  0  0
   25.8020  -20.1589  -12.2450 C   0  0  2  0  0  0  0  0  0  0  0  0
   26.4655  -21.1221  -13.1478 N   0  0  0  0  0  0  0  0  0  0  0  0
   25.7698  -20.8280  -10.8939 C   0  0  0  0  0  0  0  0  0  0  0  0
   25.6632  -22.0834  -10.8134 O   0  0  0  0  0  0  0  0  0  0  0  0
   28.8082  -20.9251   -7.9730 C   0  0  0  0  0  0  0  0  0  0  0  0
   27.9438  -19.7243   -7.7488 C   0  0  2  0  0  0  0  0  0  0  0  0
   28.5908  -18.7066   -6.8905 C   0  0  0  0  0  0  0  0  0  0  0  0
   26.5316  -19.9779   -7.4280 C   0  0  0  0  0  0  0  0  0  0  0  0
   25.8023  -20.8221   -8.4106 C   0  0  2  0  0  0  0  0  0  0  0  0
   25.8578  -20.0881   -9.6997 N   0  0  0  0  0  0  0  0  0  0  0  0
   24.4036  -21.1144   -8.1554 C   0  0  0  0  0  0  0  0  0  0  0  0
   23.4797  -20.5446   -8.8475 O   0  0  0  0  0  0  0  0  0  0  0  0
   23.8923  -21.9941   -7.2014 O   0  0  0  0  0  0  0  0  0  0  0  0
  2  1  1  6
  2  3  1  0
  4  3  1  0
  5  2  1  0
  5  6  2  0
  8  7  1  6
  8 10  1  0
  9  8  1  0
 10 11  1  6
 10 12  1  0
 11  5  1  0
 12 19  1  0
 13 12  2  0
 15 16  1  1
 15 14  1  0
 17 15  1  0
 18 17  1  1
 19 18  1  0
 20 22  1  0
 20 18  1  0
 21 20  2  0
M  END
$$$$
