CVL.pdb
     RDKit          3D

 22 21  0  0  1  0  0  0  0  0999 V2000
   17.3467  -11.5157    4.7947 N   0  0  0  0  0  0  0  0  0  0  0  0
   18.3697  -12.4949    5.0042 C   0  0  1  0  0  0  0  0  0  0  0  0
   19.1316  -12.2718    6.2750 C   0  0  0  0  0  0  0  0  0  0  0  0
   20.9045  -12.4469    6.0796 S   0  0  0  0  0  0  0  0  0  0  0  0
   17.7917  -13.8842    5.0870 C   0  0  0  0  0  0  0  0  0  0  0  0
   16.7262  -14.0751    5.7271 O   0  0  0  0  0  0  0  0  0  0  0  0
   17.8761  -18.4876    3.3318 C   0  0  0  0  0  0  0  0  0  0  0  0
   18.1216  -16.9989    3.2457 C   0  0  1  0  0  0  0  0  0  0  0  0
   17.3259  -16.4344    2.1195 C   0  0  0  0  0  0  0  0  0  0  0  0
   17.8848  -16.3514    4.5857 C   0  0  2  0  0  0  0  0  0  0  0  0
   18.4305  -14.9848    4.4533 N   0  0  0  0  0  0  0  0  0  0  0  0
   18.7555  -17.0366    5.6087 C   0  0  0  0  0  0  0  0  0  0  0  0
   20.0126  -16.9659    5.5169 O   0  0  0  0  0  0  0  0  0  0  0  0
   19.6349  -17.6587   11.2993 C   0  0  0  0  0  0  0  0  0  0  0  0
   19.9566  -18.2047    9.9436 C   0  0  2  0  0  0  0  0  0  0  0  0
   21.4098  -18.3905    9.7324 C   0  0  0  0  0  0  0  0  0  0  0  0
   19.2514  -17.6001    8.8040 C   0  0  0  0  0  0  0  0  0  0  0  0
   19.1302  -18.4681    7.6033 C   0  0  2  0  0  0  0  0  0  0  0  0
   18.2049  -17.7628    6.6814 N   0  0  0  0  0  0  0  0  0  0  0  0
   18.6034  -19.8092    7.7797 C   0  0  0  0  0  0  0  0  0  0  0  0
   19.3886  -20.7872    8.0699 O   0  0  0  0  0  0  0  0  0  0  0  0
   17.2701  -20.2055    7.6767 O   0  0  0  0  0  0  0  0  0  0  0  0
  2  1  1  1
  2  3  1  0
  4  3  1  0
  5  2  1  0
  5  6  2  0
  8  7  1  1
  8 10  1  0
  9  8  1  0
 10 11  1  6
 10 12  1  0
 11  5  1  0
 12 19  1  0
 13 12  2  0
 15 16  1  6
 15 14  1  0
 17 15  1  0
 18 17  1  1
 19 18  1  0
 20 22  1  0
 20 18  1  0
 21 20  2  0
M  END
$$$$
