CVL.pdb
     RDKit          3D

 22 21  0  0  1  0  0  0  0  0999 V2000
   19.4084  -19.2660  -16.9750 N   0  0  0  0  0  0  0  0  0  0  0  0
   20.2947  -18.8576  -15.9278 C   0  0  1  0  0  0  0  0  0  0  0  0
   19.6843  -18.9978  -14.5665 C   0  0  0  0  0  0  0  0  0  0  0  0
   20.3381  -17.8327  -13.3721 S   0  0  0  0  0  0  0  0  0  0  0  0
   21.5553  -19.6833  -15.9215 C   0  0  0  0  0  0  0  0  0  0  0  0
   21.4809  -20.9268  -15.7489 O   0  0  0  0  0  0  0  0  0  0  0  0
   24.9936  -17.8814  -17.1760 C   0  0  0  0  0  0  0  0  0  0  0  0
   24.8936  -19.3885  -17.2277 C   0  0  1  0  0  0  0  0  0  0  0  0
   26.2628  -19.9684  -17.3231 C   0  0  0  0  0  0  0  0  0  0  0  0
   24.0606  -19.8970  -16.0795 C   0  0  2  0  0  0  0  0  0  0  0  0
   22.8294  -19.0807  -16.1076 N   0  0  0  0  0  0  0  0  0  0  0  0
   24.7540  -19.5378  -14.7894 C   0  0  0  0  0  0  0  0  0  0  0  0
   24.7352  -18.3462  -14.3730 O   0  0  0  0  0  0  0  0  0  0  0  0
   27.3700  -20.5891  -10.0947 C   0  0  0  0  0  0  0  0  0  0  0  0
   25.9066  -20.3687  -10.3171 C   0  0  2  0  0  0  0  0  0  0  0  0
   25.0760  -20.8796   -9.2036 C   0  0  0  0  0  0  0  0  0  0  0  0
   25.3871  -20.6861  -11.6553 C   0  0  0  0  0  0  0  0  0  0  0  0
   26.1234  -20.0588  -12.7841 C   0  0  2  0  0  0  0  0  0  0  0  0
   25.4310  -20.5026  -14.0199 N   0  0  0  0  0  0  0  0  0  0  0  0
   27.5276  -20.3868  -12.9505 C   0  0  0  0  0  0  0  0  0  0  0  0
   27.8796  -21.5140  -13.4631 O   0  0  0  0  0  0  0  0  0  0  0  0
   28.6200  -19.5878  -12.6132 O   0  0  0  0  0  0  0  0  0  0  0  0
  2  1  1  6
  2  3  1  0
  4  3  1  0
  5  2  1  0
  5  6  2  0
  8  7  1  1
  8 10  1  0
  9  8  1  0
 10 11  1  1
 10 12  1  0
 11  5  1  0
 12 19  1  0
 13 12  2  0
 15 16  1  1
 15 14  1  0
 17 15  1  0
 18 17  1  1
 19 18  1  0
 20 22  1  0
 20 18  1  0
 21 20  2  0
M  END
$$$$
