CVL.pdb
     RDKit          3D

 22 21  0  0  1  0  0  0  0  0999 V2000
   18.4864  -12.7232  -15.1369 N   0  0  0  0  0  0  0  0  0  0  0  0
   18.2539  -11.5613  -15.9401 C   0  0  1  0  0  0  0  0  0  0  0  0
   16.7966  -11.3006  -16.1711 C   0  0  0  0  0  0  0  0  0  0  0  0
   16.0082  -12.5391  -17.1989 S   0  0  0  0  0  0  0  0  0  0  0  0
   18.8152  -10.3229  -15.2903 C   0  0  0  0  0  0  0  0  0  0  0  0
   18.4573  -10.0185  -14.1238 O   0  0  0  0  0  0  0  0  0  0  0  0
   22.2169   -9.7609  -14.4229 C   0  0  0  0  0  0  0  0  0  0  0  0
   21.8569   -8.6224  -15.3492 C   0  0  1  0  0  0  0  0  0  0  0  0
   22.3919   -8.9089  -16.7101 C   0  0  0  0  0  0  0  0  0  0  0  0
   20.3769   -8.3459  -15.2874 C   0  0  2  0  0  0  0  0  0  0  0  0
   19.7436   -9.4909  -15.9736 N   0  0  0  0  0  0  0  0  0  0  0  0
   20.0783   -7.1439  -16.1478 C   0  0  0  0  0  0  0  0  0  0  0  0
   20.0679   -7.2545  -17.4053 O   0  0  0  0  0  0  0  0  0  0  0  0
   16.2508   -2.7756  -16.8287 C   0  0  0  0  0  0  0  0  0  0  0  0
   17.6094   -3.3051  -17.1651 C   0  0  2  0  0  0  0  0  0  0  0  0
   17.8261   -3.4377  -18.6234 C   0  0  0  0  0  0  0  0  0  0  0  0
   18.0859   -4.4501  -16.3755 C   0  0  0  0  0  0  0  0  0  0  0  0
   19.5368   -4.7465  -16.5045 C   0  0  2  0  0  0  0  0  0  0  0  0
   19.8045   -5.8823  -15.5869 N   0  0  0  0  0  0  0  0  0  0  0  0
   20.4817   -3.6994  -16.1609 C   0  0  0  0  0  0  0  0  0  0  0  0
   20.9696   -3.6233  -14.9721 O   0  0  0  0  0  0  0  0  0  0  0  0
   20.9697   -2.7018  -17.0047 O   0  0  0  0  0  0  0  0  0  0  0  0
  2  1  1  1
  2  3  1  0
  4  3  1  0
  5  2  1  0
  5  6  2  0
  8  7  1  1
  8 10  1  0
  9  8  1  0
 10 11  1  6
 10 12  1  0
 11  5  1  0
 12 19  1  0
 13 12  2  0
 15 16  1  6
 15 14  1  0
 17 15  1  0
 18 17  1  1
 19 18  1  0
 20 22  1  0
 20 18  1  0
 21 20  2  0
M  END
$$$$
