CVL.pdb
     RDKit          3D

 22 21  0  0  1  0  0  0  0  0999 V2000
   12.5458  -13.0719    4.5257 N   0  0  0  0  0  0  0  0  0  0  0  0
   13.4168  -13.2003    5.6544 C   0  0  1  0  0  0  0  0  0  0  0  0
   12.8231  -14.0313    6.7509 C   0  0  0  0  0  0  0  0  0  0  0  0
   11.4422  -13.2389    7.5736 S   0  0  0  0  0  0  0  0  0  0  0  0
   14.7179  -13.8575    5.2724 C   0  0  0  0  0  0  0  0  0  0  0  0
   14.7484  -14.6522    4.2981 O   0  0  0  0  0  0  0  0  0  0  0  0
   19.6154  -13.7230    5.8084 C   0  0  0  0  0  0  0  0  0  0  0  0
   18.2276  -13.1248    5.8068 C   0  0  1  0  0  0  0  0  0  0  0  0
   18.1845  -11.9868    4.8459 C   0  0  0  0  0  0  0  0  0  0  0  0
   17.1957  -14.1983    5.5757 C   0  0  2  0  0  0  0  0  0  0  0  0
   15.9138  -13.5949    5.9949 N   0  0  0  0  0  0  0  0  0  0  0  0
   17.4495  -15.3232    6.5476 C   0  0  0  0  0  0  0  0  0  0  0  0
   17.3297  -15.1246    7.7885 O   0  0  0  0  0  0  0  0  0  0  0  0
   15.3911  -18.9390    7.8062 C   0  0  0  0  0  0  0  0  0  0  0  0
   16.0850  -19.1715    6.5009 C   0  0  2  0  0  0  0  0  0  0  0  0
   15.6586  -20.4268    5.8426 C   0  0  0  0  0  0  0  0  0  0  0  0
   17.5360  -18.9359    6.4734 C   0  0  0  0  0  0  0  0  0  0  0  0
   17.9842  -17.6782    7.1271 C   0  0  2  0  0  0  0  0  0  0  0  0
   17.8197  -16.6089    6.1106 N   0  0  0  0  0  0  0  0  0  0  0  0
   19.3561  -17.6027    7.5956 C   0  0  0  0  0  0  0  0  0  0  0  0
   20.2817  -17.1315    6.8351 O   0  0  0  0  0  0  0  0  0  0  0  0
   19.8368  -17.9920    8.8457 O   0  0  0  0  0  0  0  0  0  0  0  0
  2  1  1  6
  2  3  1  0
  4  3  1  0
  5  2  1  0
  5  6  2  0
  8  7  1  6
  8 10  1  0
  9  8  1  0
 10 11  1  1
 10 12  1  0
 11  5  1  0
 12 19  1  0
 13 12  2  0
 15 16  1  1
 15 14  1  0
 17 15  1  0
 18 17  1  6
 19 18  1  0
 20 22  1  0
 20 18  1  0
 21 20  2  0
M  END
$$$$
