ITP.pdb
     RDKit          3D

 23 23  0  0  1  0  0  0  0  0999 V2000
    8.2831  -22.2658   22.7936 C   0  0  0  0  0  0  0  0  0  0  0  0
    7.2729  -21.4354   23.5253 C   0  0  0  0  0  0  0  0  0  0  0  0
    7.4808  -19.9713   23.2538 C   0  0  2  0  0  0  0  0  0  0  0  0
    8.9384  -19.5824   23.3854 C   0  0  0  0  0  0  0  0  0  0  0  0
    6.5675  -19.0431   23.9772 C   0  0  2  0  0  0  0  0  0  0  0  0
    5.1671  -19.4608   23.7066 N   0  0  0  0  0  0  0  0  0  0  0  0
    6.6383  -17.6319   23.5970 C   0  0  0  0  0  0  0  0  0  0  0  0
    5.7908  -16.7733   24.0444 O   0  0  0  0  0  0  0  0  0  0  0  0
    7.2984  -15.3472   25.0027 C   0  0  0  0  0  0  0  0  0  0  0  0
    8.3902  -15.2257   23.9895 C   0  0  1  0  0  0  0  0  0  0  0  0
    9.3811  -16.2246   24.1716 O   0  0  0  0  0  0  0  0  0  0  0  0
    7.7702  -15.5790   22.6198 C   0  0  2  0  0  0  0  0  0  0  0  0
    7.5985  -17.0424   22.7319 N   0  0  0  0  0  0  0  0  0  0  0  0
    8.7666  -15.2553   21.5722 C   0  0  0  0  0  0  0  0  0  0  0  0
    9.8396  -15.9275   21.5901 O   0  0  0  0  0  0  0  0  0  0  0  0
    8.5182  -14.2421   20.6031 N   0  0  0  0  0  0  0  0  0  0  0  0
    7.4312  -13.3186   20.5997 C   0  0  0  0  0  0  0  0  0  0  0  0
    8.0750  -12.0834   19.9469 C   0  0  0  0  0  0  0  0  0  0  0  0
    8.8520  -12.7768   18.8103 C   0  0  0  0  0  0  0  0  0  0  0  0
    9.3260  -14.0543   19.4463 C   0  0  1  0  0  0  0  0  0  0  0  0
   10.7625  -13.9717   19.8151 C   0  0  0  0  0  0  0  0  0  0  0  0
   11.0807  -13.6723   20.9774 O   0  0  0  0  0  0  0  0  0  0  0  0
   11.7298  -14.2250   18.8757 O   0  0  0  0  0  0  0  0  0  0  0  0
  1  2  1  0
  3  5  1  0
  3  2  1  0
  3  4  1  1
  5  7  1  0
  5  6  1  6
  7  8  2  0
 10 11  1  0
 10  9  1  1
 10 12  1  0
 12 13  1  1
 13  7  1  0
 14 12  1  0
 14 15  2  0
 16 20  1  0
 16 14  1  0
 17 16  1  0
 18 17  1  0
 18 19  1  0
 19 20  1  0
 20 21  1  1
 21 22  2  0
 21 23  1  0
M  END
$$$$
