ITP.pdb
     RDKit          3D

 23 23  0  0  1  0  0  0  0  0999 V2000
    6.7097  -10.9831   27.2248 C   0  0  0  0  0  0  0  0  0  0  0  0
    5.9225  -12.0119   26.4716 C   0  0  0  0  0  0  0  0  0  0  0  0
    6.8128  -13.1216   25.9852 C   0  0  2  0  0  0  0  0  0  0  0  0
    8.0898  -12.5835   25.3746 C   0  0  0  0  0  0  0  0  0  0  0  0
    6.1554  -14.1529   25.1347 C   0  0  2  0  0  0  0  0  0  0  0  0
    5.0015  -14.7116   25.8865 N   0  0  0  0  0  0  0  0  0  0  0  0
    6.9750  -15.3047   24.7573 C   0  0  0  0  0  0  0  0  0  0  0  0
    7.2256  -16.2519   25.5914 O   0  0  0  0  0  0  0  0  0  0  0  0
    6.5889  -17.3012   21.5930 C   0  0  0  0  0  0  0  0  0  0  0  0
    8.0410  -16.9612   21.6887 C   0  0  1  0  0  0  0  0  0  0  0  0
    8.3171  -15.6953   21.1105 O   0  0  0  0  0  0  0  0  0  0  0  0
    8.3526  -16.7487   23.1864 C   0  0  2  0  0  0  0  0  0  0  0  0
    7.5741  -15.5297   23.4891 N   0  0  0  0  0  0  0  0  0  0  0  0
    9.8037  -16.4793   23.3155 C   0  0  0  0  0  0  0  0  0  0  0  0
   10.2672  -15.5421   22.6010 O   0  0  0  0  0  0  0  0  0  0  0  0
   10.6212  -17.2392   24.1995 N   0  0  0  0  0  0  0  0  0  0  0  0
   10.1706  -18.1411   25.2085 C   0  0  0  0  0  0  0  0  0  0  0  0
   11.2985  -19.1869   25.2168 C   0  0  0  0  0  0  0  0  0  0  0  0
   12.5154  -18.2441   25.1351 C   0  0  0  0  0  0  0  0  0  0  0  0
   12.0416  -17.1483   24.2208 C   0  0  1  0  0  0  0  0  0  0  0  0
   12.5997  -17.3086   22.8536 C   0  0  0  0  0  0  0  0  0  0  0  0
   11.8648  -17.7033   21.9338 O   0  0  0  0  0  0  0  0  0  0  0  0
   13.9193  -17.0218   22.6111 O   0  0  0  0  0  0  0  0  0  0  0  0
  1  2  1  0
  3  5  1  0
  3  2  1  0
  3  4  1  6
  5  7  1  0
  5  6  1  1
  7  8  2  0
 10 11  1  0
 10  9  1  1
 10 12  1  0
 12 13  1  6
 13  7  1  0
 14 12  1  0
 14 15  2  0
 16 20  1  0
 16 14  1  0
 17 16  1  0
 18 17  1  0
 18 19  1  0
 19 20  1  0
 20 21  1  6
 21 22  2  0
 21 23  1  0
M  END
$$$$
