ITP.pdb
     RDKit          3D

 23 23  0  0  1  0  0  0  0  0999 V2000
    8.4875  -11.8417   19.1059 C   0  0  0  0  0  0  0  0  0  0  0  0
    7.9371  -13.1925   19.4490 C   0  0  0  0  0  0  0  0  0  0  0  0
    9.0447  -14.1712   19.7249 C   0  0  2  0  0  0  0  0  0  0  0  0
   10.0234  -14.2436   18.5717 C   0  0  0  0  0  0  0  0  0  0  0  0
    8.6161  -15.5150   20.2043 C   0  0  2  0  0  0  0  0  0  0  0  0
    7.7525  -16.1289   19.1622 N   0  0  0  0  0  0  0  0  0  0  0  0
    7.8286  -15.5459   21.4372 C   0  0  0  0  0  0  0  0  0  0  0  0
    6.5879  -15.8871   21.4323 O   0  0  0  0  0  0  0  0  0  0  0  0
    6.1705  -17.0687   22.9251 C   0  0  0  0  0  0  0  0  0  0  0  0
    7.0595  -16.7105   24.0718 C   0  0  1  0  0  0  0  0  0  0  0  0
    8.3207  -17.3525   23.9712 O   0  0  0  0  0  0  0  0  0  0  0  0
    7.4045  -15.2129   23.9191 C   0  0  2  0  0  0  0  0  0  0  0  0
    8.2950  -15.2245   22.7399 N   0  0  0  0  0  0  0  0  0  0  0  0
    8.1531  -14.7930   25.1267 C   0  0  0  0  0  0  0  0  0  0  0  0
    9.2200  -15.4281   25.3758 O   0  0  0  0  0  0  0  0  0  0  0  0
    7.6882  -13.7307   25.9529 N   0  0  0  0  0  0  0  0  0  0  0  0
    6.4696  -13.0057   25.7982 C   0  0  0  0  0  0  0  0  0  0  0  0
    6.1193  -12.6716   27.2583 C   0  0  0  0  0  0  0  0  0  0  0  0
    7.5161  -12.2590   27.7632 C   0  0  0  0  0  0  0  0  0  0  0  0
    8.4361  -13.2069   27.0448 C   0  0  1  0  0  0  0  0  0  0  0  0
    8.8922  -14.2990   27.9424 C   0  0  0  0  0  0  0  0  0  0  0  0
    8.3049  -15.3929   27.9244 O   0  0  0  0  0  0  0  0  0  0  0  0
    9.9560  -14.0979   28.7853 O   0  0  0  0  0  0  0  0  0  0  0  0
  1  2  1  0
  3  5  1  0
  3  2  1  0
  3  4  1  6
  5  7  1  0
  5  6  1  6
  7  8  2  0
 10 11  1  0
 10  9  1  6
 10 12  1  0
 12 13  1  6
 13  7  1  0
 14 12  1  0
 14 15  2  0
 16 20  1  0
 16 14  1  0
 17 16  1  0
 18 17  1  0
 18 19  1  0
 19 20  1  0
 20 21  1  1
 21 22  2  0
 21 23  1  0
M  END
$$$$
