ITP.pdb
     RDKit          3D

 23 23  0  0  1  0  0  0  0  0999 V2000
    8.5480  -11.9031   27.0871 C   0  0  0  0  0  0  0  0  0  0  0  0
    7.9356  -13.2543   26.8758 C   0  0  0  0  0  0  0  0  0  0  0  0
    6.8440  -13.1954   25.8435 C   0  0  2  0  0  0  0  0  0  0  0  0
    5.8167  -12.1350   26.1799 C   0  0  0  0  0  0  0  0  0  0  0  0
    6.2280  -14.5016   25.4782 C   0  0  2  0  0  0  0  0  0  0  0  0
    5.8656  -15.2136   26.7313 N   0  0  0  0  0  0  0  0  0  0  0  0
    7.0709  -15.4315   24.7261 C   0  0  0  0  0  0  0  0  0  0  0  0
    7.5266  -16.5083   25.2632 O   0  0  0  0  0  0  0  0  0  0  0  0
    8.8654  -16.9384   20.4042 C   0  0  0  0  0  0  0  0  0  0  0  0
    7.9589  -16.0672   21.2121 C   0  0  1  0  0  0  0  0  0  0  0  0
    6.6134  -16.5115   21.1422 O   0  0  0  0  0  0  0  0  0  0  0  0
    8.3336  -16.2852   22.6945 C   0  0  2  0  0  0  0  0  0  0  0  0
    7.4808  -15.2876   23.3736 N   0  0  0  0  0  0  0  0  0  0  0  0
    9.7644  -15.9375   22.8580 C   0  0  0  0  0  0  0  0  0  0  0  0
   10.1724  -14.9217   22.2215 O   0  0  0  0  0  0  0  0  0  0  0  0
   10.6231  -16.7109   23.6899 N   0  0  0  0  0  0  0  0  0  0  0  0
   10.2566  -17.8568   24.4561 C   0  0  0  0  0  0  0  0  0  0  0  0
   11.5546  -18.6814   24.4223 C   0  0  0  0  0  0  0  0  0  0  0  0
   12.5754  -17.5523   24.6661 C   0  0  0  0  0  0  0  0  0  0  0  0
   11.9928  -16.3914   23.9085 C   0  0  1  0  0  0  0  0  0  0  0  0
   12.6971  -16.1828   22.6175 C   0  0  0  0  0  0  0  0  0  0  0  0
   12.2507  -16.7067   21.5840 O   0  0  0  0  0  0  0  0  0  0  0  0
   13.8337  -15.4157   22.5697 O   0  0  0  0  0  0  0  0  0  0  0  0
  1  2  1  0
  3  5  1  0
  3  2  1  0
  3  4  1  1
  5  7  1  0
  5  6  1  1
  7  8  2  0
 10 11  1  0
 10  9  1  6
 10 12  1  0
 12 13  1  1
 13  7  1  0
 14 12  1  0
 14 15  2  0
 16 20  1  0
 16 14  1  0
 17 16  1  0
 18 17  1  0
 18 19  1  0
 19 20  1  0
 20 21  1  6
 21 22  2  0
 21 23  1  0
M  END
$$$$
