ITP.pdb
     RDKit          3D

 23 23  0  0  1  0  0  0  0  0999 V2000
   10.2012  -13.7314   29.5794 C   0  0  0  0  0  0  0  0  0  0  0  0
   10.0392  -15.0021   28.8019 C   0  0  0  0  0  0  0  0  0  0  0  0
    9.9814  -14.7263   27.3250 C   0  0  2  0  0  0  0  0  0  0  0  0
    8.9477  -13.6696   26.9963 C   0  0  0  0  0  0  0  0  0  0  0  0
    9.8818  -15.9252   26.4464 C   0  0  2  0  0  0  0  0  0  0  0  0
   10.8383  -16.9486   26.9429 N   0  0  0  0  0  0  0  0  0  0  0  0
   10.2135  -15.7275   25.0350 C   0  0  0  0  0  0  0  0  0  0  0  0
   11.2951  -15.1290   24.6776 O   0  0  0  0  0  0  0  0  0  0  0  0
   10.5969  -16.9902   20.5758 C   0  0  0  0  0  0  0  0  0  0  0  0
   10.5795  -17.0208   22.0698 C   0  0  1  0  0  0  0  0  0  0  0  0
   11.8733  -16.8009   22.6088 O   0  0  0  0  0  0  0  0  0  0  0  0
    9.7812  -15.7824   22.5329 C   0  0  2  0  0  0  0  0  0  0  0  0
    9.4352  -16.1458   23.9228 N   0  0  0  0  0  0  0  0  0  0  0  0
    8.5571  -15.6936   21.7030 C   0  0  0  0  0  0  0  0  0  0  0  0
    7.8269  -16.7275   21.6660 O   0  0  0  0  0  0  0  0  0  0  0  0
    8.2304  -14.5042   20.9918 N   0  0  0  0  0  0  0  0  0  0  0  0
    8.8719  -13.2364   21.1176 C   0  0  0  0  0  0  0  0  0  0  0  0
    8.7366  -12.6769   19.6911 C   0  0  0  0  0  0  0  0  0  0  0  0
    7.2764  -13.0776   19.4020 C   0  0  0  0  0  0  0  0  0  0  0  0
    7.1477  -14.4177   20.0718 C   0  0  1  0  0  0  0  0  0  0  0  0
    7.2091  -15.5230   19.0814 C   0  0  0  0  0  0  0  0  0  0  0  0
    8.2759  -16.1354   18.9116 O   0  0  0  0  0  0  0  0  0  0  0  0
    6.0928  -15.8634   18.3600 O   0  0  0  0  0  0  0  0  0  0  0  0
  1  2  1  0
  3  5  1  0
  3  2  1  0
  3  4  1  1
  5  7  1  0
  5  6  1  1
  7  8  2  0
 10 11  1  0
 10  9  1  6
 10 12  1  0
 12 13  1  1
 13  7  1  0
 14 12  1  0
 14 15  2  0
 16 20  1  0
 16 14  1  0
 17 16  1  0
 18 17  1  0
 18 19  1  0
 19 20  1  0
 20 21  1  6
 21 22  2  0
 21 23  1  0
M  END
$$$$
