ITP.pdb
     RDKit          3D

 23 23  0  0  1  0  0  0  0  0999 V2000
    6.2257  -11.4563   26.0632 C   0  0  0  0  0  0  0  0  0  0  0  0
    6.9756  -12.5428   25.3544 C   0  0  0  0  0  0  0  0  0  0  0  0
    7.0610  -13.7807   26.2035 C   0  0  2  0  0  0  0  0  0  0  0  0
    7.6749  -13.4864   27.5561 C   0  0  0  0  0  0  0  0  0  0  0  0
    7.6580  -14.9765   25.5457 C   0  0  2  0  0  0  0  0  0  0  0  0
    9.1366  -14.8272   25.5591 N   0  0  0  0  0  0  0  0  0  0  0  0
    7.2968  -15.1976   24.1451 C   0  0  0  0  0  0  0  0  0  0  0  0
    6.0935  -15.4977   23.8020 O   0  0  0  0  0  0  0  0  0  0  0  0
    7.4657  -12.9811   21.3896 C   0  0  0  0  0  0  0  0  0  0  0  0
    8.2441  -14.1546   20.8889 C   0  0  1  0  0  0  0  0  0  0  0  0
    9.6066  -14.0775   21.2765 O   0  0  0  0  0  0  0  0  0  0  0  0
    7.7229  -15.3938   21.6490 C   0  0  2  0  0  0  0  0  0  0  0  0
    8.1717  -15.1152   23.0291 N   0  0  0  0  0  0  0  0  0  0  0  0
    8.4205  -16.5847   21.1103 C   0  0  0  0  0  0  0  0  0  0  0  0
    9.5574  -16.8419   21.6052 O   0  0  0  0  0  0  0  0  0  0  0  0
    7.8330  -17.3886   20.0925 N   0  0  0  0  0  0  0  0  0  0  0  0
    6.5123  -17.2636   19.5683 C   0  0  0  0  0  0  0  0  0  0  0  0
    6.7135  -17.7087   18.1097 C   0  0  0  0  0  0  0  0  0  0  0  0
    7.6268  -18.9284   18.3434 C   0  0  0  0  0  0  0  0  0  0  0  0
    8.4991  -18.4915   19.4877 C   0  0  1  0  0  0  0  0  0  0  0  0
    9.8501  -18.0952   19.0142 C   0  0  0  0  0  0  0  0  0  0  0  0
   10.7101  -18.9683   18.8143 O   0  0  0  0  0  0  0  0  0  0  0  0
   10.1435  -16.7722   18.7999 O   0  0  0  0  0  0  0  0  0  0  0  0
  1  2  1  0
  3  5  1  0
  3  2  1  0
  3  4  1  1
  5  7  1  0
  5  6  1  6
  7  8  2  0
 10 11  1  0
 10  9  1  1
 10 12  1  0
 12 13  1  1
 13  7  1  0
 14 12  1  0
 14 15  2  0
 16 20  1  0
 16 14  1  0
 17 16  1  0
 18 17  1  0
 18 19  1  0
 19 20  1  0
 20 21  1  6
 21 22  2  0
 21 23  1  0
M  END
$$$$
