ITP.pdb
     RDKit          3D

 23 23  0  0  1  0  0  0  0  0999 V2000
    9.1724  -11.7630   19.3004 C   0  0  0  0  0  0  0  0  0  0  0  0
    9.2523  -12.9517   20.2092 C   0  0  0  0  0  0  0  0  0  0  0  0
    8.7110  -14.1821   19.5355 C   0  0  2  0  0  0  0  0  0  0  0  0
    7.3213  -13.9474   18.9816 C   0  0  0  0  0  0  0  0  0  0  0  0
    8.8160  -15.4464   20.3163 C   0  0  2  0  0  0  0  0  0  0  0  0
    8.3566  -16.5667   19.4547 N   0  0  0  0  0  0  0  0  0  0  0  0
    8.0088  -15.5288   21.5339 C   0  0  0  0  0  0  0  0  0  0  0  0
    6.8146  -16.0076   21.5158 O   0  0  0  0  0  0  0  0  0  0  0  0
    6.5069  -17.1754   22.9882 C   0  0  0  0  0  0  0  0  0  0  0  0
    7.3074  -16.7114   24.1619 C   0  0  1  0  0  0  0  0  0  0  0  0
    8.6322  -17.2172   24.1195 O   0  0  0  0  0  0  0  0  0  0  0  0
    7.4984  -15.1876   23.9984 C   0  0  2  0  0  0  0  0  0  0  0  0
    8.4060  -15.1179   22.8344 N   0  0  0  0  0  0  0  0  0  0  0  0
    8.1780  -14.6812   25.2135 C   0  0  0  0  0  0  0  0  0  0  0  0
    9.3000  -15.2003   25.4876 O   0  0  0  0  0  0  0  0  0  0  0  0
    7.5914  -13.6648   26.0198 N   0  0  0  0  0  0  0  0  0  0  0  0
    6.3128  -13.0620   25.8290 C   0  0  0  0  0  0  0  0  0  0  0  0
    5.8943  -12.7560   27.2772 C   0  0  0  0  0  0  0  0  0  0  0  0
    7.2312  -12.2075   27.8140 C   0  0  0  0  0  0  0  0  0  0  0  0
    8.2568  -13.0654   27.1262 C   0  0  1  0  0  0  0  0  0  0  0  0
    8.7931  -14.1036   28.0432 C   0  0  0  0  0  0  0  0  0  0  0  0
    8.3197  -15.2512   28.0137 O   0  0  0  0  0  0  0  0  0  0  0  0
    9.8051  -13.7941   28.9164 O   0  0  0  0  0  0  0  0  0  0  0  0
  1  2  1  0
  3  5  1  0
  3  2  1  0
  3  4  1  1
  5  7  1  0
  5  6  1  6
  7  8  2  0
 10 11  1  0
 10  9  1  6
 10 12  1  0
 12 13  1  6
 13  7  1  0
 14 12  1  0
 14 15  2  0
 16 20  1  0
 16 14  1  0
 17 16  1  0
 18 17  1  0
 18 19  1  0
 19 20  1  0
 20 21  1  1
 21 22  2  0
 21 23  1  0
M  END
$$$$
