ITP.pdb
     RDKit          3D

 23 23  0  0  1  0  0  0  0  0999 V2000
    8.3728  -12.8910   17.6594 C   0  0  0  0  0  0  0  0  0  0  0  0
    8.7178  -14.1786   18.3439 C   0  0  0  0  0  0  0  0  0  0  0  0
    8.0519  -14.2689   19.6888 C   0  0  2  0  0  0  0  0  0  0  0  0
    8.3030  -13.0274   20.5186 C   0  0  0  0  0  0  0  0  0  0  0  0
    8.2923  -15.5288   20.4465 C   0  0  2  0  0  0  0  0  0  0  0  0
    7.7539  -16.6624   19.6503 N   0  0  0  0  0  0  0  0  0  0  0  0
    7.6543  -15.6311   21.7593 C   0  0  0  0  0  0  0  0  0  0  0  0
    6.4844  -16.1484   21.8981 O   0  0  0  0  0  0  0  0  0  0  0  0
    6.4272  -17.2848   23.3102 C   0  0  0  0  0  0  0  0  0  0  0  0
    7.2959  -16.8188   24.4334 C   0  0  1  0  0  0  0  0  0  0  0  0
    8.6210  -17.3087   24.3028 O   0  0  0  0  0  0  0  0  0  0  0  0
    7.4587  -15.2918   24.2687 C   0  0  2  0  0  0  0  0  0  0  0  0
    8.2045  -15.2009   22.9962 N   0  0  0  0  0  0  0  0  0  0  0  0
    8.2913  -14.7993   25.3909 C   0  0  0  0  0  0  0  0  0  0  0  0
    9.3798  -15.4133   25.5949 O   0  0  0  0  0  0  0  0  0  0  0  0
    7.8791  -13.6938   26.1879 N   0  0  0  0  0  0  0  0  0  0  0  0
    6.7503  -12.8533   25.9553 C   0  0  0  0  0  0  0  0  0  0  0  0
    6.3387  -12.4817   27.3901 C   0  0  0  0  0  0  0  0  0  0  0  0
    7.7328  -12.2062   27.9875 C   0  0  0  0  0  0  0  0  0  0  0  0
    8.6010  -13.2421   27.3285 C   0  0  1  0  0  0  0  0  0  0  0  0
    8.8876  -14.3706   28.2508 C   0  0  0  0  0  0  0  0  0  0  0  0
    8.2150  -15.4115   28.1734 O   0  0  0  0  0  0  0  0  0  0  0  0
    9.8896  -14.2611   29.1816 O   0  0  0  0  0  0  0  0  0  0  0  0
  1  2  1  0
  3  5  1  0
  3  2  1  0
  3  4  1  1
  5  7  1  0
  5  6  1  6
  7  8  2  0
 10 11  1  0
 10  9  1  6
 10 12  1  0
 12 13  1  6
 13  7  1  0
 14 12  1  0
 14 15  2  0
 16 20  1  0
 16 14  1  0
 17 16  1  0
 18 17  1  0
 18 19  1  0
 19 20  1  0
 20 21  1  1
 21 22  2  0
 21 23  1  0
M  END
$$$$
