ITP.pdb
     RDKit          3D

 23 23  0  0  1  0  0  0  0  0999 V2000
    8.3513  -12.7272   17.7235 C   0  0  0  0  0  0  0  0  0  0  0  0
    8.6950  -14.0255   18.3881 C   0  0  0  0  0  0  0  0  0  0  0  0
    8.0125  -14.1447   19.7226 C   0  0  2  0  0  0  0  0  0  0  0  0
    8.3444  -12.9739   20.6239 C   0  0  0  0  0  0  0  0  0  0  0  0
    8.1557  -15.4599   20.4073 C   0  0  2  0  0  0  0  0  0  0  0  0
    7.5006  -16.4969   19.5681 N   0  0  0  0  0  0  0  0  0  0  0  0
    7.5401  -15.5761   21.7296 C   0  0  0  0  0  0  0  0  0  0  0  0
    6.3607  -16.0682   21.8795 O   0  0  0  0  0  0  0  0  0  0  0  0
    6.3664  -17.3501   23.3522 C   0  0  0  0  0  0  0  0  0  0  0  0
    7.3381  -16.8813   24.3863 C   0  0  1  0  0  0  0  0  0  0  0  0
    8.6576  -17.3115   24.0919 O   0  0  0  0  0  0  0  0  0  0  0  0
    7.4228  -15.3447   24.2561 C   0  0  2  0  0  0  0  0  0  0  0  0
    8.1238  -15.1870   22.9648 N   0  0  0  0  0  0  0  0  0  0  0  0
    8.2652  -14.8397   25.3653 C   0  0  0  0  0  0  0  0  0  0  0  0
    9.3669  -15.4359   25.5508 O   0  0  0  0  0  0  0  0  0  0  0  0
    7.8477  -13.7422   26.1706 N   0  0  0  0  0  0  0  0  0  0  0  0
    6.6736  -12.9531   25.9877 C   0  0  0  0  0  0  0  0  0  0  0  0
    6.3208  -12.5803   27.4377 C   0  0  0  0  0  0  0  0  0  0  0  0
    7.7307  -12.2387   27.9591 C   0  0  0  0  0  0  0  0  0  0  0  0
    8.6073  -13.2458   27.2672 C   0  0  1  0  0  0  0  0  0  0  0  0
    8.9887  -14.3490   28.1857 C   0  0  0  0  0  0  0  0  0  0  0  0
    8.3699  -15.4247   28.1419 O   0  0  0  0  0  0  0  0  0  0  0  0
   10.0187  -14.1783   29.0759 O   0  0  0  0  0  0  0  0  0  0  0  0
  1  2  1  0
  3  5  1  0
  3  2  1  0
  3  4  1  1
  5  7  1  0
  5  6  1  6
  7  8  2  0
 10 11  1  0
 10  9  1  6
 10 12  1  0
 12 13  1  6
 13  7  1  0
 14 12  1  0
 14 15  2  0
 16 20  1  0
 16 14  1  0
 17 16  1  0
 18 17  1  0
 18 19  1  0
 19 20  1  0
 20 21  1  1
 21 22  2  0
 21 23  1  0
M  END
$$$$
