ITP.pdb
     RDKit          3D

 23 23  0  0  1  0  0  0  0  0999 V2000
   11.6415  -21.0060   25.3826 C   0  0  0  0  0  0  0  0  0  0  0  0
   11.1833  -20.3970   24.0925 C   0  0  0  0  0  0  0  0  0  0  0  0
   10.8375  -18.9452   24.2751 C   0  0  2  0  0  0  0  0  0  0  0  0
   10.0022  -18.7243   25.5186 C   0  0  0  0  0  0  0  0  0  0  0  0
   10.2826  -18.2566   23.0763 C   0  0  2  0  0  0  0  0  0  0  0  0
   11.2798  -18.3539   21.9786 N   0  0  0  0  0  0  0  0  0  0  0  0
    9.9932  -16.8296   23.2206 C   0  0  0  0  0  0  0  0  0  0  0  0
   10.9357  -15.9651   23.3630 O   0  0  0  0  0  0  0  0  0  0  0  0
    8.4317  -14.0994   21.1543 C   0  0  0  0  0  0  0  0  0  0  0  0
    7.5638  -14.3792   22.3384 C   0  0  1  0  0  0  0  0  0  0  0  0
    6.7637  -15.5329   22.1348 O   0  0  0  0  0  0  0  0  0  0  0  0
    8.5027  -14.7913   23.4933 C   0  0  2  0  0  0  0  0  0  0  0  0
    8.7057  -16.2296   23.2218 N   0  0  0  0  0  0  0  0  0  0  0  0
    7.7674  -14.6054   24.7660 C   0  0  0  0  0  0  0  0  0  0  0  0
    6.9976  -15.5489   25.1134 O   0  0  0  0  0  0  0  0  0  0  0  0
    7.9277  -13.4258   25.5472 N   0  0  0  0  0  0  0  0  0  0  0  0
    8.7208  -12.2880   25.2141 C   0  0  0  0  0  0  0  0  0  0  0  0
    7.9185  -11.1486   25.8652 C   0  0  0  0  0  0  0  0  0  0  0  0
    7.5778  -11.8188   27.2110 C   0  0  0  0  0  0  0  0  0  0  0  0
    7.3353  -13.2531   26.8300 C   0  0  1  0  0  0  0  0  0  0  0  0
    5.8828  -13.5602   26.7846 C   0  0  0  0  0  0  0  0  0  0  0  0
    5.3128  -13.6673   25.6866 O   0  0  0  0  0  0  0  0  0  0  0  0
    5.1774  -13.7242   27.9499 O   0  0  0  0  0  0  0  0  0  0  0  0
  1  2  1  0
  3  5  1  0
  3  2  1  0
  3  4  1  1
  5  7  1  0
  5  6  1  6
  7  8  2  0
 10 11  1  0
 10  9  1  6
 10 12  1  0
 12 13  1  6
 13  7  1  0
 14 12  1  0
 14 15  2  0
 16 20  1  0
 16 14  1  0
 17 16  1  0
 18 17  1  0
 18 19  1  0
 19 20  1  0
 20 21  1  6
 21 22  2  0
 21 23  1  0
M  END
$$$$
