ITP.pdb
     RDKit          3D

 23 23  0  0  1  0  0  0  0  0999 V2000
    8.1305  -12.3889   18.1763 C   0  0  0  0  0  0  0  0  0  0  0  0
    8.3128  -13.7905   18.6739 C   0  0  0  0  0  0  0  0  0  0  0  0
    7.7729  -13.9412   20.0690 C   0  0  2  0  0  0  0  0  0  0  0  0
    8.3661  -12.9132   21.0094 C   0  0  0  0  0  0  0  0  0  0  0  0
    7.8026  -15.3215   20.6287 C   0  0  2  0  0  0  0  0  0  0  0  0
    6.9435  -16.1879   19.7801 N   0  0  0  0  0  0  0  0  0  0  0  0
    7.2989  -15.4820   21.9930 C   0  0  0  0  0  0  0  0  0  0  0  0
    6.0606  -15.2804   22.2789 O   0  0  0  0  0  0  0  0  0  0  0  0
    6.3050  -17.8626   24.0049 C   0  0  0  0  0  0  0  0  0  0  0  0
    7.3937  -17.3012   24.8611 C   0  0  1  0  0  0  0  0  0  0  0  0
    8.6603  -17.8319   24.5049 O   0  0  0  0  0  0  0  0  0  0  0  0
    7.5169  -15.8039   24.5028 C   0  0  2  0  0  0  0  0  0  0  0  0
    8.0603  -15.8634   23.1300 N   0  0  0  0  0  0  0  0  0  0  0  0
    8.5059  -15.1957   25.4231 C   0  0  0  0  0  0  0  0  0  0  0  0
    9.6793  -15.6701   25.3805 O   0  0  0  0  0  0  0  0  0  0  0  0
    8.1442  -14.1353   26.3017 N   0  0  0  0  0  0  0  0  0  0  0  0
    6.9158  -13.4102   26.2969 C   0  0  0  0  0  0  0  0  0  0  0  0
    6.7446  -13.0792   27.7892 C   0  0  0  0  0  0  0  0  0  0  0  0
    8.1922  -12.6672   28.1225 C   0  0  0  0  0  0  0  0  0  0  0  0
    9.0186  -13.6134   27.2962 C   0  0  1  0  0  0  0  0  0  0  0  0
    9.5799  -14.7072   28.1299 C   0  0  0  0  0  0  0  0  0  0  0  0
    9.0923  -15.8467   28.0553 O   0  0  0  0  0  0  0  0  0  0  0  0
   10.6304  -14.4574   28.9763 O   0  0  0  0  0  0  0  0  0  0  0  0
  1  2  1  0
  3  5  1  0
  3  2  1  0
  3  4  1  1
  5  7  1  0
  5  6  1  6
  7  8  2  0
 10 11  1  0
 10  9  1  6
 10 12  1  0
 12 13  1  6
 13  7  1  0
 14 12  1  0
 14 15  2  0
 16 20  1  0
 16 14  1  0
 17 16  1  0
 18 17  1  0
 18 19  1  0
 19 20  1  0
 20 21  1  1
 21 22  2  0
 21 23  1  0
M  END
$$$$
