ITP.pdb
     RDKit          3D

 23 23  0  0  1  0  0  0  0  0999 V2000
    9.3496  -14.1123   28.1181 C   0  0  0  0  0  0  0  0  0  0  0  0
    8.1299  -14.2222   27.2545 C   0  0  0  0  0  0  0  0  0  0  0  0
    7.9125  -12.9603   26.4664 C   0  0  2  0  0  0  0  0  0  0  0  0
    7.8522  -11.7448   27.3675 C   0  0  0  0  0  0  0  0  0  0  0  0
    6.8016  -13.0003   25.4747 C   0  0  2  0  0  0  0  0  0  0  0  0
    5.5415  -13.3136   26.1977 N   0  0  0  0  0  0  0  0  0  0  0  0
    6.9091  -14.0049   24.4164 C   0  0  0  0  0  0  0  0  0  0  0  0
    6.2344  -15.0997   24.4597 O   0  0  0  0  0  0  0  0  0  0  0  0
    7.2414  -13.0812   20.7660 C   0  0  0  0  0  0  0  0  0  0  0  0
    8.2190  -14.1915   20.9784 C   0  0  1  0  0  0  0  0  0  0  0  0
    9.4910  -13.6964   21.3656 O   0  0  0  0  0  0  0  0  0  0  0  0
    7.7434  -14.9740   22.2220 C   0  0  2  0  0  0  0  0  0  0  0  0
    7.7246  -13.9190   23.2565 N   0  0  0  0  0  0  0  0  0  0  0  0
    8.7727  -15.9909   22.5409 C   0  0  0  0  0  0  0  0  0  0  0  0
    9.7386  -15.6056   23.2636 O   0  0  0  0  0  0  0  0  0  0  0  0
    8.6689  -17.3256   22.0561 N   0  0  0  0  0  0  0  0  0  0  0  0
    7.5616  -17.8914   21.3573 C   0  0  0  0  0  0  0  0  0  0  0  0
    8.2614  -18.9015   20.4320 C   0  0  0  0  0  0  0  0  0  0  0  0
    9.2732  -19.4973   21.4308 C   0  0  0  0  0  0  0  0  0  0  0  0
    9.6744  -18.3115   22.2638 C   0  0  1  0  0  0  0  0  0  0  0  0
   11.0079  -17.7963   21.8606 C   0  0  0  0  0  0  0  0  0  0  0  0
   11.0835  -16.7834   21.1464 O   0  0  0  0  0  0  0  0  0  0  0  0
   12.1476  -18.4374   22.2760 O   0  0  0  0  0  0  0  0  0  0  0  0
  1  2  1  0
  3  5  1  0
  3  2  1  0
  3  4  1  1
  5  7  1  0
  5  6  1  1
  7  8  2  0
 10 11  1  0
 10  9  1  1
 10 12  1  0
 12 13  1  1
 13  7  1  0
 14 12  1  0
 14 15  2  0
 16 20  1  0
 16 14  1  0
 17 16  1  0
 18 17  1  0
 18 19  1  0
 19 20  1  0
 20 21  1  6
 21 22  2  0
 21 23  1  0
M  END
$$$$
