HEK.pdb
     RDKit          3D

 29 29  0  0  1  0  0  0  0  0999 V2000
    8.6114  -16.9905   19.8138 N   0  0  0  0  0  0  0  0  0  0  0  0
    9.4902  -16.3057   20.7261 C   0  0  1  0  0  0  0  0  0  0  0  0
    8.7159  -15.2183   21.3983 C   0  0  0  0  0  0  0  0  0  0  0  0
    8.3279  -14.2137   20.3751 C   0  0  0  0  0  0  0  0  0  0  0  0
    7.3919  -14.3305   19.3675 C   0  0  0  0  0  0  0  0  0  0  0  0
    7.3299  -13.1967   18.6413 N   0  0  0  0  0  0  0  0  0  0  0  0
    8.2138  -12.3629   19.1750 C   0  0  0  0  0  0  0  0  0  0  0  0
    8.8295  -12.9534   20.2233 N   0  0  0  0  0  0  0  0  0  0  0  0
   10.1674  -17.2164   21.6720 C   0  0  0  0  0  0  0  0  0  0  0  0
    9.5719  -18.2765   21.9957 O   0  0  0  0  0  0  0  0  0  0  0  0
   11.4315  -16.9905   22.2416 N   0  0  0  0  0  0  0  0  0  0  0  0
   12.1055  -17.9254   23.1572 C   0  0  1  0  0  0  0  0  0  0  0  0
   13.5888  -17.7495   23.0774 C   0  0  0  0  0  0  0  0  0  0  0  0
   14.0944  -18.1749   21.7304 C   0  0  0  0  0  0  0  0  0  0  0  0
   15.5917  -18.0651   21.6624 C   0  0  0  0  0  0  0  0  0  0  0  0
   16.3573  -19.0404   21.8396 O   0  0  0  0  0  0  0  0  0  0  0  0
   11.5315  -17.8603   24.4941 C   0  0  0  0  0  0  0  0  0  0  0  0
   11.6511  -16.8549   25.2197 O   0  0  0  0  0  0  0  0  0  0  0  0
   16.1252  -16.8240   21.3910 O   0  0  0  0  0  0  0  0  0  0  0  0
   10.7905  -18.9391   25.0726 N   0  0  0  0  0  0  0  0  0  0  0  0
   10.2038  -18.8786   26.3930 C   0  0  1  0  0  0  0  0  0  0  0  0
    9.1719  -19.9756   26.5981 C   0  0  0  0  0  0  0  0  0  0  0  0
    8.1681  -20.0251   25.5103 C   0  0  0  0  0  0  0  0  0  0  0  0
    7.3319  -21.2663   25.5036 C   0  0  0  0  0  0  0  0  0  0  0  0
    6.2082  -21.2846   24.5084 C   0  0  0  0  0  0  0  0  0  0  0  0
    5.4855  -22.5080   24.4282 N   0  0  0  0  0  0  0  0  0  0  0  0
   11.2460  -19.0130   27.4388 C   0  0  0  0  0  0  0  0  0  0  0  0
   10.9743  -18.8217   28.7833 O   0  0  0  0  0  0  0  0  0  0  0  0
   12.4206  -19.3099   27.1121 O   0  0  0  0  0  0  0  0  0  0  0  0
  2  1  1  1
  3  2  1  0
  4  3  1  0
  4  8  1  0
  5  6  1  0
  5  4  2  0
  6  7  1  0
  7  8  2  0
  9 10  2  0
  9  2  1  0
 11  9  1  0
 12 11  1  0
 12 13  1  1
 14 13  1  0
 15 14  1  0
 16 15  2  0
 17 12  1  0
 18 17  2  0
 19 15  1  0
 20 17  1  0
 21 27  1  0
 21 20  1  0
 21 22  1  6
 23 22  1  0
 24 23  1  0
 25 24  1  0
 26 25  1  0
 27 28  1  0
 29 27  2  0
M  END
$$$$
