HEK.pdb
     RDKit          3D

 29 29  0  0  1  0  0  0  0  0999 V2000
   10.5978  -15.7764   18.7583 N   0  0  0  0  0  0  0  0  0  0  0  0
    9.5319  -15.6967   19.7231 C   0  0  1  0  0  0  0  0  0  0  0  0
    8.2368  -15.9279   19.0138 C   0  0  0  0  0  0  0  0  0  0  0  0
    7.9734  -14.7687   18.1230 C   0  0  0  0  0  0  0  0  0  0  0  0
    8.7706  -13.6668   17.8878 C   0  0  0  0  0  0  0  0  0  0  0  0
    8.1792  -12.8293   17.0127 N   0  0  0  0  0  0  0  0  0  0  0  0
    7.0183  -13.3855   16.6901 C   0  0  0  0  0  0  0  0  0  0  0  0
    6.8704  -14.5572   17.3472 N   0  0  0  0  0  0  0  0  0  0  0  0
    9.7334  -16.5876   20.8844 C   0  0  0  0  0  0  0  0  0  0  0  0
    8.8455  -16.6010   21.7759 O   0  0  0  0  0  0  0  0  0  0  0  0
   10.8448  -17.4260   21.0724 N   0  0  0  0  0  0  0  0  0  0  0  0
   10.9993  -18.3536   22.2048 C   0  0  1  0  0  0  0  0  0  0  0  0
   11.7947  -19.5503   21.7892 C   0  0  0  0  0  0  0  0  0  0  0  0
   13.2613  -19.2344   21.8033 C   0  0  0  0  0  0  0  0  0  0  0  0
   14.0675  -20.4189   21.3500 C   0  0  0  0  0  0  0  0  0  0  0  0
   14.4800  -21.3051   22.1331 O   0  0  0  0  0  0  0  0  0  0  0  0
   11.4744  -17.6597   23.3939 C   0  0  0  0  0  0  0  0  0  0  0  0
   12.4155  -16.8446   23.3553 O   0  0  0  0  0  0  0  0  0  0  0  0
   14.3546  -20.5141   20.0057 O   0  0  0  0  0  0  0  0  0  0  0  0
   10.9000  -17.8596   24.6890 N   0  0  0  0  0  0  0  0  0  0  0  0
   11.3410  -17.1497   25.8692 C   0  0  1  0  0  0  0  0  0  0  0  0
   10.2234  -16.3122   26.4693 C   0  0  0  0  0  0  0  0  0  0  0  0
   10.6789  -15.4886   27.6128 C   0  0  0  0  0  0  0  0  0  0  0  0
    9.6129  -14.6229   28.2080 C   0  0  0  0  0  0  0  0  0  0  0  0
   10.0611  -13.7121   29.3139 C   0  0  0  0  0  0  0  0  0  0  0  0
    9.0485  -12.8758   29.8623 N   0  0  0  0  0  0  0  0  0  0  0  0
   11.8252  -18.0959   26.9027 C   0  0  0  0  0  0  0  0  0  0  0  0
   11.3741  -19.4031   26.9790 O   0  0  0  0  0  0  0  0  0  0  0  0
   12.6735  -17.7159   27.7456 O   0  0  0  0  0  0  0  0  0  0  0  0
  2  1  1  6
  3  2  1  0
  4  3  1  0
  4  8  1  0
  5  6  1  0
  5  4  2  0
  6  7  1  0
  7  8  2  0
  9 10  2  0
  9  2  1  0
 11  9  1  0
 12 11  1  0
 12 13  1  6
 14 13  1  0
 15 14  1  0
 16 15  2  0
 17 12  1  0
 18 17  2  0
 19 15  1  0
 20 17  1  0
 21 27  1  0
 21 20  1  0
 21 22  1  1
 23 22  1  0
 24 23  1  0
 25 24  1  0
 26 25  1  0
 27 28  1  0
 29 27  2  0
M  END
$$$$
