HEK.pdb
     RDKit          3D

 29 29  0  0  1  0  0  0  0  0999 V2000
    8.6761  -16.6337   19.3368 N   0  0  0  0  0  0  0  0  0  0  0  0
    9.0775  -15.7395   20.3917 C   0  0  1  0  0  0  0  0  0  0  0  0
    7.8993  -14.9025   20.7727 C   0  0  0  0  0  0  0  0  0  0  0  0
    7.5334  -14.0479   19.6140 C   0  0  0  0  0  0  0  0  0  0  0  0
    7.8475  -12.7227   19.3902 C   0  0  0  0  0  0  0  0  0  0  0  0
    7.3289  -12.3015   18.2195 N   0  0  0  0  0  0  0  0  0  0  0  0
    6.6904  -13.3417   17.6984 C   0  0  0  0  0  0  0  0  0  0  0  0
    6.7991  -14.4084   18.5212 N   0  0  0  0  0  0  0  0  0  0  0  0
    9.6987  -16.4361   21.5370 C   0  0  0  0  0  0  0  0  0  0  0  0
    9.2035  -17.5362   21.8946 O   0  0  0  0  0  0  0  0  0  0  0  0
   10.8054  -15.9641   22.2622 N   0  0  0  0  0  0  0  0  0  0  0  0
   11.5414  -16.7587   23.2589 C   0  0  1  0  0  0  0  0  0  0  0  0
   12.9375  -16.2419   23.4047 C   0  0  0  0  0  0  0  0  0  0  0  0
   13.7024  -17.0725   24.3926 C   0  0  0  0  0  0  0  0  0  0  0  0
   15.1253  -16.6008   24.4992 C   0  0  0  0  0  0  0  0  0  0  0  0
   15.9589  -17.1141   25.2805 O   0  0  0  0  0  0  0  0  0  0  0  0
   10.7822  -16.8883   24.4950 C   0  0  0  0  0  0  0  0  0  0  0  0
   10.5619  -15.9174   25.2436 O   0  0  0  0  0  0  0  0  0  0  0  0
   15.5089  -15.5536   23.6901 O   0  0  0  0  0  0  0  0  0  0  0  0
   10.2344  -18.1326   24.9409 N   0  0  0  0  0  0  0  0  0  0  0  0
    9.5160  -18.2804   26.1873 C   0  0  1  0  0  0  0  0  0  0  0  0
    8.8390  -19.6378   26.2860 C   0  0  0  0  0  0  0  0  0  0  0  0
    8.2591  -19.8898   27.6253 C   0  0  0  0  0  0  0  0  0  0  0  0
    7.6905  -21.2633   27.7986 C   0  0  0  0  0  0  0  0  0  0  0  0
    7.1213  -21.5620   29.1552 C   0  0  0  0  0  0  0  0  0  0  0  0
    6.6335  -22.8871   29.3328 N   0  0  0  0  0  0  0  0  0  0  0  0
   10.4310  -18.1271   27.3438 C   0  0  0  0  0  0  0  0  0  0  0  0
   11.7871  -18.3934   27.2550 O   0  0  0  0  0  0  0  0  0  0  0  0
    9.9776  -17.7434   28.4491 O   0  0  0  0  0  0  0  0  0  0  0  0
  2  1  1  6
  3  2  1  0
  4  3  1  0
  4  8  1  0
  5  6  1  0
  5  4  2  0
  6  7  1  0
  7  8  2  0
  9 10  2  0
  9  2  1  0
 11  9  1  0
 12 11  1  0
 12 13  1  1
 14 13  1  0
 15 14  1  0
 16 15  2  0
 17 12  1  0
 18 17  2  0
 19 15  1  0
 20 17  1  0
 21 27  1  0
 21 20  1  0
 21 22  1  6
 23 22  1  0
 24 23  1  0
 25 24  1  0
 26 25  1  0
 27 28  1  0
 29 27  2  0
M  END
$$$$
