HEK.pdb
     RDKit          3D

 29 29  0  0  1  0  0  0  0  0999 V2000
    8.7951  -16.6100   19.7632 N   0  0  0  0  0  0  0  0  0  0  0  0
    9.2811  -15.7435   20.8054 C   0  0  1  0  0  0  0  0  0  0  0  0
    8.1616  -14.8519   21.2363 C   0  0  0  0  0  0  0  0  0  0  0  0
    7.7440  -14.0244   20.0754 C   0  0  0  0  0  0  0  0  0  0  0  0
    8.3558  -12.9016   19.5558 C   0  0  0  0  0  0  0  0  0  0  0  0
    7.6679  -12.4319   18.4961 N   0  0  0  0  0  0  0  0  0  0  0  0
    6.6286  -13.2417   18.3371 C   0  0  0  0  0  0  0  0  0  0  0  0
    6.6519  -14.2114   19.2782 N   0  0  0  0  0  0  0  0  0  0  0  0
    9.9116  -16.4771   21.9222 C   0  0  0  0  0  0  0  0  0  0  0  0
    9.2951  -17.4653   22.3985 O   0  0  0  0  0  0  0  0  0  0  0  0
   11.1525  -16.1565   22.4973 N   0  0  0  0  0  0  0  0  0  0  0  0
   11.7859  -16.9258   23.5804 C   0  0  1  0  0  0  0  0  0  0  0  0
   13.2327  -16.5637   23.6952 C   0  0  0  0  0  0  0  0  0  0  0  0
   13.8608  -17.2794   24.8546 C   0  0  0  0  0  0  0  0  0  0  0  0
   15.3367  -17.0033   24.9171 C   0  0  0  0  0  0  0  0  0  0  0  0
   16.0881  -17.4961   25.7897 O   0  0  0  0  0  0  0  0  0  0  0  0
   11.0123  -16.8390   24.8113 C   0  0  0  0  0  0  0  0  0  0  0  0
   10.9581  -15.7954   25.4891 O   0  0  0  0  0  0  0  0  0  0  0  0
   15.8667  -16.1661   23.9596 O   0  0  0  0  0  0  0  0  0  0  0  0
   10.2596  -17.9386   25.3325 N   0  0  0  0  0  0  0  0  0  0  0  0
    9.5374  -17.8816   26.5841 C   0  0  1  0  0  0  0  0  0  0  0  0
    8.4451  -18.9366   26.6491 C   0  0  0  0  0  0  0  0  0  0  0  0
    7.8572  -19.2313   25.3221 C   0  0  0  0  0  0  0  0  0  0  0  0
    6.8234  -20.3135   25.3361 C   0  0  0  0  0  0  0  0  0  0  0  0
    6.2810  -20.7082   23.9932 C   0  0  0  0  0  0  0  0  0  0  0  0
    5.2597  -21.6991   24.0161 N   0  0  0  0  0  0  0  0  0  0  0  0
   10.4547  -18.0845   27.7310 C   0  0  0  0  0  0  0  0  0  0  0  0
   10.1228  -17.7042   29.0206 O   0  0  0  0  0  0  0  0  0  0  0  0
   11.5751  -18.6182   27.5446 O   0  0  0  0  0  0  0  0  0  0  0  0
  2  1  1  6
  3  2  1  0
  4  3  1  0
  4  8  1  0
  5  6  1  0
  5  4  2  0
  6  7  1  0
  7  8  2  0
  9 10  2  0
  9  2  1  0
 11  9  1  0
 12 11  1  0
 12 13  1  1
 14 13  1  0
 15 14  1  0
 16 15  2  0
 17 12  1  0
 18 17  2  0
 19 15  1  0
 20 17  1  0
 21 27  1  0
 21 20  1  0
 21 22  1  6
 23 22  1  0
 24 23  1  0
 25 24  1  0
 26 25  1  0
 27 28  1  0
 29 27  2  0
M  END
$$$$
