HEK.pdb
     RDKit          3D

 29 29  0  0  1  0  0  0  0  0999 V2000
    8.2523  -17.8310   17.9520 N   0  0  0  0  0  0  0  0  0  0  0  0
    8.5542  -16.5812   18.6004 C   0  0  1  0  0  0  0  0  0  0  0  0
    7.3064  -15.7596   18.6428 C   0  0  0  0  0  0  0  0  0  0  0  0
    7.6345  -14.4333   19.2259 C   0  0  0  0  0  0  0  0  0  0  0  0
    7.2455  -13.9090   20.4420 C   0  0  0  0  0  0  0  0  0  0  0  0
    7.7486  -12.6697   20.6090 N   0  0  0  0  0  0  0  0  0  0  0  0
    8.4510  -12.4015   19.5155 C   0  0  0  0  0  0  0  0  0  0  0  0
    8.3978  -13.4505   18.6649 N   0  0  0  0  0  0  0  0  0  0  0  0
    9.1902  -16.7532   19.9229 C   0  0  0  0  0  0  0  0  0  0  0  0
    8.7246  -17.6367   20.6884 O   0  0  0  0  0  0  0  0  0  0  0  0
   10.2801  -16.0036   20.3955 N   0  0  0  0  0  0  0  0  0  0  0  0
   11.0089  -16.2975   21.6401 C   0  0  1  0  0  0  0  0  0  0  0  0
   12.4359  -15.8653   21.5190 C   0  0  0  0  0  0  0  0  0  0  0  0
   12.6128  -14.9730   20.3259 C   0  0  0  0  0  0  0  0  0  0  0  0
   14.0439  -14.5331   20.1950 C   0  0  0  0  0  0  0  0  0  0  0  0
   14.7154  -14.0960   21.1576 O   0  0  0  0  0  0  0  0  0  0  0  0
   10.2916  -15.7934   22.8030 C   0  0  0  0  0  0  0  0  0  0  0  0
    9.8078  -14.6462   22.8387 O   0  0  0  0  0  0  0  0  0  0  0  0
   14.6240  -14.6237   18.9485 O   0  0  0  0  0  0  0  0  0  0  0  0
   10.0884  -16.5727   23.9857 N   0  0  0  0  0  0  0  0  0  0  0  0
    9.3708  -16.0843   25.1424 C   0  0  1  0  0  0  0  0  0  0  0  0
    8.1107  -16.8936   25.4027 C   0  0  0  0  0  0  0  0  0  0  0  0
    8.3992  -18.3090   25.7293 C   0  0  0  0  0  0  0  0  0  0  0  0
    7.1852  -19.1813   25.8015 C   0  0  0  0  0  0  0  0  0  0  0  0
    7.4508  -20.6449   26.0036 C   0  0  0  0  0  0  0  0  0  0  0  0
    6.2946  -21.4738   26.0439 N   0  0  0  0  0  0  0  0  0  0  0  0
   10.2237  -16.1411   26.3537 C   0  0  0  0  0  0  0  0  0  0  0  0
   11.4646  -16.7559   26.3570 O   0  0  0  0  0  0  0  0  0  0  0  0
    9.8226  -15.6189   27.4220 O   0  0  0  0  0  0  0  0  0  0  0  0
  2  1  1  1
  3  2  1  0
  4  3  1  0
  4  8  1  0
  5  6  1  0
  5  4  2  0
  6  7  1  0
  7  8  2  0
  9 10  2  0
  9  2  1  0
 11  9  1  0
 12 11  1  0
 12 13  1  6
 14 13  1  0
 15 14  1  0
 16 15  2  0
 17 12  1  0
 18 17  2  0
 19 15  1  0
 20 17  1  0
 21 27  1  0
 21 20  1  0
 21 22  1  1
 23 22  1  0
 24 23  1  0
 25 24  1  0
 26 25  1  0
 27 28  1  0
 29 27  2  0
M  END
$$$$
