HEK.pdb
     RDKit          3D

 29 29  0  0  1  0  0  0  0  0999 V2000
    8.0369  -17.7654   18.8275 N   0  0  0  0  0  0  0  0  0  0  0  0
    8.5137  -16.7110   19.6844 C   0  0  1  0  0  0  0  0  0  0  0  0
    7.5249  -15.5909   19.6470 C   0  0  0  0  0  0  0  0  0  0  0  0
    7.8548  -14.7086   18.4982 C   0  0  0  0  0  0  0  0  0  0  0  0
    8.8627  -14.8518   17.5662 C   0  0  0  0  0  0  0  0  0  0  0  0
    8.8366  -13.8389   16.6772 N   0  0  0  0  0  0  0  0  0  0  0  0
    7.8260  -13.0559   17.0332 C   0  0  0  0  0  0  0  0  0  0  0  0
    7.2172  -13.5593   18.1299 N   0  0  0  0  0  0  0  0  0  0  0  0
    8.8273  -17.1730   21.0523 C   0  0  0  0  0  0  0  0  0  0  0  0
    7.8801  -17.6080   21.7572 O   0  0  0  0  0  0  0  0  0  0  0  0
   10.1073  -17.1649   21.6310 N   0  0  0  0  0  0  0  0  0  0  0  0
   10.3856  -17.5330   23.0287 C   0  0  1  0  0  0  0  0  0  0  0  0
   11.6665  -18.3006   23.1168 C   0  0  0  0  0  0  0  0  0  0  0  0
   12.7825  -17.5318   22.4730 C   0  0  0  0  0  0  0  0  0  0  0  0
   14.0572  -18.3277   22.4868 C   0  0  0  0  0  0  0  0  0  0  0  0
   15.1281  -17.9121   21.9875 O   0  0  0  0  0  0  0  0  0  0  0  0
   10.2780  -16.3782   23.9097 C   0  0  0  0  0  0  0  0  0  0  0  0
   10.7358  -15.2620   23.5999 O   0  0  0  0  0  0  0  0  0  0  0  0
   14.0231  -19.5701   23.0817 O   0  0  0  0  0  0  0  0  0  0  0  0
    9.6418  -16.4371   25.1899 N   0  0  0  0  0  0  0  0  0  0  0  0
    9.4939  -15.2872   26.0544 C   0  0  1  0  0  0  0  0  0  0  0  0
    8.1504  -14.6050   25.8541 C   0  0  0  0  0  0  0  0  0  0  0  0
    7.9542  -13.4534   26.7644 C   0  0  0  0  0  0  0  0  0  0  0  0
    6.6527  -12.7385   26.5770 C   0  0  0  0  0  0  0  0  0  0  0  0
    6.4670  -11.5030   27.4092 C   0  0  0  0  0  0  0  0  0  0  0  0
    5.1731  -10.9140   27.3447 N   0  0  0  0  0  0  0  0  0  0  0  0
    9.6128  -15.6807   27.4789 C   0  0  0  0  0  0  0  0  0  0  0  0
    9.8462  -16.9890   27.8683 O   0  0  0  0  0  0  0  0  0  0  0  0
    9.5006  -14.8106   28.3760 O   0  0  0  0  0  0  0  0  0  0  0  0
  2  1  1  6
  3  2  1  0
  4  3  1  0
  4  8  1  0
  5  6  1  0
  5  4  2  0
  6  7  1  0
  7  8  2  0
  9 10  2  0
  9  2  1  0
 11  9  1  0
 12 11  1  0
 12 13  1  6
 14 13  1  0
 15 14  1  0
 16 15  2  0
 17 12  1  0
 18 17  2  0
 19 15  1  0
 20 17  1  0
 21 27  1  0
 21 20  1  0
 21 22  1  1
 23 22  1  0
 24 23  1  0
 25 24  1  0
 26 25  1  0
 27 28  1  0
 29 27  2  0
M  END
$$$$
