HEK.pdb
     RDKit          3D

 29 29  0  0  1  0  0  0  0  0999 V2000
   10.1971  -15.6908   17.7296 N   0  0  0  0  0  0  0  0  0  0  0  0
    8.8921  -15.4888   18.3037 C   0  0  1  0  0  0  0  0  0  0  0  0
    7.8675  -15.9409   17.3138 C   0  0  0  0  0  0  0  0  0  0  0  0
    7.9333  -15.0503   16.1267 C   0  0  0  0  0  0  0  0  0  0  0  0
    8.8457  -14.0522   15.8505 C   0  0  0  0  0  0  0  0  0  0  0  0
    8.5672  -13.4661   14.6690 N   0  0  0  0  0  0  0  0  0  0  0  0
    7.4908  -14.0792   14.1928 C   0  0  0  0  0  0  0  0  0  0  0  0
    7.0887  -15.0397   15.0545 N   0  0  0  0  0  0  0  0  0  0  0  0
    8.7408  -16.1141   19.6337 C   0  0  0  0  0  0  0  0  0  0  0  0
    7.6164  -16.0398   20.1936 O   0  0  0  0  0  0  0  0  0  0  0  0
    9.7596  -16.7893   20.3263 N   0  0  0  0  0  0  0  0  0  0  0  0
    9.6257  -17.3053   21.6983 C   0  0  1  0  0  0  0  0  0  0  0  0
   10.5440  -18.4675   21.9064 C   0  0  0  0  0  0  0  0  0  0  0  0
   10.0126  -19.6855   21.2099 C   0  0  0  0  0  0  0  0  0  0  0  0
   10.3339  -20.9297   21.9892 C   0  0  0  0  0  0  0  0  0  0  0  0
   11.0828  -21.8345   21.5542 O   0  0  0  0  0  0  0  0  0  0  0  0
    9.7307  -16.2325   22.6777 C   0  0  0  0  0  0  0  0  0  0  0  0
   10.7673  -15.5550   22.8117 O   0  0  0  0  0  0  0  0  0  0  0  0
    9.7673  -21.0600   23.2384 O   0  0  0  0  0  0  0  0  0  0  0  0
    8.6578  -15.8766   23.5550 N   0  0  0  0  0  0  0  0  0  0  0  0
    8.7627  -14.8348   24.5525 C   0  0  1  0  0  0  0  0  0  0  0  0
    7.4200  -14.1720   24.8135 C   0  0  0  0  0  0  0  0  0  0  0  0
    7.4954  -13.1214   25.8546 C   0  0  0  0  0  0  0  0  0  0  0  0
    6.1747  -12.5122   26.2076 C   0  0  0  0  0  0  0  0  0  0  0  0
    6.2190  -11.4245   27.2414 C   0  0  0  0  0  0  0  0  0  0  0  0
    4.9643  -10.8305   27.5546 N   0  0  0  0  0  0  0  0  0  0  0  0
    9.2732  -15.3812   25.8327 C   0  0  0  0  0  0  0  0  0  0  0  0
    9.9943  -14.6120   26.7306 O   0  0  0  0  0  0  0  0  0  0  0  0
    9.0532  -16.5806   26.1290 O   0  0  0  0  0  0  0  0  0  0  0  0
  2  1  1  6
  3  2  1  0
  4  3  1  0
  4  8  1  0
  5  6  1  0
  5  4  2  0
  6  7  1  0
  7  8  2  0
  9 10  2  0
  9  2  1  0
 11  9  1  0
 12 11  1  0
 12 13  1  1
 14 13  1  0
 15 14  1  0
 16 15  2  0
 17 12  1  0
 18 17  2  0
 19 15  1  0
 20 17  1  0
 21 27  1  0
 21 20  1  0
 21 22  1  1
 23 22  1  0
 24 23  1  0
 25 24  1  0
 26 25  1  0
 27 28  1  0
 29 27  2  0
M  END
$$$$
