HEK.pdb
     RDKit          3D

 29 29  0  0  1  0  0  0  0  0999 V2000
   10.3244  -15.3679   18.6508 N   0  0  0  0  0  0  0  0  0  0  0  0
    9.0680  -15.4728   19.3463 C   0  0  1  0  0  0  0  0  0  0  0  0
    8.0589  -16.0547   18.4099 C   0  0  0  0  0  0  0  0  0  0  0  0
    7.8291  -15.0891   17.3046 C   0  0  0  0  0  0  0  0  0  0  0  0
    8.5122  -13.9225   17.0265 C   0  0  0  0  0  0  0  0  0  0  0  0
    8.0006  -13.3198   15.9348 N   0  0  0  0  0  0  0  0  0  0  0  0
    7.0026  -14.0885   15.5173 C   0  0  0  0  0  0  0  0  0  0  0  0
    6.8786  -15.1631   16.3277 N   0  0  0  0  0  0  0  0  0  0  0  0
    9.1731  -16.2041   20.6258 C   0  0  0  0  0  0  0  0  0  0  0  0
    8.1160  -16.3985   21.2801 O   0  0  0  0  0  0  0  0  0  0  0  0
   10.3674  -16.7025   21.1723 N   0  0  0  0  0  0  0  0  0  0  0  0
   10.4605  -17.3845   22.4733 C   0  0  1  0  0  0  0  0  0  0  0  0
   11.6408  -18.3033   22.4930 C   0  0  0  0  0  0  0  0  0  0  0  0
   11.4910  -19.3700   21.4487 C   0  0  0  0  0  0  0  0  0  0  0  0
   12.7015  -20.2600   21.4162 C   0  0  0  0  0  0  0  0  0  0  0  0
   13.8692  -19.8219   21.3006 O   0  0  0  0  0  0  0  0  0  0  0  0
   10.3799  -16.4342   23.5740 C   0  0  0  0  0  0  0  0  0  0  0  0
   11.2561  -15.5712   23.7715 O   0  0  0  0  0  0  0  0  0  0  0  0
   12.4934  -21.6181   21.5201 O   0  0  0  0  0  0  0  0  0  0  0  0
    9.2947  -16.4190   24.5065 N   0  0  0  0  0  0  0  0  0  0  0  0
    9.2762  -15.5833   25.6866 C   0  0  1  0  0  0  0  0  0  0  0  0
    7.9204  -14.9257   25.8860 C   0  0  0  0  0  0  0  0  0  0  0  0
    8.0235  -13.4680   26.1269 C   0  0  0  0  0  0  0  0  0  0  0  0
    6.7050  -12.7786   26.2888 C   0  0  0  0  0  0  0  0  0  0  0  0
    6.7748  -11.3061   26.5721 C   0  0  0  0  0  0  0  0  0  0  0  0
    5.5193  -10.6404   26.6487 N   0  0  0  0  0  0  0  0  0  0  0  0
    9.5961  -16.3759   26.8980 C   0  0  0  0  0  0  0  0  0  0  0  0
    9.7761  -17.7485   26.8583 O   0  0  0  0  0  0  0  0  0  0  0  0
    9.7116  -15.7990   28.0063 O   0  0  0  0  0  0  0  0  0  0  0  0
  2  1  1  6
  3  2  1  0
  4  3  1  0
  4  8  1  0
  5  6  1  0
  5  4  2  0
  6  7  1  0
  7  8  2  0
  9 10  2  0
  9  2  1  0
 11  9  1  0
 12 11  1  0
 12 13  1  6
 14 13  1  0
 15 14  1  0
 16 15  2  0
 17 12  1  0
 18 17  2  0
 19 15  1  0
 20 17  1  0
 21 27  1  0
 21 20  1  0
 21 22  1  1
 23 22  1  0
 24 23  1  0
 25 24  1  0
 26 25  1  0
 27 28  1  0
 29 27  2  0
M  END
$$$$
