HEK.pdb
     RDKit          3D

 29 29  0  0  1  0  0  0  0  0999 V2000
   10.2132  -15.8483   18.5765 N   0  0  0  0  0  0  0  0  0  0  0  0
    9.2460  -15.4088   19.5486 C   0  0  1  0  0  0  0  0  0  0  0  0
    7.8906  -15.4618   18.9209 C   0  0  0  0  0  0  0  0  0  0  0  0
    7.9350  -14.7132   17.6386 C   0  0  0  0  0  0  0  0  0  0  0  0
    8.3168  -13.4050   17.4198 C   0  0  0  0  0  0  0  0  0  0  0  0
    8.2173  -13.0922   16.1124 N   0  0  0  0  0  0  0  0  0  0  0  0
    7.7777  -14.1843   15.4998 C   0  0  0  0  0  0  0  0  0  0  0  0
    7.5995  -15.1770   16.3994 N   0  0  0  0  0  0  0  0  0  0  0  0
    9.3316  -16.1464   20.8259 C   0  0  0  0  0  0  0  0  0  0  0  0
    8.2747  -16.2904   21.4933 O   0  0  0  0  0  0  0  0  0  0  0  0
   10.5071  -16.7030   21.3567 N   0  0  0  0  0  0  0  0  0  0  0  0
   10.5875  -17.3746   22.6640 C   0  0  1  0  0  0  0  0  0  0  0  0
   11.7751  -18.2830   22.7074 C   0  0  0  0  0  0  0  0  0  0  0  0
   11.5893  -19.4326   21.7615 C   0  0  0  0  0  0  0  0  0  0  0  0
   12.8074  -20.3125   21.7439 C   0  0  0  0  0  0  0  0  0  0  0  0
   13.0406  -21.1749   22.6218 O   0  0  0  0  0  0  0  0  0  0  0  0
   10.4831  -16.4168   23.7562 C   0  0  0  0  0  0  0  0  0  0  0  0
   11.3541  -15.5513   23.9658 O   0  0  0  0  0  0  0  0  0  0  0  0
   13.6957  -20.1455   20.7038 O   0  0  0  0  0  0  0  0  0  0  0  0
    9.3789  -16.3965   24.6660 N   0  0  0  0  0  0  0  0  0  0  0  0
    9.3267  -15.5386   25.8291 C   0  0  1  0  0  0  0  0  0  0  0  0
    7.9627  -14.8854   25.9825 C   0  0  0  0  0  0  0  0  0  0  0  0
    8.0528  -13.4274   26.2262 C   0  0  0  0  0  0  0  0  0  0  0  0
    6.7292  -12.7539   26.4123 C   0  0  0  0  0  0  0  0  0  0  0  0
    6.7819  -11.2673   26.6137 C   0  0  0  0  0  0  0  0  0  0  0  0
    5.5368  -10.6497   26.9200 N   0  0  0  0  0  0  0  0  0  0  0  0
    9.6210  -16.3060   27.0630 C   0  0  0  0  0  0  0  0  0  0  0  0
    9.9592  -15.6886   28.2556 O   0  0  0  0  0  0  0  0  0  0  0  0
    9.5665  -17.5595   27.0438 O   0  0  0  0  0  0  0  0  0  0  0  0
  2  1  1  6
  3  2  1  0
  4  3  1  0
  4  8  1  0
  5  6  1  0
  5  4  2  0
  6  7  1  0
  7  8  2  0
  9 10  2  0
  9  2  1  0
 11  9  1  0
 12 11  1  0
 12 13  1  6
 14 13  1  0
 15 14  1  0
 16 15  2  0
 17 12  1  0
 18 17  2  0
 19 15  1  0
 20 17  1  0
 21 27  1  0
 21 20  1  0
 21 22  1  1
 23 22  1  0
 24 23  1  0
 25 24  1  0
 26 25  1  0
 27 28  1  0
 29 27  2  0
M  END
$$$$
