HEK.pdb
     RDKit          3D

 29 29  0  0  1  0  0  0  0  0999 V2000
    9.9264  -15.9681   18.3131 N   0  0  0  0  0  0  0  0  0  0  0  0
    8.9189  -15.3374   19.1257 C   0  0  1  0  0  0  0  0  0  0  0  0
    7.6177  -15.3973   18.3927 C   0  0  0  0  0  0  0  0  0  0  0  0
    7.8074  -14.8009   17.0454 C   0  0  0  0  0  0  0  0  0  0  0  0
    8.1966  -13.5172   16.7207 C   0  0  0  0  0  0  0  0  0  0  0  0
    8.2519  -13.3603   15.3831 N   0  0  0  0  0  0  0  0  0  0  0  0
    7.9031  -14.5271   14.8557 C   0  0  0  0  0  0  0  0  0  0  0  0
    7.6298  -15.4136   15.8386 N   0  0  0  0  0  0  0  0  0  0  0  0
    8.8486  -15.8896   20.4943 C   0  0  0  0  0  0  0  0  0  0  0  0
    7.8533  -15.5840   21.2009 O   0  0  0  0  0  0  0  0  0  0  0  0
    9.8112  -16.7341   21.0719 N   0  0  0  0  0  0  0  0  0  0  0  0
    9.7492  -17.2354   22.4544 C   0  0  1  0  0  0  0  0  0  0  0  0
   10.7590  -18.3200   22.6577 C   0  0  0  0  0  0  0  0  0  0  0  0
   10.6945  -18.8380   24.0643 C   0  0  0  0  0  0  0  0  0  0  0  0
   11.7613  -19.8691   24.3036 C   0  0  0  0  0  0  0  0  0  0  0  0
   11.5539  -20.9353   24.9272 O   0  0  0  0  0  0  0  0  0  0  0  0
    9.7937  -16.1412   23.4146 C   0  0  0  0  0  0  0  0  0  0  0  0
   10.7542  -15.3506   23.4761 O   0  0  0  0  0  0  0  0  0  0  0  0
   13.0190  -19.6084   23.8047 O   0  0  0  0  0  0  0  0  0  0  0  0
    8.7439  -15.8921   24.3545 N   0  0  0  0  0  0  0  0  0  0  0  0
    8.7636  -14.7893   25.2898 C   0  0  1  0  0  0  0  0  0  0  0  0
    7.4333  -14.0544   25.3173 C   0  0  0  0  0  0  0  0  0  0  0  0
    7.4093  -12.9553   26.3096 C   0  0  0  0  0  0  0  0  0  0  0  0
    6.1163  -12.2033   26.3604 C   0  0  0  0  0  0  0  0  0  0  0  0
    6.0790  -11.0434   27.3126 C   0  0  0  0  0  0  0  0  0  0  0  0
    4.8852  -10.2691   27.2829 N   0  0  0  0  0  0  0  0  0  0  0  0
    9.0642  -15.2671   26.6608 C   0  0  0  0  0  0  0  0  0  0  0  0
    9.1048  -16.6133   26.9831 O   0  0  0  0  0  0  0  0  0  0  0  0
    9.2923  -14.4362   27.5730 O   0  0  0  0  0  0  0  0  0  0  0  0
  2  1  1  6
  3  2  1  0
  4  3  1  0
  4  8  1  0
  5  6  1  0
  5  4  2  0
  6  7  1  0
  7  8  2  0
  9 10  2  0
  9  2  1  0
 11  9  1  0
 12 11  1  0
 12 13  1  1
 14 13  1  0
 15 14  1  0
 16 15  2  0
 17 12  1  0
 18 17  2  0
 19 15  1  0
 20 17  1  0
 21 27  1  0
 21 20  1  0
 21 22  1  1
 23 22  1  0
 24 23  1  0
 25 24  1  0
 26 25  1  0
 27 28  1  0
 29 27  2  0
M  END
$$$$
