HEK.pdb
     RDKit          3D

 29 29  0  0  1  0  0  0  0  0999 V2000
   10.5725  -16.0939   18.1201 N   0  0  0  0  0  0  0  0  0  0  0  0
    9.3647  -15.7056   18.8013 C   0  0  1  0  0  0  0  0  0  0  0  0
    8.1987  -16.1017   17.9544 C   0  0  0  0  0  0  0  0  0  0  0  0
    8.0631  -15.1187   16.8489 C   0  0  0  0  0  0  0  0  0  0  0  0
    8.8420  -14.0106   16.5837 C   0  0  0  0  0  0  0  0  0  0  0  0
    8.3960  -13.3666   15.4868 N   0  0  0  0  0  0  0  0  0  0  0  0
    7.3453  -14.0515   15.0532 C   0  0  0  0  0  0  0  0  0  0  0  0
    7.1237  -15.1140   15.8586 N   0  0  0  0  0  0  0  0  0  0  0  0
    9.2885  -16.2197   20.1843 C   0  0  0  0  0  0  0  0  0  0  0  0
    8.2593  -15.9492   20.8560 O   0  0  0  0  0  0  0  0  0  0  0  0
   10.2803  -16.9916   20.8120 N   0  0  0  0  0  0  0  0  0  0  0  0
   10.1647  -17.5386   22.1736 C   0  0  1  0  0  0  0  0  0  0  0  0
   11.1997  -18.5953   22.3967 C   0  0  0  0  0  0  0  0  0  0  0  0
   11.1363  -19.1000   23.8082 C   0  0  0  0  0  0  0  0  0  0  0  0
   12.2208  -20.1083   24.0645 C   0  0  0  0  0  0  0  0  0  0  0  0
   13.0483  -20.4589   23.1921 O   0  0  0  0  0  0  0  0  0  0  0  0
   10.1217  -16.4749   23.1675 C   0  0  0  0  0  0  0  0  0  0  0  0
   11.0787  -15.6989   23.3511 O   0  0  0  0  0  0  0  0  0  0  0  0
   12.2893  -20.6599   25.3253 O   0  0  0  0  0  0  0  0  0  0  0  0
    8.9842  -16.2410   24.0033 N   0  0  0  0  0  0  0  0  0  0  0  0
    8.9233  -15.1740   24.9776 C   0  0  1  0  0  0  0  0  0  0  0  0
    7.5822  -14.4592   24.9422 C   0  0  0  0  0  0  0  0  0  0  0  0
    7.5213  -13.3143   25.8797 C   0  0  0  0  0  0  0  0  0  0  0  0
    6.2263  -12.5646   25.8486 C   0  0  0  0  0  0  0  0  0  0  0  0
    6.1494  -11.3676   26.7513 C   0  0  0  0  0  0  0  0  0  0  0  0
    4.8834  -10.7190   26.7962 N   0  0  0  0  0  0  0  0  0  0  0  0
    9.1395  -15.6986   26.3472 C   0  0  0  0  0  0  0  0  0  0  0  0
    9.7029  -14.9316   27.3533 O   0  0  0  0  0  0  0  0  0  0  0  0
    8.8062  -16.8768   26.6219 O   0  0  0  0  0  0  0  0  0  0  0  0
  2  1  1  6
  3  2  1  0
  4  3  1  0
  4  8  1  0
  5  6  1  0
  5  4  2  0
  6  7  1  0
  7  8  2  0
  9 10  2  0
  9  2  1  0
 11  9  1  0
 12 11  1  0
 12 13  1  1
 14 13  1  0
 15 14  1  0
 16 15  2  0
 17 12  1  0
 18 17  2  0
 19 15  1  0
 20 17  1  0
 21 27  1  0
 21 20  1  0
 21 22  1  1
 23 22  1  0
 24 23  1  0
 25 24  1  0
 26 25  1  0
 27 28  1  0
 29 27  2  0
M  END
$$$$
