HEK.pdb
     RDKit          3D

 29 29  0  0  1  0  0  0  0  0999 V2000
    7.7888  -16.7891   17.4818 N   0  0  0  0  0  0  0  0  0  0  0  0
    8.6290  -15.9572   18.3035 C   0  0  1  0  0  0  0  0  0  0  0  0
    8.1951  -14.5370   18.1339 C   0  0  0  0  0  0  0  0  0  0  0  0
    8.2625  -14.1923   16.6905 C   0  0  0  0  0  0  0  0  0  0  0  0
    7.3231  -13.5399   15.9179 C   0  0  0  0  0  0  0  0  0  0  0  0
    7.7544  -13.4169   14.6468 N   0  0  0  0  0  0  0  0  0  0  0  0
    8.9542  -13.9824   14.6034 C   0  0  0  0  0  0  0  0  0  0  0  0
    9.2837  -14.4582   15.8248 N   0  0  0  0  0  0  0  0  0  0  0  0
    8.6747  -16.3935   19.7142 C   0  0  0  0  0  0  0  0  0  0  0  0
    7.5812  -16.5497   20.3168 O   0  0  0  0  0  0  0  0  0  0  0  0
    9.8500  -16.6495   20.4400 N   0  0  0  0  0  0  0  0  0  0  0  0
    9.8757  -17.1795   21.8129 C   0  0  1  0  0  0  0  0  0  0  0  0
   10.9445  -18.2173   21.9474 C   0  0  0  0  0  0  0  0  0  0  0  0
   12.1707  -17.8072   21.1864 C   0  0  0  0  0  0  0  0  0  0  0  0
   13.2809  -18.8002   21.3863 C   0  0  0  0  0  0  0  0  0  0  0  0
   14.0276  -18.7976   22.3919 O   0  0  0  0  0  0  0  0  0  0  0  0
    9.9118  -16.1031   22.7932 C   0  0  0  0  0  0  0  0  0  0  0  0
   10.7023  -15.1451   22.6985 O   0  0  0  0  0  0  0  0  0  0  0  0
   13.4678  -19.7490   20.4048 O   0  0  0  0  0  0  0  0  0  0  0  0
    9.0472  -16.0635   23.9327 N   0  0  0  0  0  0  0  0  0  0  0  0
    9.0561  -14.9854   24.8965 C   0  0  1  0  0  0  0  0  0  0  0  0
    7.6859  -14.3408   25.0286 C   0  0  0  0  0  0  0  0  0  0  0  0
    7.6859  -13.1859   25.9557 C   0  0  0  0  0  0  0  0  0  0  0  0
    6.3435  -12.5519   26.1453 C   0  0  0  0  0  0  0  0  0  0  0  0
    6.3294  -11.3019   26.9764 C   0  0  0  0  0  0  0  0  0  0  0  0
    5.0751  -10.6336   27.0501 N   0  0  0  0  0  0  0  0  0  0  0  0
    9.4747  -15.4761   26.2315 C   0  0  0  0  0  0  0  0  0  0  0  0
    9.9877  -14.6326   27.2027 O   0  0  0  0  0  0  0  0  0  0  0  0
    9.3671  -16.6954   26.5079 O   0  0  0  0  0  0  0  0  0  0  0  0
  2  1  1  6
  3  2  1  0
  4  3  1  0
  4  8  1  0
  5  6  1  0
  5  4  2  0
  6  7  1  0
  7  8  2  0
  9 10  2  0
  9  2  1  0
 11  9  1  0
 12 11  1  0
 12 13  1  6
 14 13  1  0
 15 14  1  0
 16 15  2  0
 17 12  1  0
 18 17  2  0
 19 15  1  0
 20 17  1  0
 21 27  1  0
 21 20  1  0
 21 22  1  1
 23 22  1  0
 24 23  1  0
 25 24  1  0
 26 25  1  0
 27 28  1  0
 29 27  2  0
M  END
$$$$
