HEK.pdb
     RDKit          3D

 29 29  0  0  1  0  0  0  0  0999 V2000
    9.6543  -15.9387   17.6646 N   0  0  0  0  0  0  0  0  0  0  0  0
   10.4466  -14.9027   18.2748 C   0  0  1  0  0  0  0  0  0  0  0  0
    9.7049  -14.3813   19.4630 C   0  0  0  0  0  0  0  0  0  0  0  0
    8.4774  -13.6927   18.9879 C   0  0  0  0  0  0  0  0  0  0  0  0
    8.0154  -13.5541   17.6947 C   0  0  0  0  0  0  0  0  0  0  0  0
    6.8612  -12.8583   17.6734 N   0  0  0  0  0  0  0  0  0  0  0  0
    6.5854  -12.5541   18.9354 C   0  0  0  0  0  0  0  0  0  0  0  0
    7.5461  -13.0466   19.7485 N   0  0  0  0  0  0  0  0  0  0  0  0
   11.8252  -15.3342   18.5851 C   0  0  0  0  0  0  0  0  0  0  0  0
   11.9900  -16.4992   19.0311 O   0  0  0  0  0  0  0  0  0  0  0  0
   12.9731  -14.5415   18.4202 N   0  0  0  0  0  0  0  0  0  0  0  0
   14.3292  -14.9571   18.8138 C   0  0  1  0  0  0  0  0  0  0  0  0
   15.3513  -14.2143   18.0132 C   0  0  0  0  0  0  0  0  0  0  0  0
   16.7347  -14.5679   18.4737 C   0  0  0  0  0  0  0  0  0  0  0  0
   17.7706  -13.8593   17.6471 C   0  0  0  0  0  0  0  0  0  0  0  0
   18.4012  -14.4147   16.7184 O   0  0  0  0  0  0  0  0  0  0  0  0
   14.4979  -14.9055   20.2595 C   0  0  0  0  0  0  0  0  0  0  0  0
   14.3639  -13.8494   20.9062 O   0  0  0  0  0  0  0  0  0  0  0  0
   18.0222  -12.5371   17.9423 O   0  0  0  0  0  0  0  0  0  0  0  0
   14.8278  -16.0567   21.0425 N   0  0  0  0  0  0  0  0  0  0  0  0
   14.8656  -16.0469   22.4882 C   0  0  1  0  0  0  0  0  0  0  0  0
   14.2017  -17.2824   23.0742 C   0  0  0  0  0  0  0  0  0  0  0  0
   14.2539  -17.3101   24.5540 C   0  0  0  0  0  0  0  0  0  0  0  0
   13.5028  -18.4472   25.1728 C   0  0  0  0  0  0  0  0  0  0  0  0
   13.3717  -18.3994   26.6675 C   0  0  0  0  0  0  0  0  0  0  0  0
   12.6293  -19.4657   27.2482 N   0  0  0  0  0  0  0  0  0  0  0  0
   16.2638  -15.9884   22.9779 C   0  0  0  0  0  0  0  0  0  0  0  0
   16.5877  -15.5096   24.2364 O   0  0  0  0  0  0  0  0  0  0  0  0
   17.1986  -16.3824   22.2394 O   0  0  0  0  0  0  0  0  0  0  0  0
  2  1  1  1
  3  2  1  0
  4  3  1  0
  4  8  1  0
  5  6  1  0
  5  4  2  0
  6  7  1  0
  7  8  2  0
  9 10  2  0
  9  2  1  0
 11  9  1  0
 12 11  1  0
 12 13  1  6
 14 13  1  0
 15 14  1  0
 16 15  2  0
 17 12  1  0
 18 17  2  0
 19 15  1  0
 20 17  1  0
 21 27  1  0
 21 20  1  0
 21 22  1  1
 23 22  1  0
 24 23  1  0
 25 24  1  0
 26 25  1  0
 27 28  1  0
 29 27  2  0
M  END
$$$$
