HEK.pdb
     RDKit          3D

 29 29  0  0  1  0  0  0  0  0999 V2000
    8.2600  -16.4988   17.8284 N   0  0  0  0  0  0  0  0  0  0  0  0
    8.6395  -15.8957   19.0798 C   0  0  1  0  0  0  0  0  0  0  0  0
    7.4866  -15.0875   19.5813 C   0  0  0  0  0  0  0  0  0  0  0  0
    7.2318  -13.9829   18.6212 C   0  0  0  0  0  0  0  0  0  0  0  0
    7.6728  -12.6763   18.6776 C   0  0  0  0  0  0  0  0  0  0  0  0
    7.2262  -11.9768   17.6155 N   0  0  0  0  0  0  0  0  0  0  0  0
    6.5084  -12.8223   16.8868 C   0  0  0  0  0  0  0  0  0  0  0  0
    6.4963  -14.0402   17.4728 N   0  0  0  0  0  0  0  0  0  0  0  0
    9.1445  -16.8740   20.0651 C   0  0  0  0  0  0  0  0  0  0  0  0
    8.6917  -18.0469   20.0138 O   0  0  0  0  0  0  0  0  0  0  0  0
   10.0961  -16.5960   21.0603 N   0  0  0  0  0  0  0  0  0  0  0  0
   11.0073  -17.5981   21.6367 C   0  0  1  0  0  0  0  0  0  0  0  0
   11.7401  -18.3179   20.5493 C   0  0  0  0  0  0  0  0  0  0  0  0
   12.6941  -19.3173   21.1340 C   0  0  0  0  0  0  0  0  0  0  0  0
   12.5415  -20.6554   20.4672 C   0  0  0  0  0  0  0  0  0  0  0  0
   11.8635  -21.5888   20.9549 O   0  0  0  0  0  0  0  0  0  0  0  0
   11.8381  -17.0162   22.6818 C   0  0  0  0  0  0  0  0  0  0  0  0
   12.7916  -16.2566   22.4261 O   0  0  0  0  0  0  0  0  0  0  0  0
   13.1863  -20.8419   19.2639 O   0  0  0  0  0  0  0  0  0  0  0  0
   11.6235  -17.2704   24.0735 N   0  0  0  0  0  0  0  0  0  0  0  0
   12.4489  -16.7058   25.1181 C   0  0  1  0  0  0  0  0  0  0  0  0
   12.0642  -17.2422   26.4874 C   0  0  0  0  0  0  0  0  0  0  0  0
   12.7144  -18.5364   26.7963 C   0  0  0  0  0  0  0  0  0  0  0  0
   12.3119  -19.1263   28.1116 C   0  0  0  0  0  0  0  0  0  0  0  0
   12.9643  -20.4320   28.4623 C   0  0  0  0  0  0  0  0  0  0  0  0
   12.5400  -21.0145   29.6896 N   0  0  0  0  0  0  0  0  0  0  0  0
   13.8804  -17.0099   24.8803 C   0  0  0  0  0  0  0  0  0  0  0  0
   14.8992  -16.2290   25.4000 O   0  0  0  0  0  0  0  0  0  0  0  0
   14.1978  -18.0059   24.1861 O   0  0  0  0  0  0  0  0  0  0  0  0
  2  1  1  6
  3  2  1  0
  4  3  1  0
  4  8  1  0
  5  6  1  0
  5  4  2  0
  6  7  1  0
  7  8  2  0
  9 10  2  0
  9  2  1  0
 11  9  1  0
 12 11  1  0
 12 13  1  6
 14 13  1  0
 15 14  1  0
 16 15  2  0
 17 12  1  0
 18 17  2  0
 19 15  1  0
 20 17  1  0
 21 27  1  0
 21 20  1  0
 21 22  1  1
 23 22  1  0
 24 23  1  0
 25 24  1  0
 26 25  1  0
 27 28  1  0
 29 27  2  0
M  END
$$$$
