HEK.pdb
     RDKit          3D

 29 29  0  0  1  0  0  0  0  0999 V2000
    8.0766  -17.5929   18.1930 N   0  0  0  0  0  0  0  0  0  0  0  0
    8.8142  -16.8765   19.2011 C   0  0  1  0  0  0  0  0  0  0  0  0
    7.8453  -16.0887   20.0223 C   0  0  0  0  0  0  0  0  0  0  0  0
    7.9237  -14.6645   19.6071 C   0  0  0  0  0  0  0  0  0  0  0  0
    8.6725  -14.1053   18.5915 C   0  0  0  0  0  0  0  0  0  0  0  0
    8.4729  -12.7737   18.5305 N   0  0  0  0  0  0  0  0  0  0  0  0
    7.6079  -12.4814   19.4935 C   0  0  0  0  0  0  0  0  0  0  0  0
    7.2610  -13.6061   20.1581 N   0  0  0  0  0  0  0  0  0  0  0  0
    9.6936  -17.7494   20.0059 C   0  0  0  0  0  0  0  0  0  0  0  0
    9.3475  -18.9491   20.1617 O   0  0  0  0  0  0  0  0  0  0  0  0
   10.8927  -17.3428   20.6142 N   0  0  0  0  0  0  0  0  0  0  0  0
   11.7831  -18.2396   21.3689 C   0  0  1  0  0  0  0  0  0  0  0  0
   13.2063  -18.0145   20.9671 C   0  0  0  0  0  0  0  0  0  0  0  0
   14.1215  -18.8919   21.7694 C   0  0  0  0  0  0  0  0  0  0  0  0
   15.5495  -18.7115   21.3374 C   0  0  0  0  0  0  0  0  0  0  0  0
   15.9159  -18.7806   20.1417 O   0  0  0  0  0  0  0  0  0  0  0  0
   11.5109  -18.1729   22.7981 C   0  0  0  0  0  0  0  0  0  0  0  0
   11.7968  -17.1721   23.4823 O   0  0  0  0  0  0  0  0  0  0  0  0
   16.4824  -18.4590   22.3196 O   0  0  0  0  0  0  0  0  0  0  0  0
   10.8975  -19.2447   23.5208 N   0  0  0  0  0  0  0  0  0  0  0  0
   10.6604  -19.2048   24.9468 C   0  0  1  0  0  0  0  0  0  0  0  0
    9.6361  -20.2435   25.3736 C   0  0  0  0  0  0  0  0  0  0  0  0
    8.8822  -19.8381   26.5821 C   0  0  0  0  0  0  0  0  0  0  0  0
    7.9634  -20.8930   27.1143 C   0  0  0  0  0  0  0  0  0  0  0  0
    7.0904  -20.4727   28.2608 C   0  0  0  0  0  0  0  0  0  0  0  0
    6.1267  -21.4339   28.6768 N   0  0  0  0  0  0  0  0  0  0  0  0
   11.9162  -19.4483   25.6963 C   0  0  0  0  0  0  0  0  0  0  0  0
   12.4870  -18.4888   26.5158 O   0  0  0  0  0  0  0  0  0  0  0  0
   12.4953  -20.5570   25.5963 O   0  0  0  0  0  0  0  0  0  0  0  0
  2  1  1  6
  3  2  1  0
  4  3  1  0
  4  8  1  0
  5  6  1  0
  5  4  2  0
  6  7  1  0
  7  8  2  0
  9 10  2  0
  9  2  1  0
 11  9  1  0
 12 11  1  0
 12 13  1  1
 14 13  1  0
 15 14  1  0
 16 15  2  0
 17 12  1  0
 18 17  2  0
 19 15  1  0
 20 17  1  0
 21 27  1  0
 21 20  1  0
 21 22  1  6
 23 22  1  0
 24 23  1  0
 25 24  1  0
 26 25  1  0
 27 28  1  0
 29 27  2  0
M  END
$$$$
