HEK.pdb
     RDKit          3D

 29 29  0  0  1  0  0  0  0  0999 V2000
    8.9312  -16.7598   19.1687 N   0  0  0  0  0  0  0  0  0  0  0  0
    9.0531  -16.1302   20.4580 C   0  0  1  0  0  0  0  0  0  0  0  0
    7.8311  -15.3030   20.6952 C   0  0  0  0  0  0  0  0  0  0  0  0
    7.7531  -14.2626   19.6377 C   0  0  0  0  0  0  0  0  0  0  0  0
    8.2122  -12.9616   19.6765 C   0  0  0  0  0  0  0  0  0  0  0  0
    7.9504  -12.3295   18.5151 N   0  0  0  0  0  0  0  0  0  0  0  0
    7.3317  -13.2122   17.7410 C   0  0  0  0  0  0  0  0  0  0  0  0
    7.2004  -14.3872   18.3959 N   0  0  0  0  0  0  0  0  0  0  0  0
    9.3349  -17.0885   21.5466 C   0  0  0  0  0  0  0  0  0  0  0  0
    8.3561  -17.6517   22.1017 O   0  0  0  0  0  0  0  0  0  0  0  0
   10.6171  -17.4223   22.0133 N   0  0  0  0  0  0  0  0  0  0  0  0
   10.8809  -18.4093   23.0730 C   0  0  1  0  0  0  0  0  0  0  0  0
   11.8302  -19.4555   22.5815 C   0  0  0  0  0  0  0  0  0  0  0  0
   12.9364  -18.8265   21.7868 C   0  0  0  0  0  0  0  0  0  0  0  0
   13.9200  -19.8647   21.3250 C   0  0  0  0  0  0  0  0  0  0  0  0
   14.4872  -20.6638   22.1050 O   0  0  0  0  0  0  0  0  0  0  0  0
   11.2495  -17.7566   24.3217 C   0  0  0  0  0  0  0  0  0  0  0  0
   12.0599  -16.8115   24.3628 O   0  0  0  0  0  0  0  0  0  0  0  0
   14.1955  -19.9222   19.9761 O   0  0  0  0  0  0  0  0  0  0  0  0
   10.7120  -18.1481   25.5886 N   0  0  0  0  0  0  0  0  0  0  0  0
   11.0695  -17.5049   26.8335 C   0  0  1  0  0  0  0  0  0  0  0  0
    9.8401  -17.0395   27.5968 C   0  0  0  0  0  0  0  0  0  0  0  0
   10.1656  -16.0622   28.6609 C   0  0  0  0  0  0  0  0  0  0  0  0
    9.8085  -14.6482   28.3247 C   0  0  0  0  0  0  0  0  0  0  0  0
   10.1498  -13.6279   29.3716 C   0  0  0  0  0  0  0  0  0  0  0  0
    9.7989  -12.2862   29.0517 N   0  0  0  0  0  0  0  0  0  0  0  0
   11.8390  -18.4285   27.7014 C   0  0  0  0  0  0  0  0  0  0  0  0
   12.7968  -17.9789   28.5949 O   0  0  0  0  0  0  0  0  0  0  0  0
   11.6277  -19.6637   27.6369 O   0  0  0  0  0  0  0  0  0  0  0  0
  2  1  1  6
  3  2  1  0
  4  3  1  0
  4  8  1  0
  5  6  1  0
  5  4  2  0
  6  7  1  0
  7  8  2  0
  9 10  2  0
  9  2  1  0
 11  9  1  0
 12 11  1  0
 12 13  1  6
 14 13  1  0
 15 14  1  0
 16 15  2  0
 17 12  1  0
 18 17  2  0
 19 15  1  0
 20 17  1  0
 21 27  1  0
 21 20  1  0
 21 22  1  1
 23 22  1  0
 24 23  1  0
 25 24  1  0
 26 25  1  0
 27 28  1  0
 29 27  2  0
M  END
$$$$
