CFW.pdb
     RDKit          3D

 32 34  0  0  1  0  0  0  0  0999 V2000
   10.0241  -18.1204   18.3598 N   0  0  0  0  0  0  0  0  0  0  0  0
    9.6030  -18.4549   19.6870 C   0  0  1  0  0  0  0  0  0  0  0  0
   10.3220  -19.6783   20.2015 C   0  0  0  0  0  0  0  0  0  0  0  0
    9.6646  -20.0571   21.8555 S   0  0  0  0  0  0  0  0  0  0  0  0
    9.7461  -17.2866   20.5632 C   0  0  0  0  0  0  0  0  0  0  0  0
   10.7913  -16.5956   20.5064 O   0  0  0  0  0  0  0  0  0  0  0  0
    8.7497  -16.8769   21.4974 N   0  0  0  0  0  0  0  0  0  0  0  0
    8.9473  -15.7467   22.4018 C   0  0  1  0  0  0  0  0  0  0  0  0
    7.7459  -14.8578   22.4552 C   0  0  0  0  0  0  0  0  0  0  0  0
    7.5478  -14.0926   21.1920 C   0  0  0  0  0  0  0  0  0  0  0  0
    8.3000  -12.9613   20.9382 C   0  0  0  0  0  0  0  0  0  0  0  0
    8.1440  -12.2299   19.7788 C   0  0  0  0  0  0  0  0  0  0  0  0
    7.2263  -12.5963   18.8166 C   0  0  0  0  0  0  0  0  0  0  0  0
    6.4714  -13.7248   19.0629 C   0  0  0  0  0  0  0  0  0  0  0  0
    6.6324  -14.4528   20.2256 C   0  0  0  0  0  0  0  0  0  0  0  0
    9.3191  -16.2732   23.7465 C   0  0  0  0  0  0  0  0  0  0  0  0
    8.8723  -17.3941   24.1154 O   0  0  0  0  0  0  0  0  0  0  0  0
   10.1519  -15.5674   24.6253 N   0  0  0  0  0  0  0  0  0  0  0  0
   10.3460  -15.9721   26.0407 C   0  0  1  0  0  0  0  0  0  0  0  0
    8.9834  -16.4055   26.4942 C   0  0  0  0  0  0  0  0  0  0  0  0
    7.8775  -15.4781   26.2757 C   0  0  0  0  0  0  0  0  0  0  0  0
    6.6116  -15.8728   25.8415 C   0  0  0  0  0  0  0  0  0  0  0  0
    5.8598  -14.7716   25.7114 N   0  0  0  0  0  0  0  0  0  0  0  0
    6.5889  -13.7063   26.0425 C   0  0  0  0  0  0  0  0  0  0  0  0
    6.3081  -12.3507   26.1014 C   0  0  0  0  0  0  0  0  0  0  0  0
    7.2256  -11.4097   26.4973 C   0  0  0  0  0  0  0  0  0  0  0  0
    8.4853  -11.8594   26.8501 C   0  0  0  0  0  0  0  0  0  0  0  0
    8.8120  -13.1813   26.8087 C   0  0  0  0  0  0  0  0  0  0  0  0
    7.8645  -14.1101   26.4036 C   0  0  0  0  0  0  0  0  0  0  0  0
   11.3173  -17.0586   26.1373 C   0  0  0  0  0  0  0  0  0  0  0  0
   11.5912  -17.5050   27.3074 O   0  0  0  0  0  0  0  0  0  0  0  0
   11.9740  -17.6669   25.1071 O   0  0  0  0  0  0  0  0  0  0  0  0
  2  1  1  6
  3  2  1  0
  4  3  1  0
  5  2  1  0
  6  5  2  0
  7  5  1  0
  8  7  1  0
  8  9  1  1
 10  9  1  0
 11 10  2  0
 12 11  1  0
 13 12  2  0
 13 14  1  0
 14 15  2  0
 15 10  1  0
 16 18  1  0
 16  8  1  0
 17 16  2  0
 19 18  1  0
 19 30  1  0
 19 20  1  6
 21 22  2  0
 21 20  1  0
 23 22  1  0
 24 29  2  0
 24 23  1  0
 25 24  1  0
 26 27  1  0
 26 25  2  0
 27 28  2  0
 28 29  1  0
 29 21  1  0
 30 32  1  0
 31 30  2  0
M  END
$$$$
