CFW.pdb
     RDKit          3D

 32 34  0  0  1  0  0  0  0  0999 V2000
    9.2754  -18.8854   19.3291 N   0  0  0  0  0  0  0  0  0  0  0  0
    8.8796  -18.7505   20.6987 C   0  0  1  0  0  0  0  0  0  0  0  0
    9.4064  -19.8884   21.5391 C   0  0  0  0  0  0  0  0  0  0  0  0
    8.6424  -19.7652   23.1862 S   0  0  0  0  0  0  0  0  0  0  0  0
    9.2708  -17.4287   21.2014 C   0  0  0  0  0  0  0  0  0  0  0  0
   10.3533  -16.9194   20.8245 O   0  0  0  0  0  0  0  0  0  0  0  0
    8.4807  -16.6679   22.1127 N   0  0  0  0  0  0  0  0  0  0  0  0
    8.8493  -15.3148   22.5218 C   0  0  1  0  0  0  0  0  0  0  0  0
    7.7048  -14.3611   22.3921 C   0  0  0  0  0  0  0  0  0  0  0  0
    7.6391  -13.7313   21.0433 C   0  0  0  0  0  0  0  0  0  0  0  0
    6.7112  -14.1668   20.1162 C   0  0  0  0  0  0  0  0  0  0  0  0
    6.6214  -13.6055   18.8590 C   0  0  0  0  0  0  0  0  0  0  0  0
    7.4573  -12.5801   18.4691 C   0  0  0  0  0  0  0  0  0  0  0  0
    8.3866  -12.1399   19.3892 C   0  0  0  0  0  0  0  0  0  0  0  0
    8.4714  -12.7059   20.6463 C   0  0  0  0  0  0  0  0  0  0  0  0
    9.3839  -15.3678   23.9128 C   0  0  0  0  0  0  0  0  0  0  0  0
    9.4858  -14.2991   24.5758 O   0  0  0  0  0  0  0  0  0  0  0  0
    9.7817  -16.5670   24.5193 N   0  0  0  0  0  0  0  0  0  0  0  0
   10.2719  -16.6302   25.9195 C   0  0  1  0  0  0  0  0  0  0  0  0
    9.0267  -16.7724   26.7437 C   0  0  0  0  0  0  0  0  0  0  0  0
    7.9367  -15.8384   26.4787 C   0  0  0  0  0  0  0  0  0  0  0  0
    6.7562  -16.1928   25.8247 C   0  0  0  0  0  0  0  0  0  0  0  0
    5.9993  -15.0926   25.7175 N   0  0  0  0  0  0  0  0  0  0  0  0
    6.6441  -14.0662   26.2713 C   0  0  0  0  0  0  0  0  0  0  0  0
    6.3196  -12.7306   26.4469 C   0  0  0  0  0  0  0  0  0  0  0  0
    7.1451  -11.8331   27.0769 C   0  0  0  0  0  0  0  0  0  0  0  0
    8.3548  -12.3072   27.5516 C   0  0  0  0  0  0  0  0  0  0  0  0
    8.7214  -13.6110   27.4038 C   0  0  0  0  0  0  0  0  0  0  0  0
    7.8670  -14.4956   26.7619 C   0  0  0  0  0  0  0  0  0  0  0  0
   11.1707  -17.7672   26.0998 C   0  0  0  0  0  0  0  0  0  0  0  0
   11.3485  -18.5457   25.0970 O   0  0  0  0  0  0  0  0  0  0  0  0
   11.8587  -18.0986   27.2310 O   0  0  0  0  0  0  0  0  0  0  0  0
  2  1  1  6
  3  2  1  0
  4  3  1  0
  5  2  1  0
  6  5  2  0
  7  5  1  0
  8  7  1  0
  8  9  1  1
 10  9  1  0
 11 10  2  0
 12 11  1  0
 13 12  2  0
 13 14  1  0
 14 15  2  0
 15 10  1  0
 16 18  1  0
 16  8  1  0
 17 16  2  0
 19 18  1  0
 19 30  1  0
 19 20  1  1
 21 22  2  0
 21 20  1  0
 23 22  1  0
 24 29  2  0
 24 23  1  0
 25 24  1  0
 26 27  1  0
 26 25  2  0
 27 28  2  0
 28 29  1  0
 29 21  1  0
 30 32  1  0
 31 30  2  0
M  END
$$$$
