CFW.pdb
     RDKit          3D

 32 34  0  0  1  0  0  0  0  0999 V2000
    8.4034  -21.3909   21.1664 N   0  0  0  0  0  0  0  0  0  0  0  0
    7.7471  -20.4594   22.0337 C   0  0  1  0  0  0  0  0  0  0  0  0
    7.8430  -20.8891   23.4776 C   0  0  0  0  0  0  0  0  0  0  0  0
    9.2723  -20.0403   24.2181 S   0  0  0  0  0  0  0  0  0  0  0  0
    8.2657  -19.1077   21.7952 C   0  0  0  0  0  0  0  0  0  0  0  0
    9.3891  -18.9626   21.2564 O   0  0  0  0  0  0  0  0  0  0  0  0
    7.5578  -17.9202   22.1449 N   0  0  0  0  0  0  0  0  0  0  0  0
    8.0096  -16.5936   21.7323 C   0  0  1  0  0  0  0  0  0  0  0  0
    6.9090  -15.5834   21.7983 C   0  0  0  0  0  0  0  0  0  0  0  0
    7.3180  -14.2598   21.2496 C   0  0  0  0  0  0  0  0  0  0  0  0
    7.5974  -13.2089   22.1026 C   0  0  0  0  0  0  0  0  0  0  0  0
    7.9803  -11.9707   21.6293 C   0  0  0  0  0  0  0  0  0  0  0  0
    8.1018  -11.7249   20.2777 C   0  0  0  0  0  0  0  0  0  0  0  0
    7.8243  -12.7692   19.4195 C   0  0  0  0  0  0  0  0  0  0  0  0
    7.4416  -14.0065   19.8997 C   0  0  0  0  0  0  0  0  0  0  0  0
    9.1801  -16.2077   22.5717 C   0  0  0  0  0  0  0  0  0  0  0  0
   10.1096  -15.5261   22.0584 O   0  0  0  0  0  0  0  0  0  0  0  0
    9.2911  -16.5746   23.9198 N   0  0  0  0  0  0  0  0  0  0  0  0
   10.4024  -16.1069   24.7864 C   0  0  1  0  0  0  0  0  0  0  0  0
    9.7494  -15.8176   26.1055 C   0  0  0  0  0  0  0  0  0  0  0  0
    8.3530  -15.3929   26.0836 C   0  0  0  0  0  0  0  0  0  0  0  0
    7.2807  -16.2692   25.9128 C   0  0  0  0  0  0  0  0  0  0  0  0
    6.1543  -15.5439   25.9048 N   0  0  0  0  0  0  0  0  0  0  0  0
    6.4649  -14.2575   26.0625 C   0  0  0  0  0  0  0  0  0  0  0  0
    5.7010  -13.1043   26.1423 C   0  0  0  0  0  0  0  0  0  0  0  0
    6.2412  -11.8565   26.3300 C   0  0  0  0  0  0  0  0  0  0  0  0
    7.6172  -11.7701   26.4424 C   0  0  0  0  0  0  0  0  0  0  0  0
    8.4129  -12.8735   26.3700 C   0  0  0  0  0  0  0  0  0  0  0  0
    7.8392  -14.1221   26.1789 C   0  0  0  0  0  0  0  0  0  0  0  0
   11.4298  -17.1378   24.9079 C   0  0  0  0  0  0  0  0  0  0  0  0
   12.5243  -16.8162   25.4926 O   0  0  0  0  0  0  0  0  0  0  0  0
   11.3551  -18.4275   24.4677 O   0  0  0  0  0  0  0  0  0  0  0  0
  2  1  1  6
  3  2  1  0
  4  3  1  0
  5  2  1  0
  6  5  2  0
  7  5  1  0
  8  7  1  0
  8  9  1  1
 10  9  1  0
 11 10  2  0
 12 11  1  0
 13 12  2  0
 13 14  1  0
 14 15  2  0
 15 10  1  0
 16 18  1  0
 16  8  1  0
 17 16  2  0
 19 18  1  0
 19 30  1  0
 19 20  1  1
 21 22  2  0
 21 20  1  0
 23 22  1  0
 24 29  2  0
 24 23  1  0
 25 24  1  0
 26 27  1  0
 26 25  2  0
 27 28  2  0
 28 29  1  0
 29 21  1  0
 30 32  1  0
 31 30  2  0
M  END
$$$$
