CFW.pdb
     RDKit          3D

 32 34  0  0  1  0  0  0  0  0999 V2000
   10.5083  -16.3248   17.6895 N   0  0  0  0  0  0  0  0  0  0  0  0
   10.1082  -17.2723   18.6859 C   0  0  1  0  0  0  0  0  0  0  0  0
   11.0441  -18.4558   18.7283 C   0  0  0  0  0  0  0  0  0  0  0  0
   10.3131  -19.7054   19.8308 S   0  0  0  0  0  0  0  0  0  0  0  0
    9.9645  -16.5998   19.9821 C   0  0  0  0  0  0  0  0  0  0  0  0
   10.9020  -15.8891   20.4172 O   0  0  0  0  0  0  0  0  0  0  0  0
    8.7999  -16.7049   20.7983 N   0  0  0  0  0  0  0  0  0  0  0  0
    8.7023  -16.0567   22.1039 C   0  0  1  0  0  0  0  0  0  0  0  0
    7.3089  -15.6004   22.3979 C   0  0  0  0  0  0  0  0  0  0  0  0
    7.2087  -14.8795   23.6980 C   0  0  0  0  0  0  0  0  0  0  0  0
    6.8341  -15.5574   24.8427 C   0  0  0  0  0  0  0  0  0  0  0  0
    6.7326  -14.9221   26.0632 C   0  0  0  0  0  0  0  0  0  0  0  0
    7.0016  -13.5760   26.1966 C   0  0  0  0  0  0  0  0  0  0  0  0
    7.3762  -12.8922   25.0581 C   0  0  0  0  0  0  0  0  0  0  0  0
    7.4760  -13.5340   23.8391 C   0  0  0  0  0  0  0  0  0  0  0  0
    9.2184  -16.9960   23.1407 C   0  0  0  0  0  0  0  0  0  0  0  0
    8.8599  -18.2053   23.1110 O   0  0  0  0  0  0  0  0  0  0  0  0
   10.0933  -16.5865   24.1562 N   0  0  0  0  0  0  0  0  0  0  0  0
   10.9143  -17.5453   24.9382 C   0  0  1  0  0  0  0  0  0  0  0  0
   11.7538  -16.6771   25.8279 C   0  0  0  0  0  0  0  0  0  0  0  0
   11.1876  -16.2918   27.1170 C   0  0  0  0  0  0  0  0  0  0  0  0
   11.1641  -17.1292   28.2328 C   0  0  0  0  0  0  0  0  0  0  0  0
   10.5427  -16.4763   29.2239 N   0  0  0  0  0  0  0  0  0  0  0  0
   10.1756  -15.2718   28.7873 C   0  0  0  0  0  0  0  0  0  0  0  0
    9.5283  -14.2054   29.3904 C   0  0  0  0  0  0  0  0  0  0  0  0
    9.2628  -13.0243   28.7435 C   0  0  0  0  0  0  0  0  0  0  0  0
    9.6704  -12.9157   27.4261 C   0  0  0  0  0  0  0  0  0  0  0  0
   10.3097  -13.9352   26.7873 C   0  0  0  0  0  0  0  0  0  0  0  0
   10.5641  -15.1181   27.4660 C   0  0  0  0  0  0  0  0  0  0  0  0
   10.0607  -18.4436   25.7112 C   0  0  0  0  0  0  0  0  0  0  0  0
   10.6316  -19.3931   26.3559 O   0  0  0  0  0  0  0  0  0  0  0  0
    8.7026  -18.3840   25.8322 O   0  0  0  0  0  0  0  0  0  0  0  0
  2  1  1  6
  3  2  1  0
  4  3  1  0
  5  2  1  0
  6  5  2  0
  7  5  1  0
  8  7  1  0
  8  9  1  1
 10  9  1  0
 11 10  2  0
 12 11  1  0
 13 12  2  0
 13 14  1  0
 14 15  2  0
 15 10  1  0
 16 18  1  0
 16  8  1  0
 17 16  2  0
 19 18  1  0
 19 30  1  0
 19 20  1  1
 21 22  2  0
 21 20  1  0
 23 22  1  0
 24 29  2  0
 24 23  1  0
 25 24  1  0
 26 27  1  0
 26 25  2  0
 27 28  2  0
 28 29  1  0
 29 21  1  0
 30 32  1  0
 31 30  2  0
M  END
$$$$
