CFW.pdb
     RDKit          3D

 32 34  0  0  1  0  0  0  0  0999 V2000
    6.9407  -21.4741   21.2282 N   0  0  0  0  0  0  0  0  0  0  0  0
    6.9255  -20.5355   22.3095 C   0  0  1  0  0  0  0  0  0  0  0  0
    7.6712  -21.0658   23.5100 C   0  0  0  0  0  0  0  0  0  0  0  0
    6.4696  -21.9112   24.5839 S   0  0  0  0  0  0  0  0  0  0  0  0
    7.4224  -19.2350   21.8461 C   0  0  0  0  0  0  0  0  0  0  0  0
    8.5898  -19.1437   21.3964 O   0  0  0  0  0  0  0  0  0  0  0  0
    6.6450  -18.0399   21.8748 N   0  0  0  0  0  0  0  0  0  0  0  0
    7.2318  -16.7228   21.6399 C   0  0  1  0  0  0  0  0  0  0  0  0
    6.2162  -15.7373   21.1566 C   0  0  0  0  0  0  0  0  0  0  0  0
    6.8287  -14.4393   20.7562 C   0  0  0  0  0  0  0  0  0  0  0  0
    7.4416  -14.3094   19.5243 C   0  0  0  0  0  0  0  0  0  0  0  0
    8.0173  -13.1223   19.1205 C   0  0  0  0  0  0  0  0  0  0  0  0
    8.0070  -12.0069   19.9316 C   0  0  0  0  0  0  0  0  0  0  0  0
    7.3970  -12.1287   21.1633 C   0  0  0  0  0  0  0  0  0  0  0  0
    6.8224  -13.3199   21.5617 C   0  0  0  0  0  0  0  0  0  0  0  0
    7.9038  -16.2715   22.8922 C   0  0  0  0  0  0  0  0  0  0  0  0
    7.2447  -15.6134   23.7434 O   0  0  0  0  0  0  0  0  0  0  0  0
    9.2498  -16.5510   23.1649 N   0  0  0  0  0  0  0  0  0  0  0  0
   10.0556  -15.7471   24.1183 C   0  0  1  0  0  0  0  0  0  0  0  0
    9.4076  -15.9886   25.4494 C   0  0  0  0  0  0  0  0  0  0  0  0
    8.1240  -15.3395   25.6980 C   0  0  0  0  0  0  0  0  0  0  0  0
    6.9013  -16.0116   25.6809 C   0  0  0  0  0  0  0  0  0  0  0  0
    5.9347  -15.1124   25.9089 N   0  0  0  0  0  0  0  0  0  0  0  0
    6.4883  -13.9107   26.0688 C   0  0  0  0  0  0  0  0  0  0  0  0
    5.9632  -12.6571   26.3384 C   0  0  0  0  0  0  0  0  0  0  0  0
    6.7378  -11.5335   26.4849 C   0  0  0  0  0  0  0  0  0  0  0  0
    8.1066  -11.6836   26.3530 C   0  0  0  0  0  0  0  0  0  0  0  0
    8.6725  -12.8940   26.0874 C   0  0  0  0  0  0  0  0  0  0  0  0
    7.8647  -14.0126   25.9435 C   0  0  0  0  0  0  0  0  0  0  0  0
   11.4495  -16.1831   24.1102 C   0  0  0  0  0  0  0  0  0  0  0  0
   12.2651  -15.5718   24.8877 O   0  0  0  0  0  0  0  0  0  0  0  0
   11.9915  -17.1869   23.3611 O   0  0  0  0  0  0  0  0  0  0  0  0
  2  1  1  6
  3  2  1  0
  4  3  1  0
  5  2  1  0
  6  5  2  0
  7  5  1  0
  8  7  1  0
  8  9  1  1
 10  9  1  0
 11 10  2  0
 12 11  1  0
 13 12  2  0
 13 14  1  0
 14 15  2  0
 15 10  1  0
 16 18  1  0
 16  8  1  0
 17 16  2  0
 19 18  1  0
 19 30  1  0
 19 20  1  1
 21 22  2  0
 21 20  1  0
 23 22  1  0
 24 29  2  0
 24 23  1  0
 25 24  1  0
 26 27  1  0
 26 25  2  0
 27 28  2  0
 28 29  1  0
 29 21  1  0
 30 32  1  0
 31 30  2  0
M  END
$$$$
