CFW.pdb
     RDKit          3D

 32 34  0  0  1  0  0  0  0  0999 V2000
    9.1637  -19.4115   19.4291 N   0  0  0  0  0  0  0  0  0  0  0  0
    8.3774  -18.6936   20.3866 C   0  0  1  0  0  0  0  0  0  0  0  0
    7.7695  -19.6233   21.4086 C   0  0  0  0  0  0  0  0  0  0  0  0
    9.0888  -20.1317   22.5542 S   0  0  0  0  0  0  0  0  0  0  0  0
    9.1795  -17.6198   20.9838 C   0  0  0  0  0  0  0  0  0  0  0  0
   10.4144  -17.5775   20.7681 O   0  0  0  0  0  0  0  0  0  0  0  0
    8.6324  -16.5972   21.8135 N   0  0  0  0  0  0  0  0  0  0  0  0
    9.4327  -15.4747   22.2968 C   0  0  1  0  0  0  0  0  0  0  0  0
    8.6304  -14.2161   22.3896 C   0  0  0  0  0  0  0  0  0  0  0  0
    8.0797  -13.7939   21.0711 C   0  0  0  0  0  0  0  0  0  0  0  0
    6.8240  -14.2136   20.6746 C   0  0  0  0  0  0  0  0  0  0  0  0
    6.2825  -13.8407   19.4616 C   0  0  0  0  0  0  0  0  0  0  0  0
    6.9729  -13.0289   18.5862 C   0  0  0  0  0  0  0  0  0  0  0  0
    8.2275  -12.6058   18.9749 C   0  0  0  0  0  0  0  0  0  0  0  0
    8.7640  -12.9826   20.1906 C   0  0  0  0  0  0  0  0  0  0  0  0
   10.0413  -15.8529   23.6045 C   0  0  0  0  0  0  0  0  0  0  0  0
   11.0694  -15.2418   24.0064 O   0  0  0  0  0  0  0  0  0  0  0  0
    9.5133  -16.8689   24.4127 N   0  0  0  0  0  0  0  0  0  0  0  0
   10.0300  -17.1562   25.7747 C   0  0  1  0  0  0  0  0  0  0  0  0
    9.7139  -15.9188   26.5615 C   0  0  0  0  0  0  0  0  0  0  0  0
    8.3530  -15.3981   26.4742 C   0  0  0  0  0  0  0  0  0  0  0  0
    7.2451  -16.1805   26.1465 C   0  0  0  0  0  0  0  0  0  0  0  0
    6.1705  -15.3809   26.1199 N   0  0  0  0  0  0  0  0  0  0  0  0
    6.5473  -14.1370   26.4148 C   0  0  0  0  0  0  0  0  0  0  0  0
    5.8530  -12.9445   26.5406 C   0  0  0  0  0  0  0  0  0  0  0  0
    6.4534  -11.7575   26.8789 C   0  0  0  0  0  0  0  0  0  0  0  0
    7.8187  -11.7763   27.1003 C   0  0  0  0  0  0  0  0  0  0  0  0
    8.5471  -12.9221   26.9887 C   0  0  0  0  0  0  0  0  0  0  0  0
    7.9136  -14.1073   26.6445 C   0  0  0  0  0  0  0  0  0  0  0  0
    9.3747  -18.3344   26.3364 C   0  0  0  0  0  0  0  0  0  0  0  0
    8.3673  -18.8098   25.7021 O   0  0  0  0  0  0  0  0  0  0  0  0
    9.7208  -19.0018   27.4755 O   0  0  0  0  0  0  0  0  0  0  0  0
  2  1  1  6
  3  2  1  0
  4  3  1  0
  5  2  1  0
  6  5  2  0
  7  5  1  0
  8  7  1  0
  8  9  1  1
 10  9  1  0
 11 10  2  0
 12 11  1  0
 13 12  2  0
 13 14  1  0
 14 15  2  0
 15 10  1  0
 16 18  1  0
 16  8  1  0
 17 16  2  0
 19 18  1  0
 19 30  1  0
 19 20  1  1
 21 22  2  0
 21 20  1  0
 23 22  1  0
 24 29  2  0
 24 23  1  0
 25 24  1  0
 26 27  1  0
 26 25  2  0
 27 28  2  0
 28 29  1  0
 29 21  1  0
 30 32  1  0
 31 30  2  0
M  END
$$$$
