CFW.pdb
     RDKit          3D

 32 34  0  0  1  0  0  0  0  0999 V2000
   11.0053  -16.5829   17.9520 N   0  0  0  0  0  0  0  0  0  0  0  0
    9.7138  -16.8006   18.5311 C   0  0  1  0  0  0  0  0  0  0  0  0
    9.3314  -18.2603   18.4925 C   0  0  0  0  0  0  0  0  0  0  0  0
   10.8354  -19.2388   18.7961 S   0  0  0  0  0  0  0  0  0  0  0  0
    9.6705  -16.2251   19.8802 C   0  0  0  0  0  0  0  0  0  0  0  0
   10.7424  -15.9316   20.4618 O   0  0  0  0  0  0  0  0  0  0  0  0
    8.4595  -15.9724   20.5894 N   0  0  0  0  0  0  0  0  0  0  0  0
    8.4503  -15.4749   21.9629 C   0  0  1  0  0  0  0  0  0  0  0  0
    7.1364  -14.8592   22.3249 C   0  0  0  0  0  0  0  0  0  0  0  0
    7.1123  -14.3525   23.7259 C   0  0  0  0  0  0  0  0  0  0  0  0
    7.6062  -13.0956   24.0201 C   0  0  0  0  0  0  0  0  0  0  0  0
    7.5981  -12.5942   25.3054 C   0  0  0  0  0  0  0  0  0  0  0  0
    7.0948  -13.3278   26.3592 C   0  0  0  0  0  0  0  0  0  0  0  0
    6.6000  -14.5838   26.0735 C   0  0  0  0  0  0  0  0  0  0  0  0
    6.6108  -15.0801   24.7846 C   0  0  0  0  0  0  0  0  0  0  0  0
    8.8190  -16.5943   22.8765 C   0  0  0  0  0  0  0  0  0  0  0  0
    8.3859  -17.7548   22.6364 O   0  0  0  0  0  0  0  0  0  0  0  0
    9.6342  -16.4083   24.0012 N   0  0  0  0  0  0  0  0  0  0  0  0
   10.2824  -17.5382   24.7139 C   0  0  1  0  0  0  0  0  0  0  0  0
   11.2804  -16.8822   25.6216 C   0  0  0  0  0  0  0  0  0  0  0  0
   10.8678  -16.6257   26.9981 C   0  0  0  0  0  0  0  0  0  0  0  0
   10.6955  -17.6280   27.9534 C   0  0  0  0  0  0  0  0  0  0  0  0
   10.2792  -17.0482   29.0871 N   0  0  0  0  0  0  0  0  0  0  0  0
   10.1823  -15.7333   28.8923 C   0  0  0  0  0  0  0  0  0  0  0  0
    9.8210  -14.6803   29.7173 C   0  0  0  0  0  0  0  0  0  0  0  0
    9.8094  -13.3715   29.3039 C   0  0  0  0  0  0  0  0  0  0  0  0
   10.1801  -13.1149   27.9961 C   0  0  0  0  0  0  0  0  0  0  0  0
   10.5430  -14.1146   27.1447 C   0  0  0  0  0  0  0  0  0  0  0  0
   10.5446  -15.4284   27.5899 C   0  0  0  0  0  0  0  0  0  0  0  0
    9.2946  -18.3080   25.4653 C   0  0  0  0  0  0  0  0  0  0  0  0
    8.1437  -17.7742   25.6491 O   0  0  0  0  0  0  0  0  0  0  0  0
    9.4571  -19.5538   25.9986 O   0  0  0  0  0  0  0  0  0  0  0  0
  2  1  1  1
  3  2  1  0
  4  3  1  0
  5  2  1  0
  6  5  2  0
  7  5  1  0
  8  7  1  0
  8  9  1  1
 10  9  1  0
 11 10  2  0
 12 11  1  0
 13 12  2  0
 13 14  1  0
 14 15  2  0
 15 10  1  0
 16 18  1  0
 16  8  1  0
 17 16  2  0
 19 18  1  0
 19 30  1  0
 19 20  1  1
 21 22  2  0
 21 20  1  0
 23 22  1  0
 24 29  2  0
 24 23  1  0
 25 24  1  0
 26 27  1  0
 26 25  2  0
 27 28  2  0
 28 29  1  0
 29 21  1  0
 30 32  1  0
 31 30  2  0
M  END
$$$$
