CFW.pdb
     RDKit          3D

 32 34  0  0  1  0  0  0  0  0999 V2000
    9.3534  -16.8274   17.4121 N   0  0  0  0  0  0  0  0  0  0  0  0
    8.7515  -17.4518   18.5516 C   0  0  1  0  0  0  0  0  0  0  0  0
    9.2706  -18.8554   18.7491 C   0  0  0  0  0  0  0  0  0  0  0  0
    7.9364  -20.0108   18.3058 S   0  0  0  0  0  0  0  0  0  0  0  0
    8.9212  -16.5989   19.7334 C   0  0  0  0  0  0  0  0  0  0  0  0
   10.0104  -16.0041   19.9154 O   0  0  0  0  0  0  0  0  0  0  0  0
    7.9033  -16.3980   20.7116 N   0  0  0  0  0  0  0  0  0  0  0  0
    8.1147  -15.5721   21.8979 C   0  0  1  0  0  0  0  0  0  0  0  0
    6.8243  -15.0888   22.4789 C   0  0  0  0  0  0  0  0  0  0  0  0
    7.0267  -14.2407   23.6872 C   0  0  0  0  0  0  0  0  0  0  0  0
    6.5754  -14.6685   24.9215 C   0  0  0  0  0  0  0  0  0  0  0  0
    6.7472  -13.9097   26.0610 C   0  0  0  0  0  0  0  0  0  0  0  0
    7.3795  -12.6848   26.0195 C   0  0  0  0  0  0  0  0  0  0  0  0
    7.8328  -12.2507   24.7906 C   0  0  0  0  0  0  0  0  0  0  0  0
    7.6579  -13.0150   23.6535 C   0  0  0  0  0  0  0  0  0  0  0  0
    8.9194  -16.3512   22.8823 C   0  0  0  0  0  0  0  0  0  0  0  0
    8.3629  -17.2689   23.5455 O   0  0  0  0  0  0  0  0  0  0  0  0
   10.2810  -16.1032   23.1030 N   0  0  0  0  0  0  0  0  0  0  0  0
   10.9424  -16.3766   24.4040 C   0  0  1  0  0  0  0  0  0  0  0  0
   10.0972  -15.6537   25.4105 C   0  0  0  0  0  0  0  0  0  0  0  0
   10.3285  -15.9542   26.8201 C   0  0  0  0  0  0  0  0  0  0  0  0
   10.3274  -17.2468   27.3456 C   0  0  0  0  0  0  0  0  0  0  0  0
   10.5320  -17.1538   28.6663 N   0  0  0  0  0  0  0  0  0  0  0  0
   10.6623  -15.8692   28.9962 C   0  0  0  0  0  0  0  0  0  0  0  0
   10.9000  -15.2221   30.1982 C   0  0  0  0  0  0  0  0  0  0  0  0
   11.0189  -13.8590   30.3072 C   0  0  0  0  0  0  0  0  0  0  0  0
   10.8918  -13.1153   29.1478 C   0  0  0  0  0  0  0  0  0  0  0  0
   10.6570  -13.7031   27.9414 C   0  0  0  0  0  0  0  0  0  0  0  0
   10.5405  -15.0831   27.8614 C   0  0  0  0  0  0  0  0  0  0  0  0
   10.9860  -17.8123   24.6682 C   0  0  0  0  0  0  0  0  0  0  0  0
   12.1357  -18.3420   24.8706 O   0  0  0  0  0  0  0  0  0  0  0  0
    9.9248  -18.6684   24.7304 O   0  0  0  0  0  0  0  0  0  0  0  0
  2  1  1  6
  3  2  1  0
  4  3  1  0
  5  2  1  0
  6  5  2  0
  7  5  1  0
  8  7  1  0
  8  9  1  1
 10  9  1  0
 11 10  2  0
 12 11  1  0
 13 12  2  0
 13 14  1  0
 14 15  2  0
 15 10  1  0
 16 18  1  0
 16  8  1  0
 17 16  2  0
 19 18  1  0
 19 30  1  0
 19 20  1  1
 21 22  2  0
 21 20  1  0
 23 22  1  0
 24 29  2  0
 24 23  1  0
 25 24  1  0
 26 27  1  0
 26 25  2  0
 27 28  2  0
 28 29  1  0
 29 21  1  0
 30 32  1  0
 31 30  2  0
M  END
$$$$
