CFW.pdb
     RDKit          3D

 32 34  0  0  1  0  0  0  0  0999 V2000
   10.7595  -16.8900   17.6779 N   0  0  0  0  0  0  0  0  0  0  0  0
    9.9022  -17.5586   18.6099 C   0  0  1  0  0  0  0  0  0  0  0  0
   10.3286  -18.9912   18.8211 C   0  0  0  0  0  0  0  0  0  0  0  0
   11.9156  -18.9750   19.7113 S   0  0  0  0  0  0  0  0  0  0  0  0
    9.8242  -16.7870   19.8555 C   0  0  0  0  0  0  0  0  0  0  0  0
   10.7935  -16.0693   20.1999 O   0  0  0  0  0  0  0  0  0  0  0  0
    8.6904  -16.8012   20.7202 N   0  0  0  0  0  0  0  0  0  0  0  0
    8.6806  -16.1035   22.0037 C   0  0  1  0  0  0  0  0  0  0  0  0
    7.2897  -15.8270   22.4782 C   0  0  0  0  0  0  0  0  0  0  0  0
    7.2635  -14.9557   23.6867 C   0  0  0  0  0  0  0  0  0  0  0  0
    6.8165  -15.4552   24.8953 C   0  0  0  0  0  0  0  0  0  0  0  0
    6.7802  -14.6773   26.0343 C   0  0  0  0  0  0  0  0  0  0  0  0
    7.1900  -13.3606   26.0180 C   0  0  0  0  0  0  0  0  0  0  0  0
    7.6376  -12.8546   24.8148 C   0  0  0  0  0  0  0  0  0  0  0  0
    7.6716  -13.6384   23.6781 C   0  0  0  0  0  0  0  0  0  0  0  0
    9.4625  -16.9065   22.9873 C   0  0  0  0  0  0  0  0  0  0  0  0
    9.3712  -18.1648   22.9680 O   0  0  0  0  0  0  0  0  0  0  0  0
   10.3021  -16.3153   23.9411 N   0  0  0  0  0  0  0  0  0  0  0  0
   11.2753  -17.0983   24.7439 C   0  0  1  0  0  0  0  0  0  0  0  0
   11.6532  -16.1810   25.8690 C   0  0  0  0  0  0  0  0  0  0  0  0
   10.6549  -15.9476   26.9081 C   0  0  0  0  0  0  0  0  0  0  0  0
    9.7111  -16.8972   27.3010 C   0  0  0  0  0  0  0  0  0  0  0  0
    8.9350  -16.3411   28.2408 N   0  0  0  0  0  0  0  0  0  0  0  0
    9.3440  -15.0914   28.4581 C   0  0  0  0  0  0  0  0  0  0  0  0
    8.9155  -14.0935   29.3186 C   0  0  0  0  0  0  0  0  0  0  0  0
    9.5086  -12.8578   29.3911 C   0  0  0  0  0  0  0  0  0  0  0  0
   10.5848  -12.6195   28.5553 C   0  0  0  0  0  0  0  0  0  0  0  0
   11.0443  -13.5668   27.6907 C   0  0  0  0  0  0  0  0  0  0  0  0
   10.4246  -14.8068   27.6385 C   0  0  0  0  0  0  0  0  0  0  0  0
   10.6647  -18.3308   25.2349 C   0  0  0  0  0  0  0  0  0  0  0  0
   11.4429  -19.2179   25.7356 O   0  0  0  0  0  0  0  0  0  0  0  0
    9.3377  -18.6497   25.2266 O   0  0  0  0  0  0  0  0  0  0  0  0
  2  1  1  6
  3  2  1  0
  4  3  1  0
  5  2  1  0
  6  5  2  0
  7  5  1  0
  8  7  1  0
  8  9  1  1
 10  9  1  0
 11 10  2  0
 12 11  1  0
 13 12  2  0
 13 14  1  0
 14 15  2  0
 15 10  1  0
 16 18  1  0
 16  8  1  0
 17 16  2  0
 19 18  1  0
 19 30  1  0
 19 20  1  1
 21 22  2  0
 21 20  1  0
 23 22  1  0
 24 29  2  0
 24 23  1  0
 25 24  1  0
 26 27  1  0
 26 25  2  0
 27 28  2  0
 28 29  1  0
 29 21  1  0
 30 32  1  0
 31 30  2  0
M  END
$$$$
