CFW.pdb
     RDKit          3D

 32 34  0  0  1  0  0  0  0  0999 V2000
    7.3446  -19.5223   20.1105 N   0  0  0  0  0  0  0  0  0  0  0  0
    7.3816  -19.4623   21.5408 C   0  0  1  0  0  0  0  0  0  0  0  0
    8.3782  -20.4440   22.1079 C   0  0  0  0  0  0  0  0  0  0  0  0
    9.9616  -19.5721   22.3183 S   0  0  0  0  0  0  0  0  0  0  0  0
    7.6173  -18.0805   21.9744 C   0  0  0  0  0  0  0  0  0  0  0  0
    8.0778  -17.2465   21.1586 O   0  0  0  0  0  0  0  0  0  0  0  0
    7.3503  -17.6139   23.2952 N   0  0  0  0  0  0  0  0  0  0  0  0
    7.5399  -16.2179   23.6816 C   0  0  1  0  0  0  0  0  0  0  0  0
    6.3334  -15.6592   24.3660 C   0  0  0  0  0  0  0  0  0  0  0  0
    6.5617  -14.2824   24.8879 C   0  0  0  0  0  0  0  0  0  0  0  0
    6.2726  -13.9806   26.2053 C   0  0  0  0  0  0  0  0  0  0  0  0
    6.4732  -12.7171   26.7223 C   0  0  0  0  0  0  0  0  0  0  0  0
    6.9733  -11.6941   25.9443 C   0  0  0  0  0  0  0  0  0  0  0  0
    7.2643  -11.9876   24.6278 C   0  0  0  0  0  0  0  0  0  0  0  0
    7.0613  -13.2545   24.1162 C   0  0  0  0  0  0  0  0  0  0  0  0
    8.7637  -16.1208   24.5281 C   0  0  0  0  0  0  0  0  0  0  0  0
    8.7679  -15.3403   25.5194 O   0  0  0  0  0  0  0  0  0  0  0  0
    9.9199  -16.8679   24.2651 N   0  0  0  0  0  0  0  0  0  0  0  0
   11.1988  -16.2403   23.8463 C   0  0  1  0  0  0  0  0  0  0  0  0
   11.5754  -15.3578   24.9994 C   0  0  0  0  0  0  0  0  0  0  0  0
   11.2223  -15.8176   26.3390 C   0  0  0  0  0  0  0  0  0  0  0  0
   11.1365  -17.1635   26.6971 C   0  0  0  0  0  0  0  0  0  0  0  0
   10.7552  -17.2240   27.9800 N   0  0  0  0  0  0  0  0  0  0  0  0
   10.5982  -15.9851   28.4454 C   0  0  0  0  0  0  0  0  0  0  0  0
   10.2383  -15.4801   29.6844 C   0  0  0  0  0  0  0  0  0  0  0  0
   10.1558  -14.1366   29.9533 C   0  0  0  0  0  0  0  0  0  0  0  0
   10.4507  -13.2629   28.9222 C   0  0  0  0  0  0  0  0  0  0  0  0
   10.8089  -13.7085   27.6856 C   0  0  0  0  0  0  0  0  0  0  0  0
   10.8832  -15.0722   27.4424 C   0  0  0  0  0  0  0  0  0  0  0  0
   12.2140  -17.2591   23.5930 C   0  0  0  0  0  0  0  0  0  0  0  0
   13.3895  -16.8572   23.2768 O   0  0  0  0  0  0  0  0  0  0  0  0
   12.0536  -18.6128   23.6604 O   0  0  0  0  0  0  0  0  0  0  0  0
  2  1  1  6
  3  2  1  0
  4  3  1  0
  5  2  1  0
  6  5  2  0
  7  5  1  0
  8  7  1  0
  8  9  1  1
 10  9  1  0
 11 10  2  0
 12 11  1  0
 13 12  2  0
 13 14  1  0
 14 15  2  0
 15 10  1  0
 16 18  1  0
 16  8  1  0
 17 16  2  0
 19 18  1  0
 19 30  1  0
 19 20  1  1
 21 22  2  0
 21 20  1  0
 23 22  1  0
 24 29  2  0
 24 23  1  0
 25 24  1  0
 26 27  1  0
 26 25  2  0
 27 28  2  0
 28 29  1  0
 29 21  1  0
 30 32  1  0
 31 30  2  0
M  END
$$$$
