CFW.pdb
     RDKit          3D

 32 34  0  0  1  0  0  0  0  0999 V2000
   12.2969  -18.5215   17.7092 N   0  0  0  0  0  0  0  0  0  0  0  0
   11.8197  -19.0203   18.9638 C   0  0  1  0  0  0  0  0  0  0  0  0
   12.8718  -19.8447   19.6652 C   0  0  0  0  0  0  0  0  0  0  0  0
   12.0362  -20.8651   20.9190 S   0  0  0  0  0  0  0  0  0  0  0  0
   11.3130  -17.9109   19.7796 C   0  0  0  0  0  0  0  0  0  0  0  0
   12.0217  -16.8888   19.9419 O   0  0  0  0  0  0  0  0  0  0  0  0
   10.0364  -17.9204   20.4149 N   0  0  0  0  0  0  0  0  0  0  0  0
    9.5219  -16.7658   21.1473 C   0  0  1  0  0  0  0  0  0  0  0  0
    8.1191  -16.4328   20.7506 C   0  0  0  0  0  0  0  0  0  0  0  0
    7.6737  -15.1157   21.2864 C   0  0  0  0  0  0  0  0  0  0  0  0
    6.8974  -15.0554   22.4283 C   0  0  0  0  0  0  0  0  0  0  0  0
    6.4687  -13.8535   22.9530 C   0  0  0  0  0  0  0  0  0  0  0  0
    6.7970  -12.6528   22.3590 C   0  0  0  0  0  0  0  0  0  0  0  0
    7.5718  -12.7049   21.2184 C   0  0  0  0  0  0  0  0  0  0  0  0
    7.9979  -13.9113   20.6981 C   0  0  0  0  0  0  0  0  0  0  0  0
    9.6454  -17.0362   22.6085 C   0  0  0  0  0  0  0  0  0  0  0  0
    9.5270  -18.2198   23.0291 O   0  0  0  0  0  0  0  0  0  0  0  0
    9.8897  -16.0200   23.5423 N   0  0  0  0  0  0  0  0  0  0  0  0
   10.4428  -16.2921   24.8931 C   0  0  1  0  0  0  0  0  0  0  0  0
   10.0998  -15.0680   25.6893 C   0  0  0  0  0  0  0  0  0  0  0  0
    8.6844  -14.7761   25.8943 C   0  0  0  0  0  0  0  0  0  0  0  0
    7.6920  -15.7558   25.9436 C   0  0  0  0  0  0  0  0  0  0  0  0
    6.5134  -15.1394   26.1045 N   0  0  0  0  0  0  0  0  0  0  0  0
    6.7156  -13.8232   26.1593 C   0  0  0  0  0  0  0  0  0  0  0  0
    5.8643  -12.7431   26.3284 C   0  0  0  0  0  0  0  0  0  0  0  0
    6.3005  -11.4425   26.3745 C   0  0  0  0  0  0  0  0  0  0  0  0
    7.6600  -11.2232   26.2436 C   0  0  0  0  0  0  0  0  0  0  0  0
    8.5387  -12.2504   26.0746 C   0  0  0  0  0  0  0  0  0  0  0  0
    8.0691  -13.5551   26.0310 C   0  0  0  0  0  0  0  0  0  0  0  0
    9.8398  -17.4934   25.4643 C   0  0  0  0  0  0  0  0  0  0  0  0
   10.3302  -17.9365   26.5627 O   0  0  0  0  0  0  0  0  0  0  0  0
    8.7930  -18.2074   24.9572 O   0  0  0  0  0  0  0  0  0  0  0  0
  2  1  1  6
  3  2  1  0
  4  3  1  0
  5  2  1  0
  6  5  2  0
  7  5  1  0
  8  7  1  0
  8  9  1  1
 10  9  1  0
 11 10  2  0
 12 11  1  0
 13 12  2  0
 13 14  1  0
 14 15  2  0
 15 10  1  0
 16 18  1  0
 16  8  1  0
 17 16  2  0
 19 18  1  0
 19 30  1  0
 19 20  1  1
 21 22  2  0
 21 20  1  0
 23 22  1  0
 24 29  2  0
 24 23  1  0
 25 24  1  0
 26 27  1  0
 26 25  2  0
 27 28  2  0
 28 29  1  0
 29 21  1  0
 30 32  1  0
 31 30  2  0
M  END
$$$$
