CFW.pdb
     RDKit          3D

 32 34  0  0  1  0  0  0  0  0999 V2000
    9.0238  -17.8411   18.7182 N   0  0  0  0  0  0  0  0  0  0  0  0
    8.6308  -18.0843   20.0736 C   0  0  1  0  0  0  0  0  0  0  0  0
    9.4376  -19.2017   20.6893 C   0  0  0  0  0  0  0  0  0  0  0  0
   11.1471  -18.6105   20.8887 S   0  0  0  0  0  0  0  0  0  0  0  0
    8.6908  -16.8348   20.8404 C   0  0  0  0  0  0  0  0  0  0  0  0
    9.3461  -15.8644   20.3909 O   0  0  0  0  0  0  0  0  0  0  0  0
    8.0365  -16.6484   22.0937 N   0  0  0  0  0  0  0  0  0  0  0  0
    8.0367  -15.3638   22.7894 C   0  0  1  0  0  0  0  0  0  0  0  0
    6.8129  -15.1839   23.6297 C   0  0  0  0  0  0  0  0  0  0  0  0
    6.8769  -13.9568   24.4726 C   0  0  0  0  0  0  0  0  0  0  0  0
    6.5654  -14.0193   25.8177 C   0  0  0  0  0  0  0  0  0  0  0  0
    6.6156  -12.9036   26.6278 C   0  0  0  0  0  0  0  0  0  0  0  0
    6.9804  -11.6703   26.1297 C   0  0  0  0  0  0  0  0  0  0  0  0
    7.2928  -11.5999   24.7875 C   0  0  0  0  0  0  0  0  0  0  0  0
    7.2407  -12.7205   23.9817 C   0  0  0  0  0  0  0  0  0  0  0  0
    9.2906  -15.2566   23.5893 C   0  0  0  0  0  0  0  0  0  0  0  0
    9.6096  -14.1433   24.0902 O   0  0  0  0  0  0  0  0  0  0  0  0
   10.1369  -16.3518   23.8094 N   0  0  0  0  0  0  0  0  0  0  0  0
   11.4091  -16.2390   24.5669 C   0  0  1  0  0  0  0  0  0  0  0  0
   11.2865  -17.2641   25.6551 C   0  0  0  0  0  0  0  0  0  0  0  0
   10.2382  -17.0631   26.6508 C   0  0  0  0  0  0  0  0  0  0  0  0
    9.1757  -17.9466   26.8444 C   0  0  0  0  0  0  0  0  0  0  0  0
    8.3881  -17.4390   27.8018 N   0  0  0  0  0  0  0  0  0  0  0  0
    8.9023  -16.2825   28.2194 C   0  0  0  0  0  0  0  0  0  0  0  0
    8.5100  -15.3676   29.1831 C   0  0  0  0  0  0  0  0  0  0  0  0
    9.2168  -14.2258   29.4674 C   0  0  0  0  0  0  0  0  0  0  0  0
   10.3738  -13.9981   28.7442 C   0  0  0  0  0  0  0  0  0  0  0  0
   10.8023  -14.8661   27.7855 C   0  0  0  0  0  0  0  0  0  0  0  0
   10.0670  -16.0119   27.5190 C   0  0  0  0  0  0  0  0  0  0  0  0
   12.5516  -16.5089   23.6981 C   0  0  0  0  0  0  0  0  0  0  0  0
   12.3076  -16.9544   22.5211 O   0  0  0  0  0  0  0  0  0  0  0  0
   13.8713  -16.3335   23.9987 O   0  0  0  0  0  0  0  0  0  0  0  0
  2  1  1  6
  3  2  1  0
  4  3  1  0
  5  2  1  0
  6  5  2  0
  7  5  1  0
  8  7  1  0
  8  9  1  1
 10  9  1  0
 11 10  2  0
 12 11  1  0
 13 12  2  0
 13 14  1  0
 14 15  2  0
 15 10  1  0
 16 18  1  0
 16  8  1  0
 17 16  2  0
 19 18  1  0
 19 30  1  0
 19 20  1  1
 21 22  2  0
 21 20  1  0
 23 22  1  0
 24 29  2  0
 24 23  1  0
 25 24  1  0
 26 27  1  0
 26 25  2  0
 27 28  2  0
 28 29  1  0
 29 21  1  0
 30 32  1  0
 31 30  2  0
M  END
$$$$
