CFW.pdb
     RDKit          3D

 32 34  0  0  1  0  0  0  0  0999 V2000
    7.7183  -18.4680   18.6461 N   0  0  0  0  0  0  0  0  0  0  0  0
    8.0383  -18.6940   20.0235 C   0  0  1  0  0  0  0  0  0  0  0  0
    9.2693  -19.5555   20.1690 C   0  0  0  0  0  0  0  0  0  0  0  0
    9.6248  -19.7241   21.9457 S   0  0  0  0  0  0  0  0  0  0  0  0
    8.1421  -17.4105   20.7268 C   0  0  0  0  0  0  0  0  0  0  0  0
    8.7948  -16.4728   20.2092 O   0  0  0  0  0  0  0  0  0  0  0  0
    7.5342  -17.1546   21.9912 N   0  0  0  0  0  0  0  0  0  0  0  0
    7.7324  -15.8990   22.7111 C   0  0  1  0  0  0  0  0  0  0  0  0
    6.8012  -15.7693   23.8741 C   0  0  0  0  0  0  0  0  0  0  0  0
    6.9885  -14.4890   24.6129 C   0  0  0  0  0  0  0  0  0  0  0  0
    7.4375  -13.3623   23.9503 C   0  0  0  0  0  0  0  0  0  0  0  0
    7.6207  -12.1603   24.6025 C   0  0  0  0  0  0  0  0  0  0  0  0
    7.3629  -12.0285   25.9509 C   0  0  0  0  0  0  0  0  0  0  0  0
    6.9144  -13.1492   26.6195 C   0  0  0  0  0  0  0  0  0  0  0  0
    6.7331  -14.3496   25.9609 C   0  0  0  0  0  0  0  0  0  0  0  0
    9.1630  -15.8069   23.1215 C   0  0  0  0  0  0  0  0  0  0  0  0
    9.7963  -14.7353   22.9151 O   0  0  0  0  0  0  0  0  0  0  0  0
    9.8390  -16.8717   23.7325 N   0  0  0  0  0  0  0  0  0  0  0  0
   11.2937  -16.8308   24.0271 C   0  0  1  0  0  0  0  0  0  0  0  0
   11.4302  -15.7733   25.0823 C   0  0  0  0  0  0  0  0  0  0  0  0
   11.0335  -16.1273   26.4417 C   0  0  0  0  0  0  0  0  0  0  0  0
   10.9572  -17.4402   26.9080 C   0  0  0  0  0  0  0  0  0  0  0  0
   10.5276  -17.4017   28.1764 N   0  0  0  0  0  0  0  0  0  0  0  0
   10.3311  -16.1318   28.5300 C   0  0  0  0  0  0  0  0  0  0  0  0
    9.9146  -15.5330   29.7081 C   0  0  0  0  0  0  0  0  0  0  0  0
    9.7983  -14.1738   29.8600 C   0  0  0  0  0  0  0  0  0  0  0  0
   10.1178  -13.3830   28.7709 C   0  0  0  0  0  0  0  0  0  0  0  0
   10.5314  -13.9224   27.5903 C   0  0  0  0  0  0  0  0  0  0  0  0
   10.6388  -15.2999   27.4653 C   0  0  0  0  0  0  0  0  0  0  0  0
   11.7598  -18.1306   24.5030 C   0  0  0  0  0  0  0  0  0  0  0  0
   13.0090  -18.2520   24.7638 O   0  0  0  0  0  0  0  0  0  0  0  0
   11.0043  -19.2482   24.7103 O   0  0  0  0  0  0  0  0  0  0  0  0
  2  1  1  6
  3  2  1  0
  4  3  1  0
  5  2  1  0
  6  5  2  0
  7  5  1  0
  8  7  1  0
  8  9  1  1
 10  9  1  0
 11 10  2  0
 12 11  1  0
 13 12  2  0
 13 14  1  0
 14 15  2  0
 15 10  1  0
 16 18  1  0
 16  8  1  0
 17 16  2  0
 19 18  1  0
 19 30  1  0
 19 20  1  1
 21 22  2  0
 21 20  1  0
 23 22  1  0
 24 29  2  0
 24 23  1  0
 25 24  1  0
 26 27  1  0
 26 25  2  0
 27 28  2  0
 28 29  1  0
 29 21  1  0
 30 32  1  0
 31 30  2  0
M  END
$$$$
