WYD.pdb
     RDKit          3D

 35 37  0  0  1  0  0  0  0  0999 V2000
    8.6442  -17.3549   25.1654 N   0  0  0  0  0  0  0  0  0  0  0  0
    7.2188  -17.4641   25.3635 C   0  0  1  0  0  0  0  0  0  0  0  0
    6.6114  -16.2844   26.0828 C   0  0  0  0  0  0  0  0  0  0  0  0
    7.6097  -15.4163   26.7098 C   0  0  0  0  0  0  0  0  0  0  0  0
    8.8645  -15.8267   27.1182 C   0  0  0  0  0  0  0  0  0  0  0  0
    9.5017  -14.7571   27.6198 N   0  0  0  0  0  0  0  0  0  0  0  0
    8.7162  -13.6612   27.5578 C   0  0  0  0  0  0  0  0  0  0  0  0
    8.8740  -12.3559   27.9278 C   0  0  0  0  0  0  0  0  0  0  0  0
    7.8710  -11.4465   27.7429 C   0  0  0  0  0  0  0  0  0  0  0  0
    6.6859  -11.8470   27.1775 C   0  0  0  0  0  0  0  0  0  0  0  0
    6.5125  -13.1671   26.7976 C   0  0  0  0  0  0  0  0  0  0  0  0
    7.5281  -14.0743   26.9871 C   0  0  0  0  0  0  0  0  0  0  0  0
    6.5134  -17.5763   24.0665 C   0  0  0  0  0  0  0  0  0  0  0  0
    5.3132  -17.2112   24.0127 O   0  0  0  0  0  0  0  0  0  0  0  0
    9.1268  -12.0278   18.2531 O   0  0  0  0  0  0  0  0  0  0  0  0
    8.7149  -12.9296   19.2348 C   0  0  0  0  0  0  0  0  0  0  0  0
    9.2424  -14.2028   19.2369 C   0  0  0  0  0  0  0  0  0  0  0  0
    8.8448  -15.1153   20.2062 C   0  0  0  0  0  0  0  0  0  0  0  0
    7.9286  -14.8062   21.1888 C   0  0  0  0  0  0  0  0  0  0  0  0
    7.4850  -15.7361   22.2267 C   0  0  0  0  0  0  0  0  0  0  0  0
    7.5524  -17.1860   21.8312 C   0  0  2  0  0  0  0  0  0  0  0  0
    7.1050  -18.0708   22.8747 N   0  0  0  0  0  0  0  0  0  0  0  0
    8.9650  -17.5040   21.4839 C   0  0  0  0  0  0  0  0  0  0  0  0
    9.3935  -17.2634   20.3265 O   0  0  0  0  0  0  0  0  0  0  0  0
    7.4112  -13.5212   21.1679 C   0  0  0  0  0  0  0  0  0  0  0  0
    7.7965  -12.6028   20.2111 C   0  0  0  0  0  0  0  0  0  0  0  0
    9.8520  -18.0864   22.4608 N   0  0  0  0  0  0  0  0  0  0  0  0
   11.2600  -17.8457   22.4688 C   0  0  1  0  0  0  0  0  0  0  0  0
   11.5625  -16.3811   22.3965 C   0  0  0  0  0  0  0  0  0  0  0  0
   13.0065  -16.0648   22.3574 C   0  0  0  0  0  0  0  0  0  0  0  0
   13.5874  -15.6465   23.3849 O   0  0  0  0  0  0  0  0  0  0  0  0
   11.9514  -18.5076   23.5856 C   0  0  0  0  0  0  0  0  0  0  0  0
   13.3148  -18.6742   23.5907 O   0  0  0  0  0  0  0  0  0  0  0  0
   13.7384  -16.2237   21.1928 O   0  0  0  0  0  0  0  0  0  0  0  0
   11.2809  -18.9289   24.5540 O   0  0  0  0  0  0  0  0  0  0  0  0
  2  3  1  0
  2  1  1  6
  3  4  1  0
  4  5  2  0
  6  5  1  0
  7  6  1  0
  8  7  2  0
  9  8  1  0
 10 11  1  0
 10  9  2  0
 11 12  2  0
 12  7  1  0
 12  4  1  0
 13  2  1  0
 13 22  1  0
 14 13  2  0
 16 15  1  0
 16 17  2  0
 18 17  1  0
 19 18  2  0
 20 19  1  0
 21 20  1  1
 21 23  1  0
 21 22  1  0
 23 27  1  0
 24 23  2  0
 25 26  2  0
 25 19  1  0
 26 16  1  0
 27 28  1  0
 28 29  1  1
 29 30  1  0
 30 31  2  0
 32 33  1  0
 32 28  1  0
 34 30  1  0
 35 32  2  0
M  END
$$$$
