WYD.pdb
     RDKit          3D

 35 37  0  0  1  0  0  0  0  0999 V2000
    7.2905  -17.4286   26.2622 N   0  0  0  0  0  0  0  0  0  0  0  0
    7.5000  -16.5315   25.1512 C   0  0  1  0  0  0  0  0  0  0  0  0
    8.6132  -15.5366   25.3727 C   0  0  0  0  0  0  0  0  0  0  0  0
    8.4107  -14.7008   26.5575 C   0  0  0  0  0  0  0  0  0  0  0  0
    9.0587  -14.8772   27.7654 C   0  0  0  0  0  0  0  0  0  0  0  0
    8.6394  -13.9125   28.5993 N   0  0  0  0  0  0  0  0  0  0  0  0
    7.7422  -13.1102   27.9883 C   0  0  0  0  0  0  0  0  0  0  0  0
    7.0249  -12.0152   28.3784 C   0  0  0  0  0  0  0  0  0  0  0  0
    6.1615  -11.3973   27.5183 C   0  0  0  0  0  0  0  0  0  0  0  0
    6.0099  -11.8815   26.2427 C   0  0  0  0  0  0  0  0  0  0  0  0
    6.7309  -12.9906   25.8339 C   0  0  0  0  0  0  0  0  0  0  0  0
    7.5978  -13.6047   26.7066 C   0  0  0  0  0  0  0  0  0  0  0  0
    7.8451  -17.2842   23.9236 C   0  0  0  0  0  0  0  0  0  0  0  0
    8.7664  -18.1346   23.9909 O   0  0  0  0  0  0  0  0  0  0  0  0
    8.7900  -11.6988   17.2513 O   0  0  0  0  0  0  0  0  0  0  0  0
    8.5511  -12.4755   18.3855 C   0  0  0  0  0  0  0  0  0  0  0  0
    7.2871  -12.9840   18.5934 C   0  0  0  0  0  0  0  0  0  0  0  0
    7.0292  -13.7597   19.7168 C   0  0  0  0  0  0  0  0  0  0  0  0
    7.9944  -14.0540   20.6562 C   0  0  0  0  0  0  0  0  0  0  0  0
    7.7645  -14.8666   21.8501 C   0  0  0  0  0  0  0  0  0  0  0  0
    7.8116  -16.3509   21.6093 C   0  0  2  0  0  0  0  0  0  0  0  0
    7.2018  -17.1084   22.6705 N   0  0  0  0  0  0  0  0  0  0  0  0
    9.2394  -16.7506   21.4725 C   0  0  0  0  0  0  0  0  0  0  0  0
    9.5320  -17.8531   20.9433 O   0  0  0  0  0  0  0  0  0  0  0  0
    9.2575  -13.5327   20.4275 C   0  0  0  0  0  0  0  0  0  0  0  0
    9.5295  -12.7600   19.3156 C   0  0  0  0  0  0  0  0  0  0  0  0
   10.2957  -15.8871   21.9404 N   0  0  0  0  0  0  0  0  0  0  0  0
   11.6764  -16.2471   21.8740 C   0  0  1  0  0  0  0  0  0  0  0  0
   12.5089  -15.1183   21.3501 C   0  0  0  0  0  0  0  0  0  0  0  0
   12.7619  -15.1807   19.8944 C   0  0  0  0  0  0  0  0  0  0  0  0
   12.3494  -16.1554   19.2250 O   0  0  0  0  0  0  0  0  0  0  0  0
   12.1932  -16.7848   23.1418 C   0  0  0  0  0  0  0  0  0  0  0  0
   11.4269  -16.8025   24.2816 O   0  0  0  0  0  0  0  0  0  0  0  0
   13.4545  -14.1706   19.2486 O   0  0  0  0  0  0  0  0  0  0  0  0
   13.3589  -17.2369   23.1823 O   0  0  0  0  0  0  0  0  0  0  0  0
  2  3  1  0
  2  1  1  1
  3  4  1  0
  4  5  2  0
  6  5  1  0
  7  6  1  0
  8  7  2  0
  9  8  1  0
 10 11  1  0
 10  9  2  0
 11 12  2  0
 12  7  1  0
 12  4  1  0
 13  2  1  0
 13 22  1  0
 14 13  2  0
 16 15  1  0
 16 17  2  0
 18 17  1  0
 19 18  2  0
 20 19  1  0
 21 20  1  1
 21 23  1  0
 21 22  1  0
 23 27  1  0
 24 23  2  0
 25 26  2  0
 25 19  1  0
 26 16  1  0
 27 28  1  0
 28 29  1  1
 29 30  1  0
 30 31  2  0
 32 33  1  0
 32 28  1  0
 34 30  1  0
 35 32  2  0
M  END
$$$$
