WYD.pdb
     RDKit          3D

 35 37  0  0  1  0  0  0  0  0999 V2000
    8.1949  -18.3512   20.6901 N   0  0  0  0  0  0  0  0  0  0  0  0
    9.4320  -17.6294   20.5127 C   0  0  1  0  0  0  0  0  0  0  0  0
    9.3477  -16.5158   19.4974 C   0  0  0  0  0  0  0  0  0  0  0  0
    8.1710  -15.6630   19.6748 C   0  0  0  0  0  0  0  0  0  0  0  0
    6.8701  -16.0537   19.4201 C   0  0  0  0  0  0  0  0  0  0  0  0
    6.0665  -15.0215   19.7211 N   0  0  0  0  0  0  0  0  0  0  0  0
    6.7868  -13.9689   20.1628 C   0  0  0  0  0  0  0  0  0  0  0  0
    6.4697  -12.7084   20.5826 C   0  0  0  0  0  0  0  0  0  0  0  0
    7.4421  -11.8327   20.9758 C   0  0  0  0  0  0  0  0  0  0  0  0
    8.7583  -12.2219   20.9496 C   0  0  0  0  0  0  0  0  0  0  0  0
    9.0941  -13.4967   20.5264 C   0  0  0  0  0  0  0  0  0  0  0  0
    8.1081  -14.3707   20.1336 C   0  0  0  0  0  0  0  0  0  0  0  0
    9.8671  -17.0086   21.7846 C   0  0  0  0  0  0  0  0  0  0  0  0
   10.9905  -16.4485   21.8152 O   0  0  0  0  0  0  0  0  0  0  0  0
   10.7005  -14.0769   30.0799 O   0  0  0  0  0  0  0  0  0  0  0  0
   10.1885  -14.5639   28.8769 C   0  0  0  0  0  0  0  0  0  0  0  0
    9.8160  -15.8883   28.7961 C   0  0  0  0  0  0  0  0  0  0  0  0
    9.3041  -16.3922   27.6068 C   0  0  0  0  0  0  0  0  0  0  0  0
    9.1457  -15.6181   26.4771 C   0  0  0  0  0  0  0  0  0  0  0  0
    8.6102  -16.1090   25.2079 C   0  0  0  0  0  0  0  0  0  0  0  0
    9.6552  -16.5814   24.2343 C   0  0  2  0  0  0  0  0  0  0  0  0
    9.0966  -17.0039   22.9768 N   0  0  0  0  0  0  0  0  0  0  0  0
   10.3865  -17.7184   24.8585 C   0  0  0  0  0  0  0  0  0  0  0  0
    9.9564  -18.8914   24.7171 O   0  0  0  0  0  0  0  0  0  0  0  0
    9.5264  -14.2901   26.5805 C   0  0  0  0  0  0  0  0  0  0  0  0
   10.0369  -13.7744   27.7557 C   0  0  0  0  0  0  0  0  0  0  0  0
   11.5863  -17.4916   25.6263 N   0  0  0  0  0  0  0  0  0  0  0  0
   12.3412  -18.5523   26.2140 C   0  0  1  0  0  0  0  0  0  0  0  0
   13.6098  -18.8012   25.4587 C   0  0  0  0  0  0  0  0  0  0  0  0
   13.5678  -19.9944   24.5860 C   0  0  0  0  0  0  0  0  0  0  0  0
   12.5491  -20.7222   24.5635 O   0  0  0  0  0  0  0  0  0  0  0  0
   12.5726  -18.3654   27.6546 C   0  0  0  0  0  0  0  0  0  0  0  0
   13.6193  -17.6096   28.1232 O   0  0  0  0  0  0  0  0  0  0  0  0
   14.6459  -20.3271   23.7833 O   0  0  0  0  0  0  0  0  0  0  0  0
   11.7969  -18.9083   28.4721 O   0  0  0  0  0  0  0  0  0  0  0  0
  2  3  1  0
  2  1  1  1
  3  4  1  0
  4  5  2  0
  6  5  1  0
  7  6  1  0
  8  7  2  0
  9  8  1  0
 10 11  1  0
 10  9  2  0
 11 12  2  0
 12  7  1  0
 12  4  1  0
 13  2  1  0
 13 22  1  0
 14 13  2  0
 16 15  1  0
 16 17  2  0
 18 17  1  0
 19 18  2  0
 20 19  1  0
 21 20  1  1
 21 23  1  0
 21 22  1  0
 23 27  1  0
 24 23  2  0
 25 26  2  0
 25 19  1  0
 26 16  1  0
 27 28  1  0
 28 29  1  6
 29 30  1  0
 30 31  2  0
 32 33  1  0
 32 28  1  0
 34 30  1  0
 35 32  2  0
M  END
$$$$
