WYD.pdb
     RDKit          3D

 35 37  0  0  1  0  0  0  0  0999 V2000
    5.9585  -18.4630   24.1864 N   0  0  0  0  0  0  0  0  0  0  0  0
    6.5215  -17.1431   24.3400 C   0  0  1  0  0  0  0  0  0  0  0  0
    6.8513  -16.7837   25.7684 C   0  0  0  0  0  0  0  0  0  0  0  0
    6.5438  -15.3906   26.0971 C   0  0  0  0  0  0  0  0  0  0  0  0
    5.2864  -14.8226   26.0197 C   0  0  0  0  0  0  0  0  0  0  0  0
    5.3888  -13.5457   26.4204 N   0  0  0  0  0  0  0  0  0  0  0  0
    6.6624  -13.2519   26.7574 C   0  0  0  0  0  0  0  0  0  0  0  0
    7.2911  -12.1270   27.2100 C   0  0  0  0  0  0  0  0  0  0  0  0
    8.6333  -12.1265   27.4662 C   0  0  0  0  0  0  0  0  0  0  0  0
    9.3639  -13.2714   27.2666 C   0  0  0  0  0  0  0  0  0  0  0  0
    8.7394  -14.4190   26.8083 C   0  0  0  0  0  0  0  0  0  0  0  0
    7.3882  -14.4095   26.5543 C   0  0  0  0  0  0  0  0  0  0  0  0
    7.7803  -17.0140   23.5711 C   0  0  0  0  0  0  0  0  0  0  0  0
    8.4307  -18.0587   23.3219 O   0  0  0  0  0  0  0  0  0  0  0  0
    6.5529  -13.5226   16.9796 O   0  0  0  0  0  0  0  0  0  0  0  0
    7.3301  -13.7451   18.1167 C   0  0  0  0  0  0  0  0  0  0  0  0
    7.1776  -12.9124   19.2043 C   0  0  0  0  0  0  0  0  0  0  0  0
    7.9423  -13.1176   20.3459 C   0  0  0  0  0  0  0  0  0  0  0  0
    8.8672  -14.1347   20.4498 C   0  0  0  0  0  0  0  0  0  0  0  0
    9.6901  -14.3852   21.6325 C   0  0  0  0  0  0  0  0  0  0  0  0
    9.4771  -15.7347   22.2625 C   0  0  2  0  0  0  0  0  0  0  0  0
    8.3037  -15.7835   23.0948 N   0  0  0  0  0  0  0  0  0  0  0  0
   10.6787  -16.0563   23.0808 C   0  0  0  0  0  0  0  0  0  0  0  0
   10.8084  -15.5527   24.2257 O   0  0  0  0  0  0  0  0  0  0  0  0
    9.0042  -14.9596   19.3452 C   0  0  0  0  0  0  0  0  0  0  0  0
    8.2513  -14.7684   18.2032 C   0  0  0  0  0  0  0  0  0  0  0  0
   11.7000  -16.9411   22.5763 N   0  0  0  0  0  0  0  0  0  0  0  0
   12.9178  -17.1973   23.2777 C   0  0  1  0  0  0  0  0  0  0  0  0
   13.0744  -18.6548   23.5824 C   0  0  0  0  0  0  0  0  0  0  0  0
   13.5641  -18.9358   24.9492 C   0  0  0  0  0  0  0  0  0  0  0  0
   14.7017  -18.5491   25.3022 O   0  0  0  0  0  0  0  0  0  0  0  0
   14.0989  -16.6337   22.6062 C   0  0  0  0  0  0  0  0  0  0  0  0
   15.3274  -16.5996   23.2194 O   0  0  0  0  0  0  0  0  0  0  0  0
   12.7803  -19.6267   25.8579 O   0  0  0  0  0  0  0  0  0  0  0  0
   13.9809  -16.1745   21.4486 O   0  0  0  0  0  0  0  0  0  0  0  0
  2  3  1  0
  2  1  1  1
  3  4  1  0
  4  5  2  0
  6  5  1  0
  7  6  1  0
  8  7  2  0
  9  8  1  0
 10 11  1  0
 10  9  2  0
 11 12  2  0
 12  7  1  0
 12  4  1  0
 13  2  1  0
 13 22  1  0
 14 13  2  0
 16 15  1  0
 16 17  2  0
 18 17  1  0
 19 18  2  0
 20 19  1  0
 21 20  1  1
 21 23  1  0
 21 22  1  0
 23 27  1  0
 24 23  2  0
 25 26  2  0
 25 19  1  0
 26 16  1  0
 27 28  1  0
 28 29  1  6
 29 30  1  0
 30 31  2  0
 32 33  1  0
 32 28  1  0
 34 30  1  0
 35 32  2  0
M  END
$$$$
