WYD.pdb
     RDKit          3D

 35 37  0  0  1  0  0  0  0  0999 V2000
    6.5079  -18.4574   25.3968 N   0  0  0  0  0  0  0  0  0  0  0  0
    6.4965  -17.3082   24.5237 C   0  0  1  0  0  0  0  0  0  0  0  0
    6.2959  -15.9973   25.2444 C   0  0  0  0  0  0  0  0  0  0  0  0
    7.2421  -15.7937   26.3429 C   0  0  0  0  0  0  0  0  0  0  0  0
    7.8937  -16.8079   27.0187 C   0  0  0  0  0  0  0  0  0  0  0  0
    8.6937  -16.2407   27.9352 N   0  0  0  0  0  0  0  0  0  0  0  0
    8.5936  -14.8954   27.8890 C   0  0  0  0  0  0  0  0  0  0  0  0
    9.1711  -13.8741   28.5884 C   0  0  0  0  0  0  0  0  0  0  0  0
    8.8607  -12.5716   28.3160 C   0  0  0  0  0  0  0  0  0  0  0  0
    7.9553  -12.2814   27.3257 C   0  0  0  0  0  0  0  0  0  0  0  0
    7.3624  -13.3068   26.6087 C   0  0  0  0  0  0  0  0  0  0  0  0
    7.6821  -14.6141   26.8899 C   0  0  0  0  0  0  0  0  0  0  0  0
    7.7758  -17.1932   23.7870 C   0  0  0  0  0  0  0  0  0  0  0  0
    8.4321  -18.2423   23.5745 O   0  0  0  0  0  0  0  0  0  0  0  0
    6.0498  -13.6675   17.2990 O   0  0  0  0  0  0  0  0  0  0  0  0
    6.9045  -13.8866   18.3798 C   0  0  0  0  0  0  0  0  0  0  0  0
    7.5957  -15.0765   18.4552 C   0  0  0  0  0  0  0  0  0  0  0  0
    8.4515  -15.3135   19.5236 C   0  0  0  0  0  0  0  0  0  0  0  0
    8.6500  -14.3990   20.5359 C   0  0  0  0  0  0  0  0  0  0  0  0
    9.5418  -14.6089   21.6757 C   0  0  0  0  0  0  0  0  0  0  0  0
    9.3879  -15.9467   22.3463 C   0  0  2  0  0  0  0  0  0  0  0  0
    8.3125  -15.9716   23.3028 N   0  0  0  0  0  0  0  0  0  0  0  0
   10.6693  -16.2684   23.0330 C   0  0  0  0  0  0  0  0  0  0  0  0
   10.9061  -15.7891   24.1711 O   0  0  0  0  0  0  0  0  0  0  0  0
    7.9454  -13.2099   20.4402 C   0  0  0  0  0  0  0  0  0  0  0  0
    7.0910  -12.9596   19.3844 C   0  0  0  0  0  0  0  0  0  0  0  0
   11.6466  -17.1257   22.4081 N   0  0  0  0  0  0  0  0  0  0  0  0
   12.9072  -17.4282   23.0079 C   0  0  1  0  0  0  0  0  0  0  0  0
   13.3812  -18.7943   22.6196 C   0  0  0  0  0  0  0  0  0  0  0  0
   14.7171  -19.1424   23.1498 C   0  0  0  0  0  0  0  0  0  0  0  0
   15.7248  -19.0772   22.4092 O   0  0  0  0  0  0  0  0  0  0  0  0
   13.9230  -16.3918   22.7678 C   0  0  0  0  0  0  0  0  0  0  0  0
   14.9716  -16.1978   23.6333 O   0  0  0  0  0  0  0  0  0  0  0  0
   14.8780  -19.5441   24.4651 O   0  0  0  0  0  0  0  0  0  0  0  0
   13.8289  -15.6700   21.7505 O   0  0  0  0  0  0  0  0  0  0  0  0
  2  3  1  0
  2  1  1  1
  3  4  1  0
  4  5  2  0
  6  5  1  0
  7  6  1  0
  8  7  2  0
  9  8  1  0
 10 11  1  0
 10  9  2  0
 11 12  2  0
 12  7  1  0
 12  4  1  0
 13  2  1  0
 13 22  1  0
 14 13  2  0
 16 15  1  0
 16 17  2  0
 18 17  1  0
 19 18  2  0
 20 19  1  0
 21 20  1  1
 21 23  1  0
 21 22  1  0
 23 27  1  0
 24 23  2  0
 25 26  2  0
 25 19  1  0
 26 16  1  0
 27 28  1  0
 28 29  1  6
 29 30  1  0
 30 31  2  0
 32 33  1  0
 32 28  1  0
 34 30  1  0
 35 32  2  0
M  END
$$$$
