WYD.pdb
     RDKit          3D

 35 37  0  0  1  0  0  0  0  0999 V2000
    6.0087  -18.1261   24.1047 N   0  0  0  0  0  0  0  0  0  0  0  0
    6.6554  -16.8390   24.1951 C   0  0  1  0  0  0  0  0  0  0  0  0
    7.1310  -16.4923   25.5850 C   0  0  0  0  0  0  0  0  0  0  0  0
    6.6086  -15.2135   26.0698 C   0  0  0  0  0  0  0  0  0  0  0  0
    5.2794  -14.9626   26.3528 C   0  0  0  0  0  0  0  0  0  0  0  0
    5.1867  -13.6986   26.7949 N   0  0  0  0  0  0  0  0  0  0  0  0
    6.4008  -13.1092   26.8133 C   0  0  0  0  0  0  0  0  0  0  0  0
    6.8499  -11.8670   27.1612 C   0  0  0  0  0  0  0  0  0  0  0  0
    8.1745  -11.5458   27.0653 C   0  0  0  0  0  0  0  0  0  0  0  0
    9.0701  -12.4826   26.6129 C   0  0  0  0  0  0  0  0  0  0  0  0
    8.6288  -13.7458   26.2569 C   0  0  0  0  0  0  0  0  0  0  0  0
    7.2939  -14.0594   26.3578 C   0  0  0  0  0  0  0  0  0  0  0  0
    7.8456  -16.7841   23.3160 C   0  0  0  0  0  0  0  0  0  0  0  0
    8.4371  -17.8602   23.0538 O   0  0  0  0  0  0  0  0  0  0  0  0
    6.8066  -13.8016   16.4274 O   0  0  0  0  0  0  0  0  0  0  0  0
    7.5467  -13.9339   17.6027 C   0  0  0  0  0  0  0  0  0  0  0  0
    7.3563  -13.0226   18.6189 C   0  0  0  0  0  0  0  0  0  0  0  0
    8.0838  -13.1374   19.7970 C   0  0  0  0  0  0  0  0  0  0  0  0
    9.0078  -14.1387   20.0071 C   0  0  0  0  0  0  0  0  0  0  0  0
    9.7922  -14.2953   21.2314 C   0  0  0  0  0  0  0  0  0  0  0  0
    9.5651  -15.5961   21.9522 C   0  0  2  0  0  0  0  0  0  0  0  0
    8.3652  -15.5919   22.7473 N   0  0  0  0  0  0  0  0  0  0  0  0
   10.7407  -15.8478   22.8306 C   0  0  0  0  0  0  0  0  0  0  0  0
   11.0933  -14.9781   23.6675 O   0  0  0  0  0  0  0  0  0  0  0  0
    9.1832  -15.0436   18.9728 C   0  0  0  0  0  0  0  0  0  0  0  0
    8.4676  -14.9428   17.7958 C   0  0  0  0  0  0  0  0  0  0  0  0
   11.4834  -17.0805   22.7345 N   0  0  0  0  0  0  0  0  0  0  0  0
   12.6903  -17.3158   23.4615 C   0  0  1  0  0  0  0  0  0  0  0  0
   12.7884  -18.7418   23.9071 C   0  0  0  0  0  0  0  0  0  0  0  0
   12.0224  -19.0438   25.1355 C   0  0  0  0  0  0  0  0  0  0  0  0
   11.4827  -18.1186   25.7842 O   0  0  0  0  0  0  0  0  0  0  0  0
   13.8927  -16.8679   22.7423 C   0  0  0  0  0  0  0  0  0  0  0  0
   15.1223  -16.8252   23.3529 O   0  0  0  0  0  0  0  0  0  0  0  0
   11.8884  -20.3453   25.5885 O   0  0  0  0  0  0  0  0  0  0  0  0
   13.7923  -16.5176   21.5457 O   0  0  0  0  0  0  0  0  0  0  0  0
  2  3  1  0
  2  1  1  1
  3  4  1  0
  4  5  2  0
  6  5  1  0
  7  6  1  0
  8  7  2  0
  9  8  1  0
 10 11  1  0
 10  9  2  0
 11 12  2  0
 12  7  1  0
 12  4  1  0
 13  2  1  0
 13 22  1  0
 14 13  2  0
 16 15  1  0
 16 17  2  0
 18 17  1  0
 19 18  2  0
 20 19  1  0
 21 20  1  1
 21 23  1  0
 21 22  1  0
 23 27  1  0
 24 23  2  0
 25 26  2  0
 25 19  1  0
 26 16  1  0
 27 28  1  0
 28 29  1  6
 29 30  1  0
 30 31  2  0
 32 33  1  0
 32 28  1  0
 34 30  1  0
 35 32  2  0
M  END
$$$$
