WYD.pdb
     RDKit          3D

 35 37  0  0  1  0  0  0  0  0999 V2000
   11.2969  -16.6444   20.1684 N   0  0  0  0  0  0  0  0  0  0  0  0
   10.2190  -16.1461   20.9886 C   0  0  1  0  0  0  0  0  0  0  0  0
    8.8973  -16.8315   20.7403 C   0  0  0  0  0  0  0  0  0  0  0  0
    7.8607  -15.9221   20.2486 C   0  0  0  0  0  0  0  0  0  0  0  0
    6.5707  -16.2993   19.9268 C   0  0  0  0  0  0  0  0  0  0  0  0
    5.9070  -15.1985   19.5401 N   0  0  0  0  0  0  0  0  0  0  0  0
    6.7088  -14.1141   19.5944 C   0  0  0  0  0  0  0  0  0  0  0  0
    6.5370  -12.7891   19.3106 C   0  0  0  0  0  0  0  0  0  0  0  0
    7.5634  -11.8994   19.4586 C   0  0  0  0  0  0  0  0  0  0  0  0
    8.7869  -12.3400   19.8986 C   0  0  0  0  0  0  0  0  0  0  0  0
    8.9750  -13.6804   20.1901 C   0  0  0  0  0  0  0  0  0  0  0  0
    7.9356  -14.5676   20.0387 C   0  0  0  0  0  0  0  0  0  0  0  0
   10.5239  -16.3258   22.4263 C   0  0  0  0  0  0  0  0  0  0  0  0
   11.4938  -17.0598   22.7377 O   0  0  0  0  0  0  0  0  0  0  0  0
   10.8953  -15.3654   31.2517 O   0  0  0  0  0  0  0  0  0  0  0  0
   10.5392  -15.2559   29.9071 C   0  0  0  0  0  0  0  0  0  0  0  0
    9.7556  -16.2380   29.3408 C   0  0  0  0  0  0  0  0  0  0  0  0
    9.3904  -16.1470   28.0035 C   0  0  0  0  0  0  0  0  0  0  0  0
    9.7803  -15.1008   27.1946 C   0  0  0  0  0  0  0  0  0  0  0  0
    9.4168  -14.9671   25.7844 C   0  0  0  0  0  0  0  0  0  0  0  0
   10.1928  -15.8608   24.8558 C   0  0  2  0  0  0  0  0  0  0  0  0
    9.7904  -15.7217   23.4808 N   0  0  0  0  0  0  0  0  0  0  0  0
    9.9867  -17.2694   25.2923 C   0  0  0  0  0  0  0  0  0  0  0  0
    9.0860  -17.9643   24.7567 O   0  0  0  0  0  0  0  0  0  0  0  0
   10.5673  -14.1250   27.7842 C   0  0  0  0  0  0  0  0  0  0  0  0
   10.9386  -14.2013   29.1123 C   0  0  0  0  0  0  0  0  0  0  0  0
   10.8094  -17.8499   26.3251 N   0  0  0  0  0  0  0  0  0  0  0  0
   11.4036  -19.1434   26.2057 C   0  0  1  0  0  0  0  0  0  0  0  0
   12.0430  -19.3272   24.8643 C   0  0  0  0  0  0  0  0  0  0  0  0
   12.0381  -20.7246   24.3805 C   0  0  0  0  0  0  0  0  0  0  0  0
   11.1858  -21.5361   24.8086 O   0  0  0  0  0  0  0  0  0  0  0  0
   12.3187  -19.4613   27.3125 C   0  0  0  0  0  0  0  0  0  0  0  0
   12.1276  -20.5628   28.1105 O   0  0  0  0  0  0  0  0  0  0  0  0
   12.9688  -21.1594   23.4520 O   0  0  0  0  0  0  0  0  0  0  0  0
   13.2945  -18.7100   27.5318 O   0  0  0  0  0  0  0  0  0  0  0  0
  2  3  1  0
  2  1  1  6
  3  4  1  0
  4  5  2  0
  6  5  1  0
  7  6  1  0
  8  7  2  0
  9  8  1  0
 10 11  1  0
 10  9  2  0
 11 12  2  0
 12  7  1  0
 12  4  1  0
 13  2  1  0
 13 22  1  0
 14 13  2  0
 16 15  1  0
 16 17  2  0
 18 17  1  0
 19 18  2  0
 20 19  1  0
 21 20  1  1
 21 23  1  0
 21 22  1  0
 23 27  1  0
 24 23  2  0
 25 26  2  0
 25 19  1  0
 26 16  1  0
 27 28  1  0
 28 29  1  6
 29 30  1  0
 30 31  2  0
 32 33  1  0
 32 28  1  0
 34 30  1  0
 35 32  2  0
M  END
$$$$
