WYD.pdb
     RDKit          3D

 35 37  0  0  1  0  0  0  0  0999 V2000
    7.4131  -19.1708   25.8515 N   0  0  0  0  0  0  0  0  0  0  0  0
    7.1248  -17.7706   25.6538 C   0  0  1  0  0  0  0  0  0  0  0  0
    7.7020  -16.8729   26.7211 C   0  0  0  0  0  0  0  0  0  0  0  0
    7.1315  -15.5247   26.7096 C   0  0  0  0  0  0  0  0  0  0  0  0
    5.8121  -15.2306   26.4226 C   0  0  0  0  0  0  0  0  0  0  0  0
    5.6552  -13.9023   26.5348 N   0  0  0  0  0  0  0  0  0  0  0  0
    6.8179  -13.3121   26.8833 C   0  0  0  0  0  0  0  0  0  0  0  0
    7.1968  -12.0205   27.1156 C   0  0  0  0  0  0  0  0  0  0  0  0
    8.4847  -11.7158   27.4555 C   0  0  0  0  0  0  0  0  0  0  0  0
    9.4143  -12.7199   27.5660 C   0  0  0  0  0  0  0  0  0  0  0  0
    9.0440  -14.0336   27.3336 C   0  0  0  0  0  0  0  0  0  0  0  0
    7.7454  -14.3299   26.9929 C   0  0  0  0  0  0  0  0  0  0  0  0
    7.6727  -17.2968   24.3624 C   0  0  0  0  0  0  0  0  0  0  0  0
    8.5859  -17.9703   23.8248 O   0  0  0  0  0  0  0  0  0  0  0  0
    8.8331  -13.0540   16.6398 O   0  0  0  0  0  0  0  0  0  0  0  0
    8.4358  -13.3896   17.9345 C   0  0  0  0  0  0  0  0  0  0  0  0
    7.5880  -14.4606   18.1174 C   0  0  0  0  0  0  0  0  0  0  0  0
    7.1810  -14.8104   19.3988 C   0  0  0  0  0  0  0  0  0  0  0  0
    7.5907  -14.1260   20.5232 C   0  0  0  0  0  0  0  0  0  0  0  0
    7.1870  -14.4624   21.8880 C   0  0  0  0  0  0  0  0  0  0  0  0
    7.7769  -15.7433   22.4120 C   0  0  2  0  0  0  0  0  0  0  0  0
    7.2335  -16.1273   23.6884 N   0  0  0  0  0  0  0  0  0  0  0  0
    9.2488  -15.5560   22.5364 C   0  0  0  0  0  0  0  0  0  0  0  0
    9.7246  -15.0064   23.5623 O   0  0  0  0  0  0  0  0  0  0  0  0
    8.4426  -13.0532   20.3164 C   0  0  0  0  0  0  0  0  0  0  0  0
    8.8560  -12.6930   19.0488 C   0  0  0  0  0  0  0  0  0  0  0  0
   10.1400  -15.9982   21.4919 N   0  0  0  0  0  0  0  0  0  0  0  0
   11.5473  -15.7557   21.5210 C   0  0  1  0  0  0  0  0  0  0  0  0
   12.2783  -16.8716   22.2009 C   0  0  0  0  0  0  0  0  0  0  0  0
   13.7508  -16.7432   22.1564 C   0  0  0  0  0  0  0  0  0  0  0  0
   14.4131  -17.3823   21.3073 O   0  0  0  0  0  0  0  0  0  0  0  0
   12.1056  -15.4433   20.1965 C   0  0  0  0  0  0  0  0  0  0  0  0
   13.3504  -14.8802   20.0548 O   0  0  0  0  0  0  0  0  0  0  0  0
   14.4205  -15.9202   23.0461 O   0  0  0  0  0  0  0  0  0  0  0  0
   11.4299  -15.6968   19.1748 O   0  0  0  0  0  0  0  0  0  0  0  0
  2  3  1  0
  2  1  1  1
  3  4  1  0
  4  5  2  0
  6  5  1  0
  7  6  1  0
  8  7  2  0
  9  8  1  0
 10 11  1  0
 10  9  2  0
 11 12  2  0
 12  7  1  0
 12  4  1  0
 13  2  1  0
 13 22  1  0
 14 13  2  0
 16 15  1  0
 16 17  2  0
 18 17  1  0
 19 18  2  0
 20 19  1  0
 21 20  1  1
 21 23  1  0
 21 22  1  0
 23 27  1  0
 24 23  2  0
 25 26  2  0
 25 19  1  0
 26 16  1  0
 27 28  1  0
 28 29  1  6
 29 30  1  0
 30 31  2  0
 32 33  1  0
 32 28  1  0
 34 30  1  0
 35 32  2  0
M  END
$$$$
