WYD.pdb
     RDKit          3D

 35 37  0  0  1  0  0  0  0  0999 V2000
    6.6549  -18.2097   25.1824 N   0  0  0  0  0  0  0  0  0  0  0  0
    6.5294  -17.3195   24.0533 C   0  0  1  0  0  0  0  0  0  0  0  0
    6.1008  -15.9208   24.4248 C   0  0  0  0  0  0  0  0  0  0  0  0
    6.8374  -15.3775   25.5675 C   0  0  0  0  0  0  0  0  0  0  0  0
    7.6730  -16.1125   26.3869 C   0  0  0  0  0  0  0  0  0  0  0  0
    8.1874  -15.2764   27.3024 N   0  0  0  0  0  0  0  0  0  0  0  0
    7.7233  -14.0224   27.1177 C   0  0  0  0  0  0  0  0  0  0  0  0
    7.9211  -12.8314   27.7563 C   0  0  0  0  0  0  0  0  0  0  0  0
    7.2907  -11.6945   27.3353 C   0  0  0  0  0  0  0  0  0  0  0  0
    6.4453  -11.7463   26.2550 C   0  0  0  0  0  0  0  0  0  0  0  0
    6.2357  -12.9470   25.5980 C   0  0  0  0  0  0  0  0  0  0  0  0
    6.8753  -14.0852   26.0290 C   0  0  0  0  0  0  0  0  0  0  0  0
    7.8195  -17.1896   23.3384 C   0  0  0  0  0  0  0  0  0  0  0  0
    8.2744  -18.2017   22.7509 O   0  0  0  0  0  0  0  0  0  0  0  0
    6.2472  -13.4782   17.5006 O   0  0  0  0  0  0  0  0  0  0  0  0
    7.1295  -13.7336   18.5508 C   0  0  0  0  0  0  0  0  0  0  0  0
    7.1786  -12.8552   19.6116 C   0  0  0  0  0  0  0  0  0  0  0  0
    8.0507  -13.0921   20.6669 C   0  0  0  0  0  0  0  0  0  0  0  0
    8.8889  -14.1858   20.7091 C   0  0  0  0  0  0  0  0  0  0  0  0
    9.8193  -14.4719   21.8005 C   0  0  0  0  0  0  0  0  0  0  0  0
    9.6965  -15.8573   22.3739 C   0  0  2  0  0  0  0  0  0  0  0  0
    8.5800  -15.9928   23.2723 N   0  0  0  0  0  0  0  0  0  0  0  0
   10.9580  -16.1689   23.1009 C   0  0  0  0  0  0  0  0  0  0  0  0
   11.9160  -15.3551   23.0676 O   0  0  0  0  0  0  0  0  0  0  0  0
    8.8231  -15.0556   19.6328 C   0  0  0  0  0  0  0  0  0  0  0  0
    7.9616  -14.8338   18.5764 C   0  0  0  0  0  0  0  0  0  0  0  0
   11.0967  -17.3962   23.8459 N   0  0  0  0  0  0  0  0  0  0  0  0
   12.3268  -17.8009   24.4488 C   0  0  1  0  0  0  0  0  0  0  0  0
   12.1071  -18.8813   25.4618 C   0  0  0  0  0  0  0  0  0  0  0  0
   11.4069  -18.4292   26.6834 C   0  0  0  0  0  0  0  0  0  0  0  0
   11.2018  -17.2090   26.8763 O   0  0  0  0  0  0  0  0  0  0  0  0
   13.3614  -18.1552   23.4651 C   0  0  0  0  0  0  0  0  0  0  0  0
   13.0446  -18.4467   22.1608 O   0  0  0  0  0  0  0  0  0  0  0  0
   10.9682  -19.3393   27.6302 O   0  0  0  0  0  0  0  0  0  0  0  0
   14.5586  -18.1917   23.8258 O   0  0  0  0  0  0  0  0  0  0  0  0
  2  3  1  0
  2  1  1  1
  3  4  1  0
  4  5  2  0
  6  5  1  0
  7  6  1  0
  8  7  2  0
  9  8  1  0
 10 11  1  0
 10  9  2  0
 11 12  2  0
 12  7  1  0
 12  4  1  0
 13  2  1  0
 13 22  1  0
 14 13  2  0
 16 15  1  0
 16 17  2  0
 18 17  1  0
 19 18  2  0
 20 19  1  0
 21 20  1  1
 21 23  1  0
 21 22  1  0
 23 27  1  0
 24 23  2  0
 25 26  2  0
 25 19  1  0
 26 16  1  0
 27 28  1  0
 28 29  1  1
 29 30  1  0
 30 31  2  0
 32 33  1  0
 32 28  1  0
 34 30  1  0
 35 32  2  0
M  END
$$$$
