WYD.pdb
     RDKit          3D

 35 37  0  0  1  0  0  0  0  0999 V2000
    6.8841  -19.0547   26.4050 N   0  0  0  0  0  0  0  0  0  0  0  0
    7.5204  -17.7978   26.0917 C   0  0  1  0  0  0  0  0  0  0  0  0
    9.0086  -17.7886   26.3434 C   0  0  0  0  0  0  0  0  0  0  0  0
    9.3867  -17.0211   27.5314 C   0  0  0  0  0  0  0  0  0  0  0  0
    9.7809  -17.5757   28.7343 C   0  0  0  0  0  0  0  0  0  0  0  0
   10.0715  -16.5690   29.5732 N   0  0  0  0  0  0  0  0  0  0  0  0
    9.8837  -15.3760   28.9704 C   0  0  0  0  0  0  0  0  0  0  0  0
   10.0246  -14.0769   29.3679 C   0  0  0  0  0  0  0  0  0  0  0  0
    9.7449  -13.0464   28.5153 C   0  0  0  0  0  0  0  0  0  0  0  0
    9.3156  -13.3169   27.2397 C   0  0  0  0  0  0  0  0  0  0  0  0
    9.1686  -14.6292   26.8234 C   0  0  0  0  0  0  0  0  0  0  0  0
    9.4533  -15.6590   27.6887 C   0  0  0  0  0  0  0  0  0  0  0  0
    7.3319  -17.4529   24.6641 C   0  0  0  0  0  0  0  0  0  0  0  0
    7.2592  -18.3918   23.8337 O   0  0  0  0  0  0  0  0  0  0  0  0
    8.2549  -12.9085   17.0670 O   0  0  0  0  0  0  0  0  0  0  0  0
    7.9619  -13.2732   18.3815 C   0  0  0  0  0  0  0  0  0  0  0  0
    7.3329  -14.4766   18.6172 C   0  0  0  0  0  0  0  0  0  0  0  0
    7.0327  -14.8575   19.9191 C   0  0  0  0  0  0  0  0  0  0  0  0
    7.3383  -14.0760   21.0129 C   0  0  0  0  0  0  0  0  0  0  0  0
    7.0410  -14.4406   22.3976 C   0  0  0  0  0  0  0  0  0  0  0  0
    7.5240  -15.8083   22.7969 C   0  0  2  0  0  0  0  0  0  0  0  0
    7.2276  -16.1266   24.1690 N   0  0  0  0  0  0  0  0  0  0  0  0
    8.9968  -15.8574   22.5839 C   0  0  0  0  0  0  0  0  0  0  0  0
    9.7519  -15.1168   23.2639 O   0  0  0  0  0  0  0  0  0  0  0  0
    7.9701  -12.8707   20.7531 C   0  0  0  0  0  0  0  0  0  0  0  0
    8.2752  -12.4782   19.4646 C   0  0  0  0  0  0  0  0  0  0  0  0
    9.5716  -16.7467   21.6044 N   0  0  0  0  0  0  0  0  0  0  0  0
   10.9715  -16.7875   21.3231 C   0  0  1  0  0  0  0  0  0  0  0  0
   11.4665  -18.1972   21.2258 C   0  0  0  0  0  0  0  0  0  0  0  0
   11.6997  -18.8461   22.5340 C   0  0  0  0  0  0  0  0  0  0  0  0
   11.3113  -20.0199   22.7326 O   0  0  0  0  0  0  0  0  0  0  0  0
   11.3481  -15.9779   20.1542 C   0  0  0  0  0  0  0  0  0  0  0  0
   10.5223  -15.8621   19.0628 O   0  0  0  0  0  0  0  0  0  0  0  0
   12.3468  -18.1733   23.5567 O   0  0  0  0  0  0  0  0  0  0  0  0
   12.4473  -15.3808   20.1547 O   0  0  0  0  0  0  0  0  0  0  0  0
  2  3  1  0
  2  1  1  6
  3  4  1  0
  4  5  2  0
  6  5  1  0
  7  6  1  0
  8  7  2  0
  9  8  1  0
 10 11  1  0
 10  9  2  0
 11 12  2  0
 12  7  1  0
 12  4  1  0
 13  2  1  0
 13 22  1  0
 14 13  2  0
 16 15  1  0
 16 17  2  0
 18 17  1  0
 19 18  2  0
 20 19  1  0
 21 20  1  1
 21 23  1  0
 21 22  1  0
 23 27  1  0
 24 23  2  0
 25 26  2  0
 25 19  1  0
 26 16  1  0
 27 28  1  0
 28 29  1  6
 29 30  1  0
 30 31  2  0
 32 33  1  0
 32 28  1  0
 34 30  1  0
 35 32  2  0
M  END
$$$$
