WYD.pdb
     RDKit          3D

 35 37  0  0  1  0  0  0  0  0999 V2000
    6.1608  -18.8657   25.4438 N   0  0  0  0  0  0  0  0  0  0  0  0
    6.8086  -17.5779   25.3753 C   0  0  1  0  0  0  0  0  0  0  0  0
    8.1108  -17.5096   26.1354 C   0  0  0  0  0  0  0  0  0  0  0  0
    8.0849  -16.5447   27.2362 C   0  0  0  0  0  0  0  0  0  0  0  0
    7.9124  -16.8736   28.5673 C   0  0  0  0  0  0  0  0  0  0  0  0
    7.9703  -15.7378   29.2802 N   0  0  0  0  0  0  0  0  0  0  0  0
    8.1733  -14.6765   28.4713 C   0  0  0  0  0  0  0  0  0  0  0  0
    8.3004  -13.3325   28.6795 C   0  0  0  0  0  0  0  0  0  0  0  0
    8.4975  -12.4746   27.6344 C   0  0  0  0  0  0  0  0  0  0  0  0
    8.5691  -12.9670   26.3549 C   0  0  0  0  0  0  0  0  0  0  0  0
    8.4422  -14.3272   26.1294 C   0  0  0  0  0  0  0  0  0  0  0  0
    8.2449  -15.1822   27.1879 C   0  0  0  0  0  0  0  0  0  0  0  0
    7.1193  -17.2179   23.9730 C   0  0  0  0  0  0  0  0  0  0  0  0
    7.3740  -18.1461   23.1669 O   0  0  0  0  0  0  0  0  0  0  0  0
    8.6649  -13.0303   16.3385 O   0  0  0  0  0  0  0  0  0  0  0  0
    8.2930  -13.3316   17.6490 C   0  0  0  0  0  0  0  0  0  0  0  0
    8.6699  -12.4787   18.6639 C   0  0  0  0  0  0  0  0  0  0  0  0
    8.3094  -12.7613   19.9755 C   0  0  0  0  0  0  0  0  0  0  0  0
    7.5770  -13.8765   20.3227 C   0  0  0  0  0  0  0  0  0  0  0  0
    7.1763  -14.2091   21.6892 C   0  0  0  0  0  0  0  0  0  0  0  0
    7.5612  -15.5953   22.1291 C   0  0  2  0  0  0  0  0  0  0  0  0
    7.1487  -15.8883   23.4766 N   0  0  0  0  0  0  0  0  0  0  0  0
    9.0416  -15.7172   22.0265 C   0  0  0  0  0  0  0  0  0  0  0  0
    9.7709  -15.2715   22.9487 O   0  0  0  0  0  0  0  0  0  0  0  0
    7.2087  -14.7200   19.2871 C   0  0  0  0  0  0  0  0  0  0  0  0
    7.5595  -14.4527   17.9783 C   0  0  0  0  0  0  0  0  0  0  0  0
    9.6530  -16.3420   20.8792 N   0  0  0  0  0  0  0  0  0  0  0  0
   11.0684  -16.4444   20.7160 C   0  0  1  0  0  0  0  0  0  0  0  0
   11.4313  -17.5781   19.8079 C   0  0  0  0  0  0  0  0  0  0  0  0
   11.4142  -18.9041   20.4623 C   0  0  0  0  0  0  0  0  0  0  0  0
   11.2916  -19.9437   19.7751 O   0  0  0  0  0  0  0  0  0  0  0  0
   11.6947  -15.1769   20.3102 C   0  0  0  0  0  0  0  0  0  0  0  0
   13.0596  -15.0360   20.2484 O   0  0  0  0  0  0  0  0  0  0  0  0
   11.5324  -19.0207   21.8370 O   0  0  0  0  0  0  0  0  0  0  0  0
   10.9661  -14.2041   20.0142 O   0  0  0  0  0  0  0  0  0  0  0  0
  2  3  1  0
  2  1  1  6
  3  4  1  0
  4  5  2  0
  6  5  1  0
  7  6  1  0
  8  7  2  0
  9  8  1  0
 10 11  1  0
 10  9  2  0
 11 12  2  0
 12  7  1  0
 12  4  1  0
 13  2  1  0
 13 22  1  0
 14 13  2  0
 16 15  1  0
 16 17  2  0
 18 17  1  0
 19 18  2  0
 20 19  1  0
 21 20  1  1
 21 23  1  0
 21 22  1  0
 23 27  1  0
 24 23  2  0
 25 26  2  0
 25 19  1  0
 26 16  1  0
 27 28  1  0
 28 29  1  6
 29 30  1  0
 30 31  2  0
 32 33  1  0
 32 28  1  0
 34 30  1  0
 35 32  2  0
M  END
$$$$
