WYD.pdb
     RDKit          3D

 35 37  0  0  1  0  0  0  0  0999 V2000
    7.4119  -19.1312   25.5730 N   0  0  0  0  0  0  0  0  0  0  0  0
    7.1401  -17.7175   25.4696 C   0  0  1  0  0  0  0  0  0  0  0  0
    7.7362  -16.8989   26.5887 C   0  0  0  0  0  0  0  0  0  0  0  0
    7.0588  -15.6163   26.7875 C   0  0  0  0  0  0  0  0  0  0  0  0
    5.6878  -15.4425   26.7922 C   0  0  0  0  0  0  0  0  0  0  0  0
    5.4408  -14.1443   27.0276 N   0  0  0  0  0  0  0  0  0  0  0  0
    6.5937  -13.4586   27.1773 C   0  0  0  0  0  0  0  0  0  0  0  0
    6.8968  -12.1490   27.4201 C   0  0  0  0  0  0  0  0  0  0  0  0
    8.1950  -11.7338   27.5160 C   0  0  0  0  0  0  0  0  0  0  0  0
    9.2124  -12.6433   27.3665 C   0  0  0  0  0  0  0  0  0  0  0  0
    8.9196  -13.9740   27.1202 C   0  0  0  0  0  0  0  0  0  0  0  0
    7.6100  -14.3819   27.0263 C   0  0  0  0  0  0  0  0  0  0  0  0
    7.6849  -17.1669   24.2076 C   0  0  0  0  0  0  0  0  0  0  0  0
    8.6956  -17.7201   23.7089 O   0  0  0  0  0  0  0  0  0  0  0  0
    8.4933  -12.9292   16.4666 O   0  0  0  0  0  0  0  0  0  0  0  0
    8.1284  -13.2867   17.7649 C   0  0  0  0  0  0  0  0  0  0  0  0
    8.4941  -12.4681   18.8116 C   0  0  0  0  0  0  0  0  0  0  0  0
    8.1402  -12.8069   20.1117 C   0  0  0  0  0  0  0  0  0  0  0  0
    7.4257  -13.9458   20.4163 C   0  0  0  0  0  0  0  0  0  0  0  0
    7.0326  -14.3373   21.7694 C   0  0  0  0  0  0  0  0  0  0  0  0
    7.6679  -15.6110   22.2564 C   0  0  2  0  0  0  0  0  0  0  0  0
    7.1392  -16.0508   23.5209 N   0  0  0  0  0  0  0  0  0  0  0  0
    9.1323  -15.3753   22.3867 C   0  0  0  0  0  0  0  0  0  0  0  0
    9.6129  -15.0242   23.4944 O   0  0  0  0  0  0  0  0  0  0  0  0
    7.0685  -14.7541   19.3492 C   0  0  0  0  0  0  0  0  0  0  0  0
    7.4128  -14.4309   18.0513 C   0  0  0  0  0  0  0  0  0  0  0  0
   10.0107  -15.5450   21.2553 N   0  0  0  0  0  0  0  0  0  0  0  0
   11.4241  -15.7022   21.3894 C   0  0  1  0  0  0  0  0  0  0  0  0
   11.7613  -16.7903   22.3611 C   0  0  0  0  0  0  0  0  0  0  0  0
   13.2020  -17.1177   22.4237 C   0  0  0  0  0  0  0  0  0  0  0  0
   13.5748  -18.3125   22.4653 O   0  0  0  0  0  0  0  0  0  0  0  0
   12.1103  -15.8690   20.0990 C   0  0  0  0  0  0  0  0  0  0  0  0
   13.0897  -14.9986   19.6870 O   0  0  0  0  0  0  0  0  0  0  0  0
   14.1591  -16.1173   22.4375 O   0  0  0  0  0  0  0  0  0  0  0  0
   11.7936  -16.8268   19.3595 O   0  0  0  0  0  0  0  0  0  0  0  0
  2  3  1  0
  2  1  1  1
  3  4  1  0
  4  5  2  0
  6  5  1  0
  7  6  1  0
  8  7  2  0
  9  8  1  0
 10 11  1  0
 10  9  2  0
 11 12  2  0
 12  7  1  0
 12  4  1  0
 13  2  1  0
 13 22  1  0
 14 13  2  0
 16 15  1  0
 16 17  2  0
 18 17  1  0
 19 18  2  0
 20 19  1  0
 21 20  1  1
 21 23  1  0
 21 22  1  0
 23 27  1  0
 24 23  2  0
 25 26  2  0
 25 19  1  0
 26 16  1  0
 27 28  1  0
 28 29  1  1
 29 30  1  0
 30 31  2  0
 32 33  1  0
 32 28  1  0
 34 30  1  0
 35 32  2  0
M  END
$$$$
