MFF.pdb
     RDKit          3D

 31 32  0  0  1  0  0  0  0  0999 V2000
   24.5277  -19.2727  -19.2259 C   0  0  0  0  0  0  0  0  0  0  0  0
   26.2714  -19.5851  -19.5326 S   0  0  0  0  0  0  0  0  0  0  0  0
   27.1085  -20.3097  -18.1087 C   0  0  0  0  0  0  0  0  0  0  0  0
   26.1077  -20.6606  -17.0127 C   0  0  0  0  0  0  0  0  0  0  0  0
   26.9213  -21.0270  -15.7949 C   0  0  2  0  0  0  0  0  0  0  0  0
   27.6567  -22.2278  -16.1376 N   0  0  0  0  0  0  0  0  0  0  0  0
   26.1177  -21.2285  -14.5912 C   0  0  0  0  0  0  0  0  0  0  0  0
   25.6935  -22.3883  -14.3552 O   0  0  0  0  0  0  0  0  0  0  0  0
   25.7791  -20.2094  -13.6657 N   0  0  0  0  0  0  0  0  0  0  0  0
   25.0051  -20.5222  -12.5119 C   0  0  1  0  0  0  0  0  0  0  0  0
   25.3979  -19.7209  -11.2926 C   0  0  0  0  0  0  0  0  0  0  0  0
   26.4776  -20.3265  -10.4952 C   0  0  0  0  0  0  0  0  0  0  0  0
   27.6473  -20.7053  -11.1167 C   0  0  0  0  0  0  0  0  0  0  0  0
   28.6866  -21.2821  -10.3843 C   0  0  0  0  0  0  0  0  0  0  0  0
   28.5443  -21.4772   -9.0193 C   0  0  0  0  0  0  0  0  0  0  0  0
   27.3918  -21.1067   -8.3932 C   0  0  0  0  0  0  0  0  0  0  0  0
   26.3689  -20.5336   -9.1421 C   0  0  0  0  0  0  0  0  0  0  0  0
   23.5508  -20.3834  -12.7060 C   0  0  0  0  0  0  0  0  0  0  0  0
   23.0950  -19.2442  -12.9700 O   0  0  0  0  0  0  0  0  0  0  0  0
   22.6155  -21.4466  -12.6170 N   0  0  0  0  0  0  0  0  0  0  0  0
   21.1729  -21.2212  -12.7966 C   0  0  1  0  0  0  0  0  0  0  0  0
   20.7036  -22.2317  -13.7993 C   0  0  0  0  0  0  0  0  0  0  0  0
   20.9049  -21.8410  -15.2069 C   0  0  0  0  0  0  0  0  0  0  0  0
   22.1020  -22.1362  -15.8217 C   0  0  0  0  0  0  0  0  0  0  0  0
   22.3601  -21.8056  -17.1376 C   0  0  0  0  0  0  0  0  0  0  0  0
   21.4018  -21.1590  -17.8777 C   0  0  0  0  0  0  0  0  0  0  0  0
   20.1927  -20.8571  -17.2689 C   0  0  0  0  0  0  0  0  0  0  0  0
   19.9490  -21.1924  -15.9566 C   0  0  0  0  0  0  0  0  0  0  0  0
   20.5135  -21.4025  -11.4811 C   0  0  0  0  0  0  0  0  0  0  0  0
   21.2436  -21.8006  -10.3713 O   0  0  0  0  0  0  0  0  0  0  0  0
   19.2819  -21.2055  -11.3222 O   0  0  0  0  0  0  0  0  0  0  0  0
  2  1  1  0
  3  4  1  0
  3  2  1  0
  5  4  1  0
  5  6  1  6
  7  5  1  0
  7  8  2  0
  9  7  1  0
 10  9  1  0
 10 11  1  1
 12 11  1  0
 12 17  1  0
 13 12  2  0
 14 13  1  0
 14 15  2  0
 15 16  1  0
 16 17  2  0
 18 10  1  0
 19 18  2  0
 20 18  1  0
 21 20  1  0
 21 29  1  0
 21 22  1  6
 23 22  1  0
 23 24  2  0
 25 24  1  0
 26 25  2  0
 27 28  2  0
 27 26  1  0
 28 23  1  0
 29 30  1  0
 31 29  2  0
M  END
$$$$
