MFF.pdb
     RDKit          3D

 31 32  0  0  1  0  0  0  0  0999 V2000
   34.8679  -33.4249  -23.6969 C   0  0  0  0  0  0  0  0  0  0  0  0
   34.0149  -32.3463  -22.5388 S   0  0  0  0  0  0  0  0  0  0  0  0
   33.5550  -33.1904  -21.0126 C   0  0  0  0  0  0  0  0  0  0  0  0
   32.8255  -32.2415  -20.0674 C   0  0  0  0  0  0  0  0  0  0  0  0
   33.5631  -32.3013  -18.7515 C   0  0  2  0  0  0  0  0  0  0  0  0
   33.1683  -33.5417  -18.1146 N   0  0  0  0  0  0  0  0  0  0  0  0
   33.3027  -31.1574  -17.8804 C   0  0  0  0  0  0  0  0  0  0  0  0
   32.2689  -31.1864  -17.1654 O   0  0  0  0  0  0  0  0  0  0  0  0
   34.1324  -30.0121  -17.7808 N   0  0  0  0  0  0  0  0  0  0  0  0
   33.7094  -28.8894  -17.0136 C   0  0  1  0  0  0  0  0  0  0  0  0
   34.8556  -28.1055  -16.4180 C   0  0  0  0  0  0  0  0  0  0  0  0
   34.4394  -26.9319  -15.6320 C   0  0  0  0  0  0  0  0  0  0  0  0
   34.2377  -27.0627  -14.2755 C   0  0  0  0  0  0  0  0  0  0  0  0
   33.8426  -25.9662  -13.5068 C   0  0  0  0  0  0  0  0  0  0  0  0
   33.6503  -24.7330  -14.1101 C   0  0  0  0  0  0  0  0  0  0  0  0
   33.8466  -24.5912  -15.4514 C   0  0  0  0  0  0  0  0  0  0  0  0
   34.2403  -25.6969  -16.1983 C   0  0  0  0  0  0  0  0  0  0  0  0
   32.8410  -27.9511  -17.7467 C   0  0  0  0  0  0  0  0  0  0  0  0
   33.1893  -27.6004  -18.9004 O   0  0  0  0  0  0  0  0  0  0  0  0
   31.6297  -27.4072  -17.2465 N   0  0  0  0  0  0  0  0  0  0  0  0
   30.7948  -26.5088  -18.0587 C   0  0  1  0  0  0  0  0  0  0  0  0
   29.7904  -27.3741  -18.7583 C   0  0  0  0  0  0  0  0  0  0  0  0
   28.8868  -28.1170  -17.8605 C   0  0  0  0  0  0  0  0  0  0  0  0
   27.7437  -27.5022  -17.3986 C   0  0  0  0  0  0  0  0  0  0  0  0
   26.8490  -28.1366  -16.5593 C   0  0  0  0  0  0  0  0  0  0  0  0
   27.0889  -29.4275  -16.1590 C   0  0  0  0  0  0  0  0  0  0  0  0
   28.2367  -30.0563  -16.6181 C   0  0  0  0  0  0  0  0  0  0  0  0
   29.1199  -29.4120  -17.4542 C   0  0  0  0  0  0  0  0  0  0  0  0
   30.1451  -25.5374  -17.1463 C   0  0  0  0  0  0  0  0  0  0  0  0
   30.2467  -25.6800  -15.7705 O   0  0  0  0  0  0  0  0  0  0  0  0
   29.4844  -24.5588  -17.5785 O   0  0  0  0  0  0  0  0  0  0  0  0
  2  1  1  0
  3  4  1  0
  3  2  1  0
  5  4  1  0
  5  6  1  1
  7  5  1  0
  7  8  2  0
  9  7  1  0
 10  9  1  0
 10 11  1  6
 12 11  1  0
 12 17  1  0
 13 12  2  0
 14 13  1  0
 14 15  2  0
 15 16  1  0
 16 17  2  0
 18 10  1  0
 19 18  2  0
 20 18  1  0
 21 20  1  0
 21 29  1  0
 21 22  1  1
 23 22  1  0
 23 24  2  0
 25 24  1  0
 26 25  2  0
 27 28  2  0
 27 26  1  0
 28 23  1  0
 29 30  1  0
 31 29  2  0
M  END
$$$$
