MFF.pdb
     RDKit          3D

 31 32  0  0  1  0  0  0  0  0999 V2000
   22.0597  -14.7981  -14.9402 C   0  0  0  0  0  0  0  0  0  0  0  0
   23.6570  -13.9990  -14.7353 S   0  0  0  0  0  0  0  0  0  0  0  0
   25.0221  -15.0079  -15.3450 C   0  0  0  0  0  0  0  0  0  0  0  0
   25.0723  -16.3478  -14.6181 C   0  0  0  0  0  0  0  0  0  0  0  0
   26.2460  -17.1015  -15.1955 C   0  0  2  0  0  0  0  0  0  0  0  0
   26.0767  -17.0863  -16.6347 N   0  0  0  0  0  0  0  0  0  0  0  0
   26.3687  -18.4690  -14.6953 C   0  0  0  0  0  0  0  0  0  0  0  0
   25.6428  -19.3530  -15.2172 O   0  0  0  0  0  0  0  0  0  0  0  0
   27.2489  -18.8751  -13.6608 N   0  0  0  0  0  0  0  0  0  0  0  0
   27.2933  -20.2399  -13.2569 C   0  0  1  0  0  0  0  0  0  0  0  0
   28.6630  -20.8617  -13.3986 C   0  0  0  0  0  0  0  0  0  0  0  0
   29.0315  -21.1997  -14.7836 C   0  0  0  0  0  0  0  0  0  0  0  0
   29.4008  -20.1945  -15.6503 C   0  0  0  0  0  0  0  0  0  0  0  0
   29.7544  -20.4873  -16.9688 C   0  0  0  0  0  0  0  0  0  0  0  0
   29.7350  -21.8000  -17.4139 C   0  0  0  0  0  0  0  0  0  0  0  0
   29.3713  -22.8031  -16.5659 C   0  0  0  0  0  0  0  0  0  0  0  0
   29.0227  -22.4890  -15.2562 C   0  0  0  0  0  0  0  0  0  0  0  0
   26.8193  -20.4771  -11.8817 C   0  0  0  0  0  0  0  0  0  0  0  0
   27.6769  -20.6373  -10.9794 O   0  0  0  0  0  0  0  0  0  0  0  0
   25.4561  -20.5394  -11.4930 N   0  0  0  0  0  0  0  0  0  0  0  0
   25.0627  -20.8282  -10.1052 C   0  0  1  0  0  0  0  0  0  0  0  0
   25.5938  -19.7045   -9.2673 C   0  0  0  0  0  0  0  0  0  0  0  0
   26.7607  -20.0548   -8.4366 C   0  0  0  0  0  0  0  0  0  0  0  0
   27.3675  -19.0743   -7.6826 C   0  0  0  0  0  0  0  0  0  0  0  0
   28.4607  -19.3289   -6.8779 C   0  0  0  0  0  0  0  0  0  0  0  0
   28.9769  -20.5991   -6.8127 C   0  0  0  0  0  0  0  0  0  0  0  0
   28.3738  -21.5942   -7.5675 C   0  0  0  0  0  0  0  0  0  0  0  0
   27.2848  -21.3262   -8.3653 C   0  0  0  0  0  0  0  0  0  0  0  0
   23.5828  -20.9022  -10.0544 C   0  0  0  0  0  0  0  0  0  0  0  0
   22.9338  -21.3344   -8.9075 O   0  0  0  0  0  0  0  0  0  0  0  0
   22.8671  -20.5804  -11.0368 O   0  0  0  0  0  0  0  0  0  0  0  0
  2  1  1  0
  3  4  1  0
  3  2  1  0
  5  4  1  0
  5  6  1  6
  7  5  1  0
  7  8  2  0
  9  7  1  0
 10  9  1  0
 10 11  1  1
 12 11  1  0
 12 17  1  0
 13 12  2  0
 14 13  1  0
 14 15  2  0
 15 16  1  0
 16 17  2  0
 18 10  1  0
 19 18  2  0
 20 18  1  0
 21 20  1  0
 21 29  1  0
 21 22  1  1
 23 22  1  0
 23 24  2  0
 25 24  1  0
 26 25  2  0
 27 28  2  0
 27 26  1  0
 28 23  1  0
 29 30  1  0
 31 29  2  0
M  END
$$$$
