MFF.pdb
     RDKit          3D

 31 32  0  0  1  0  0  0  0  0999 V2000
   23.5737  -20.3994  -20.2989 C   0  0  0  0  0  0  0  0  0  0  0  0
   24.8755  -21.1814  -21.2612 S   0  0  0  0  0  0  0  0  0  0  0  0
   24.3645  -22.7603  -21.9677 C   0  0  0  0  0  0  0  0  0  0  0  0
   23.7757  -23.6691  -20.8937 C   0  0  0  0  0  0  0  0  0  0  0  0
   24.9391  -24.1575  -20.0648 C   0  0  2  0  0  0  0  0  0  0  0  0
   25.6613  -25.1064  -20.8884 N   0  0  0  0  0  0  0  0  0  0  0  0
   24.5423  -24.7601  -18.7941 C   0  0  0  0  0  0  0  0  0  0  0  0
   24.1355  -25.9496  -18.8093 O   0  0  0  0  0  0  0  0  0  0  0  0
   24.5817  -24.1005  -17.5397 N   0  0  0  0  0  0  0  0  0  0  0  0
   24.2010  -24.7951  -16.3563 C   0  0  1  0  0  0  0  0  0  0  0  0
   25.2724  -24.7941  -15.2910 C   0  0  0  0  0  0  0  0  0  0  0  0
   26.5405  -25.4142  -15.7105 C   0  0  0  0  0  0  0  0  0  0  0  0
   27.5414  -24.6231  -16.2303 C   0  0  0  0  0  0  0  0  0  0  0  0
   28.7531  -25.1853  -16.6361 C   0  0  0  0  0  0  0  0  0  0  0  0
   28.9551  -26.5515  -16.5166 C   0  0  0  0  0  0  0  0  0  0  0  0
   27.9723  -27.3446  -16.0039 C   0  0  0  0  0  0  0  0  0  0  0  0
   26.7726  -26.7636  -15.6057 C   0  0  0  0  0  0  0  0  0  0  0  0
   22.9478  -24.3112  -15.7503 C   0  0  0  0  0  0  0  0  0  0  0  0
   22.9295  -23.1491  -15.2765 O   0  0  0  0  0  0  0  0  0  0  0  0
   21.7479  -25.0629  -15.6589 N   0  0  0  0  0  0  0  0  0  0  0  0
   20.5524  -24.5281  -14.9889 C   0  0  1  0  0  0  0  0  0  0  0  0
   19.5731  -24.1850  -16.0706 C   0  0  0  0  0  0  0  0  0  0  0  0
   18.2583  -23.7250  -15.5868 C   0  0  0  0  0  0  0  0  0  0  0  0
   18.0532  -22.3791  -15.3756 C   0  0  0  0  0  0  0  0  0  0  0  0
   16.8478  -21.8748  -14.9283 C   0  0  0  0  0  0  0  0  0  0  0  0
   15.8028  -22.7292  -14.6791 C   0  0  0  0  0  0  0  0  0  0  0  0
   15.9980  -24.0863  -14.8885 C   0  0  0  0  0  0  0  0  0  0  0  0
   17.2047  -24.5751  -15.3345 C   0  0  0  0  0  0  0  0  0  0  0  0
   20.0274  -25.5772  -14.0822 C   0  0  0  0  0  0  0  0  0  0  0  0
   19.4567  -25.2403  -12.8640 O   0  0  0  0  0  0  0  0  0  0  0  0
   20.0787  -26.7981  -14.3784 O   0  0  0  0  0  0  0  0  0  0  0  0
  2  1  1  0
  3  4  1  0
  3  2  1  0
  5  4  1  0
  5  6  1  6
  7  5  1  0
  7  8  2  0
  9  7  1  0
 10  9  1  0
 10 11  1  1
 12 11  1  0
 12 17  1  0
 13 12  2  0
 14 13  1  0
 14 15  2  0
 15 16  1  0
 16 17  2  0
 18 10  1  0
 19 18  2  0
 20 18  1  0
 21 20  1  0
 21 29  1  0
 21 22  1  6
 23 22  1  0
 23 24  2  0
 25 24  1  0
 26 25  2  0
 27 28  2  0
 27 26  1  0
 28 23  1  0
 29 30  1  0
 31 29  2  0
M  END
$$$$
