MFF.pdb
     RDKit          3D

 31 32  0  0  1  0  0  0  0  0999 V2000
   27.3733  -19.0860  -15.3896 C   0  0  0  0  0  0  0  0  0  0  0  0
   29.1164  -18.6793  -15.2213 S   0  0  0  0  0  0  0  0  0  0  0  0
   29.8403  -19.3372  -13.7059 C   0  0  0  0  0  0  0  0  0  0  0  0
   28.7667  -19.9560  -12.8169 C   0  0  0  0  0  0  0  0  0  0  0  0
   29.4610  -20.3846  -11.5467 C   0  0  2  0  0  0  0  0  0  0  0  0
   30.3577  -21.4629  -11.9118 N   0  0  0  0  0  0  0  0  0  0  0  0
   28.5435  -20.7999  -10.4879 C   0  0  0  0  0  0  0  0  0  0  0  0
   28.2024  -22.0094  -10.4469 O   0  0  0  0  0  0  0  0  0  0  0  0
   28.0068  -19.9372   -9.4992 N   0  0  0  0  0  0  0  0  0  0  0  0
   26.7154  -20.1916   -8.9555 C   0  0  1  0  0  0  0  0  0  0  0  0
   26.3984  -19.3448   -7.7449 C   0  0  0  0  0  0  0  0  0  0  0  0
   27.2375  -19.6344   -6.5700 C   0  0  0  0  0  0  0  0  0  0  0  0
   27.7774  -18.5912   -5.8501 C   0  0  0  0  0  0  0  0  0  0  0  0
   28.5768  -18.8378   -4.7323 C   0  0  0  0  0  0  0  0  0  0  0  0
   28.8320  -20.1426   -4.3400 C   0  0  0  0  0  0  0  0  0  0  0  0
   28.3036  -21.1831   -5.0442 C   0  0  0  0  0  0  0  0  0  0  0  0
   27.5098  -20.9147   -6.1548 C   0  0  0  0  0  0  0  0  0  0  0  0
   25.6140  -20.0428   -9.9233 C   0  0  0  0  0  0  0  0  0  0  0  0
   25.6048  -19.0251  -10.6578 O   0  0  0  0  0  0  0  0  0  0  0  0
   24.5522  -20.9687  -10.0923 N   0  0  0  0  0  0  0  0  0  0  0  0
   23.4911  -20.7513  -11.0877 C   0  0  1  0  0  0  0  0  0  0  0  0
   23.7924  -21.6614  -12.2400 C   0  0  0  0  0  0  0  0  0  0  0  0
   22.7502  -21.7000  -13.2824 C   0  0  0  0  0  0  0  0  0  0  0  0
   22.7668  -20.7548  -14.2846 C   0  0  0  0  0  0  0  0  0  0  0  0
   21.8268  -20.7313  -15.2962 C   0  0  0  0  0  0  0  0  0  0  0  0
   20.8310  -21.6757  -15.3223 C   0  0  0  0  0  0  0  0  0  0  0  0
   20.8047  -22.6323  -14.3183 C   0  0  0  0  0  0  0  0  0  0  0  0
   21.7479  -22.6438  -13.3162 C   0  0  0  0  0  0  0  0  0  0  0  0
   22.1923  -21.0784  -10.4519 C   0  0  0  0  0  0  0  0  0  0  0  0
   22.1283  -21.9610   -9.3840 O   0  0  0  0  0  0  0  0  0  0  0  0
   21.1114  -20.5752  -10.8511 O   0  0  0  0  0  0  0  0  0  0  0  0
  2  1  1  0
  3  4  1  0
  3  2  1  0
  5  4  1  0
  5  6  1  6
  7  5  1  0
  7  8  2  0
  9  7  1  0
 10  9  1  0
 10 11  1  1
 12 11  1  0
 12 17  1  0
 13 12  2  0
 14 13  1  0
 14 15  2  0
 15 16  1  0
 16 17  2  0
 18 10  1  0
 19 18  2  0
 20 18  1  0
 21 20  1  0
 21 29  1  0
 21 22  1  6
 23 22  1  0
 23 24  2  0
 25 24  1  0
 26 25  2  0
 27 28  2  0
 27 26  1  0
 28 23  1  0
 29 30  1  0
 31 29  2  0
M  END
$$$$
