MFF.pdb
     RDKit          3D

 31 32  0  0  1  0  0  0  0  0999 V2000
   25.7646  -11.4133  -15.3173 C   0  0  0  0  0  0  0  0  0  0  0  0
   25.0681  -12.4593  -16.6029 S   0  0  0  0  0  0  0  0  0  0  0  0
   23.2922  -12.2193  -16.8078 C   0  0  0  0  0  0  0  0  0  0  0  0
   22.9408  -10.7353  -16.7924 C   0  0  0  0  0  0  0  0  0  0  0  0
   21.6669  -10.5913  -17.5896 C   0  0  2  0  0  0  0  0  0  0  0  0
   22.0420  -10.6906  -18.9858 N   0  0  0  0  0  0  0  0  0  0  0  0
   20.9472   -9.3472  -17.3261 C   0  0  0  0  0  0  0  0  0  0  0  0
   21.1002   -8.3971  -18.1352 O   0  0  0  0  0  0  0  0  0  0  0  0
   20.0856   -9.1304  -16.2213 N   0  0  0  0  0  0  0  0  0  0  0  0
   19.4769   -7.8572  -16.0305 C   0  0  1  0  0  0  0  0  0  0  0  0
   17.9939   -7.9385  -15.7529 C   0  0  0  0  0  0  0  0  0  0  0  0
   17.1679   -8.1665  -16.9504 C   0  0  0  0  0  0  0  0  0  0  0  0
   16.5441   -7.0978  -17.5560 C   0  0  0  0  0  0  0  0  0  0  0  0
   15.7549   -7.2862  -18.6922 C   0  0  0  0  0  0  0  0  0  0  0  0
   15.5951   -8.5584  -19.2190 C   0  0  0  0  0  0  0  0  0  0  0  0
   16.2072   -9.6236  -18.6288 C   0  0  0  0  0  0  0  0  0  0  0  0
   16.9890   -9.4133  -17.4974 C   0  0  0  0  0  0  0  0  0  0  0  0
   20.1003   -7.0439  -14.9713 C   0  0  0  0  0  0  0  0  0  0  0  0
   19.8749   -7.3547  -13.7764 O   0  0  0  0  0  0  0  0  0  0  0  0
   20.9438   -5.9256  -15.1978 N   0  0  0  0  0  0  0  0  0  0  0  0
   21.6083   -5.2241  -14.0885 C   0  0  1  0  0  0  0  0  0  0  0  0
   22.9803   -5.8159  -13.9687 C   0  0  0  0  0  0  0  0  0  0  0  0
   23.7546   -5.8329  -15.2235 C   0  0  0  0  0  0  0  0  0  0  0  0
   24.4125   -4.6902  -15.6228 C   0  0  0  0  0  0  0  0  0  0  0  0
   25.1602   -4.6329  -16.7825 C   0  0  0  0  0  0  0  0  0  0  0  0
   25.2645   -5.7445  -17.5809 C   0  0  0  0  0  0  0  0  0  0  0  0
   24.6064   -6.9007  -17.1886 C   0  0  0  0  0  0  0  0  0  0  0  0
   23.8646   -6.9436  -16.0302 C   0  0  0  0  0  0  0  0  0  0  0  0
   21.6577   -3.7807  -14.4233 C   0  0  0  0  0  0  0  0  0  0  0  0
   21.1391   -3.3129  -15.6214 O   0  0  0  0  0  0  0  0  0  0  0  0
   22.1659   -2.9347  -13.6442 O   0  0  0  0  0  0  0  0  0  0  0  0
  2  1  1  0
  3  4  1  0
  3  2  1  0
  5  4  1  0
  5  6  1  6
  7  5  1  0
  7  8  2  0
  9  7  1  0
 10  9  1  0
 10 11  1  1
 12 11  1  0
 12 17  1  0
 13 12  2  0
 14 13  1  0
 14 15  2  0
 15 16  1  0
 16 17  2  0
 18 10  1  0
 19 18  2  0
 20 18  1  0
 21 20  1  0
 21 29  1  0
 21 22  1  6
 23 22  1  0
 23 24  2  0
 25 24  1  0
 26 25  2  0
 27 28  2  0
 27 26  1  0
 28 23  1  0
 29 30  1  0
 31 29  2  0
M  END
$$$$
