MFF.pdb
     RDKit          3D

 31 32  0  0  1  0  0  0  0  0999 V2000
   24.1305  -26.1635  -15.2520 C   0  0  0  0  0  0  0  0  0  0  0  0
   24.6560  -25.8616  -16.9446 S   0  0  0  0  0  0  0  0  0  0  0  0
   25.4909  -24.2749  -17.1405 C   0  0  0  0  0  0  0  0  0  0  0  0
   26.0813  -23.8060  -15.8148 C   0  0  0  0  0  0  0  0  0  0  0  0
   26.6826  -22.4458  -16.0741 C   0  0  2  0  0  0  0  0  0  0  0  0
   27.8692  -22.6668  -16.8761 N   0  0  0  0  0  0  0  0  0  0  0  0
   27.0022  -21.7037  -14.8565 C   0  0  0  0  0  0  0  0  0  0  0  0
   28.2027  -21.6743  -14.4842 O   0  0  0  0  0  0  0  0  0  0  0  0
   26.0553  -21.0114  -14.0601 N   0  0  0  0  0  0  0  0  0  0  0  0
   26.4837  -20.2849  -12.9127 C   0  0  1  0  0  0  0  0  0  0  0  0
   26.2118  -18.8016  -13.0077 C   0  0  0  0  0  0  0  0  0  0  0  0
   26.8506  -18.1442  -14.1601 C   0  0  0  0  0  0  0  0  0  0  0  0
   26.0645  -17.5314  -15.1112 C   0  0  0  0  0  0  0  0  0  0  0  0
   26.6443  -16.9011  -16.2138 C   0  0  0  0  0  0  0  0  0  0  0  0
   28.0232  -16.8896  -16.3567 C   0  0  0  0  0  0  0  0  0  0  0  0
   28.8114  -17.4925  -15.4225 C   0  0  0  0  0  0  0  0  0  0  0  0
   28.2128  -18.1146  -14.3316 C   0  0  0  0  0  0  0  0  0  0  0  0
   25.9197  -20.7764  -11.6429 C   0  0  0  0  0  0  0  0  0  0  0  0
   24.7000  -21.0703  -11.6114 O   0  0  0  0  0  0  0  0  0  0  0  0
   26.6542  -20.9455  -10.4407 N   0  0  0  0  0  0  0  0  0  0  0  0
   26.0336  -21.5068   -9.2308 C   0  0  1  0  0  0  0  0  0  0  0  0
   27.1414  -21.7299   -8.2459 C   0  0  0  0  0  0  0  0  0  0  0  0
   27.3279  -20.6385   -7.2720 C   0  0  0  0  0  0  0  0  0  0  0  0
   27.4705  -20.9463   -5.9368 C   0  0  0  0  0  0  0  0  0  0  0  0
   27.6533  -19.9782   -4.9689 C   0  0  0  0  0  0  0  0  0  0  0  0
   27.6975  -18.6546   -5.3297 C   0  0  0  0  0  0  0  0  0  0  0  0
   27.5552  -18.3331   -6.6714 C   0  0  0  0  0  0  0  0  0  0  0  0
   27.3736  -19.3083   -7.6254 C   0  0  0  0  0  0  0  0  0  0  0  0
   25.0392  -20.5279   -8.7296 C   0  0  0  0  0  0  0  0  0  0  0  0
   24.9005  -19.2867   -9.3326 O   0  0  0  0  0  0  0  0  0  0  0  0
   24.2925  -20.7812   -7.7503 O   0  0  0  0  0  0  0  0  0  0  0  0
  2  1  1  0
  3  4  1  0
  3  2  1  0
  5  4  1  0
  5  6  1  1
  7  5  1  0
  7  8  2  0
  9  7  1  0
 10  9  1  0
 10 11  1  6
 12 11  1  0
 12 17  1  0
 13 12  2  0
 14 13  1  0
 14 15  2  0
 15 16  1  0
 16 17  2  0
 18 10  1  0
 19 18  2  0
 20 18  1  0
 21 20  1  0
 21 29  1  0
 21 22  1  1
 23 22  1  0
 23 24  2  0
 25 24  1  0
 26 25  2  0
 27 28  2  0
 27 26  1  0
 28 23  1  0
 29 30  1  0
 31 29  2  0
M  END
$$$$
