MFF.pdb
     RDKit          3D

 31 32  0  0  1  0  0  0  0  0999 V2000
   24.9230  -32.3600  -23.6562 C   0  0  0  0  0  0  0  0  0  0  0  0
   25.5004  -30.8276  -22.9142 S   0  0  0  0  0  0  0  0  0  0  0  0
   26.8962  -31.0780  -21.7996 C   0  0  0  0  0  0  0  0  0  0  0  0
   28.0424  -30.1336  -22.1461 C   0  0  0  0  0  0  0  0  0  0  0  0
   28.0225  -29.0403  -21.1053 C   0  0  2  0  0  0  0  0  0  0  0  0
   28.9534  -28.0255  -21.5568 N   0  0  0  0  0  0  0  0  0  0  0  0
   28.3612  -29.5033  -19.7613 C   0  0  0  0  0  0  0  0  0  0  0  0
   29.5779  -29.6445  -19.4776 O   0  0  0  0  0  0  0  0  0  0  0  0
   27.4162  -29.8066  -18.7490 N   0  0  0  0  0  0  0  0  0  0  0  0
   27.8571  -30.1083  -17.4289 C   0  0  1  0  0  0  0  0  0  0  0  0
   27.5446  -29.0185  -16.4300 C   0  0  0  0  0  0  0  0  0  0  0  0
   28.2773  -27.7620  -16.6596 C   0  0  0  0  0  0  0  0  0  0  0  0
   29.6306  -27.7117  -16.4067 C   0  0  0  0  0  0  0  0  0  0  0  0
   30.3492  -26.5330  -16.6154 C   0  0  0  0  0  0  0  0  0  0  0  0
   29.6988  -25.4008  -17.0812 C   0  0  0  0  0  0  0  0  0  0  0  0
   28.3602  -25.4382  -17.3349 C   0  0  0  0  0  0  0  0  0  0  0  0
   27.6636  -26.6231  -17.1200 C   0  0  0  0  0  0  0  0  0  0  0  0
   27.3410  -31.3824  -16.8976 C   0  0  0  0  0  0  0  0  0  0  0  0
   26.1102  -31.6085  -16.9933 O   0  0  0  0  0  0  0  0  0  0  0  0
   28.1337  -32.3842  -16.2801 N   0  0  0  0  0  0  0  0  0  0  0  0
   27.5276  -33.5675  -15.6504 C   0  0  1  0  0  0  0  0  0  0  0  0
   28.2556  -34.7606  -16.1921 C   0  0  0  0  0  0  0  0  0  0  0  0
   27.8121  -36.0543  -15.6408 C   0  0  0  0  0  0  0  0  0  0  0  0
   28.5506  -36.6469  -14.6400 C   0  0  0  0  0  0  0  0  0  0  0  0
   28.1943  -37.8546  -14.0726 C   0  0  0  0  0  0  0  0  0  0  0  0
   27.0663  -38.5047  -14.5075 C   0  0  0  0  0  0  0  0  0  0  0  0
   26.3151  -37.9172  -15.5146 C   0  0  0  0  0  0  0  0  0  0  0  0
   26.6819  -36.7131  -16.0711 C   0  0  0  0  0  0  0  0  0  0  0  0
   27.6926  -33.4405  -14.1825 C   0  0  0  0  0  0  0  0  0  0  0  0
   28.6363  -32.5764  -13.6475 O   0  0  0  0  0  0  0  0  0  0  0  0
   26.9927  -34.1033  -13.3752 O   0  0  0  0  0  0  0  0  0  0  0  0
  2  1  1  0
  3  4  1  0
  3  2  1  0
  5  4  1  0
  5  6  1  6
  7  5  1  0
  7  8  2  0
  9  7  1  0
 10  9  1  0
 10 11  1  1
 12 11  1  0
 12 17  1  0
 13 12  2  0
 14 13  1  0
 14 15  2  0
 15 16  1  0
 16 17  2  0
 18 10  1  0
 19 18  2  0
 20 18  1  0
 21 20  1  0
 21 29  1  0
 21 22  1  6
 23 22  1  0
 23 24  2  0
 25 24  1  0
 26 25  2  0
 27 28  2  0
 27 26  1  0
 28 23  1  0
 29 30  1  0
 31 29  2  0
M  END
$$$$
