MFF.pdb
     RDKit          3D

 31 32  0  0  1  0  0  0  0  0999 V2000
   29.2395  -17.9456  -16.3107 C   0  0  0  0  0  0  0  0  0  0  0  0
   28.5713  -17.7951  -17.9730 S   0  0  0  0  0  0  0  0  0  0  0  0
   27.6996  -19.2804  -18.5087 C   0  0  0  0  0  0  0  0  0  0  0  0
   26.7541  -19.7761  -17.4195 C   0  0  0  0  0  0  0  0  0  0  0  0
   27.4628  -20.9148  -16.7266 C   0  0  2  0  0  0  0  0  0  0  0  0
   27.4372  -22.0352  -17.6454 N   0  0  0  0  0  0  0  0  0  0  0  0
   26.8727  -21.2770  -15.4398 C   0  0  0  0  0  0  0  0  0  0  0  0
   25.7880  -21.9127  -15.4487 O   0  0  0  0  0  0  0  0  0  0  0  0
   27.4345  -20.9637  -14.1763 N   0  0  0  0  0  0  0  0  0  0  0  0
   26.6355  -21.0456  -13.0004 C   0  0  1  0  0  0  0  0  0  0  0  0
   27.4000  -20.7351  -11.7346 C   0  0  0  0  0  0  0  0  0  0  0  0
   26.5687  -20.7074  -10.5195 C   0  0  0  0  0  0  0  0  0  0  0  0
   25.8416  -21.8246  -10.1713 C   0  0  0  0  0  0  0  0  0  0  0  0
   25.0451  -21.8251   -9.0247 C   0  0  0  0  0  0  0  0  0  0  0  0
   24.9824  -20.6934   -8.2266 C   0  0  0  0  0  0  0  0  0  0  0  0
   25.6971  -19.5820   -8.5608 C   0  0  0  0  0  0  0  0  0  0  0  0
   26.4844  -19.6032   -9.7076 C   0  0  0  0  0  0  0  0  0  0  0  0
   25.4301  -20.1982  -13.0306 C   0  0  0  0  0  0  0  0  0  0  0  0
   25.5827  -18.9536  -13.0839 O   0  0  0  0  0  0  0  0  0  0  0  0
   24.0969  -20.6830  -13.0039 N   0  0  0  0  0  0  0  0  0  0  0  0
   22.9496  -19.7754  -12.8488 C   0  0  1  0  0  0  0  0  0  0  0  0
   22.8094  -19.0375  -14.1460 C   0  0  0  0  0  0  0  0  0  0  0  0
   22.4772  -19.8873  -15.3044 C   0  0  0  0  0  0  0  0  0  0  0  0
   21.1598  -20.2107  -15.5447 C   0  0  0  0  0  0  0  0  0  0  0  0
   20.7731  -20.9974  -16.6120 C   0  0  0  0  0  0  0  0  0  0  0  0
   21.7208  -21.4849  -17.4771 C   0  0  0  0  0  0  0  0  0  0  0  0
   23.0503  -21.1654  -17.2448 C   0  0  0  0  0  0  0  0  0  0  0  0
   23.4215  -20.3803  -16.1771 C   0  0  0  0  0  0  0  0  0  0  0  0
   21.7523  -20.5972  -12.5499 C   0  0  0  0  0  0  0  0  0  0  0  0
   21.8456  -21.9778  -12.4568 O   0  0  0  0  0  0  0  0  0  0  0  0
   20.6196  -20.0812  -12.3717 O   0  0  0  0  0  0  0  0  0  0  0  0
  2  1  1  0
  3  4  1  0
  3  2  1  0
  5  4  1  0
  5  6  1  6
  7  5  1  0
  7  8  2  0
  9  7  1  0
 10  9  1  0
 10 11  1  1
 12 11  1  0
 12 17  1  0
 13 12  2  0
 14 13  1  0
 14 15  2  0
 15 16  1  0
 16 17  2  0
 18 10  1  0
 19 18  2  0
 20 18  1  0
 21 20  1  0
 21 29  1  0
 21 22  1  6
 23 22  1  0
 23 24  2  0
 25 24  1  0
 26 25  2  0
 27 28  2  0
 27 26  1  0
 28 23  1  0
 29 30  1  0
 31 29  2  0
M  END
$$$$
