MFF.pdb
     RDKit          3D

 31 32  0  0  1  0  0  0  0  0999 V2000
   29.9502  -15.9070  -15.4638 C   0  0  0  0  0  0  0  0  0  0  0  0
   29.9057  -17.1377  -16.7736 S   0  0  0  0  0  0  0  0  0  0  0  0
   28.5432  -18.3044  -16.5848 C   0  0  0  0  0  0  0  0  0  0  0  0
   27.9039  -18.1724  -15.2065 C   0  0  0  0  0  0  0  0  0  0  0  0
   26.7774  -19.1764  -15.1619 C   0  0  2  0  0  0  0  0  0  0  0  0
   25.8298  -18.7770  -16.1829 N   0  0  0  0  0  0  0  0  0  0  0  0
   26.1311  -19.2755  -13.8551 C   0  0  0  0  0  0  0  0  0  0  0  0
   25.5855  -18.2429  -13.3895 O   0  0  0  0  0  0  0  0  0  0  0  0
   26.0731  -20.4543  -13.0695 N   0  0  0  0  0  0  0  0  0  0  0  0
   25.4670  -20.4238  -11.7812 C   0  0  1  0  0  0  0  0  0  0  0  0
   24.3636  -21.4425  -11.6147 C   0  0  0  0  0  0  0  0  0  0  0  0
   23.3986  -21.1178  -10.5509 C   0  0  0  0  0  0  0  0  0  0  0  0
   23.4775  -21.7740   -9.3422 C   0  0  0  0  0  0  0  0  0  0  0  0
   22.5749  -21.4857   -8.3168 C   0  0  0  0  0  0  0  0  0  0  0  0
   21.5890  -20.5311   -8.5126 C   0  0  0  0  0  0  0  0  0  0  0  0
   21.5008  -19.8752   -9.7041 C   0  0  0  0  0  0  0  0  0  0  0  0
   22.4104  -20.1780  -10.7122 C   0  0  0  0  0  0  0  0  0  0  0  0
   26.4157  -20.5850  -10.6650 C   0  0  0  0  0  0  0  0  0  0  0  0
   27.2667  -21.5045  -10.7396 O   0  0  0  0  0  0  0  0  0  0  0  0
   26.4434  -19.7747   -9.5006 N   0  0  0  0  0  0  0  0  0  0  0  0
   27.0808  -20.2340   -8.2568 C   0  0  1  0  0  0  0  0  0  0  0  0
   27.7622  -19.0401   -7.6591 C   0  0  0  0  0  0  0  0  0  0  0  0
   28.3412  -19.2675   -6.3221 C   0  0  0  0  0  0  0  0  0  0  0  0
   29.4272  -20.1055   -6.1937 C   0  0  0  0  0  0  0  0  0  0  0  0
   30.0247  -20.3620   -4.9753 C   0  0  0  0  0  0  0  0  0  0  0  0
   29.5339  -19.7701   -3.8382 C   0  0  0  0  0  0  0  0  0  0  0  0
   28.4409  -18.9245   -3.9558 C   0  0  0  0  0  0  0  0  0  0  0  0
   27.8552  -18.6778   -5.1765 C   0  0  0  0  0  0  0  0  0  0  0  0
   26.0203  -20.7660   -7.3678 C   0  0  0  0  0  0  0  0  0  0  0  0
   24.9500  -19.9707   -6.9867 O   0  0  0  0  0  0  0  0  0  0  0  0
   26.0496  -21.9442   -6.9295 O   0  0  0  0  0  0  0  0  0  0  0  0
  2  1  1  0
  3  4  1  0
  3  2  1  0
  5  4  1  0
  5  6  1  6
  7  5  1  0
  7  8  2  0
  9  7  1  0
 10  9  1  0
 10 11  1  6
 12 11  1  0
 12 17  1  0
 13 12  2  0
 14 13  1  0
 14 15  2  0
 15 16  1  0
 16 17  2  0
 18 10  1  0
 19 18  2  0
 20 18  1  0
 21 20  1  0
 21 29  1  0
 21 22  1  1
 23 22  1  0
 23 24  2  0
 25 24  1  0
 26 25  2  0
 27 28  2  0
 27 26  1  0
 28 23  1  0
 29 30  1  0
 31 29  2  0
M  END
$$$$
