MFF.pdb
     RDKit          3D

 31 32  0  0  1  0  0  0  0  0999 V2000
   24.3005  -19.7853  -19.1060 C   0  0  0  0  0  0  0  0  0  0  0  0
   25.9842  -19.8549  -19.7323 S   0  0  0  0  0  0  0  0  0  0  0  0
   27.1209  -20.6543  -18.5824 C   0  0  0  0  0  0  0  0  0  0  0  0
   26.3635  -21.2612  -17.4060 C   0  0  0  0  0  0  0  0  0  0  0  0
   27.3234  -21.2697  -16.2408 C   0  0  2  0  0  0  0  0  0  0  0  0
   28.3285  -22.2690  -16.5431 N   0  0  0  0  0  0  0  0  0  0  0  0
   26.6835  -21.5403  -14.9553 C   0  0  0  0  0  0  0  0  0  0  0  0
   26.4387  -22.7380  -14.6612 O   0  0  0  0  0  0  0  0  0  0  0  0
   26.3162  -20.5488  -14.0108 N   0  0  0  0  0  0  0  0  0  0  0  0
   25.6569  -20.9218  -12.8049 C   0  0  1  0  0  0  0  0  0  0  0  0
   26.2814  -20.3164  -11.5695 C   0  0  0  0  0  0  0  0  0  0  0  0
   27.7147  -20.6142  -11.4106 C   0  0  0  0  0  0  0  0  0  0  0  0
   28.1195  -21.4865  -10.4240 C   0  0  0  0  0  0  0  0  0  0  0  0
   29.4722  -21.7860  -10.2515 C   0  0  0  0  0  0  0  0  0  0  0  0
   30.4198  -21.2025  -11.0781 C   0  0  0  0  0  0  0  0  0  0  0  0
   30.0316  -20.3380  -12.0577 C   0  0  0  0  0  0  0  0  0  0  0  0
   28.6786  -20.0536  -12.2122 C   0  0  0  0  0  0  0  0  0  0  0  0
   24.2147  -20.6189  -12.7881 C   0  0  0  0  0  0  0  0  0  0  0  0
   23.8153  -19.6056  -13.4119 O   0  0  0  0  0  0  0  0  0  0  0  0
   23.2317  -21.3901  -12.1156 N   0  0  0  0  0  0  0  0  0  0  0  0
   21.8020  -21.0521  -12.1916 C   0  0  1  0  0  0  0  0  0  0  0  0
   21.6816  -19.6105  -11.7990 C   0  0  0  0  0  0  0  0  0  0  0  0
   20.3026  -19.0884  -11.7900 C   0  0  0  0  0  0  0  0  0  0  0  0
   19.9423  -18.1263  -12.7079 C   0  0  0  0  0  0  0  0  0  0  0  0
   18.6688  -17.5945  -12.7624 C   0  0  0  0  0  0  0  0  0  0  0  0
   17.7120  -18.0271  -11.8783 C   0  0  0  0  0  0  0  0  0  0  0  0
   18.0637  -18.9957  -10.9499 C   0  0  0  0  0  0  0  0  0  0  0  0
   19.3367  -19.5169  -10.9069 C   0  0  0  0  0  0  0  0  0  0  0  0
   21.3498  -21.2838  -13.5844 C   0  0  0  0  0  0  0  0  0  0  0  0
   20.8520  -22.5189  -13.9718 O   0  0  0  0  0  0  0  0  0  0  0  0
   21.3997  -20.3811  -14.4582 O   0  0  0  0  0  0  0  0  0  0  0  0
  2  1  1  0
  3  4  1  0
  3  2  1  0
  5  4  1  0
  5  6  1  6
  7  5  1  0
  7  8  2  0
  9  7  1  0
 10  9  1  0
 10 11  1  1
 12 11  1  0
 12 17  1  0
 13 12  2  0
 14 13  1  0
 14 15  2  0
 15 16  1  0
 16 17  2  0
 18 10  1  0
 19 18  2  0
 20 18  1  0
 21 20  1  0
 21 29  1  0
 21 22  1  6
 23 22  1  0
 23 24  2  0
 25 24  1  0
 26 25  2  0
 27 28  2  0
 27 26  1  0
 28 23  1  0
 29 30  1  0
 31 29  2  0
M  END
$$$$
