MFF.pdb
     RDKit          3D

 31 32  0  0  1  0  0  0  0  0999 V2000
   25.4414  -20.2493  -19.9308 C   0  0  0  0  0  0  0  0  0  0  0  0
   27.1695  -20.3832  -20.4084 S   0  0  0  0  0  0  0  0  0  0  0  0
   28.2459  -20.7834  -19.0176 C   0  0  0  0  0  0  0  0  0  0  0  0
   27.4460  -20.8749  -17.7223 C   0  0  0  0  0  0  0  0  0  0  0  0
   28.3213  -21.6047  -16.7322 C   0  0  2  0  0  0  0  0  0  0  0  0
   28.4664  -22.9577  -17.2307 N   0  0  0  0  0  0  0  0  0  0  0  0
   27.7949  -21.6006  -15.3691 C   0  0  0  0  0  0  0  0  0  0  0  0
   26.9309  -22.4637  -15.0701 O   0  0  0  0  0  0  0  0  0  0  0  0
   28.1874  -20.6920  -14.3540 N   0  0  0  0  0  0  0  0  0  0  0  0
   27.6049  -20.7762  -13.0572 C   0  0  1  0  0  0  0  0  0  0  0  0
   28.3902  -20.0366  -11.9993 C   0  0  0  0  0  0  0  0  0  0  0  0
   27.8147  -20.1280  -10.6470 C   0  0  0  0  0  0  0  0  0  0  0  0
   28.2452  -21.1204   -9.7938 C   0  0  0  0  0  0  0  0  0  0  0  0
   27.7159  -21.2299   -8.5066 C   0  0  0  0  0  0  0  0  0  0  0  0
   26.7482  -20.3340   -8.0791 C   0  0  0  0  0  0  0  0  0  0  0  0
   26.3142  -19.3481   -8.9140 C   0  0  0  0  0  0  0  0  0  0  0  0
   26.8551  -19.2571  -10.1926 C   0  0  0  0  0  0  0  0  0  0  0  0
   26.2048  -20.3205  -12.9948 C   0  0  0  0  0  0  0  0  0  0  0  0
   25.9389  -19.1661  -13.4094 O   0  0  0  0  0  0  0  0  0  0  0  0
   25.1222  -21.0916  -12.4980 N   0  0  0  0  0  0  0  0  0  0  0  0
   23.7731  -20.5230  -12.3538 C   0  0  1  0  0  0  0  0  0  0  0  0
   22.9287  -21.1485  -13.4228 C   0  0  0  0  0  0  0  0  0  0  0  0
   23.0338  -20.5045  -14.7452 C   0  0  0  0  0  0  0  0  0  0  0  0
   23.6589  -21.1769  -15.7724 C   0  0  0  0  0  0  0  0  0  0  0  0
   23.7904  -20.6392  -17.0377 C   0  0  0  0  0  0  0  0  0  0  0  0
   23.2864  -19.3902  -17.3024 C   0  0  0  0  0  0  0  0  0  0  0  0
   22.6549  -18.7041  -16.2757 C   0  0  0  0  0  0  0  0  0  0  0  0
   22.5309  -19.2521  -15.0194 C   0  0  0  0  0  0  0  0  0  0  0  0
   23.2787  -20.8549  -10.9961 C   0  0  0  0  0  0  0  0  0  0  0  0
   22.1006  -20.3024  -10.5161 O   0  0  0  0  0  0  0  0  0  0  0  0
   23.9004  -21.6399  -10.2358 O   0  0  0  0  0  0  0  0  0  0  0  0
  2  1  1  0
  3  4  1  0
  3  2  1  0
  5  4  1  0
  5  6  1  6
  7  5  1  0
  7  8  2  0
  9  7  1  0
 10  9  1  0
 10 11  1  1
 12 11  1  0
 12 17  1  0
 13 12  2  0
 14 13  1  0
 14 15  2  0
 15 16  1  0
 16 17  2  0
 18 10  1  0
 19 18  2  0
 20 18  1  0
 21 20  1  0
 21 29  1  0
 21 22  1  6
 23 22  1  0
 23 24  2  0
 25 24  1  0
 26 25  2  0
 27 28  2  0
 27 26  1  0
 28 23  1  0
 29 30  1  0
 31 29  2  0
M  END
$$$$
