MFF.pdb
     RDKit          3D

 31 32  0  0  1  0  0  0  0  0999 V2000
   26.5218  -18.0217  -18.4940 C   0  0  0  0  0  0  0  0  0  0  0  0
   28.1444  -18.7251  -18.8174 S   0  0  0  0  0  0  0  0  0  0  0  0
   28.6577  -19.9003  -17.5491 C   0  0  0  0  0  0  0  0  0  0  0  0
   27.5008  -20.2226  -16.6091 C   0  0  0  0  0  0  0  0  0  0  0  0
   28.0677  -21.1057  -15.5237 C   0  0  2  0  0  0  0  0  0  0  0  0
   28.3737  -22.3779  -16.1466 N   0  0  0  0  0  0  0  0  0  0  0  0
   27.1720  -21.2813  -14.3826 C   0  0  0  0  0  0  0  0  0  0  0  0
   26.3548  -22.2361  -14.4184 O   0  0  0  0  0  0  0  0  0  0  0  0
   27.1555  -20.4517  -13.2330 N   0  0  0  0  0  0  0  0  0  0  0  0
   26.1671  -20.6469  -12.2267 C   0  0  1  0  0  0  0  0  0  0  0  0
   26.5455  -20.0482  -10.8921 C   0  0  0  0  0  0  0  0  0  0  0  0
   27.7486  -20.6413  -10.2845 C   0  0  0  0  0  0  0  0  0  0  0  0
   27.7665  -20.8992   -8.9313 C   0  0  0  0  0  0  0  0  0  0  0  0
   28.8943  -21.4606   -8.3297 C   0  0  0  0  0  0  0  0  0  0  0  0
   30.0084  -21.7628   -9.0974 C   0  0  0  0  0  0  0  0  0  0  0  0
   30.0027  -21.5122  -10.4371 C   0  0  0  0  0  0  0  0  0  0  0  0
   28.8683  -20.9524  -11.0160 C   0  0  0  0  0  0  0  0  0  0  0  0
   24.8287  -20.1498  -12.5921 C   0  0  0  0  0  0  0  0  0  0  0  0
   24.7201  -18.9526  -12.9529 O   0  0  0  0  0  0  0  0  0  0  0  0
   23.6408  -20.9255  -12.5681 N   0  0  0  0  0  0  0  0  0  0  0  0
   22.3528  -20.3770  -13.0199 C   0  0  1  0  0  0  0  0  0  0  0  0
   22.3526  -20.4627  -14.5164 C   0  0  0  0  0  0  0  0  0  0  0  0
   21.0773  -20.0864  -15.1540 C   0  0  0  0  0  0  0  0  0  0  0  0
   20.9632  -18.8498  -15.7504 C   0  0  0  0  0  0  0  0  0  0  0  0
   19.8025  -18.4307  -16.3705 C   0  0  0  0  0  0  0  0  0  0  0  0
   18.7108  -19.2621  -16.4050 C   0  0  0  0  0  0  0  0  0  0  0  0
   18.8144  -20.5096  -15.8078 C   0  0  0  0  0  0  0  0  0  0  0  0
   19.9774  -20.9142  -15.1933 C   0  0  0  0  0  0  0  0  0  0  0  0
   21.2710  -21.1948  -12.4207 C   0  0  0  0  0  0  0  0  0  0  0  0
   21.3631  -22.5782  -12.3889 O   0  0  0  0  0  0  0  0  0  0  0  0
   20.2403  -20.6729  -11.9245 O   0  0  0  0  0  0  0  0  0  0  0  0
  2  1  1  0
  3  4  1  0
  3  2  1  0
  5  4  1  0
  5  6  1  6
  7  5  1  0
  7  8  2  0
  9  7  1  0
 10  9  1  0
 10 11  1  1
 12 11  1  0
 12 17  1  0
 13 12  2  0
 14 13  1  0
 14 15  2  0
 15 16  1  0
 16 17  2  0
 18 10  1  0
 19 18  2  0
 20 18  1  0
 21 20  1  0
 21 29  1  0
 21 22  1  6
 23 22  1  0
 23 24  2  0
 25 24  1  0
 26 25  2  0
 27 28  2  0
 27 26  1  0
 28 23  1  0
 29 30  1  0
 31 29  2  0
M  END
$$$$
