MFF.pdb
     RDKit          3D

 31 32  0  0  1  0  0  0  0  0999 V2000
   25.3905  -20.5029  -18.9086 C   0  0  0  0  0  0  0  0  0  0  0  0
   23.6047  -20.6538  -18.7663 S   0  0  0  0  0  0  0  0  0  0  0  0
   23.0860  -21.2735  -17.1538 C   0  0  0  0  0  0  0  0  0  0  0  0
   24.1663  -21.0274  -16.1057 C   0  0  0  0  0  0  0  0  0  0  0  0
   23.6137  -19.9875  -15.1611 C   0  0  2  0  0  0  0  0  0  0  0  0
   23.5236  -18.7532  -15.9151 N   0  0  0  0  0  0  0  0  0  0  0  0
   24.4151  -19.8075  -13.9525 C   0  0  0  0  0  0  0  0  0  0  0  0
   25.4375  -19.0797  -14.0283 O   0  0  0  0  0  0  0  0  0  0  0  0
   24.1247  -20.3950  -12.6954 N   0  0  0  0  0  0  0  0  0  0  0  0
   25.0023  -20.1905  -11.5927 C   0  0  1  0  0  0  0  0  0  0  0  0
   24.3275  -20.3596  -10.2514 C   0  0  0  0  0  0  0  0  0  0  0  0
   25.1851  -20.0339   -9.0996 C   0  0  0  0  0  0  0  0  0  0  0  0
   25.5513  -21.0329   -8.2245 C   0  0  0  0  0  0  0  0  0  0  0  0
   26.3632  -20.7515   -7.1241 C   0  0  0  0  0  0  0  0  0  0  0  0
   26.8071  -19.4564   -6.9066 C   0  0  0  0  0  0  0  0  0  0  0  0
   26.4515  -18.4595   -7.7653 C   0  0  0  0  0  0  0  0  0  0  0  0
   25.6418  -18.7621   -8.8554 C   0  0  0  0  0  0  0  0  0  0  0  0
   26.2053  -21.0416  -11.6140 C   0  0  0  0  0  0  0  0  0  0  0  0
   26.0522  -22.2796  -11.7526 O   0  0  0  0  0  0  0  0  0  0  0  0
   27.5367  -20.5674  -11.4890 N   0  0  0  0  0  0  0  0  0  0  0  0
   28.6751  -21.4905  -11.3621 C   0  0  1  0  0  0  0  0  0  0  0  0
   29.9019  -20.7094  -11.7251 C   0  0  0  0  0  0  0  0  0  0  0  0
   31.1736  -21.4199  -11.4962 C   0  0  0  0  0  0  0  0  0  0  0  0
   31.7935  -21.3103  -10.2707 C   0  0  0  0  0  0  0  0  0  0  0  0
   32.9829  -21.9504   -9.9825 C   0  0  0  0  0  0  0  0  0  0  0  0
   33.5859  -22.7293  -10.9384 C   0  0  0  0  0  0  0  0  0  0  0  0
   32.9705  -22.8469  -12.1758 C   0  0  0  0  0  0  0  0  0  0  0  0
   31.7852  -22.2034  -12.4494 C   0  0  0  0  0  0  0  0  0  0  0  0
   28.7218  -21.9703   -9.9600 C   0  0  0  0  0  0  0  0  0  0  0  0
   29.1336  -23.2616   -9.6662 O   0  0  0  0  0  0  0  0  0  0  0  0
   28.3935  -21.2348   -8.9945 O   0  0  0  0  0  0  0  0  0  0  0  0
  2  1  1  0
  3  4  1  0
  3  2  1  0
  5  4  1  0
  5  6  1  6
  7  5  1  0
  7  8  2  0
  9  7  1  0
 10  9  1  0
 10 11  1  1
 12 11  1  0
 12 17  1  0
 13 12  2  0
 14 13  1  0
 14 15  2  0
 15 16  1  0
 16 17  2  0
 18 10  1  0
 19 18  2  0
 20 18  1  0
 21 20  1  0
 21 29  1  0
 21 22  1  1
 23 22  1  0
 23 24  2  0
 25 24  1  0
 26 25  2  0
 27 28  2  0
 27 26  1  0
 28 23  1  0
 29 30  1  0
 31 29  2  0
M  END
$$$$
