VAV.pdb
     RDKit          3D

 20 19  0  0  1  0  0  0  0  0999 V2000
   25.7242  -21.1374  -10.0377 C   0  0  0  0  0  0  0  0  0  0  0  0
   24.2371  -21.3142   -9.9586 C   0  0  1  0  0  0  0  0  0  0  0  0
   23.7702  -21.2332   -8.4998 C   0  0  0  0  0  0  0  0  0  0  0  0
   23.4689  -20.2630  -10.7131 C   0  0  2  0  0  0  0  0  0  0  0  0
   22.0588  -20.5846  -10.6174 N   0  0  0  0  0  0  0  0  0  0  0  0
   23.8943  -20.1159  -12.1116 C   0  0  0  0  0  0  0  0  0  0  0  0
   25.0565  -19.8976  -12.4840 O   0  0  0  0  0  0  0  0  0  0  0  0
   21.9851  -20.5923  -15.3084 C   0  0  0  0  0  0  0  0  0  0  0  0
   23.2025  -20.0778  -14.5360 C   0  0  2  0  0  0  0  0  0  0  0  0
   22.8995  -20.2313  -13.1325 N   0  0  0  0  0  0  0  0  0  0  0  0
   23.3489  -18.6446  -14.8970 C   0  0  0  0  0  0  0  0  0  0  0  0
   22.5293  -17.8214  -14.4177 O   0  0  0  0  0  0  0  0  0  0  0  0
   26.4418  -16.3129  -14.5199 C   0  0  0  0  0  0  0  0  0  0  0  0
   25.9529  -16.2973  -15.9410 C   0  0  1  0  0  0  0  0  0  0  0  0
   26.9206  -17.0801  -16.7891 C   0  0  0  0  0  0  0  0  0  0  0  0
   24.5376  -16.7691  -16.0858 C   0  0  2  0  0  0  0  0  0  0  0  0
   24.3617  -18.1552  -15.7519 N   0  0  0  0  0  0  0  0  0  0  0  0
   24.1358  -16.5808  -17.5020 C   0  0  0  0  0  0  0  0  0  0  0  0
   23.9508  -15.4113  -17.9774 O   0  0  0  0  0  0  0  0  0  0  0  0
   23.9480  -17.6570  -18.3545 O   0  0  0  0  0  0  0  0  0  0  0  0
  2  1  1  1
  2  4  1  0
  3  2  1  0
  4  5  1  6
  6 10  1  0
  6  4  1  0
  7  6  2  0
  9  8  1  6
  9 11  1  0
  9 10  1  0
 11 17  1  0
 12 11  2  0
 14 13  1  1
 14 16  1  0
 15 14  1  0
 16 18  1  0
 16 17  1  6
 18 19  2  0
 18 20  1  0
M  END
$$$$
