VAV.pdb
     RDKit          3D

 20 19  0  0  1  0  0  0  0  0999 V2000
   27.8436  -19.5894  -19.0320 C   0  0  0  0  0  0  0  0  0  0  0  0
   28.6443  -20.8376  -18.8090 C   0  0  1  0  0  0  0  0  0  0  0  0
   30.1226  -20.4885  -18.5960 C   0  0  0  0  0  0  0  0  0  0  0  0
   28.2100  -21.6184  -17.5980 C   0  0  2  0  0  0  0  0  0  0  0  0
   27.2434  -22.6092  -18.0278 N   0  0  0  0  0  0  0  0  0  0  0  0
   27.6759  -20.7775  -16.5182 C   0  0  0  0  0  0  0  0  0  0  0  0
   28.2985  -19.8703  -15.9468 O   0  0  0  0  0  0  0  0  0  0  0  0
   24.3123  -19.8060  -15.6913 C   0  0  0  0  0  0  0  0  0  0  0  0
   25.6751  -20.1820  -15.1041 C   0  0  2  0  0  0  0  0  0  0  0  0
   26.3343  -21.0139  -16.0832 N   0  0  0  0  0  0  0  0  0  0  0  0
   25.3961  -20.9418  -13.8588 C   0  0  0  0  0  0  0  0  0  0  0  0
   25.0365  -22.1417  -13.9593 O   0  0  0  0  0  0  0  0  0  0  0  0
   25.5576  -19.0884   -9.8965 C   0  0  0  0  0  0  0  0  0  0  0  0
   25.9276  -20.5229  -10.1499 C   0  0  1  0  0  0  0  0  0  0  0  0
   25.6762  -21.3118   -8.8917 C   0  0  0  0  0  0  0  0  0  0  0  0
   25.2459  -21.1073  -11.3501 C   0  0  2  0  0  0  0  0  0  0  0  0
   25.5134  -20.3878  -12.5644 N   0  0  0  0  0  0  0  0  0  0  0  0
   23.7824  -21.0731  -11.1061 C   0  0  0  0  0  0  0  0  0  0  0  0
   23.0513  -20.1800  -11.6501 O   0  0  0  0  0  0  0  0  0  0  0  0
   23.1594  -22.0003  -10.2861 O   0  0  0  0  0  0  0  0  0  0  0  0
  2  1  1  1
  2  4  1  0
  3  2  1  0
  4  5  1  6
  6 10  1  0
  6  4  1  0
  7  6  2  0
  9  8  1  6
  9 11  1  0
  9 10  1  0
 11 17  1  0
 12 11  2  0
 14 13  1  1
 14 16  1  0
 15 14  1  0
 16 18  1  0
 16 17  1  6
 18 19  2  0
 18 20  1  0
M  END
$$$$
