VAV.pdb
     RDKit          3D

 20 19  0  0  1  0  0  0  0  0999 V2000
   17.4091  -15.9518  -16.5969 C   0  0  0  0  0  0  0  0  0  0  0  0
   17.8645  -14.7398  -15.8402 C   0  0  1  0  0  0  0  0  0  0  0  0
   19.3879  -14.5927  -15.9414 C   0  0  0  0  0  0  0  0  0  0  0  0
   17.2751  -13.4554  -16.3575 C   0  0  2  0  0  0  0  0  0  0  0  0
   17.4724  -13.4191  -17.7930 N   0  0  0  0  0  0  0  0  0  0  0  0
   17.8208  -12.2559  -15.7080 C   0  0  0  0  0  0  0  0  0  0  0  0
   17.7034  -11.9808  -14.5048 O   0  0  0  0  0  0  0  0  0  0  0  0
   20.4667   -9.9148  -16.6690 C   0  0  0  0  0  0  0  0  0  0  0  0
   19.1111  -10.1074  -15.9841 C   0  0  2  0  0  0  0  0  0  0  0  0
   18.5461  -11.3252  -16.5160 N   0  0  0  0  0  0  0  0  0  0  0  0
   18.2864   -8.9294  -16.3554 C   0  0  0  0  0  0  0  0  0  0  0  0
   17.8474   -8.8543  -17.5305 O   0  0  0  0  0  0  0  0  0  0  0  0
   14.8867   -7.7493  -15.3662 C   0  0  0  0  0  0  0  0  0  0  0  0
   15.8797   -6.6834  -14.9965 C   0  0  1  0  0  0  0  0  0  0  0  0
   16.1158   -6.7438  -13.5102 C   0  0  0  0  0  0  0  0  0  0  0  0
   17.1484   -6.7544  -15.7914 C   0  0  2  0  0  0  0  0  0  0  0  0
   17.9679   -7.8861  -15.4575 N   0  0  0  0  0  0  0  0  0  0  0  0
   17.9289   -5.5223  -15.5170 C   0  0  0  0  0  0  0  0  0  0  0  0
   18.9362   -5.5492  -14.7342 O   0  0  0  0  0  0  0  0  0  0  0  0
   17.5975   -4.3070  -16.0945 O   0  0  0  0  0  0  0  0  0  0  0  0
  2  1  1  6
  2  4  1  0
  3  2  1  0
  4  5  1  6
  6 10  1  0
  6  4  1  0
  7  6  2  0
  9  8  1  6
  9 11  1  0
  9 10  1  0
 11 17  1  0
 12 11  2  0
 14 13  1  6
 14 16  1  0
 15 14  1  0
 16 18  1  0
 16 17  1  1
 18 19  2  0
 18 20  1  0
M  END
$$$$
