VAV.pdb
     RDKit          3D

 20 19  0  0  1  0  0  0  0  0999 V2000
   26.3762  -21.3583  -14.9921 C   0  0  0  0  0  0  0  0  0  0  0  0
   26.2085  -20.5312  -13.7524 C   0  0  1  0  0  0  0  0  0  0  0  0
   24.7566  -20.0529  -13.6262 C   0  0  0  0  0  0  0  0  0  0  0  0
   26.5240  -21.2807  -12.4862 C   0  0  2  0  0  0  0  0  0  0  0  0
   25.5976  -22.3905  -12.3809 N   0  0  0  0  0  0  0  0  0  0  0  0
   26.4947  -20.4383  -11.2829 C   0  0  0  0  0  0  0  0  0  0  0  0
   27.1690  -19.4115  -11.1149 O   0  0  0  0  0  0  0  0  0  0  0  0
   24.1488  -20.3655   -8.3941 C   0  0  0  0  0  0  0  0  0  0  0  0
   25.5344  -20.0801   -8.9792 C   0  0  2  0  0  0  0  0  0  0  0  0
   25.6246  -20.8219  -10.2148 N   0  0  0  0  0  0  0  0  0  0  0  0
   26.5171  -20.5791   -7.9838 C   0  0  0  0  0  0  0  0  0  0  0  0
   26.7607  -21.8116   -7.9512 O   0  0  0  0  0  0  0  0  0  0  0  0
   28.7535  -17.9203   -5.2786 C   0  0  0  0  0  0  0  0  0  0  0  0
   29.2352  -19.2446   -5.8010 C   0  0  1  0  0  0  0  0  0  0  0  0
   30.2615  -19.7922   -4.8443 C   0  0  0  0  0  0  0  0  0  0  0  0
   28.1240  -20.2112   -6.0794 C   0  0  2  0  0  0  0  0  0  0  0  0
   27.1947  -19.7419   -7.0694 N   0  0  0  0  0  0  0  0  0  0  0  0
   27.3797  -20.4286   -4.8140 C   0  0  0  0  0  0  0  0  0  0  0  0
   26.1837  -20.0049   -4.6799 O   0  0  0  0  0  0  0  0  0  0  0  0
   27.9491  -21.0934   -3.7397 O   0  0  0  0  0  0  0  0  0  0  0  0
  2  1  1  6
  2  4  1  0
  3  2  1  0
  4  5  1  1
  6 10  1  0
  6  4  1  0
  7  6  2  0
  9  8  1  1
  9 11  1  0
  9 10  1  0
 11 17  1  0
 12 11  2  0
 14 13  1  1
 14 16  1  0
 15 14  1  0
 16 18  1  0
 16 17  1  6
 18 19  2  0
 18 20  1  0
M  END
$$$$
