VAV.pdb
     RDKit          3D

 20 19  0  0  1  0  0  0  0  0999 V2000
   15.3134  -10.6224  -15.0945 C   0  0  0  0  0  0  0  0  0  0  0  0
   15.3013  -12.0457  -15.5666 C   0  0  1  0  0  0  0  0  0  0  0  0
   13.8593  -12.5173  -15.7926 C   0  0  0  0  0  0  0  0  0  0  0  0
   16.0276  -12.2501  -16.8686 C   0  0  2  0  0  0  0  0  0  0  0  0
   16.0055  -13.6665  -17.1754 N   0  0  0  0  0  0  0  0  0  0  0  0
   17.3981  -11.7207  -16.8655 C   0  0  0  0  0  0  0  0  0  0  0  0
   18.3759  -12.2768  -16.3441 O   0  0  0  0  0  0  0  0  0  0  0  0
   18.8141   -8.6640  -18.5416 C   0  0  0  0  0  0  0  0  0  0  0  0
   18.9574   -9.9031  -17.6540 C   0  0  2  0  0  0  0  0  0  0  0  0
   17.6358  -10.4669  -17.5109 N   0  0  0  0  0  0  0  0  0  0  0  0
   19.4768   -9.4217  -16.3485 C   0  0  0  0  0  0  0  0  0  0  0  0
   18.6592   -8.9556  -15.5157 O   0  0  0  0  0  0  0  0  0  0  0  0
   22.3137  -11.2380  -14.0429 C   0  0  0  0  0  0  0  0  0  0  0  0
   22.5766   -9.7780  -14.2841 C   0  0  1  0  0  0  0  0  0  0  0  0
   23.7252   -9.6514  -15.2501 C   0  0  0  0  0  0  0  0  0  0  0  0
   21.3594   -9.0218  -14.7238 C   0  0  2  0  0  0  0  0  0  0  0  0
   20.8432   -9.4593  -15.9910 N   0  0  0  0  0  0  0  0  0  0  0  0
   21.7306   -7.5901  -14.8461 C   0  0  0  0  0  0  0  0  0  0  0  0
   21.9992   -6.8952  -13.8101 O   0  0  0  0  0  0  0  0  0  0  0  0
   21.7992   -6.9585  -16.0776 O   0  0  0  0  0  0  0  0  0  0  0  0
  2  1  1  6
  2  4  1  0
  3  2  1  0
  4  5  1  1
  6 10  1  0
  6  4  1  0
  7  6  2  0
  9  8  1  6
  9 11  1  0
  9 10  1  0
 11 17  1  0
 12 11  2  0
 14 13  1  6
 14 16  1  0
 15 14  1  0
 16 18  1  0
 16 17  1  6
 18 19  2  0
 18 20  1  0
M  END
$$$$
