VAV.pdb
     RDKit          3D

 20 19  0  0  1  0  0  0  0  0999 V2000
   23.6036  -16.8338  -18.6143 C   0  0  0  0  0  0  0  0  0  0  0  0
   22.4543  -17.3156  -17.7801 C   0  0  1  0  0  0  0  0  0  0  0  0
   21.5293  -18.2086  -18.6166 C   0  0  0  0  0  0  0  0  0  0  0  0
   22.8799  -18.1345  -16.5914 C   0  0  2  0  0  0  0  0  0  0  0  0
   23.7577  -19.1864  -17.0644 N   0  0  0  0  0  0  0  0  0  0  0  0
   21.7541  -18.6783  -15.8200 C   0  0  0  0  0  0  0  0  0  0  0  0
   21.2200  -19.7795  -16.0180 O   0  0  0  0  0  0  0  0  0  0  0  0
   20.0316  -17.3649  -12.7525 C   0  0  0  0  0  0  0  0  0  0  0  0
   20.0943  -18.3050  -13.9590 C   0  0  2  0  0  0  0  0  0  0  0  0
   21.2238  -17.8851  -14.7548 N   0  0  0  0  0  0  0  0  0  0  0  0
   18.8204  -18.1174  -14.6991 C   0  0  0  0  0  0  0  0  0  0  0  0
   18.7062  -17.1135  -15.4464 O   0  0  0  0  0  0  0  0  0  0  0  0
   17.0810  -20.9476  -16.7955 C   0  0  0  0  0  0  0  0  0  0  0  0
   16.0722  -20.2505  -15.9264 C   0  0  1  0  0  0  0  0  0  0  0  0
   15.6642  -21.1875  -14.8201 C   0  0  0  0  0  0  0  0  0  0  0  0
   16.5449  -18.9214  -15.4196 C   0  0  2  0  0  0  0  0  0  0  0  0
   17.7275  -19.0081  -14.6087 N   0  0  0  0  0  0  0  0  0  0  0  0
   15.4603  -18.3357  -14.5931 C   0  0  0  0  0  0  0  0  0  0  0  0
   14.3744  -17.9356  -15.1305 O   0  0  0  0  0  0  0  0  0  0  0  0
   15.5836  -18.2018  -13.2194 O   0  0  0  0  0  0  0  0  0  0  0  0
  2  1  1  6
  2  4  1  0
  3  2  1  0
  4  5  1  6
  6 10  1  0
  6  4  1  0
  7  6  2  0
  9  8  1  1
  9 11  1  0
  9 10  1  0
 11 17  1  0
 12 11  2  0
 14 13  1  1
 14 16  1  0
 15 14  1  0
 16 18  1  0
 16 17  1  1
 18 19  2  0
 18 20  1  0
M  END
$$$$
