VAV.pdb
     RDKit          3D

 20 19  0  0  1  0  0  0  0  0999 V2000
   17.1544  -12.5986  -14.9012 C   0  0  0  0  0  0  0  0  0  0  0  0
   17.6434  -11.1809  -14.8944 C   0  0  1  0  0  0  0  0  0  0  0  0
   19.1628  -11.1429  -15.1007 C   0  0  0  0  0  0  0  0  0  0  0  0
   17.0420  -10.3356  -15.9845 C   0  0  2  0  0  0  0  0  0  0  0  0
   17.0595  -11.1084  -17.2106 N   0  0  0  0  0  0  0  0  0  0  0  0
   17.7088   -9.0378  -16.1560 C   0  0  0  0  0  0  0  0  0  0  0  0
   18.7423   -8.8488  -16.8142 O   0  0  0  0  0  0  0  0  0  0  0  0
   16.5829   -5.5805  -15.3135 C   0  0  0  0  0  0  0  0  0  0  0  0
   17.7070   -6.5752  -15.6149 C   0  0  2  0  0  0  0  0  0  0  0  0
   17.1303   -7.8955  -15.5190 N   0  0  0  0  0  0  0  0  0  0  0  0
   18.7393   -6.3660  -14.5678 C   0  0  0  0  0  0  0  0  0  0  0  0
   18.5268   -6.8288  -13.4189 O   0  0  0  0  0  0  0  0  0  0  0  0
   22.2504   -7.6471  -14.4183 C   0  0  0  0  0  0  0  0  0  0  0  0
   22.3015   -6.1513  -14.2818 C   0  0  1  0  0  0  0  0  0  0  0  0
   22.7898   -5.5681  -15.5817 C   0  0  0  0  0  0  0  0  0  0  0  0
   21.0048   -5.5535  -13.8256 C   0  0  2  0  0  0  0  0  0  0  0  0
   19.9499   -5.6736  -14.7934 N   0  0  0  0  0  0  0  0  0  0  0  0
   21.2329   -4.1098  -13.5682 C   0  0  0  0  0  0  0  0  0  0  0  0
   20.7308   -3.2231  -14.3361 O   0  0  0  0  0  0  0  0  0  0  0  0
   21.9924   -3.6730  -12.4946 O   0  0  0  0  0  0  0  0  0  0  0  0
  2  1  1  6
  2  4  1  0
  3  2  1  0
  4  5  1  6
  6 10  1  0
  6  4  1  0
  7  6  2  0
  9  8  1  1
  9 11  1  0
  9 10  1  0
 11 17  1  0
 12 11  2  0
 14 13  1  6
 14 16  1  0
 15 14  1  0
 16 18  1  0
 16 17  1  6
 18 19  2  0
 18 20  1  0
M  END
$$$$
