VAV.pdb
     RDKit          3D

 20 19  0  0  1  0  0  0  0  0999 V2000
   27.5292  -25.8872  -19.1714 C   0  0  0  0  0  0  0  0  0  0  0  0
   28.2354  -26.7484  -18.1671 C   0  0  1  0  0  0  0  0  0  0  0  0
   29.3646  -27.5353  -18.8440 C   0  0  0  0  0  0  0  0  0  0  0  0
   28.8694  -25.9659  -17.0489 C   0  0  2  0  0  0  0  0  0  0  0  0
   29.3798  -26.9108  -16.0754 N   0  0  0  0  0  0  0  0  0  0  0  0
   27.9635  -24.9897  -16.4287 C   0  0  0  0  0  0  0  0  0  0  0  0
   27.0366  -25.2691  -15.6542 O   0  0  0  0  0  0  0  0  0  0  0  0
   28.0804  -21.2332  -16.4773 C   0  0  0  0  0  0  0  0  0  0  0  0
   27.4171  -22.5535  -16.0766 C   0  0  2  0  0  0  0  0  0  0  0  0
   28.1555  -23.6059  -16.7343 N   0  0  0  0  0  0  0  0  0  0  0  0
   26.0209  -22.4867  -16.5786 C   0  0  0  0  0  0  0  0  0  0  0  0
   25.8152  -22.6943  -17.8008 O   0  0  0  0  0  0  0  0  0  0  0  0
   22.9417  -24.4198  -15.2263 C   0  0  0  0  0  0  0  0  0  0  0  0
   22.6157  -22.9554  -15.3153 C   0  0  1  0  0  0  0  0  0  0  0  0
   22.5555  -22.3925  -13.9195 C   0  0  0  0  0  0  0  0  0  0  0  0
   23.5464  -22.1947  -16.2107 C   0  0  2  0  0  0  0  0  0  0  0  0
   24.9089  -22.2019  -15.7550 N   0  0  0  0  0  0  0  0  0  0  0  0
   23.0835  -20.7855  -16.2594 C   0  0  0  0  0  0  0  0  0  0  0  0
   22.0001  -20.4753  -16.8578 O   0  0  0  0  0  0  0  0  0  0  0  0
   23.8026  -19.7621  -15.6629 O   0  0  0  0  0  0  0  0  0  0  0  0
  2  1  1  6
  2  4  1  0
  3  2  1  0
  4  5  1  1
  6 10  1  0
  6  4  1  0
  7  6  2  0
  9  8  1  6
  9 11  1  0
  9 10  1  0
 11 17  1  0
 12 11  2  0
 14 13  1  1
 14 16  1  0
 15 14  1  0
 16 18  1  0
 16 17  1  1
 18 19  2  0
 18 20  1  0
M  END
$$$$
