VAV.pdb
     RDKit          3D

 20 19  0  0  1  0  0  0  0  0999 V2000
   27.7077  -18.6636  -16.6927 C   0  0  0  0  0  0  0  0  0  0  0  0
   27.2276  -18.6806  -15.2721 C   0  0  1  0  0  0  0  0  0  0  0  0
   27.3964  -17.2939  -14.6385 C   0  0  0  0  0  0  0  0  0  0  0  0
   25.7723  -19.0389  -15.1368 C   0  0  2  0  0  0  0  0  0  0  0  0
   25.0314  -18.2807  -16.1252 N   0  0  0  0  0  0  0  0  0  0  0  0
   25.2391  -18.8270  -13.7843 C   0  0  0  0  0  0  0  0  0  0  0  0
   25.0240  -17.7205  -13.2681 O   0  0  0  0  0  0  0  0  0  0  0  0
   23.2088  -20.8194  -11.5788 C   0  0  0  0  0  0  0  0  0  0  0  0
   24.4201  -19.8858  -11.6477 C   0  0  2  0  0  0  0  0  0  0  0  0
   24.9408  -19.9790  -12.9913 N   0  0  0  0  0  0  0  0  0  0  0  0
   25.4000  -20.4023  -10.6583 C   0  0  0  0  0  0  0  0  0  0  0  0
   25.9708  -21.4958  -10.8981 O   0  0  0  0  0  0  0  0  0  0  0  0
   26.0254  -18.6060   -6.6687 C   0  0  0  0  0  0  0  0  0  0  0  0
   27.1231  -19.1826   -7.5180 C   0  0  1  0  0  0  0  0  0  0  0  0
   28.2215  -19.6742   -6.6122 C   0  0  0  0  0  0  0  0  0  0  0  0
   26.6430  -20.2323   -8.4743 C   0  0  2  0  0  0  0  0  0  0  0  0
   25.7261  -19.7296   -9.4594 N   0  0  0  0  0  0  0  0  0  0  0  0
   25.9472  -21.2818   -7.6889 C   0  0  0  0  0  0  0  0  0  0  0  0
   24.6728  -21.3262   -7.6452 O   0  0  0  0  0  0  0  0  0  0  0  0
   26.6474  -22.2446   -6.9798 O   0  0  0  0  0  0  0  0  0  0  0  0
  2  1  1  6
  2  4  1  0
  3  2  1  0
  4  5  1  6
  6 10  1  0
  6  4  1  0
  7  6  2  0
  9  8  1  6
  9 11  1  0
  9 10  1  0
 11 17  1  0
 12 11  2  0
 14 13  1  1
 14 16  1  0
 15 14  1  0
 16 18  1  0
 16 17  1  6
 18 19  2  0
 18 20  1  0
M  END
$$$$
