VAV.pdb
     RDKit          3D

 20 19  0  0  1  0  0  0  0  0999 V2000
   26.3309  -16.0215  -14.8958 C   0  0  0  0  0  0  0  0  0  0  0  0
   26.4522  -16.5639  -16.2887 C   0  0  1  0  0  0  0  0  0  0  0  0
   26.9211  -15.4625  -17.2478 C   0  0  0  0  0  0  0  0  0  0  0  0
   27.4458  -17.6876  -16.4085 C   0  0  2  0  0  0  0  0  0  0  0  0
   27.4522  -18.1337  -17.7876 N   0  0  0  0  0  0  0  0  0  0  0  0
   27.1884  -18.7997  -15.4836 C   0  0  0  0  0  0  0  0  0  0  0  0
   26.1754  -19.5145  -15.4927 O   0  0  0  0  0  0  0  0  0  0  0  0
   29.3345  -20.2462  -12.7522 C   0  0  0  0  0  0  0  0  0  0  0  0
   28.0086  -20.1367  -13.5096 C   0  0  2  0  0  0  0  0  0  0  0  0
   28.1756  -19.0906  -14.4908 N   0  0  0  0  0  0  0  0  0  0  0  0
   26.9833  -19.7647  -12.5016 C   0  0  0  0  0  0  0  0  0  0  0  0
   26.9886  -18.5923  -12.0491 O   0  0  0  0  0  0  0  0  0  0  0  0
   23.1400  -19.8752  -12.5956 C   0  0  0  0  0  0  0  0  0  0  0  0
   23.6241  -20.6618  -11.4100 C   0  0  1  0  0  0  0  0  0  0  0  0
   23.4256  -22.1276  -11.6943 C   0  0  0  0  0  0  0  0  0  0  0  0
   25.0313  -20.3305  -11.0139 C   0  0  2  0  0  0  0  0  0  0  0  0
   25.9999  -20.6590  -12.0227 N   0  0  0  0  0  0  0  0  0  0  0  0
   25.3566  -21.1067   -9.7915 C   0  0  0  0  0  0  0  0  0  0  0  0
   26.1876  -22.0738   -9.8351 O   0  0  0  0  0  0  0  0  0  0  0  0
   24.7762  -20.8141   -8.5676 O   0  0  0  0  0  0  0  0  0  0  0  0
  2  1  1  1
  2  4  1  0
  3  2  1  0
  4  5  1  6
  6 10  1  0
  6  4  1  0
  7  6  2  0
  9  8  1  1
  9 11  1  0
  9 10  1  0
 11 17  1  0
 12 11  2  0
 14 13  1  6
 14 16  1  0
 15 14  1  0
 16 18  1  0
 16 17  1  6
 18 19  2  0
 18 20  1  0
M  END
$$$$
