VAV.pdb
     RDKit          3D

 20 19  0  0  1  0  0  0  0  0999 V2000
   14.8056  -22.9617   -3.3978 C   0  0  0  0  0  0  0  0  0  0  0  0
   13.6225  -22.4584   -4.1696 C   0  0  1  0  0  0  0  0  0  0  0  0
   13.4412  -23.2752   -5.4551 C   0  0  0  0  0  0  0  0  0  0  0  0
   12.3266  -22.5601   -3.4113 C   0  0  2  0  0  0  0  0  0  0  0  0
   11.2921  -21.9300   -4.2074 N   0  0  0  0  0  0  0  0  0  0  0  0
   12.3908  -21.9871   -2.0601 C   0  0  0  0  0  0  0  0  0  0  0  0
   12.2937  -20.7805   -1.7921 O   0  0  0  0  0  0  0  0  0  0  0  0
   12.2533  -23.6331    1.2828 C   0  0  0  0  0  0  0  0  0  0  0  0
   12.6203  -22.4290    0.4116 C   0  0  2  0  0  0  0  0  0  0  0  0
   12.5798  -22.8803   -0.9594 N   0  0  0  0  0  0  0  0  0  0  0  0
   13.9977  -22.0361    0.8041 C   0  0  0  0  0  0  0  0  0  0  0  0
   14.9650  -22.6147    0.2483 O   0  0  0  0  0  0  0  0  0  0  0  0
   14.8014  -19.0209    3.8840 C   0  0  0  0  0  0  0  0  0  0  0  0
   15.6544  -19.2183    2.6625 C   0  0  1  0  0  0  0  0  0  0  0  0
   17.0545  -18.7610    2.9771 C   0  0  0  0  0  0  0  0  0  0  0  0
   15.6051  -20.6168    2.1253 C   0  0  2  0  0  0  0  0  0  0  0  0
   14.2805  -21.0449    1.7704 N   0  0  0  0  0  0  0  0  0  0  0  0
   16.1186  -21.5287    3.1775 C   0  0  0  0  0  0  0  0  0  0  0  0
   15.3155  -22.1933    3.9133 O   0  0  0  0  0  0  0  0  0  0  0  0
   17.4767  -21.6923    3.3996 O   0  0  0  0  0  0  0  0  0  0  0  0
  2  1  1  1
  2  4  1  0
  3  2  1  0
  4  5  1  6
  6 10  1  0
  6  4  1  0
  7  6  2  0
  9  8  1  1
  9 11  1  0
  9 10  1  0
 11 17  1  0
 12 11  2  0
 14 13  1  1
 14 16  1  0
 15 14  1  0
 16 18  1  0
 16 17  1  1
 18 19  2  0
 18 20  1  0
M  END
$$$$
