VAV.pdb
     RDKit          3D

 20 19  0  0  1  0  0  0  0  0999 V2000
   27.0566  -16.4106  -14.8673 C   0  0  0  0  0  0  0  0  0  0  0  0
   25.8403  -15.9502  -15.6141 C   0  0  1  0  0  0  0  0  0  0  0  0
   26.2368  -14.9545  -16.7113 C   0  0  0  0  0  0  0  0  0  0  0  0
   25.0995  -17.0677  -16.2974 C   0  0  2  0  0  0  0  0  0  0  0  0
   23.9641  -16.4929  -16.9912 N   0  0  0  0  0  0  0  0  0  0  0  0
   24.6857  -18.1419  -15.3845 C   0  0  0  0  0  0  0  0  0  0  0  0
   23.8514  -18.0227  -14.4752 O   0  0  0  0  0  0  0  0  0  0  0  0
   25.5952  -21.7814  -15.2706 C   0  0  0  0  0  0  0  0  0  0  0  0
   25.1025  -20.4996  -14.5941 C   0  0  2  0  0  0  0  0  0  0  0  0
   25.2848  -19.4302  -15.5471 N   0  0  0  0  0  0  0  0  0  0  0  0
   25.9627  -20.3027  -13.3995 C   0  0  0  0  0  0  0  0  0  0  0  0
   27.1466  -19.9185  -13.5729 O   0  0  0  0  0  0  0  0  0  0  0  0
   24.7089  -21.4134   -9.3310 C   0  0  0  0  0  0  0  0  0  0  0  0
   25.5614  -20.2154   -9.6420 C   0  0  1  0  0  0  0  0  0  0  0  0
   26.4297  -19.9221   -8.4468 C   0  0  0  0  0  0  0  0  0  0  0  0
   26.3462  -20.3601  -10.9108 C   0  0  2  0  0  0  0  0  0  0  0  0
   25.5216  -20.5243  -12.0757 N   0  0  0  0  0  0  0  0  0  0  0  0
   27.2066  -21.5623  -10.7812 C   0  0  0  0  0  0  0  0  0  0  0  0
   26.7611  -22.7189  -11.0846 O   0  0  0  0  0  0  0  0  0  0  0  0
   28.5141  -21.4765  -10.3302 O   0  0  0  0  0  0  0  0  0  0  0  0
  2  1  1  6
  2  4  1  0
  3  2  1  0
  4  5  1  1
  6 10  1  0
  6  4  1  0
  7  6  2  0
  9  8  1  6
  9 11  1  0
  9 10  1  0
 11 17  1  0
 12 11  2  0
 14 13  1  1
 14 16  1  0
 15 14  1  0
 16 18  1  0
 16 17  1  6
 18 19  2  0
 18 20  1  0
M  END
$$$$
