VAV.pdb
     RDKit          3D

 20 19  0  0  1  0  0  0  0  0999 V2000
   15.6414   -9.1009  -18.3555 C   0  0  0  0  0  0  0  0  0  0  0  0
   15.4234  -10.5559  -18.6459 C   0  0  1  0  0  0  0  0  0  0  0  0
   14.3046  -10.7284  -19.6809 C   0  0  0  0  0  0  0  0  0  0  0  0
   16.6382  -11.2417  -19.2102 C   0  0  2  0  0  0  0  0  0  0  0  0
   16.3062  -12.6366  -19.4220 N   0  0  0  0  0  0  0  0  0  0  0  0
   17.8370  -11.0940  -18.3739 C   0  0  0  0  0  0  0  0  0  0  0  0
   18.0205  -11.6581  -17.2852 O   0  0  0  0  0  0  0  0  0  0  0  0
   21.0159   -9.1743  -18.9702 C   0  0  0  0  0  0  0  0  0  0  0  0
   20.0567   -9.9412  -18.0562 C   0  0  2  0  0  0  0  0  0  0  0  0
   18.8808  -10.2354  -18.8409 N   0  0  0  0  0  0  0  0  0  0  0  0
   19.7332   -9.0265  -16.9317 C   0  0  0  0  0  0  0  0  0  0  0  0
   18.8244   -8.1745  -17.0975 O   0  0  0  0  0  0  0  0  0  0  0  0
   21.7118   -9.2844  -13.0183 C   0  0  0  0  0  0  0  0  0  0  0  0
   20.3037   -8.8101  -13.2439 C   0  0  1  0  0  0  0  0  0  0  0  0
   19.9160   -7.9024  -12.1063 C   0  0  0  0  0  0  0  0  0  0  0  0
   20.0994   -8.1793  -14.5882 C   0  0  2  0  0  0  0  0  0  0  0  0
   20.3929   -9.0622  -15.6828 N   0  0  0  0  0  0  0  0  0  0  0  0
   21.0044   -7.0072  -14.6852 C   0  0  0  0  0  0  0  0  0  0  0  0
   22.1207   -7.0940  -15.2971 O   0  0  0  0  0  0  0  0  0  0  0  0
   20.6756   -5.7851  -14.1206 O   0  0  0  0  0  0  0  0  0  0  0  0
  2  1  1  6
  2  4  1  0
  3  2  1  0
  4  5  1  1
  6 10  1  0
  6  4  1  0
  7  6  2  0
  9  8  1  6
  9 11  1  0
  9 10  1  0
 11 17  1  0
 12 11  2  0
 14 13  1  1
 14 16  1  0
 15 14  1  0
 16 18  1  0
 16 17  1  6
 18 19  2  0
 18 20  1  0
M  END
$$$$
