EAD.pdb
     RDKit          3D

 23 22  0  0  1  0  0  0  0  0999 V2000
    9.6470  -15.6735   15.2592 N   0  0  0  0  0  0  0  0  0  0  0  0
    8.5190  -15.5798   16.0974 C   0  0  1  0  0  0  0  0  0  0  0  0
    7.8104  -16.8352   16.4713 C   0  0  0  0  0  0  0  0  0  0  0  0
    8.6994  -17.8817   17.0235 C   0  0  0  0  0  0  0  0  0  0  0  0
    8.0498  -19.1763   17.2208 C   0  0  0  0  0  0  0  0  0  0  0  0
    7.2362  -19.5745   16.2972 O   0  0  0  0  0  0  0  0  0  0  0  0
    8.8080  -14.8570   17.4039 C   0  0  0  0  0  0  0  0  0  0  0  0
    9.9471  -15.1610   17.8625 O   0  0  0  0  0  0  0  0  0  0  0  0
    8.2000  -20.0154   18.2687 O   0  0  0  0  0  0  0  0  0  0  0  0
    7.0326  -12.5792   19.8623 C   0  0  0  0  0  0  0  0  0  0  0  0
    8.1996  -13.3039   19.2678 C   0  0  2  0  0  0  0  0  0  0  0  0
    7.9553  -13.9699   18.0387 N   0  0  0  0  0  0  0  0  0  0  0  0
    8.8834  -14.0872   20.3258 C   0  0  0  0  0  0  0  0  0  0  0  0
    9.2648  -13.5777   21.3903 O   0  0  0  0  0  0  0  0  0  0  0  0
    9.1499  -15.4854   20.1839 N   0  0  0  0  0  0  0  0  0  0  0  0
    9.6814  -16.2574   21.3288 C   0  0  1  0  0  0  0  0  0  0  0  0
    9.4059  -17.7213   21.1311 C   0  0  0  0  0  0  0  0  0  0  0  0
   10.0023  -18.5903   22.1501 C   0  0  0  0  0  0  0  0  0  0  0  0
   10.5821  -18.1062   23.1682 O   0  0  0  0  0  0  0  0  0  0  0  0
   11.1230  -15.9366   21.4359 C   0  0  0  0  0  0  0  0  0  0  0  0
   11.6847  -15.7148   22.6827 O   0  0  0  0  0  0  0  0  0  0  0  0
    9.9633  -19.9553   22.0472 O   0  0  0  0  0  0  0  0  0  0  0  0
   11.8702  -15.8549   20.4500 O   0  0  0  0  0  0  0  0  0  0  0  0
  2  3  1  0
  2  1  1  1
  3  4  1  0
  4  5  1  0
  5  6  2  0
  5  9  1  0
  7  8  2  0
  7  2  1  0
 11 10  1  1
 11 13  1  0
 11 12  1  0
 12  7  1  0
 13 15  1  0
 14 13  2  0
 15 16  1  0
 16 17  1  6
 17 18  1  0
 18 19  2  0
 18 22  1  0
 20 16  1  0
 21 20  1  0
 23 20  2  0
M  END
$$$$
