EAD.pdb
     RDKit          3D

 23 22  0  0  1  0  0  0  0  0999 V2000
    8.5862  -14.6727   13.9228 N   0  0  0  0  0  0  0  0  0  0  0  0
    8.0777  -15.2923   15.0809 C   0  0  1  0  0  0  0  0  0  0  0  0
    8.0953  -16.7798   15.1519 C   0  0  0  0  0  0  0  0  0  0  0  0
    9.1134  -17.4080   14.2806 C   0  0  0  0  0  0  0  0  0  0  0  0
    9.1715  -18.8650   14.3818 C   0  0  0  0  0  0  0  0  0  0  0  0
    9.6931  -19.3610   15.4568 O   0  0  0  0  0  0  0  0  0  0  0  0
    8.7447  -14.8042   16.3575 C   0  0  0  0  0  0  0  0  0  0  0  0
   10.0023  -14.9298   16.3036 O   0  0  0  0  0  0  0  0  0  0  0  0
    8.7407  -19.7659   13.4720 O   0  0  0  0  0  0  0  0  0  0  0  0
    7.7731  -13.1889   19.6542 C   0  0  0  0  0  0  0  0  0  0  0  0
    8.6959  -13.8081   18.6514 C   0  0  2  0  0  0  0  0  0  0  0  0
    8.0890  -14.2806   17.4588 N   0  0  0  0  0  0  0  0  0  0  0  0
    9.6206  -14.7394   19.3428 C   0  0  0  0  0  0  0  0  0  0  0  0
    9.4768  -15.9708   19.3053 O   0  0  0  0  0  0  0  0  0  0  0  0
   10.7402  -14.2746   20.1022 N   0  0  0  0  0  0  0  0  0  0  0  0
   11.5818  -15.2384   20.8453 C   0  0  1  0  0  0  0  0  0  0  0  0
   12.8997  -14.6054   21.1926 C   0  0  0  0  0  0  0  0  0  0  0  0
   13.8303  -15.4956   21.8932 C   0  0  0  0  0  0  0  0  0  0  0  0
   13.4432  -16.2240   22.8557 O   0  0  0  0  0  0  0  0  0  0  0  0
   10.8037  -15.6706   22.0287 C   0  0  0  0  0  0  0  0  0  0  0  0
   11.0749  -16.8952   22.6168 O   0  0  0  0  0  0  0  0  0  0  0  0
   15.1519  -15.5774   21.5440 O   0  0  0  0  0  0  0  0  0  0  0  0
    9.9048  -14.9815   22.5326 O   0  0  0  0  0  0  0  0  0  0  0  0
  2  3  1  0
  2  1  1  6
  3  4  1  0
  4  5  1  0
  5  6  2  0
  5  9  1  0
  7  8  2  0
  7  2  1  0
 11 10  1  1
 11 13  1  0
 11 12  1  0
 12  7  1  0
 13 15  1  0
 14 13  2  0
 15 16  1  0
 16 17  1  1
 17 18  1  0
 18 19  2  0
 18 22  1  0
 20 16  1  0
 21 20  1  0
 23 20  2  0
M  END
$$$$
