EAD.pdb
     RDKit          3D

 23 22  0  0  1  0  0  0  0  0999 V2000
    8.8034  -16.5209   18.2718 N   0  0  0  0  0  0  0  0  0  0  0  0
    8.4524  -17.0804   19.5157 C   0  0  1  0  0  0  0  0  0  0  0  0
    8.4642  -18.5635   19.6519 C   0  0  0  0  0  0  0  0  0  0  0  0
    8.6771  -19.2795   18.3742 C   0  0  0  0  0  0  0  0  0  0  0  0
    8.0326  -20.5898   18.3075 C   0  0  0  0  0  0  0  0  0  0  0  0
    7.1985  -20.7879   17.3387 O   0  0  0  0  0  0  0  0  0  0  0  0
    9.2934  -16.5476   20.6654 C   0  0  0  0  0  0  0  0  0  0  0  0
   10.5254  -16.7700   20.4837 O   0  0  0  0  0  0  0  0  0  0  0  0
    8.2067  -21.6307   19.1508 O   0  0  0  0  0  0  0  0  0  0  0  0
    8.8073  -14.7436   23.9723 C   0  0  0  0  0  0  0  0  0  0  0  0
    9.5567  -15.5047   22.9236 C   0  0  2  0  0  0  0  0  0  0  0  0
    8.8054  -15.8947   21.7845 N   0  0  0  0  0  0  0  0  0  0  0  0
   10.3788  -16.5558   23.5715 C   0  0  0  0  0  0  0  0  0  0  0  0
    9.9796  -17.7217   23.7114 O   0  0  0  0  0  0  0  0  0  0  0  0
   11.6889  -16.2898   24.0807 N   0  0  0  0  0  0  0  0  0  0  0  0
   12.4303  -17.3464   24.8041 C   0  0  1  0  0  0  0  0  0  0  0  0
   13.9091  -17.1101   24.6803 C   0  0  0  0  0  0  0  0  0  0  0  0
   14.3850  -16.9761   23.3001 C   0  0  0  0  0  0  0  0  0  0  0  0
   14.1782  -17.8869   22.4430 O   0  0  0  0  0  0  0  0  0  0  0  0
   11.9452  -17.3358   26.2030 C   0  0  0  0  0  0  0  0  0  0  0  0
   12.3883  -18.3043   27.0891 O   0  0  0  0  0  0  0  0  0  0  0  0
   15.0730  -15.8699   22.8781 O   0  0  0  0  0  0  0  0  0  0  0  0
   11.1483  -16.4894   26.6336 O   0  0  0  0  0  0  0  0  0  0  0  0
  2  3  1  0
  2  1  1  6
  3  4  1  0
  4  5  1  0
  5  6  2  0
  5  9  1  0
  7  8  2  0
  7  2  1  0
 11 10  1  1
 11 13  1  0
 11 12  1  0
 12  7  1  0
 13 15  1  0
 14 13  2  0
 15 16  1  0
 16 17  1  1
 17 18  1  0
 18 19  2  0
 18 22  1  0
 20 16  1  0
 21 20  1  0
 23 20  2  0
M  END
$$$$
