EAD.pdb
     RDKit          3D

 23 22  0  0  1  0  0  0  0  0999 V2000
    8.3434  -15.1115   20.8465 N   0  0  0  0  0  0  0  0  0  0  0  0
    7.3115  -14.9528   21.7918 C   0  0  1  0  0  0  0  0  0  0  0  0
    6.4348  -16.1209   22.0834 C   0  0  0  0  0  0  0  0  0  0  0  0
    7.1341  -17.4237   22.0204 C   0  0  0  0  0  0  0  0  0  0  0  0
    6.2642  -18.5807   22.2237 C   0  0  0  0  0  0  0  0  0  0  0  0
    5.0091  -18.4302   21.9485 O   0  0  0  0  0  0  0  0  0  0  0  0
    7.8117  -14.4577   23.1400 C   0  0  0  0  0  0  0  0  0  0  0  0
    8.9368  -14.9569   23.4315 O   0  0  0  0  0  0  0  0  0  0  0  0
    6.6214  -19.8037   22.6727 O   0  0  0  0  0  0  0  0  0  0  0  0
    6.5929  -12.2878   26.0085 C   0  0  0  0  0  0  0  0  0  0  0  0
    7.5394  -13.1885   25.2781 C   0  0  2  0  0  0  0  0  0  0  0  0
    7.1462  -13.5708   23.9691 N   0  0  0  0  0  0  0  0  0  0  0  0
    7.9831  -14.2754   26.1848 C   0  0  0  0  0  0  0  0  0  0  0  0
    7.2927  -15.2817   26.4058 O   0  0  0  0  0  0  0  0  0  0  0  0
    9.2397  -14.2306   26.8668 N   0  0  0  0  0  0  0  0  0  0  0  0
    9.6548  -15.3597   27.7282 C   0  0  1  0  0  0  0  0  0  0  0  0
   10.8181  -16.0782   27.1048 C   0  0  0  0  0  0  0  0  0  0  0  0
   11.3887  -17.1399   27.9394 C   0  0  0  0  0  0  0  0  0  0  0  0
   10.8079  -17.5269   28.9976 O   0  0  0  0  0  0  0  0  0  0  0  0
    9.9549  -14.7977   29.0648 C   0  0  0  0  0  0  0  0  0  0  0  0
   10.3439  -15.6424   30.0916 O   0  0  0  0  0  0  0  0  0  0  0  0
   12.5689  -17.7553   27.6175 O   0  0  0  0  0  0  0  0  0  0  0  0
    9.8761  -13.5870   29.3199 O   0  0  0  0  0  0  0  0  0  0  0  0
  2  3  1  0
  2  1  1  6
  3  4  1  0
  4  5  1  0
  5  6  2  0
  5  9  1  0
  7  8  2  0
  7  2  1  0
 11 10  1  1
 11 13  1  0
 11 12  1  0
 12  7  1  0
 13 15  1  0
 14 13  2  0
 15 16  1  0
 16 17  1  6
 17 18  1  0
 18 19  2  0
 18 22  1  0
 20 16  1  0
 21 20  1  0
 23 20  2  0
M  END
$$$$
