EAD.pdb
     RDKit          3D

 23 22  0  0  1  0  0  0  0  0999 V2000
    8.4298  -13.0026   18.3901 N   0  0  0  0  0  0  0  0  0  0  0  0
    7.5669  -13.7248   19.2371 C   0  0  1  0  0  0  0  0  0  0  0  0
    7.0730  -15.0523   18.7767 C   0  0  0  0  0  0  0  0  0  0  0  0
    8.1303  -15.9207   18.2124 C   0  0  0  0  0  0  0  0  0  0  0  0
    7.6483  -17.2123   17.7263 C   0  0  0  0  0  0  0  0  0  0  0  0
    7.7535  -18.2210   18.5295 O   0  0  0  0  0  0  0  0  0  0  0  0
    8.1486  -13.9524   20.6237 C   0  0  0  0  0  0  0  0  0  0  0  0
    9.3797  -14.2386   20.5714 O   0  0  0  0  0  0  0  0  0  0  0  0
    7.1006  -17.4798   16.5207 O   0  0  0  0  0  0  0  0  0  0  0  0
    7.0875  -13.6433   24.2505 C   0  0  0  0  0  0  0  0  0  0  0  0
    7.9820  -14.0405   23.1179 C   0  0  2  0  0  0  0  0  0  0  0  0
    7.4484  -13.8639   21.8148 N   0  0  0  0  0  0  0  0  0  0  0  0
    8.5952  -15.3584   23.4140 C   0  0  0  0  0  0  0  0  0  0  0  0
    8.0745  -16.4286   23.0649 O   0  0  0  0  0  0  0  0  0  0  0  0
    9.8298  -15.4794   24.1262 N   0  0  0  0  0  0  0  0  0  0  0  0
   10.3408  -16.8170   24.4993 C   0  0  1  0  0  0  0  0  0  0  0  0
   11.8370  -16.8494   24.3632 C   0  0  0  0  0  0  0  0  0  0  0  0
   12.3176  -16.8103   22.9788 C   0  0  0  0  0  0  0  0  0  0  0  0
   11.7105  -17.4311   22.0552 O   0  0  0  0  0  0  0  0  0  0  0  0
    9.8663  -17.0941   25.8743 C   0  0  0  0  0  0  0  0  0  0  0  0
    9.4949  -16.0422   26.6958 O   0  0  0  0  0  0  0  0  0  0  0  0
   13.4388  -16.1090   22.6236 O   0  0  0  0  0  0  0  0  0  0  0  0
    9.7808  -18.2400   26.3395 O   0  0  0  0  0  0  0  0  0  0  0  0
  2  3  1  0
  2  1  1  6
  3  4  1  0
  4  5  1  0
  5  6  2  0
  5  9  1  0
  7  8  2  0
  7  2  1  0
 11 10  1  1
 11 13  1  0
 11 12  1  0
 12  7  1  0
 13 15  1  0
 14 13  2  0
 15 16  1  0
 16 17  1  1
 17 18  1  0
 18 19  2  0
 18 22  1  0
 20 16  1  0
 21 20  1  0
 23 20  2  0
M  END
$$$$
