EAD.pdb
     RDKit          3D

 23 22  0  0  1  0  0  0  0  0999 V2000
    9.0865  -17.4267   20.4302 N   0  0  0  0  0  0  0  0  0  0  0  0
   10.3096  -17.6248   21.1000 C   0  0  1  0  0  0  0  0  0  0  0  0
   11.5715  -17.4926   20.3201 C   0  0  0  0  0  0  0  0  0  0  0  0
   11.4619  -17.9630   18.9211 C   0  0  0  0  0  0  0  0  0  0  0  0
   12.6751  -17.7723   18.1284 C   0  0  0  0  0  0  0  0  0  0  0  0
   12.9847  -16.5580   17.8073 O   0  0  0  0  0  0  0  0  0  0  0  0
   10.4731  -16.7269   22.3165 C   0  0  0  0  0  0  0  0  0  0  0  0
   11.6916  -16.5629   22.6141 O   0  0  0  0  0  0  0  0  0  0  0  0
   13.5206  -18.7278   17.6845 O   0  0  0  0  0  0  0  0  0  0  0  0
    8.4242  -14.4522   24.5199 C   0  0  0  0  0  0  0  0  0  0  0  0
    9.5706  -15.3630   24.2090 C   0  0  2  0  0  0  0  0  0  0  0  0
    9.4405  -16.1439   23.0312 N   0  0  0  0  0  0  0  0  0  0  0  0
    9.9781  -16.0798   25.4422 C   0  0  0  0  0  0  0  0  0  0  0  0
    9.4260  -17.1248   25.8183 O   0  0  0  0  0  0  0  0  0  0  0  0
   11.0364  -15.6079   26.2809 N   0  0  0  0  0  0  0  0  0  0  0  0
   11.4568  -16.3998   27.4580 C   0  0  1  0  0  0  0  0  0  0  0  0
   12.9485  -16.3210   27.6215 C   0  0  0  0  0  0  0  0  0  0  0  0
   13.6737  -17.4885   27.1113 C   0  0  0  0  0  0  0  0  0  0  0  0
   13.0575  -18.4780   26.6132 O   0  0  0  0  0  0  0  0  0  0  0  0
   10.7062  -15.8772   28.6224 C   0  0  0  0  0  0  0  0  0  0  0  0
   10.6130  -16.6394   29.7755 O   0  0  0  0  0  0  0  0  0  0  0  0
   15.0404  -17.5640   27.1527 O   0  0  0  0  0  0  0  0  0  0  0  0
   10.1458  -14.7714   28.6218 O   0  0  0  0  0  0  0  0  0  0  0  0
  2  3  1  0
  2  1  1  6
  3  4  1  0
  4  5  1  0
  5  6  2  0
  5  9  1  0
  7  8  2  0
  7  2  1  0
 11 10  1  1
 11 13  1  0
 11 12  1  0
 12  7  1  0
 13 15  1  0
 14 13  2  0
 15 16  1  0
 16 17  1  1
 17 18  1  0
 18 19  2  0
 18 22  1  0
 20 16  1  0
 21 20  1  0
 23 20  2  0
M  END
$$$$
