EAD.pdb
     RDKit          3D

 23 22  0  0  1  0  0  0  0  0999 V2000
    8.5505  -16.3774   17.4078 N   0  0  0  0  0  0  0  0  0  0  0  0
    7.7363  -16.4798   18.5525 C   0  0  1  0  0  0  0  0  0  0  0  0
    7.1420  -17.8054   18.8804 C   0  0  0  0  0  0  0  0  0  0  0  0
    8.1284  -18.9079   18.9268 C   0  0  0  0  0  0  0  0  0  0  0  0
    7.5355  -20.2362   19.0709 C   0  0  0  0  0  0  0  0  0  0  0  0
    6.2556  -20.3313   18.9087 O   0  0  0  0  0  0  0  0  0  0  0  0
    8.4311  -16.0072   19.8200 C   0  0  0  0  0  0  0  0  0  0  0  0
    9.6662  -16.2803   19.8039 O   0  0  0  0  0  0  0  0  0  0  0  0
    8.1755  -21.3905   19.3591 O   0  0  0  0  0  0  0  0  0  0  0  0
    7.5513  -14.3100   23.1017 C   0  0  0  0  0  0  0  0  0  0  0  0
    8.4524  -14.9084   22.0670 C   0  0  2  0  0  0  0  0  0  0  0  0
    7.8200  -15.3553   20.8776 N   0  0  0  0  0  0  0  0  0  0  0  0
    9.3904  -15.8547   22.7190 C   0  0  0  0  0  0  0  0  0  0  0  0
    9.1904  -17.0784   22.7457 O   0  0  0  0  0  0  0  0  0  0  0  0
   10.5889  -15.4139   23.3636 N   0  0  0  0  0  0  0  0  0  0  0  0
   11.5382  -16.4042   23.9179 C   0  0  1  0  0  0  0  0  0  0  0  0
   12.9498  -15.9358   23.7033 C   0  0  0  0  0  0  0  0  0  0  0  0
   13.9745  -16.8816   24.1558 C   0  0  0  0  0  0  0  0  0  0  0  0
   13.8789  -18.1212   23.9085 O   0  0  0  0  0  0  0  0  0  0  0  0
   11.1875  -16.5894   25.3445 C   0  0  0  0  0  0  0  0  0  0  0  0
   10.1375  -15.8695   25.8908 O   0  0  0  0  0  0  0  0  0  0  0  0
   15.0724  -16.4719   24.8644 O   0  0  0  0  0  0  0  0  0  0  0  0
   11.7945  -17.3705   26.0918 O   0  0  0  0  0  0  0  0  0  0  0  0
  2  3  1  0
  2  1  1  6
  3  4  1  0
  4  5  1  0
  5  6  2  0
  5  9  1  0
  7  8  2  0
  7  2  1  0
 11 10  1  1
 11 13  1  0
 11 12  1  0
 12  7  1  0
 13 15  1  0
 14 13  2  0
 15 16  1  0
 16 17  1  1
 17 18  1  0
 18 19  2  0
 18 22  1  0
 20 16  1  0
 21 20  1  0
 23 20  2  0
M  END
$$$$
