EAD.pdb
     RDKit          3D

 23 22  0  0  1  0  0  0  0  0999 V2000
   10.7560  -16.8747   17.8119 N   0  0  0  0  0  0  0  0  0  0  0  0
   11.3957  -15.6618   17.4901 C   0  0  1  0  0  0  0  0  0  0  0  0
   11.5745  -15.3174   16.0522 C   0  0  0  0  0  0  0  0  0  0  0  0
   10.4015  -15.6406   15.2096 C   0  0  0  0  0  0  0  0  0  0  0  0
   10.6182  -15.4378   13.7783 C   0  0  0  0  0  0  0  0  0  0  0  0
   11.7835  -15.0104   13.4132 O   0  0  0  0  0  0  0  0  0  0  0  0
   10.7332  -14.4523   18.1312 C   0  0  0  0  0  0  0  0  0  0  0  0
   11.5531  -13.5025   18.2919 O   0  0  0  0  0  0  0  0  0  0  0  0
    9.7325  -15.6450   12.7796 O   0  0  0  0  0  0  0  0  0  0  0  0
    7.3910  -13.3640   19.5333 C   0  0  0  0  0  0  0  0  0  0  0  0
    8.8734  -13.5709   19.5527 C   0  0  2  0  0  0  0  0  0  0  0  0
    9.4024  -14.3664   18.5032 N   0  0  0  0  0  0  0  0  0  0  0  0
    9.3046  -13.9127   20.9302 C   0  0  0  0  0  0  0  0  0  0  0  0
    8.7229  -13.4804   21.9367 O   0  0  0  0  0  0  0  0  0  0  0  0
   10.4250  -14.7643   21.1866 N   0  0  0  0  0  0  0  0  0  0  0  0
   10.4757  -15.5667   22.4287 C   0  0  1  0  0  0  0  0  0  0  0  0
    9.7389  -16.8615   22.2320 C   0  0  0  0  0  0  0  0  0  0  0  0
    9.7494  -17.7452   23.4017 C   0  0  0  0  0  0  0  0  0  0  0  0
    9.6002  -18.9981   23.2794 O   0  0  0  0  0  0  0  0  0  0  0  0
   11.9052  -15.7463   22.7705 C   0  0  0  0  0  0  0  0  0  0  0  0
   12.8804  -15.3239   21.8818 O   0  0  0  0  0  0  0  0  0  0  0  0
    9.9163  -17.2600   24.6713 O   0  0  0  0  0  0  0  0  0  0  0  0
   12.2846  -16.2640   23.8311 O   0  0  0  0  0  0  0  0  0  0  0  0
  2  3  1  0
  2  1  1  6
  3  4  1  0
  4  5  1  0
  5  6  2  0
  5  9  1  0
  7  8  2  0
  7  2  1  0
 11 10  1  1
 11 13  1  0
 11 12  1  0
 12  7  1  0
 13 15  1  0
 14 13  2  0
 15 16  1  0
 16 17  1  6
 17 18  1  0
 18 19  2  0
 18 22  1  0
 20 16  1  0
 21 20  1  0
 23 20  2  0
M  END
$$$$
