EAD.pdb
     RDKit          3D

 23 22  0  0  1  0  0  0  0  0999 V2000
    6.4242  -17.2972   16.8214 N   0  0  0  0  0  0  0  0  0  0  0  0
    7.8149  -17.4292   17.0013 C   0  0  1  0  0  0  0  0  0  0  0  0
    8.7041  -17.1945   15.8299 C   0  0  0  0  0  0  0  0  0  0  0  0
    8.0041  -17.2506   14.5271 C   0  0  0  0  0  0  0  0  0  0  0  0
    8.8575  -16.9626   13.3758 C   0  0  0  0  0  0  0  0  0  0  0  0
    9.7735  -17.8301   13.0893 O   0  0  0  0  0  0  0  0  0  0  0  0
    8.3552  -16.5518   18.1197 C   0  0  0  0  0  0  0  0  0  0  0  0
    9.5836  -16.7687   18.3301 O   0  0  0  0  0  0  0  0  0  0  0  0
    8.8023  -15.8821   12.5669 O   0  0  0  0  0  0  0  0  0  0  0  0
    7.1520  -13.8093   20.4521 C   0  0  0  0  0  0  0  0  0  0  0  0
    8.0821  -14.8695   19.9505 C   0  0  2  0  0  0  0  0  0  0  0  0
    7.6236  -15.6208   18.8373 N   0  0  0  0  0  0  0  0  0  0  0  0
    8.6158  -15.6400   21.1003 C   0  0  0  0  0  0  0  0  0  0  0  0
    8.0739  -16.6746   21.5177 O   0  0  0  0  0  0  0  0  0  0  0  0
    9.7929  -15.2357   21.8054 N   0  0  0  0  0  0  0  0  0  0  0  0
   10.3425  -16.0916   22.8800 C   0  0  1  0  0  0  0  0  0  0  0  0
   11.8443  -16.0744   22.8303 C   0  0  0  0  0  0  0  0  0  0  0  0
   12.4921  -16.8264   23.9092 C   0  0  0  0  0  0  0  0  0  0  0  0
   12.1018  -17.9907   24.2242 O   0  0  0  0  0  0  0  0  0  0  0  0
    9.7877  -15.5916   24.1586 C   0  0  0  0  0  0  0  0  0  0  0  0
    9.1969  -14.3394   24.2059 O   0  0  0  0  0  0  0  0  0  0  0  0
   13.5389  -16.3073   24.6232 O   0  0  0  0  0  0  0  0  0  0  0  0
    9.8232  -16.2466   25.2105 O   0  0  0  0  0  0  0  0  0  0  0  0
  2  3  1  0
  2  1  1  6
  3  4  1  0
  4  5  1  0
  5  6  2  0
  5  9  1  0
  7  8  2  0
  7  2  1  0
 11 10  1  1
 11 13  1  0
 11 12  1  0
 12  7  1  0
 13 15  1  0
 14 13  2  0
 15 16  1  0
 16 17  1  1
 17 18  1  0
 18 19  2  0
 18 22  1  0
 20 16  1  0
 21 20  1  0
 23 20  2  0
M  END
$$$$
