EAD.pdb
     RDKit          3D

 23 22  0  0  1  0  0  0  0  0999 V2000
   10.0993  -16.3638   17.2362 N   0  0  0  0  0  0  0  0  0  0  0  0
    9.7010  -17.1037   18.3665 C   0  0  1  0  0  0  0  0  0  0  0  0
   10.0119  -18.5598   18.4032 C   0  0  0  0  0  0  0  0  0  0  0  0
    9.3904  -19.3317   17.3040 C   0  0  0  0  0  0  0  0  0  0  0  0
    9.4801  -20.7817   17.4652 C   0  0  0  0  0  0  0  0  0  0  0  0
   10.6510  -21.3175   17.3411 O   0  0  0  0  0  0  0  0  0  0  0  0
   10.2326  -16.5291   19.6704 C   0  0  0  0  0  0  0  0  0  0  0  0
   11.4951  -16.4498   19.6642 O   0  0  0  0  0  0  0  0  0  0  0  0
    8.4703  -21.6391   17.7302 O   0  0  0  0  0  0  0  0  0  0  0  0
    8.9185  -15.0390   22.8992 C   0  0  0  0  0  0  0  0  0  0  0  0
    9.9418  -15.6516   21.9946 C   0  0  2  0  0  0  0  0  0  0  0  0
    9.4606  -16.1306   20.7484 N   0  0  0  0  0  0  0  0  0  0  0  0
   10.8005  -16.5744   22.7766 C   0  0  0  0  0  0  0  0  0  0  0  0
   10.6147  -17.8005   22.7971 O   0  0  0  0  0  0  0  0  0  0  0  0
   11.9006  -16.1066   23.5622 N   0  0  0  0  0  0  0  0  0  0  0  0
   12.6496  -17.0493   24.4223 C   0  0  1  0  0  0  0  0  0  0  0  0
   14.0322  -16.5197   24.6791 C   0  0  0  0  0  0  0  0  0  0  0  0
   14.8716  -16.4191   23.4814 C   0  0  0  0  0  0  0  0  0  0  0  0
   15.4338  -15.3283   23.1633 O   0  0  0  0  0  0  0  0  0  0  0  0
   11.8512  -17.2394   25.6547 C   0  0  0  0  0  0  0  0  0  0  0  0
   12.2438  -18.1869   26.5860 O   0  0  0  0  0  0  0  0  0  0  0  0
   15.0823  -17.4909   22.6556 O   0  0  0  0  0  0  0  0  0  0  0  0
   10.8297  -16.5825   25.9039 O   0  0  0  0  0  0  0  0  0  0  0  0
  2  3  1  0
  2  1  1  6
  3  4  1  0
  4  5  1  0
  5  6  2  0
  5  9  1  0
  7  8  2  0
  7  2  1  0
 11 10  1  1
 11 13  1  0
 11 12  1  0
 12  7  1  0
 13 15  1  0
 14 13  2  0
 15 16  1  0
 16 17  1  1
 17 18  1  0
 18 19  2  0
 18 22  1  0
 20 16  1  0
 21 20  1  0
 23 20  2  0
M  END
$$$$
