EAD.pdb
     RDKit          3D

 23 22  0  0  1  0  0  0  0  0999 V2000
    9.3902  -15.6370   14.4466 N   0  0  0  0  0  0  0  0  0  0  0  0
    8.3018  -15.5768   15.3385 C   0  0  1  0  0  0  0  0  0  0  0  0
    7.5657  -16.8357   15.6409 C   0  0  0  0  0  0  0  0  0  0  0  0
    8.3882  -18.0579   15.4992 C   0  0  0  0  0  0  0  0  0  0  0  0
    8.7180  -18.7080   16.7662 C   0  0  0  0  0  0  0  0  0  0  0  0
    7.7375  -19.2124   17.4428 O   0  0  0  0  0  0  0  0  0  0  0  0
    8.6697  -14.9731   16.6850 C   0  0  0  0  0  0  0  0  0  0  0  0
    9.8792  -15.1962   16.9809 O   0  0  0  0  0  0  0  0  0  0  0  0
    9.9420  -18.8439   17.3214 O   0  0  0  0  0  0  0  0  0  0  0  0
    7.0466  -12.9191   19.4376 C   0  0  0  0  0  0  0  0  0  0  0  0
    8.1480  -13.6671   18.7535 C   0  0  2  0  0  0  0  0  0  0  0  0
    7.8143  -14.2611   17.5086 N   0  0  0  0  0  0  0  0  0  0  0  0
    8.8424  -14.5311   19.7394 C   0  0  0  0  0  0  0  0  0  0  0  0
    9.2667  -14.0986   20.8216 O   0  0  0  0  0  0  0  0  0  0  0  0
    9.0701  -15.9233   19.5024 N   0  0  0  0  0  0  0  0  0  0  0  0
    9.7157  -16.7550   20.5420 C   0  0  1  0  0  0  0  0  0  0  0  0
    9.2252  -18.1718   20.4415 C   0  0  0  0  0  0  0  0  0  0  0  0
    9.7934  -19.0792   21.4430 C   0  0  0  0  0  0  0  0  0  0  0  0
   10.3664  -20.1574   21.1022 O   0  0  0  0  0  0  0  0  0  0  0  0
   11.1787  -16.6216   20.3569 C   0  0  0  0  0  0  0  0  0  0  0  0
   12.0212  -16.7399   21.4503 O   0  0  0  0  0  0  0  0  0  0  0  0
    9.7282  -18.8067   22.7834 O   0  0  0  0  0  0  0  0  0  0  0  0
   11.7015  -16.4061   19.2537 O   0  0  0  0  0  0  0  0  0  0  0  0
  2  3  1  0
  2  1  1  6
  3  4  1  0
  4  5  1  0
  5  6  2  0
  5  9  1  0
  7  8  2  0
  7  2  1  0
 11 10  1  1
 11 13  1  0
 11 12  1  0
 12  7  1  0
 13 15  1  0
 14 13  2  0
 15 16  1  0
 16 17  1  6
 17 18  1  0
 18 19  2  0
 18 22  1  0
 20 16  1  0
 21 20  1  0
 23 20  2  0
M  END
$$$$
