EAD.pdb
     RDKit          3D

 23 22  0  0  1  0  0  0  0  0999 V2000
    8.6335  -14.0457   15.9819 N   0  0  0  0  0  0  0  0  0  0  0  0
    7.7456  -14.4550   16.9957 C   0  0  1  0  0  0  0  0  0  0  0  0
    7.1792  -15.8307   16.9257 C   0  0  0  0  0  0  0  0  0  0  0  0
    8.1885  -16.8799   16.6595 C   0  0  0  0  0  0  0  0  0  0  0  0
    7.7360  -17.9284   15.7471 C   0  0  0  0  0  0  0  0  0  0  0  0
    6.9050  -18.8012   16.2177 O   0  0  0  0  0  0  0  0  0  0  0  0
    8.3322  -14.3142   18.3918 C   0  0  0  0  0  0  0  0  0  0  0  0
    9.5404  -14.6869   18.4293 O   0  0  0  0  0  0  0  0  0  0  0  0
    8.0898  -18.0962   14.4542 O   0  0  0  0  0  0  0  0  0  0  0  0
    7.2598  -13.1378   21.8407 C   0  0  0  0  0  0  0  0  0  0  0  0
    8.1814  -13.7258   20.8182 C   0  0  2  0  0  0  0  0  0  0  0  0
    7.6579  -13.8397   19.5040 N   0  0  0  0  0  0  0  0  0  0  0  0
    8.8362  -14.9318   21.3815 C   0  0  0  0  0  0  0  0  0  0  0  0
    8.4043  -16.0776   21.1844 O   0  0  0  0  0  0  0  0  0  0  0  0
   10.0109  -14.8495   22.1936 N   0  0  0  0  0  0  0  0  0  0  0  0
   10.5684  -16.0713   22.8145 C   0  0  1  0  0  0  0  0  0  0  0  0
   12.0635  -15.9578   22.9150 C   0  0  0  0  0  0  0  0  0  0  0  0
   12.7517  -17.2333   23.1358 C   0  0  0  0  0  0  0  0  0  0  0  0
   12.1049  -18.3180   23.2451 O   0  0  0  0  0  0  0  0  0  0  0  0
    9.8989  -16.2357   24.1249 C   0  0  0  0  0  0  0  0  0  0  0  0
    9.1240  -15.2054   24.6323 O   0  0  0  0  0  0  0  0  0  0  0  0
   14.1152  -17.3097   23.2368 O   0  0  0  0  0  0  0  0  0  0  0  0
    9.9953  -17.2668   24.8063 O   0  0  0  0  0  0  0  0  0  0  0  0
  2  3  1  0
  2  1  1  6
  3  4  1  0
  4  5  1  0
  5  6  2  0
  5  9  1  0
  7  8  2  0
  7  2  1  0
 11 10  1  1
 11 13  1  0
 11 12  1  0
 12  7  1  0
 13 15  1  0
 14 13  2  0
 15 16  1  0
 16 17  1  1
 17 18  1  0
 18 19  2  0
 18 22  1  0
 20 16  1  0
 21 20  1  0
 23 20  2  0
M  END
$$$$
