SYM.pdb
     RDKit          3D

 27 27  0  0  1  0  0  0  0  0999 V2000
    9.7489  -19.7248   21.1789 O   0  0  0  0  0  0  0  0  0  0  0  0
   10.2781  -19.2806   19.9685 C   0  0  0  0  0  0  0  0  0  0  0  0
    9.5838  -17.9857   19.5252 C   0  0  2  0  0  0  0  0  0  0  0  0
   10.1882  -17.5773   18.3024 N   0  0  0  0  0  0  0  0  0  0  0  0
    9.7560  -16.9612   20.6116 C   0  0  0  0  0  0  0  0  0  0  0  0
   10.8227  -16.2991   20.6808 O   0  0  0  0  0  0  0  0  0  0  0  0
    6.6927  -12.0359   27.5432 O   0  0  0  0  0  0  0  0  0  0  0  0
    6.8745  -12.8948   26.4687 C   0  0  0  0  0  0  0  0  0  0  0  0
    6.4562  -14.2051   26.4990 C   0  0  0  0  0  0  0  0  0  0  0  0
    6.6400  -15.0528   25.4280 C   0  0  0  0  0  0  0  0  0  0  0  0
    7.2641  -14.6190   24.2530 C   0  0  0  0  0  0  0  0  0  0  0  0
    7.4624  -15.5711   23.1579 C   0  0  0  0  0  0  0  0  0  0  0  0
    8.8145  -15.6454   22.5504 C   0  0  2  0  0  0  0  0  0  0  0  0
    8.7371  -16.7359   21.5508 N   0  0  0  0  0  0  0  0  0  0  0  0
    9.8778  -15.9966   23.5073 C   0  0  0  0  0  0  0  0  0  0  0  0
   10.9920  -15.3659   23.3703 O   0  0  0  0  0  0  0  0  0  0  0  0
    7.6724  -13.3050   24.2492 C   0  0  0  0  0  0  0  0  0  0  0  0
    7.4896  -12.4549   25.3196 C   0  0  0  0  0  0  0  0  0  0  0  0
    9.3236  -13.6573   29.7590 C   0  0  0  0  0  0  0  0  0  0  0  0
   10.3586  -13.8401   28.3057 S   0  0  0  0  0  0  0  0  0  0  0  0
   10.1245  -15.4023   27.4687 C   0  0  0  0  0  0  0  0  0  0  0  0
   10.8690  -15.6023   26.2129 C   0  0  0  0  0  0  0  0  0  0  0  0
   10.8616  -16.9613   25.5607 C   0  0  2  0  0  0  0  0  0  0  0  0
    9.7837  -16.9409   24.5458 N   0  0  0  0  0  0  0  0  0  0  0  0
   10.6281  -18.0320   26.5224 C   0  0  0  0  0  0  0  0  0  0  0  0
   11.4720  -18.2847   27.4138 O   0  0  0  0  0  0  0  0  0  0  0  0
    9.4886  -18.8528   26.5519 O   0  0  0  0  0  0  0  0  0  0  0  0
  2  1  1  0
  3  2  1  0
  3  5  1  0
  3  4  1  6
  5  6  2  0
  8  7  1  0
  8 18  2  0
  9  8  1  0
 10  9  2  0
 10 11  1  0
 11 17  2  0
 13 12  1  1
 12 11  1  0
 14  5  1  0
 14 13  1  0
 15 24  1  0
 15 13  1  0
 16 15  2  0
 17 18  1  0
 20 21  1  0
 20 19  1  0
 21 22  1  0
 23 24  1  0
 23 22  1  1
 25 23  1  0
 26 25  2  0
 27 25  1  0
M  END
$$$$
