SYM.pdb
     RDKit          3D

 27 27  0  0  1  0  0  0  0  0999 V2000
    8.5787  -16.9160   21.3198 O   0  0  0  0  0  0  0  0  0  0  0  0
    9.4304  -16.5692   20.2724 C   0  0  0  0  0  0  0  0  0  0  0  0
   10.8116  -17.2074   20.4737 C   0  0  2  0  0  0  0  0  0  0  0  0
   10.8466  -18.3982   19.6938 N   0  0  0  0  0  0  0  0  0  0  0  0
   10.9947  -17.4852   21.9396 C   0  0  0  0  0  0  0  0  0  0  0  0
   10.8167  -18.6491   22.3807 O   0  0  0  0  0  0  0  0  0  0  0  0
   17.5469  -18.5314   22.6609 O   0  0  0  0  0  0  0  0  0  0  0  0
   16.4011  -17.9146   23.1425 C   0  0  0  0  0  0  0  0  0  0  0  0
   15.5855  -18.5105   24.0766 C   0  0  0  0  0  0  0  0  0  0  0  0
   14.4487  -17.8921   24.5507 C   0  0  0  0  0  0  0  0  0  0  0  0
   14.0680  -16.6224   24.1022 C   0  0  0  0  0  0  0  0  0  0  0  0
   12.8330  -16.0257   24.6158 C   0  0  0  0  0  0  0  0  0  0  0  0
   11.5536  -16.6948   24.2719 C   0  0  2  0  0  0  0  0  0  0  0  0
   11.3629  -16.4573   22.8222 N   0  0  0  0  0  0  0  0  0  0  0  0
   10.3835  -16.1350   24.9699 C   0  0  0  0  0  0  0  0  0  0  0  0
   10.3998  -16.2167   26.2548 O   0  0  0  0  0  0  0  0  0  0  0  0
   14.9008  -16.0492   23.1687 C   0  0  0  0  0  0  0  0  0  0  0  0
   16.0387  -16.6660   22.6928 C   0  0  0  0  0  0  0  0  0  0  0  0
    5.4704  -11.6546   27.7702 C   0  0  0  0  0  0  0  0  0  0  0  0
    6.8354  -12.5885   27.0765 S   0  0  0  0  0  0  0  0  0  0  0  0
    6.5647  -13.0701   25.3763 C   0  0  0  0  0  0  0  0  0  0  0  0
    7.6725  -13.7652   24.6973 C   0  0  0  0  0  0  0  0  0  0  0  0
    8.1644  -15.0797   25.2472 C   0  0  2  0  0  0  0  0  0  0  0  0
    9.2696  -15.5228   24.3671 N   0  0  0  0  0  0  0  0  0  0  0  0
    7.1131  -16.0893   25.2832 C   0  0  0  0  0  0  0  0  0  0  0  0
    6.9194  -16.8445   24.3020 O   0  0  0  0  0  0  0  0  0  0  0  0
    6.2492  -16.3131   26.3678 O   0  0  0  0  0  0  0  0  0  0  0  0
  2  1  1  0
  3  2  1  0
  3  5  1  0
  3  4  1  6
  5  6  2  0
  8  7  1  0
  8 18  2  0
  9  8  1  0
 10  9  2  0
 10 11  1  0
 11 17  2  0
 13 12  1  1
 12 11  1  0
 14  5  1  0
 14 13  1  0
 15 24  1  0
 15 13  1  0
 16 15  2  0
 17 18  1  0
 20 21  1  0
 20 19  1  0
 21 22  1  0
 23 24  1  0
 23 22  1  6
 25 23  1  0
 26 25  2  0
 27 25  1  0
M  END
$$$$
