SYM.pdb
     RDKit          3D

 27 27  0  0  1  0  0  0  0  0999 V2000
    7.8879  -16.2561   19.8394 O   0  0  0  0  0  0  0  0  0  0  0  0
    6.9093  -16.9740   19.1542 C   0  0  0  0  0  0  0  0  0  0  0  0
    6.8199  -18.4068   19.6969 C   0  0  2  0  0  0  0  0  0  0  0  0
    5.7648  -19.0600   18.9986 N   0  0  0  0  0  0  0  0  0  0  0  0
    6.5613  -18.3366   21.1760 C   0  0  0  0  0  0  0  0  0  0  0  0
    5.4244  -18.0008   21.5950 O   0  0  0  0  0  0  0  0  0  0  0  0
    8.3135  -20.3094   29.7645 O   0  0  0  0  0  0  0  0  0  0  0  0
    8.2839  -20.1522   28.3862 C   0  0  0  0  0  0  0  0  0  0  0  0
    7.1326  -20.3264   27.6533 C   0  0  0  0  0  0  0  0  0  0  0  0
    7.1102  -20.1687   26.2844 C   0  0  0  0  0  0  0  0  0  0  0  0
    8.2633  -19.8221   25.5711 C   0  0  0  0  0  0  0  0  0  0  0  0
    8.1898  -19.6991   24.1135 C   0  0  0  0  0  0  0  0  0  0  0  0
    7.3518  -18.6068   23.5590 C   0  0  2  0  0  0  0  0  0  0  0  0
    7.5773  -18.6425   22.0954 N   0  0  0  0  0  0  0  0  0  0  0  0
    7.7335  -17.2655   24.0332 C   0  0  0  0  0  0  0  0  0  0  0  0
    8.7559  -16.7331   23.4591 O   0  0  0  0  0  0  0  0  0  0  0  0
    9.4001  -19.6540   26.3278 C   0  0  0  0  0  0  0  0  0  0  0  0
    9.4250  -19.8113   27.6977 C   0  0  0  0  0  0  0  0  0  0  0  0
    5.7401  -10.5046   26.2009 C   0  0  0  0  0  0  0  0  0  0  0  0
    6.9597  -11.7422   25.7563 S   0  0  0  0  0  0  0  0  0  0  0  0
    6.9124  -13.1853   26.8104 C   0  0  0  0  0  0  0  0  0  0  0  0
    6.5814  -14.4688   26.1666 C   0  0  0  0  0  0  0  0  0  0  0  0
    7.6449  -15.1959   25.3837 C   0  0  2  0  0  0  0  0  0  0  0  0
    7.0867  -16.5230   25.0378 N   0  0  0  0  0  0  0  0  0  0  0  0
    8.8790  -15.3509   26.1443 C   0  0  0  0  0  0  0  0  0  0  0  0
    9.0528  -16.3485   26.8828 O   0  0  0  0  0  0  0  0  0  0  0  0
    9.9521  -14.4448   26.1302 O   0  0  0  0  0  0  0  0  0  0  0  0
  2  1  1  0
  3  2  1  0
  3  5  1  0
  3  4  1  6
  5  6  2  0
  8  7  1  0
  8 18  2  0
  9  8  1  0
 10  9  2  0
 10 11  1  0
 11 17  2  0
 13 12  1  1
 12 11  1  0
 14  5  1  0
 14 13  1  0
 15 24  1  0
 15 13  1  0
 16 15  2  0
 17 18  1  0
 20 21  1  0
 20 19  1  0
 21 22  1  0
 23 24  1  0
 23 22  1  1
 25 23  1  0
 26 25  2  0
 27 25  1  0
M  END
$$$$
