SYM.pdb
     RDKit          3D

 27 27  0  0  1  0  0  0  0  0999 V2000
    9.8429  -19.4226   20.2791 O   0  0  0  0  0  0  0  0  0  0  0  0
    8.7026  -18.8113   19.7608 C   0  0  0  0  0  0  0  0  0  0  0  0
    9.0175  -17.3725   19.3291 C   0  0  2  0  0  0  0  0  0  0  0  0
   10.1244  -17.4302   18.4354 N   0  0  0  0  0  0  0  0  0  0  0  0
    9.3252  -16.5664   20.5600 C   0  0  0  0  0  0  0  0  0  0  0  0
   10.5208  -16.3204   20.8615 O   0  0  0  0  0  0  0  0  0  0  0  0
    7.0204  -11.6960   27.7840 O   0  0  0  0  0  0  0  0  0  0  0  0
    7.0810  -12.3932   26.5859 C   0  0  0  0  0  0  0  0  0  0  0  0
    6.5101  -13.6355   26.4313 C   0  0  0  0  0  0  0  0  0  0  0  0
    6.5740  -14.3225   25.2383 C   0  0  0  0  0  0  0  0  0  0  0  0
    7.2259  -13.7867   24.1219 C   0  0  0  0  0  0  0  0  0  0  0  0
    7.2914  -14.5741   22.8887 C   0  0  0  0  0  0  0  0  0  0  0  0
    8.5565  -15.2954   22.6021 C   0  0  2  0  0  0  0  0  0  0  0  0
    8.2902  -16.0849   21.3773 N   0  0  0  0  0  0  0  0  0  0  0  0
    8.9551  -16.2399   23.6598 C   0  0  0  0  0  0  0  0  0  0  0  0
    8.3055  -17.3510   23.6991 O   0  0  0  0  0  0  0  0  0  0  0  0
    7.7877  -12.5439   24.3036 C   0  0  0  0  0  0  0  0  0  0  0  0
    7.7251  -11.8544   25.4964 C   0  0  0  0  0  0  0  0  0  0  0  0
   13.8061  -17.2185   21.5707 C   0  0  0  0  0  0  0  0  0  0  0  0
   13.4994  -16.9561   23.3182 S   0  0  0  0  0  0  0  0  0  0  0  0
   12.0908  -17.8718   23.9293 C   0  0  0  0  0  0  0  0  0  0  0  0
   11.6631  -17.5903   25.3110 C   0  0  0  0  0  0  0  0  0  0  0  0
   10.2473  -17.1399   25.5664 C   0  0  2  0  0  0  0  0  0  0  0  0
    9.9711  -16.0417   24.6124 N   0  0  0  0  0  0  0  0  0  0  0  0
   10.0552  -16.6780   26.9358 C   0  0  0  0  0  0  0  0  0  0  0  0
   10.3347  -17.4214   27.9054 O   0  0  0  0  0  0  0  0  0  0  0  0
    9.5623  -15.4133   27.2968 O   0  0  0  0  0  0  0  0  0  0  0  0
  2  1  1  0
  3  2  1  0
  3  5  1  0
  3  4  1  6
  5  6  2  0
  8  7  1  0
  8 18  2  0
  9  8  1  0
 10  9  2  0
 10 11  1  0
 11 17  2  0
 13 12  1  1
 12 11  1  0
 14  5  1  0
 14 13  1  0
 15 24  1  0
 15 13  1  0
 16 15  2  0
 17 18  1  0
 20 21  1  0
 20 19  1  0
 21 22  1  0
 23 24  1  0
 23 22  1  1
 25 23  1  0
 26 25  2  0
 27 25  1  0
M  END
$$$$
