SYM.pdb
     RDKit          3D

 27 27  0  0  1  0  0  0  0  0999 V2000
   10.4358  -15.4246   19.0258 O   0  0  0  0  0  0  0  0  0  0  0  0
    9.6755  -16.1395   18.1020 C   0  0  0  0  0  0  0  0  0  0  0  0
    9.6179  -17.6229   18.4918 C   0  0  2  0  0  0  0  0  0  0  0  0
    8.8797  -18.2993   17.4794 N   0  0  0  0  0  0  0  0  0  0  0  0
    8.9615  -17.7322   19.8396 C   0  0  0  0  0  0  0  0  0  0  0  0
    7.7076  -17.6987   19.9271 O   0  0  0  0  0  0  0  0  0  0  0  0
    7.8692  -24.3646   21.7990 O   0  0  0  0  0  0  0  0  0  0  0  0
    8.3570  -23.0986   22.0897 C   0  0  0  0  0  0  0  0  0  0  0  0
    7.7758  -22.2894   23.0385 C   0  0  0  0  0  0  0  0  0  0  0  0
    8.2656  -21.0328   23.3222 C   0  0  0  0  0  0  0  0  0  0  0  0
    9.3829  -20.5176   22.6554 C   0  0  0  0  0  0  0  0  0  0  0  0
    9.8414  -19.1636   22.9737 C   0  0  0  0  0  0  0  0  0  0  0  0
    9.1215  -18.0297   22.3421 C   0  0  2  0  0  0  0  0  0  0  0  0
    9.7349  -17.8715   21.0030 N   0  0  0  0  0  0  0  0  0  0  0  0
    9.2821  -16.7516   23.0565 C   0  0  0  0  0  0  0  0  0  0  0  0
   10.4658  -16.2450   23.0488 O   0  0  0  0  0  0  0  0  0  0  0  0
    9.9446  -21.3471   21.7121 C   0  0  0  0  0  0  0  0  0  0  0  0
    9.4563  -22.6048   21.4264 C   0  0  0  0  0  0  0  0  0  0  0  0
    6.0709  -10.4569   26.7535 C   0  0  0  0  0  0  0  0  0  0  0  0
    5.8847  -11.9715   25.8111 S   0  0  0  0  0  0  0  0  0  0  0  0
    7.4339  -12.8177   25.5284 C   0  0  0  0  0  0  0  0  0  0  0  0
    7.3832  -14.0432   24.7118 C   0  0  0  0  0  0  0  0  0  0  0  0
    8.6562  -14.8071   24.4502 C   0  0  2  0  0  0  0  0  0  0  0  0
    8.2712  -16.0428   23.7309 N   0  0  0  0  0  0  0  0  0  0  0  0
    9.3614  -15.1400   25.6820 C   0  0  0  0  0  0  0  0  0  0  0  0
   10.2400  -14.3735   26.1418 O   0  0  0  0  0  0  0  0  0  0  0  0
    9.1416  -16.2969   26.4477 O   0  0  0  0  0  0  0  0  0  0  0  0
  2  1  1  0
  3  2  1  0
  3  5  1  0
  3  4  1  6
  5  6  2  0
  8  7  1  0
  8 18  2  0
  9  8  1  0
 10  9  2  0
 10 11  1  0
 11 17  2  0
 13 12  1  1
 12 11  1  0
 14  5  1  0
 14 13  1  0
 15 24  1  0
 15 13  1  0
 16 15  2  0
 17 18  1  0
 20 21  1  0
 20 19  1  0
 21 22  1  0
 23 24  1  0
 23 22  1  1
 25 23  1  0
 26 25  2  0
 27 25  1  0
M  END
$$$$
