SYM.pdb
     RDKit          3D

 27 27  0  0  1  0  0  0  0  0999 V2000
    8.3245  -17.3681   17.6148 O   0  0  0  0  0  0  0  0  0  0  0  0
    7.7432  -17.1719   18.8663 C   0  0  0  0  0  0  0  0  0  0  0  0
    7.2478  -18.5064   19.4401 C   0  0  2  0  0  0  0  0  0  0  0  0
    6.0839  -18.8769   18.7083 N   0  0  0  0  0  0  0  0  0  0  0  0
    6.9593  -18.3139   20.9027 C   0  0  0  0  0  0  0  0  0  0  0  0
    5.8307  -17.8949   21.2658 O   0  0  0  0  0  0  0  0  0  0  0  0
    8.7698  -19.5565   29.6383 O   0  0  0  0  0  0  0  0  0  0  0  0
    8.6994  -19.5611   28.2525 C   0  0  0  0  0  0  0  0  0  0  0  0
    9.7931  -19.2921   27.4623 C   0  0  0  0  0  0  0  0  0  0  0  0
    9.7161  -19.2984   26.0863 C   0  0  0  0  0  0  0  0  0  0  0  0
    8.5159  -19.5801   25.4240 C   0  0  0  0  0  0  0  0  0  0  0  0
    8.4833  -19.5415   23.9604 C   0  0  0  0  0  0  0  0  0  0  0  0
    7.6694  -18.4781   23.3205 C   0  0  2  0  0  0  0  0  0  0  0  0
    7.9380  -18.5974   21.8685 N   0  0  0  0  0  0  0  0  0  0  0  0
    8.0458  -17.1141   23.7297 C   0  0  0  0  0  0  0  0  0  0  0  0
    9.1779  -16.6849   23.2914 O   0  0  0  0  0  0  0  0  0  0  0  0
    7.4384  -19.8456   26.2376 C   0  0  0  0  0  0  0  0  0  0  0  0
    7.5129  -19.8398   27.6146 C   0  0  0  0  0  0  0  0  0  0  0  0
    6.3122  -10.3915   27.6830 C   0  0  0  0  0  0  0  0  0  0  0  0
    5.7864  -11.9334   26.9330 S   0  0  0  0  0  0  0  0  0  0  0  0
    7.1352  -12.8604   26.2136 C   0  0  0  0  0  0  0  0  0  0  0  0
    6.7939  -14.1428   25.5731 C   0  0  0  0  0  0  0  0  0  0  0  0
    7.8800  -14.9407   24.8976 C   0  0  2  0  0  0  0  0  0  0  0  0
    7.2870  -16.2493   24.5393 N   0  0  0  0  0  0  0  0  0  0  0  0
    9.0397  -15.1321   25.7600 C   0  0  0  0  0  0  0  0  0  0  0  0
   10.0565  -14.4105   25.6322 O   0  0  0  0  0  0  0  0  0  0  0  0
    9.1362  -16.0966   26.7765 O   0  0  0  0  0  0  0  0  0  0  0  0
  2  1  1  0
  3  2  1  0
  3  5  1  0
  3  4  1  6
  5  6  2  0
  8  7  1  0
  8 18  2  0
  9  8  1  0
 10  9  2  0
 10 11  1  0
 11 17  2  0
 13 12  1  1
 12 11  1  0
 14  5  1  0
 14 13  1  0
 15 24  1  0
 15 13  1  0
 16 15  2  0
 17 18  1  0
 20 21  1  0
 20 19  1  0
 21 22  1  0
 23 24  1  0
 23 22  1  1
 25 23  1  0
 26 25  2  0
 27 25  1  0
M  END
$$$$
