SYM.pdb
     RDKit          3D

 27 27  0  0  1  0  0  0  0  0999 V2000
    6.9247  -18.7829   26.0775 O   0  0  0  0  0  0  0  0  0  0  0  0
    6.7823  -20.0151   25.4419 C   0  0  0  0  0  0  0  0  0  0  0  0
    6.1969  -19.8261   24.0358 C   0  0  2  0  0  0  0  0  0  0  0  0
    6.1683  -21.1060   23.4126 N   0  0  0  0  0  0  0  0  0  0  0  0
    7.0653  -18.8523   23.2893 C   0  0  0  0  0  0  0  0  0  0  0  0
    8.1622  -19.2360   22.8091 O   0  0  0  0  0  0  0  0  0  0  0  0
    8.7111  -11.7371   18.2067 O   0  0  0  0  0  0  0  0  0  0  0  0
    8.2059  -12.6501   19.1213 C   0  0  0  0  0  0  0  0  0  0  0  0
    8.0400  -13.9807   18.8130 C   0  0  0  0  0  0  0  0  0  0  0  0
    7.5375  -14.8822   19.7264 C   0  0  0  0  0  0  0  0  0  0  0  0
    7.1705  -14.4853   21.0172 C   0  0  0  0  0  0  0  0  0  0  0  0
    6.6119  -15.4789   21.9367 C   0  0  0  0  0  0  0  0  0  0  0  0
    7.5349  -16.5076   22.4778 C   0  0  2  0  0  0  0  0  0  0  0  0
    6.6637  -17.5174   23.1226 N   0  0  0  0  0  0  0  0  0  0  0  0
    8.4571  -15.9969   23.5065 C   0  0  0  0  0  0  0  0  0  0  0  0
    9.4134  -15.2448   23.0847 O   0  0  0  0  0  0  0  0  0  0  0  0
    7.3467  -13.1500   21.2991 C   0  0  0  0  0  0  0  0  0  0  0  0
    7.8491  -12.2460   20.3868 C   0  0  0  0  0  0  0  0  0  0  0  0
    5.8268  -11.7209   26.5732 C   0  0  0  0  0  0  0  0  0  0  0  0
    7.2361  -12.4745   27.3872 S   0  0  0  0  0  0  0  0  0  0  0  0
    8.2762  -13.4065   26.2712 C   0  0  0  0  0  0  0  0  0  0  0  0
    8.7098  -14.7402   26.7235 C   0  0  0  0  0  0  0  0  0  0  0  0
    9.4234  -15.6499   25.7562 C   0  0  2  0  0  0  0  0  0  0  0  0
    8.3836  -16.2488   24.8886 N   0  0  0  0  0  0  0  0  0  0  0  0
   10.1753  -16.6968   26.4376 C   0  0  0  0  0  0  0  0  0  0  0  0
    9.7760  -17.8847   26.4193 O   0  0  0  0  0  0  0  0  0  0  0  0
   11.3687  -16.4961   27.1507 O   0  0  0  0  0  0  0  0  0  0  0  0
  2  1  1  0
  3  2  1  0
  3  5  1  0
  3  4  1  6
  5  6  2  0
  8  7  1  0
  8 18  2  0
  9  8  1  0
 10  9  2  0
 10 11  1  0
 11 17  2  0
 13 12  1  1
 12 11  1  0
 14  5  1  0
 14 13  1  0
 15 24  1  0
 15 13  1  0
 16 15  2  0
 17 18  1  0
 20 21  1  0
 20 19  1  0
 21 22  1  0
 23 24  1  0
 23 22  1  1
 25 23  1  0
 26 25  2  0
 27 25  1  0
M  END
$$$$
