SYM.pdb
     RDKit          3D

 27 27  0  0  1  0  0  0  0  0999 V2000
    8.7096  -15.3362   18.9530 O   0  0  0  0  0  0  0  0  0  0  0  0
    7.9013  -15.2448   20.0847 C   0  0  0  0  0  0  0  0  0  0  0  0
    7.1860  -16.5786   20.3391 C   0  0  2  0  0  0  0  0  0  0  0  0
    5.9873  -16.5707   19.5706 N   0  0  0  0  0  0  0  0  0  0  0  0
    6.9128  -16.6948   21.8127 C   0  0  0  0  0  0  0  0  0  0  0  0
    5.8814  -16.1653   22.2993 O   0  0  0  0  0  0  0  0  0  0  0  0
    8.3069  -20.4030   29.8919 O   0  0  0  0  0  0  0  0  0  0  0  0
    8.2082  -20.0590   28.5513 C   0  0  0  0  0  0  0  0  0  0  0  0
    9.3174  -19.8735   27.7587 C   0  0  0  0  0  0  0  0  0  0  0  0
    9.2121  -19.5318   26.4277 C   0  0  0  0  0  0  0  0  0  0  0  0
    7.9657  -19.3564   25.8160 C   0  0  0  0  0  0  0  0  0  0  0  0
    7.9126  -18.9618   24.4066 C   0  0  0  0  0  0  0  0  0  0  0  0
    7.5413  -17.5576   24.1012 C   0  0  2  0  0  0  0  0  0  0  0  0
    7.7984  -17.3892   22.6521 N   0  0  0  0  0  0  0  0  0  0  0  0
    8.3557  -16.5587   24.8144 C   0  0  0  0  0  0  0  0  0  0  0  0
    9.5226  -16.3258   24.3224 O   0  0  0  0  0  0  0  0  0  0  0  0
    6.8735  -19.5479   26.6307 C   0  0  0  0  0  0  0  0  0  0  0  0
    6.9763  -19.8898   27.9628 C   0  0  0  0  0  0  0  0  0  0  0  0
    5.5261  -10.5930   26.0821 C   0  0  0  0  0  0  0  0  0  0  0  0
    6.4603  -11.5989   27.2363 S   0  0  0  0  0  0  0  0  0  0  0  0
    7.6396  -12.6765   26.4338 C   0  0  0  0  0  0  0  0  0  0  0  0
    8.1497  -13.8106   27.2245 C   0  0  0  0  0  0  0  0  0  0  0  0
    8.9504  -14.8869   26.5367 C   0  0  2  0  0  0  0  0  0  0  0  0
    7.9754  -15.8430   25.9642 N   0  0  0  0  0  0  0  0  0  0  0  0
    9.8509  -15.5743   27.4544 C   0  0  0  0  0  0  0  0  0  0  0  0
    9.5211  -16.6656   27.9749 O   0  0  0  0  0  0  0  0  0  0  0  0
   11.1215  -15.1107   27.8332 O   0  0  0  0  0  0  0  0  0  0  0  0
  2  1  1  0
  3  2  1  0
  3  5  1  0
  3  4  1  6
  5  6  2  0
  8  7  1  0
  8 18  2  0
  9  8  1  0
 10  9  2  0
 10 11  1  0
 11 17  2  0
 13 12  1  1
 12 11  1  0
 14  5  1  0
 14 13  1  0
 15 24  1  0
 15 13  1  0
 16 15  2  0
 17 18  1  0
 20 21  1  0
 20 19  1  0
 21 22  1  0
 23 24  1  0
 23 22  1  1
 25 23  1  0
 26 25  2  0
 27 25  1  0
M  END
$$$$
