SYM.pdb
     RDKit          3D

 27 27  0  0  1  0  0  0  0  0999 V2000
    7.8382  -14.8247   19.5083 O   0  0  0  0  0  0  0  0  0  0  0  0
    8.6905  -15.9237   19.5983 C   0  0  0  0  0  0  0  0  0  0  0  0
    7.8911  -17.1949   19.9154 C   0  0  2  0  0  0  0  0  0  0  0  0
    6.7677  -17.2189   19.0408 N   0  0  0  0  0  0  0  0  0  0  0  0
    7.4820  -17.1476   21.3611 C   0  0  0  0  0  0  0  0  0  0  0  0
    6.2925  -16.8748   21.6639 O   0  0  0  0  0  0  0  0  0  0  0  0
    7.9269  -20.3609   29.6596 O   0  0  0  0  0  0  0  0  0  0  0  0
    8.0375  -20.0192   28.3194 C   0  0  0  0  0  0  0  0  0  0  0  0
    9.2525  -19.9567   27.6769 C   0  0  0  0  0  0  0  0  0  0  0  0
    9.3551  -19.6166   26.3453 C   0  0  0  0  0  0  0  0  0  0  0  0
    8.2228  -19.3171   25.5795 C   0  0  0  0  0  0  0  0  0  0  0  0
    8.3925  -18.9304   24.1771 C   0  0  0  0  0  0  0  0  0  0  0  0
    8.0151  -17.5462   23.7970 C   0  0  2  0  0  0  0  0  0  0  0  0
    8.4154  -17.4053   22.3777 N   0  0  0  0  0  0  0  0  0  0  0  0
    8.7231  -16.5056   24.5621 C   0  0  0  0  0  0  0  0  0  0  0  0
    9.9472  -16.2911   24.2252 O   0  0  0  0  0  0  0  0  0  0  0  0
    7.0211  -19.3872   26.2461 C   0  0  0  0  0  0  0  0  0  0  0  0
    6.9158  -19.7273   27.5784 C   0  0  0  0  0  0  0  0  0  0  0  0
    5.5507  -10.4358   25.8210 C   0  0  0  0  0  0  0  0  0  0  0  0
    6.2301  -11.7113   26.8831 S   0  0  0  0  0  0  0  0  0  0  0  0
    7.4833  -12.7008   26.0791 C   0  0  0  0  0  0  0  0  0  0  0  0
    8.1605  -13.7161   26.9050 C   0  0  0  0  0  0  0  0  0  0  0  0
    9.0654  -14.7220   26.2404 C   0  0  2  0  0  0  0  0  0  0  0  0
    8.1871  -15.7327   25.6082 N   0  0  0  0  0  0  0  0  0  0  0  0
    9.9681  -15.3620   27.1897 C   0  0  0  0  0  0  0  0  0  0  0  0
    9.6339  -16.4180   27.7762 O   0  0  0  0  0  0  0  0  0  0  0  0
   11.2456  -14.8878   27.5305 O   0  0  0  0  0  0  0  0  0  0  0  0
  2  1  1  0
  3  2  1  0
  3  5  1  0
  3  4  1  6
  5  6  2  0
  8  7  1  0
  8 18  2  0
  9  8  1  0
 10  9  2  0
 10 11  1  0
 11 17  2  0
 13 12  1  1
 12 11  1  0
 14  5  1  0
 14 13  1  0
 15 24  1  0
 15 13  1  0
 16 15  2  0
 17 18  1  0
 20 21  1  0
 20 19  1  0
 21 22  1  0
 23 24  1  0
 23 22  1  1
 25 23  1  0
 26 25  2  0
 27 25  1  0
M  END
$$$$
