KPK.pdb
     RDKit          3D

 26 26  0  0  1  0  0  0  0  0999 V2000
   13.2117  -24.0775   -0.9545 N   0  0  0  0  0  0  0  0  0  0  0  0
   14.3091  -23.1720   -0.6242 C   0  0  1  0  0  0  0  0  0  0  0  0
   14.5127  -22.3177   -1.8459 C   0  0  0  0  0  0  0  0  0  0  0  0
   15.2076  -22.9660   -2.9889 C   0  0  0  0  0  0  0  0  0  0  0  0
   14.2313  -23.1271   -4.1470 C   0  0  0  0  0  0  0  0  0  0  0  0
   14.8270  -23.7733   -5.3521 C   0  0  0  0  0  0  0  0  0  0  0  0
   13.7541  -23.8998   -6.3540 N   0  0  0  0  0  0  0  0  0  0  0  0
   13.9493  -22.4273    0.5877 C   0  0  0  0  0  0  0  0  0  0  0  0
   12.6836  -22.4300    0.8584 O   0  0  0  0  0  0  0  0  0  0  0  0
   14.8282  -21.7368    1.4486 N   0  0  0  0  0  0  0  0  0  0  0  0
   16.2643  -21.6531    1.1937 C   0  0  0  0  0  0  0  0  0  0  0  0
   16.9007  -21.3553    2.5155 C   0  0  0  0  0  0  0  0  0  0  0  0
   15.7989  -21.1567    3.4930 C   0  0  0  0  0  0  0  0  0  0  0  0
   14.5494  -21.0104    2.6294 C   0  0  1  0  0  0  0  0  0  0  0  0
   14.3576  -19.5426    2.4068 C   0  0  0  0  0  0  0  0  0  0  0  0
   15.1653  -18.9676    1.6337 O   0  0  0  0  0  0  0  0  0  0  0  0
   13.2968  -18.8646    3.0587 N   0  0  0  0  0  0  0  0  0  0  0  0
   13.0653  -17.4277    2.8119 C   0  0  1  0  0  0  0  0  0  0  0  0
   11.6229  -17.2113    2.4410 C   0  0  0  0  0  0  0  0  0  0  0  0
   11.2535  -17.5511    1.0519 C   0  0  0  0  0  0  0  0  0  0  0  0
    9.8430  -17.3178    0.6400 C   0  0  0  0  0  0  0  0  0  0  0  0
    9.4904  -17.7472   -0.7505 C   0  0  0  0  0  0  0  0  0  0  0  0
    8.1167  -17.4321   -1.0727 N   0  0  0  0  0  0  0  0  0  0  0  0
   13.5086  -16.6547    3.9891 C   0  0  0  0  0  0  0  0  0  0  0  0
   14.0557  -17.2895    5.1217 O   0  0  0  0  0  0  0  0  0  0  0  0
   13.4271  -15.4075    4.0543 O   0  0  0  0  0  0  0  0  0  0  0  0
  2  3  1  0
  2  1  1  6
  4  3  1  0
  4  5  1  0
  6  5  1  0
  6  7  1  0
  8  2  1  0
  9  8  2  0
 10 14  1  0
 10  8  1  0
 11 12  1  0
 11 10  1  0
 12 13  1  0
 13 14  1  0
 14 15  1  6
 16 15  2  0
 17 15  1  0
 18 17  1  0
 18 24  1  0
 18 19  1  1
 20 19  1  0
 21 20  1  0
 22 21  1  0
 22 23  1  0
 24 25  1  0
 26 24  2  0
M  END
$$$$
