KPK.pdb
     RDKit          3D

 26 26  0  0  1  0  0  0  0  0999 V2000
   23.4723  -21.5602  -12.8395 N   0  0  0  0  0  0  0  0  0  0  0  0
   24.5756  -21.1694  -13.7132 C   0  0  1  0  0  0  0  0  0  0  0  0
   24.4610  -22.0471  -14.9299 C   0  0  0  0  0  0  0  0  0  0  0  0
   25.7220  -22.6754  -15.4041 C   0  0  0  0  0  0  0  0  0  0  0  0
   25.4307  -23.5250  -16.6344 C   0  0  0  0  0  0  0  0  0  0  0  0
   26.6198  -24.2592  -17.1553 C   0  0  0  0  0  0  0  0  0  0  0  0
   26.6684  -25.5581  -16.4616 N   0  0  0  0  0  0  0  0  0  0  0  0
   24.4666  -19.7318  -13.9859 C   0  0  0  0  0  0  0  0  0  0  0  0
   23.2989  -19.2303  -13.7407 O   0  0  0  0  0  0  0  0  0  0  0  0
   25.4836  -18.8835  -14.4723 N   0  0  0  0  0  0  0  0  0  0  0  0
   26.8378  -19.3623  -14.7387 C   0  0  0  0  0  0  0  0  0  0  0  0
   27.7179  -18.1520  -14.7000 C   0  0  0  0  0  0  0  0  0  0  0  0
   26.8286  -16.9740  -14.5256 C   0  0  0  0  0  0  0  0  0  0  0  0
   25.4292  -17.5115  -14.8103 C   0  0  1  0  0  0  0  0  0  0  0  0
   25.1637  -17.2549  -16.2609 C   0  0  0  0  0  0  0  0  0  0  0  0
   25.6916  -18.0391  -17.0898 O   0  0  0  0  0  0  0  0  0  0  0  0
   24.3452  -16.1627  -16.6442 N   0  0  0  0  0  0  0  0  0  0  0  0
   23.9127  -16.0096  -18.0474 C   0  0  1  0  0  0  0  0  0  0  0  0
   22.4422  -15.6915  -18.0842 C   0  0  0  0  0  0  0  0  0  0  0  0
   21.5927  -16.4459  -17.1405 C   0  0  0  0  0  0  0  0  0  0  0  0
   20.1365  -16.1408  -17.1331 C   0  0  0  0  0  0  0  0  0  0  0  0
   19.3059  -16.9488  -16.1846 C   0  0  0  0  0  0  0  0  0  0  0  0
   17.8966  -16.6642  -16.3359 N   0  0  0  0  0  0  0  0  0  0  0  0
   24.7651  -15.0035  -18.7116 C   0  0  0  0  0  0  0  0  0  0  0  0
   25.7026  -14.2410  -17.9875 O   0  0  0  0  0  0  0  0  0  0  0  0
   24.7088  -14.7681  -19.9395 O   0  0  0  0  0  0  0  0  0  0  0  0
  2  3  1  0
  2  1  1  1
  4  3  1  0
  4  5  1  0
  6  5  1  0
  6  7  1  0
  8  2  1  0
  9  8  2  0
 10 14  1  0
 10  8  1  0
 11 12  1  0
 11 10  1  0
 12 13  1  0
 13 14  1  0
 14 15  1  6
 16 15  2  0
 17 15  1  0
 18 17  1  0
 18 24  1  0
 18 19  1  1
 20 19  1  0
 21 20  1  0
 22 21  1  0
 22 23  1  0
 24 25  1  0
 26 24  2  0
M  END
$$$$
