KPK.pdb
     RDKit          3D

 26 26  0  0  1  0  0  0  0  0999 V2000
   13.2977  -24.7897   -2.7266 N   0  0  0  0  0  0  0  0  0  0  0  0
   14.2181  -25.7639   -2.1462 C   0  0  1  0  0  0  0  0  0  0  0  0
   15.5594  -25.4732   -2.7629 C   0  0  0  0  0  0  0  0  0  0  0  0
   15.6670  -25.6947   -4.2288 C   0  0  0  0  0  0  0  0  0  0  0  0
   17.0599  -25.2951   -4.6985 C   0  0  0  0  0  0  0  0  0  0  0  0
   17.2764  -25.4740   -6.1633 C   0  0  0  0  0  0  0  0  0  0  0  0
   18.6300  -24.9779   -6.4675 N   0  0  0  0  0  0  0  0  0  0  0  0
   14.1767  -25.6307   -0.6856 C   0  0  0  0  0  0  0  0  0  0  0  0
   13.6631  -24.5191   -0.2665 O   0  0  0  0  0  0  0  0  0  0  0  0
   14.6299  -26.5717    0.2630 N   0  0  0  0  0  0  0  0  0  0  0  0
   15.1937  -27.8621   -0.1261 C   0  0  0  0  0  0  0  0  0  0  0  0
   15.0440  -28.7536    1.0670 C   0  0  0  0  0  0  0  0  0  0  0  0
   14.4978  -27.9178    2.1679 C   0  0  0  0  0  0  0  0  0  0  0  0
   14.6677  -26.4841    1.6738 C   0  0  1  0  0  0  0  0  0  0  0  0
   15.9768  -26.0014    2.2160 C   0  0  0  0  0  0  0  0  0  0  0  0
   16.9173  -25.8470    1.3960 O   0  0  0  0  0  0  0  0  0  0  0  0
   16.1107  -25.7398    3.6029 N   0  0  0  0  0  0  0  0  0  0  0  0
   16.7798  -24.5095    4.0698 C   0  0  1  0  0  0  0  0  0  0  0  0
   16.0804  -23.3101    3.4892 C   0  0  0  0  0  0  0  0  0  0  0  0
   16.6034  -21.9923    3.9032 C   0  0  0  0  0  0  0  0  0  0  0  0
   15.9515  -20.7841    3.3298 C   0  0  0  0  0  0  0  0  0  0  0  0
   16.4225  -19.4700    3.8717 C   0  0  0  0  0  0  0  0  0  0  0  0
   15.6462  -18.3689    3.3472 N   0  0  0  0  0  0  0  0  0  0  0  0
   16.8392  -24.5185    5.5451 C   0  0  0  0  0  0  0  0  0  0  0  0
   18.0238  -24.1937    6.2351 O   0  0  0  0  0  0  0  0  0  0  0  0
   15.8572  -24.8111    6.2638 O   0  0  0  0  0  0  0  0  0  0  0  0
  2  3  1  0
  2  1  1  6
  4  3  1  0
  4  5  1  0
  6  5  1  0
  6  7  1  0
  8  2  1  0
  9  8  2  0
 10 14  1  0
 10  8  1  0
 11 12  1  0
 11 10  1  0
 12 13  1  0
 13 14  1  0
 14 15  1  6
 16 15  2  0
 17 15  1  0
 18 17  1  0
 18 24  1  0
 18 19  1  1
 20 19  1  0
 21 20  1  0
 22 21  1  0
 22 23  1  0
 24 25  1  0
 26 24  2  0
M  END
$$$$
