KPK.pdb
     RDKit          3D

 26 26  0  0  1  0  0  0  0  0999 V2000
   18.6885  -24.3808   -9.3706 N   0  0  0  0  0  0  0  0  0  0  0  0
   19.5825  -24.0533  -10.4782 C   0  0  1  0  0  0  0  0  0  0  0  0
   19.4358  -25.1792  -11.4654 C   0  0  0  0  0  0  0  0  0  0  0  0
   20.6027  -25.4278  -12.3521 C   0  0  0  0  0  0  0  0  0  0  0  0
   20.2055  -26.4121  -13.4446 C   0  0  0  0  0  0  0  0  0  0  0  0
   21.3060  -26.7280  -14.4005 C   0  0  0  0  0  0  0  0  0  0  0  0
   20.7925  -27.7438  -15.3360 N   0  0  0  0  0  0  0  0  0  0  0  0
   19.2128  -22.7327  -10.9999 C   0  0  0  0  0  0  0  0  0  0  0  0
   18.0330  -22.3326  -10.6490 O   0  0  0  0  0  0  0  0  0  0  0  0
   20.0004  -21.8953  -11.8177 N   0  0  0  0  0  0  0  0  0  0  0  0
   21.3092  -22.3043  -12.3218 C   0  0  0  0  0  0  0  0  0  0  0  0
   22.0379  -21.0387  -12.6509 C   0  0  0  0  0  0  0  0  0  0  0  0
   21.0831  -19.9199  -12.4372 C   0  0  0  0  0  0  0  0  0  0  0  0
   19.7233  -20.6014  -12.3164 C   0  0  1  0  0  0  0  0  0  0  0  0
   19.1233  -20.5963  -13.6878 C   0  0  0  0  0  0  0  0  0  0  0  0
   19.3996  -21.5650  -14.4401 O   0  0  0  0  0  0  0  0  0  0  0  0
   18.2831  -19.5256  -14.0845 N   0  0  0  0  0  0  0  0  0  0  0  0
   17.4591  -19.6351  -15.3045 C   0  0  1  0  0  0  0  0  0  0  0  0
   16.1331  -18.9622  -15.0730 C   0  0  0  0  0  0  0  0  0  0  0  0
   16.1654  -17.4900  -14.9588 C   0  0  0  0  0  0  0  0  0  0  0  0
   14.8627  -16.7826  -14.8316 C   0  0  0  0  0  0  0  0  0  0  0  0
   14.9201  -15.2891  -14.9234 C   0  0  0  0  0  0  0  0  0  0  0  0
   13.6059  -14.6977  -14.8080 N   0  0  0  0  0  0  0  0  0  0  0  0
   18.2167  -19.0981  -16.4524 C   0  0  0  0  0  0  0  0  0  0  0  0
   17.7713  -19.2797  -17.7767 O   0  0  0  0  0  0  0  0  0  0  0  0
   19.2849  -18.4590  -16.3236 O   0  0  0  0  0  0  0  0  0  0  0  0
  2  3  1  0
  2  1  1  1
  4  3  1  0
  4  5  1  0
  6  5  1  0
  6  7  1  0
  8  2  1  0
  9  8  2  0
 10 14  1  0
 10  8  1  0
 11 12  1  0
 11 10  1  0
 12 13  1  0
 13 14  1  0
 14 15  1  6
 16 15  2  0
 17 15  1  0
 18 17  1  0
 18 24  1  0
 18 19  1  1
 20 19  1  0
 21 20  1  0
 22 21  1  0
 22 23  1  0
 24 25  1  0
 26 24  2  0
M  END
$$$$
