KPK.pdb
     RDKit          3D

 26 26  0  0  1  0  0  0  0  0999 V2000
   28.3735  -20.5357  -17.4188 N   0  0  0  0  0  0  0  0  0  0  0  0
   28.6571  -19.7865  -16.1975 C   0  0  1  0  0  0  0  0  0  0  0  0
   28.0023  -18.4446  -16.3827 C   0  0  0  0  0  0  0  0  0  0  0  0
   27.6372  -18.0819  -17.7773 C   0  0  0  0  0  0  0  0  0  0  0  0
   26.2156  -17.5352  -17.8006 C   0  0  0  0  0  0  0  0  0  0  0  0
   25.7635  -17.0891  -19.1501 C   0  0  0  0  0  0  0  0  0  0  0  0
   24.3822  -16.5969  -19.0063 N   0  0  0  0  0  0  0  0  0  0  0  0
   28.1574  -20.5561  -15.0527 C   0  0  0  0  0  0  0  0  0  0  0  0
   27.2542  -21.4329  -15.3538 O   0  0  0  0  0  0  0  0  0  0  0  0
   28.5603  -20.4283  -13.7066 N   0  0  0  0  0  0  0  0  0  0  0  0
   29.5337  -19.4280  -13.2753 C   0  0  0  0  0  0  0  0  0  0  0  0
   30.0956  -19.9306  -11.9820 C   0  0  0  0  0  0  0  0  0  0  0  0
   29.3439  -21.1642  -11.6323 C   0  0  0  0  0  0  0  0  0  0  0  0
   28.1369  -21.1486  -12.5657 C   0  0  1  0  0  0  0  0  0  0  0  0
   27.0256  -20.4887  -11.8105 C   0  0  0  0  0  0  0  0  0  0  0  0
   26.9923  -19.2318  -11.8176 O   0  0  0  0  0  0  0  0  0  0  0  0
   26.0696  -21.2827  -11.1284 N   0  0  0  0  0  0  0  0  0  0  0  0
   24.7522  -20.7216  -10.7691 C   0  0  1  0  0  0  0  0  0  0  0  0
   23.6890  -21.3589  -11.6226 C   0  0  0  0  0  0  0  0  0  0  0  0
   22.3042  -20.9093  -11.3747 C   0  0  0  0  0  0  0  0  0  0  0  0
   21.2352  -21.4659  -12.2472 C   0  0  0  0  0  0  0  0  0  0  0  0
   19.8498  -20.9629  -11.9825 C   0  0  0  0  0  0  0  0  0  0  0  0
   18.9142  -21.4297  -12.9810 N   0  0  0  0  0  0  0  0  0  0  0  0
   24.5363  -20.8797   -9.3171 C   0  0  0  0  0  0  0  0  0  0  0  0
   24.3621  -19.7643   -8.4741 O   0  0  0  0  0  0  0  0  0  0  0  0
   24.4957  -21.9961   -8.7528 O   0  0  0  0  0  0  0  0  0  0  0  0
  2  3  1  0
  2  1  1  6
  4  3  1  0
  4  5  1  0
  6  5  1  0
  6  7  1  0
  8  2  1  0
  9  8  2  0
 10 14  1  0
 10  8  1  0
 11 12  1  0
 11 10  1  0
 12 13  1  0
 13 14  1  0
 14 15  1  1
 16 15  2  0
 17 15  1  0
 18 17  1  0
 18 24  1  0
 18 19  1  6
 20 19  1  0
 21 20  1  0
 22 21  1  0
 22 23  1  0
 24 25  1  0
 26 24  2  0
M  END
$$$$
