KPK.pdb
     RDKit          3D

 26 26  0  0  1  0  0  0  0  0999 V2000
   44.7882  -11.8151   -6.6330 N   0  0  0  0  0  0  0  0  0  0  0  0
   44.1652  -12.5650   -7.7207 C   0  0  1  0  0  0  0  0  0  0  0  0
   43.9480  -11.5698   -8.8281 C   0  0  0  0  0  0  0  0  0  0  0  0
   43.1587  -10.3606   -8.4751 C   0  0  0  0  0  0  0  0  0  0  0  0
   42.9672   -9.5025   -9.7190 C   0  0  0  0  0  0  0  0  0  0  0  0
   42.3455   -8.1747   -9.4454 C   0  0  0  0  0  0  0  0  0  0  0  0
   42.2684   -7.4565  -10.7296 N   0  0  0  0  0  0  0  0  0  0  0  0
   45.0412  -13.6880   -8.0732 C   0  0  0  0  0  0  0  0  0  0  0  0
   46.2606  -13.5631   -7.6577 O   0  0  0  0  0  0  0  0  0  0  0  0
   44.6835  -14.8454   -8.7963 N   0  0  0  0  0  0  0  0  0  0  0  0
   43.3028  -15.1303   -9.1793 C   0  0  0  0  0  0  0  0  0  0  0  0
   43.2367  -16.6072   -9.4142 C   0  0  0  0  0  0  0  0  0  0  0  0
   44.6202  -17.1315   -9.2735 C   0  0  0  0  0  0  0  0  0  0  0  0
   45.5007  -15.8856   -9.2963 C   0  0  1  0  0  0  0  0  0  0  0  0
   45.9249  -15.6923  -10.7187 C   0  0  0  0  0  0  0  0  0  0  0  0
   45.2749  -14.8635  -11.4053 O   0  0  0  0  0  0  0  0  0  0  0  0
   47.0194  -16.4317  -11.2334 N   0  0  0  0  0  0  0  0  0  0  0  0
   48.1226  -15.7440  -11.9332 C   0  0  1  0  0  0  0  0  0  0  0  0
   48.6134  -14.6000  -11.0874 C   0  0  0  0  0  0  0  0  0  0  0  0
   48.2889  -13.2456  -11.5791 C   0  0  0  0  0  0  0  0  0  0  0  0
   48.6834  -12.0926  -10.7254 C   0  0  0  0  0  0  0  0  0  0  0  0
   48.3040  -10.7392  -11.2418 C   0  0  0  0  0  0  0  0  0  0  0  0
   48.6690   -9.6935  -10.3126 N   0  0  0  0  0  0  0  0  0  0  0  0
   49.1661  -16.7288  -12.2814 C   0  0  0  0  0  0  0  0  0  0  0  0
   49.6044  -16.8967  -13.6097 O   0  0  0  0  0  0  0  0  0  0  0  0
   49.7174  -17.4649  -11.4325 O   0  0  0  0  0  0  0  0  0  0  0  0
  2  3  1  0
  2  1  1  1
  4  3  1  0
  4  5  1  0
  6  5  1  0
  6  7  1  0
  8  2  1  0
  9  8  2  0
 10 14  1  0
 10  8  1  0
 11 12  1  0
 11 10  1  0
 12 13  1  0
 13 14  1  0
 14 15  1  6
 16 15  2  0
 17 15  1  0
 18 17  1  0
 18 24  1  0
 18 19  1  1
 20 19  1  0
 21 20  1  0
 22 21  1  0
 22 23  1  0
 24 25  1  0
 26 24  2  0
M  END
$$$$
