KPK.pdb
     RDKit          3D

 26 26  0  0  1  0  0  0  0  0999 V2000
   25.9130  -19.8356  -18.1477 N   0  0  0  0  0  0  0  0  0  0  0  0
   26.5817  -19.1089  -17.0715 C   0  0  1  0  0  0  0  0  0  0  0  0
   25.9098  -17.7640  -17.0107 C   0  0  0  0  0  0  0  0  0  0  0  0
   25.2231  -17.3193  -18.2519 C   0  0  0  0  0  0  0  0  0  0  0  0
   23.7276  -17.5777  -18.1212 C   0  0  0  0  0  0  0  0  0  0  0  0
   22.8951  -16.3416  -18.1788 C   0  0  0  0  0  0  0  0  0  0  0  0
   21.4851  -16.7672  -18.2193 N   0  0  0  0  0  0  0  0  0  0  0  0
   26.4759  -19.8996  -15.8401 C   0  0  0  0  0  0  0  0  0  0  0  0
   25.4892  -20.7371  -15.8280 O   0  0  0  0  0  0  0  0  0  0  0  0
   27.3228  -19.8290  -14.7139 N   0  0  0  0  0  0  0  0  0  0  0  0
   28.4930  -18.9553  -14.6714 C   0  0  0  0  0  0  0  0  0  0  0  0
   29.3979  -19.5293  -13.6263 C   0  0  0  0  0  0  0  0  0  0  0  0
   28.6727  -20.6657  -13.0005 C   0  0  0  0  0  0  0  0  0  0  0  0
   27.2312  -20.4998  -13.4724 C   0  0  1  0  0  0  0  0  0  0  0  0
   26.5251  -19.7156  -12.4107 C   0  0  0  0  0  0  0  0  0  0  0  0
   26.1705  -18.5446  -12.7004 O   0  0  0  0  0  0  0  0  0  0  0  0
   26.2846  -20.3042  -11.1437 N   0  0  0  0  0  0  0  0  0  0  0  0
   24.9048  -20.4615  -10.6429 C   0  0  1  0  0  0  0  0  0  0  0  0
   24.0752  -21.1687  -11.6804 C   0  0  0  0  0  0  0  0  0  0  0  0
   23.2613  -20.3037  -12.5583 C   0  0  0  0  0  0  0  0  0  0  0  0
   21.8232  -20.6494  -12.7205 C   0  0  0  0  0  0  0  0  0  0  0  0
   21.0722  -19.8519  -13.7415 C   0  0  0  0  0  0  0  0  0  0  0  0
   19.7277  -20.3514  -13.9233 N   0  0  0  0  0  0  0  0  0  0  0  0
   24.9380  -21.1390   -9.3315 C   0  0  0  0  0  0  0  0  0  0  0  0
   24.5450  -20.4767   -8.1517 O   0  0  0  0  0  0  0  0  0  0  0  0
   25.3119  -22.3247   -9.1875 O   0  0  0  0  0  0  0  0  0  0  0  0
  2  3  1  0
  2  1  1  6
  4  3  1  0
  4  5  1  0
  6  5  1  0
  6  7  1  0
  8  2  1  0
  9  8  2  0
 10 14  1  0
 10  8  1  0
 11 12  1  0
 11 10  1  0
 12 13  1  0
 13 14  1  0
 14 15  1  1
 16 15  2  0
 17 15  1  0
 18 17  1  0
 18 24  1  0
 18 19  1  6
 20 19  1  0
 21 20  1  0
 22 21  1  0
 22 23  1  0
 24 25  1  0
 26 24  2  0
M  END
$$$$
