KPK.pdb
     RDKit          3D

 26 26  0  0  1  0  0  0  0  0999 V2000
   16.5295  -10.5611   -9.9822 N   0  0  0  0  0  0  0  0  0  0  0  0
   16.1916   -9.8102  -11.1885 C   0  0  1  0  0  0  0  0  0  0  0  0
   14.6930   -9.8805  -11.3044 C   0  0  0  0  0  0  0  0  0  0  0  0
   14.1040  -11.2445  -11.3510 C   0  0  0  0  0  0  0  0  0  0  0  0
   12.6019  -11.1377  -11.5807 C   0  0  0  0  0  0  0  0  0  0  0  0
   11.8859  -12.4437  -11.5026 C   0  0  0  0  0  0  0  0  0  0  0  0
   10.4639  -12.1785  -11.7829 N   0  0  0  0  0  0  0  0  0  0  0  0
   16.7300   -8.4517  -11.0571 C   0  0  0  0  0  0  0  0  0  0  0  0
   16.9669   -8.0882   -9.8377 O   0  0  0  0  0  0  0  0  0  0  0  0
   17.0010   -7.5443  -12.1029 N   0  0  0  0  0  0  0  0  0  0  0  0
   16.8495   -7.9076  -13.5098 C   0  0  0  0  0  0  0  0  0  0  0  0
   17.7084   -6.9513  -14.2771 C   0  0  0  0  0  0  0  0  0  0  0  0
   18.2515   -5.9739  -13.2980 C   0  0  0  0  0  0  0  0  0  0  0  0
   17.4148   -6.1935  -12.0410 C   0  0  1  0  0  0  0  0  0  0  0  0
   16.2874   -5.2109  -12.1052 C   0  0  0  0  0  0  0  0  0  0  0  0
   15.2069   -5.6074  -12.6111 O   0  0  0  0  0  0  0  0  0  0  0  0
   16.4698   -3.8969  -11.6054 N   0  0  0  0  0  0  0  0  0  0  0  0
   15.3758   -3.2115  -10.8894 C   0  0  1  0  0  0  0  0  0  0  0  0
   14.9465   -4.0491   -9.7150 C   0  0  0  0  0  0  0  0  0  0  0  0
   13.9205   -3.4533   -8.8354 C   0  0  0  0  0  0  0  0  0  0  0  0
   13.6632   -4.1208   -7.5308 C   0  0  0  0  0  0  0  0  0  0  0  0
   12.6190   -3.4836   -6.6672 C   0  0  0  0  0  0  0  0  0  0  0  0
   12.3635   -4.2640   -5.4773 N   0  0  0  0  0  0  0  0  0  0  0  0
   15.8097   -1.8464  -10.5311 C   0  0  0  0  0  0  0  0  0  0  0  0
   14.8994   -0.7717  -10.4943 O   0  0  0  0  0  0  0  0  0  0  0  0
   16.9940   -1.5626  -10.2429 O   0  0  0  0  0  0  0  0  0  0  0  0
  2  3  1  0
  2  1  1  1
  4  3  1  0
  4  5  1  0
  6  5  1  0
  6  7  1  0
  8  2  1  0
  9  8  2  0
 10 14  1  0
 10  8  1  0
 11 12  1  0
 11 10  1  0
 12 13  1  0
 13 14  1  0
 14 15  1  6
 16 15  2  0
 17 15  1  0
 18 17  1  0
 18 24  1  0
 18 19  1  1
 20 19  1  0
 21 20  1  0
 22 21  1  0
 22 23  1  0
 24 25  1  0
 26 24  2  0
M  END
$$$$
