KPK.pdb
     RDKit          3D

 26 26  0  0  1  0  0  0  0  0999 V2000
   21.9176  -20.9985  -11.4563 N   0  0  0  0  0  0  0  0  0  0  0  0
   22.9259  -21.5236  -12.3733 C   0  0  1  0  0  0  0  0  0  0  0  0
   22.1719  -21.9584  -13.6006 C   0  0  0  0  0  0  0  0  0  0  0  0
   20.8860  -21.2592  -13.8600 C   0  0  0  0  0  0  0  0  0  0  0  0
   19.7295  -22.2118  -13.5851 C   0  0  0  0  0  0  0  0  0  0  0  0
   18.9458  -21.8713  -12.3627 C   0  0  0  0  0  0  0  0  0  0  0  0
   17.8761  -22.8767  -12.2367 N   0  0  0  0  0  0  0  0  0  0  0  0
   23.9277  -20.4784  -12.6114 C   0  0  0  0  0  0  0  0  0  0  0  0
   23.5362  -19.2846  -12.3007 O   0  0  0  0  0  0  0  0  0  0  0  0
   25.2284  -20.6553  -13.1287 N   0  0  0  0  0  0  0  0  0  0  0  0
   25.7667  -21.9745  -13.4516 C   0  0  0  0  0  0  0  0  0  0  0  0
   27.2563  -21.8269  -13.4354 C   0  0  0  0  0  0  0  0  0  0  0  0
   27.5474  -20.3861  -13.2158 C   0  0  0  0  0  0  0  0  0  0  0  0
   26.2101  -19.6901  -13.4514 C   0  0  1  0  0  0  0  0  0  0  0  0
   26.1980  -19.2706  -14.8883 C   0  0  0  0  0  0  0  0  0  0  0  0
   25.9081  -20.1477  -15.7412 O   0  0  0  0  0  0  0  0  0  0  0  0
   26.5061  -17.9304  -15.2328 N   0  0  0  0  0  0  0  0  0  0  0  0
   26.2299  -17.4263  -16.5926 C   0  0  1  0  0  0  0  0  0  0  0  0
   26.1670  -15.9230  -16.5641 C   0  0  0  0  0  0  0  0  0  0  0  0
   25.8866  -15.2621  -17.8548 C   0  0  0  0  0  0  0  0  0  0  0  0
   25.8084  -13.7763  -17.8626 C   0  0  0  0  0  0  0  0  0  0  0  0
   25.5092  -13.1461  -19.1876 C   0  0  0  0  0  0  0  0  0  0  0  0
   25.2206  -11.7359  -19.0533 N   0  0  0  0  0  0  0  0  0  0  0  0
   27.2355  -17.9711  -17.5264 C   0  0  0  0  0  0  0  0  0  0  0  0
   28.5531  -18.2455  -17.1097 O   0  0  0  0  0  0  0  0  0  0  0  0
   26.9852  -18.2186  -18.7274 O   0  0  0  0  0  0  0  0  0  0  0  0
  2  3  1  0
  2  1  1  1
  4  3  1  0
  4  5  1  0
  6  5  1  0
  6  7  1  0
  8  2  1  0
  9  8  2  0
 10 14  1  0
 10  8  1  0
 11 12  1  0
 11 10  1  0
 12 13  1  0
 13 14  1  0
 14 15  1  6
 16 15  2  0
 17 15  1  0
 18 17  1  0
 18 24  1  0
 18 19  1  1
 20 19  1  0
 21 20  1  0
 22 21  1  0
 22 23  1  0
 24 25  1  0
 26 24  2  0
M  END
$$$$
