KPK.pdb
     RDKit          3D

 26 26  0  0  1  0  0  0  0  0999 V2000
   18.2123  -25.0377   -6.0814 N   0  0  0  0  0  0  0  0  0  0  0  0
   18.3533  -26.1252   -7.0461 C   0  0  1  0  0  0  0  0  0  0  0  0
   17.0721  -26.9099   -6.9641 C   0  0  0  0  0  0  0  0  0  0  0  0
   16.7517  -27.5021   -5.6389 C   0  0  0  0  0  0  0  0  0  0  0  0
   17.1752  -28.9653   -5.6245 C   0  0  0  0  0  0  0  0  0  0  0  0
   16.8529  -29.6736   -4.3522 C   0  0  0  0  0  0  0  0  0  0  0  0
   17.2231  -31.0880   -4.5349 N   0  0  0  0  0  0  0  0  0  0  0  0
   18.6295  -25.5445   -8.3649 C   0  0  0  0  0  0  0  0  0  0  0  0
   18.2919  -24.3004   -8.4803 O   0  0  0  0  0  0  0  0  0  0  0  0
   19.2079  -26.1987   -9.4731 N   0  0  0  0  0  0  0  0  0  0  0  0
   19.5833  -27.6101   -9.4371 C   0  0  0  0  0  0  0  0  0  0  0  0
   20.6095  -27.7910  -10.5119 C   0  0  0  0  0  0  0  0  0  0  0  0
   20.7207  -26.4939  -11.2288 C   0  0  0  0  0  0  0  0  0  0  0  0
   19.5049  -25.6987  -10.7621 C   0  0  1  0  0  0  0  0  0  0  0  0
   18.4259  -25.9435  -11.7703 C   0  0  0  0  0  0  0  0  0  0  0  0
   17.5047  -26.7354  -11.4462 O   0  0  0  0  0  0  0  0  0  0  0  0
   18.4760  -25.2902  -13.0274 N   0  0  0  0  0  0  0  0  0  0  0  0
   17.2421  -24.7691  -13.6482 C   0  0  1  0  0  0  0  0  0  0  0  0
   16.5333  -23.8704  -12.6711 C   0  0  0  0  0  0  0  0  0  0  0  0
   15.2468  -23.3057  -13.1267 C   0  0  0  0  0  0  0  0  0  0  0  0
   14.5155  -22.4162  -12.1845 C   0  0  0  0  0  0  0  0  0  0  0  0
   13.1836  -21.9208  -12.6565 C   0  0  0  0  0  0  0  0  0  0  0  0
   12.5057  -21.1582  -11.6322 N   0  0  0  0  0  0  0  0  0  0  0  0
   17.5800  -24.1198  -14.9305 C   0  0  0  0  0  0  0  0  0  0  0  0
   18.8917  -23.6906  -15.2139 O   0  0  0  0  0  0  0  0  0  0  0  0
   16.7363  -23.9124  -15.8313 O   0  0  0  0  0  0  0  0  0  0  0  0
  2  3  1  0
  2  1  1  1
  4  3  1  0
  4  5  1  0
  6  5  1  0
  6  7  1  0
  8  2  1  0
  9  8  2  0
 10 14  1  0
 10  8  1  0
 11 12  1  0
 11 10  1  0
 12 13  1  0
 13 14  1  0
 14 15  1  6
 16 15  2  0
 17 15  1  0
 18 17  1  0
 18 24  1  0
 18 19  1  1
 20 19  1  0
 21 20  1  0
 22 21  1  0
 22 23  1  0
 24 25  1  0
 26 24  2  0
M  END
$$$$
