CLN.pdb
     RDKit          3D

 23 22  0  0  1  0  0  0  0  0999 V2000
    8.0770  -14.0369   19.8664 N   0  0  0  0  0  0  0  0  0  0  0  0
    7.1454  -14.2134   20.9599 C   0  0  1  0  0  0  0  0  0  0  0  0
    6.2844  -15.4312   20.7038 C   0  0  0  0  0  0  0  0  0  0  0  0
    7.3177  -16.9154   20.7299 S   0  0  0  0  0  0  0  0  0  0  0  0
    7.8518  -14.3046   22.2478 C   0  0  0  0  0  0  0  0  0  0  0  0
    9.0965  -14.4894   22.2482 O   0  0  0  0  0  0  0  0  0  0  0  0
    7.8752  -11.4700   25.8856 C   0  0  0  0  0  0  0  0  0  0  0  0
    6.6148  -12.3172   25.5974 C   0  0  2  0  0  0  0  0  0  0  0  0
    5.5766  -11.8325   26.5590 C   0  0  0  0  0  0  0  0  0  0  0  0
    7.0398  -13.7191   25.7710 C   0  0  0  0  0  0  0  0  0  0  0  0
    7.9582  -14.3081   24.7509 C   0  0  2  0  0  0  0  0  0  0  0  0
    7.1991  -14.1948   23.4814 N   0  0  0  0  0  0  0  0  0  0  0  0
    8.2874  -15.7290   24.9180 C   0  0  0  0  0  0  0  0  0  0  0  0
    7.6511  -16.5955   24.2781 O   0  0  0  0  0  0  0  0  0  0  0  0
   11.2077  -19.4804   23.2552 N   0  0  0  0  0  0  0  0  0  0  0  0
   11.7278  -18.3430   23.9211 C   0  0  0  0  0  0  0  0  0  0  0  0
   12.9444  -18.3238   24.2122 O   0  0  0  0  0  0  0  0  0  0  0  0
   10.8337  -17.2269   24.2490 C   0  0  0  0  0  0  0  0  0  0  0  0
   10.1009  -17.3643   25.5486 C   0  0  2  0  0  0  0  0  0  0  0  0
    9.3162  -16.1624   25.7887 N   0  0  0  0  0  0  0  0  0  0  0  0
   11.0953  -17.6011   26.6040 C   0  0  0  0  0  0  0  0  0  0  0  0
   11.3164  -18.7592   26.9996 O   0  0  0  0  0  0  0  0  0  0  0  0
   11.7802  -16.5447   27.1535 O   0  0  0  0  0  0  0  0  0  0  0  0
  2  1  1  6
  2  3  1  0
  4  3  1  0
  5  2  1  0
  6  5  2  0
  8  7  1  1
  8 10  1  0
  9  8  1  0
 11 10  1  1
 11 12  1  0
 12  5  1  0
 13 11  1  0
 13 20  1  0
 14 13  2  0
 15 16  1  0
 16 17  2  0
 19 18  1  6
 18 16  1  0
 19 20  1  0
 19 21  1  0
 21 23  1  0
 22 21  2  0
M  END
$$$$
