CLN.pdb
     RDKit          3D

 23 22  0  0  1  0  0  0  0  0999 V2000
    7.1702  -16.8697   21.3746 N   0  0  0  0  0  0  0  0  0  0  0  0
    8.4667  -16.2301   21.3061 C   0  0  1  0  0  0  0  0  0  0  0  0
    8.5461  -15.3718   20.0625 C   0  0  0  0  0  0  0  0  0  0  0  0
    7.2789  -14.0835   20.1381 S   0  0  0  0  0  0  0  0  0  0  0  0
    8.7381  -15.4519   22.5255 C   0  0  0  0  0  0  0  0  0  0  0  0
    9.8834  -14.9577   22.6905 O   0  0  0  0  0  0  0  0  0  0  0  0
    5.3645  -12.4722   26.4359 C   0  0  0  0  0  0  0  0  0  0  0  0
    6.8426  -12.8973   26.2811 C   0  0  2  0  0  0  0  0  0  0  0  0
    7.6296  -11.6253   26.2930 C   0  0  0  0  0  0  0  0  0  0  0  0
    6.8965  -13.6686   25.0249 C   0  0  0  0  0  0  0  0  0  0  0  0
    8.1166  -14.4859   24.7520 C   0  0  2  0  0  0  0  0  0  0  0  0
    7.7746  -15.2341   23.5176 N   0  0  0  0  0  0  0  0  0  0  0  0
    8.4667  -15.4874   25.7668 C   0  0  0  0  0  0  0  0  0  0  0  0
    8.8650  -15.1191   26.8942 O   0  0  0  0  0  0  0  0  0  0  0  0
    8.1905  -19.3427   28.8350 N   0  0  0  0  0  0  0  0  0  0  0  0
    7.4762  -19.7125   27.6686 C   0  0  0  0  0  0  0  0  0  0  0  0
    6.6116  -20.6125   27.7560 O   0  0  0  0  0  0  0  0  0  0  0  0
    7.7666  -19.0361   26.3995 C   0  0  0  0  0  0  0  0  0  0  0  0
    8.7228  -17.8870   26.4995 C   0  0  2  0  0  0  0  0  0  0  0  0
    8.3670  -16.8768   25.5141 N   0  0  0  0  0  0  0  0  0  0  0  0
   10.0803  -18.4110   26.2958 C   0  0  0  0  0  0  0  0  0  0  0  0
   10.6017  -19.1361   27.1611 O   0  0  0  0  0  0  0  0  0  0  0  0
   10.7730  -18.1004   25.1508 O   0  0  0  0  0  0  0  0  0  0  0  0
  2  1  1  1
  2  3  1  0
  4  3  1  0
  5  2  1  0
  6  5  2  0
  8  7  1  6
  8 10  1  0
  9  8  1  0
 11 10  1  1
 11 12  1  0
 12  5  1  0
 13 11  1  0
 13 20  1  0
 14 13  2  0
 15 16  1  0
 16 17  2  0
 19 18  1  6
 18 16  1  0
 19 20  1  0
 19 21  1  0
 21 23  1  0
 22 21  2  0
M  END
$$$$
