CLN.pdb
     RDKit          3D

 23 22  0  0  1  0  0  0  0  0999 V2000
    7.5500  -16.4604   20.9861 N   0  0  0  0  0  0  0  0  0  0  0  0
    8.7896  -15.7138   21.0117 C   0  0  1  0  0  0  0  0  0  0  0  0
    8.7838  -14.6790   19.9077 C   0  0  0  0  0  0  0  0  0  0  0  0
    8.0903  -15.4066   18.4041 S   0  0  0  0  0  0  0  0  0  0  0  0
    9.0125  -15.1030   22.3321 C   0  0  0  0  0  0  0  0  0  0  0  0
   10.1161  -14.5464   22.5674 O   0  0  0  0  0  0  0  0  0  0  0  0
    5.4108  -12.6906   26.3845 C   0  0  0  0  0  0  0  0  0  0  0  0
    6.9089  -13.0460   26.2467 C   0  0  2  0  0  0  0  0  0  0  0  0
    7.6409  -11.7452   26.3452 C   0  0  0  0  0  0  0  0  0  0  0  0
    7.0256  -13.7469   24.9540 C   0  0  0  0  0  0  0  0  0  0  0  0
    8.3089  -14.4460   24.6452 C   0  0  2  0  0  0  0  0  0  0  0  0
    8.0471  -15.1124   23.3459 N   0  0  0  0  0  0  0  0  0  0  0  0
    8.7156  -15.4996   25.5832 C   0  0  0  0  0  0  0  0  0  0  0  0
    8.9380  -15.2153   26.7811 O   0  0  0  0  0  0  0  0  0  0  0  0
    6.4389  -18.1221   26.6364 N   0  0  0  0  0  0  0  0  0  0  0  0
    7.0541  -19.0456   25.7554 C   0  0  0  0  0  0  0  0  0  0  0  0
    6.3263  -19.7384   25.0102 O   0  0  0  0  0  0  0  0  0  0  0  0
    8.5164  -19.1641   25.7400 C   0  0  0  0  0  0  0  0  0  0  0  0
    9.2565  -17.9098   26.0917 C   0  0  2  0  0  0  0  0  0  0  0  0
    8.8661  -16.8474   25.1769 N   0  0  0  0  0  0  0  0  0  0  0  0
   10.6950  -18.2017   26.0260 C   0  0  0  0  0  0  0  0  0  0  0  0
   11.2335  -18.8727   26.9239 O   0  0  0  0  0  0  0  0  0  0  0  0
   11.4446  -17.7339   24.9741 O   0  0  0  0  0  0  0  0  0  0  0  0
  2  1  1  1
  2  3  1  0
  4  3  1  0
  5  2  1  0
  6  5  2  0
  8  7  1  6
  8 10  1  0
  9  8  1  0
 11 10  1  1
 11 12  1  0
 12  5  1  0
 13 11  1  0
 13 20  1  0
 14 13  2  0
 15 16  1  0
 16 17  2  0
 19 18  1  6
 18 16  1  0
 19 20  1  0
 19 21  1  0
 21 23  1  0
 22 21  2  0
M  END
$$$$
