CLN.pdb
     RDKit          3D

 23 22  0  0  1  0  0  0  0  0999 V2000
    6.8618  -15.2164   21.1190 N   0  0  0  0  0  0  0  0  0  0  0  0
    8.1862  -14.6353   21.0655 C   0  0  1  0  0  0  0  0  0  0  0  0
    8.1439  -13.3428   20.2796 C   0  0  0  0  0  0  0  0  0  0  0  0
    6.9639  -13.5041   18.9185 S   0  0  0  0  0  0  0  0  0  0  0  0
    8.7315  -14.4350   22.4178 C   0  0  0  0  0  0  0  0  0  0  0  0
    9.9337  -14.0858   22.5444 O   0  0  0  0  0  0  0  0  0  0  0  0
    7.8755  -11.6974   25.9151 C   0  0  0  0  0  0  0  0  0  0  0  0
    6.8352  -12.7676   25.5125 C   0  0  2  0  0  0  0  0  0  0  0  0
    5.6108  -12.4591   26.3145 C   0  0  0  0  0  0  0  0  0  0  0  0
    7.4775  -14.0635   25.8023 C   0  0  0  0  0  0  0  0  0  0  0  0
    8.5965  -14.5082   24.9184 C   0  0  2  0  0  0  0  0  0  0  0  0
    7.9697  -14.6162   23.5783 N   0  0  0  0  0  0  0  0  0  0  0  0
    9.1764  -15.8232   25.2181 C   0  0  0  0  0  0  0  0  0  0  0  0
    8.4582  -16.7247   25.7048 O   0  0  0  0  0  0  0  0  0  0  0  0
   11.9520  -20.1155   25.1156 N   0  0  0  0  0  0  0  0  0  0  0  0
   10.8842  -19.7785   24.2472 C   0  0  0  0  0  0  0  0  0  0  0  0
   10.3841  -20.6780   23.5359 O   0  0  0  0  0  0  0  0  0  0  0  0
   10.3971  -18.3952   24.2052 C   0  0  0  0  0  0  0  0  0  0  0  0
   11.1034  -17.4476   25.1260 C   0  0  2  0  0  0  0  0  0  0  0  0
   10.5396  -16.1149   24.9711 N   0  0  0  0  0  0  0  0  0  0  0  0
   12.5360  -17.4880   24.8021 C   0  0  0  0  0  0  0  0  0  0  0  0
   13.1932  -18.5204   25.0232 O   0  0  0  0  0  0  0  0  0  0  0  0
   13.1492  -16.3868   24.2557 O   0  0  0  0  0  0  0  0  0  0  0  0
  2  1  1  1
  2  3  1  0
  4  3  1  0
  5  2  1  0
  6  5  2  0
  8  7  1  1
  8 10  1  0
  9  8  1  0
 11 10  1  1
 11 12  1  0
 12  5  1  0
 13 11  1  0
 13 20  1  0
 14 13  2  0
 15 16  1  0
 16 17  2  0
 19 18  1  6
 18 16  1  0
 19 20  1  0
 19 21  1  0
 21 23  1  0
 22 21  2  0
M  END
$$$$
