CLN.pdb
     RDKit          3D

 23 22  0  0  1  0  0  0  0  0999 V2000
   11.3309  -17.8091   17.8774 N   0  0  0  0  0  0  0  0  0  0  0  0
   10.0751  -17.5855   18.5613 C   0  0  1  0  0  0  0  0  0  0  0  0
    9.5342  -18.9016   19.0761 C   0  0  0  0  0  0  0  0  0  0  0  0
   10.3909  -19.3479   20.6052 S   0  0  0  0  0  0  0  0  0  0  0  0
   10.2293  -16.5980   19.6417 C   0  0  0  0  0  0  0  0  0  0  0  0
   11.3877  -16.2474   19.9859 O   0  0  0  0  0  0  0  0  0  0  0  0
    8.9361  -12.4396   19.5055 C   0  0  0  0  0  0  0  0  0  0  0  0
    7.8556  -13.5201   19.7396 C   0  0  2  0  0  0  0  0  0  0  0  0
    6.5445  -12.8184   19.5783 C   0  0  0  0  0  0  0  0  0  0  0  0
    8.1290  -14.0590   21.0853 C   0  0  0  0  0  0  0  0  0  0  0  0
    9.3403  -14.9133   21.2691 C   0  0  2  0  0  0  0  0  0  0  0  0
    9.1395  -16.0264   20.3093 N   0  0  0  0  0  0  0  0  0  0  0  0
    9.5077  -15.5253   22.5930 C   0  0  0  0  0  0  0  0  0  0  0  0
    9.8177  -14.8133   23.5739 O   0  0  0  0  0  0  0  0  0  0  0  0
    6.4286  -18.9301   22.8081 N   0  0  0  0  0  0  0  0  0  0  0  0
    7.0807  -18.4059   23.9516 C   0  0  0  0  0  0  0  0  0  0  0  0
    6.4235  -17.6916   24.7410 O   0  0  0  0  0  0  0  0  0  0  0  0
    8.4976  -18.7118   24.1783 C   0  0  0  0  0  0  0  0  0  0  0  0
    9.4170  -17.5303   24.1203 C   0  0  2  0  0  0  0  0  0  0  0  0
    9.3263  -16.9133   22.8053 N   0  0  0  0  0  0  0  0  0  0  0  0
   10.7755  -18.0010   24.4229 C   0  0  0  0  0  0  0  0  0  0  0  0
   11.0246  -18.5059   25.5316 O   0  0  0  0  0  0  0  0  0  0  0  0
   11.7698  -17.8835   23.4822 O   0  0  0  0  0  0  0  0  0  0  0  0
  2  1  1  1
  2  3  1  0
  4  3  1  0
  5  2  1  0
  6  5  2  0
  8  7  1  1
  8 10  1  0
  9  8  1  0
 11 10  1  1
 11 12  1  0
 12  5  1  0
 13 11  1  0
 13 20  1  0
 14 13  2  0
 15 16  1  0
 16 17  2  0
 19 18  1  6
 18 16  1  0
 19 20  1  0
 19 21  1  0
 21 23  1  0
 22 21  2  0
M  END
$$$$
