CLN.pdb
     RDKit          3D

 23 22  0  0  1  0  0  0  0  0999 V2000
    7.8263  -15.4348   20.3044 N   0  0  0  0  0  0  0  0  0  0  0  0
    7.3219  -15.8121   21.6074 C   0  0  1  0  0  0  0  0  0  0  0  0
    7.3393  -17.3191   21.7434 C   0  0  0  0  0  0  0  0  0  0  0  0
    6.1987  -18.0452   20.5421 S   0  0  0  0  0  0  0  0  0  0  0  0
    8.0868  -15.1577   22.6811 C   0  0  0  0  0  0  0  0  0  0  0  0
    9.2597  -14.7689   22.4436 O   0  0  0  0  0  0  0  0  0  0  0  0
    7.3050  -11.4176   25.2610 C   0  0  0  0  0  0  0  0  0  0  0  0
    6.4002  -12.6468   25.5059 C   0  0  2  0  0  0  0  0  0  0  0  0
    5.3878  -12.2056   26.5148 C   0  0  0  0  0  0  0  0  0  0  0  0
    7.3120  -13.7201   25.9450 C   0  0  0  0  0  0  0  0  0  0  0  0
    8.3474  -14.2023   24.9824 C   0  0  2  0  0  0  0  0  0  0  0  0
    7.5669  -14.9461   23.9636 N   0  0  0  0  0  0  0  0  0  0  0  0
    9.3427  -15.1401   25.5162 C   0  0  0  0  0  0  0  0  0  0  0  0
   10.0093  -14.8316   26.5290 O   0  0  0  0  0  0  0  0  0  0  0  0
   12.1894  -19.1441   26.8728 N   0  0  0  0  0  0  0  0  0  0  0  0
   10.9138  -18.8571   27.4189 C   0  0  0  0  0  0  0  0  0  0  0  0
   10.5290  -19.5078   28.4157 O   0  0  0  0  0  0  0  0  0  0  0  0
   10.0846  -17.8132   26.8063 C   0  0  0  0  0  0  0  0  0  0  0  0
   10.5359  -17.3611   25.4511 C   0  0  2  0  0  0  0  0  0  0  0  0
    9.5789  -16.4021   24.9196 N   0  0  0  0  0  0  0  0  0  0  0  0
   10.6650  -18.5509   24.5987 C   0  0  0  0  0  0  0  0  0  0  0  0
    9.8870  -18.7167   23.6429 O   0  0  0  0  0  0  0  0  0  0  0  0
   11.6440  -19.4793   24.8570 O   0  0  0  0  0  0  0  0  0  0  0  0
  2  1  1  6
  2  3  1  0
  4  3  1  0
  5  2  1  0
  6  5  2  0
  8  7  1  1
  8 10  1  0
  9  8  1  0
 11 10  1  1
 11 12  1  0
 12  5  1  0
 13 11  1  0
 13 20  1  0
 14 13  2  0
 15 16  1  0
 16 17  2  0
 19 18  1  1
 18 16  1  0
 19 20  1  0
 19 21  1  0
 21 23  1  0
 22 21  2  0
M  END
$$$$
