CLN.pdb
     RDKit          3D

 23 22  0  0  1  0  0  0  0  0999 V2000
    6.6977  -16.4682   22.5383 N   0  0  0  0  0  0  0  0  0  0  0  0
    7.8511  -15.6793   22.1614 C   0  0  1  0  0  0  0  0  0  0  0  0
    7.4276  -14.5784   21.2136 C   0  0  0  0  0  0  0  0  0  0  0  0
    6.5189  -15.2965   19.8244 S   0  0  0  0  0  0  0  0  0  0  0  0
    8.5374  -15.1444   23.3485 C   0  0  0  0  0  0  0  0  0  0  0  0
    9.6714  -14.6168   23.2105 O   0  0  0  0  0  0  0  0  0  0  0  0
    7.8024  -11.6574   25.4982 C   0  0  0  0  0  0  0  0  0  0  0  0
    6.8752  -12.8717   25.7337 C   0  0  2  0  0  0  0  0  0  0  0  0
    5.6673  -12.3261   26.4271 C   0  0  0  0  0  0  0  0  0  0  0  0
    7.6799  -13.8304   26.5143 C   0  0  0  0  0  0  0  0  0  0  0  0
    8.7147  -14.6316   25.7944 C   0  0  2  0  0  0  0  0  0  0  0  0
    7.9837  -15.1955   24.6332 N   0  0  0  0  0  0  0  0  0  0  0  0
    9.2798  -15.7705   26.5284 C   0  0  0  0  0  0  0  0  0  0  0  0
    9.8115  -15.5894   27.6463 O   0  0  0  0  0  0  0  0  0  0  0  0
    6.5380  -18.9732   26.7713 N   0  0  0  0  0  0  0  0  0  0  0  0
    7.7608  -19.2415   27.4350 C   0  0  0  0  0  0  0  0  0  0  0  0
    7.7565  -19.3379   28.6824 O   0  0  0  0  0  0  0  0  0  0  0  0
    8.9896  -19.3979   26.6488 C   0  0  0  0  0  0  0  0  0  0  0  0
    9.9034  -18.2107   26.6605 C   0  0  2  0  0  0  0  0  0  0  0  0
    9.2432  -17.0879   26.0112 N   0  0  0  0  0  0  0  0  0  0  0  0
   11.1489  -18.5937   25.9816 C   0  0  0  0  0  0  0  0  0  0  0  0
   11.8704  -19.4838   26.4647 O   0  0  0  0  0  0  0  0  0  0  0  0
   11.5162  -17.9694   24.8143 O   0  0  0  0  0  0  0  0  0  0  0  0
  2  1  1  1
  2  3  1  0
  4  3  1  0
  5  2  1  0
  6  5  2  0
  8  7  1  1
  8 10  1  0
  9  8  1  0
 11 10  1  1
 11 12  1  0
 12  5  1  0
 13 11  1  0
 13 20  1  0
 14 13  2  0
 15 16  1  0
 16 17  2  0
 19 18  1  6
 18 16  1  0
 19 20  1  0
 19 21  1  0
 21 23  1  0
 22 21  2  0
M  END
$$$$
