CLN.pdb
     RDKit          3D

 23 22  0  0  1  0  0  0  0  0999 V2000
    7.7543  -15.7164   20.7256 N   0  0  0  0  0  0  0  0  0  0  0  0
    6.8892  -15.8999   21.8713 C   0  0  1  0  0  0  0  0  0  0  0  0
    6.2792  -17.2841   21.8323 C   0  0  0  0  0  0  0  0  0  0  0  0
    5.1985  -17.4254   20.3890 S   0  0  0  0  0  0  0  0  0  0  0  0
    7.6164  -15.6583   23.1279 C   0  0  0  0  0  0  0  0  0  0  0  0
    8.8304  -15.9811   23.2009 O   0  0  0  0  0  0  0  0  0  0  0  0
    8.0379  -11.8960   24.8171 C   0  0  0  0  0  0  0  0  0  0  0  0
    6.7489  -12.6285   25.2547 C   0  0  2  0  0  0  0  0  0  0  0  0
    5.8894  -11.5830   25.8916 C   0  0  0  0  0  0  0  0  0  0  0  0
    7.2010  -13.7126   26.1471 C   0  0  0  0  0  0  0  0  0  0  0  0
    7.7688  -14.9462   25.5250 C   0  0  2  0  0  0  0  0  0  0  0  0
    7.0164  -15.0820   24.2538 N   0  0  0  0  0  0  0  0  0  0  0  0
    7.5696  -16.1973   26.2668 C   0  0  0  0  0  0  0  0  0  0  0  0
    6.4585  -16.7715   26.2332 O   0  0  0  0  0  0  0  0  0  0  0  0
    7.3804  -21.1745   26.6052 N   0  0  0  0  0  0  0  0  0  0  0  0
    8.6106  -20.4923   26.4356 C   0  0  0  0  0  0  0  0  0  0  0  0
    9.6736  -21.1483   26.5042 O   0  0  0  0  0  0  0  0  0  0  0  0
    8.6057  -19.0465   26.1859 C   0  0  0  0  0  0  0  0  0  0  0  0
    8.5987  -18.1921   27.4167 C   0  0  2  0  0  0  0  0  0  0  0  0
    8.6051  -16.7893   27.0295 N   0  0  0  0  0  0  0  0  0  0  0  0
    9.7727  -18.5534   28.2229 C   0  0  0  0  0  0  0  0  0  0  0  0
   10.9155  -18.2993   27.8034 O   0  0  0  0  0  0  0  0  0  0  0  0
    9.6086  -19.1712   29.4389 O   0  0  0  0  0  0  0  0  0  0  0  0
  2  1  1  6
  2  3  1  0
  4  3  1  0
  5  2  1  0
  6  5  2  0
  8  7  1  1
  8 10  1  0
  9  8  1  0
 11 10  1  1
 11 12  1  0
 12  5  1  0
 13 11  1  0
 13 20  1  0
 14 13  2  0
 15 16  1  0
 16 17  2  0
 19 18  1  6
 18 16  1  0
 19 20  1  0
 19 21  1  0
 21 23  1  0
 22 21  2  0
M  END
$$$$
