CLN.pdb
     RDKit          3D

 23 22  0  0  1  0  0  0  0  0999 V2000
    7.6062  -15.4660   20.4817 N   0  0  0  0  0  0  0  0  0  0  0  0
    7.2733  -15.9242   21.8136 C   0  0  1  0  0  0  0  0  0  0  0  0
    7.6507  -17.3823   21.9597 C   0  0  0  0  0  0  0  0  0  0  0  0
    6.2166  -18.3203   22.5385 S   0  0  0  0  0  0  0  0  0  0  0  0
    7.9185  -15.0874   22.8381 C   0  0  0  0  0  0  0  0  0  0  0  0
    9.0609  -14.6134   22.6067 O   0  0  0  0  0  0  0  0  0  0  0  0
    7.4794  -11.1468   25.3343 C   0  0  0  0  0  0  0  0  0  0  0  0
    6.3380  -12.1845   25.4353 C   0  0  2  0  0  0  0  0  0  0  0  0
    5.3174  -11.5719   26.3411 C   0  0  0  0  0  0  0  0  0  0  0  0
    6.9757  -13.4174   25.9347 C   0  0  0  0  0  0  0  0  0  0  0  0
    8.0549  -14.0366   25.1083 C   0  0  2  0  0  0  0  0  0  0  0  0
    7.3163  -14.7918   24.0668 N   0  0  0  0  0  0  0  0  0  0  0  0
    8.9221  -15.0034   25.7928 C   0  0  0  0  0  0  0  0  0  0  0  0
    9.6278  -14.6336   26.7574 O   0  0  0  0  0  0  0  0  0  0  0  0
   11.3917  -19.4673   27.0082 N   0  0  0  0  0  0  0  0  0  0  0  0
   10.1678  -19.7850   26.3689 C   0  0  0  0  0  0  0  0  0  0  0  0
    9.8440  -20.9885   26.2597 O   0  0  0  0  0  0  0  0  0  0  0  0
    9.3193  -18.7036   25.8559 C   0  0  0  0  0  0  0  0  0  0  0  0
    9.8798  -17.3247   26.0267 C   0  0  2  0  0  0  0  0  0  0  0  0
    8.9892  -16.3611   25.3972 N   0  0  0  0  0  0  0  0  0  0  0  0
   11.2253  -17.3087   25.4366 C   0  0  0  0  0  0  0  0  0  0  0  0
   12.1305  -17.9991   25.9371 O   0  0  0  0  0  0  0  0  0  0  0  0
   11.4835  -16.5321   24.3332 O   0  0  0  0  0  0  0  0  0  0  0  0
  2  1  1  6
  2  3  1  0
  4  3  1  0
  5  2  1  0
  6  5  2  0
  8  7  1  1
  8 10  1  0
  9  8  1  0
 11 10  1  1
 11 12  1  0
 12  5  1  0
 13 11  1  0
 13 20  1  0
 14 13  2  0
 15 16  1  0
 16 17  2  0
 19 18  1  6
 18 16  1  0
 19 20  1  0
 19 21  1  0
 21 23  1  0
 22 21  2  0
M  END
$$$$
