CLN.pdb
     RDKit          3D

 23 22  0  0  1  0  0  0  0  0999 V2000
   10.7678  -17.7712   17.2480 N   0  0  0  0  0  0  0  0  0  0  0  0
    9.8812  -17.7720   18.3919 C   0  0  1  0  0  0  0  0  0  0  0  0
    9.9858  -19.0963   19.1164 C   0  0  0  0  0  0  0  0  0  0  0  0
    9.2390  -20.3966   18.1051 S   0  0  0  0  0  0  0  0  0  0  0  0
   10.1669  -16.6369   19.2840 C   0  0  0  0  0  0  0  0  0  0  0  0
   11.3457  -16.2032   19.3597 O   0  0  0  0  0  0  0  0  0  0  0  0
    8.5061  -12.4922   19.3000 C   0  0  0  0  0  0  0  0  0  0  0  0
    7.5942  -13.6287   19.8163 C   0  0  2  0  0  0  0  0  0  0  0  0
    6.2424  -13.0119   19.9886 C   0  0  0  0  0  0  0  0  0  0  0  0
    8.2367  -14.1121   21.0529 C   0  0  0  0  0  0  0  0  0  0  0  0
    9.5223  -14.8630   20.9316 C   0  0  2  0  0  0  0  0  0  0  0  0
    9.1816  -16.0125   20.0580 N   0  0  0  0  0  0  0  0  0  0  0  0
   10.0644  -15.4260   22.1743 C   0  0  0  0  0  0  0  0  0  0  0  0
    9.5665  -15.1006   23.2750 O   0  0  0  0  0  0  0  0  0  0  0  0
   12.4110  -18.3126   25.7127 N   0  0  0  0  0  0  0  0  0  0  0  0
   11.0984  -18.5226   25.2221 C   0  0  0  0  0  0  0  0  0  0  0  0
   10.3505  -19.3173   25.8339 O   0  0  0  0  0  0  0  0  0  0  0  0
   10.6544  -17.8086   24.0198 C   0  0  0  0  0  0  0  0  0  0  0  0
   11.6876  -16.9240   23.3917 C   0  0  2  0  0  0  0  0  0  0  0  0
   11.1458  -16.3398   22.1738 N   0  0  0  0  0  0  0  0  0  0  0  0
   12.8831  -17.7388   23.1353 C   0  0  0  0  0  0  0  0  0  0  0  0
   13.5270  -18.2125   24.0879 O   0  0  0  0  0  0  0  0  0  0  0  0
   13.2893  -17.9773   21.8448 O   0  0  0  0  0  0  0  0  0  0  0  0
  2  1  1  6
  2  3  1  0
  4  3  1  0
  5  2  1  0
  6  5  2  0
  8  7  1  1
  8 10  1  0
  9  8  1  0
 11 10  1  1
 11 12  1  0
 12  5  1  0
 13 11  1  0
 13 20  1  0
 14 13  2  0
 15 16  1  0
 16 17  2  0
 19 18  1  6
 18 16  1  0
 19 20  1  0
 19 21  1  0
 21 23  1  0
 22 21  2  0
M  END
$$$$
