CLN.pdb
     RDKit          3D

 23 22  0  0  1  0  0  0  0  0999 V2000
    8.5330  -15.1982   20.2926 N   0  0  0  0  0  0  0  0  0  0  0  0
    7.7455  -15.7403   21.3792 C   0  0  1  0  0  0  0  0  0  0  0  0
    7.5222  -17.2204   21.1571 C   0  0  0  0  0  0  0  0  0  0  0  0
    6.3184  -17.4549   19.8279 S   0  0  0  0  0  0  0  0  0  0  0  0
    8.3818  -15.4726   22.6790 C   0  0  0  0  0  0  0  0  0  0  0  0
    9.6365  -15.5151   22.7635 O   0  0  0  0  0  0  0  0  0  0  0  0
    8.2209  -11.9224   25.5449 C   0  0  0  0  0  0  0  0  0  0  0  0
    6.9513  -12.7951   25.4177 C   0  0  2  0  0  0  0  0  0  0  0  0
    5.9000  -12.0935   26.2177 C   0  0  0  0  0  0  0  0  0  0  0  0
    7.3443  -14.1285   25.9113 C   0  0  0  0  0  0  0  0  0  0  0  0
    8.3436  -14.9064   25.1193 C   0  0  2  0  0  0  0  0  0  0  0  0
    7.6510  -15.1707   23.8344 N   0  0  0  0  0  0  0  0  0  0  0  0
    8.7287  -16.2134   25.6656 C   0  0  0  0  0  0  0  0  0  0  0  0
    7.8702  -17.1155   25.7868 O   0  0  0  0  0  0  0  0  0  0  0  0
   11.6475  -18.7443   23.9711 N   0  0  0  0  0  0  0  0  0  0  0  0
   12.3158  -17.9291   24.9180 C   0  0  0  0  0  0  0  0  0  0  0  0
   13.2267  -17.1705   24.5182 O   0  0  0  0  0  0  0  0  0  0  0  0
   11.9253  -17.9954   26.3307 C   0  0  0  0  0  0  0  0  0  0  0  0
   10.4647  -17.7901   26.5936 C   0  0  2  0  0  0  0  0  0  0  0  0
   10.0570  -16.4969   26.0649 N   0  0  0  0  0  0  0  0  0  0  0  0
   10.2487  -17.8931   28.0432 C   0  0  0  0  0  0  0  0  0  0  0  0
    9.8109  -16.9163   28.6762 O   0  0  0  0  0  0  0  0  0  0  0  0
   10.5299  -19.0670   28.6991 O   0  0  0  0  0  0  0  0  0  0  0  0
  2  1  1  6
  2  3  1  0
  4  3  1  0
  5  2  1  0
  6  5  2  0
  8  7  1  1
  8 10  1  0
  9  8  1  0
 11 10  1  1
 11 12  1  0
 12  5  1  0
 13 11  1  0
 13 20  1  0
 14 13  2  0
 15 16  1  0
 16 17  2  0
 19 18  1  1
 18 16  1  0
 19 20  1  0
 19 21  1  0
 21 23  1  0
 22 21  2  0
M  END
$$$$
