CLN.pdb
     RDKit          3D

 23 22  0  0  1  0  0  0  0  0999 V2000
    7.2977  -15.5316   20.7535 N   0  0  0  0  0  0  0  0  0  0  0  0
    6.8829  -15.9150   22.0860 C   0  0  1  0  0  0  0  0  0  0  0  0
    6.8868  -17.4234   22.2063 C   0  0  0  0  0  0  0  0  0  0  0  0
    6.1848  -17.9018   23.8031 S   0  0  0  0  0  0  0  0  0  0  0  0
    7.7334  -15.2831   23.1076 C   0  0  0  0  0  0  0  0  0  0  0  0
    8.9183  -14.9802   22.8115 O   0  0  0  0  0  0  0  0  0  0  0  0
    7.5027  -11.4185   25.1629 C   0  0  0  0  0  0  0  0  0  0  0  0
    6.4445  -12.4461   25.6253 C   0  0  2  0  0  0  0  0  0  0  0  0
    5.5354  -11.6987   26.5484 C   0  0  0  0  0  0  0  0  0  0  0  0
    7.2121  -13.5462   26.2389 C   0  0  0  0  0  0  0  0  0  0  0  0
    8.1629  -14.3089   25.3754 C   0  0  2  0  0  0  0  0  0  0  0  0
    7.2827  -15.0013   24.4027 N   0  0  0  0  0  0  0  0  0  0  0  0
    8.9526  -15.3508   26.0432 C   0  0  0  0  0  0  0  0  0  0  0  0
    9.7596  -15.0381   26.9467 O   0  0  0  0  0  0  0  0  0  0  0  0
    6.5299  -19.5634   26.5468 N   0  0  0  0  0  0  0  0  0  0  0  0
    7.7725  -19.1600   27.0953 C   0  0  0  0  0  0  0  0  0  0  0  0
    7.8295  -18.8924   28.3161 O   0  0  0  0  0  0  0  0  0  0  0  0
    8.9498  -19.0675   26.2247 C   0  0  0  0  0  0  0  0  0  0  0  0
    9.6732  -17.7565   26.2764 C   0  0  2  0  0  0  0  0  0  0  0  0
    8.8318  -16.7188   25.6989 N   0  0  0  0  0  0  0  0  0  0  0  0
   10.9420  -17.9128   25.5521 C   0  0  0  0  0  0  0  0  0  0  0  0
   11.7899  -18.7284   25.9550 O   0  0  0  0  0  0  0  0  0  0  0  0
   11.1917  -17.1590   24.4311 O   0  0  0  0  0  0  0  0  0  0  0  0
  2  1  1  6
  2  3  1  0
  4  3  1  0
  5  2  1  0
  6  5  2  0
  8  7  1  1
  8 10  1  0
  9  8  1  0
 11 10  1  1
 11 12  1  0
 12  5  1  0
 13 11  1  0
 13 20  1  0
 14 13  2  0
 15 16  1  0
 16 17  2  0
 19 18  1  6
 18 16  1  0
 19 20  1  0
 19 21  1  0
 21 23  1  0
 22 21  2  0
M  END
$$$$
