CLN.pdb
     RDKit          3D

 23 22  0  0  1  0  0  0  0  0999 V2000
    7.9642  -15.6054   20.8929 N   0  0  0  0  0  0  0  0  0  0  0  0
    7.1585  -15.6520   22.0943 C   0  0  1  0  0  0  0  0  0  0  0  0
    6.7351  -17.0786   22.3685 C   0  0  0  0  0  0  0  0  0  0  0  0
    8.1734  -18.0442   22.8883 S   0  0  0  0  0  0  0  0  0  0  0  0
    7.8776  -15.0661   23.2370 C   0  0  0  0  0  0  0  0  0  0  0  0
    9.1264  -14.9296   23.1657 O   0  0  0  0  0  0  0  0  0  0  0  0
    7.5826  -11.1137   25.3582 C   0  0  0  0  0  0  0  0  0  0  0  0
    6.4070  -12.0889   25.5959 C   0  0  2  0  0  0  0  0  0  0  0  0
    5.4009  -11.3187   26.3909 C   0  0  0  0  0  0  0  0  0  0  0  0
    7.0001  -13.2553   26.2769 C   0  0  0  0  0  0  0  0  0  0  0  0
    8.0069  -14.0691   25.5318 C   0  0  2  0  0  0  0  0  0  0  0  0
    7.2326  -14.6506   24.4079 N   0  0  0  0  0  0  0  0  0  0  0  0
    8.5983  -15.1969   26.2623 C   0  0  0  0  0  0  0  0  0  0  0  0
    9.2124  -14.9924   27.3330 O   0  0  0  0  0  0  0  0  0  0  0  0
    7.4691  -20.8442   27.6024 N   0  0  0  0  0  0  0  0  0  0  0  0
    8.1208  -19.6186   27.8866 C   0  0  0  0  0  0  0  0  0  0  0  0
    8.9687  -19.5904   28.8061 O   0  0  0  0  0  0  0  0  0  0  0  0
    7.7872  -18.4247   27.1019 C   0  0  0  0  0  0  0  0  0  0  0  0
    8.9653  -17.6742   26.5602 C   0  0  2  0  0  0  0  0  0  0  0  0
    8.4964  -16.5291   25.7941 N   0  0  0  0  0  0  0  0  0  0  0  0
    9.7563  -18.6051   25.7438 C   0  0  0  0  0  0  0  0  0  0  0  0
    9.7404  -18.5105   24.5040 O   0  0  0  0  0  0  0  0  0  0  0  0
   10.5127  -19.5792   26.3491 O   0  0  0  0  0  0  0  0  0  0  0  0
  2  1  1  6
  2  3  1  0
  4  3  1  0
  5  2  1  0
  6  5  2  0
  8  7  1  1
  8 10  1  0
  9  8  1  0
 11 10  1  1
 11 12  1  0
 12  5  1  0
 13 11  1  0
 13 20  1  0
 14 13  2  0
 15 16  1  0
 16 17  2  0
 19 18  1  6
 18 16  1  0
 19 20  1  0
 19 21  1  0
 21 23  1  0
 22 21  2  0
M  END
$$$$
