GRR.pdb
     RDKit          3D

 27 26  0  0  1  0  0  0  0  0999 V2000
   25.1245  -25.2115  -14.4229 N   0  0  0  0  0  0  0  0  0  0  0  0
   25.8777  -24.1139  -13.8783 C   0  0  0  0  0  0  0  0  0  0  0  0
   25.0105  -23.0236  -13.3741 C   0  0  0  0  0  0  0  0  0  0  0  0
   23.8191  -22.9941  -13.7625 O   0  0  0  0  0  0  0  0  0  0  0  0
   28.2739  -20.2474   -8.3026 N   0  0  0  0  0  0  0  0  0  0  0  0
   27.2623  -19.8131   -7.3704 C   0  0  0  0  0  0  0  0  0  0  0  0
   27.6040  -19.3874   -6.2238 N   0  0  0  0  0  0  0  0  0  0  0  0
   25.8829  -19.8569   -7.7162 N   0  0  0  0  0  0  0  0  0  0  0  0
   25.3640  -20.7559   -8.7181 C   0  0  0  0  0  0  0  0  0  0  0  0
   26.1656  -20.7414  -10.0028 C   0  0  0  0  0  0  0  0  0  0  0  0
   25.4651  -20.0139  -11.1000 C   0  0  0  0  0  0  0  0  0  0  0  0
   24.7710  -20.8566  -12.1102 C   0  0  2  0  0  0  0  0  0  0  0  0
   25.4737  -22.0445  -12.4937 N   0  0  0  0  0  0  0  0  0  0  0  0
   24.4874  -19.9671  -13.2813 C   0  0  0  0  0  0  0  0  0  0  0  0
   25.3989  -19.8639  -14.1369 O   0  0  0  0  0  0  0  0  0  0  0  0
   26.8809  -19.1472   -5.5203 N   0  0  0  0  0  0  0  0  0  0  0  0
   20.8917  -24.3022  -18.5232 C   0  0  0  0  0  0  0  0  0  0  0  0
   20.7877  -23.0725  -19.2426 N   0  0  0  0  0  0  0  0  0  0  0  0
   20.4411  -23.0717  -20.4784 N   0  0  0  0  0  0  0  0  0  0  0  0
   21.0752  -21.8505  -18.5619 C   0  0  0  0  0  0  0  0  0  0  0  0
   21.6291  -21.8996  -17.2356 C   0  0  0  0  0  0  0  0  0  0  0  0
   21.8797  -20.4905  -16.7228 C   0  0  0  0  0  0  0  0  0  0  0  0
   22.5102  -20.5052  -15.3682 C   0  0  1  0  0  0  0  0  0  0  0  0
   22.7634  -19.1234  -14.8176 N   0  0  0  0  0  0  0  0  0  0  0  0
   23.2930  -19.2736  -13.4552 C   0  0  0  0  0  0  0  0  0  0  0  0
   21.5223  -18.3395  -14.7175 O   0  0  0  0  0  0  0  0  0  0  0  0
   20.8288  -18.3985  -13.6795 O   0  0  0  0  0  0  0  0  0  0  0  0
  2  1  1  0
  3  2  1  0
  4  3  2  0
  6  8  1  0
  6  5  1  0
  7  6  2  0
  9  8  1  0
 10 11  1  0
 10  9  1  0
 12 11  1  1
 12 13  1  0
 13  3  1  0
 14 15  2  0
 14 12  1  0
 16 17  1  0
 17 18  2  0
 19 17  1  0
 19 20  1  0
 21 20  1  0
 22 21  1  0
 23 22  1  6
 23 24  1  0
 24 14  1  0
 25 27  1  0
 25 23  1  0
 26 25  2  0
M  END
$$$$
