GRR.pdb
     RDKit          3D

 27 26  0  0  1  0  0  0  0  0999 V2000
   25.4249  -21.2469  -14.5641 N   0  0  0  0  0  0  0  0  0  0  0  0
   25.3947  -22.6616  -14.3062 C   0  0  0  0  0  0  0  0  0  0  0  0
   24.5913  -23.4048  -15.3049 C   0  0  0  0  0  0  0  0  0  0  0  0
   23.9272  -22.7411  -16.1353 O   0  0  0  0  0  0  0  0  0  0  0  0
   28.5667  -28.3460  -16.9576 N   0  0  0  0  0  0  0  0  0  0  0  0
   27.4049  -29.1203  -16.5948 C   0  0  0  0  0  0  0  0  0  0  0  0
   27.5036  -30.0272  -15.7115 N   0  0  0  0  0  0  0  0  0  0  0  0
   26.1465  -28.8841  -17.2153 N   0  0  0  0  0  0  0  0  0  0  0  0
   25.9688  -27.9010  -18.2560 C   0  0  0  0  0  0  0  0  0  0  0  0
   25.3815  -26.5998  -17.7511 C   0  0  0  0  0  0  0  0  0  0  0  0
   24.3086  -26.8171  -16.7386 C   0  0  0  0  0  0  0  0  0  0  0  0
   23.6863  -25.5935  -16.1659 C   0  0  2  0  0  0  0  0  0  0  0  0
   24.5532  -24.7995  -15.3475 N   0  0  0  0  0  0  0  0  0  0  0  0
   22.4679  -26.0461  -15.4218 C   0  0  0  0  0  0  0  0  0  0  0  0
   22.2334  -27.2785  -15.4331 O   0  0  0  0  0  0  0  0  0  0  0  0
   26.6651  -30.5622  -15.4179 N   0  0  0  0  0  0  0  0  0  0  0  0
   18.8164  -24.7901   -7.7009 C   0  0  0  0  0  0  0  0  0  0  0  0
   17.9737  -25.7110   -8.3954 N   0  0  0  0  0  0  0  0  0  0  0  0
   17.1864  -26.4875   -7.7438 N   0  0  0  0  0  0  0  0  0  0  0  0
   18.0245  -25.7492   -9.8220 C   0  0  0  0  0  0  0  0  0  0  0  0
   19.2359  -25.3589  -10.4917 C   0  0  0  0  0  0  0  0  0  0  0  0
   19.0537  -25.4566  -11.9979 C   0  0  0  0  0  0  0  0  0  0  0  0
   20.3008  -25.0729  -12.7260 C   0  0  1  0  0  0  0  0  0  0  0  0
   20.4386  -25.7547  -14.0649 N   0  0  0  0  0  0  0  0  0  0  0  0
   21.6131  -25.1851  -14.7395 C   0  0  0  0  0  0  0  0  0  0  0  0
   19.2753  -25.5011  -14.9294 O   0  0  0  0  0  0  0  0  0  0  0  0
   19.3308  -24.6114  -15.8054 O   0  0  0  0  0  0  0  0  0  0  0  0
  2  1  1  0
  3  2  1  0
  4  3  2  0
  6  8  1  0
  6  5  1  0
  7  6  2  0
  9  8  1  0
 10 11  1  0
 10  9  1  0
 12 11  1  1
 12 13  1  0
 13  3  1  0
 14 15  2  0
 14 12  1  0
 16 17  1  0
 17 18  2  0
 19 17  1  0
 19 20  1  0
 21 20  1  0
 22 21  1  0
 23 22  1  1
 23 24  1  0
 24 14  1  0
 25 27  1  0
 25 23  1  0
 26 25  2  0
M  END
$$$$
