GRR.pdb
     RDKit          3D

 27 26  0  0  1  0  0  0  0  0999 V2000
   26.0024  -24.0429  -15.1877 N   0  0  0  0  0  0  0  0  0  0  0  0
   24.9841  -23.4100  -15.9822 C   0  0  0  0  0  0  0  0  0  0  0  0
   24.0068  -22.6584  -15.1605 C   0  0  0  0  0  0  0  0  0  0  0  0
   24.1725  -22.6441  -13.9181 O   0  0  0  0  0  0  0  0  0  0  0  0
   20.9342  -14.8903  -15.0391 N   0  0  0  0  0  0  0  0  0  0  0  0
   20.0826  -15.7958  -15.7712 C   0  0  0  0  0  0  0  0  0  0  0  0
   18.9326  -15.4116  -16.1488 N   0  0  0  0  0  0  0  0  0  0  0  0
   20.5119  -17.1176  -16.0756 N   0  0  0  0  0  0  0  0  0  0  0  0
   19.6575  -18.2675  -15.9052 C   0  0  0  0  0  0  0  0  0  0  0  0
   20.2684  -19.3373  -15.0246 C   0  0  0  0  0  0  0  0  0  0  0  0
   21.3995  -20.0435  -15.6921 C   0  0  0  0  0  0  0  0  0  0  0  0
   21.9226  -21.2510  -14.9988 C   0  0  2  0  0  0  0  0  0  0  0  0
   22.9248  -21.9769  -15.7202 N   0  0  0  0  0  0  0  0  0  0  0  0
   20.7337  -22.1025  -14.6754 C   0  0  0  0  0  0  0  0  0  0  0  0
   20.1950  -22.6974  -15.6395 O   0  0  0  0  0  0  0  0  0  0  0  0
   18.6341  -14.4306  -15.9942 N   0  0  0  0  0  0  0  0  0  0  0  0
   21.2617  -28.7768  -11.0945 C   0  0  0  0  0  0  0  0  0  0  0  0
   21.7759  -27.9155  -12.1115 N   0  0  0  0  0  0  0  0  0  0  0  0
   22.7282  -28.3112  -12.8757 N   0  0  0  0  0  0  0  0  0  0  0  0
   21.2112  -26.6123  -12.2602 C   0  0  0  0  0  0  0  0  0  0  0  0
   20.1678  -26.1932  -11.3635 C   0  0  0  0  0  0  0  0  0  0  0  0
   19.1125  -25.4056  -12.1234 C   0  0  0  0  0  0  0  0  0  0  0  0
   19.2889  -23.9335  -11.9372 C   0  0  2  0  0  0  0  0  0  0  0  0
   19.0630  -23.1451  -13.2037 N   0  0  0  0  0  0  0  0  0  0  0  0
   20.2188  -22.2574  -13.3915 C   0  0  0  0  0  0  0  0  0  0  0  0
   17.8692  -22.2903  -13.1094 O   0  0  0  0  0  0  0  0  0  0  0  0
   17.9858  -21.0471  -13.1629 O   0  0  0  0  0  0  0  0  0  0  0  0
  2  1  1  0
  3  2  1  0
  4  3  2  0
  6  8  1  0
  6  5  1  0
  7  6  2  0
  9  8  1  0
 10 11  1  0
 10  9  1  0
 12 11  1  6
 12 13  1  0
 13  3  1  0
 14 15  2  0
 14 12  1  0
 16 17  1  0
 17 18  2  0
 19 17  1  0
 19 20  1  0
 21 20  1  0
 22 21  1  0
 23 22  1  6
 23 24  1  0
 24 14  1  0
 25 27  1  0
 25 23  1  0
 26 25  2  0
M  END
$$$$
