GRR.pdb
     RDKit          3D

 27 26  0  0  1  0  0  0  0  0999 V2000
   14.0279  -20.0412    1.8295 N   0  0  0  0  0  0  0  0  0  0  0  0
   13.7845  -21.4473    1.6499 C   0  0  0  0  0  0  0  0  0  0  0  0
   14.3099  -21.9555    0.3611 C   0  0  0  0  0  0  0  0  0  0  0  0
   15.0047  -21.1795   -0.3363 O   0  0  0  0  0  0  0  0  0  0  0  0
   16.5990  -30.2014   -0.2658 N   0  0  0  0  0  0  0  0  0  0  0  0
   16.4879  -29.3791    0.9142 C   0  0  0  0  0  0  0  0  0  0  0  0
   16.6044  -29.9077    2.0630 N   0  0  0  0  0  0  0  0  0  0  0  0
   16.2466  -27.9808    0.8104 N   0  0  0  0  0  0  0  0  0  0  0  0
   15.5587  -27.3953   -0.3144 C   0  0  0  0  0  0  0  0  0  0  0  0
   15.5471  -25.8814   -0.2823 C   0  0  0  0  0  0  0  0  0  0  0  0
   14.6532  -25.2991   -1.3242 C   0  0  0  0  0  0  0  0  0  0  0  0
   14.5197  -23.8177   -1.3238 C   0  0  2  0  0  0  0  0  0  0  0  0
   14.0581  -23.2516   -0.0916 N   0  0  0  0  0  0  0  0  0  0  0  0
   13.6232  -23.4726   -2.4728 C   0  0  0  0  0  0  0  0  0  0  0  0
   12.3933  -23.4343   -2.2287 O   0  0  0  0  0  0  0  0  0  0  0  0
   16.5395  -29.3210    2.9156 N   0  0  0  0  0  0  0  0  0  0  0  0
   14.5473  -20.0892  -10.7753 C   0  0  0  0  0  0  0  0  0  0  0  0
   13.3128  -19.6839  -10.1818 N   0  0  0  0  0  0  0  0  0  0  0  0
   12.6826  -18.6602  -10.6316 N   0  0  0  0  0  0  0  0  0  0  0  0
   12.7967  -20.4374   -9.0840 C   0  0  0  0  0  0  0  0  0  0  0  0
   13.6858  -20.8335   -8.0252 C   0  0  0  0  0  0  0  0  0  0  0  0
   12.9302  -21.6481   -6.9874 C   0  0  0  0  0  0  0  0  0  0  0  0
   13.8241  -22.0715   -5.8674 C   0  0  1  0  0  0  0  0  0  0  0  0
   13.1003  -22.8421   -4.7909 N   0  0  0  0  0  0  0  0  0  0  0  0
   14.0825  -23.2003   -3.7583 C   0  0  0  0  0  0  0  0  0  0  0  0
   12.5332  -24.0984   -5.3057 O   0  0  0  0  0  0  0  0  0  0  0  0
   13.1629  -25.1694   -5.1699 O   0  0  0  0  0  0  0  0  0  0  0  0
  2  1  1  0
  3  2  1  0
  4  3  2  0
  6  8  1  0
  6  5  1  0
  7  6  2  0
  9  8  1  0
 10 11  1  0
 10  9  1  0
 12 11  1  1
 12 13  1  0
 13  3  1  0
 14 15  2  0
 14 12  1  0
 16 17  1  0
 17 18  2  0
 19 17  1  0
 19 20  1  0
 21 20  1  0
 22 21  1  0
 23 22  1  1
 23 24  1  0
 24 14  1  0
 25 27  1  0
 25 23  1  0
 26 25  2  0
M  END
$$$$
