GRR.pdb
     RDKit          3D

 27 26  0  0  1  0  0  0  0  0999 V2000
   19.0617  -22.3297   -9.7741 N   0  0  0  0  0  0  0  0  0  0  0  0
   19.7680  -22.6144  -10.9942 C   0  0  0  0  0  0  0  0  0  0  0  0
   20.6996  -21.5284  -11.3788 C   0  0  0  0  0  0  0  0  0  0  0  0
   20.2681  -20.3517  -11.3627 O   0  0  0  0  0  0  0  0  0  0  0  0
   29.2423  -21.2536  -10.2538 N   0  0  0  0  0  0  0  0  0  0  0  0
   28.4729  -21.2151  -11.4735 C   0  0  0  0  0  0  0  0  0  0  0  0
   29.0669  -21.2713  -12.5945 N   0  0  0  0  0  0  0  0  0  0  0  0
   27.0542  -21.1122  -11.4395 N   0  0  0  0  0  0  0  0  0  0  0  0
   26.3095  -21.0831  -10.2043 C   0  0  0  0  0  0  0  0  0  0  0  0
   24.8287  -20.8405  -10.4080 C   0  0  0  0  0  0  0  0  0  0  0  0
   24.3957  -21.1190  -11.8075 C   0  0  0  0  0  0  0  0  0  0  0  0
   22.9846  -20.7854  -12.1387 C   0  0  2  0  0  0  0  0  0  0  0  0
   22.0220  -21.7733  -11.7524 N   0  0  0  0  0  0  0  0  0  0  0  0
   22.9486  -20.5091  -13.6103 C   0  0  0  0  0  0  0  0  0  0  0  0
   22.8985  -21.5103  -14.3646 O   0  0  0  0  0  0  0  0  0  0  0  0
   28.5218  -21.2291  -13.4757 N   0  0  0  0  0  0  0  0  0  0  0  0
   16.7578  -16.0853  -16.2720 C   0  0  0  0  0  0  0  0  0  0  0  0
   18.0037  -16.4068  -16.8925 N   0  0  0  0  0  0  0  0  0  0  0  0
   18.0275  -16.9600  -18.0504 N   0  0  0  0  0  0  0  0  0  0  0  0
   19.2157  -16.1011  -16.2020 C   0  0  0  0  0  0  0  0  0  0  0  0
   20.4745  -16.3354  -16.8568 C   0  0  0  0  0  0  0  0  0  0  0  0
   20.9697  -17.7392  -16.5476 C   0  0  0  0  0  0  0  0  0  0  0  0
   22.3223  -17.7150  -15.9132 C   0  0  2  0  0  0  0  0  0  0  0  0
   22.8628  -19.0924  -15.6177 N   0  0  0  0  0  0  0  0  0  0  0  0
   22.9666  -19.2297  -14.1584 C   0  0  0  0  0  0  0  0  0  0  0  0
   24.2140  -19.2789  -16.1691 O   0  0  0  0  0  0  0  0  0  0  0  0
   25.1945  -18.7367  -15.6153 O   0  0  0  0  0  0  0  0  0  0  0  0
  2  1  1  0
  3  2  1  0
  4  3  2  0
  6  8  1  0
  6  5  1  0
  7  6  2  0
  9  8  1  0
 10 11  1  0
 10  9  1  0
 12 11  1  6
 12 13  1  0
 13  3  1  0
 14 15  2  0
 14 12  1  0
 16 17  1  0
 17 18  2  0
 19 17  1  0
 19 20  1  0
 21 20  1  0
 22 21  1  0
 23 22  1  1
 23 24  1  0
 24 14  1  0
 25 27  1  0
 25 23  1  0
 26 25  2  0
M  END
$$$$
