GRR.pdb
     RDKit          3D

 27 26  0  0  1  0  0  0  0  0999 V2000
   27.8273  -22.1534  -15.6777 N   0  0  0  0  0  0  0  0  0  0  0  0
   27.1371  -21.5879  -14.5497 C   0  0  0  0  0  0  0  0  0  0  0  0
   25.8233  -21.0104  -14.9178 C   0  0  0  0  0  0  0  0  0  0  0  0
   25.7595  -20.3121  -15.9567 O   0  0  0  0  0  0  0  0  0  0  0  0
   17.9489  -23.6594  -12.0715 N   0  0  0  0  0  0  0  0  0  0  0  0
   19.1376  -24.1319  -12.7384 C   0  0  0  0  0  0  0  0  0  0  0  0
   19.3847  -25.3769  -12.7777 N   0  0  0  0  0  0  0  0  0  0  0  0
   20.0417  -23.2211  -13.3527 N   0  0  0  0  0  0  0  0  0  0  0  0
   19.8109  -21.7972  -13.3744 C   0  0  0  0  0  0  0  0  0  0  0  0
   20.8676  -21.0348  -14.1459 C   0  0  0  0  0  0  0  0  0  0  0  0
   22.2503  -21.4659  -13.7909 C   0  0  0  0  0  0  0  0  0  0  0  0
   23.3597  -20.7378  -14.4628 C   0  0  2  0  0  0  0  0  0  0  0  0
   24.6735  -21.2178  -14.1540 N   0  0  0  0  0  0  0  0  0  0  0  0
   23.1915  -19.2916  -14.1116 C   0  0  0  0  0  0  0  0  0  0  0  0
   23.2025  -19.0096  -12.8893 O   0  0  0  0  0  0  0  0  0  0  0  0
   20.2418  -25.7235  -13.2475 N   0  0  0  0  0  0  0  0  0  0  0  0
   26.4525  -12.8195  -18.4091 C   0  0  0  0  0  0  0  0  0  0  0  0
   26.6109  -14.1342  -17.8736 N   0  0  0  0  0  0  0  0  0  0  0  0
   27.6299  -14.8461  -18.1936 N   0  0  0  0  0  0  0  0  0  0  0  0
   25.6179  -14.6374  -16.9791 C   0  0  0  0  0  0  0  0  0  0  0  0
   25.5646  -14.1319  -15.6337 C   0  0  0  0  0  0  0  0  0  0  0  0
   24.4223  -14.7883  -14.8750 C   0  0  0  0  0  0  0  0  0  0  0  0
   24.2391  -16.2128  -15.2870 C   0  0  2  0  0  0  0  0  0  0  0  0
   23.0773  -16.8842  -14.5970 N   0  0  0  0  0  0  0  0  0  0  0  0
   23.0300  -18.2799  -15.0540 C   0  0  0  0  0  0  0  0  0  0  0  0
   21.7935  -16.2641  -14.9606 O   0  0  0  0  0  0  0  0  0  0  0  0
   21.3922  -15.2531  -14.3453 O   0  0  0  0  0  0  0  0  0  0  0  0
  2  1  1  0
  3  2  1  0
  4  3  2  0
  6  8  1  0
  6  5  1  0
  7  6  2  0
  9  8  1  0
 10 11  1  0
 10  9  1  0
 12 11  1  1
 12 13  1  0
 13  3  1  0
 14 15  2  0
 14 12  1  0
 16 17  1  0
 17 18  2  0
 19 17  1  0
 19 20  1  0
 21 20  1  0
 22 21  1  0
 23 22  1  1
 23 24  1  0
 24 14  1  0
 25 27  1  0
 25 23  1  0
 26 25  2  0
M  END
$$$$
