GRR.pdb
     RDKit          3D

 27 26  0  0  1  0  0  0  0  0999 V2000
   18.7930  -24.7621   -6.8548 N   0  0  0  0  0  0  0  0  0  0  0  0
   18.7346  -23.4974   -7.5373 C   0  0  0  0  0  0  0  0  0  0  0  0
   19.1938  -23.5879   -8.9430 C   0  0  0  0  0  0  0  0  0  0  0  0
   20.0217  -24.4831   -9.2336 O   0  0  0  0  0  0  0  0  0  0  0  0
   14.8172  -25.7719  -12.5046 N   0  0  0  0  0  0  0  0  0  0  0  0
   14.2430  -24.4500  -12.5667 C   0  0  0  0  0  0  0  0  0  0  0  0
   13.0986  -24.2364  -12.0594 N   0  0  0  0  0  0  0  0  0  0  0  0
   14.9404  -23.3789  -13.1918 N   0  0  0  0  0  0  0  0  0  0  0  0
   16.2748  -23.5275  -13.7195 C   0  0  0  0  0  0  0  0  0  0  0  0
   17.3145  -23.7764  -12.6470 C   0  0  0  0  0  0  0  0  0  0  0  0
   18.0813  -22.5444  -12.3038 C   0  0  0  0  0  0  0  0  0  0  0  0
   19.1699  -22.7041  -11.3029 C   0  0  2  0  0  0  0  0  0  0  0  0
   18.7391  -22.7197   -9.9369 N   0  0  0  0  0  0  0  0  0  0  0  0
   20.1554  -21.6084  -11.5701 C   0  0  0  0  0  0  0  0  0  0  0  0
   19.8415  -20.4644  -11.1622 O   0  0  0  0  0  0  0  0  0  0  0  0
   12.6877  -23.2845  -12.0826 N   0  0  0  0  0  0  0  0  0  0  0  0
   28.5119  -21.5713  -10.7662 C   0  0  0  0  0  0  0  0  0  0  0  0
   27.9467  -20.8550  -11.8652 N   0  0  0  0  0  0  0  0  0  0  0  0
   28.6870  -20.4809  -12.8447 N   0  0  0  0  0  0  0  0  0  0  0  0
   26.5483  -20.5658  -11.8522 C   0  0  0  0  0  0  0  0  0  0  0  0
   25.7290  -21.1099  -10.8028 C   0  0  0  0  0  0  0  0  0  0  0  0
   24.2976  -20.6197  -10.9517 C   0  0  0  0  0  0  0  0  0  0  0  0
   23.6750  -21.1235  -12.2131 C   0  0  2  0  0  0  0  0  0  0  0  0
   22.2571  -20.6451  -12.4060 N   0  0  0  0  0  0  0  0  0  0  0  0
   21.3661  -21.8001  -12.2296 C   0  0  0  0  0  0  0  0  0  0  0  0
   22.0351  -20.1286  -13.7657 O   0  0  0  0  0  0  0  0  0  0  0  0
   22.5082  -19.0203  -14.0974 O   0  0  0  0  0  0  0  0  0  0  0  0
  2  1  1  0
  3  2  1  0
  4  3  2  0
  6  8  1  0
  6  5  1  0
  7  6  2  0
  9  8  1  0
 10 11  1  0
 10  9  1  0
 12 11  1  6
 12 13  1  0
 13  3  1  0
 14 15  2  0
 14 12  1  0
 16 17  1  0
 17 18  2  0
 19 17  1  0
 19 20  1  0
 21 20  1  0
 22 21  1  0
 23 22  1  1
 23 24  1  0
 24 14  1  0
 25 27  1  0
 25 23  1  0
 26 25  2  0
M  END
$$$$
