GRR.pdb
     RDKit          3D

 27 26  0  0  1  0  0  0  0  0999 V2000
   15.7798  -24.2202    2.3042 N   0  0  0  0  0  0  0  0  0  0  0  0
   15.4468  -25.3996    1.5515 C   0  0  0  0  0  0  0  0  0  0  0  0
   16.3884  -25.6463    0.4345 C   0  0  0  0  0  0  0  0  0  0  0  0
   17.2608  -24.7774    0.1996 O   0  0  0  0  0  0  0  0  0  0  0  0
   20.1894  -32.6332   -3.5158 N   0  0  0  0  0  0  0  0  0  0  0  0
   20.4738  -32.3262   -2.1353 C   0  0  0  0  0  0  0  0  0  0  0  0
   21.0984  -33.1684   -1.4189 N   0  0  0  0  0  0  0  0  0  0  0  0
   20.0618  -31.0912   -1.5615 N   0  0  0  0  0  0  0  0  0  0  0  0
   19.4661  -30.0350   -2.3430 C   0  0  0  0  0  0  0  0  0  0  0  0
   19.1317  -28.8055   -1.5247 C   0  0  0  0  0  0  0  0  0  0  0  0
   17.6629  -28.5614   -1.4424 C   0  0  0  0  0  0  0  0  0  0  0  0
   17.2328  -27.1379   -1.4129 C   0  0  2  0  0  0  0  0  0  0  0  0
   16.3333  -26.7989   -0.3509 N   0  0  0  0  0  0  0  0  0  0  0  0
   16.6496  -26.8433   -2.7605 C   0  0  0  0  0  0  0  0  0  0  0  0
   15.6034  -27.4657   -3.0635 O   0  0  0  0  0  0  0  0  0  0  0  0
   21.2713  -32.9724   -0.4154 N   0  0  0  0  0  0  0  0  0  0  0  0
   13.7471  -22.5679   -1.6461 C   0  0  0  0  0  0  0  0  0  0  0  0
   13.1812  -22.2689   -2.9231 N   0  0  0  0  0  0  0  0  0  0  0  0
   12.2193  -21.4252   -3.0244 N   0  0  0  0  0  0  0  0  0  0  0  0
   13.7053  -22.9241   -4.0787 C   0  0  0  0  0  0  0  0  0  0  0  0
   14.6876  -23.9613   -3.9122 C   0  0  0  0  0  0  0  0  0  0  0  0
   16.0491  -23.4694   -4.3763 C   0  0  0  0  0  0  0  0  0  0  0  0
   16.6376  -24.3784   -5.4059 C   0  0  2  0  0  0  0  0  0  0  0  0
   16.6061  -25.8315   -5.0007 N   0  0  0  0  0  0  0  0  0  0  0  0
   17.2010  -25.9365   -3.6613 C   0  0  0  0  0  0  0  0  0  0  0  0
   17.4142  -26.6676   -5.9021 O   0  0  0  0  0  0  0  0  0  0  0  0
   18.5544  -27.0413   -5.5521 O   0  0  0  0  0  0  0  0  0  0  0  0
  2  1  1  0
  3  2  1  0
  4  3  2  0
  6  8  1  0
  6  5  1  0
  7  6  2  0
  9  8  1  0
 10 11  1  0
 10  9  1  0
 12 11  1  6
 12 13  1  0
 13  3  1  0
 14 15  2  0
 14 12  1  0
 16 17  1  0
 17 18  2  0
 19 17  1  0
 19 20  1  0
 21 20  1  0
 22 21  1  0
 23 22  1  1
 23 24  1  0
 24 14  1  0
 25 27  1  0
 25 23  1  0
 26 25  2  0
M  END
$$$$
