GRR.pdb
     RDKit          3D

 27 26  0  0  1  0  0  0  0  0999 V2000
   22.1892  -27.3719  -13.6766 N   0  0  0  0  0  0  0  0  0  0  0  0
   21.8008  -26.6707  -12.4825 C   0  0  0  0  0  0  0  0  0  0  0  0
   20.9513  -25.4905  -12.7666 C   0  0  0  0  0  0  0  0  0  0  0  0
   20.7744  -25.1697  -13.9654 O   0  0  0  0  0  0  0  0  0  0  0  0
   18.5652  -25.8672   -7.1645 N   0  0  0  0  0  0  0  0  0  0  0  0
   17.1451  -25.9324   -7.4100 C   0  0  0  0  0  0  0  0  0  0  0  0
   16.4602  -26.8709   -6.8974 N   0  0  0  0  0  0  0  0  0  0  0  0
   16.4985  -24.9595   -8.2221 N   0  0  0  0  0  0  0  0  0  0  0  0
   17.2179  -23.8897   -8.8696 C   0  0  0  0  0  0  0  0  0  0  0  0
   17.9523  -24.3359  -10.1164 C   0  0  0  0  0  0  0  0  0  0  0  0
   18.6822  -23.2153  -10.7761 C   0  0  0  0  0  0  0  0  0  0  0  0
   19.5315  -23.5788  -11.9418 C   0  0  2  0  0  0  0  0  0  0  0  0
   20.3521  -24.7380  -11.7552 N   0  0  0  0  0  0  0  0  0  0  0  0
   20.3412  -22.3629  -12.2719 C   0  0  0  0  0  0  0  0  0  0  0  0
   21.5338  -22.3645  -11.8829 O   0  0  0  0  0  0  0  0  0  0  0  0
   15.4407  -26.9307   -7.0780 N   0  0  0  0  0  0  0  0  0  0  0  0
   25.4873  -22.0792  -17.6383 C   0  0  0  0  0  0  0  0  0  0  0  0
   25.8962  -22.2376  -16.2788 N   0  0  0  0  0  0  0  0  0  0  0  0
   27.0072  -22.8164  -15.9993 N   0  0  0  0  0  0  0  0  0  0  0  0
   25.0484  -21.7409  -15.2427 C   0  0  0  0  0  0  0  0  0  0  0  0
   23.6771  -21.4311  -15.5462 C   0  0  0  0  0  0  0  0  0  0  0  0
   22.9447  -21.0131  -14.2812 C   0  0  0  0  0  0  0  0  0  0  0  0
   21.5275  -20.6368  -14.5684 C   0  0  2  0  0  0  0  0  0  0  0  0
   20.7724  -20.1911  -13.3405 N   0  0  0  0  0  0  0  0  0  0  0  0
   19.8426  -21.2671  -12.9706 C   0  0  0  0  0  0  0  0  0  0  0  0
   19.9648  -18.9894  -13.6020 O   0  0  0  0  0  0  0  0  0  0  0  0
   18.7419  -19.0980  -13.8359 O   0  0  0  0  0  0  0  0  0  0  0  0
  2  1  1  0
  3  2  1  0
  4  3  2  0
  6  8  1  0
  6  5  1  0
  7  6  2  0
  9  8  1  0
 10 11  1  0
 10  9  1  0
 12 11  1  1
 12 13  1  0
 13  3  1  0
 14 15  2  0
 14 12  1  0
 16 17  1  0
 17 18  2  0
 19 17  1  0
 19 20  1  0
 21 20  1  0
 22 21  1  0
 23 22  1  1
 23 24  1  0
 24 14  1  0
 25 27  1  0
 25 23  1  0
 26 25  2  0
M  END
$$$$
