GRR.pdb
     RDKit          3D

 27 26  0  0  1  0  0  0  0  0999 V2000
   26.0680  -15.0192  -16.1158 N   0  0  0  0  0  0  0  0  0  0  0  0
   25.8305  -15.5930  -14.8185 C   0  0  0  0  0  0  0  0  0  0  0  0
   26.2380  -17.0154  -14.7424 C   0  0  0  0  0  0  0  0  0  0  0  0
   25.7473  -17.8120  -15.5766 O   0  0  0  0  0  0  0  0  0  0  0  0
   31.6497  -22.2345  -11.1574 N   0  0  0  0  0  0  0  0  0  0  0  0
   31.4143  -22.8356  -12.4475 C   0  0  0  0  0  0  0  0  0  0  0  0
   32.1543  -23.7892  -12.8420 N   0  0  0  0  0  0  0  0  0  0  0  0
   30.3640  -22.3731  -13.2885 N   0  0  0  0  0  0  0  0  0  0  0  0
   30.0442  -20.9734  -13.4290 C   0  0  0  0  0  0  0  0  0  0  0  0
   29.0398  -20.4869  -12.4054 C   0  0  0  0  0  0  0  0  0  0  0  0
   28.6342  -19.0709  -12.6376 C   0  0  0  0  0  0  0  0  0  0  0  0
   27.4880  -18.8574  -13.5612 C   0  0  2  0  0  0  0  0  0  0  0  0
   27.1376  -17.4866  -13.7848 N   0  0  0  0  0  0  0  0  0  0  0  0
   26.3435  -19.6480  -13.0061 C   0  0  0  0  0  0  0  0  0  0  0  0
   25.7810  -19.1761  -11.9890 O   0  0  0  0  0  0  0  0  0  0  0  0
   31.9673  -24.2523  -13.7509 N   0  0  0  0  0  0  0  0  0  0  0  0
   19.0096  -21.6152  -15.3666 C   0  0  0  0  0  0  0  0  0  0  0  0
   20.0339  -22.6106  -15.3433 N   0  0  0  0  0  0  0  0  0  0  0  0
   19.7459  -23.8423  -15.5613 N   0  0  0  0  0  0  0  0  0  0  0  0
   21.3777  -22.2093  -15.0747 C   0  0  0  0  0  0  0  0  0  0  0  0
   21.6707  -20.8124  -14.8973 C   0  0  0  0  0  0  0  0  0  0  0  0
   23.1627  -20.6161  -14.6806 C   0  0  0  0  0  0  0  0  0  0  0  0
   23.5149  -20.6573  -13.2291 C   0  0  1  0  0  0  0  0  0  0  0  0
   24.7306  -21.5022  -12.9383 N   0  0  0  0  0  0  0  0  0  0  0  0
   25.8914  -20.8450  -13.5544 C   0  0  0  0  0  0  0  0  0  0  0  0
   24.6209  -22.8417  -13.5372 O   0  0  0  0  0  0  0  0  0  0  0  0
   23.7923  -23.6613  -13.0859 O   0  0  0  0  0  0  0  0  0  0  0  0
  2  1  1  0
  3  2  1  0
  4  3  2  0
  6  8  1  0
  6  5  1  0
  7  6  2  0
  9  8  1  0
 10 11  1  0
 10  9  1  0
 12 11  1  1
 12 13  1  0
 13  3  1  0
 14 15  2  0
 14 12  1  0
 16 17  1  0
 17 18  2  0
 19 17  1  0
 19 20  1  0
 21 20  1  0
 22 21  1  0
 23 22  1  1
 23 24  1  0
 24 14  1  0
 25 27  1  0
 25 23  1  0
 26 25  2  0
M  END
$$$$
