GRR.pdb
     RDKit          3D

 27 26  0  0  1  0  0  0  0  0999 V2000
   26.4504  -20.7934   -8.5938 N   0  0  0  0  0  0  0  0  0  0  0  0
   26.6469  -21.2634   -9.9388 C   0  0  0  0  0  0  0  0  0  0  0  0
   25.8517  -20.5011  -10.9297 C   0  0  0  0  0  0  0  0  0  0  0  0
   24.8564  -19.8612  -10.5162 O   0  0  0  0  0  0  0  0  0  0  0  0
   28.9984  -18.5726  -17.8114 N   0  0  0  0  0  0  0  0  0  0  0  0
   27.6292  -18.1333  -17.9275 C   0  0  0  0  0  0  0  0  0  0  0  0
   27.0357  -18.2119  -19.0474 N   0  0  0  0  0  0  0  0  0  0  0  0
   26.9322  -17.6093  -16.8033 N   0  0  0  0  0  0  0  0  0  0  0  0
   27.5641  -17.4188  -15.5205 C   0  0  0  0  0  0  0  0  0  0  0  0
   26.6867  -17.8326  -14.3577 C   0  0  0  0  0  0  0  0  0  0  0  0
   26.2877  -19.2676  -14.4311 C   0  0  0  0  0  0  0  0  0  0  0  0
   25.4531  -19.7769  -13.3103 C   0  0  2  0  0  0  0  0  0  0  0  0
   26.1733  -20.4752  -12.2877 N   0  0  0  0  0  0  0  0  0  0  0  0
   24.3864  -20.6272  -13.9286 C   0  0  0  0  0  0  0  0  0  0  0  0
   24.4867  -21.8648  -13.7504 O   0  0  0  0  0  0  0  0  0  0  0  0
   26.0820  -17.8206  -19.1603 N   0  0  0  0  0  0  0  0  0  0  0  0
   17.6077  -22.5951  -11.0419 C   0  0  0  0  0  0  0  0  0  0  0  0
   18.6610  -23.5405  -10.8496 N   0  0  0  0  0  0  0  0  0  0  0  0
   18.3911  -24.7760  -10.6299 N   0  0  0  0  0  0  0  0  0  0  0  0
   20.0134  -23.0855  -10.9069 C   0  0  0  0  0  0  0  0  0  0  0  0
   20.2758  -21.6975  -11.1773 C   0  0  0  0  0  0  0  0  0  0  0  0
   20.4368  -21.4791  -12.6732 C   0  0  0  0  0  0  0  0  0  0  0  0
   21.7957  -20.9548  -13.0066 C   0  0  1  0  0  0  0  0  0  0  0  0
   21.9930  -20.7169  -14.4834 N   0  0  0  0  0  0  0  0  0  0  0  0
   23.3222  -20.1182  -14.6676 C   0  0  0  0  0  0  0  0  0  0  0  0
   21.0088  -19.7635  -15.0194 O   0  0  0  0  0  0  0  0  0  0  0  0
   20.8228  -18.6693  -14.4449 O   0  0  0  0  0  0  0  0  0  0  0  0
  2  1  1  0
  3  2  1  0
  4  3  2  0
  6  8  1  0
  6  5  1  0
  7  6  2  0
  9  8  1  0
 10 11  1  0
 10  9  1  0
 12 11  1  6
 12 13  1  0
 13  3  1  0
 14 15  2  0
 14 12  1  0
 16 17  1  0
 17 18  2  0
 19 17  1  0
 19 20  1  0
 21 20  1  0
 22 21  1  0
 23 22  1  6
 23 24  1  0
 24 14  1  0
 25 27  1  0
 25 23  1  0
 26 25  2  0
M  END
$$$$
