RKA.pdb
     RDKit          3D

 26 25  0  0  1  0  0  0  0  0999 V2000
   10.4736  -18.3006   16.7971 N   0  0  0  0  0  0  0  0  0  0  0  0
   10.3571  -19.7020   17.0391 C   0  0  0  0  0  0  0  0  0  0  0  0
   10.0649  -20.4734   16.0697 N   0  0  0  0  0  0  0  0  0  0  0  0
   10.5611  -20.2417   18.3285 N   0  0  0  0  0  0  0  0  0  0  0  0
   10.5778  -19.3543   19.4859 C   0  0  0  0  0  0  0  0  0  0  0  0
    9.2693  -19.3275   20.1864 C   0  0  0  0  0  0  0  0  0  0  0  0
    9.2500  -18.4704   21.3820 C   0  0  0  0  0  0  0  0  0  0  0  0
    9.5605  -17.0466   21.1780 C   0  0  2  0  0  0  0  0  0  0  0  0
   10.7907  -16.7871   20.4730 N   0  0  0  0  0  0  0  0  0  0  0  0
    9.5519  -16.2956   22.4911 C   0  0  0  0  0  0  0  0  0  0  0  0
   10.5968  -16.2000   23.1835 O   0  0  0  0  0  0  0  0  0  0  0  0
    9.9392  -21.4873   16.2106 N   0  0  0  0  0  0  0  0  0  0  0  0
    8.3840  -15.6791   22.9866 C   0  0  2  0  0  0  0  0  0  0  0  0
    8.3803  -15.0214   24.2968 C   0  0  0  0  0  0  0  0  0  0  0  0
    7.0992  -14.3028   24.5326 C   0  0  0  0  0  0  0  0  0  0  0  0
    7.0028  -13.6866   25.8964 C   0  0  0  0  0  0  0  0  0  0  0  0
    6.5030  -12.2328   25.7798 C   0  0  0  0  0  0  0  0  0  0  0  0
    6.3761  -11.6852   27.2006 N   0  0  0  0  0  0  0  0  0  0  0  0
    5.9124  -10.3194   27.1784 C   0  0  0  0  0  0  0  0  0  0  0  0
    8.7031  -15.9737   25.3645 O   0  0  0  0  0  0  0  0  0  0  0  0
    8.0159  -16.9926   25.5493 C   0  0  0  0  0  0  0  0  0  0  0  0
   11.5122  -17.3350   27.0569 C   0  0  2  0  0  0  0  0  0  0  0  0
   10.1354  -16.7472   27.2550 N   0  0  0  0  0  0  0  0  0  0  0  0
    9.8151  -15.7750   26.2354 C   0  0  0  0  0  0  0  0  0  0  0  0
   10.0485  -16.1918   28.6155 O   0  0  0  0  0  0  0  0  0  0  0  0
    9.7322  -14.9880   28.8224 O   0  0  0  0  0  0  0  0  0  0  0  0
  2  1  1  0
  2  3  2  0
  4  2  1  0
  5  4  1  0
  6  5  1  0
  7  6  1  0
  8  7  1  0
  8  9  1  1
 10  8  1  0
 11 10  2  0
 12 10  1  0
 13 14  1  6
 13 12  1  0
 15 16  1  0
 15 14  1  0
 17 16  1  0
 18 17  1  0
 19 13  1  0
 19 23  1  0
 20 19  2  0
 22 24  1  0
 22 23  1  0
 22 21  1  6
 24 26  1  0
 25 24  2  0
M  END
$$$$
