RKA.pdb
     RDKit          3D

 26 25  0  0  1  0  0  0  0  0999 V2000
    9.6880  -14.6005   17.6269 N   0  0  0  0  0  0  0  0  0  0  0  0
    8.7355  -13.6610   17.1309 C   0  0  0  0  0  0  0  0  0  0  0  0
    8.3499  -13.7533   15.9212 N   0  0  0  0  0  0  0  0  0  0  0  0
    8.2173  -12.6386   17.9565 N   0  0  0  0  0  0  0  0  0  0  0  0
    7.3892  -12.9906   19.1043 C   0  0  0  0  0  0  0  0  0  0  0  0
    7.4588  -14.4399   19.4179 C   0  0  0  0  0  0  0  0  0  0  0  0
    7.4984  -14.7374   20.8582 C   0  0  0  0  0  0  0  0  0  0  0  0
    7.5343  -16.1587   21.2374 C   0  0  2  0  0  0  0  0  0  0  0  0
    6.4363  -16.9490   20.7399 N   0  0  0  0  0  0  0  0  0  0  0  0
    7.6440  -16.3176   22.7378 C   0  0  0  0  0  0  0  0  0  0  0  0
    6.6155  -16.3179   23.4609 O   0  0  0  0  0  0  0  0  0  0  0  0
    7.6779  -13.0817   15.5202 N   0  0  0  0  0  0  0  0  0  0  0  0
    8.8909  -16.4700   23.3794 C   0  0  2  0  0  0  0  0  0  0  0  0
    8.9794  -16.5404   24.8411 C   0  0  0  0  0  0  0  0  0  0  0  0
   10.0702  -17.4571   25.2688 C   0  0  0  0  0  0  0  0  0  0  0  0
   10.2087  -17.5662   26.7580 C   0  0  0  0  0  0  0  0  0  0  0  0
   11.3280  -18.5671   27.1078 C   0  0  0  0  0  0  0  0  0  0  0  0
   11.3082  -18.7525   28.6243 N   0  0  0  0  0  0  0  0  0  0  0  0
   12.3385  -19.6743   29.0362 C   0  0  0  0  0  0  0  0  0  0  0  0
    9.1001  -15.2009   25.4261 O   0  0  0  0  0  0  0  0  0  0  0  0
   10.0401  -14.4468   25.1223 C   0  0  0  0  0  0  0  0  0  0  0  0
    6.9783  -12.7903   27.3424 C   0  0  2  0  0  0  0  0  0  0  0  0
    8.3064  -13.3934   26.9515 N   0  0  0  0  0  0  0  0  0  0  0  0
    8.1487  -14.7048   26.3660 C   0  0  0  0  0  0  0  0  0  0  0  0
    9.1887  -13.4010   28.1299 O   0  0  0  0  0  0  0  0  0  0  0  0
    9.4258  -14.4590   28.7752 O   0  0  0  0  0  0  0  0  0  0  0  0
  2  1  1  0
  2  3  2  0
  4  2  1  0
  5  4  1  0
  6  5  1  0
  7  6  1  0
  8  7  1  0
  8  9  1  1
 10  8  1  0
 11 10  2  0
 12 10  1  0
 13 14  1  6
 13 12  1  0
 15 16  1  0
 15 14  1  0
 17 16  1  0
 18 17  1  0
 19 13  1  0
 19 23  1  0
 20 19  2  0
 22 24  1  0
 22 23  1  0
 22 21  1  6
 24 26  1  0
 25 24  2  0
M  END
$$$$
