RKA.pdb
     RDKit          3D

 26 25  0  0  1  0  0  0  0  0999 V2000
    8.4786  -11.5714   18.5853 N   0  0  0  0  0  0  0  0  0  0  0  0
    8.5719  -12.9941   18.6421 C   0  0  0  0  0  0  0  0  0  0  0  0
    9.7186  -13.5410   18.5611 N   0  0  0  0  0  0  0  0  0  0  0  0
    7.4196  -13.7982   18.7869 N   0  0  0  0  0  0  0  0  0  0  0  0
    6.8735  -14.0405   20.1175 C   0  0  0  0  0  0  0  0  0  0  0  0
    7.7565  -14.9128   20.9317 C   0  0  0  0  0  0  0  0  0  0  0  0
    7.2046  -15.2546   22.2519 C   0  0  0  0  0  0  0  0  0  0  0  0
    6.7063  -16.6285   22.4230 C   0  0  2  0  0  0  0  0  0  0  0  0
    5.4314  -16.8946   21.8053 N   0  0  0  0  0  0  0  0  0  0  0  0
    6.6586  -17.0105   23.8859 C   0  0  0  0  0  0  0  0  0  0  0  0
    5.6311  -16.7876   24.5752 O   0  0  0  0  0  0  0  0  0  0  0  0
    9.8326  -14.5623   18.6482 N   0  0  0  0  0  0  0  0  0  0  0  0
    7.7533  -17.6251   24.5291 C   0  0  2  0  0  0  0  0  0  0  0  0
    7.7561  -17.8227   25.9818 C   0  0  0  0  0  0  0  0  0  0  0  0
    7.7964  -19.2694   26.3262 C   0  0  0  0  0  0  0  0  0  0  0  0
    7.7387  -19.5337   27.8012 C   0  0  0  0  0  0  0  0  0  0  0  0
    7.8565  -21.0478   28.0668 C   0  0  0  0  0  0  0  0  0  0  0  0
    7.6975  -21.2543   29.5724 N   0  0  0  0  0  0  0  0  0  0  0  0
    7.8709  -22.6448   29.9148 C   0  0  0  0  0  0  0  0  0  0  0  0
    8.8350  -17.0571   26.6149 O   0  0  0  0  0  0  0  0  0  0  0  0
    9.9628  -17.5510   26.7841 C   0  0  0  0  0  0  0  0  0  0  0  0
    9.3117  -13.5695   28.0252 C   0  0  2  0  0  0  0  0  0  0  0  0
    9.7239  -14.9776   27.6683 N   0  0  0  0  0  0  0  0  0  0  0  0
    8.6401  -15.7170   27.0632 C   0  0  0  0  0  0  0  0  0  0  0  0
   10.2561  -15.6354   28.8729 O   0  0  0  0  0  0  0  0  0  0  0  0
    9.7185  -16.6688   29.3577 O   0  0  0  0  0  0  0  0  0  0  0  0
  2  1  1  0
  2  3  2  0
  4  2  1  0
  5  4  1  0
  6  5  1  0
  7  6  1  0
  8  7  1  0
  8  9  1  1
 10  8  1  0
 11 10  2  0
 12 10  1  0
 13 14  1  6
 13 12  1  0
 15 16  1  0
 15 14  1  0
 17 16  1  0
 18 17  1  0
 19 13  1  0
 19 23  1  0
 20 19  2  0
 22 24  1  0
 22 23  1  0
 22 21  1  6
 24 26  1  0
 25 24  2  0
M  END
$$$$
