RKA.pdb
     RDKit          3D

 26 25  0  0  1  0  0  0  0  0999 V2000
    8.7488  -12.6833   17.2312 N   0  0  0  0  0  0  0  0  0  0  0  0
    8.5370  -13.1038   18.5782 C   0  0  0  0  0  0  0  0  0  0  0  0
    9.5392  -13.2122   19.3556 N   0  0  0  0  0  0  0  0  0  0  0  0
    7.2414  -13.3979   19.0582 N   0  0  0  0  0  0  0  0  0  0  0  0
    7.0760  -13.9203   20.4099 C   0  0  0  0  0  0  0  0  0  0  0  0
    7.6658  -15.2743   20.5600 C   0  0  0  0  0  0  0  0  0  0  0  0
    7.3032  -15.9471   21.8171 C   0  0  0  0  0  0  0  0  0  0  0  0
    7.8454  -17.2996   22.0216 C   0  0  2  0  0  0  0  0  0  0  0  0
    7.0344  -18.3668   21.4914 N   0  0  0  0  0  0  0  0  0  0  0  0
    8.1358  -17.5525   23.4845 C   0  0  0  0  0  0  0  0  0  0  0  0
    7.1988  -17.6857   24.3120 O   0  0  0  0  0  0  0  0  0  0  0  0
    9.4227  -13.4693   20.3475 N   0  0  0  0  0  0  0  0  0  0  0  0
    9.4553  -17.6478   23.9742 C   0  0  2  0  0  0  0  0  0  0  0  0
    9.7305  -17.5628   25.4116 C   0  0  0  0  0  0  0  0  0  0  0  0
   10.9132  -18.3863   25.7808 C   0  0  0  0  0  0  0  0  0  0  0  0
   11.2362  -18.3443   27.2446 C   0  0  0  0  0  0  0  0  0  0  0  0
   12.5254  -19.1440   27.5194 C   0  0  0  0  0  0  0  0  0  0  0  0
   12.8090  -19.0398   29.0172 N   0  0  0  0  0  0  0  0  0  0  0  0
   13.9633  -19.8293   29.3711 C   0  0  0  0  0  0  0  0  0  0  0  0
    9.8532  -16.1661   25.8422 O   0  0  0  0  0  0  0  0  0  0  0  0
   10.7003  -15.4084   25.3396 C   0  0  0  0  0  0  0  0  0  0  0  0
    7.9249  -13.4871   27.3796 C   0  0  2  0  0  0  0  0  0  0  0  0
    9.2159  -14.2689   27.3316 N   0  0  0  0  0  0  0  0  0  0  0  0
    9.0099  -15.6164   26.8528 C   0  0  0  0  0  0  0  0  0  0  0  0
    9.8435  -14.2298   28.6626 O   0  0  0  0  0  0  0  0  0  0  0  0
   10.1130  -13.1396   29.2380 O   0  0  0  0  0  0  0  0  0  0  0  0
  2  1  1  0
  2  3  2  0
  4  2  1  0
  5  4  1  0
  6  5  1  0
  7  6  1  0
  8  7  1  0
  8  9  1  1
 10  8  1  0
 11 10  2  0
 12 10  1  0
 13 14  1  6
 13 12  1  0
 15 16  1  0
 15 14  1  0
 17 16  1  0
 18 17  1  0
 19 13  1  0
 19 23  1  0
 20 19  2  0
 22 24  1  0
 22 23  1  0
 22 21  1  6
 24 26  1  0
 25 24  2  0
M  END
$$$$
