RKA.pdb
     RDKit          3D

 26 25  0  0  1  0  0  0  0  0999 V2000
   12.1791  -16.9425   18.5781 N   0  0  0  0  0  0  0  0  0  0  0  0
   12.7744  -15.6497   18.4775 C   0  0  0  0  0  0  0  0  0  0  0  0
   13.1382  -15.2251   17.3339 N   0  0  0  0  0  0  0  0  0  0  0  0
   12.9632  -14.8398   19.6194 N   0  0  0  0  0  0  0  0  0  0  0  0
   12.2958  -13.5455   19.7023 C   0  0  0  0  0  0  0  0  0  0  0  0
   10.9309  -13.6581   20.2750 C   0  0  0  0  0  0  0  0  0  0  0  0
    9.8567  -13.3234   19.3272 C   0  0  0  0  0  0  0  0  0  0  0  0
    8.8100  -14.3389   19.1309 C   0  0  2  0  0  0  0  0  0  0  0  0
    7.7722  -13.9709   18.2008 N   0  0  0  0  0  0  0  0  0  0  0  0
    8.1959  -14.7478   20.4515 C   0  0  0  0  0  0  0  0  0  0  0  0
    7.2623  -14.0775   20.9610 O   0  0  0  0  0  0  0  0  0  0  0  0
   13.4209  -14.2435   17.1917 N   0  0  0  0  0  0  0  0  0  0  0  0
    8.6410  -15.8851   21.1572 C   0  0  2  0  0  0  0  0  0  0  0  0
    7.8958  -16.3898   22.3144 C   0  0  0  0  0  0  0  0  0  0  0  0
    8.0131  -17.8688   22.4243 C   0  0  0  0  0  0  0  0  0  0  0  0
    7.2714  -18.4409   23.5954 C   0  0  0  0  0  0  0  0  0  0  0  0
    7.3001  -19.9811   23.5315 C   0  0  0  0  0  0  0  0  0  0  0  0
    6.3937  -20.4949   24.6491 N   0  0  0  0  0  0  0  0  0  0  0  0
    6.2557  -21.9287   24.5717 C   0  0  0  0  0  0  0  0  0  0  0  0
    8.2964  -15.6947   23.5422 O   0  0  0  0  0  0  0  0  0  0  0  0
    9.4921  -15.5950   23.8660 C   0  0  0  0  0  0  0  0  0  0  0  0
    6.6504  -13.6598   26.2691 C   0  0  2  0  0  0  0  0  0  0  0  0
    7.7484  -14.5010   25.6632 N   0  0  0  0  0  0  0  0  0  0  0  0
    7.3365  -15.1041   24.4166 C   0  0  0  0  0  0  0  0  0  0  0  0
    8.1866  -15.4951   26.6566 O   0  0  0  0  0  0  0  0  0  0  0  0
    8.0166  -16.7325   26.4775 O   0  0  0  0  0  0  0  0  0  0  0  0
  2  1  1  0
  2  3  2  0
  4  2  1  0
  5  4  1  0
  6  5  1  0
  7  6  1  0
  8  7  1  0
  8  9  1  6
 10  8  1  0
 11 10  2  0
 12 10  1  0
 13 14  1  6
 13 12  1  0
 15 16  1  0
 15 14  1  0
 17 16  1  0
 18 17  1  0
 19 13  1  0
 19 23  1  0
 20 19  2  0
 22 24  1  0
 22 23  1  0
 22 21  1  6
 24 26  1  0
 25 24  2  0
M  END
$$$$
