RKA.pdb
     RDKit          3D

 26 25  0  0  1  0  0  0  0  0999 V2000
    8.5319  -15.1634   16.3164 N   0  0  0  0  0  0  0  0  0  0  0  0
    8.5880  -13.8412   16.8499 C   0  0  0  0  0  0  0  0  0  0  0  0
    9.6761  -13.1864   16.7631 N   0  0  0  0  0  0  0  0  0  0  0  0
    7.4619  -13.2524   17.4670 N   0  0  0  0  0  0  0  0  0  0  0  0
    6.9674  -13.7930   18.7281 C   0  0  0  0  0  0  0  0  0  0  0  0
    7.9246  -13.5746   19.8415 C   0  0  0  0  0  0  0  0  0  0  0  0
    7.4479  -14.0667   21.1434 C   0  0  0  0  0  0  0  0  0  0  0  0
    7.3525  -15.5265   21.3021 C   0  0  2  0  0  0  0  0  0  0  0  0
    6.1279  -16.1124   20.8176 N   0  0  0  0  0  0  0  0  0  0  0  0
    7.5828  -15.9323   22.7410 C   0  0  0  0  0  0  0  0  0  0  0  0
    6.6272  -15.9779   23.5566 O   0  0  0  0  0  0  0  0  0  0  0  0
    9.7558  -12.2278   17.1350 N   0  0  0  0  0  0  0  0  0  0  0  0
    8.8650  -16.2720   23.2209 C   0  0  2  0  0  0  0  0  0  0  0  0
    9.0586  -16.6936   24.6116 C   0  0  0  0  0  0  0  0  0  0  0  0
    9.9984  -17.8437   24.6974 C   0  0  0  0  0  0  0  0  0  0  0  0
   10.2299  -18.3220   26.0997 C   0  0  0  0  0  0  0  0  0  0  0  0
   11.1421  -19.5649   26.0850 C   0  0  0  0  0  0  0  0  0  0  0  0
   11.3335  -19.9999   27.5372 N   0  0  0  0  0  0  0  0  0  0  0  0
   12.0061  -21.2744   27.6006 C   0  0  0  0  0  0  0  0  0  0  0  0
    9.4653  -15.5629   25.4525 O   0  0  0  0  0  0  0  0  0  0  0  0
   10.5096  -14.9301   25.2214 C   0  0  0  0  0  0  0  0  0  0  0  0
    8.0185  -13.2041   27.9095 C   0  0  2  0  0  0  0  0  0  0  0  0
    9.1515  -14.0833   27.4365 N   0  0  0  0  0  0  0  0  0  0  0  0
    8.6845  -15.1400   26.5689 C   0  0  0  0  0  0  0  0  0  0  0  0
    9.8777  -14.5933   28.6110 O   0  0  0  0  0  0  0  0  0  0  0  0
    9.9460  -15.8273   28.8653 O   0  0  0  0  0  0  0  0  0  0  0  0
  2  1  1  0
  2  3  2  0
  4  2  1  0
  5  4  1  0
  6  5  1  0
  7  6  1  0
  8  7  1  0
  8  9  1  1
 10  8  1  0
 11 10  2  0
 12 10  1  0
 13 14  1  6
 13 12  1  0
 15 16  1  0
 15 14  1  0
 17 16  1  0
 18 17  1  0
 19 13  1  0
 19 23  1  0
 20 19  2  0
 22 24  1  0
 22 23  1  0
 22 21  1  6
 24 26  1  0
 25 24  2  0
M  END
$$$$
