RKA.pdb
     RDKit          3D

 26 25  0  0  1  0  0  0  0  0999 V2000
    8.1653  -12.8113   17.1901 N   0  0  0  0  0  0  0  0  0  0  0  0
    8.6524  -14.0127   16.5939 C   0  0  0  0  0  0  0  0  0  0  0  0
    9.7033  -13.9638   15.8771 N   0  0  0  0  0  0  0  0  0  0  0  0
    7.9914  -15.2460   16.7870 N   0  0  0  0  0  0  0  0  0  0  0  0
    7.2241  -15.4681   18.0073 C   0  0  0  0  0  0  0  0  0  0  0  0
    7.8464  -14.8112   19.1841 C   0  0  0  0  0  0  0  0  0  0  0  0
    7.1063  -15.0110   20.4397 C   0  0  0  0  0  0  0  0  0  0  0  0
    7.1238  -16.3686   21.0069 C   0  0  2  0  0  0  0  0  0  0  0  0
    6.2257  -17.3031   20.3762 N   0  0  0  0  0  0  0  0  0  0  0  0
    6.8697  -16.3375   22.4978 C   0  0  0  0  0  0  0  0  0  0  0  0
    5.7483  -15.9954   22.9516 O   0  0  0  0  0  0  0  0  0  0  0  0
   10.0820  -14.8087   15.4230 N   0  0  0  0  0  0  0  0  0  0  0  0
    7.8698  -16.6867   23.4292 C   0  0  2  0  0  0  0  0  0  0  0  0
    7.6350  -16.5493   24.8698 C   0  0  0  0  0  0  0  0  0  0  0  0
    8.3595  -17.6004   25.6339 C   0  0  0  0  0  0  0  0  0  0  0  0
    7.4952  -18.7661   26.0119 C   0  0  0  0  0  0  0  0  0  0  0  0
    8.3356  -19.8199   26.7604 C   0  0  0  0  0  0  0  0  0  0  0  0
    7.3719  -20.9008   27.2478 N   0  0  0  0  0  0  0  0  0  0  0  0
    8.0996  -22.0272   27.7791 C   0  0  0  0  0  0  0  0  0  0  0  0
    7.9525  -15.1926   25.3277 O   0  0  0  0  0  0  0  0  0  0  0  0
    9.0706  -14.6890   25.1260 C   0  0  0  0  0  0  0  0  0  0  0  0
    6.1665  -12.2592   26.8856 C   0  0  2  0  0  0  0  0  0  0  0  0
    7.3729  -13.1148   26.5809 N   0  0  0  0  0  0  0  0  0  0  0  0
    6.9969  -14.3930   26.0220 C   0  0  0  0  0  0  0  0  0  0  0  0
    8.1816  -13.2464   27.8039 O   0  0  0  0  0  0  0  0  0  0  0  0
    8.3850  -14.3664   28.3482 O   0  0  0  0  0  0  0  0  0  0  0  0
  2  1  1  0
  2  3  2  0
  4  2  1  0
  5  4  1  0
  6  5  1  0
  7  6  1  0
  8  7  1  0
  8  9  1  6
 10  8  1  0
 11 10  2  0
 12 10  1  0
 13 14  1  6
 13 12  1  0
 15 16  1  0
 15 14  1  0
 17 16  1  0
 18 17  1  0
 19 13  1  0
 19 23  1  0
 20 19  2  0
 22 24  1  0
 22 23  1  0
 22 21  1  6
 24 26  1  0
 25 24  2  0
M  END
$$$$
