RKA.pdb
     RDKit          3D

 26 25  0  0  1  0  0  0  0  0999 V2000
    8.6888  -14.8743   15.1260 N   0  0  0  0  0  0  0  0  0  0  0  0
    7.8239  -13.7794   15.4246 C   0  0  0  0  0  0  0  0  0  0  0  0
    7.3369  -13.0984   14.4657 N   0  0  0  0  0  0  0  0  0  0  0  0
    7.5017  -13.4436   16.7583 N   0  0  0  0  0  0  0  0  0  0  0  0
    7.7719  -14.3991   17.8266 C   0  0  0  0  0  0  0  0  0  0  0  0
    9.0160  -14.0702   18.5667 C   0  0  0  0  0  0  0  0  0  0  0  0
    8.8183  -13.8833   20.0126 C   0  0  0  0  0  0  0  0  0  0  0  0
    9.4861  -14.8487   20.8999 C   0  0  2  0  0  0  0  0  0  0  0  0
    9.6714  -16.1635   20.3389 N   0  0  0  0  0  0  0  0  0  0  0  0
    8.7683  -14.9525   22.2274 C   0  0  0  0  0  0  0  0  0  0  0  0
    8.4058  -13.9189   22.8445 O   0  0  0  0  0  0  0  0  0  0  0  0
    6.6939  -12.3112   14.6399 N   0  0  0  0  0  0  0  0  0  0  0  0
    8.4801  -16.1994   22.8205 C   0  0  1  0  0  0  0  0  0  0  0  0
    7.7966  -16.2748   24.1152 C   0  0  0  0  0  0  0  0  0  0  0  0
    7.3021  -17.6525   24.3812 C   0  0  0  0  0  0  0  0  0  0  0  0
    6.3288  -18.1462   23.3527 C   0  0  0  0  0  0  0  0  0  0  0  0
    5.9114  -19.5940   23.6795 C   0  0  0  0  0  0  0  0  0  0  0  0
    4.9380  -20.0388   22.5889 N   0  0  0  0  0  0  0  0  0  0  0  0
    4.5870  -21.4277   22.7578 C   0  0  0  0  0  0  0  0  0  0  0  0
    8.6492  -15.7590   25.1913 O   0  0  0  0  0  0  0  0  0  0  0  0
    9.8541  -16.0564   25.2582 C   0  0  0  0  0  0  0  0  0  0  0  0
    8.3396  -13.2000   27.9574 C   0  0  2  0  0  0  0  0  0  0  0  0
    9.0200  -14.3038   27.1835 N   0  0  0  0  0  0  0  0  0  0  0  0
    8.1371  -14.8965   26.2054 C   0  0  0  0  0  0  0  0  0  0  0  0
    9.5549  -15.2904   28.1362 O   0  0  0  0  0  0  0  0  0  0  0  0
   10.4062  -14.9739   29.0120 O   0  0  0  0  0  0  0  0  0  0  0  0
  2  1  1  0
  2  3  2  0
  4  2  1  0
  5  4  1  0
  6  5  1  0
  7  6  1  0
  8  7  1  0
  8  9  1  6
 10  8  1  0
 11 10  2  0
 12 10  1  0
 13 14  1  1
 13 12  1  0
 15 16  1  0
 15 14  1  0
 17 16  1  0
 18 17  1  0
 19 13  1  0
 19 23  1  0
 20 19  2  0
 22 24  1  0
 22 23  1  0
 22 21  1  6
 24 26  1  0
 25 24  2  0
M  END
$$$$
