RKA.pdb
     RDKit          3D

 26 25  0  0  1  0  0  0  0  0999 V2000
   13.5288  -14.5639   21.3178 N   0  0  0  0  0  0  0  0  0  0  0  0
   12.8182  -14.2829   20.1128 C   0  0  0  0  0  0  0  0  0  0  0  0
   13.2138  -13.3262   19.3721 N   0  0  0  0  0  0  0  0  0  0  0  0
   11.6918  -15.0456   19.7323 N   0  0  0  0  0  0  0  0  0  0  0  0
   10.8155  -14.5565   18.6739 C   0  0  0  0  0  0  0  0  0  0  0  0
   10.0672  -13.3427   19.0867 C   0  0  0  0  0  0  0  0  0  0  0  0
    9.1820  -13.5519   20.2430 C   0  0  0  0  0  0  0  0  0  0  0  0
    8.1359  -14.5762   20.0961 C   0  0  2  0  0  0  0  0  0  0  0  0
    7.0996  -14.2557   19.1468 N   0  0  0  0  0  0  0  0  0  0  0  0
    7.5193  -14.9183   21.4345 C   0  0  0  0  0  0  0  0  0  0  0  0
    6.3798  -14.4882   21.7459 O   0  0  0  0  0  0  0  0  0  0  0  0
   12.6984  -13.0604   18.5192 N   0  0  0  0  0  0  0  0  0  0  0  0
    8.1907  -15.7247   22.3772 C   0  0  2  0  0  0  0  0  0  0  0  0
    7.6358  -15.9323   23.7181 C   0  0  0  0  0  0  0  0  0  0  0  0
    7.8928  -17.3174   24.1964 C   0  0  0  0  0  0  0  0  0  0  0  0
    7.4295  -17.5591   25.6020 C   0  0  0  0  0  0  0  0  0  0  0  0
    7.6767  -19.0308   25.9890 C   0  0  0  0  0  0  0  0  0  0  0  0
    7.2464  -19.1914   27.4463 N   0  0  0  0  0  0  0  0  0  0  0  0
    7.5642  -20.5141   27.9263 C   0  0  0  0  0  0  0  0  0  0  0  0
    8.1188  -14.9094   24.6517 O   0  0  0  0  0  0  0  0  0  0  0  0
    9.3340  -14.7334   24.8433 C   0  0  0  0  0  0  0  0  0  0  0  0
    6.6211  -12.0954   26.6886 C   0  0  2  0  0  0  0  0  0  0  0  0
    7.7206  -13.0293   26.2425 N   0  0  0  0  0  0  0  0  0  0  0  0
    7.2201  -14.0739   25.3789 C   0  0  0  0  0  0  0  0  0  0  0  0
    8.4059  -13.5578   27.4334 O   0  0  0  0  0  0  0  0  0  0  0  0
    8.3447  -14.7782   27.7479 O   0  0  0  0  0  0  0  0  0  0  0  0
  2  1  1  0
  2  3  2  0
  4  2  1  0
  5  4  1  0
  6  5  1  0
  7  6  1  0
  8  7  1  0
  8  9  1  6
 10  8  1  0
 11 10  2  0
 12 10  1  0
 13 14  1  6
 13 12  1  0
 15 16  1  0
 15 14  1  0
 17 16  1  0
 18 17  1  0
 19 13  1  0
 19 23  1  0
 20 19  2  0
 22 24  1  0
 22 23  1  0
 22 21  1  6
 24 26  1  0
 25 24  2  0
M  END
$$$$
