RKA.pdb
     RDKit          3D

 26 25  0  0  1  0  0  0  0  0999 V2000
    8.0779  -17.6673   14.2465 N   0  0  0  0  0  0  0  0  0  0  0  0
    7.3341  -18.6585   13.5392 C   0  0  0  0  0  0  0  0  0  0  0  0
    7.2659  -18.5899   12.2699 N   0  0  0  0  0  0  0  0  0  0  0  0
    6.6785  -19.7073   14.2216 N   0  0  0  0  0  0  0  0  0  0  0  0
    6.5164  -19.6336   15.6692 C   0  0  0  0  0  0  0  0  0  0  0  0
    6.3428  -18.2365   16.1400 C   0  0  0  0  0  0  0  0  0  0  0  0
    6.1409  -18.1171   17.5923 C   0  0  0  0  0  0  0  0  0  0  0  0
    7.2429  -18.5778   18.4516 C   0  0  2  0  0  0  0  0  0  0  0  0
    7.8911  -19.7883   18.0130 N   0  0  0  0  0  0  0  0  0  0  0  0
    6.7861  -18.7297   19.8857 C   0  0  0  0  0  0  0  0  0  0  0  0
    6.1579  -17.8053   20.4613 O   0  0  0  0  0  0  0  0  0  0  0  0
    6.6792  -19.2430   11.7287 N   0  0  0  0  0  0  0  0  0  0  0  0
    7.0439  -19.9016   20.6272 C   0  0  1  0  0  0  0  0  0  0  0  0
    6.6024  -20.0209   22.0201 C   0  0  0  0  0  0  0  0  0  0  0  0
    6.1628  -21.4088   22.3263 C   0  0  0  0  0  0  0  0  0  0  0  0
    5.7230  -21.5957   23.7478 C   0  0  0  0  0  0  0  0  0  0  0  0
    5.2573  -23.0493   23.9649 C   0  0  0  0  0  0  0  0  0  0  0  0
    4.7060  -23.1375   25.3872 N   0  0  0  0  0  0  0  0  0  0  0  0
    4.1465  -24.4439   25.6343 C   0  0  0  0  0  0  0  0  0  0  0  0
    7.6337  -19.5345   22.9425 O   0  0  0  0  0  0  0  0  0  0  0  0
    8.7935  -19.9796   22.9059 C   0  0  0  0  0  0  0  0  0  0  0  0
    8.0222  -16.7792   25.4894 C   0  0  2  0  0  0  0  0  0  0  0  0
    8.3784  -18.0945   24.8388 N   0  0  0  0  0  0  0  0  0  0  0  0
    7.3541  -18.5331   23.9191 C   0  0  0  0  0  0  0  0  0  0  0  0
    8.6562  -19.0845   25.8923 O   0  0  0  0  0  0  0  0  0  0  0  0
    7.8420  -20.0087   26.1665 O   0  0  0  0  0  0  0  0  0  0  0  0
  2  1  1  0
  2  3  2  0
  4  2  1  0
  5  4  1  0
  6  5  1  0
  7  6  1  0
  8  7  1  0
  8  9  1  6
 10  8  1  0
 11 10  2  0
 12 10  1  0
 13 14  1  1
 13 12  1  0
 15 16  1  0
 15 14  1  0
 17 16  1  0
 18 17  1  0
 19 13  1  0
 19 23  1  0
 20 19  2  0
 22 24  1  0
 22 23  1  0
 22 21  1  6
 24 26  1  0
 25 24  2  0
M  END
$$$$
