RVT.pdb
     RDKit          3D

 26 25  0  0  1  0  0  0  0  0999 V2000
    8.1541  -21.2820   15.3106 N   0  0  0  0  0  0  0  0  0  0  0  0
    6.7306  -21.1163   15.4294 C   0  0  0  0  0  0  0  0  0  0  0  0
    5.9561  -21.7764   14.6501 N   0  0  0  0  0  0  0  0  0  0  0  0
    6.1448  -20.2410   16.3855 N   0  0  0  0  0  0  0  0  0  0  0  0
    6.8642  -19.1322   16.9657 C   0  0  0  0  0  0  0  0  0  0  0  0
    7.7754  -18.4296   16.0383 C   0  0  0  0  0  0  0  0  0  0  0  0
    8.5788  -17.2995   16.5316 C   0  0  0  0  0  0  0  0  0  0  0  0
    7.9363  -16.0100   16.8584 C   0  0  2  0  0  0  0  0  0  0  0  0
    8.0708  -15.0599   15.7491 N   0  0  0  0  0  0  0  0  0  0  0  0
    8.7950  -15.3706   17.9405 C   0  0  0  0  0  0  0  0  0  0  0  0
    9.5612  -14.4367   17.5846 O   0  0  0  0  0  0  0  0  0  0  0  0
    4.9217  -21.7135   14.6641 C   0  0  0  0  0  0  0  0  0  0  0  0
    8.1806  -12.8647   18.8735 C   0  0  2  0  0  0  0  0  0  0  0  0
    7.9844  -13.6092   20.1529 C   0  0  0  0  0  0  0  0  0  0  0  0
    8.0568  -12.6849   21.3584 C   0  0  2  0  0  0  0  0  0  0  0  0
    8.9118  -14.7942   20.3247 N   0  0  0  0  0  0  0  0  0  0  0  0
    8.7713  -15.7655   19.2886 C   0  0  0  0  0  0  0  0  0  0  0  0
    8.7005  -15.3226   21.6965 O   0  0  0  0  0  0  0  0  0  0  0  0
    7.5124  -15.5261   22.0368 C   0  0  0  0  0  0  0  0  0  0  0  0
   11.0789  -19.1735   22.4162 C   0  0  2  0  0  0  0  0  0  0  0  0
   10.5183  -17.8514   21.9147 O   0  0  0  0  0  0  0  0  0  0  0  0
    9.4530  -18.0398   21.0413 C   0  0  1  0  0  0  0  0  0  0  0  0
   10.2272  -16.8851   23.0017 N   0  0  0  0  0  0  0  0  0  0  0  0
    9.7628  -15.5949   22.6011 C   0  0  0  0  0  0  0  0  0  0  0  0
   11.3703  -16.8654   23.9647 O   0  0  0  0  0  0  0  0  0  0  0  0
   11.4228  -17.6440   25.1061 O   0  0  0  0  0  0  0  0  0  0  0  0
  1  2  1  0
  2  3  2  0
  4  2  1  0
  5  4  1  0
  6  7  1  0
  6  5  1  0
  7  8  1  0
  8 10  1  0
  8  9  1  6
 10 11  2  0
 13 14  1  1
 13 12  1  0
 15 13  1  0
 15 16  1  1
 16 10  1  0
 17 15  1  0
 18 17  2  0
 20 19  1  6
 20 21  1  0
 20 22  1  0
 22 23  1  6
 23 17  1  0
 24 22  1  0
 24 25  1  0
 26 24  2  0
M  END
$$$$
