RVT.pdb
     RDKit          3D

 26 25  0  0  1  0  0  0  0  0999 V2000
    5.1983  -20.9280   18.7116 N   0  0  0  0  0  0  0  0  0  0  0  0
    4.9295  -20.8913   17.2994 C   0  0  0  0  0  0  0  0  0  0  0  0
    3.7612  -21.2051   16.8759 N   0  0  0  0  0  0  0  0  0  0  0  0
    5.9182  -20.5176   16.3473 N   0  0  0  0  0  0  0  0  0  0  0  0
    7.1020  -19.7751   16.7087 C   0  0  0  0  0  0  0  0  0  0  0  0
    7.3147  -19.6143   18.1623 C   0  0  0  0  0  0  0  0  0  0  0  0
    8.5000  -18.8866   18.6436 C   0  0  0  0  0  0  0  0  0  0  0  0
    8.9562  -17.6607   17.9571 C   0  0  2  0  0  0  0  0  0  0  0  0
   10.2584  -17.8712   17.3157 N   0  0  0  0  0  0  0  0  0  0  0  0
    9.2915  -16.6601   19.0541 C   0  0  0  0  0  0  0  0  0  0  0  0
   10.4874  -16.6224   19.4471 O   0  0  0  0  0  0  0  0  0  0  0  0
    3.4967  -21.2557   15.8751 C   0  0  0  0  0  0  0  0  0  0  0  0
    7.8370  -12.8382   19.6848 C   0  0  2  0  0  0  0  0  0  0  0  0
    7.8265  -13.7431   20.8725 C   0  0  0  0  0  0  0  0  0  0  0  0
    8.1379  -12.9899   22.1564 C   0  0  2  0  0  0  0  0  0  0  0  0
    8.7194  -14.9581   20.7292 N   0  0  0  0  0  0  0  0  0  0  0  0
    8.3487  -15.7951   19.6345 C   0  0  0  0  0  0  0  0  0  0  0  0
    8.7445  -15.6430   22.0469 O   0  0  0  0  0  0  0  0  0  0  0  0
    7.6538  -16.1052   22.4538 C   0  0  0  0  0  0  0  0  0  0  0  0
   11.4097  -18.2779   25.3116 C   0  0  2  0  0  0  0  0  0  0  0  0
   11.3080  -17.4397   24.0464 O   0  0  0  0  0  0  0  0  0  0  0  0
   11.5202  -18.2019   22.9030 C   0  0  1  0  0  0  0  0  0  0  0  0
   10.0780  -16.6128   23.9852 N   0  0  0  0  0  0  0  0  0  0  0  0
    9.9218  -15.7860   22.8308 C   0  0  0  0  0  0  0  0  0  0  0  0
    9.8926  -15.9056   25.2890 O   0  0  0  0  0  0  0  0  0  0  0  0
    9.3939  -16.5144   26.4256 O   0  0  0  0  0  0  0  0  0  0  0  0
  1  2  1  0
  2  3  2  0
  4  2  1  0
  5  4  1  0
  6  7  1  0
  6  5  1  0
  7  8  1  0
  8 10  1  0
  8  9  1  1
 10 11  2  0
 13 14  1  6
 13 12  1  0
 15 13  1  0
 15 16  1  6
 16 10  1  0
 17 15  1  0
 18 17  2  0
 20 19  1  1
 20 21  1  0
 20 22  1  0
 22 23  1  1
 23 17  1  0
 24 22  1  0
 24 25  1  0
 26 24  2  0
M  END
$$$$
