RVT.pdb
     RDKit          3D

 26 25  0  0  1  0  0  0  0  0999 V2000
    8.0206  -15.2366   15.6428 N   0  0  0  0  0  0  0  0  0  0  0  0
    8.0032  -13.8245   15.9138 C   0  0  0  0  0  0  0  0  0  0  0  0
    7.6680  -13.0117   14.9811 N   0  0  0  0  0  0  0  0  0  0  0  0
    8.3469  -13.2910   17.1870 N   0  0  0  0  0  0  0  0  0  0  0  0
    8.9516  -14.0902   18.2257 C   0  0  0  0  0  0  0  0  0  0  0  0
    8.0303  -14.5096   19.3025 C   0  0  0  0  0  0  0  0  0  0  0  0
    8.4211  -14.3094   20.7072 C   0  0  0  0  0  0  0  0  0  0  0  0
    8.4003  -15.4393   21.6587 C   0  0  2  0  0  0  0  0  0  0  0  0
    7.0449  -15.9814   21.8013 N   0  0  0  0  0  0  0  0  0  0  0  0
    8.6577  -14.8401   23.0342 C   0  0  0  0  0  0  0  0  0  0  0  0
    9.7628  -14.2617   23.2078 O   0  0  0  0  0  0  0  0  0  0  0  0
    7.6791  -11.9796   15.0736 C   0  0  0  0  0  0  0  0  0  0  0  0
    6.7866  -12.3311   25.1201 C   0  0  1  0  0  0  0  0  0  0  0  0
    7.1199  -13.4885   26.0026 C   0  0  0  0  0  0  0  0  0  0  0  0
    7.5755  -13.0328   27.3801 C   0  0  2  0  0  0  0  0  0  0  0  0
    8.1145  -14.4578   25.3982 N   0  0  0  0  0  0  0  0  0  0  0  0
    7.7383  -14.9005   24.0948 C   0  0  0  0  0  0  0  0  0  0  0  0
    8.3189  -15.5497   26.3841 O   0  0  0  0  0  0  0  0  0  0  0  0
    7.2848  -16.1082   26.8171 C   0  0  0  0  0  0  0  0  0  0  0  0
    9.9042  -18.6564   25.4217 C   0  0  2  0  0  0  0  0  0  0  0  0
   10.6626  -18.1966   26.6576 O   0  0  0  0  0  0  0  0  0  0  0  0
   11.9588  -17.7984   26.3502 C   0  0  2  0  0  0  0  0  0  0  0  0
    9.9171  -17.2051   27.4708 N   0  0  0  0  0  0  0  0  0  0  0  0
    9.6015  -15.9658   26.8343 C   0  0  0  0  0  0  0  0  0  0  0  0
   10.5714  -17.0708   28.8081 O   0  0  0  0  0  0  0  0  0  0  0  0
   10.6900  -18.1120   29.7099 O   0  0  0  0  0  0  0  0  0  0  0  0
  1  2  1  0
  2  3  2  0
  4  2  1  0
  5  4  1  0
  6  7  1  0
  6  5  1  0
  7  8  1  0
  8 10  1  0
  8  9  1  1
 10 11  2  0
 13 14  1  1
 13 12  1  0
 15 13  1  0
 15 16  1  6
 16 10  1  0
 17 15  1  0
 18 17  2  0
 20 19  1  1
 20 21  1  0
 20 22  1  0
 22 23  1  1
 23 17  1  0
 24 22  1  0
 24 25  1  0
 26 24  2  0
M  END
$$$$
