RVT.pdb
     RDKit          3D

 26 25  0  0  1  0  0  0  0  0999 V2000
    8.3545  -12.5412   17.6192 N   0  0  0  0  0  0  0  0  0  0  0  0
    8.2332  -13.8610   17.0613 C   0  0  0  0  0  0  0  0  0  0  0  0
    8.5189  -14.0474   15.8258 N   0  0  0  0  0  0  0  0  0  0  0  0
    7.8045  -14.9759   17.8338 N   0  0  0  0  0  0  0  0  0  0  0  0
    8.1590  -15.1393   19.2235 C   0  0  0  0  0  0  0  0  0  0  0  0
    7.3871  -14.3006   20.1641 C   0  0  0  0  0  0  0  0  0  0  0  0
    6.5398  -14.9456   21.1801 C   0  0  0  0  0  0  0  0  0  0  0  0
    6.6649  -16.3925   21.4509 C   0  0  2  0  0  0  0  0  0  0  0  0
    5.4199  -17.0972   21.1275 N   0  0  0  0  0  0  0  0  0  0  0  0
    6.7364  -16.5358   22.9647 C   0  0  0  0  0  0  0  0  0  0  0  0
    5.7346  -16.1500   23.6231 O   0  0  0  0  0  0  0  0  0  0  0  0
    8.5447  -14.9757   15.3657 C   0  0  0  0  0  0  0  0  0  0  0  0
    9.0792  -19.4669   25.0877 C   0  0  1  0  0  0  0  0  0  0  0  0
    7.7912  -18.7798   25.4017 C   0  0  0  0  0  0  0  0  0  0  0  0
    6.6043  -19.4969   24.7774 C   0  0  1  0  0  0  0  0  0  0  0  0
    7.7774  -17.3064   25.0509 N   0  0  0  0  0  0  0  0  0  0  0  0
    7.8440  -17.0684   23.6455 C   0  0  0  0  0  0  0  0  0  0  0  0
    8.8573  -16.6572   25.8371 O   0  0  0  0  0  0  0  0  0  0  0  0
    9.9458  -16.4782   25.2439 C   0  0  0  0  0  0  0  0  0  0  0  0
   10.2214  -13.4318   29.2712 C   0  0  2  0  0  0  0  0  0  0  0  0
    9.1483  -14.2112   28.5262 O   0  0  0  0  0  0  0  0  0  0  0  0
    8.4812  -13.4166   27.6005 C   0  0  1  0  0  0  0  0  0  0  0  0
    9.6365  -15.4929   27.9615 N   0  0  0  0  0  0  0  0  0  0  0  0
    8.7011  -16.2475   27.1895 C   0  0  0  0  0  0  0  0  0  0  0  0
   10.3338  -16.2704   29.0310 O   0  0  0  0  0  0  0  0  0  0  0  0
   11.4373  -15.8033   29.7206 O   0  0  0  0  0  0  0  0  0  0  0  0
  1  2  1  0
  2  3  2  0
  4  2  1  0
  5  4  1  0
  6  7  1  0
  6  5  1  0
  7  8  1  0
  8 10  1  0
  8  9  1  1
 10 11  2  0
 13 14  1  6
 13 12  1  0
 15 13  1  0
 15 16  1  6
 16 10  1  0
 17 15  1  0
 18 17  2  0
 20 19  1  1
 20 21  1  0
 20 22  1  0
 22 23  1  1
 23 17  1  0
 24 22  1  0
 24 25  1  0
 26 24  2  0
M  END
$$$$
