RVT.pdb
     RDKit          3D

 26 25  0  0  1  0  0  0  0  0999 V2000
    9.4212  -19.9482   19.0273 N   0  0  0  0  0  0  0  0  0  0  0  0
    8.2831  -19.5358   18.2511 C   0  0  0  0  0  0  0  0  0  0  0  0
    7.8862  -20.2731   17.2808 N   0  0  0  0  0  0  0  0  0  0  0  0
    7.5758  -18.3313   18.5208 N   0  0  0  0  0  0  0  0  0  0  0  0
    8.0392  -17.3575   19.4802 C   0  0  0  0  0  0  0  0  0  0  0  0
    7.3443  -17.3907   20.7840 C   0  0  0  0  0  0  0  0  0  0  0  0
    7.8265  -16.5379   21.8823 C   0  0  0  0  0  0  0  0  0  0  0  0
    7.3322  -15.1534   22.0281 C   0  0  2  0  0  0  0  0  0  0  0  0
    7.9073  -14.2791   21.0004 N   0  0  0  0  0  0  0  0  0  0  0  0
    7.9594  -14.6115   23.3049 C   0  0  0  0  0  0  0  0  0  0  0  0
    9.2083  -14.4499   23.3040 O   0  0  0  0  0  0  0  0  0  0  0  0
    7.0851  -20.0457   16.6639 C   0  0  0  0  0  0  0  0  0  0  0  0
    6.5295  -11.7146   25.6881 C   0  0  1  0  0  0  0  0  0  0  0  0
    7.0573  -12.8798   26.4584 C   0  0  0  0  0  0  0  0  0  0  0  0
    7.8093  -12.4367   27.7038 C   0  0  2  0  0  0  0  0  0  0  0  0
    7.8942  -13.8355   25.6337 N   0  0  0  0  0  0  0  0  0  0  0  0
    7.2246  -14.2893   24.4581 C   0  0  0  0  0  0  0  0  0  0  0  0
    8.3463  -14.9201   26.5422 O   0  0  0  0  0  0  0  0  0  0  0  0
    7.4472  -15.6180   27.0649 C   0  0  0  0  0  0  0  0  0  0  0  0
   10.7417  -17.8490   25.7838 C   0  0  2  0  0  0  0  0  0  0  0  0
   11.2455  -17.1190   27.0195 O   0  0  0  0  0  0  0  0  0  0  0  0
   12.4584  -16.4811   26.7844 C   0  0  2  0  0  0  0  0  0  0  0  0
   10.2256  -16.2386   27.6401 N   0  0  0  0  0  0  0  0  0  0  0  0
    9.7145  -15.1819   26.8260 C   0  0  0  0  0  0  0  0  0  0  0  0
   10.6982  -15.8118   28.9924 O   0  0  0  0  0  0  0  0  0  0  0  0
   10.9847  -16.6949   30.0169 O   0  0  0  0  0  0  0  0  0  0  0  0
  1  2  1  0
  2  3  2  0
  4  2  1  0
  5  4  1  0
  6  7  1  0
  6  5  1  0
  7  8  1  0
  8 10  1  0
  8  9  1  6
 10 11  2  0
 13 14  1  6
 13 12  1  0
 15 13  1  0
 15 16  1  6
 16 10  1  0
 17 15  1  0
 18 17  2  0
 20 19  1  1
 20 21  1  0
 20 22  1  0
 22 23  1  1
 23 17  1  0
 24 22  1  0
 24 25  1  0
 26 24  2  0
M  END
$$$$
