RVT.pdb
     RDKit          3D

 26 25  0  0  1  0  0  0  0  0999 V2000
    8.6462  -20.0014   20.5272 N   0  0  0  0  0  0  0  0  0  0  0  0
    9.5089  -18.8600   20.3835 C   0  0  0  0  0  0  0  0  0  0  0  0
   10.7687  -18.9991   20.5744 N   0  0  0  0  0  0  0  0  0  0  0  0
    9.0139  -17.5725   20.0356 N   0  0  0  0  0  0  0  0  0  0  0  0
    7.6029  -17.2777   19.9615 C   0  0  0  0  0  0  0  0  0  0  0  0
    7.1904  -16.0376   20.6515 C   0  0  0  0  0  0  0  0  0  0  0  0
    7.7554  -14.7485   20.2213 C   0  0  0  0  0  0  0  0  0  0  0  0
    7.2983  -13.4868   20.8389 C   0  0  2  0  0  0  0  0  0  0  0  0
    7.9895  -12.3339   20.2522 N   0  0  0  0  0  0  0  0  0  0  0  0
    7.8315  -13.4951   22.2647 C   0  0  0  0  0  0  0  0  0  0  0  0
    9.0556  -13.2425   22.4184 O   0  0  0  0  0  0  0  0  0  0  0  0
   11.4589  -18.2292   20.5033 C   0  0  0  0  0  0  0  0  0  0  0  0
    6.3629  -11.5631   25.2735 C   0  0  1  0  0  0  0  0  0  0  0  0
    6.7062  -12.9570   25.6842 C   0  0  0  0  0  0  0  0  0  0  0  0
    7.2931  -13.0020   27.0864 C   0  0  2  0  0  0  0  0  0  0  0  0
    7.5986  -13.6867   24.7017 N   0  0  0  0  0  0  0  0  0  0  0  0
    7.0374  -13.7645   23.3920 C   0  0  0  0  0  0  0  0  0  0  0  0
    7.9356  -15.0008   25.3061 O   0  0  0  0  0  0  0  0  0  0  0  0
    6.9743  -15.7708   25.5334 C   0  0  0  0  0  0  0  0  0  0  0  0
   11.2582  -18.6381   25.9360 C   0  0  2  0  0  0  0  0  0  0  0  0
   10.8458  -17.2867   25.3724 O   0  0  0  0  0  0  0  0  0  0  0  0
   10.7051  -17.3247   23.9896 C   0  0  1  0  0  0  0  0  0  0  0  0
    9.6802  -16.6893   26.0686 N   0  0  0  0  0  0  0  0  0  0  0  0
    9.2636  -15.3978   25.6223 C   0  0  0  0  0  0  0  0  0  0  0  0
    9.8739  -16.8063   27.5462 O   0  0  0  0  0  0  0  0  0  0  0  0
    9.6704  -17.9762   28.2543 O   0  0  0  0  0  0  0  0  0  0  0  0
  1  2  1  0
  2  3  2  0
  4  2  1  0
  5  4  1  0
  6  7  1  0
  6  5  1  0
  7  8  1  0
  8 10  1  0
  8  9  1  6
 10 11  2  0
 13 14  1  1
 13 12  1  0
 15 13  1  0
 15 16  1  6
 16 10  1  0
 17 15  1  0
 18 17  2  0
 20 19  1  6
 20 21  1  0
 20 22  1  0
 22 23  1  1
 23 17  1  0
 24 22  1  0
 24 25  1  0
 26 24  2  0
M  END
$$$$
