RVT.pdb
     RDKit          3D

 26 25  0  0  1  0  0  0  0  0999 V2000
    8.3198  -17.0742   16.6607 N   0  0  0  0  0  0  0  0  0  0  0  0
    7.3843  -16.2392   15.9568 C   0  0  0  0  0  0  0  0  0  0  0  0
    6.9045  -16.6411   14.8382 N   0  0  0  0  0  0  0  0  0  0  0  0
    6.9683  -14.9744   16.4578 N   0  0  0  0  0  0  0  0  0  0  0  0
    7.5442  -14.3809   17.6407 C   0  0  0  0  0  0  0  0  0  0  0  0
    7.6292  -15.2817   18.8092 C   0  0  0  0  0  0  0  0  0  0  0  0
    8.2655  -14.8027   20.0468 C   0  0  0  0  0  0  0  0  0  0  0  0
    7.8724  -13.5072   20.6381 C   0  0  2  0  0  0  0  0  0  0  0  0
    8.7024  -12.4171   20.1144 N   0  0  0  0  0  0  0  0  0  0  0  0
    8.2932  -13.5632   22.1000 C   0  0  0  0  0  0  0  0  0  0  0  0
    9.5068  -13.8019   22.3365 O   0  0  0  0  0  0  0  0  0  0  0  0
    6.2118  -16.1134   14.2763 C   0  0  0  0  0  0  0  0  0  0  0  0
    7.7056  -12.4774   26.8388 C   0  0  1  0  0  0  0  0  0  0  0  0
    7.1131  -12.5565   25.4705 C   0  0  0  0  0  0  0  0  0  0  0  0
    5.6436  -12.9458   25.5154 C   0  0  2  0  0  0  0  0  0  0  0  0
    7.8796  -13.4504   24.5179 N   0  0  0  0  0  0  0  0  0  0  0  0
    7.4090  -13.3640   23.1734 C   0  0  0  0  0  0  0  0  0  0  0  0
    7.8607  -14.8210   25.0898 O   0  0  0  0  0  0  0  0  0  0  0  0
    7.0510  -15.6265   24.5758 C   0  0  0  0  0  0  0  0  0  0  0  0
   11.0275  -16.3847   24.7065 C   0  0  1  0  0  0  0  0  0  0  0  0
    9.8901  -17.2173   25.2784 O   0  0  0  0  0  0  0  0  0  0  0  0
   10.2947  -18.5158   25.5674 C   0  0  1  0  0  0  0  0  0  0  0  0
    9.1826  -16.5553   26.4015 N   0  0  0  0  0  0  0  0  0  0  0  0
    8.7005  -15.2324   26.1606 C   0  0  0  0  0  0  0  0  0  0  0  0
    9.9880  -16.7079   27.6515 O   0  0  0  0  0  0  0  0  0  0  0  0
   10.3081  -17.9310   28.2110 O   0  0  0  0  0  0  0  0  0  0  0  0
  1  2  1  0
  2  3  2  0
  4  2  1  0
  5  4  1  0
  6  7  1  0
  6  5  1  0
  7  8  1  0
  8 10  1  0
  8  9  1  6
 10 11  2  0
 13 14  1  1
 13 12  1  0
 15 13  1  0
 15 16  1  1
 16 10  1  0
 17 15  1  0
 18 17  2  0
 20 19  1  6
 20 21  1  0
 20 22  1  0
 22 23  1  6
 23 17  1  0
 24 22  1  0
 24 25  1  0
 26 24  2  0
M  END
$$$$
