RVT.pdb
     RDKit          3D

 26 25  0  0  1  0  0  0  0  0999 V2000
    8.4242  -12.7463   17.1319 N   0  0  0  0  0  0  0  0  0  0  0  0
    7.9622  -13.9515   16.4980 C   0  0  0  0  0  0  0  0  0  0  0  0
    8.3685  -14.2326   15.3154 N   0  0  0  0  0  0  0  0  0  0  0  0
    7.0642  -14.8503   17.1380 N   0  0  0  0  0  0  0  0  0  0  0  0
    6.6888  -14.7156   18.5252 C   0  0  0  0  0  0  0  0  0  0  0  0
    7.4532  -15.5665   19.4609 C   0  0  0  0  0  0  0  0  0  0  0  0
    8.0011  -14.9757   20.6925 C   0  0  0  0  0  0  0  0  0  0  0  0
    7.3949  -13.7607   21.2745 C   0  0  2  0  0  0  0  0  0  0  0  0
    7.9472  -12.5504   20.6569 N   0  0  0  0  0  0  0  0  0  0  0  0
    7.9191  -13.6667   22.7005 C   0  0  0  0  0  0  0  0  0  0  0  0
    9.1667  -13.5757   22.8459 O   0  0  0  0  0  0  0  0  0  0  0  0
    8.0476  -15.0510   14.7665 C   0  0  0  0  0  0  0  0  0  0  0  0
    6.4698  -11.6855   25.9073 C   0  0  1  0  0  0  0  0  0  0  0  0
    6.8180  -13.1063   26.2066 C   0  0  0  0  0  0  0  0  0  0  0  0
    7.4603  -13.2514   27.5774 C   0  0  2  0  0  0  0  0  0  0  0  0
    7.6642  -13.7710   25.1407 N   0  0  0  0  0  0  0  0  0  0  0  0
    7.0926  -13.6755   23.8366 C   0  0  0  0  0  0  0  0  0  0  0  0
    7.9328  -15.1593   25.5950 O   0  0  0  0  0  0  0  0  0  0  0  0
    6.9382  -15.9142   25.6927 C   0  0  0  0  0  0  0  0  0  0  0  0
    9.7921  -17.8535   23.8847 C   0  0  2  0  0  0  0  0  0  0  0  0
   10.4394  -17.7013   25.2528 O   0  0  0  0  0  0  0  0  0  0  0  0
   11.7270  -17.1845   25.1607 C   0  0  2  0  0  0  0  0  0  0  0  0
    9.5848  -16.9869   26.2324 N   0  0  0  0  0  0  0  0  0  0  0  0
    9.2329  -15.6406   25.9097 C   0  0  0  0  0  0  0  0  0  0  0  0
   10.1453  -17.1734   27.6055 O   0  0  0  0  0  0  0  0  0  0  0  0
   10.2732  -18.4058   28.2189 O   0  0  0  0  0  0  0  0  0  0  0  0
  1  2  1  0
  2  3  2  0
  4  2  1  0
  5  4  1  0
  6  7  1  0
  6  5  1  0
  7  8  1  0
  8 10  1  0
  8  9  1  6
 10 11  2  0
 13 14  1  6
 13 12  1  0
 15 13  1  0
 15 16  1  6
 16 10  1  0
 17 15  1  0
 18 17  2  0
 20 19  1  6
 20 21  1  0
 20 22  1  0
 22 23  1  1
 23 17  1  0
 24 22  1  0
 24 25  1  0
 26 24  2  0
M  END
$$$$
