RVT.pdb
     RDKit          3D

 26 25  0  0  1  0  0  0  0  0999 V2000
    8.6020  -15.1974   13.9751 N   0  0  0  0  0  0  0  0  0  0  0  0
    8.2453  -15.1822   15.3681 C   0  0  0  0  0  0  0  0  0  0  0  0
    7.5458  -14.2102   15.8250 N   0  0  0  0  0  0  0  0  0  0  0  0
    8.6425  -16.2122   16.2652 N   0  0  0  0  0  0  0  0  0  0  0  0
    8.2547  -16.2225   17.6555 C   0  0  0  0  0  0  0  0  0  0  0  0
    8.2311  -14.8945   18.3035 C   0  0  0  0  0  0  0  0  0  0  0  0
    7.8814  -14.7918   19.7294 C   0  0  0  0  0  0  0  0  0  0  0  0
    7.7344  -13.4694   20.3713 C   0  0  2  0  0  0  0  0  0  0  0  0
    8.7654  -12.5389   19.8996 N   0  0  0  0  0  0  0  0  0  0  0  0
    8.1142  -13.6627   21.8326 C   0  0  0  0  0  0  0  0  0  0  0  0
    9.3350  -13.8377   22.0874 O   0  0  0  0  0  0  0  0  0  0  0  0
    7.2895  -13.3676   15.2788 C   0  0  0  0  0  0  0  0  0  0  0  0
    6.3904  -11.7302   24.9063 C   0  0  1  0  0  0  0  0  0  0  0  0
    6.7191  -13.1477   25.2410 C   0  0  0  0  0  0  0  0  0  0  0  0
    7.2805  -13.2778   26.6484 C   0  0  2  0  0  0  0  0  0  0  0  0
    7.6252  -13.8245   24.2336 N   0  0  0  0  0  0  0  0  0  0  0  0
    7.1855  -13.6537   22.8868 C   0  0  0  0  0  0  0  0  0  0  0  0
    7.7742  -15.2401   24.6577 O   0  0  0  0  0  0  0  0  0  0  0  0
    6.9300  -16.0474   24.2057 C   0  0  0  0  0  0  0  0  0  0  0  0
    8.9977  -17.3713   23.0919 C   0  0  2  0  0  0  0  0  0  0  0  0
    9.9636  -17.4779   24.2622 O   0  0  0  0  0  0  0  0  0  0  0  0
   11.2024  -16.9223   23.9622 C   0  0  2  0  0  0  0  0  0  0  0  0
    9.3931  -16.9928   25.5426 N   0  0  0  0  0  0  0  0  0  0  0  0
    8.8051  -15.6910   25.5266 C   0  0  0  0  0  0  0  0  0  0  0  0
   10.3820  -17.2173   26.6408 O   0  0  0  0  0  0  0  0  0  0  0  0
   10.9404  -16.1969   27.3881 O   0  0  0  0  0  0  0  0  0  0  0  0
  1  2  1  0
  2  3  2  0
  4  2  1  0
  5  4  1  0
  6  7  1  0
  6  5  1  0
  7  8  1  0
  8 10  1  0
  8  9  1  6
 10 11  2  0
 13 14  1  6
 13 12  1  0
 15 13  1  0
 15 16  1  6
 16 10  1  0
 17 15  1  0
 18 17  2  0
 20 19  1  6
 20 21  1  0
 20 22  1  0
 22 23  1  1
 23 17  1  0
 24 22  1  0
 24 25  1  0
 26 24  2  0
M  END
$$$$
