RVT.pdb
     RDKit          3D

 26 25  0  0  1  0  0  0  0  0999 V2000
    8.7560  -22.3383   15.4284 N   0  0  0  0  0  0  0  0  0  0  0  0
    7.5315  -22.3496   16.1823 C   0  0  0  0  0  0  0  0  0  0  0  0
    7.3224  -23.2942   17.0231 N   0  0  0  0  0  0  0  0  0  0  0  0
    6.5358  -21.3453   16.0292 N   0  0  0  0  0  0  0  0  0  0  0  0
    6.8052  -20.0752   15.3986 C   0  0  0  0  0  0  0  0  0  0  0  0
    7.9313  -19.3178   15.9837 C   0  0  0  0  0  0  0  0  0  0  0  0
    7.6568  -18.0958   16.7567 C   0  0  0  0  0  0  0  0  0  0  0  0
    8.2209  -16.7982   16.3321 C   0  0  2  0  0  0  0  0  0  0  0  0
    9.4550  -16.9884   15.5625 N   0  0  0  0  0  0  0  0  0  0  0  0
    8.7276  -16.1215   17.5979 C   0  0  0  0  0  0  0  0  0  0  0  0
    9.8916  -16.4171   17.9772 O   0  0  0  0  0  0  0  0  0  0  0  0
    7.9394  -24.1185   17.1412 C   0  0  0  0  0  0  0  0  0  0  0  0
    8.3948  -12.5618   21.0236 C   0  0  1  0  0  0  0  0  0  0  0  0
    7.7333  -13.3641   19.9519 C   0  0  0  0  0  0  0  0  0  0  0  0
    6.3353  -13.8028   20.3594 C   0  0  2  0  0  0  0  0  0  0  0  0
    8.5515  -14.5450   19.4724 N   0  0  0  0  0  0  0  0  0  0  0  0
    7.9731  -15.2017   18.3452 C   0  0  0  0  0  0  0  0  0  0  0  0
    8.7825  -15.4253   20.6461 O   0  0  0  0  0  0  0  0  0  0  0  0
    7.9196  -16.3083   20.8568 C   0  0  0  0  0  0  0  0  0  0  0  0
    9.5695  -18.3232   21.2723 C   0  0  2  0  0  0  0  0  0  0  0  0
   10.7189  -17.5993   21.9570 O   0  0  0  0  0  0  0  0  0  0  0  0
   11.8663  -17.5923   21.1717 C   0  0  2  0  0  0  0  0  0  0  0  0
   10.3472  -16.2587   22.4717 N   0  0  0  0  0  0  0  0  0  0  0  0
    9.9089  -15.3030   21.5048 C   0  0  0  0  0  0  0  0  0  0  0  0
   11.4179  -15.7687   23.3926 O   0  0  0  0  0  0  0  0  0  0  0  0
   11.7810  -16.4179   24.5580 O   0  0  0  0  0  0  0  0  0  0  0  0
  1  2  1  0
  2  3  2  0
  4  2  1  0
  5  4  1  0
  6  7  1  0
  6  5  1  0
  7  8  1  0
  8 10  1  0
  8  9  1  6
 10 11  2  0
 13 14  1  1
 13 12  1  0
 15 13  1  0
 15 16  1  1
 16 10  1  0
 17 15  1  0
 18 17  2  0
 20 19  1  1
 20 21  1  0
 20 22  1  0
 22 23  1  1
 23 17  1  0
 24 22  1  0
 24 25  1  0
 26 24  2  0
M  END
$$$$
