RVT.pdb
     RDKit          3D

 26 25  0  0  1  0  0  0  0  0999 V2000
    5.6296  -21.7994   17.4384 N   0  0  0  0  0  0  0  0  0  0  0  0
    4.7473  -21.2205   16.4616 C   0  0  0  0  0  0  0  0  0  0  0  0
    3.5312  -21.6208   16.4007 N   0  0  0  0  0  0  0  0  0  0  0  0
    5.1758  -20.2132   15.5530 N   0  0  0  0  0  0  0  0  0  0  0  0
    6.3067  -19.3571   15.8206 C   0  0  0  0  0  0  0  0  0  0  0  0
    6.8376  -19.4416   17.1972 C   0  0  0  0  0  0  0  0  0  0  0  0
    7.9712  -18.5884   17.5886 C   0  0  0  0  0  0  0  0  0  0  0  0
    8.0904  -17.2132   17.0622 C   0  0  2  0  0  0  0  0  0  0  0  0
    9.1394  -17.1307   16.0404 N   0  0  0  0  0  0  0  0  0  0  0  0
    8.6706  -16.3752   18.1928 C   0  0  0  0  0  0  0  0  0  0  0  0
    9.9091  -16.4725   18.3987 O   0  0  0  0  0  0  0  0  0  0  0  0
    2.8328  -21.2666   15.7218 C   0  0  0  0  0  0  0  0  0  0  0  0
    7.4632  -12.6136   19.5681 C   0  0  2  0  0  0  0  0  0  0  0  0
    7.6855  -13.6706   20.5990 C   0  0  0  0  0  0  0  0  0  0  0  0
    8.2770  -13.0952   21.8764 C   0  0  2  0  0  0  0  0  0  0  0  0
    8.5026  -14.8478   20.1082 N   0  0  0  0  0  0  0  0  0  0  0  0
    7.9044  -15.5162   18.9984 C   0  0  0  0  0  0  0  0  0  0  0  0
    8.7675  -15.7188   21.2817 O   0  0  0  0  0  0  0  0  0  0  0  0
    7.7752  -16.3011   21.7767 C   0  0  0  0  0  0  0  0  0  0  0  0
   11.5150  -19.0043   23.5318 C   0  0  2  0  0  0  0  0  0  0  0  0
   11.1112  -18.0799   22.3932 O   0  0  0  0  0  0  0  0  0  0  0  0
   10.4241  -18.7603   21.3940 C   0  0  1  0  0  0  0  0  0  0  0  0
   10.4222  -16.8486   22.8505 N   0  0  0  0  0  0  0  0  0  0  0  0
   10.0617  -15.9061   21.8393 C   0  0  0  0  0  0  0  0  0  0  0  0
   11.1669  -16.2667   24.0087 O   0  0  0  0  0  0  0  0  0  0  0  0
   10.9188  -16.6054   25.3260 O   0  0  0  0  0  0  0  0  0  0  0  0
  1  2  1  0
  2  3  2  0
  4  2  1  0
  5  4  1  0
  6  7  1  0
  6  5  1  0
  7  8  1  0
  8 10  1  0
  8  9  1  6
 10 11  2  0
 13 14  1  6
 13 12  1  0
 15 13  1  0
 15 16  1  6
 16 10  1  0
 17 15  1  0
 18 17  2  0
 20 19  1  6
 20 21  1  0
 20 22  1  0
 22 23  1  6
 23 17  1  0
 24 22  1  0
 24 25  1  0
 26 24  2  0
M  END
$$$$
