RVT.pdb
     RDKit          3D

 26 25  0  0  1  0  0  0  0  0999 V2000
   12.1134  -22.7921   27.7619 N   0  0  0  0  0  0  0  0  0  0  0  0
   11.9110  -21.8784   26.6701 C   0  0  0  0  0  0  0  0  0  0  0  0
   11.6222  -22.3421   25.5106 N   0  0  0  0  0  0  0  0  0  0  0  0
   12.0204  -20.4690   26.8286 N   0  0  0  0  0  0  0  0  0  0  0  0
   11.1247  -19.5430   26.1777 C   0  0  0  0  0  0  0  0  0  0  0  0
    9.7538  -19.5134   26.7291 C   0  0  0  0  0  0  0  0  0  0  0  0
    8.7999  -18.5044   26.2413 C   0  0  0  0  0  0  0  0  0  0  0  0
    8.0068  -17.7009   27.1941 C   0  0  2  0  0  0  0  0  0  0  0  0
    6.8616  -18.4651   27.7000 N   0  0  0  0  0  0  0  0  0  0  0  0
    7.3333  -16.6111   26.3720 C   0  0  0  0  0  0  0  0  0  0  0  0
    6.3926  -16.9662   25.6138 O   0  0  0  0  0  0  0  0  0  0  0  0
   11.4454  -21.7560   24.6744 C   0  0  0  0  0  0  0  0  0  0  0  0
    6.7782  -12.5839   27.1246 C   0  0  1  0  0  0  0  0  0  0  0  0
    7.3990  -12.9025   25.8045 C   0  0  0  0  0  0  0  0  0  0  0  0
    6.8827  -11.9879   24.7046 C   0  0  2  0  0  0  0  0  0  0  0  0
    7.2745  -14.3568   25.4000 N   0  0  0  0  0  0  0  0  0  0  0  0
    7.7045  -15.2569   26.4205 C   0  0  0  0  0  0  0  0  0  0  0  0
    7.9804  -14.5143   24.1028 O   0  0  0  0  0  0  0  0  0  0  0  0
    9.1752  -14.1398   24.0713 C   0  0  0  0  0  0  0  0  0  0  0  0
    7.4901  -17.7929   21.5030 C   0  0  2  0  0  0  0  0  0  0  0  0
    7.4009  -16.4132   20.8688 O   0  0  0  0  0  0  0  0  0  0  0  0
    6.1083  -16.1200   20.4487 C   0  0  2  0  0  0  0  0  0  0  0  0
    8.0096  -15.3439   21.6972 N   0  0  0  0  0  0  0  0  0  0  0  0
    7.3673  -15.0563   22.9404 C   0  0  0  0  0  0  0  0  0  0  0  0
    8.2769  -14.1476   20.8417 O   0  0  0  0  0  0  0  0  0  0  0  0
    9.1177  -14.1642   19.7443 O   0  0  0  0  0  0  0  0  0  0  0  0
  1  2  1  0
  2  3  2  0
  4  2  1  0
  5  4  1  0
  6  7  1  0
  6  5  1  0
  7  8  1  0
  8 10  1  0
  8  9  1  6
 10 11  2  0
 13 14  1  6
 13 12  1  0
 15 13  1  0
 15 16  1  6
 16 10  1  0
 17 15  1  0
 18 17  2  0
 20 19  1  6
 20 21  1  0
 20 22  1  0
 22 23  1  6
 23 17  1  0
 24 22  1  0
 24 25  1  0
 26 24  2  0
M  END
$$$$
