RVT.pdb
     RDKit          3D

 26 25  0  0  1  0  0  0  0  0999 V2000
   11.0712  -20.2127   13.4582 N   0  0  0  0  0  0  0  0  0  0  0  0
    9.7552  -20.7430   13.2242 C   0  0  0  0  0  0  0  0  0  0  0  0
    9.6317  -21.9386   12.7791 N   0  0  0  0  0  0  0  0  0  0  0  0
    8.5763  -19.9855   13.4692 N   0  0  0  0  0  0  0  0  0  0  0  0
    8.3197  -19.3360   14.7324 C   0  0  0  0  0  0  0  0  0  0  0  0
    9.4383  -18.5206   15.2500 C   0  0  0  0  0  0  0  0  0  0  0  0
    9.2752  -17.7912   16.5179 C   0  0  0  0  0  0  0  0  0  0  0  0
    8.6840  -16.4374   16.5324 C   0  0  2  0  0  0  0  0  0  0  0  0
    9.2570  -15.6023   15.4715 N   0  0  0  0  0  0  0  0  0  0  0  0
    9.2023  -15.7619   17.7942 C   0  0  0  0  0  0  0  0  0  0  0  0
   10.4420  -15.5506   17.8611 O   0  0  0  0  0  0  0  0  0  0  0  0
    8.7256  -22.3850   12.5473 C   0  0  0  0  0  0  0  0  0  0  0  0
    6.7709  -14.2142   21.1702 C   0  0  1  0  0  0  0  0  0  0  0  0
    8.0732  -13.7098   20.6417 C   0  0  0  0  0  0  0  0  0  0  0  0
    7.8773  -12.5559   19.6707 C   0  0  1  0  0  0  0  0  0  0  0  0
    8.9490  -14.7851   20.0329 N   0  0  0  0  0  0  0  0  0  0  0  0
    8.3789  -15.3710   18.8633 C   0  0  0  0  0  0  0  0  0  0  0  0
    9.2708  -15.7533   21.1122 O   0  0  0  0  0  0  0  0  0  0  0  0
    8.3351  -16.4951   21.4904 C   0  0  0  0  0  0  0  0  0  0  0  0
   10.6373  -18.8970   21.3465 C   0  0  2  0  0  0  0  0  0  0  0  0
   11.5725  -18.0639   22.2097 O   0  0  0  0  0  0  0  0  0  0  0  0
   12.8075  -17.8746   21.5998 C   0  0  2  0  0  0  0  0  0  0  0  0
   10.9571  -16.8066   22.7005 N   0  0  0  0  0  0  0  0  0  0  0  0
   10.5576  -15.8614   21.7067 C   0  0  0  0  0  0  0  0  0  0  0  0
   11.7991  -16.2399   23.7979 O   0  0  0  0  0  0  0  0  0  0  0  0
   12.3977  -14.9951   23.7381 O   0  0  0  0  0  0  0  0  0  0  0  0
  1  2  1  0
  2  3  2  0
  4  2  1  0
  5  4  1  0
  6  7  1  0
  6  5  1  0
  7  8  1  0
  8 10  1  0
  8  9  1  6
 10 11  2  0
 13 14  1  6
 13 12  1  0
 15 13  1  0
 15 16  1  6
 16 10  1  0
 17 15  1  0
 18 17  2  0
 20 19  1  1
 20 21  1  0
 20 22  1  0
 22 23  1  1
 23 17  1  0
 24 22  1  0
 24 25  1  0
 26 24  2  0
M  END
$$$$
