NPT.pdb
     RDKit          3D

 23 23  0  0  1  0  0  0  0  0999 V2000
   18.1326  -13.9183  -16.9034 N   0  0  0  0  0  0  0  0  0  0  0  0
   19.0704  -13.4249  -15.9543 C   0  0  0  0  0  0  0  0  0  0  0  0
   19.5472  -14.2185  -15.1036 O   0  0  0  0  0  0  0  0  0  0  0  0
   19.5255  -12.0213  -15.9038 C   0  0  0  0  0  0  0  0  0  0  0  0
   18.8135  -11.2617  -17.0236 C   0  0  2  0  0  0  0  0  0  0  0  0
   19.1510  -11.8306  -18.3020 N   0  0  0  0  0  0  0  0  0  0  0  0
   19.0927   -9.8176  -16.9081 C   0  0  0  0  0  0  0  0  0  0  0  0
   19.9873   -9.3197  -17.6258 O   0  0  0  0  0  0  0  0  0  0  0  0
   18.3804   -9.0020  -16.0177 N   0  0  0  0  0  0  0  0  0  0  0  0
   17.2919   -9.4354  -15.1751 C   0  0  0  0  0  0  0  0  0  0  0  0
   16.8391   -8.2461  -14.3589 C   0  0  0  0  0  0  0  0  0  0  0  0
   17.3730   -7.0715  -15.1020 C   0  0  0  0  0  0  0  0  0  0  0  0
   18.6073   -7.6071  -15.7853 C   0  0  1  0  0  0  0  0  0  0  0  0
   19.7722   -7.3160  -14.9471 C   0  0  0  0  0  0  0  0  0  0  0  0
   20.0127   -8.0089  -13.9491 O   0  0  0  0  0  0  0  0  0  0  0  0
   23.3251   -6.8524  -16.5397 C   0  0  0  0  0  0  0  0  0  0  0  0
   23.0887   -5.7877  -15.5122 C   0  0  1  0  0  0  0  0  0  0  0  0
   22.8002   -4.5920  -16.1695 O   0  0  0  0  0  0  0  0  0  0  0  0
   21.9478   -6.0763  -14.5791 C   0  0  2  0  0  0  0  0  0  0  0  0
   20.6830   -6.2364  -15.2245 N   0  0  0  0  0  0  0  0  0  0  0  0
   21.9031   -5.1323  -13.4295 C   0  0  0  0  0  0  0  0  0  0  0  0
   22.9808   -4.9678  -12.5680 O   0  0  0  0  0  0  0  0  0  0  0  0
   20.8936   -4.4225  -13.1596 O   0  0  0  0  0  0  0  0  0  0  0  0
  2  4  1  0
  2  1  1  0
  3  2  2  0
  5  4  1  0
  5  6  1  6
  5  7  1  0
  7  8  2  0
  9  7  1  0
  9 13  1  0
 10  9  1  0
 11 10  1  0
 11 12  1  0
 12 13  1  0
 13 14  1  1
 14 20  1  0
 14 15  2  0
 17 16  1  6
 17 19  1  0
 18 17  1  0
 19 21  1  0
 19 20  1  6
 21 22  1  0
 23 21  2  0
M  END
$$$$
