NPT.pdb
     RDKit          3D

 23 23  0  0  1  0  0  0  0  0999 V2000
   23.0287  -19.7875  -14.6536 N   0  0  0  0  0  0  0  0  0  0  0  0
   22.7209  -19.1639  -13.4126 C   0  0  0  0  0  0  0  0  0  0  0  0
   21.9482  -18.1720  -13.4072 O   0  0  0  0  0  0  0  0  0  0  0  0
   23.2581  -19.6132  -12.1129 C   0  0  0  0  0  0  0  0  0  0  0  0
   23.8771  -20.9960  -12.3194 C   0  0  2  0  0  0  0  0  0  0  0  0
   22.8480  -21.9649  -12.5916 N   0  0  0  0  0  0  0  0  0  0  0  0
   24.7437  -21.3350  -11.1744 C   0  0  0  0  0  0  0  0  0  0  0  0
   24.2290  -21.8753  -10.1712 O   0  0  0  0  0  0  0  0  0  0  0  0
   26.1193  -21.0653  -11.1910 N   0  0  0  0  0  0  0  0  0  0  0  0
   26.8314  -20.4179  -12.2663 C   0  0  0  0  0  0  0  0  0  0  0  0
   28.2817  -20.3025  -11.8549 C   0  0  0  0  0  0  0  0  0  0  0  0
   28.4302  -21.3044  -10.7636 C   0  0  0  0  0  0  0  0  0  0  0  0
   27.0531  -21.3779  -10.1509 C   0  0  1  0  0  0  0  0  0  0  0  0
   27.0014  -20.4731   -9.0007 C   0  0  0  0  0  0  0  0  0  0  0  0
   26.6796  -19.2869   -9.1528 O   0  0  0  0  0  0  0  0  0  0  0  0
   28.3137  -21.5202   -4.7944 C   0  0  0  0  0  0  0  0  0  0  0  0
   27.0763  -20.7849   -5.2106 C   0  0  1  0  0  0  0  0  0  0  0  0
   26.7667  -19.8443   -4.2285 O   0  0  0  0  0  0  0  0  0  0  0  0
   27.2067  -20.0501   -6.5139 C   0  0  2  0  0  0  0  0  0  0  0  0
   27.3134  -20.8960   -7.6607 N   0  0  0  0  0  0  0  0  0  0  0  0
   28.2534  -18.9933   -6.4665 C   0  0  0  0  0  0  0  0  0  0  0  0
   28.1512  -17.8913   -5.6264 O   0  0  0  0  0  0  0  0  0  0  0  0
   29.2962  -19.0239   -7.1788 O   0  0  0  0  0  0  0  0  0  0  0  0
  2  4  1  0
  2  1  1  0
  3  2  2  0
  5  4  1  0
  5  6  1  1
  5  7  1  0
  7  8  2  0
  9  7  1  0
  9 13  1  0
 10  9  1  0
 11 10  1  0
 11 12  1  0
 12 13  1  0
 13 14  1  1
 14 20  1  0
 14 15  2  0
 17 16  1  1
 17 19  1  0
 18 17  1  0
 19 21  1  0
 19 20  1  6
 21 22  1  0
 23 21  2  0
M  END
$$$$
