NPT.pdb
     RDKit          3D

 23 23  0  0  1  0  0  0  0  0999 V2000
   17.0556  -13.3014  -18.2889 N   0  0  0  0  0  0  0  0  0  0  0  0
   16.7127  -12.3443  -17.2940 C   0  0  0  0  0  0  0  0  0  0  0  0
   15.4980  -12.1409  -17.0407 O   0  0  0  0  0  0  0  0  0  0  0  0
   17.7057  -11.5638  -16.5294 C   0  0  0  0  0  0  0  0  0  0  0  0
   19.0937  -11.9491  -17.0422 C   0  0  2  0  0  0  0  0  0  0  0  0
   19.3957  -13.3097  -16.6827 N   0  0  0  0  0  0  0  0  0  0  0  0
   20.0908  -10.9633  -16.5830 C   0  0  0  0  0  0  0  0  0  0  0  0
   20.4536  -10.9889  -15.3868 O   0  0  0  0  0  0  0  0  0  0  0  0
   20.6332  -10.0086  -17.4546 N   0  0  0  0  0  0  0  0  0  0  0  0
   20.3111   -9.8765  -18.8551 C   0  0  0  0  0  0  0  0  0  0  0  0
   21.0967   -8.7055  -19.4002 C   0  0  0  0  0  0  0  0  0  0  0  0
   22.1879   -8.5066  -18.4070 C   0  0  0  0  0  0  0  0  0  0  0  0
   21.5919   -9.0012  -17.1118 C   0  0  1  0  0  0  0  0  0  0  0  0
   21.0341   -7.8591  -16.3846 C   0  0  0  0  0  0  0  0  0  0  0  0
   19.9042   -7.4339  -16.6608 O   0  0  0  0  0  0  0  0  0  0  0  0
   21.5149   -7.4707  -12.3315 C   0  0  0  0  0  0  0  0  0  0  0  0
   20.5440   -6.7599  -13.2244 C   0  0  1  0  0  0  0  0  0  0  0  0
   19.9884   -5.6938  -12.5174 O   0  0  0  0  0  0  0  0  0  0  0  0
   21.1561   -6.2007  -14.4767 C   0  0  2  0  0  0  0  0  0  0  0  0
   21.7461   -7.1800  -15.3339 N   0  0  0  0  0  0  0  0  0  0  0  0
   22.0539   -5.0460  -14.2020 C   0  0  0  0  0  0  0  0  0  0  0  0
   21.5597   -3.7866  -13.8852 O   0  0  0  0  0  0  0  0  0  0  0  0
   23.3139   -5.1292  -14.2373 O   0  0  0  0  0  0  0  0  0  0  0  0
  2  4  1  0
  2  1  1  0
  3  2  2  0
  5  4  1  0
  5  6  1  1
  5  7  1  0
  7  8  2  0
  9  7  1  0
  9 13  1  0
 10  9  1  0
 11 10  1  0
 11 12  1  0
 12 13  1  0
 13 14  1  6
 14 20  1  0
 14 15  2  0
 17 16  1  1
 17 19  1  0
 18 17  1  0
 19 21  1  0
 19 20  1  1
 21 22  1  0
 23 21  2  0
M  END
$$$$
