NPT.pdb
     RDKit          3D

 23 23  0  0  1  0  0  0  0  0999 V2000
   25.4488  -14.0264  -16.8082 N   0  0  0  0  0  0  0  0  0  0  0  0
   26.0042  -12.7901  -16.3760 C   0  0  0  0  0  0  0  0  0  0  0  0
   27.1975  -12.7664  -15.9804 O   0  0  0  0  0  0  0  0  0  0  0  0
   25.2588  -11.5159  -16.3622 C   0  0  0  0  0  0  0  0  0  0  0  0
   23.8263  -11.8111  -16.8080 C   0  0  2  0  0  0  0  0  0  0  0  0
   23.8225  -12.3474  -18.1437 N   0  0  0  0  0  0  0  0  0  0  0  0
   22.9875  -10.6100  -16.6327 C   0  0  0  0  0  0  0  0  0  0  0  0
   22.9297   -9.7771  -17.5634 O   0  0  0  0  0  0  0  0  0  0  0  0
   22.2616  -10.3882  -15.4541 N   0  0  0  0  0  0  0  0  0  0  0  0
   22.2923  -11.2301  -14.2824 C   0  0  0  0  0  0  0  0  0  0  0  0
   21.3896  -10.6058  -13.2426 C   0  0  0  0  0  0  0  0  0  0  0  0
   20.5173   -9.6865  -14.0241 C   0  0  0  0  0  0  0  0  0  0  0  0
   21.3718   -9.2940  -15.2043 C   0  0  1  0  0  0  0  0  0  0  0  0
   22.0417   -8.0282  -14.8994 C   0  0  0  0  0  0  0  0  0  0  0  0
   23.0676   -8.0154  -14.2056 O   0  0  0  0  0  0  0  0  0  0  0  0
   20.8648   -4.1885  -16.8719 C   0  0  0  0  0  0  0  0  0  0  0  0
   22.2358   -4.7274  -16.5978 C   0  0  1  0  0  0  0  0  0  0  0  0
   23.1157   -3.6543  -16.4596 O   0  0  0  0  0  0  0  0  0  0  0  0
   22.3328   -5.5544  -15.3479 C   0  0  2  0  0  0  0  0  0  0  0  0
   21.5614   -6.7570  -15.3741 N   0  0  0  0  0  0  0  0  0  0  0  0
   22.1175   -4.7474  -14.1163 C   0  0  0  0  0  0  0  0  0  0  0  0
   21.1138   -5.0480  -13.2037 O   0  0  0  0  0  0  0  0  0  0  0  0
   22.8244   -3.7440  -13.8176 O   0  0  0  0  0  0  0  0  0  0  0  0
  2  4  1  0
  2  1  1  0
  3  2  2  0
  5  4  1  0
  5  6  1  6
  5  7  1  0
  7  8  2  0
  9  7  1  0
  9 13  1  0
 10  9  1  0
 11 10  1  0
 11 12  1  0
 12 13  1  0
 13 14  1  1
 14 20  1  0
 14 15  2  0
 17 16  1  1
 17 19  1  0
 18 17  1  0
 19 21  1  0
 19 20  1  6
 21 22  1  0
 23 21  2  0
M  END
$$$$
