NPT.pdb
     RDKit          3D

 23 23  0  0  1  0  0  0  0  0999 V2000
   18.3110  -10.5271  -20.4778 N   0  0  0  0  0  0  0  0  0  0  0  0
   17.6243   -9.8690  -19.4200 C   0  0  0  0  0  0  0  0  0  0  0  0
   16.3670   -9.8675  -19.4211 O   0  0  0  0  0  0  0  0  0  0  0  0
   18.3032   -9.1781  -18.3057 C   0  0  0  0  0  0  0  0  0  0  0  0
   19.3138  -10.1536  -17.7015 C   0  0  2  0  0  0  0  0  0  0  0  0
   18.6353  -11.3087  -17.1751 N   0  0  0  0  0  0  0  0  0  0  0  0
   20.1672   -9.4518  -16.7237 C   0  0  0  0  0  0  0  0  0  0  0  0
   19.7598   -9.3328  -15.5476 O   0  0  0  0  0  0  0  0  0  0  0  0
   21.4135   -8.9217  -17.0855 N   0  0  0  0  0  0  0  0  0  0  0  0
   22.0183   -9.0243  -18.3918 C   0  0  0  0  0  0  0  0  0  0  0  0
   23.3389   -8.2897  -18.3472 C   0  0  0  0  0  0  0  0  0  0  0  0
   23.6536   -8.1966  -16.8950 C   0  0  0  0  0  0  0  0  0  0  0  0
   22.2982   -8.1871  -16.2316 C   0  0  1  0  0  0  0  0  0  0  0  0
   21.8983   -6.7978  -15.9993 C   0  0  0  0  0  0  0  0  0  0  0  0
   21.7022   -6.0357  -16.9557 O   0  0  0  0  0  0  0  0  0  0  0  0
   18.7743   -5.6820  -14.4202 C   0  0  0  0  0  0  0  0  0  0  0  0
   19.8656   -4.9425  -13.7078 C   0  0  1  0  0  0  0  0  0  0  0  0
   20.0673   -5.5387  -12.4632 O   0  0  0  0  0  0  0  0  0  0  0  0
   21.1832   -4.9464  -14.4288 C   0  0  2  0  0  0  0  0  0  0  0  0
   21.7142   -6.2487  -14.6815 N   0  0  0  0  0  0  0  0  0  0  0  0
   22.1708   -4.0214  -13.8096 C   0  0  0  0  0  0  0  0  0  0  0  0
   23.3475   -4.4794  -13.2295 O   0  0  0  0  0  0  0  0  0  0  0  0
   22.0104   -2.7690  -13.7684 O   0  0  0  0  0  0  0  0  0  0  0  0
  2  4  1  0
  2  1  1  0
  3  2  2  0
  5  4  1  0
  5  6  1  1
  5  7  1  0
  7  8  2  0
  9  7  1  0
  9 13  1  0
 10  9  1  0
 11 10  1  0
 11 12  1  0
 12 13  1  0
 13 14  1  6
 14 20  1  0
 14 15  2  0
 17 16  1  6
 17 19  1  0
 18 17  1  0
 19 21  1  0
 19 20  1  1
 21 22  1  0
 23 21  2  0
M  END
$$$$
