NPT.pdb
     RDKit          3D

 23 23  0  0  1  0  0  0  0  0999 V2000
   21.4037  -12.7941  -20.3641 N   0  0  0  0  0  0  0  0  0  0  0  0
   21.2419  -11.3817  -20.4155 C   0  0  0  0  0  0  0  0  0  0  0  0
   21.2825  -10.8066  -21.5328 O   0  0  0  0  0  0  0  0  0  0  0  0
   21.0264  -10.5366  -19.2242 C   0  0  0  0  0  0  0  0  0  0  0  0
   21.0061  -11.4544  -18.0014 C   0  0  2  0  0  0  0  0  0  0  0  0
   19.8125  -12.2588  -18.0041 N   0  0  0  0  0  0  0  0  0  0  0  0
   21.2012  -10.6602  -16.7734 C   0  0  0  0  0  0  0  0  0  0  0  0
   20.1952  -10.2071  -16.1852 O   0  0  0  0  0  0  0  0  0  0  0  0
   22.4806  -10.4072  -16.2593 N   0  0  0  0  0  0  0  0  0  0  0  0
   23.7204  -10.8624  -16.8410 C   0  0  0  0  0  0  0  0  0  0  0  0
   24.8509  -10.3400  -15.9838 C   0  0  0  0  0  0  0  0  0  0  0  0
   24.1982  -10.0018  -14.6891 C   0  0  0  0  0  0  0  0  0  0  0  0
   22.7820   -9.6551  -15.0782 C   0  0  1  0  0  0  0  0  0  0  0  0
   22.6821   -8.2037  -15.2444 C   0  0  0  0  0  0  0  0  0  0  0  0
   23.1322   -7.6588  -16.2615 O   0  0  0  0  0  0  0  0  0  0  0  0
   19.7169   -6.4455  -15.9212 C   0  0  0  0  0  0  0  0  0  0  0  0
   20.2801   -5.7222  -14.7359 C   0  0  1  0  0  0  0  0  0  0  0  0
   19.5919   -6.1350  -13.5953 O   0  0  0  0  0  0  0  0  0  0  0  0
   21.7411   -5.9760  -14.4980 C   0  0  2  0  0  0  0  0  0  0  0  0
   22.0719   -7.3460  -14.2626 N   0  0  0  0  0  0  0  0  0  0  0  0
   22.3193   -5.0517  -13.4852 C   0  0  0  0  0  0  0  0  0  0  0  0
   22.8282   -5.5082  -12.2755 O   0  0  0  0  0  0  0  0  0  0  0  0
   22.3872   -3.8014  -13.6524 O   0  0  0  0  0  0  0  0  0  0  0  0
  2  4  1  0
  2  1  1  0
  3  2  2  0
  5  4  1  0
  5  6  1  1
  5  7  1  0
  7  8  2  0
  9  7  1  0
  9 13  1  0
 10  9  1  0
 11 10  1  0
 11 12  1  0
 12 13  1  0
 13 14  1  6
 14 20  1  0
 14 15  2  0
 17 16  1  6
 17 19  1  0
 18 17  1  0
 19 21  1  0
 19 20  1  1
 21 22  1  0
 23 21  2  0
M  END
$$$$
