NPT.pdb
     RDKit          3D

 23 23  0  0  1  0  0  0  0  0999 V2000
   15.4792  -12.0993  -14.8944 N   0  0  0  0  0  0  0  0  0  0  0  0
   15.4705  -11.0392  -15.8430 C   0  0  0  0  0  0  0  0  0  0  0  0
   14.3965  -10.4193  -16.0503 O   0  0  0  0  0  0  0  0  0  0  0  0
   16.6585  -10.6148  -16.6101 C   0  0  0  0  0  0  0  0  0  0  0  0
   17.8359  -11.4797  -16.1588 C   0  0  2  0  0  0  0  0  0  0  0  0
   17.3874  -12.4829  -15.2292 N   0  0  0  0  0  0  0  0  0  0  0  0
   18.9236  -10.6224  -15.6502 C   0  0  0  0  0  0  0  0  0  0  0  0
   18.9679  -10.3714  -14.4262 O   0  0  0  0  0  0  0  0  0  0  0  0
   19.8983  -10.0899  -16.5056 N   0  0  0  0  0  0  0  0  0  0  0  0
   19.9011  -10.2046  -17.9441 C   0  0  0  0  0  0  0  0  0  0  0  0
   21.1116   -9.4624  -18.4633 C   0  0  0  0  0  0  0  0  0  0  0  0
   22.0049   -9.3504  -17.2775 C   0  0  0  0  0  0  0  0  0  0  0  0
   21.0521   -9.3405  -16.1073 C   0  0  1  0  0  0  0  0  0  0  0  0
   20.7726   -7.9506  -15.7405 C   0  0  0  0  0  0  0  0  0  0  0  0
   19.9468   -7.2886  -16.3837 O   0  0  0  0  0  0  0  0  0  0  0  0
   19.3543   -6.8964  -12.5243 C   0  0  0  0  0  0  0  0  0  0  0  0
   20.5263   -5.9900  -12.7478 C   0  0  1  0  0  0  0  0  0  0  0  0
   21.5670   -6.3951  -11.9124 O   0  0  0  0  0  0  0  0  0  0  0  0
   21.0492   -5.9968  -14.1558 C   0  0  2  0  0  0  0  0  0  0  0  0
   21.4231   -7.2879  -14.6406 N   0  0  0  0  0  0  0  0  0  0  0  0
   22.0962   -4.9627  -14.3765 C   0  0  0  0  0  0  0  0  0  0  0  0
   21.8520   -3.6103  -14.1713 O   0  0  0  0  0  0  0  0  0  0  0  0
   23.2672   -5.2389  -14.7617 O   0  0  0  0  0  0  0  0  0  0  0  0
  2  4  1  0
  2  1  1  0
  3  2  2  0
  5  4  1  0
  5  6  1  1
  5  7  1  0
  7  8  2  0
  9  7  1  0
  9 13  1  0
 10  9  1  0
 11 10  1  0
 11 12  1  0
 12 13  1  0
 13 14  1  6
 14 20  1  0
 14 15  2  0
 17 16  1  6
 17 19  1  0
 18 17  1  0
 19 21  1  0
 19 20  1  1
 21 22  1  0
 23 21  2  0
M  END
$$$$
