NPT.pdb
     RDKit          3D

 23 23  0  0  1  0  0  0  0  0999 V2000
   21.7206  -12.3718  -21.4610 N   0  0  0  0  0  0  0  0  0  0  0  0
   22.7417  -12.1728  -20.4908 C   0  0  0  0  0  0  0  0  0  0  0  0
   23.8535  -12.7363  -20.6557 O   0  0  0  0  0  0  0  0  0  0  0  0
   22.5769  -11.3354  -19.2861 C   0  0  0  0  0  0  0  0  0  0  0  0
   23.0665  -12.1467  -18.0861 C   0  0  2  0  0  0  0  0  0  0  0  0
   22.2538  -13.3226  -17.9169 N   0  0  0  0  0  0  0  0  0  0  0  0
   23.1420  -11.2829  -16.8923 C   0  0  0  0  0  0  0  0  0  0  0  0
   22.0884  -11.0244  -16.2707 O   0  0  0  0  0  0  0  0  0  0  0  0
   24.3608  -10.7527  -16.4468 N   0  0  0  0  0  0  0  0  0  0  0  0
   25.6581  -11.0601  -16.9993 C   0  0  0  0  0  0  0  0  0  0  0  0
   26.6853  -10.2485  -16.2431 C   0  0  0  0  0  0  0  0  0  0  0  0
   25.9894   -9.8651  -14.9839 C   0  0  0  0  0  0  0  0  0  0  0  0
   24.5331   -9.8168  -15.3764 C   0  0  1  0  0  0  0  0  0  0  0  0
   24.1840   -8.4365  -15.7188 C   0  0  0  0  0  0  0  0  0  0  0  0
   24.8082   -7.8353  -16.6036 O   0  0  0  0  0  0  0  0  0  0  0  0
   21.1256   -7.3357  -17.3020 C   0  0  0  0  0  0  0  0  0  0  0  0
   21.2594   -6.4690  -16.0871 C   0  0  1  0  0  0  0  0  0  0  0  0
   20.3956   -6.9476  -15.1024 O   0  0  0  0  0  0  0  0  0  0  0  0
   22.6417   -6.4418  -15.5004 C   0  0  2  0  0  0  0  0  0  0  0  0
   23.1238   -7.7147  -15.0654 N   0  0  0  0  0  0  0  0  0  0  0  0
   22.8019   -5.3740  -14.4763 C   0  0  0  0  0  0  0  0  0  0  0  0
   22.6697   -4.0266  -14.7888 O   0  0  0  0  0  0  0  0  0  0  0  0
   23.0663   -5.6152  -13.2648 O   0  0  0  0  0  0  0  0  0  0  0  0
  2  4  1  0
  2  1  1  0
  3  2  2  0
  5  4  1  0
  5  6  1  1
  5  7  1  0
  7  8  2  0
  9  7  1  0
  9 13  1  0
 10  9  1  0
 11 10  1  0
 11 12  1  0
 12 13  1  0
 13 14  1  6
 14 20  1  0
 14 15  2  0
 17 16  1  6
 17 19  1  0
 18 17  1  0
 19 21  1  0
 19 20  1  1
 21 22  1  0
 23 21  2  0
M  END
$$$$
