NPT.pdb
     RDKit          3D

 23 23  0  0  1  0  0  0  0  0999 V2000
   29.3105  -19.4229  -15.1777 N   0  0  0  0  0  0  0  0  0  0  0  0
   28.0543  -18.7712  -15.3218 C   0  0  0  0  0  0  0  0  0  0  0  0
   28.0222  -17.6209  -15.8285 O   0  0  0  0  0  0  0  0  0  0  0  0
   26.7684  -19.3674  -14.9087 C   0  0  0  0  0  0  0  0  0  0  0  0
   27.0580  -20.7693  -14.3714 C   0  0  2  0  0  0  0  0  0  0  0  0
   27.6275  -21.5903  -15.4074 N   0  0  0  0  0  0  0  0  0  0  0  0
   25.8431  -21.3304  -13.7499 C   0  0  0  0  0  0  0  0  0  0  0  0
   25.1496  -22.1363  -14.4079 O   0  0  0  0  0  0  0  0  0  0  0  0
   25.4565  -20.9802  -12.4488 N   0  0  0  0  0  0  0  0  0  0  0  0
   26.1931  -20.1109  -11.5632 C   0  0  0  0  0  0  0  0  0  0  0  0
   25.4034  -19.9836  -10.2802 C   0  0  0  0  0  0  0  0  0  0  0  0
   24.4815  -21.1525  -10.3040 C   0  0  0  0  0  0  0  0  0  0  0  0
   24.2702  -21.4158  -11.7748 C   0  0  1  0  0  0  0  0  0  0  0  0
   23.0471  -20.7342  -12.2034 C   0  0  0  0  0  0  0  0  0  0  0  0
   22.9677  -19.4995  -12.1479 O   0  0  0  0  0  0  0  0  0  0  0  0
   21.7626  -21.1151  -15.6914 C   0  0  0  0  0  0  0  0  0  0  0  0
   20.5847  -21.2967  -14.7832 C   0  0  1  0  0  0  0  0  0  0  0  0
   20.2859  -22.6569  -14.7094 O   0  0  0  0  0  0  0  0  0  0  0  0
   20.8081  -20.8070  -13.3811 C   0  0  2  0  0  0  0  0  0  0  0  0
   21.8947  -21.4386  -12.7011 N   0  0  0  0  0  0  0  0  0  0  0  0
   19.5526  -20.7825  -12.5825 C   0  0  0  0  0  0  0  0  0  0  0  0
   18.4481  -20.0326  -12.9677 O   0  0  0  0  0  0  0  0  0  0  0  0
   19.4049  -21.4344  -11.5105 O   0  0  0  0  0  0  0  0  0  0  0  0
  2  4  1  0
  2  1  1  0
  3  2  2  0
  5  4  1  0
  5  6  1  6
  5  7  1  0
  7  8  2  0
  9  7  1  0
  9 13  1  0
 10  9  1  0
 11 10  1  0
 11 12  1  0
 12 13  1  0
 13 14  1  6
 14 20  1  0
 14 15  2  0
 17 16  1  6
 17 19  1  0
 18 17  1  0
 19 21  1  0
 19 20  1  1
 21 22  1  0
 23 21  2  0
M  END
$$$$
