NPT.pdb
     RDKit          3D

 23 23  0  0  1  0  0  0  0  0999 V2000
   25.8695  -32.3717   -9.4434 N   0  0  0  0  0  0  0  0  0  0  0  0
   26.7131  -33.4794   -9.7352 C   0  0  0  0  0  0  0  0  0  0  0  0
   27.5441  -33.8538   -8.8692 O   0  0  0  0  0  0  0  0  0  0  0  0
   26.6746  -34.2273  -11.0075 C   0  0  0  0  0  0  0  0  0  0  0  0
   25.6300  -33.5632  -11.9051 C   0  0  2  0  0  0  0  0  0  0  0  0
   24.3437  -33.5706  -11.2593 N   0  0  0  0  0  0  0  0  0  0  0  0
   25.6432  -34.1899  -13.2408 C   0  0  0  0  0  0  0  0  0  0  0  0
   24.8077  -35.0854  -13.4921 O   0  0  0  0  0  0  0  0  0  0  0  0
   26.5659  -33.8034  -14.2228 N   0  0  0  0  0  0  0  0  0  0  0  0
   27.6444  -32.8634  -14.0331 C   0  0  0  0  0  0  0  0  0  0  0  0
   28.4055  -32.7662  -15.3358 C   0  0  0  0  0  0  0  0  0  0  0  0
   27.4554  -33.2968  -16.3518 C   0  0  0  0  0  0  0  0  0  0  0  0
   26.6042  -34.2718  -15.5758 C   0  0  1  0  0  0  0  0  0  0  0  0
   27.1651  -35.6152  -15.7343 C   0  0  0  0  0  0  0  0  0  0  0  0
   28.2073  -35.9307  -15.1443 O   0  0  0  0  0  0  0  0  0  0  0  0
   25.0922  -38.7844  -15.1106 C   0  0  0  0  0  0  0  0  0  0  0  0
   25.8594  -38.9790  -16.3829 C   0  0  1  0  0  0  0  0  0  0  0  0
   24.9792  -38.8497  -17.4569 O   0  0  0  0  0  0  0  0  0  0  0  0
   26.9705  -37.9896  -16.5884 C   0  0  2  0  0  0  0  0  0  0  0  0
   26.5560  -36.6223  -16.5628 N   0  0  0  0  0  0  0  0  0  0  0  0
   27.8157  -38.3232  -17.7669 C   0  0  0  0  0  0  0  0  0  0  0  0
   28.5396  -39.5067  -17.8440 O   0  0  0  0  0  0  0  0  0  0  0  0
   27.9330  -37.5622  -18.7684 O   0  0  0  0  0  0  0  0  0  0  0  0
  2  4  1  0
  2  1  1  0
  3  2  2  0
  5  4  1  0
  5  6  1  1
  5  7  1  0
  7  8  2  0
  9  7  1  0
  9 13  1  0
 10  9  1  0
 11 10  1  0
 11 12  1  0
 12 13  1  0
 13 14  1  1
 14 20  1  0
 14 15  2  0
 17 16  1  1
 17 19  1  0
 18 17  1  0
 19 21  1  0
 19 20  1  6
 21 22  1  0
 23 21  2  0
M  END
$$$$
