NPT.pdb
     RDKit          3D

 23 23  0  0  1  0  0  0  0  0999 V2000
   22.4455  -13.6295  -19.8704 N   0  0  0  0  0  0  0  0  0  0  0  0
   22.2952  -12.2304  -20.0788 C   0  0  0  0  0  0  0  0  0  0  0  0
   22.2111  -11.7980  -21.2565 O   0  0  0  0  0  0  0  0  0  0  0  0
   22.2310  -11.2401  -18.9857 C   0  0  0  0  0  0  0  0  0  0  0  0
   22.2849  -12.0048  -17.6627 C   0  0  2  0  0  0  0  0  0  0  0  0
   21.1445  -12.8751  -17.5455 N   0  0  0  0  0  0  0  0  0  0  0  0
   22.4458  -11.0593  -16.5416 C   0  0  0  0  0  0  0  0  0  0  0  0
   21.4358  -10.7354  -15.8796 O   0  0  0  0  0  0  0  0  0  0  0  0
   23.6976  -10.5231  -16.2086 N   0  0  0  0  0  0  0  0  0  0  0  0
   24.9364  -10.8041  -16.8934 C   0  0  0  0  0  0  0  0  0  0  0  0
   26.0255   -9.9950  -16.2263 C   0  0  0  0  0  0  0  0  0  0  0  0
   25.4546   -9.6446  -14.8967 C   0  0  0  0  0  0  0  0  0  0  0  0
   23.9661   -9.6062  -15.1415 C   0  0  1  0  0  0  0  0  0  0  0  0
   23.5708   -8.2238  -15.4192 C   0  0  0  0  0  0  0  0  0  0  0  0
   24.0478   -7.6206  -16.3900 O   0  0  0  0  0  0  0  0  0  0  0  0
   20.0454   -7.2083  -16.1545 C   0  0  0  0  0  0  0  0  0  0  0  0
   20.5562   -6.2698  -15.1040 C   0  0  1  0  0  0  0  0  0  0  0  0
   20.0330   -6.6562  -13.8703 O   0  0  0  0  0  0  0  0  0  0  0  0
   22.0522   -6.2489  -14.9731 C   0  0  2  0  0  0  0  0  0  0  0  0
   22.6302   -7.5022  -14.6028 N   0  0  0  0  0  0  0  0  0  0  0  0
   22.5325   -5.1137  -14.1393 C   0  0  0  0  0  0  0  0  0  0  0  0
   23.1979   -5.3123  -12.9358 O   0  0  0  0  0  0  0  0  0  0  0  0
   22.3705   -3.9036  -14.4638 O   0  0  0  0  0  0  0  0  0  0  0  0
  2  4  1  0
  2  1  1  0
  3  2  2  0
  5  4  1  0
  5  6  1  1
  5  7  1  0
  7  8  2  0
  9  7  1  0
  9 13  1  0
 10  9  1  0
 11 10  1  0
 11 12  1  0
 12 13  1  0
 13 14  1  6
 14 20  1  0
 14 15  2  0
 17 16  1  6
 17 19  1  0
 18 17  1  0
 19 21  1  0
 19 20  1  1
 21 22  1  0
 23 21  2  0
M  END
$$$$
