DGW.pdb
     RDKit          3D

 27 28  0  0  1  0  0  0  0  0999 V2000
   26.4615  -18.1618  -18.3860 N   0  0  0  0  0  0  0  0  0  0  0  0
   27.8751  -18.1148  -18.0847 C   0  0  1  0  0  0  0  0  0  0  0  0
   28.3845  -16.6691  -18.1892 C   0  0  0  0  0  0  0  0  0  0  0  0
   28.9886  -16.4767  -19.5222 C   0  0  0  0  0  0  0  0  0  0  0  0
   28.2701  -16.5138  -20.5437 O   0  0  0  0  0  0  0  0  0  0  0  0
   28.0583  -18.5696  -16.6701 C   0  0  0  0  0  0  0  0  0  0  0  0
   29.0151  -19.3347  -16.4033 O   0  0  0  0  0  0  0  0  0  0  0  0
   30.3475  -16.2552  -19.6454 O   0  0  0  0  0  0  0  0  0  0  0  0
   27.1357  -18.1062  -15.7115 N   0  0  0  0  0  0  0  0  0  0  0  0
   27.2909  -18.4083  -14.3326 C   0  0  0  0  0  0  0  0  0  0  0  0
   26.5073  -19.5811  -13.8634 C   0  0  0  0  0  0  0  0  0  0  0  0
   25.6303  -20.0789  -14.6143 O   0  0  0  0  0  0  0  0  0  0  0  0
   26.7067  -20.1661  -12.6011 N   0  0  0  0  0  0  0  0  0  0  0  0
   26.0151  -21.3433  -12.0925 C   0  0  1  0  0  0  0  0  0  0  0  0
   26.7204  -21.9135  -10.9123 C   0  0  0  0  0  0  0  0  0  0  0  0
   26.6615  -21.0336   -9.7381 C   0  0  0  0  0  0  0  0  0  0  0  0
   25.5345  -20.3575   -9.2907 C   0  0  0  0  0  0  0  0  0  0  0  0
   25.8153  -19.6254   -8.2266 N   0  0  0  0  0  0  0  0  0  0  0  0
   27.1333  -19.7984   -7.9424 C   0  0  0  0  0  0  0  0  0  0  0  0
   27.9479  -19.2981   -6.9431 C   0  0  0  0  0  0  0  0  0  0  0  0
   29.2641  -19.6379   -6.8455 C   0  0  0  0  0  0  0  0  0  0  0  0
   29.7862  -20.5107   -7.7817 C   0  0  0  0  0  0  0  0  0  0  0  0
   29.0226  -21.0401   -8.7994 C   0  0  0  0  0  0  0  0  0  0  0  0
   27.6829  -20.6619   -8.8574 C   0  0  0  0  0  0  0  0  0  0  0  0
   24.5937  -21.2045  -11.9159 C   0  0  0  0  0  0  0  0  0  0  0  0
   24.1253  -20.0518  -11.5845 O   0  0  0  0  0  0  0  0  0  0  0  0
   23.6537  -22.1994  -12.0749 O   0  0  0  0  0  0  0  0  0  0  0  0
  2  1  1  1
  2  6  1  0
  3  4  1  0
  3  2  1  0
  4  5  2  0
  6  9  1  0
  7  6  2  0
  8  4  1  0
  9 10  1  0
 10 11  1  0
 11 13  1  0
 11 12  2  0
 13 14  1  0
 14 25  1  0
 14 15  1  1
 16 15  1  0
 17 16  2  0
 18 17  1  0
 19 24  2  0
 19 18  1  0
 20 19  1  0
 21 20  2  0
 21 22  1  0
 22 23  2  0
 23 24  1  0
 24 16  1  0
 25 26  2  0
 25 27  1  0
M  END
$$$$
