DGW.pdb
     RDKit          3D

 27 28  0  0  1  0  0  0  0  0999 V2000
   27.6015  -20.6962  -15.2267 N   0  0  0  0  0  0  0  0  0  0  0  0
   27.0272  -19.5112  -14.6290 C   0  0  1  0  0  0  0  0  0  0  0  0
   25.5095  -19.4886  -14.8661 C   0  0  0  0  0  0  0  0  0  0  0  0
   25.2591  -19.4806  -16.3208 C   0  0  0  0  0  0  0  0  0  0  0  0
   26.0070  -18.8269  -17.0788 O   0  0  0  0  0  0  0  0  0  0  0  0
   27.2646  -19.5808  -13.1524 C   0  0  0  0  0  0  0  0  0  0  0  0
   26.5971  -18.8324  -12.3998 O   0  0  0  0  0  0  0  0  0  0  0  0
   24.1995  -20.1943  -16.8489 O   0  0  0  0  0  0  0  0  0  0  0  0
   28.2337  -20.4929  -12.6901 N   0  0  0  0  0  0  0  0  0  0  0  0
   28.4803  -20.6661  -11.3023 C   0  0  0  0  0  0  0  0  0  0  0  0
   27.3747  -21.3195  -10.5535 C   0  0  0  0  0  0  0  0  0  0  0  0
   27.0448  -22.4980  -10.8420 O   0  0  0  0  0  0  0  0  0  0  0  0
   26.6732  -20.6697   -9.5235 N   0  0  0  0  0  0  0  0  0  0  0  0
   25.5007  -21.1924   -8.8344 C   0  0  1  0  0  0  0  0  0  0  0  0
   25.5287  -20.8461   -7.3870 C   0  0  0  0  0  0  0  0  0  0  0  0
   26.7018  -20.0426   -7.0199 C   0  0  0  0  0  0  0  0  0  0  0  0
   27.1101  -18.8743   -7.6489 C   0  0  0  0  0  0  0  0  0  0  0  0
   28.2183  -18.4064   -7.1013 N   0  0  0  0  0  0  0  0  0  0  0  0
   28.5712  -19.2515   -6.0967 C   0  0  0  0  0  0  0  0  0  0  0  0
   29.6160  -19.2423   -5.1908 C   0  0  0  0  0  0  0  0  0  0  0  0
   29.7552  -20.2069   -4.2380 C   0  0  0  0  0  0  0  0  0  0  0  0
   28.8148  -21.2189   -4.1886 C   0  0  0  0  0  0  0  0  0  0  0  0
   27.7533  -21.2795   -5.0654 C   0  0  0  0  0  0  0  0  0  0  0  0
   27.6549  -20.2711   -6.0216 C   0  0  0  0  0  0  0  0  0  0  0  0
   24.2366  -20.9397   -9.4738 C   0  0  0  0  0  0  0  0  0  0  0  0
   24.2046  -20.1277  -10.4726 O   0  0  0  0  0  0  0  0  0  0  0  0
   23.0243  -21.4947   -9.1261 O   0  0  0  0  0  0  0  0  0  0  0  0
  2  1  1  6
  2  6  1  0
  3  4  1  0
  3  2  1  0
  4  5  2  0
  6  9  1  0
  7  6  2  0
  8  4  1  0
  9 10  1  0
 10 11  1  0
 11 13  1  0
 11 12  2  0
 13 14  1  0
 14 25  1  0
 14 15  1  1
 16 15  1  0
 17 16  2  0
 18 17  1  0
 19 24  2  0
 19 18  1  0
 20 19  1  0
 21 20  2  0
 21 22  1  0
 22 23  2  0
 23 24  1  0
 24 16  1  0
 25 26  2  0
 25 27  1  0
M  END
$$$$
