DGW.pdb
     RDKit          3D

 27 28  0  0  1  0  0  0  0  0999 V2000
   26.8641  -19.7042  -16.9073 N   0  0  0  0  0  0  0  0  0  0  0  0
   27.5676  -20.9294  -16.5986 C   0  0  1  0  0  0  0  0  0  0  0  0
   28.9112  -20.9630  -17.3427 C   0  0  0  0  0  0  0  0  0  0  0  0
   28.7153  -21.6382  -18.6406 C   0  0  0  0  0  0  0  0  0  0  0  0
   27.5650  -21.9562  -19.0107 O   0  0  0  0  0  0  0  0  0  0  0  0
   27.8515  -20.9376  -15.1286 C   0  0  0  0  0  0  0  0  0  0  0  0
   28.3719  -21.9597  -14.6221 O   0  0  0  0  0  0  0  0  0  0  0  0
   29.8002  -21.9206  -19.4494 O   0  0  0  0  0  0  0  0  0  0  0  0
   27.5143  -19.7844  -14.3929 N   0  0  0  0  0  0  0  0  0  0  0  0
   27.7850  -19.6921  -13.0019 C   0  0  0  0  0  0  0  0  0  0  0  0
   26.9060  -20.5285  -12.1430 C   0  0  0  0  0  0  0  0  0  0  0  0
   26.1100  -21.3408  -12.6790 O   0  0  0  0  0  0  0  0  0  0  0  0
   26.9263  -20.4506  -10.7398 N   0  0  0  0  0  0  0  0  0  0  0  0
   26.1632  -21.2967   -9.8318 C   0  0  1  0  0  0  0  0  0  0  0  0
   26.9762  -21.6844   -8.6468 C   0  0  0  0  0  0  0  0  0  0  0  0
   27.2288  -20.5570   -7.7403 C   0  0  0  0  0  0  0  0  0  0  0  0
   26.7949  -19.2524   -7.9328 C   0  0  0  0  0  0  0  0  0  0  0  0
   27.2099  -18.4681   -6.9532 N   0  0  0  0  0  0  0  0  0  0  0  0
   27.9276  -19.2325   -6.0881 C   0  0  0  0  0  0  0  0  0  0  0  0
   28.5700  -18.9448   -4.8977 C   0  0  0  0  0  0  0  0  0  0  0  0
   29.2217  -19.9015   -4.1783 C   0  0  0  0  0  0  0  0  0  0  0  0
   29.2316  -21.1947   -4.6668 C   0  0  0  0  0  0  0  0  0  0  0  0
   28.6092  -21.5396   -5.8469 C   0  0  0  0  0  0  0  0  0  0  0  0
   27.9573  -20.5262   -6.5464 C   0  0  0  0  0  0  0  0  0  0  0  0
   24.8402  -20.8319   -9.5090 C   0  0  0  0  0  0  0  0  0  0  0  0
   24.5070  -19.6374   -9.8552 O   0  0  0  0  0  0  0  0  0  0  0  0
   23.8623  -21.5512   -8.8570 O   0  0  0  0  0  0  0  0  0  0  0  0
  2  1  1  1
  2  6  1  0
  3  4  1  0
  3  2  1  0
  4  5  2  0
  6  9  1  0
  7  6  2  0
  8  4  1  0
  9 10  1  0
 10 11  1  0
 11 13  1  0
 11 12  2  0
 13 14  1  0
 14 25  1  0
 14 15  1  1
 16 15  1  0
 17 16  2  0
 18 17  1  0
 19 24  2  0
 19 18  1  0
 20 19  1  0
 21 20  2  0
 21 22  1  0
 22 23  2  0
 23 24  1  0
 24 16  1  0
 25 26  2  0
 25 27  1  0
M  END
$$$$
