DGW.pdb
     RDKit          3D

 27 28  0  0  1  0  0  0  0  0999 V2000
   24.2371  -19.5994  -13.9496 N   0  0  0  0  0  0  0  0  0  0  0  0
   25.0943  -19.4848  -15.1087 C   0  0  1  0  0  0  0  0  0  0  0  0
   25.2148  -18.0113  -15.5268 C   0  0  0  0  0  0  0  0  0  0  0  0
   23.9491  -17.5963  -16.1631 C   0  0  0  0  0  0  0  0  0  0  0  0
   23.0286  -18.4265  -16.3203 O   0  0  0  0  0  0  0  0  0  0  0  0
   26.4569  -19.9695  -14.7215 C   0  0  0  0  0  0  0  0  0  0  0  0
   27.3746  -19.9295  -15.5749 O   0  0  0  0  0  0  0  0  0  0  0  0
   23.7776  -16.2915  -16.5862 O   0  0  0  0  0  0  0  0  0  0  0  0
   26.6301  -20.4468  -13.4073 N   0  0  0  0  0  0  0  0  0  0  0  0
   27.9112  -20.8204  -12.9216 C   0  0  0  0  0  0  0  0  0  0  0  0
   27.9568  -21.1288  -11.4681 C   0  0  0  0  0  0  0  0  0  0  0  0
   28.9131  -21.8040  -11.0092 O   0  0  0  0  0  0  0  0  0  0  0  0
   26.9655  -20.6926  -10.5724 N   0  0  0  0  0  0  0  0  0  0  0  0
   26.3522  -21.5001   -9.5262 C   0  0  1  0  0  0  0  0  0  0  0  0
   27.2599  -21.6429   -8.3553 C   0  0  0  0  0  0  0  0  0  0  0  0
   27.4519  -20.3800   -7.6307 C   0  0  0  0  0  0  0  0  0  0  0  0
   26.8990  -19.1556   -7.9804 C   0  0  0  0  0  0  0  0  0  0  0  0
   27.2853  -18.2077   -7.1441 N   0  0  0  0  0  0  0  0  0  0  0  0
   28.1021  -18.7798   -6.2204 C   0  0  0  0  0  0  0  0  0  0  0  0
   28.7665  -18.2733   -5.1184 C   0  0  0  0  0  0  0  0  0  0  0  0
   29.5282  -19.0613   -4.3082 C   0  0  0  0  0  0  0  0  0  0  0  0
   29.6295  -20.4064   -4.6104 C   0  0  0  0  0  0  0  0  0  0  0  0
   28.9903  -20.9663   -5.6953 C   0  0  0  0  0  0  0  0  0  0  0  0
   28.2243  -20.1196   -6.4938 C   0  0  0  0  0  0  0  0  0  0  0  0
   24.9995  -21.1517   -9.1810 C   0  0  0  0  0  0  0  0  0  0  0  0
   24.4068  -20.2363   -9.8657 O   0  0  0  0  0  0  0  0  0  0  0  0
   24.2474  -21.7134   -8.1723 O   0  0  0  0  0  0  0  0  0  0  0  0
  2  1  1  1
  2  6  1  0
  3  4  1  0
  3  2  1  0
  4  5  2  0
  6  9  1  0
  7  6  2  0
  8  4  1  0
  9 10  1  0
 10 11  1  0
 11 13  1  0
 11 12  2  0
 13 14  1  0
 14 25  1  0
 14 15  1  1
 16 15  1  0
 17 16  2  0
 18 17  1  0
 19 24  2  0
 19 18  1  0
 20 19  1  0
 21 20  2  0
 21 22  1  0
 22 23  2  0
 23 24  1  0
 24 16  1  0
 25 26  2  0
 25 27  1  0
M  END
$$$$
