DGW.pdb
     RDKit          3D

 27 28  0  0  1  0  0  0  0  0999 V2000
   26.7472  -21.6157  -15.9229 N   0  0  0  0  0  0  0  0  0  0  0  0
   28.0396  -21.0358  -15.6315 C   0  0  1  0  0  0  0  0  0  0  0  0
   28.5162  -20.1935  -16.8246 C   0  0  0  0  0  0  0  0  0  0  0  0
   28.8976  -21.1036  -17.9224 C   0  0  0  0  0  0  0  0  0  0  0  0
   28.3060  -22.1954  -18.0614 O   0  0  0  0  0  0  0  0  0  0  0  0
   27.8786  -20.1238  -14.4552 C   0  0  0  0  0  0  0  0  0  0  0  0
   28.9017  -19.5943  -13.9600 O   0  0  0  0  0  0  0  0  0  0  0  0
   29.9077  -20.7528  -18.7986 O   0  0  0  0  0  0  0  0  0  0  0  0
   26.5737  -19.9111  -13.9686 N   0  0  0  0  0  0  0  0  0  0  0  0
   26.3341  -19.0889  -12.8358 C   0  0  0  0  0  0  0  0  0  0  0  0
   25.8202  -19.8122  -11.6430 C   0  0  0  0  0  0  0  0  0  0  0  0
   24.5928  -20.0715  -11.5588 O   0  0  0  0  0  0  0  0  0  0  0  0
   26.6570  -20.2250  -10.5920 N   0  0  0  0  0  0  0  0  0  0  0  0
   26.2599  -21.0683   -9.4722 C   0  0  1  0  0  0  0  0  0  0  0  0
   27.3765  -21.2355   -8.5023 C   0  0  0  0  0  0  0  0  0  0  0  0
   27.4281  -20.1570   -7.5070 C   0  0  0  0  0  0  0  0  0  0  0  0
   26.9212  -18.8758   -7.6768 C   0  0  0  0  0  0  0  0  0  0  0  0
   27.1510  -18.1323   -6.6084 N   0  0  0  0  0  0  0  0  0  0  0  0
   27.8145  -18.9014   -5.7051 C   0  0  0  0  0  0  0  0  0  0  0  0
   28.2820  -18.6507   -4.4280 C   0  0  0  0  0  0  0  0  0  0  0  0
   28.9129  -19.6061   -3.6885 C   0  0  0  0  0  0  0  0  0  0  0  0
   29.0827  -20.8595   -4.2462 C   0  0  0  0  0  0  0  0  0  0  0  0
   28.6382  -21.1665   -5.5139 C   0  0  0  0  0  0  0  0  0  0  0  0
   28.0002  -20.1562   -6.2304 C   0  0  0  0  0  0  0  0  0  0  0  0
   24.9974  -20.7432   -8.8631 C   0  0  0  0  0  0  0  0  0  0  0  0
   24.5215  -19.5585   -9.0298 O   0  0  0  0  0  0  0  0  0  0  0  0
   24.2184  -21.5902   -8.1051 O   0  0  0  0  0  0  0  0  0  0  0  0
  2  1  1  6
  2  6  1  0
  3  4  1  0
  3  2  1  0
  4  5  2  0
  6  9  1  0
  7  6  2  0
  8  4  1  0
  9 10  1  0
 10 11  1  0
 11 13  1  0
 11 12  2  0
 13 14  1  0
 14 25  1  0
 14 15  1  1
 16 15  1  0
 17 16  2  0
 18 17  1  0
 19 24  2  0
 19 18  1  0
 20 19  1  0
 21 20  2  0
 21 22  1  0
 22 23  2  0
 23 24  1  0
 24 16  1  0
 25 26  2  0
 25 27  1  0
M  END
$$$$
