DGW.pdb
     RDKit          3D

 27 28  0  0  1  0  0  0  0  0999 V2000
   26.4815  -19.0628  -16.6931 N   0  0  0  0  0  0  0  0  0  0  0  0
   27.2886  -20.2401  -16.4612 C   0  0  1  0  0  0  0  0  0  0  0  0
   28.5679  -20.1728  -17.3092 C   0  0  0  0  0  0  0  0  0  0  0  0
   28.2238  -20.4917  -18.7088 C   0  0  0  0  0  0  0  0  0  0  0  0
   27.0367  -20.4173  -19.0916 O   0  0  0  0  0  0  0  0  0  0  0  0
   27.6886  -20.2454  -15.0185 C   0  0  0  0  0  0  0  0  0  0  0  0
   28.3666  -21.2072  -14.5857 O   0  0  0  0  0  0  0  0  0  0  0  0
   29.2104  -20.8726  -19.5990 O   0  0  0  0  0  0  0  0  0  0  0  0
   27.2761  -19.1580  -14.2234 N   0  0  0  0  0  0  0  0  0  0  0  0
   27.6022  -19.0884  -12.8430 C   0  0  0  0  0  0  0  0  0  0  0  0
   26.7864  -19.9715  -11.9686 C   0  0  0  0  0  0  0  0  0  0  0  0
   25.7328  -20.4869  -12.4213 O   0  0  0  0  0  0  0  0  0  0  0  0
   27.1462  -20.2600  -10.6410 N   0  0  0  0  0  0  0  0  0  0  0  0
   26.4464  -21.1785   -9.7525 C   0  0  1  0  0  0  0  0  0  0  0  0
   27.2720  -21.5052   -8.5579 C   0  0  0  0  0  0  0  0  0  0  0  0
   27.3118  -20.4098   -7.5806 C   0  0  0  0  0  0  0  0  0  0  0  0
   26.6770  -19.1826   -7.7159 C   0  0  0  0  0  0  0  0  0  0  0  0
   26.9307  -18.4036   -6.6788 N   0  0  0  0  0  0  0  0  0  0  0  0
   27.7384  -19.0943   -5.8312 C   0  0  0  0  0  0  0  0  0  0  0  0
   28.2913  -18.7809   -4.6030 C   0  0  0  0  0  0  0  0  0  0  0  0
   29.0693  -19.6628   -3.9142 C   0  0  0  0  0  0  0  0  0  0  0  0
   29.3035  -20.9049   -4.4738 C   0  0  0  0  0  0  0  0  0  0  0  0
   28.7794  -21.2722   -5.6942 C   0  0  0  0  0  0  0  0  0  0  0  0
   27.9913  -20.3358   -6.3600 C   0  0  0  0  0  0  0  0  0  0  0  0
   25.0830  -20.8344   -9.4472 C   0  0  0  0  0  0  0  0  0  0  0  0
   24.6923  -19.6257   -9.6577 O   0  0  0  0  0  0  0  0  0  0  0  0
   24.1223  -21.6857   -8.9461 O   0  0  0  0  0  0  0  0  0  0  0  0
  2  1  1  1
  2  6  1  0
  3  4  1  0
  3  2  1  0
  4  5  2  0
  6  9  1  0
  7  6  2  0
  8  4  1  0
  9 10  1  0
 10 11  1  0
 11 13  1  0
 11 12  2  0
 13 14  1  0
 14 25  1  0
 14 15  1  1
 16 15  1  0
 17 16  2  0
 18 17  1  0
 19 24  2  0
 19 18  1  0
 20 19  1  0
 21 20  2  0
 21 22  1  0
 22 23  2  0
 23 24  1  0
 24 16  1  0
 25 26  2  0
 25 27  1  0
M  END
$$$$
