DGW.pdb
     RDKit          3D

 27 28  0  0  1  0  0  0  0  0999 V2000
   26.0209  -20.9261  -16.9894 N   0  0  0  0  0  0  0  0  0  0  0  0
   26.9858  -19.8584  -17.1318 C   0  0  1  0  0  0  0  0  0  0  0  0
   26.3033  -18.6102  -17.7117 C   0  0  0  0  0  0  0  0  0  0  0  0
   25.8450  -18.9161  -19.0811 C   0  0  0  0  0  0  0  0  0  0  0  0
   26.6219  -18.7624  -20.0476 O   0  0  0  0  0  0  0  0  0  0  0  0
   27.4958  -19.5157  -15.7665 C   0  0  0  0  0  0  0  0  0  0  0  0
   28.1237  -18.4416  -15.6110 O   0  0  0  0  0  0  0  0  0  0  0  0
   24.5586  -19.3725  -19.2992 O   0  0  0  0  0  0  0  0  0  0  0  0
   27.2373  -20.4291  -14.7256 N   0  0  0  0  0  0  0  0  0  0  0  0
   27.6116  -20.1449  -13.3854 C   0  0  0  0  0  0  0  0  0  0  0  0
   26.7401  -20.7664  -12.3539 C   0  0  0  0  0  0  0  0  0  0  0  0
   25.4992  -20.8256  -12.5472 O   0  0  0  0  0  0  0  0  0  0  0  0
   27.2490  -21.2983  -11.1566 N   0  0  0  0  0  0  0  0  0  0  0  0
   26.6469  -21.1491   -9.8382 C   0  0  1  0  0  0  0  0  0  0  0  0
   27.6873  -20.9679   -8.7893 C   0  0  0  0  0  0  0  0  0  0  0  0
   27.1137  -20.7354   -7.4575 C   0  0  0  0  0  0  0  0  0  0  0  0
   25.8116  -21.0290   -7.0759 C   0  0  0  0  0  0  0  0  0  0  0  0
   25.5967  -20.6744   -5.8209 N   0  0  0  0  0  0  0  0  0  0  0  0
   26.7497  -20.1384   -5.3400 C   0  0  0  0  0  0  0  0  0  0  0  0
   27.0988  -19.6278   -4.1031 C   0  0  0  0  0  0  0  0  0  0  0  0
   28.3505  -19.1553   -3.8432 C   0  0  0  0  0  0  0  0  0  0  0  0
   29.2889  -19.1947   -4.8576 C   0  0  0  0  0  0  0  0  0  0  0  0
   28.9977  -19.6917   -6.1095 C   0  0  0  0  0  0  0  0  0  0  0  0
   27.7044  -20.1621   -6.3263 C   0  0  0  0  0  0  0  0  0  0  0  0
   25.5574  -20.2132   -9.7519 C   0  0  0  0  0  0  0  0  0  0  0  0
   25.7815  -18.9802  -10.0472 O   0  0  0  0  0  0  0  0  0  0  0  0
   24.2621  -20.5051   -9.3834 O   0  0  0  0  0  0  0  0  0  0  0  0
  2  1  1  1
  2  6  1  0
  3  4  1  0
  3  2  1  0
  4  5  2  0
  6  9  1  0
  7  6  2  0
  8  4  1  0
  9 10  1  0
 10 11  1  0
 11 13  1  0
 11 12  2  0
 13 14  1  0
 14 25  1  0
 14 15  1  1
 16 15  1  0
 17 16  2  0
 18 17  1  0
 19 24  2  0
 19 18  1  0
 20 19  1  0
 21 20  2  0
 21 22  1  0
 22 23  2  0
 23 24  1  0
 24 16  1  0
 25 26  2  0
 25 27  1  0
M  END
$$$$
