DGW.pdb
     RDKit          3D

 27 28  0  0  1  0  0  0  0  0999 V2000
   25.6671  -17.5160  -14.4754 N   0  0  0  0  0  0  0  0  0  0  0  0
   25.1504  -18.8587  -14.6216 C   0  0  1  0  0  0  0  0  0  0  0  0
   24.9525  -19.1841  -16.1100 C   0  0  0  0  0  0  0  0  0  0  0  0
   23.8002  -18.4108  -16.6130 C   0  0  0  0  0  0  0  0  0  0  0  0
   23.2582  -17.5534  -15.8833 O   0  0  0  0  0  0  0  0  0  0  0  0
   26.1714  -19.8058  -14.0720 C   0  0  0  0  0  0  0  0  0  0  0  0
   25.9290  -21.0356  -14.1021 O   0  0  0  0  0  0  0  0  0  0  0  0
   23.3176  -18.6311  -17.8895 O   0  0  0  0  0  0  0  0  0  0  0  0
   27.3572  -19.2542  -13.5481 N   0  0  0  0  0  0  0  0  0  0  0  0
   28.3983  -20.0820  -13.0505 C   0  0  0  0  0  0  0  0  0  0  0  0
   28.0753  -20.7893  -11.7835 C   0  0  0  0  0  0  0  0  0  0  0  0
   28.7965  -21.7492  -11.4103 O   0  0  0  0  0  0  0  0  0  0  0  0
   26.9854  -20.4270  -10.9734 N   0  0  0  0  0  0  0  0  0  0  0  0
   26.4881  -21.1835   -9.8318 C   0  0  1  0  0  0  0  0  0  0  0  0
   27.5674  -21.4261   -8.8359 C   0  0  0  0  0  0  0  0  0  0  0  0
   27.5975  -20.4107   -7.7754 C   0  0  0  0  0  0  0  0  0  0  0  0
   26.9607  -19.1779   -7.8186 C   0  0  0  0  0  0  0  0  0  0  0  0
   27.2050  -18.4823   -6.7216 N   0  0  0  0  0  0  0  0  0  0  0  0
   28.0082  -19.2360   -5.9250 C   0  0  0  0  0  0  0  0  0  0  0  0
   28.5514  -19.0190   -4.6719 C   0  0  0  0  0  0  0  0  0  0  0  0
   29.3266  -19.9509   -4.0487 C   0  0  0  0  0  0  0  0  0  0  0  0
   29.5678  -21.1448   -4.7024 C   0  0  0  0  0  0  0  0  0  0  0  0
   29.0534  -21.4160   -5.9517 C   0  0  0  0  0  0  0  0  0  0  0  0
   28.2679  -20.4316   -6.5477 C   0  0  0  0  0  0  0  0  0  0  0  0
   25.2561  -20.7103   -9.2584 C   0  0  0  0  0  0  0  0  0  0  0  0
   24.6970  -19.6717   -9.7747 O   0  0  0  0  0  0  0  0  0  0  0  0
   24.5887  -21.2697   -8.1906 O   0  0  0  0  0  0  0  0  0  0  0  0
  2  1  1  6
  2  6  1  0
  3  4  1  0
  3  2  1  0
  4  5  2  0
  6  9  1  0
  7  6  2  0
  8  4  1  0
  9 10  1  0
 10 11  1  0
 11 13  1  0
 11 12  2  0
 13 14  1  0
 14 25  1  0
 14 15  1  1
 16 15  1  0
 17 16  2  0
 18 17  1  0
 19 24  2  0
 19 18  1  0
 20 19  1  0
 21 20  2  0
 21 22  1  0
 22 23  2  0
 23 24  1  0
 24 16  1  0
 25 26  2  0
 25 27  1  0
M  END
$$$$
