DGW.pdb
     RDKit          3D

 27 28  0  0  1  0  0  0  0  0999 V2000
   25.1135  -20.7469  -15.0784 N   0  0  0  0  0  0  0  0  0  0  0  0
   26.2880  -19.9085  -15.1733 C   0  0  1  0  0  0  0  0  0  0  0  0
   25.8893  -18.5006  -15.6415 C   0  0  0  0  0  0  0  0  0  0  0  0
   25.5369  -18.5616  -17.0736 C   0  0  0  0  0  0  0  0  0  0  0  0
   25.5605  -19.6563  -17.6755 O   0  0  0  0  0  0  0  0  0  0  0  0
   26.8799  -19.7910  -13.8031 C   0  0  0  0  0  0  0  0  0  0  0  0
   26.2680  -19.1193  -12.9391 O   0  0  0  0  0  0  0  0  0  0  0  0
   25.1804  -17.4114  -17.7525 O   0  0  0  0  0  0  0  0  0  0  0  0
   28.1020  -20.4490  -13.5622 N   0  0  0  0  0  0  0  0  0  0  0  0
   28.7596  -20.3466  -12.3076 C   0  0  0  0  0  0  0  0  0  0  0  0
   28.1089  -21.1006  -11.2039 C   0  0  0  0  0  0  0  0  0  0  0  0
   28.5723  -22.2181  -10.8617 O   0  0  0  0  0  0  0  0  0  0  0  0
   26.9843  -20.6124  -10.5167 N   0  0  0  0  0  0  0  0  0  0  0  0
   26.1194  -21.3931   -9.6420 C   0  0  1  0  0  0  0  0  0  0  0  0
   26.8032  -21.7188   -8.3606 C   0  0  0  0  0  0  0  0  0  0  0  0
   27.1082  -20.5245   -7.5624 C   0  0  0  0  0  0  0  0  0  0  0  0
   26.6865  -19.2329   -7.8471 C   0  0  0  0  0  0  0  0  0  0  0  0
   27.1516  -18.3773   -6.9534 N   0  0  0  0  0  0  0  0  0  0  0  0
   27.8914  -19.0798   -6.0551 C   0  0  0  0  0  0  0  0  0  0  0  0
   28.5846  -18.7055   -4.9185 C   0  0  0  0  0  0  0  0  0  0  0  0
   29.2498  -19.6107   -4.1467 C   0  0  0  0  0  0  0  0  0  0  0  0
   29.2212  -20.9400   -4.5248 C   0  0  0  0  0  0  0  0  0  0  0  0
   28.5475  -21.3707   -5.6472 C   0  0  0  0  0  0  0  0  0  0  0  0
   27.8836  -20.4076   -6.4039 C   0  0  0  0  0  0  0  0  0  0  0  0
   24.7794  -20.8938   -9.4816 C   0  0  0  0  0  0  0  0  0  0  0  0
   24.0078  -21.4682   -8.6258 O   0  0  0  0  0  0  0  0  0  0  0  0
   24.2207  -19.8325  -10.1601 O   0  0  0  0  0  0  0  0  0  0  0  0
  2  1  1  1
  2  6  1  0
  3  4  1  0
  3  2  1  0
  4  5  2  0
  6  9  1  0
  7  6  2  0
  8  4  1  0
  9 10  1  0
 10 11  1  0
 11 13  1  0
 11 12  2  0
 13 14  1  0
 14 25  1  0
 14 15  1  1
 16 15  1  0
 17 16  2  0
 18 17  1  0
 19 24  2  0
 19 18  1  0
 20 19  1  0
 21 20  2  0
 21 22  1  0
 22 23  2  0
 23 24  1  0
 24 16  1  0
 25 26  2  0
 25 27  1  0
M  END
$$$$
