DGW.pdb
     RDKit          3D

 27 28  0  0  1  0  0  0  0  0999 V2000
   28.6953  -22.5365  -16.9087 N   0  0  0  0  0  0  0  0  0  0  0  0
   29.4836  -21.3940  -17.3143 C   0  0  1  0  0  0  0  0  0  0  0  0
   29.2634  -21.1100  -18.8080 C   0  0  0  0  0  0  0  0  0  0  0  0
   30.0474  -22.0829  -19.5940 C   0  0  0  0  0  0  0  0  0  0  0  0
   30.8010  -22.8919  -19.0121 O   0  0  0  0  0  0  0  0  0  0  0  0
   29.0018  -20.2061  -16.5408 C   0  0  0  0  0  0  0  0  0  0  0  0
   29.5373  -19.0924  -16.7531 O   0  0  0  0  0  0  0  0  0  0  0  0
   29.9511  -22.1030  -20.9729 O   0  0  0  0  0  0  0  0  0  0  0  0
   27.9640  -20.4110  -15.6104 N   0  0  0  0  0  0  0  0  0  0  0  0
   27.4708  -19.3468  -14.8098 C   0  0  0  0  0  0  0  0  0  0  0  0
   26.3328  -19.7124  -13.9260 C   0  0  0  0  0  0  0  0  0  0  0  0
   25.1655  -19.3758  -14.2501 O   0  0  0  0  0  0  0  0  0  0  0  0
   26.5063  -20.4279  -12.7288 N   0  0  0  0  0  0  0  0  0  0  0  0
   25.5263  -21.3201  -12.1236 C   0  0  1  0  0  0  0  0  0  0  0  0
   26.1096  -22.0556  -10.9685 C   0  0  0  0  0  0  0  0  0  0  0  0
   26.4178  -21.1752   -9.8343 C   0  0  0  0  0  0  0  0  0  0  0  0
   25.5094  -20.3578   -9.1756 C   0  0  0  0  0  0  0  0  0  0  0  0
   26.1040  -19.6683   -8.2174 N   0  0  0  0  0  0  0  0  0  0  0  0
   27.4193  -20.0116   -8.2170 C   0  0  0  0  0  0  0  0  0  0  0  0
   28.4872  -19.6215   -7.4296 C   0  0  0  0  0  0  0  0  0  0  0  0
   29.7393  -20.1300   -7.6062 C   0  0  0  0  0  0  0  0  0  0  0  0
   29.9316  -21.0636   -8.6073 C   0  0  0  0  0  0  0  0  0  0  0  0
   28.9054  -21.4893   -9.4226 C   0  0  0  0  0  0  0  0  0  0  0  0
   27.6440  -20.9396   -9.2034 C   0  0  0  0  0  0  0  0  0  0  0  0
   24.2352  -20.7423  -11.8599 C   0  0  0  0  0  0  0  0  0  0  0  0
   23.2179  -21.5263  -11.7693 O   0  0  0  0  0  0  0  0  0  0  0  0
   23.9649  -19.4028  -11.6821 O   0  0  0  0  0  0  0  0  0  0  0  0
  2  1  1  1
  2  6  1  0
  3  4  1  0
  3  2  1  0
  4  5  2  0
  6  9  1  0
  7  6  2  0
  8  4  1  0
  9 10  1  0
 10 11  1  0
 11 13  1  0
 11 12  2  0
 13 14  1  0
 14 25  1  0
 14 15  1  1
 16 15  1  0
 17 16  2  0
 18 17  1  0
 19 24  2  0
 19 18  1  0
 20 19  1  0
 21 20  2  0
 21 22  1  0
 22 23  2  0
 23 24  1  0
 24 16  1  0
 25 26  2  0
 25 27  1  0
M  END
$$$$
