DGW.pdb
     RDKit          3D

 27 28  0  0  1  0  0  0  0  0999 V2000
   26.6752  -20.2822  -16.7719 N   0  0  0  0  0  0  0  0  0  0  0  0
   27.7112  -19.2733  -16.7557 C   0  0  1  0  0  0  0  0  0  0  0  0
   27.1988  -17.9865  -17.4203 C   0  0  0  0  0  0  0  0  0  0  0  0
   26.6053  -18.3340  -18.7264 C   0  0  0  0  0  0  0  0  0  0  0  0
   26.2628  -17.4286  -19.5165 O   0  0  0  0  0  0  0  0  0  0  0  0
   28.0265  -18.9623  -15.3255 C   0  0  0  0  0  0  0  0  0  0  0  0
   28.7456  -17.9673  -15.0707 O   0  0  0  0  0  0  0  0  0  0  0  0
   26.4265  -19.6584  -19.0798 O   0  0  0  0  0  0  0  0  0  0  0  0
   27.4911  -19.8143  -14.3395 N   0  0  0  0  0  0  0  0  0  0  0  0
   27.6990  -19.5643  -12.9571 C   0  0  0  0  0  0  0  0  0  0  0  0
   26.9872  -20.4976  -12.0449 C   0  0  0  0  0  0  0  0  0  0  0  0
   26.3784  -21.4873  -12.5253 O   0  0  0  0  0  0  0  0  0  0  0  0
   26.9650  -20.3204  -10.6509 N   0  0  0  0  0  0  0  0  0  0  0  0
   26.2878  -21.1877   -9.6959 C   0  0  1  0  0  0  0  0  0  0  0  0
   27.2049  -21.5984   -8.5978 C   0  0  0  0  0  0  0  0  0  0  0  0
   27.4447  -20.5218   -7.6282 C   0  0  0  0  0  0  0  0  0  0  0  0
   26.7421  -19.3265   -7.5577 C   0  0  0  0  0  0  0  0  0  0  0  0
   27.2179  -18.5560   -6.5950 N   0  0  0  0  0  0  0  0  0  0  0  0
   28.2458  -19.2208   -6.0039 C   0  0  0  0  0  0  0  0  0  0  0  0
   29.0801  -18.9036   -4.9477 C   0  0  0  0  0  0  0  0  0  0  0  0
   30.0472  -19.7578   -4.5086 C   0  0  0  0  0  0  0  0  0  0  0  0
   30.1856  -20.9750   -5.1490 C   0  0  0  0  0  0  0  0  0  0  0  0
   29.3834  -21.3446   -6.2068 C   0  0  0  0  0  0  0  0  0  0  0  0
   28.4100  -20.4370   -6.6193 C   0  0  0  0  0  0  0  0  0  0  0  0
   24.9990  -20.7334   -9.2449 C   0  0  0  0  0  0  0  0  0  0  0  0
   24.7250  -19.4783   -9.3317 O   0  0  0  0  0  0  0  0  0  0  0  0
   23.9965  -21.5210   -8.7221 O   0  0  0  0  0  0  0  0  0  0  0  0
  2  1  1  1
  2  6  1  0
  3  4  1  0
  3  2  1  0
  4  5  2  0
  6  9  1  0
  7  6  2  0
  8  4  1  0
  9 10  1  0
 10 11  1  0
 11 13  1  0
 11 12  2  0
 13 14  1  0
 14 25  1  0
 14 15  1  1
 16 15  1  0
 17 16  2  0
 18 17  1  0
 19 24  2  0
 19 18  1  0
 20 19  1  0
 21 20  2  0
 21 22  1  0
 22 23  2  0
 23 24  1  0
 24 16  1  0
 25 26  2  0
 25 27  1  0
M  END
$$$$
