DGW.pdb
     RDKit          3D

 27 28  0  0  1  0  0  0  0  0999 V2000
   26.7424  -19.4620  -16.6935 N   0  0  0  0  0  0  0  0  0  0  0  0
   27.6229  -20.5897  -16.4825 C   0  0  1  0  0  0  0  0  0  0  0  0
   28.9344  -20.3811  -17.2549 C   0  0  0  0  0  0  0  0  0  0  0  0
   28.7126  -20.7442  -18.6684 C   0  0  0  0  0  0  0  0  0  0  0  0
   27.5963  -21.1689  -19.0353 O   0  0  0  0  0  0  0  0  0  0  0  0
   27.9494  -20.6500  -15.0226 C   0  0  0  0  0  0  0  0  0  0  0  0
   28.5969  -21.6332  -14.5911 O   0  0  0  0  0  0  0  0  0  0  0  0
   29.7357  -20.6159  -19.5891 O   0  0  0  0  0  0  0  0  0  0  0  0
   27.5060  -19.5874  -14.2108 N   0  0  0  0  0  0  0  0  0  0  0  0
   27.7970  -19.5502  -12.8212 C   0  0  0  0  0  0  0  0  0  0  0  0
   26.8446  -20.3089  -11.9684 C   0  0  0  0  0  0  0  0  0  0  0  0
   25.8026  -20.7895  -12.4823 O   0  0  0  0  0  0  0  0  0  0  0  0
   27.0608  -20.5159  -10.5953 N   0  0  0  0  0  0  0  0  0  0  0  0
   26.1803  -21.2539   -9.6993 C   0  0  1  0  0  0  0  0  0  0  0  0
   26.8675  -21.5834   -8.4207 C   0  0  0  0  0  0  0  0  0  0  0  0
   27.1503  -20.3938   -7.6073 C   0  0  0  0  0  0  0  0  0  0  0  0
   26.7403  -19.0998   -7.8983 C   0  0  0  0  0  0  0  0  0  0  0  0
   27.1794  -18.2498   -6.9863 N   0  0  0  0  0  0  0  0  0  0  0  0
   27.8898  -18.9584   -6.0693 C   0  0  0  0  0  0  0  0  0  0  0  0
   28.5485  -18.5916   -4.9100 C   0  0  0  0  0  0  0  0  0  0  0  0
   29.1878  -19.5021   -4.1227 C   0  0  0  0  0  0  0  0  0  0  0  0
   29.1680  -20.8294   -4.5083 C   0  0  0  0  0  0  0  0  0  0  0  0
   28.5283  -21.2529   -5.6531 C   0  0  0  0  0  0  0  0  0  0  0  0
   27.8900  -20.2845   -6.4250 C   0  0  0  0  0  0  0  0  0  0  0  0
   24.8598  -20.7074   -9.5318 C   0  0  0  0  0  0  0  0  0  0  0  0
   23.9749  -21.4149   -8.9201 O   0  0  0  0  0  0  0  0  0  0  0  0
   24.4313  -19.4705   -9.9621 O   0  0  0  0  0  0  0  0  0  0  0  0
  2  1  1  1
  2  6  1  0
  3  4  1  0
  3  2  1  0
  4  5  2  0
  6  9  1  0
  7  6  2  0
  8  4  1  0
  9 10  1  0
 10 11  1  0
 11 13  1  0
 11 12  2  0
 13 14  1  0
 14 25  1  0
 14 15  1  1
 16 15  1  0
 17 16  2  0
 18 17  1  0
 19 24  2  0
 19 18  1  0
 20 19  1  0
 21 20  2  0
 21 22  1  0
 22 23  2  0
 23 24  1  0
 24 16  1  0
 25 26  2  0
 25 27  1  0
M  END
$$$$
