DGW.pdb
     RDKit          3D

 27 28  0  0  1  0  0  0  0  0999 V2000
   25.6013  -18.7105  -17.9337 N   0  0  0  0  0  0  0  0  0  0  0  0
   26.9605  -18.7467  -18.4262 C   0  0  1  0  0  0  0  0  0  0  0  0
   27.3164  -17.4024  -19.0792 C   0  0  0  0  0  0  0  0  0  0  0  0
   26.6084  -17.3028  -20.3706 C   0  0  0  0  0  0  0  0  0  0  0  0
   25.5179  -16.6968  -20.4388 O   0  0  0  0  0  0  0  0  0  0  0  0
   27.8686  -18.9468  -17.2528 C   0  0  0  0  0  0  0  0  0  0  0  0
   29.0980  -19.0811  -17.4596 O   0  0  0  0  0  0  0  0  0  0  0  0
   27.1474  -17.8778  -21.5063 O   0  0  0  0  0  0  0  0  0  0  0  0
   27.2828  -18.9723  -15.9718 N   0  0  0  0  0  0  0  0  0  0  0  0
   28.0505  -19.2750  -14.8160 C   0  0  0  0  0  0  0  0  0  0  0  0
   27.5729  -20.4539  -14.0465 C   0  0  0  0  0  0  0  0  0  0  0  0
   27.9426  -21.6061  -14.3883 O   0  0  0  0  0  0  0  0  0  0  0  0
   26.7158  -20.3357  -12.9390 N   0  0  0  0  0  0  0  0  0  0  0  0
   26.1225  -21.4443  -12.2029 C   0  0  1  0  0  0  0  0  0  0  0  0
   26.9392  -21.7956  -11.0091 C   0  0  0  0  0  0  0  0  0  0  0  0
   26.6366  -20.9495   -9.8475 C   0  0  0  0  0  0  0  0  0  0  0  0
   25.4267  -20.3137   -9.6041 C   0  0  0  0  0  0  0  0  0  0  0  0
   25.4826  -19.6041   -8.4904 N   0  0  0  0  0  0  0  0  0  0  0  0
   26.7290  -19.7523   -7.9685 C   0  0  0  0  0  0  0  0  0  0  0  0
   27.3279  -19.2595   -6.8235 C   0  0  0  0  0  0  0  0  0  0  0  0
   28.6122  -19.5693   -6.4888 C   0  0  0  0  0  0  0  0  0  0  0  0
   29.3250  -20.4033   -7.3299 C   0  0  0  0  0  0  0  0  0  0  0  0
   28.7804  -20.9235   -8.4839 C   0  0  0  0  0  0  0  0  0  0  0  0
   27.4645  -20.5769   -8.7832 C   0  0  0  0  0  0  0  0  0  0  0  0
   24.7126  -21.3339  -11.9375 C   0  0  0  0  0  0  0  0  0  0  0  0
   24.1797  -20.1618  -11.9243 O   0  0  0  0  0  0  0  0  0  0  0  0
   23.8465  -22.3781  -11.6961 O   0  0  0  0  0  0  0  0  0  0  0  0
  2  1  1  1
  2  6  1  0
  3  4  1  0
  3  2  1  0
  4  5  2  0
  6  9  1  0
  7  6  2  0
  8  4  1  0
  9 10  1  0
 10 11  1  0
 11 13  1  0
 11 12  2  0
 13 14  1  0
 14 25  1  0
 14 15  1  1
 16 15  1  0
 17 16  2  0
 18 17  1  0
 19 24  2  0
 19 18  1  0
 20 19  1  0
 21 20  2  0
 21 22  1  0
 22 23  2  0
 23 24  1  0
 24 16  1  0
 25 26  2  0
 25 27  1  0
M  END
$$$$
