DGW.pdb
     RDKit          3D

 27 28  0  0  1  0  0  0  0  0999 V2000
   23.5106  -17.1782  -15.4123 N   0  0  0  0  0  0  0  0  0  0  0  0
   23.8151  -18.1198  -16.4668 C   0  0  1  0  0  0  0  0  0  0  0  0
   23.8259  -17.4000  -17.8240 C   0  0  0  0  0  0  0  0  0  0  0  0
   22.4415  -17.0205  -18.1680 C   0  0  0  0  0  0  0  0  0  0  0  0
   21.8811  -16.0856  -17.5572 O   0  0  0  0  0  0  0  0  0  0  0  0
   25.1892  -18.6594  -16.2175 C   0  0  0  0  0  0  0  0  0  0  0  0
   25.5085  -19.7553  -16.7363 O   0  0  0  0  0  0  0  0  0  0  0  0
   21.7615  -17.6958  -19.1643 O   0  0  0  0  0  0  0  0  0  0  0  0
   26.0522  -17.8962  -15.4066 N   0  0  0  0  0  0  0  0  0  0  0  0
   27.4231  -18.2381  -15.2629 C   0  0  0  0  0  0  0  0  0  0  0  0
   27.6757  -19.4562  -14.4490 C   0  0  0  0  0  0  0  0  0  0  0  0
   28.7002  -20.1491  -14.6750 O   0  0  0  0  0  0  0  0  0  0  0  0
   26.8087  -19.8724  -13.4241 N   0  0  0  0  0  0  0  0  0  0  0  0
   26.7132  -21.2247  -12.8903 C   0  0  1  0  0  0  0  0  0  0  0  0
   27.5454  -21.3796  -11.6659 C   0  0  0  0  0  0  0  0  0  0  0  0
   26.8700  -20.8909  -10.4570 C   0  0  0  0  0  0  0  0  0  0  0  0
   25.5155  -20.6072  -10.3468 C   0  0  0  0  0  0  0  0  0  0  0  0
   25.2246  -20.1583   -9.1381 N   0  0  0  0  0  0  0  0  0  0  0  0
   26.3773  -20.1339   -8.4181 C   0  0  0  0  0  0  0  0  0  0  0  0
   26.6562  -19.7771   -7.1114 C   0  0  0  0  0  0  0  0  0  0  0  0
   27.9140  -19.8580   -6.5927 C   0  0  0  0  0  0  0  0  0  0  0  0
   28.9315  -20.3127   -7.4106 C   0  0  0  0  0  0  0  0  0  0  0  0
   28.7128  -20.6815   -8.7202 C   0  0  0  0  0  0  0  0  0  0  0  0
   27.4103  -20.5803   -9.2046 C   0  0  0  0  0  0  0  0  0  0  0  0
   25.3809  -21.7537  -12.7650 C   0  0  0  0  0  0  0  0  0  0  0  0
   25.2370  -23.0212  -12.5899 O   0  0  0  0  0  0  0  0  0  0  0  0
   24.2106  -21.0276  -12.8068 O   0  0  0  0  0  0  0  0  0  0  0  0
  2  1  1  1
  2  6  1  0
  3  4  1  0
  3  2  1  0
  4  5  2  0
  6  9  1  0
  7  6  2  0
  8  4  1  0
  9 10  1  0
 10 11  1  0
 11 13  1  0
 11 12  2  0
 13 14  1  0
 14 25  1  0
 14 15  1  1
 16 15  1  0
 17 16  2  0
 18 17  1  0
 19 24  2  0
 19 18  1  0
 20 19  1  0
 21 20  2  0
 21 22  1  0
 22 23  2  0
 23 24  1  0
 24 16  1  0
 25 26  2  0
 25 27  1  0
M  END
$$$$
