REE.pdb
     RDKit          3D

 30 29  0  0  1  0  0  0  0  0999 V2000
   17.3093  -16.1039   16.0713 N   0  0  0  0  0  0  0  0  0  0  0  0
   16.1437  -15.3846   16.5040 C   0  0  0  0  0  0  0  0  0  0  0  0
   16.1502  -14.1168   16.4202 N   0  0  0  0  0  0  0  0  0  0  0  0
   15.0020  -16.0456   17.0109 N   0  0  0  0  0  0  0  0  0  0  0  0
   13.9640  -15.2513   17.6379 C   0  0  0  0  0  0  0  0  0  0  0  0
   12.7446  -15.1008   16.8128 C   0  0  0  0  0  0  0  0  0  0  0  0
   11.7865  -14.1126   17.3903 C   0  0  0  0  0  0  0  0  0  0  0  0
   10.7554  -14.6255   18.3489 C   0  0  2  0  0  0  0  0  0  0  0  0
    9.5722  -13.8621   18.2529 N   0  0  0  0  0  0  0  0  0  0  0  0
   11.3891  -14.5903   19.6927 C   0  0  0  0  0  0  0  0  0  0  0  0
   11.8268  -13.4856   20.1106 O   0  0  0  0  0  0  0  0  0  0  0  0
   15.3971  -13.4712   16.7158 N   0  0  0  0  0  0  0  0  0  0  0  0
   11.5255  -15.7312   20.5240 C   0  0  2  0  0  0  0  0  0  0  0  0
   12.2225  -15.6718   21.8003 C   0  0  0  0  0  0  0  0  0  0  0  0
   11.4660  -16.6226   22.7359 C   0  0  0  0  0  0  0  0  0  0  0  0
   12.1681  -16.5110   24.0952 C   0  0  0  0  0  0  0  0  0  0  0  0
   11.5662  -17.4683   25.0645 O   0  0  0  0  0  0  0  0  0  0  0  0
   10.5827  -17.0811   25.7562 C   0  0  0  0  0  0  0  0  0  0  0  0
   13.6357  -16.0226   21.6920 O   0  0  0  0  0  0  0  0  0  0  0  0
   13.9619  -17.0671   21.0629 O   0  0  0  0  0  0  0  0  0  0  0  0
   12.1102  -18.7252   25.1591 N   0  0  0  0  0  0  0  0  0  0  0  0
   14.6081  -15.2053   22.2804 C   0  0  2  0  0  0  0  0  0  0  0  0
   16.0209  -15.5203   22.2170 C   0  0  0  0  0  0  0  0  0  0  0  0
   16.8148  -14.4036   21.6171 C   0  0  0  0  0  0  0  0  0  0  0  0
   16.7215  -14.2269   20.1487 C   0  0  0  0  0  0  0  0  0  0  0  0
   17.6329  -13.2434   19.5528 O   0  0  0  0  0  0  0  0  0  0  0  0
   18.6374  -12.8639   20.1985 C   0  0  0  0  0  0  0  0  0  0  0  0
   16.5037  -15.9950   23.5306 O   0  0  0  0  0  0  0  0  0  0  0  0
   15.7744  -15.9373   24.5486 O   0  0  0  0  0  0  0  0  0  0  0  0
   17.4397  -12.6990   18.2869 O   0  0  0  0  0  0  0  0  0  0  0  0
  1  2  1  0
  2  3  2  0
  4  2  1  0
  4  5  1  0
  6  5  1  0
  7  6  1  0
  8  9  1  1
  8  7  1  0
 10  8  1  0
 10 12  1  0
 11 10  2  0
 13 12  1  0
 13 18  1  0
 13 14  1  6
 15 14  1  0
 16 17  2  0
 16 15  1  0
 18 19  2  0
 20 16  1  0
 21 18  1  0
 21 22  1  0
 22 27  1  0
 23 24  1  0
 22 23  1  1
 25 24  1  0
 25 29  1  0
 26 25  2  0
 27 28  2  0
 27 30  1  0
M  END
$$$$
