REE.pdb
     RDKit          3D

 30 29  0  0  1  0  0  0  0  0999 V2000
    8.4493  -26.0877   21.5314 N   0  0  0  0  0  0  0  0  0  0  0  0
    7.5727  -25.0006   21.1952 C   0  0  0  0  0  0  0  0  0  0  0  0
    7.0420  -24.9871   20.0408 N   0  0  0  0  0  0  0  0  0  0  0  0
    7.2865  -23.9604   22.1081 N   0  0  0  0  0  0  0  0  0  0  0  0
    8.3642  -23.0798   22.5139 C   0  0  0  0  0  0  0  0  0  0  0  0
    8.7199  -22.0621   21.4999 C   0  0  0  0  0  0  0  0  0  0  0  0
    9.9170  -21.2624   21.8935 C   0  0  0  0  0  0  0  0  0  0  0  0
    9.8596  -20.5240   23.1961 C   0  0  2  0  0  0  0  0  0  0  0  0
    8.7102  -19.7065   23.2474 N   0  0  0  0  0  0  0  0  0  0  0  0
   11.1386  -19.7745   23.3010 C   0  0  0  0  0  0  0  0  0  0  0  0
   12.2096  -20.4003   23.0827 O   0  0  0  0  0  0  0  0  0  0  0  0
    6.4234  -24.2548   19.6504 N   0  0  0  0  0  0  0  0  0  0  0  0
   11.2141  -18.3977   23.6329 C   0  0  1  0  0  0  0  0  0  0  0  0
   12.4900  -17.7154   23.7913 C   0  0  0  0  0  0  0  0  0  0  0  0
   12.4357  -16.5022   22.8549 C   0  0  0  0  0  0  0  0  0  0  0  0
   13.1260  -16.9483   21.5596 C   0  0  0  0  0  0  0  0  0  0  0  0
   14.4992  -16.3762   21.4858 O   0  0  0  0  0  0  0  0  0  0  0  0
   15.3506  -16.7508   22.3404 C   0  0  0  0  0  0  0  0  0  0  0  0
   12.7580  -17.3268   25.1730 O   0  0  0  0  0  0  0  0  0  0  0  0
   13.5868  -16.4025   25.4004 O   0  0  0  0  0  0  0  0  0  0  0  0
   14.7724  -15.4690   20.4923 N   0  0  0  0  0  0  0  0  0  0  0  0
   12.0993  -17.9757   26.2242 C   0  0  1  0  0  0  0  0  0  0  0  0
   11.4242  -17.2459   27.2781 C   0  0  0  0  0  0  0  0  0  0  0  0
   10.5113  -16.1945   26.7318 C   0  0  0  0  0  0  0  0  0  0  0  0
    9.7436  -15.3950   27.7154 C   0  0  0  0  0  0  0  0  0  0  0  0
    8.8869  -14.3374   27.1670 O   0  0  0  0  0  0  0  0  0  0  0  0
    8.7798  -14.2137   25.9247 C   0  0  0  0  0  0  0  0  0  0  0  0
   10.7976  -18.1819   28.2349 O   0  0  0  0  0  0  0  0  0  0  0  0
   10.2115  -19.2171   27.8394 O   0  0  0  0  0  0  0  0  0  0  0  0
    8.1738  -13.4481   27.9650 O   0  0  0  0  0  0  0  0  0  0  0  0
  1  2  1  0
  2  3  2  0
  4  2  1  0
  4  5  1  0
  6  5  1  0
  7  6  1  0
  8  9  1  6
  8  7  1  0
 10  8  1  0
 10 12  1  0
 11 10  2  0
 13 12  1  0
 13 18  1  0
 13 14  1  1
 15 14  1  0
 16 17  2  0
 16 15  1  0
 18 19  2  0
 20 16  1  0
 21 18  1  0
 21 22  1  0
 22 27  1  0
 23 24  1  0
 22 23  1  1
 25 24  1  0
 25 29  1  0
 26 25  2  0
 27 28  2  0
 27 30  1  0
M  END
$$$$
