REE.pdb
     RDKit          3D

 30 29  0  0  1  0  0  0  0  0999 V2000
   15.0017  -20.5461   18.8723 N   0  0  0  0  0  0  0  0  0  0  0  0
   14.8265  -20.6458   17.4501 C   0  0  0  0  0  0  0  0  0  0  0  0
   15.3589  -21.6267   16.8429 N   0  0  0  0  0  0  0  0  0  0  0  0
   14.0817  -19.6926   16.7194 N   0  0  0  0  0  0  0  0  0  0  0  0
   13.5126  -18.5653   17.4313 C   0  0  0  0  0  0  0  0  0  0  0  0
   12.2761  -18.8905   18.1769 C   0  0  0  0  0  0  0  0  0  0  0  0
   11.6976  -17.6987   18.8644 C   0  0  0  0  0  0  0  0  0  0  0  0
   11.0689  -17.9108   20.2079 C   0  0  2  0  0  0  0  0  0  0  0  0
    9.6846  -17.6412   20.1509 N   0  0  0  0  0  0  0  0  0  0  0  0
   11.8150  -17.0404   21.1535 C   0  0  0  0  0  0  0  0  0  0  0  0
   11.9942  -15.8359   20.8317 O   0  0  0  0  0  0  0  0  0  0  0  0
   15.3162  -21.8260   15.8281 N   0  0  0  0  0  0  0  0  0  0  0  0
   12.3329  -17.4946   22.3932 C   0  0  2  0  0  0  0  0  0  0  0  0
   13.0995  -16.6222   23.2704 C   0  0  0  0  0  0  0  0  0  0  0  0
   12.3176  -16.5606   24.5882 C   0  0  0  0  0  0  0  0  0  0  0  0
   12.3778  -17.9782   25.1715 C   0  0  0  0  0  0  0  0  0  0  0  0
   11.7498  -18.0052   26.5218 O   0  0  0  0  0  0  0  0  0  0  0  0
   12.4016  -17.5322   27.4949 C   0  0  0  0  0  0  0  0  0  0  0  0
   14.4709  -17.0818   23.4705 O   0  0  0  0  0  0  0  0  0  0  0  0
   14.6926  -18.3190   23.5852 O   0  0  0  0  0  0  0  0  0  0  0  0
   10.4927  -18.5434   26.6429 N   0  0  0  0  0  0  0  0  0  0  0  0
   15.5188  -16.1555   23.5321 C   0  0  2  0  0  0  0  0  0  0  0  0
   16.8983  -16.5629   23.7061 C   0  0  0  0  0  0  0  0  0  0  0  0
   17.8438  -15.6482   22.9944 C   0  0  0  0  0  0  0  0  0  0  0  0
   17.7057  -15.5533   21.5220 C   0  0  0  0  0  0  0  0  0  0  0  0
   18.7041  -14.7332   20.8266 O   0  0  0  0  0  0  0  0  0  0  0  0
   19.6671  -14.2567   21.4712 C   0  0  0  0  0  0  0  0  0  0  0  0
   17.1963  -16.7792   25.1374 O   0  0  0  0  0  0  0  0  0  0  0  0
   16.3799  -16.4430   26.0274 O   0  0  0  0  0  0  0  0  0  0  0  0
   18.6393  -14.4503   19.4657 O   0  0  0  0  0  0  0  0  0  0  0  0
  1  2  1  0
  2  3  2  0
  4  2  1  0
  4  5  1  0
  6  5  1  0
  7  6  1  0
  8  9  1  6
  8  7  1  0
 10  8  1  0
 10 12  1  0
 11 10  2  0
 13 12  1  0
 13 18  1  0
 13 14  1  1
 15 14  1  0
 16 17  2  0
 16 15  1  0
 18 19  2  0
 20 16  1  0
 21 18  1  0
 21 22  1  0
 22 27  1  0
 23 24  1  0
 22 23  1  1
 25 24  1  0
 25 29  1  0
 26 25  2  0
 27 28  2  0
 27 30  1  0
M  END
$$$$
