REE.pdb
     RDKit          3D

 30 29  0  0  1  0  0  0  0  0999 V2000
    6.1714  -20.9294   19.8496 N   0  0  0  0  0  0  0  0  0  0  0  0
    7.1082  -21.5766   18.9740 C   0  0  0  0  0  0  0  0  0  0  0  0
    6.6554  -22.3048   18.0364 N   0  0  0  0  0  0  0  0  0  0  0  0
    8.5047  -21.4215   19.1261 N   0  0  0  0  0  0  0  0  0  0  0  0
    8.9928  -20.4463   20.0813 C   0  0  0  0  0  0  0  0  0  0  0  0
    8.5365  -19.0643   19.8123 C   0  0  0  0  0  0  0  0  0  0  0  0
    9.1059  -18.0799   20.7790 C   0  0  0  0  0  0  0  0  0  0  0  0
    8.7925  -16.6313   20.5587 C   0  0  2  0  0  0  0  0  0  0  0  0
    9.4516  -16.1559   19.4048 N   0  0  0  0  0  0  0  0  0  0  0  0
    9.1842  -15.9307   21.8094 C   0  0  0  0  0  0  0  0  0  0  0  0
   10.4129  -15.7787   22.0414 O   0  0  0  0  0  0  0  0  0  0  0  0
    7.2079  -22.8512   17.3526 N   0  0  0  0  0  0  0  0  0  0  0  0
    8.2498  -15.4273   22.7502 C   0  0  2  0  0  0  0  0  0  0  0  0
    8.6742  -14.7343   23.9576 C   0  0  0  0  0  0  0  0  0  0  0  0
    7.4162  -14.0594   24.5177 C   0  0  0  0  0  0  0  0  0  0  0  0
    7.8927  -13.2215   25.7111 C   0  0  0  0  0  0  0  0  0  0  0  0
    6.7771  -12.3799   26.2262 O   0  0  0  0  0  0  0  0  0  0  0  0
    5.6219  -12.5586   25.7475 C   0  0  0  0  0  0  0  0  0  0  0  0
    9.2967  -15.6241   24.9336 O   0  0  0  0  0  0  0  0  0  0  0  0
    8.6649  -16.6449   25.3235 O   0  0  0  0  0  0  0  0  0  0  0  0
    7.0590  -11.4504   27.1964 N   0  0  0  0  0  0  0  0  0  0  0  0
   10.5771  -15.3411   25.4239 C   0  0  2  0  0  0  0  0  0  0  0  0
   11.2797  -16.2452   26.3116 C   0  0  0  0  0  0  0  0  0  0  0  0
   12.7505  -16.2624   26.0401 C   0  0  0  0  0  0  0  0  0  0  0  0
   13.1763  -16.6426   24.6725 C   0  0  0  0  0  0  0  0  0  0  0  0
   14.6172  -16.5873   24.4010 O   0  0  0  0  0  0  0  0  0  0  0  0
   15.4013  -16.2215   25.3073 C   0  0  0  0  0  0  0  0  0  0  0  0
   10.9067  -15.9824   27.7173 O   0  0  0  0  0  0  0  0  0  0  0  0
   11.3612  -16.6853   28.6506 O   0  0  0  0  0  0  0  0  0  0  0  0
   15.1711  -16.9250   23.1699 O   0  0  0  0  0  0  0  0  0  0  0  0
  1  2  1  0
  2  3  2  0
  4  2  1  0
  4  5  1  0
  6  5  1  0
  7  6  1  0
  8  9  1  6
  8  7  1  0
 10  8  1  0
 10 12  1  0
 11 10  2  0
 13 12  1  0
 13 18  1  0
 13 14  1  6
 15 14  1  0
 16 17  2  0
 16 15  1  0
 18 19  2  0
 20 16  1  0
 21 18  1  0
 21 22  1  0
 22 27  1  0
 23 24  1  0
 22 23  1  6
 25 24  1  0
 25 29  1  0
 26 25  2  0
 27 28  2  0
 27 30  1  0
M  END
$$$$
