REE.pdb
     RDKit          3D

 30 29  0  0  1  0  0  0  0  0999 V2000
    7.4821  -13.1080   16.2763 N   0  0  0  0  0  0  0  0  0  0  0  0
    7.8760  -14.3789   16.8176 C   0  0  0  0  0  0  0  0  0  0  0  0
    7.4554  -15.4345   16.2490 N   0  0  0  0  0  0  0  0  0  0  0  0
    8.7133  -14.4821   17.9514 N   0  0  0  0  0  0  0  0  0  0  0  0
    8.5133  -13.5532   19.0463 C   0  0  0  0  0  0  0  0  0  0  0  0
    7.1340  -13.5482   19.5828 C   0  0  0  0  0  0  0  0  0  0  0  0
    7.0478  -14.1772   20.9337 C   0  0  0  0  0  0  0  0  0  0  0  0
    8.1385  -13.8675   21.9133 C   0  0  2  0  0  0  0  0  0  0  0  0
    9.3825  -14.3195   21.4230 N   0  0  0  0  0  0  0  0  0  0  0  0
    7.7305  -14.4971   23.1961 C   0  0  0  0  0  0  0  0  0  0  0  0
    6.5833  -14.2339   23.6447 O   0  0  0  0  0  0  0  0  0  0  0  0
    7.7122  -16.4097   16.4821 N   0  0  0  0  0  0  0  0  0  0  0  0
    8.5627  -15.3746   23.9370 C   0  0  2  0  0  0  0  0  0  0  0  0
    8.0115  -16.4107   24.7979 C   0  0  0  0  0  0  0  0  0  0  0  0
    7.2161  -17.3427   23.8758 C   0  0  0  0  0  0  0  0  0  0  0  0
    6.7328  -18.4934   24.7677 C   0  0  0  0  0  0  0  0  0  0  0  0
    6.0175  -19.5120   23.9497 O   0  0  0  0  0  0  0  0  0  0  0  0
    6.1571  -19.4777   22.6948 C   0  0  0  0  0  0  0  0  0  0  0  0
    9.0370  -17.1300   25.5481 O   0  0  0  0  0  0  0  0  0  0  0  0
    8.6862  -18.0434   26.3455 O   0  0  0  0  0  0  0  0  0  0  0  0
    5.2408  -20.4386   24.6000 N   0  0  0  0  0  0  0  0  0  0  0  0
   10.3879  -16.8046   25.3782 C   0  0  1  0  0  0  0  0  0  0  0  0
   11.4052  -17.8166   25.1776 C   0  0  0  0  0  0  0  0  0  0  0  0
   11.8268  -17.9072   23.7454 C   0  0  0  0  0  0  0  0  0  0  0  0
   12.2665  -19.2358   23.2578 C   0  0  0  0  0  0  0  0  0  0  0  0
   12.7373  -19.2958   21.8693 O   0  0  0  0  0  0  0  0  0  0  0  0
   13.9108  -19.6656   21.6322 C   0  0  0  0  0  0  0  0  0  0  0  0
   12.5090  -17.6380   26.1439 O   0  0  0  0  0  0  0  0  0  0  0  0
   12.9927  -16.5043   26.3730 O   0  0  0  0  0  0  0  0  0  0  0  0
   11.9378  -18.9587   20.7815 O   0  0  0  0  0  0  0  0  0  0  0  0
  1  2  1  0
  2  3  2  0
  4  2  1  0
  4  5  1  0
  6  5  1  0
  7  6  1  0
  8  9  1  6
  8  7  1  0
 10  8  1  0
 10 12  1  0
 11 10  2  0
 13 12  1  0
 13 18  1  0
 13 14  1  1
 15 14  1  0
 16 17  2  0
 16 15  1  0
 18 19  2  0
 20 16  1  0
 21 18  1  0
 21 22  1  0
 22 27  1  0
 23 24  1  0
 22 23  1  1
 25 24  1  0
 25 29  1  0
 26 25  2  0
 27 28  2  0
 27 30  1  0
M  END
$$$$
