REE.pdb
     RDKit          3D

 30 29  0  0  1  0  0  0  0  0999 V2000
    7.4409  -13.1700   17.2184 N   0  0  0  0  0  0  0  0  0  0  0  0
    7.7482  -13.0048   18.6118 C   0  0  0  0  0  0  0  0  0  0  0  0
    8.0330  -11.8407   19.0340 N   0  0  0  0  0  0  0  0  0  0  0  0
    7.7378  -14.0922   19.5144 N   0  0  0  0  0  0  0  0  0  0  0  0
    8.3656  -15.3344   19.1088 C   0  0  0  0  0  0  0  0  0  0  0  0
    9.2622  -15.1981   17.9391 C   0  0  0  0  0  0  0  0  0  0  0  0
   10.5180  -15.9904   18.0908 C   0  0  0  0  0  0  0  0  0  0  0  0
   10.6571  -16.8411   19.3164 C   0  0  2  0  0  0  0  0  0  0  0  0
    9.8524  -16.3351   20.3598 N   0  0  0  0  0  0  0  0  0  0  0  0
   12.1085  -16.8712   19.6339 C   0  0  0  0  0  0  0  0  0  0  0  0
   12.7429  -17.9335   19.3979 O   0  0  0  0  0  0  0  0  0  0  0  0
    8.2976  -11.5779   19.9995 N   0  0  0  0  0  0  0  0  0  0  0  0
   12.8121  -15.7706   20.1862 C   0  0  2  0  0  0  0  0  0  0  0  0
   14.2336  -15.8430   20.4901 C   0  0  0  0  0  0  0  0  0  0  0  0
   14.8486  -14.5555   19.9282 C   0  0  0  0  0  0  0  0  0  0  0  0
   15.0912  -14.8290   18.4383 C   0  0  0  0  0  0  0  0  0  0  0  0
   15.9836  -13.7845   17.8629 O   0  0  0  0  0  0  0  0  0  0  0  0
   17.1959  -13.7712   18.2172 C   0  0  0  0  0  0  0  0  0  0  0  0
   14.5016  -15.9983   21.9170 O   0  0  0  0  0  0  0  0  0  0  0  0
   15.1661  -15.1084   22.5167 O   0  0  0  0  0  0  0  0  0  0  0  0
   15.4443  -12.8865   16.9754 N   0  0  0  0  0  0  0  0  0  0  0  0
   14.0235  -17.1217   22.6020 C   0  0  1  0  0  0  0  0  0  0  0  0
   14.1630  -17.2666   24.0369 C   0  0  0  0  0  0  0  0  0  0  0  0
   12.8754  -17.6662   24.6847 C   0  0  0  0  0  0  0  0  0  0  0  0
   11.6866  -16.8338   24.3851 C   0  0  0  0  0  0  0  0  0  0  0  0
   10.4338  -17.2301   25.0383 O   0  0  0  0  0  0  0  0  0  0  0  0
   10.4263  -18.2190   25.8077 C   0  0  0  0  0  0  0  0  0  0  0  0
   15.3188  -18.1295   24.3589 O   0  0  0  0  0  0  0  0  0  0  0  0
   15.8724  -18.8272   23.4766 O   0  0  0  0  0  0  0  0  0  0  0  0
    9.2317  -16.5559   24.8468 O   0  0  0  0  0  0  0  0  0  0  0  0
  1  2  1  0
  2  3  2  0
  4  2  1  0
  4  5  1  0
  6  5  1  0
  7  6  1  0
  8  9  1  1
  8  7  1  0
 10  8  1  0
 10 12  1  0
 11 10  2  0
 13 12  1  0
 13 18  1  0
 13 14  1  6
 15 14  1  0
 16 17  2  0
 16 15  1  0
 18 19  2  0
 20 16  1  0
 21 18  1  0
 21 22  1  0
 22 27  1  0
 23 24  1  0
 22 23  1  1
 25 24  1  0
 25 29  1  0
 26 25  2  0
 27 28  2  0
 27 30  1  0
M  END
$$$$
