REE.pdb
     RDKit          3D

 30 29  0  0  1  0  0  0  0  0999 V2000
    8.9783  -11.2802   19.9679 N   0  0  0  0  0  0  0  0  0  0  0  0
    9.3256  -12.4217   19.1683 C   0  0  0  0  0  0  0  0  0  0  0  0
   10.5445  -12.7776   19.1202 N   0  0  0  0  0  0  0  0  0  0  0  0
    8.3554  -13.1522   18.4456 N   0  0  0  0  0  0  0  0  0  0  0  0
    7.9243  -14.4344   18.9670 C   0  0  0  0  0  0  0  0  0  0  0  0
    7.0798  -14.3348   20.1783 C   0  0  0  0  0  0  0  0  0  0  0  0
    7.7055  -14.9934   21.3626 C   0  0  0  0  0  0  0  0  0  0  0  0
    8.4764  -16.2565   21.1265 C   0  0  2  0  0  0  0  0  0  0  0  0
    7.7362  -17.1387   20.3104 N   0  0  0  0  0  0  0  0  0  0  0  0
    8.7945  -16.8020   22.4717 C   0  0  0  0  0  0  0  0  0  0  0  0
    9.3570  -16.0387   23.3008 O   0  0  0  0  0  0  0  0  0  0  0  0
   10.9593  -13.4889   18.4930 N   0  0  0  0  0  0  0  0  0  0  0  0
    8.4986  -18.1314   22.8674 C   0  0  2  0  0  0  0  0  0  0  0  0
    9.5473  -19.1097   23.1154 C   0  0  0  0  0  0  0  0  0  0  0  0
    9.7932  -19.8101   21.7735 C   0  0  0  0  0  0  0  0  0  0  0  0
   10.7703  -20.9532   22.0765 C   0  0  0  0  0  0  0  0  0  0  0  0
   11.0455  -21.7354   20.8392 O   0  0  0  0  0  0  0  0  0  0  0  0
   11.8194  -22.7304   20.9195 C   0  0  0  0  0  0  0  0  0  0  0  0
   10.7670  -18.5109   23.6500 O   0  0  0  0  0  0  0  0  0  0  0  0
   11.5707  -17.9453   22.8580 O   0  0  0  0  0  0  0  0  0  0  0  0
   10.4445  -21.3361   19.6712 N   0  0  0  0  0  0  0  0  0  0  0  0
   11.0321  -18.5675   25.0234 C   0  0  2  0  0  0  0  0  0  0  0  0
   12.3811  -18.6552   25.5450 C   0  0  0  0  0  0  0  0  0  0  0  0
   12.4639  -19.5693   26.7260 C   0  0  0  0  0  0  0  0  0  0  0  0
   11.5590  -19.2802   27.8634 C   0  0  0  0  0  0  0  0  0  0  0  0
   11.7092  -20.1341   29.0472 O   0  0  0  0  0  0  0  0  0  0  0  0
   10.7567  -20.8659   29.4039 C   0  0  0  0  0  0  0  0  0  0  0  0
   13.3370  -18.9509   24.4575 O   0  0  0  0  0  0  0  0  0  0  0  0
   13.1911  -19.9553   23.7216 O   0  0  0  0  0  0  0  0  0  0  0  0
   12.8726  -20.1768   29.8095 O   0  0  0  0  0  0  0  0  0  0  0  0
  1  2  1  0
  2  3  2  0
  4  2  1  0
  4  5  1  0
  6  5  1  0
  7  6  1  0
  8  9  1  6
  8  7  1  0
 10  8  1  0
 10 12  1  0
 11 10  2  0
 13 12  1  0
 13 18  1  0
 13 14  1  6
 15 14  1  0
 16 17  2  0
 16 15  1  0
 18 19  2  0
 20 16  1  0
 21 18  1  0
 21 22  1  0
 22 27  1  0
 23 24  1  0
 22 23  1  1
 25 24  1  0
 25 29  1  0
 26 25  2  0
 27 28  2  0
 27 30  1  0
M  END
$$$$
