REE.pdb
     RDKit          3D

 30 29  0  0  1  0  0  0  0  0999 V2000
    9.3492  -13.2736   18.5809 N   0  0  0  0  0  0  0  0  0  0  0  0
    8.2828  -12.6581   19.3205 C   0  0  0  0  0  0  0  0  0  0  0  0
    8.2722  -11.3918   19.4249 N   0  0  0  0  0  0  0  0  0  0  0  0
    7.2552  -13.4176   19.9241 N   0  0  0  0  0  0  0  0  0  0  0  0
    7.4726  -14.8361   20.1295 C   0  0  0  0  0  0  0  0  0  0  0  0
    8.6446  -15.1454   20.9788 C   0  0  0  0  0  0  0  0  0  0  0  0
    8.3685  -16.2458   21.9487 C   0  0  0  0  0  0  0  0  0  0  0  0
    6.9809  -16.3474   22.5051 C   0  0  2  0  0  0  0  0  0  0  0  0
    6.5311  -15.0815   22.9379 N   0  0  0  0  0  0  0  0  0  0  0  0
    7.0439  -17.3671   23.5843 C   0  0  0  0  0  0  0  0  0  0  0  0
    7.0392  -16.9650   24.7780 O   0  0  0  0  0  0  0  0  0  0  0  0
    7.5767  -10.8164   19.9314 N   0  0  0  0  0  0  0  0  0  0  0  0
    7.1089  -18.7626   23.3399 C   0  0  1  0  0  0  0  0  0  0  0  0
    7.1509  -19.7307   24.4259 C   0  0  0  0  0  0  0  0  0  0  0  0
    6.3288  -20.9335   23.9472 C   0  0  0  0  0  0  0  0  0  0  0  0
    4.9128  -20.3961   23.7032 C   0  0  0  0  0  0  0  0  0  0  0  0
    4.1703  -21.3031   22.7843 O   0  0  0  0  0  0  0  0  0  0  0  0
    4.7229  -22.3835   22.4336 C   0  0  0  0  0  0  0  0  0  0  0  0
    8.5114  -20.1115   24.7945 O   0  0  0  0  0  0  0  0  0  0  0  0
    9.1899  -20.8133   23.9945 O   0  0  0  0  0  0  0  0  0  0  0  0
    2.9211  -20.9201   22.3628 N   0  0  0  0  0  0  0  0  0  0  0  0
    9.0474  -19.6984   26.0200 C   0  0  1  0  0  0  0  0  0  0  0  0
   10.4330  -19.9320   26.3732 C   0  0  0  0  0  0  0  0  0  0  0  0
   11.3634  -19.5398   25.2697 C   0  0  0  0  0  0  0  0  0  0  0  0
   11.7976  -18.1235   25.2293 C   0  0  0  0  0  0  0  0  0  0  0  0
   12.6309  -17.7311   24.0870 O   0  0  0  0  0  0  0  0  0  0  0  0
   12.5482  -18.3736   23.0145 C   0  0  0  0  0  0  0  0  0  0  0  0
   10.7381  -19.3347   27.6900 O   0  0  0  0  0  0  0  0  0  0  0  0
   11.8418  -19.5317   28.2510 O   0  0  0  0  0  0  0  0  0  0  0  0
   13.5242  -16.6650   24.1300 O   0  0  0  0  0  0  0  0  0  0  0  0
  1  2  1  0
  2  3  2  0
  4  2  1  0
  4  5  1  0
  6  5  1  0
  7  6  1  0
  8  9  1  1
  8  7  1  0
 10  8  1  0
 10 12  1  0
 11 10  2  0
 13 12  1  0
 13 18  1  0
 13 14  1  1
 15 14  1  0
 16 17  2  0
 16 15  1  0
 18 19  2  0
 20 16  1  0
 21 18  1  0
 21 22  1  0
 22 27  1  0
 23 24  1  0
 22 23  1  6
 25 24  1  0
 25 29  1  0
 26 25  2  0
 27 28  2  0
 27 30  1  0
M  END
$$$$
