REE.pdb
     RDKit          3D

 30 29  0  0  1  0  0  0  0  0999 V2000
    7.2849  -12.2821   20.5583 N   0  0  0  0  0  0  0  0  0  0  0  0
    7.3001  -13.0778   19.3626 C   0  0  0  0  0  0  0  0  0  0  0  0
    7.7978  -12.5739   18.3077 N   0  0  0  0  0  0  0  0  0  0  0  0
    6.7846  -14.3933   19.3326 N   0  0  0  0  0  0  0  0  0  0  0  0
    7.6099  -15.4718   19.8400 C   0  0  0  0  0  0  0  0  0  0  0  0
    8.8550  -15.6863   19.0693 C   0  0  0  0  0  0  0  0  0  0  0  0
    9.6204  -16.8756   19.5463 C   0  0  0  0  0  0  0  0  0  0  0  0
   10.8903  -17.2166   18.8277 C   0  0  2  0  0  0  0  0  0  0  0  0
   10.7501  -18.4382   18.1348 N   0  0  0  0  0  0  0  0  0  0  0  0
   11.9578  -17.2279   19.8615 C   0  0  0  0  0  0  0  0  0  0  0  0
   12.1456  -18.2943   20.5051 O   0  0  0  0  0  0  0  0  0  0  0  0
    7.8320  -13.0080   17.3686 N   0  0  0  0  0  0  0  0  0  0  0  0
   12.7715  -16.1050   20.1588 C   0  0  2  0  0  0  0  0  0  0  0  0
   13.7956  -16.1515   21.1920 C   0  0  0  0  0  0  0  0  0  0  0  0
   14.7077  -14.9463   20.9329 C   0  0  0  0  0  0  0  0  0  0  0  0
   15.6027  -15.3506   19.7544 C   0  0  0  0  0  0  0  0  0  0  0  0
   16.5310  -14.2382   19.4090 O   0  0  0  0  0  0  0  0  0  0  0  0
   17.7653  -14.4001   19.6228 C   0  0  0  0  0  0  0  0  0  0  0  0
   13.2404  -16.1355   22.5423 O   0  0  0  0  0  0  0  0  0  0  0  0
   12.1517  -15.5320   22.7508 O   0  0  0  0  0  0  0  0  0  0  0  0
   15.9993  -13.0906   18.8752 N   0  0  0  0  0  0  0  0  0  0  0  0
   13.9132  -16.7840   23.5848 C   0  0  1  0  0  0  0  0  0  0  0  0
   13.2090  -17.5028   24.6272 C   0  0  0  0  0  0  0  0  0  0  0  0
   12.1571  -18.4072   24.0679 C   0  0  0  0  0  0  0  0  0  0  0  0
   11.4623  -19.3009   25.0243 C   0  0  0  0  0  0  0  0  0  0  0  0
   10.4140  -20.1623   24.4656 O   0  0  0  0  0  0  0  0  0  0  0  0
    9.2318  -20.0274   24.8580 C   0  0  0  0  0  0  0  0  0  0  0  0
   14.1680  -18.1523   25.5451 O   0  0  0  0  0  0  0  0  0  0  0  0
   14.1677  -17.8938   26.7718 O   0  0  0  0  0  0  0  0  0  0  0  0
   10.6651  -21.1385   23.5063 O   0  0  0  0  0  0  0  0  0  0  0  0
  1  2  1  0
  2  3  2  0
  4  2  1  0
  4  5  1  0
  6  5  1  0
  7  6  1  0
  8  9  1  1
  8  7  1  0
 10  8  1  0
 10 12  1  0
 11 10  2  0
 13 12  1  0
 13 18  1  0
 13 14  1  6
 15 14  1  0
 16 17  2  0
 16 15  1  0
 18 19  2  0
 20 16  1  0
 21 18  1  0
 21 22  1  0
 22 27  1  0
 23 24  1  0
 22 23  1  1
 25 24  1  0
 25 29  1  0
 26 25  2  0
 27 28  2  0
 27 30  1  0
M  END
$$$$
