REE.pdb
     RDKit          3D

 30 29  0  0  1  0  0  0  0  0999 V2000
    8.7789  -12.9382   21.0382 N   0  0  0  0  0  0  0  0  0  0  0  0
    8.0847  -12.8391   19.7847 C   0  0  0  0  0  0  0  0  0  0  0  0
    8.1457  -11.7429   19.1451 N   0  0  0  0  0  0  0  0  0  0  0  0
    7.3476  -13.9199   19.2501 N   0  0  0  0  0  0  0  0  0  0  0  0
    7.2974  -15.1606   19.9981 C   0  0  0  0  0  0  0  0  0  0  0  0
    8.2449  -15.2138   21.1338 C   0  0  0  0  0  0  0  0  0  0  0  0
    8.3031  -16.5665   21.7620 C   0  0  0  0  0  0  0  0  0  0  0  0
    8.4042  -17.7507   20.8494 C   0  0  2  0  0  0  0  0  0  0  0  0
    7.4928  -18.7539   21.2434 N   0  0  0  0  0  0  0  0  0  0  0  0
    9.8267  -18.1789   20.8869 C   0  0  0  0  0  0  0  0  0  0  0  0
   10.1657  -19.0271   21.7542 O   0  0  0  0  0  0  0  0  0  0  0  0
    7.7038  -11.5305   18.2335 N   0  0  0  0  0  0  0  0  0  0  0  0
   10.8169  -17.6836   20.0005 C   0  0  2  0  0  0  0  0  0  0  0  0
   12.2049  -18.1138   20.0830 C   0  0  0  0  0  0  0  0  0  0  0  0
   12.8376  -17.7492   18.7345 C   0  0  0  0  0  0  0  0  0  0  0  0
   14.2496  -18.3482   18.7646 C   0  0  0  0  0  0  0  0  0  0  0  0
   14.9305  -18.1245   17.4590 O   0  0  0  0  0  0  0  0  0  0  0  0
   15.7554  -18.9927   17.0574 C   0  0  0  0  0  0  0  0  0  0  0  0
   12.9207  -17.5094   21.2029 O   0  0  0  0  0  0  0  0  0  0  0  0
   12.8292  -16.2644   21.3891 O   0  0  0  0  0  0  0  0  0  0  0  0
   14.6285  -16.9847   16.7558 N   0  0  0  0  0  0  0  0  0  0  0  0
   13.6947  -18.3079   22.0533 C   0  0  1  0  0  0  0  0  0  0  0  0
   14.3463  -17.7727   23.2315 C   0  0  0  0  0  0  0  0  0  0  0  0
   14.7019  -18.8478   24.2088 C   0  0  0  0  0  0  0  0  0  0  0  0
   13.5788  -19.5882   24.8304 C   0  0  0  0  0  0  0  0  0  0  0  0
   13.0985  -19.0788   26.1200 O   0  0  0  0  0  0  0  0  0  0  0  0
   13.6976  -18.1238   26.6668 C   0  0  0  0  0  0  0  0  0  0  0  0
   15.4628  -16.8846   22.8458 O   0  0  0  0  0  0  0  0  0  0  0  0
   15.9304  -16.8992   21.6827 O   0  0  0  0  0  0  0  0  0  0  0  0
   11.9942  -19.6075   26.7811 O   0  0  0  0  0  0  0  0  0  0  0  0
  1  2  1  0
  2  3  2  0
  4  2  1  0
  4  5  1  0
  6  5  1  0
  7  6  1  0
  8  9  1  1
  8  7  1  0
 10  8  1  0
 10 12  1  0
 11 10  2  0
 13 12  1  0
 13 18  1  0
 13 14  1  6
 15 14  1  0
 16 17  2  0
 16 15  1  0
 18 19  2  0
 20 16  1  0
 21 18  1  0
 21 22  1  0
 22 27  1  0
 23 24  1  0
 22 23  1  1
 25 24  1  0
 25 29  1  0
 26 25  2  0
 27 28  2  0
 27 30  1  0
M  END
$$$$
