REE.pdb
     RDKit          3D

 30 29  0  0  1  0  0  0  0  0999 V2000
    7.9623  -12.3801   20.8965 N   0  0  0  0  0  0  0  0  0  0  0  0
    7.9539  -12.4947   19.4648 C   0  0  0  0  0  0  0  0  0  0  0  0
    7.5232  -11.5131   18.7825 N   0  0  0  0  0  0  0  0  0  0  0  0
    8.4115  -13.6574   18.8045 N   0  0  0  0  0  0  0  0  0  0  0  0
    8.8285  -14.7903   19.6071 C   0  0  0  0  0  0  0  0  0  0  0  0
    7.7153  -15.4720   20.3046 C   0  0  0  0  0  0  0  0  0  0  0  0
    8.1602  -16.7106   21.0088 C   0  0  0  0  0  0  0  0  0  0  0  0
    8.2973  -17.9603   20.1935 C   0  0  2  0  0  0  0  0  0  0  0  0
    7.0723  -18.2754   19.5672 N   0  0  0  0  0  0  0  0  0  0  0  0
    8.7856  -19.0088   21.1265 C   0  0  0  0  0  0  0  0  0  0  0  0
    7.9554  -19.5270   21.9196 O   0  0  0  0  0  0  0  0  0  0  0  0
    7.3957  -11.4789   17.7559 N   0  0  0  0  0  0  0  0  0  0  0  0
   10.1317  -19.4534   21.1693 C   0  0  2  0  0  0  0  0  0  0  0  0
   10.5864  -20.4305   22.1475 C   0  0  0  0  0  0  0  0  0  0  0  0
   11.3144  -21.5174   21.3472 C   0  0  0  0  0  0  0  0  0  0  0  0
   12.5978  -20.8579   20.8264 C   0  0  0  0  0  0  0  0  0  0  0  0
   13.3928  -21.8364   20.0333 O   0  0  0  0  0  0  0  0  0  0  0  0
   13.2402  -21.8556   18.7796 C   0  0  0  0  0  0  0  0  0  0  0  0
   11.4407  -19.8468   23.1777 O   0  0  0  0  0  0  0  0  0  0  0  0
   11.3490  -20.2706   24.3631 O   0  0  0  0  0  0  0  0  0  0  0  0
   14.2528  -22.6702   20.7041 N   0  0  0  0  0  0  0  0  0  0  0  0
   12.3463  -18.8322   22.8457 C   0  0  2  0  0  0  0  0  0  0  0  0
   12.7026  -17.7817   23.7778 C   0  0  0  0  0  0  0  0  0  0  0  0
   13.0818  -18.3296   25.1169 C   0  0  0  0  0  0  0  0  0  0  0  0
   14.4469  -18.8903   25.2508 C   0  0  0  0  0  0  0  0  0  0  0  0
   14.7498  -19.5697   26.5156 O   0  0  0  0  0  0  0  0  0  0  0  0
   14.5666  -20.8056   26.6103 C   0  0  0  0  0  0  0  0  0  0  0  0
   13.6944  -16.8686   23.1724 O   0  0  0  0  0  0  0  0  0  0  0  0
   14.0884  -15.8450   23.7795 O   0  0  0  0  0  0  0  0  0  0  0  0
   15.2384  -18.9050   27.6362 O   0  0  0  0  0  0  0  0  0  0  0  0
  1  2  1  0
  2  3  2  0
  4  2  1  0
  4  5  1  0
  6  5  1  0
  7  6  1  0
  8  9  1  1
  8  7  1  0
 10  8  1  0
 10 12  1  0
 11 10  2  0
 13 12  1  0
 13 18  1  0
 13 14  1  6
 15 14  1  0
 16 17  2  0
 16 15  1  0
 18 19  2  0
 20 16  1  0
 21 18  1  0
 21 22  1  0
 22 27  1  0
 23 24  1  0
 22 23  1  1
 25 24  1  0
 25 29  1  0
 26 25  2  0
 27 28  2  0
 27 30  1  0
M  END
$$$$
