REE.pdb
     RDKit          3D

 30 29  0  0  1  0  0  0  0  0999 V2000
    6.7554  -12.0101   19.3020 N   0  0  0  0  0  0  0  0  0  0  0  0
    7.3514  -12.9970   18.4454 C   0  0  0  0  0  0  0  0  0  0  0  0
    7.8585  -12.6149   17.3447 N   0  0  0  0  0  0  0  0  0  0  0  0
    7.3906  -14.3657   18.7949 N   0  0  0  0  0  0  0  0  0  0  0  0
    8.0714  -14.7490   20.0160 C   0  0  0  0  0  0  0  0  0  0  0  0
    7.5554  -14.0722   21.2269 C   0  0  0  0  0  0  0  0  0  0  0  0
    7.3248  -15.0229   22.3542 C   0  0  0  0  0  0  0  0  0  0  0  0
    8.5257  -15.6802   22.9633 C   0  0  2  0  0  0  0  0  0  0  0  0
    9.1530  -16.5257   22.0233 N   0  0  0  0  0  0  0  0  0  0  0  0
    8.0379  -16.3843   24.1776 C   0  0  0  0  0  0  0  0  0  0  0  0
    7.5050  -15.6943   25.0867 O   0  0  0  0  0  0  0  0  0  0  0  0
    8.2579  -13.2164   16.6031 N   0  0  0  0  0  0  0  0  0  0  0  0
    8.1414  -17.7865   24.3640 C   0  0  1  0  0  0  0  0  0  0  0  0
    7.7035  -18.4316   25.5931 C   0  0  0  0  0  0  0  0  0  0  0  0
    6.9775  -19.7108   25.1595 C   0  0  0  0  0  0  0  0  0  0  0  0
    6.3302  -19.3814   23.8083 C   0  0  0  0  0  0  0  0  0  0  0  0
    5.6484  -20.5858   23.2579 O   0  0  0  0  0  0  0  0  0  0  0  0
    4.3997  -20.6917   23.4161 C   0  0  0  0  0  0  0  0  0  0  0  0
    8.8046  -18.7129   26.5097 O   0  0  0  0  0  0  0  0  0  0  0  0
    8.5656  -19.3303   27.5843 O   0  0  0  0  0  0  0  0  0  0  0  0
    6.4110  -21.5227   22.6056 N   0  0  0  0  0  0  0  0  0  0  0  0
   10.1042  -18.3004   26.1921 C   0  0  1  0  0  0  0  0  0  0  0  0
   11.2224  -18.5178   27.0874 C   0  0  0  0  0  0  0  0  0  0  0  0
   12.5220  -18.1191   26.4635 C   0  0  0  0  0  0  0  0  0  0  0  0
   12.6833  -18.3921   25.0159 C   0  0  0  0  0  0  0  0  0  0  0  0
   13.9570  -17.9808   24.4146 O   0  0  0  0  0  0  0  0  0  0  0  0
   14.8162  -17.4071   25.1235 C   0  0  0  0  0  0  0  0  0  0  0  0
   10.9516  -17.9127   28.4082 O   0  0  0  0  0  0  0  0  0  0  0  0
    9.9438  -17.1911   28.5962 O   0  0  0  0  0  0  0  0  0  0  0  0
   14.2692  -18.1969   23.0758 O   0  0  0  0  0  0  0  0  0  0  0  0
  1  2  1  0
  2  3  2  0
  4  2  1  0
  4  5  1  0
  6  5  1  0
  7  6  1  0
  8  9  1  6
  8  7  1  0
 10  8  1  0
 10 12  1  0
 11 10  2  0
 13 12  1  0
 13 18  1  0
 13 14  1  1
 15 14  1  0
 16 17  2  0
 16 15  1  0
 18 19  2  0
 20 16  1  0
 21 18  1  0
 21 22  1  0
 22 27  1  0
 23 24  1  0
 22 23  1  1
 25 24  1  0
 25 29  1  0
 26 25  2  0
 27 28  2  0
 27 30  1  0
M  END
$$$$
