REE.pdb
     RDKit          3D

 30 29  0  0  1  0  0  0  0  0999 V2000
   20.3735  -19.9490   16.5247 N   0  0  0  0  0  0  0  0  0  0  0  0
   19.8391  -18.9603   15.6302 C   0  0  0  0  0  0  0  0  0  0  0  0
   20.4114  -17.8274   15.5700 N   0  0  0  0  0  0  0  0  0  0  0  0
   18.7080  -19.2155   14.8223 N   0  0  0  0  0  0  0  0  0  0  0  0
   17.6336  -20.0202   15.3700 C   0  0  0  0  0  0  0  0  0  0  0  0
   16.4350  -19.2397   15.7503 C   0  0  0  0  0  0  0  0  0  0  0  0
   15.3422  -20.1028   16.2874 C   0  0  0  0  0  0  0  0  0  0  0  0
   14.0358  -19.4450   16.6126 C   0  0  2  0  0  0  0  0  0  0  0  0
   13.6798  -18.5307   15.5979 N   0  0  0  0  0  0  0  0  0  0  0  0
   14.2100  -18.8234   17.9512 C   0  0  0  0  0  0  0  0  0  0  0  0
   14.6175  -17.6326   18.0011 O   0  0  0  0  0  0  0  0  0  0  0  0
   20.1182  -17.0131   15.0023 N   0  0  0  0  0  0  0  0  0  0  0  0
   13.9422  -19.4994   19.1689 C   0  0  1  0  0  0  0  0  0  0  0  0
   14.1061  -18.8481   20.4602 C   0  0  0  0  0  0  0  0  0  0  0  0
   12.8441  -19.1857   21.2633 C   0  0  0  0  0  0  0  0  0  0  0  0
   12.3849  -20.5582   20.7546 C   0  0  0  0  0  0  0  0  0  0  0  0
   11.1259  -20.9647   21.4387 O   0  0  0  0  0  0  0  0  0  0  0  0
   10.0474  -20.9223   20.7826 C   0  0  0  0  0  0  0  0  0  0  0  0
   15.3220  -19.2624   21.1544 O   0  0  0  0  0  0  0  0  0  0  0  0
   15.8193  -20.3938   20.8981 O   0  0  0  0  0  0  0  0  0  0  0  0
   11.1993  -21.3656   22.7497 N   0  0  0  0  0  0  0  0  0  0  0  0
   15.9209  -18.4095   22.0891 C   0  0  1  0  0  0  0  0  0  0  0  0
   17.3443  -18.1389   22.0844 C   0  0  0  0  0  0  0  0  0  0  0  0
   17.8336  -17.7505   20.7254 C   0  0  0  0  0  0  0  0  0  0  0  0
   19.2759  -17.4358   20.5957 C   0  0  0  0  0  0  0  0  0  0  0  0
   19.6326  -16.4183   19.6004 O   0  0  0  0  0  0  0  0  0  0  0  0
   18.7753  -15.5761   19.2458 C   0  0  0  0  0  0  0  0  0  0  0  0
   17.6944  -17.1964   23.1676 O   0  0  0  0  0  0  0  0  0  0  0  0
   18.8884  -17.0007   23.4956 O   0  0  0  0  0  0  0  0  0  0  0  0
   20.8936  -16.3356   19.0179 O   0  0  0  0  0  0  0  0  0  0  0  0
  1  2  1  0
  2  3  2  0
  4  2  1  0
  4  5  1  0
  6  5  1  0
  7  6  1  0
  8  9  1  6
  8  7  1  0
 10  8  1  0
 10 12  1  0
 11 10  2  0
 13 12  1  0
 13 18  1  0
 13 14  1  1
 15 14  1  0
 16 17  2  0
 16 15  1  0
 18 19  2  0
 20 16  1  0
 21 18  1  0
 21 22  1  0
 22 27  1  0
 23 24  1  0
 22 23  1  6
 25 24  1  0
 25 29  1  0
 26 25  2  0
 27 28  2  0
 27 30  1  0
M  END
$$$$
