LQS.pdb
     RDKit          3D

 24 23  0  0  1  0  0  0  0  0999 V2000
    9.4554  -12.4142   18.8537 C   0  0  0  0  0  0  0  0  0  0  0  0
    8.2938  -13.2944   19.2641 C   0  0  2  0  0  0  0  0  0  0  0  0
    7.2396  -12.4171   19.8636 C   0  0  0  0  0  0  0  0  0  0  0  0
    8.7252  -14.4287   20.1470 C   0  0  0  0  0  0  0  0  0  0  0  0
    9.7329  -15.2763   19.4394 C   0  0  2  0  0  0  0  0  0  0  0  0
    9.1812  -15.8351   18.2416 N   0  0  0  0  0  0  0  0  0  0  0  0
   10.3344  -16.3090   20.3244 C   0  0  0  0  0  0  0  0  0  0  0  0
    9.7330  -17.4012   20.4890 O   0  0  0  0  0  0  0  0  0  0  0  0
   16.4212  -17.5009   20.8382 N   0  0  0  0  0  0  0  0  0  0  0  0
   15.4086  -17.9089   19.9300 C   0  0  0  0  0  0  0  0  0  0  0  0
   15.7918  -18.4131   18.8473 O   0  0  0  0  0  0  0  0  0  0  0  0
   13.9735  -17.7650   20.2048 C   0  0  0  0  0  0  0  0  0  0  0  0
   13.6411  -17.1132   21.5037 C   0  0  0  0  0  0  0  0  0  0  0  0
   12.1966  -17.0467   21.8661 C   0  0  2  0  0  0  0  0  0  0  0  0
   11.5720  -16.0696   20.9776 N   0  0  0  0  0  0  0  0  0  0  0  0
   12.0584  -16.6334   23.2807 C   0  0  0  0  0  0  0  0  0  0  0  0
   12.5789  -15.6438   23.8136 O   0  0  0  0  0  0  0  0  0  0  0  0
    8.9168  -18.1705   25.3126 O   0  0  0  0  0  0  0  0  0  0  0  0
    9.6183  -17.1259   25.8659 C   0  0  0  0  0  0  0  0  0  0  0  0
   11.1161  -17.2029   25.5455 C   0  0  2  0  0  0  0  0  0  0  0  0
   11.2386  -17.4531   24.1432 N   0  0  0  0  0  0  0  0  0  0  0  0
   11.6748  -18.2717   26.3852 C   0  0  0  0  0  0  0  0  0  0  0  0
   11.7786  -18.1352   27.7534 O   0  0  0  0  0  0  0  0  0  0  0  0
   12.0675  -19.3326   25.8534 O   0  0  0  0  0  0  0  0  0  0  0  0
  2  1  1  1
  3  2  1  0
  4  2  1  0
  4  5  1  0
  5  6  1  6
  7  5  1  0
  7  8  2  0
  9 10  1  0
 10 12  1  0
 11 10  2  0
 12 13  1  0
 14 13  1  6
 14 15  1  0
 15  7  1  0
 16 14  1  0
 17 16  2  0
 18 19  1  0
 20 19  1  1
 20 21  1  0
 21 16  1  0
 22 23  1  0
 22 20  1  0
 24 22  2  0
M  END
$$$$
