LQS.pdb
     RDKit          3D

 24 23  0  0  1  0  0  0  0  0999 V2000
    9.2277  -12.6647   18.1965 C   0  0  0  0  0  0  0  0  0  0  0  0
    7.8744  -13.0974   18.7195 C   0  0  2  0  0  0  0  0  0  0  0  0
    7.1953  -11.8934   19.2937 C   0  0  0  0  0  0  0  0  0  0  0  0
    7.9760  -14.2566   19.6672 C   0  0  0  0  0  0  0  0  0  0  0  0
    8.7145  -15.3848   19.0219 C   0  0  2  0  0  0  0  0  0  0  0  0
    7.9918  -15.8907   17.8935 N   0  0  0  0  0  0  0  0  0  0  0  0
    9.0828  -16.4541   19.9875 C   0  0  0  0  0  0  0  0  0  0  0  0
    8.2760  -17.3958   20.1967 O   0  0  0  0  0  0  0  0  0  0  0  0
   11.9499  -20.5979   20.7908 N   0  0  0  0  0  0  0  0  0  0  0  0
   12.6084  -20.1703   21.9741 C   0  0  0  0  0  0  0  0  0  0  0  0
   13.0937  -21.0668   22.7049 O   0  0  0  0  0  0  0  0  0  0  0  0
   12.7364  -18.7596   22.3606 C   0  0  0  0  0  0  0  0  0  0  0  0
   12.1214  -17.7866   21.4133 C   0  0  0  0  0  0  0  0  0  0  0  0
   10.7056  -17.4022   21.6777 C   0  0  2  0  0  0  0  0  0  0  0  0
   10.3287  -16.4166   20.6672 N   0  0  0  0  0  0  0  0  0  0  0  0
   10.5927  -16.8290   23.0377 C   0  0  0  0  0  0  0  0  0  0  0  0
   11.2760  -15.9098   23.5091 O   0  0  0  0  0  0  0  0  0  0  0  0
    7.3686  -18.1792   25.2959 O   0  0  0  0  0  0  0  0  0  0  0  0
    7.9599  -16.9801   25.6156 C   0  0  0  0  0  0  0  0  0  0  0  0
    9.4565  -16.9676   25.2808 C   0  0  2  0  0  0  0  0  0  0  0  0
    9.5912  -17.3833   23.9195 N   0  0  0  0  0  0  0  0  0  0  0  0
   10.1128  -17.8679   26.2389 C   0  0  0  0  0  0  0  0  0  0  0  0
   10.1502  -17.5836   27.5878 O   0  0  0  0  0  0  0  0  0  0  0  0
   10.6522  -18.9183   25.8288 O   0  0  0  0  0  0  0  0  0  0  0  0
  2  1  1  1
  3  2  1  0
  4  2  1  0
  4  5  1  0
  5  6  1  6
  7  5  1  0
  7  8  2  0
  9 10  1  0
 10 12  1  0
 11 10  2  0
 12 13  1  0
 14 13  1  6
 14 15  1  0
 15  7  1  0
 16 14  1  0
 17 16  2  0
 18 19  1  0
 20 19  1  1
 20 21  1  0
 21 16  1  0
 22 23  1  0
 22 20  1  0
 24 22  2  0
M  END
$$$$
