LQS.pdb
     RDKit          3D

 24 23  0  0  1  0  0  0  0  0999 V2000
    8.2465  -12.6751   17.8168 C   0  0  0  0  0  0  0  0  0  0  0  0
    7.4440  -13.3966   18.8788 C   0  0  2  0  0  0  0  0  0  0  0  0
    6.7435  -12.3657   19.7076 C   0  0  0  0  0  0  0  0  0  0  0  0
    8.2835  -14.3558   19.6709 C   0  0  0  0  0  0  0  0  0  0  0  0
    8.9125  -15.3611   18.7607 C   0  0  2  0  0  0  0  0  0  0  0  0
    7.9185  -16.1949   18.1539 N   0  0  0  0  0  0  0  0  0  0  0  0
    9.9834  -16.1470   19.4292 C   0  0  0  0  0  0  0  0  0  0  0  0
    9.6973  -17.2571   19.9464 O   0  0  0  0  0  0  0  0  0  0  0  0
   16.2745  -15.1913   18.3912 N   0  0  0  0  0  0  0  0  0  0  0  0
   15.2272  -14.2548   18.5983 C   0  0  0  0  0  0  0  0  0  0  0  0
   15.4066  -13.0988   18.1458 O   0  0  0  0  0  0  0  0  0  0  0  0
   13.9808  -14.5817   19.3022 C   0  0  0  0  0  0  0  0  0  0  0  0
   13.6567  -16.0352   19.3712 C   0  0  0  0  0  0  0  0  0  0  0  0
   12.4078  -16.4063   20.0956 C   0  0  2  0  0  0  0  0  0  0  0  0
   11.3137  -15.6545   19.4854 N   0  0  0  0  0  0  0  0  0  0  0  0
   12.5449  -16.0631   21.5290 C   0  0  0  0  0  0  0  0  0  0  0  0
   13.5934  -15.7701   22.1196 O   0  0  0  0  0  0  0  0  0  0  0  0
    8.9684  -15.8640   23.8068 O   0  0  0  0  0  0  0  0  0  0  0  0
   10.0917  -15.1503   24.1508 C   0  0  0  0  0  0  0  0  0  0  0  0
   11.3818  -15.8789   23.7549 C   0  0  2  0  0  0  0  0  0  0  0  0
   11.3475  -16.0645   22.3377 N   0  0  0  0  0  0  0  0  0  0  0  0
   11.4077  -17.1374   24.5131 C   0  0  0  0  0  0  0  0  0  0  0  0
   11.5299  -17.1505   25.8865 O   0  0  0  0  0  0  0  0  0  0  0  0
   11.3173  -18.2258   23.9051 O   0  0  0  0  0  0  0  0  0  0  0  0
  2  1  1  6
  3  2  1  0
  4  2  1  0
  4  5  1  0
  5  6  1  1
  7  5  1  0
  7  8  2  0
  9 10  1  0
 10 12  1  0
 11 10  2  0
 12 13  1  0
 14 13  1  6
 14 15  1  0
 15  7  1  0
 16 14  1  0
 17 16  2  0
 18 19  1  0
 20 19  1  1
 20 21  1  0
 21 16  1  0
 22 23  1  0
 22 20  1  0
 24 22  2  0
M  END
$$$$
