LQS.pdb
     RDKit          3D

 24 23  0  0  1  0  0  0  0  0999 V2000
    9.4124  -13.8131   19.3583 C   0  0  0  0  0  0  0  0  0  0  0  0
    7.9463  -13.6286   19.6883 C   0  0  2  0  0  0  0  0  0  0  0  0
    7.6181  -12.1764   19.5344 C   0  0  0  0  0  0  0  0  0  0  0  0
    7.5898  -14.2010   21.0291 C   0  0  0  0  0  0  0  0  0  0  0  0
    8.0650  -15.6149   21.1271 C   0  0  2  0  0  0  0  0  0  0  0  0
    7.1555  -16.5073   20.4730 N   0  0  0  0  0  0  0  0  0  0  0  0
    8.3565  -16.0248   22.5266 C   0  0  0  0  0  0  0  0  0  0  0  0
    7.4058  -16.1440   23.3412 O   0  0  0  0  0  0  0  0  0  0  0  0
   11.4652  -20.4513   24.9286 N   0  0  0  0  0  0  0  0  0  0  0  0
   11.5151  -19.4148   25.8981 C   0  0  0  0  0  0  0  0  0  0  0  0
   11.3320  -19.7507   27.0927 O   0  0  0  0  0  0  0  0  0  0  0  0
   11.7647  -18.0076   25.5618 C   0  0  0  0  0  0  0  0  0  0  0  0
   11.1998  -17.5600   24.2568 C   0  0  0  0  0  0  0  0  0  0  0  0
   10.0324  -16.6349   24.3176 C   0  0  2  0  0  0  0  0  0  0  0  0
    9.6897  -16.2794   22.9426 N   0  0  0  0  0  0  0  0  0  0  0  0
   10.3946  -15.4295   25.0966 C   0  0  0  0  0  0  0  0  0  0  0  0
   11.3111  -14.6359   24.8429 O   0  0  0  0  0  0  0  0  0  0  0  0
    7.5948  -13.7390   27.6206 O   0  0  0  0  0  0  0  0  0  0  0  0
    8.7387  -13.1079   27.1930 C   0  0  0  0  0  0  0  0  0  0  0  0
    9.9428  -14.0571   27.1591 C   0  0  2  0  0  0  0  0  0  0  0  0
    9.6131  -15.1309   26.2746 N   0  0  0  0  0  0  0  0  0  0  0  0
   10.1827  -14.4872   28.5436 C   0  0  0  0  0  0  0  0  0  0  0  0
   10.5415  -13.5893   29.5267 O   0  0  0  0  0  0  0  0  0  0  0  0
   10.0604  -15.6942   28.8446 O   0  0  0  0  0  0  0  0  0  0  0  0
  2  1  1  1
  3  2  1  0
  4  2  1  0
  4  5  1  0
  5  6  1  1
  7  5  1  0
  7  8  2  0
  9 10  1  0
 10 12  1  0
 11 10  2  0
 12 13  1  0
 14 13  1  6
 14 15  1  0
 15  7  1  0
 16 14  1  0
 17 16  2  0
 18 19  1  0
 20 19  1  1
 20 21  1  0
 21 16  1  0
 22 23  1  0
 22 20  1  0
 24 22  2  0
M  END
$$$$
