LQS.pdb
     RDKit          3D

 24 23  0  0  1  0  0  0  0  0999 V2000
    9.6268  -13.6001   18.7803 C   0  0  0  0  0  0  0  0  0  0  0  0
    8.1209  -13.6445   18.9304 C   0  0  2  0  0  0  0  0  0  0  0  0
    7.5882  -12.2755   18.6434 C   0  0  0  0  0  0  0  0  0  0  0  0
    7.6987  -14.2029   20.2578 C   0  0  0  0  0  0  0  0  0  0  0  0
    8.3338  -15.5380   20.4792 C   0  0  2  0  0  0  0  0  0  0  0  0
    7.7371  -16.5341   19.6407 N   0  0  0  0  0  0  0  0  0  0  0  0
    8.3471  -15.9346   21.9124 C   0  0  0  0  0  0  0  0  0  0  0  0
    7.2654  -16.2478   22.4720 O   0  0  0  0  0  0  0  0  0  0  0  0
   12.7870  -18.7404   27.1425 N   0  0  0  0  0  0  0  0  0  0  0  0
   12.1753  -18.4842   25.8867 C   0  0  0  0  0  0  0  0  0  0  0  0
   12.6367  -19.1028   24.8979 O   0  0  0  0  0  0  0  0  0  0  0  0
   11.0573  -17.5489   25.7104 C   0  0  0  0  0  0  0  0  0  0  0  0
   10.7966  -17.1340   24.3025 C   0  0  0  0  0  0  0  0  0  0  0  0
    9.6170  -16.2514   24.0748 C   0  0  2  0  0  0  0  0  0  0  0  0
    9.5635  -15.9608   22.6440 N   0  0  0  0  0  0  0  0  0  0  0  0
    9.7714  -15.0049   24.8581 C   0  0  0  0  0  0  0  0  0  0  0  0
   10.5831  -14.0946   24.6421 O   0  0  0  0  0  0  0  0  0  0  0  0
    6.6513  -13.8016   27.0654 O   0  0  0  0  0  0  0  0  0  0  0  0
    7.7299  -12.9582   26.9426 C   0  0  0  0  0  0  0  0  0  0  0  0
    9.0588  -13.7229   26.9051 C   0  0  2  0  0  0  0  0  0  0  0  0
    8.8974  -14.8114   25.9922 N   0  0  0  0  0  0  0  0  0  0  0  0
    9.3427  -14.1473   28.2830 C   0  0  0  0  0  0  0  0  0  0  0  0
    9.5338  -13.2312   29.2957 O   0  0  0  0  0  0  0  0  0  0  0  0
    9.4142  -15.3662   28.5508 O   0  0  0  0  0  0  0  0  0  0  0  0
  2  1  1  1
  3  2  1  0
  4  2  1  0
  4  5  1  0
  5  6  1  6
  7  5  1  0
  7  8  2  0
  9 10  1  0
 10 12  1  0
 11 10  2  0
 12 13  1  0
 14 13  1  6
 14 15  1  0
 15  7  1  0
 16 14  1  0
 17 16  2  0
 18 19  1  0
 20 19  1  1
 20 21  1  0
 21 16  1  0
 22 23  1  0
 22 20  1  0
 24 22  2  0
M  END
$$$$
