LQS.pdb
     RDKit          3D

 24 23  0  0  1  0  0  0  0  0999 V2000
    9.1251  -12.2934   19.5228 C   0  0  0  0  0  0  0  0  0  0  0  0
    8.2019  -13.4341   19.1503 C   0  0  2  0  0  0  0  0  0  0  0  0
    6.9707  -12.8483   18.5327 C   0  0  0  0  0  0  0  0  0  0  0  0
    7.9330  -14.3486   20.3095 C   0  0  0  0  0  0  0  0  0  0  0  0
    9.1574  -14.4775   21.1573 C   0  0  2  0  0  0  0  0  0  0  0  0
   10.3429  -14.4306   20.3549 N   0  0  0  0  0  0  0  0  0  0  0  0
    9.1169  -15.6713   22.0431 C   0  0  0  0  0  0  0  0  0  0  0  0
    8.0407  -15.9697   22.6211 O   0  0  0  0  0  0  0  0  0  0  0  0
   11.6032  -21.4069   21.7184 N   0  0  0  0  0  0  0  0  0  0  0  0
   12.3369  -20.7464   22.7393 C   0  0  0  0  0  0  0  0  0  0  0  0
   13.5119  -21.1399   22.9340 O   0  0  0  0  0  0  0  0  0  0  0  0
   11.7853  -19.6539   23.5504 C   0  0  0  0  0  0  0  0  0  0  0  0
   11.5736  -18.3707   22.8218 C   0  0  0  0  0  0  0  0  0  0  0  0
   10.2735  -17.6790   23.0533 C   0  0  2  0  0  0  0  0  0  0  0  0
   10.2763  -16.4674   22.2369 N   0  0  0  0  0  0  0  0  0  0  0  0
   10.1382  -17.3443   24.4888 C   0  0  0  0  0  0  0  0  0  0  0  0
   10.9193  -16.6586   25.1625 O   0  0  0  0  0  0  0  0  0  0  0  0
    7.0029  -19.2749   26.4470 O   0  0  0  0  0  0  0  0  0  0  0  0
    7.3491  -18.0323   26.9221 C   0  0  0  0  0  0  0  0  0  0  0  0
    8.8056  -17.6765   26.5996 C   0  0  2  0  0  0  0  0  0  0  0  0
    8.9865  -17.8593   25.1932 N   0  0  0  0  0  0  0  0  0  0  0  0
    9.6487  -18.5563   27.4209 C   0  0  0  0  0  0  0  0  0  0  0  0
    9.6701  -18.4578   28.7962 O   0  0  0  0  0  0  0  0  0  0  0  0
   10.3663  -19.4167   26.8665 O   0  0  0  0  0  0  0  0  0  0  0  0
  2  1  1  1
  3  2  1  0
  4  2  1  0
  4  5  1  0
  5  6  1  6
  7  5  1  0
  7  8  2  0
  9 10  1  0
 10 12  1  0
 11 10  2  0
 12 13  1  0
 14 13  1  1
 14 15  1  0
 15  7  1  0
 16 14  1  0
 17 16  2  0
 18 19  1  0
 20 19  1  6
 20 21  1  0
 21 16  1  0
 22 23  1  0
 22 20  1  0
 24 22  2  0
M  END
$$$$
