LQS.pdb
     RDKit          3D

 24 23  0  0  1  0  0  0  0  0999 V2000
    8.3314  -13.0696   19.0509 C   0  0  0  0  0  0  0  0  0  0  0  0
    7.6804  -13.4756   20.3562 C   0  0  2  0  0  0  0  0  0  0  0  0
    7.5201  -12.2455   21.1938 C   0  0  0  0  0  0  0  0  0  0  0  0
    8.4191  -14.5909   21.0363 C   0  0  0  0  0  0  0  0  0  0  0  0
    8.4794  -15.7876   20.1425 C   0  0  2  0  0  0  0  0  0  0  0  0
    7.1637  -16.2301   19.7900 N   0  0  0  0  0  0  0  0  0  0  0  0
    9.3154  -16.8809   20.7059 C   0  0  0  0  0  0  0  0  0  0  0  0
    8.8042  -17.6807   21.5308 O   0  0  0  0  0  0  0  0  0  0  0  0
   15.1463  -18.3301   18.4349 N   0  0  0  0  0  0  0  0  0  0  0  0
   14.9887  -19.1495   19.5841 C   0  0  0  0  0  0  0  0  0  0  0  0
   15.9192  -19.9518   19.8367 O   0  0  0  0  0  0  0  0  0  0  0  0
   13.8111  -19.0931   20.4591 C   0  0  0  0  0  0  0  0  0  0  0  0
   12.8016  -18.0585   20.0942 C   0  0  0  0  0  0  0  0  0  0  0  0
   11.5667  -18.0084   20.9277 C   0  0  2  0  0  0  0  0  0  0  0  0
   10.6742  -17.0239   20.3203 N   0  0  0  0  0  0  0  0  0  0  0  0
   11.9174  -17.6158   22.3111 C   0  0  0  0  0  0  0  0  0  0  0  0
   12.5243  -16.5925   22.6554 O   0  0  0  0  0  0  0  0  0  0  0  0
   10.4064  -20.1198   25.1963 O   0  0  0  0  0  0  0  0  0  0  0  0
   10.7748  -18.8652   25.6203 C   0  0  0  0  0  0  0  0  0  0  0  0
   11.8800  -18.2618   24.7448 C   0  0  2  0  0  0  0  0  0  0  0  0
   11.5211  -18.5015   23.3817 N   0  0  0  0  0  0  0  0  0  0  0  0
   13.1378  -18.9077   25.1447 C   0  0  0  0  0  0  0  0  0  0  0  0
   13.6742  -18.7272   26.4022 O   0  0  0  0  0  0  0  0  0  0  0  0
   13.7415  -19.6397   24.3309 O   0  0  0  0  0  0  0  0  0  0  0  0
  2  1  1  6
  3  2  1  0
  4  2  1  0
  4  5  1  0
  5  6  1  1
  7  5  1  0
  7  8  2  0
  9 10  1  0
 10 12  1  0
 11 10  2  0
 12 13  1  0
 14 13  1  6
 14 15  1  0
 15  7  1  0
 16 14  1  0
 17 16  2  0
 18 19  1  0
 20 19  1  1
 20 21  1  0
 21 16  1  0
 22 23  1  0
 22 20  1  0
 24 22  2  0
M  END
$$$$
