LQS.pdb
     RDKit          3D

 24 23  0  0  1  0  0  0  0  0999 V2000
    9.1725  -13.2742   18.4676 C   0  0  0  0  0  0  0  0  0  0  0  0
    7.8870  -13.3299   19.2655 C   0  0  2  0  0  0  0  0  0  0  0  0
    7.5009  -11.9271   19.6168 C   0  0  0  0  0  0  0  0  0  0  0  0
    7.9900  -14.2529   20.4444 C   0  0  0  0  0  0  0  0  0  0  0  0
    8.3640  -15.6271   19.9901 C   0  0  2  0  0  0  0  0  0  0  0  0
    7.3761  -16.1584   19.0996 N   0  0  0  0  0  0  0  0  0  0  0  0
    8.6601  -16.5434   21.1233 C   0  0  0  0  0  0  0  0  0  0  0  0
    7.7091  -17.1205   21.7098 O   0  0  0  0  0  0  0  0  0  0  0  0
   14.5481  -18.8081   22.2218 N   0  0  0  0  0  0  0  0  0  0  0  0
   13.7863  -19.2428   23.3387 C   0  0  0  0  0  0  0  0  0  0  0  0
   14.3867  -19.9334   24.1966 O   0  0  0  0  0  0  0  0  0  0  0  0
   12.3646  -18.9231   23.5186 C   0  0  0  0  0  0  0  0  0  0  0  0
   11.7881  -18.0076   22.4929 C   0  0  0  0  0  0  0  0  0  0  0  0
   10.3418  -17.6748   22.6335 C   0  0  2  0  0  0  0  0  0  0  0  0
    9.9983  -16.7672   21.5414 N   0  0  0  0  0  0  0  0  0  0  0  0
   10.1061  -17.0305   23.9451 C   0  0  0  0  0  0  0  0  0  0  0  0
   10.5410  -15.9313   24.3150 O   0  0  0  0  0  0  0  0  0  0  0  0
    6.7725  -17.8782   25.9509 O   0  0  0  0  0  0  0  0  0  0  0  0
    7.6112  -16.8704   26.3638 C   0  0  0  0  0  0  0  0  0  0  0  0
    9.0888  -17.2613   26.2372 C   0  0  2  0  0  0  0  0  0  0  0  0
    9.2897  -17.7383   24.9044 N   0  0  0  0  0  0  0  0  0  0  0  0
    9.3497  -18.2733   27.2702 C   0  0  0  0  0  0  0  0  0  0  0  0
    9.2234  -17.9839   28.6125 O   0  0  0  0  0  0  0  0  0  0  0  0
    9.6948  -19.4259   26.9315 O   0  0  0  0  0  0  0  0  0  0  0  0
  2  1  1  1
  3  2  1  0
  4  2  1  0
  4  5  1  0
  5  6  1  1
  7  5  1  0
  7  8  2  0
  9 10  1  0
 10 12  1  0
 11 10  2  0
 12 13  1  0
 14 13  1  6
 14 15  1  0
 15  7  1  0
 16 14  1  0
 17 16  2  0
 18 19  1  0
 20 19  1  6
 20 21  1  0
 21 16  1  0
 22 23  1  0
 22 20  1  0
 24 22  2  0
M  END
$$$$
