LQS.pdb
     RDKit          3D

 24 23  0  0  1  0  0  0  0  0999 V2000
    8.6183  -11.9900   20.0990 C   0  0  0  0  0  0  0  0  0  0  0  0
    8.1815  -13.1435   19.2209 C   0  0  2  0  0  0  0  0  0  0  0  0
    6.6932  -13.0761   19.0772 C   0  0  0  0  0  0  0  0  0  0  0  0
    8.6918  -14.4631   19.7215 C   0  0  0  0  0  0  0  0  0  0  0  0
   10.1223  -14.3368   20.1369 C   0  0  2  0  0  0  0  0  0  0  0  0
   10.9183  -13.7992   19.0746 N   0  0  0  0  0  0  0  0  0  0  0  0
   10.6759  -15.6075   20.6756 C   0  0  0  0  0  0  0  0  0  0  0  0
    9.9373  -16.3532   21.3685 O   0  0  0  0  0  0  0  0  0  0  0  0
   14.5857  -14.2948   18.3962 N   0  0  0  0  0  0  0  0  0  0  0  0
   14.9664  -15.5857   18.8495 C   0  0  0  0  0  0  0  0  0  0  0  0
   15.4992  -16.3454   18.0056 O   0  0  0  0  0  0  0  0  0  0  0  0
   14.7638  -16.0482   20.2282 C   0  0  0  0  0  0  0  0  0  0  0  0
   13.9866  -17.3133   20.3625 C   0  0  0  0  0  0  0  0  0  0  0  0
   12.6213  -17.1980   20.9497 C   0  0  2  0  0  0  0  0  0  0  0  0
   12.0210  -15.9786   20.4137 N   0  0  0  0  0  0  0  0  0  0  0  0
   12.7198  -17.1297   22.4251 C   0  0  0  0  0  0  0  0  0  0  0  0
   13.3877  -16.3198   23.0824 O   0  0  0  0  0  0  0  0  0  0  0  0
    9.7418  -18.8644   24.5562 O   0  0  0  0  0  0  0  0  0  0  0  0
   10.6296  -18.0121   25.1685 C   0  0  0  0  0  0  0  0  0  0  0  0
   12.0529  -18.1698   24.6194 C   0  0  2  0  0  0  0  0  0  0  0  0
   11.9694  -18.0958   23.1940 N   0  0  0  0  0  0  0  0  0  0  0  0
   12.5575  -19.4585   25.1134 C   0  0  0  0  0  0  0  0  0  0  0  0
   12.7804  -19.6797   26.4561 O   0  0  0  0  0  0  0  0  0  0  0  0
   12.7925  -20.3807   24.3030 O   0  0  0  0  0  0  0  0  0  0  0  0
  2  1  1  1
  3  2  1  0
  4  2  1  0
  4  5  1  0
  5  6  1  6
  7  5  1  0
  7  8  2  0
  9 10  1  0
 10 12  1  0
 11 10  2  0
 12 13  1  0
 14 13  1  6
 14 15  1  0
 15  7  1  0
 16 14  1  0
 17 16  2  0
 18 19  1  0
 20 19  1  1
 20 21  1  0
 21 16  1  0
 22 23  1  0
 22 20  1  0
 24 22  2  0
M  END
$$$$
