LQS.pdb
     RDKit          3D

 24 23  0  0  1  0  0  0  0  0999 V2000
    9.2736  -12.9276   19.0505 C   0  0  0  0  0  0  0  0  0  0  0  0
    7.9188  -13.3310   19.5927 C   0  0  2  0  0  0  0  0  0  0  0  0
    7.2183  -12.0910   20.0531 C   0  0  0  0  0  0  0  0  0  0  0  0
    8.0218  -14.4032   20.6378 C   0  0  0  0  0  0  0  0  0  0  0  0
    8.7437  -15.5905   20.0867 C   0  0  2  0  0  0  0  0  0  0  0  0
    8.0129  -16.1764   19.0032 N   0  0  0  0  0  0  0  0  0  0  0  0
    9.0979  -16.5826   21.1362 C   0  0  0  0  0  0  0  0  0  0  0  0
    8.2220  -17.3919   21.5356 O   0  0  0  0  0  0  0  0  0  0  0  0
   14.9670  -19.6251   22.6254 N   0  0  0  0  0  0  0  0  0  0  0  0
   14.3531  -18.7597   23.5692 C   0  0  0  0  0  0  0  0  0  0  0  0
   15.1191  -18.1133   24.3234 O   0  0  0  0  0  0  0  0  0  0  0  0
   12.8985  -18.6005   23.6903 C   0  0  0  0  0  0  0  0  0  0  0  0
   12.2772  -17.6880   22.6885 C   0  0  0  0  0  0  0  0  0  0  0  0
   10.7937  -17.5507   22.7413 C   0  0  2  0  0  0  0  0  0  0  0  0
   10.4073  -16.6197   21.6838 N   0  0  0  0  0  0  0  0  0  0  0  0
   10.3901  -17.0342   24.0685 C   0  0  0  0  0  0  0  0  0  0  0  0
   10.7361  -15.9592   24.5773 O   0  0  0  0  0  0  0  0  0  0  0  0
    7.3171  -19.0783   25.8805 O   0  0  0  0  0  0  0  0  0  0  0  0
    7.6020  -17.8033   26.3082 C   0  0  0  0  0  0  0  0  0  0  0  0
    9.0943  -17.4727   26.1827 C   0  0  2  0  0  0  0  0  0  0  0  0
    9.5043  -17.8507   24.8662 N   0  0  0  0  0  0  0  0  0  0  0  0
    9.7835  -18.2125   27.2490 C   0  0  0  0  0  0  0  0  0  0  0  0
    9.5189  -17.9731   28.5810 O   0  0  0  0  0  0  0  0  0  0  0  0
   10.6311  -19.0808   26.9490 O   0  0  0  0  0  0  0  0  0  0  0  0
  2  1  1  1
  3  2  1  0
  4  2  1  0
  4  5  1  0
  5  6  1  6
  7  5  1  0
  7  8  2  0
  9 10  1  0
 10 12  1  0
 11 10  2  0
 12 13  1  0
 14 13  1  1
 14 15  1  0
 15  7  1  0
 16 14  1  0
 17 16  2  0
 18 19  1  0
 20 19  1  6
 20 21  1  0
 21 16  1  0
 22 23  1  0
 22 20  1  0
 24 22  2  0
M  END
$$$$
