LQS.pdb
     RDKit          3D

 24 23  0  0  1  0  0  0  0  0999 V2000
    8.7085  -12.8596   18.2713 C   0  0  0  0  0  0  0  0  0  0  0  0
    7.6680  -13.3745   19.2432 C   0  0  2  0  0  0  0  0  0  0  0  0
    7.0723  -12.1961   19.9481 C   0  0  0  0  0  0  0  0  0  0  0  0
    8.2195  -14.4259   20.1611 C   0  0  0  0  0  0  0  0  0  0  0  0
    8.7048  -15.5968   19.3685 C   0  0  2  0  0  0  0  0  0  0  0  0
    7.6361  -16.1857   18.6186 N   0  0  0  0  0  0  0  0  0  0  0  0
    9.4297  -16.5916   20.2030 C   0  0  0  0  0  0  0  0  0  0  0  0
    8.7701  -17.3993   20.9059 O   0  0  0  0  0  0  0  0  0  0  0  0
   16.4381  -18.9725   21.2699 N   0  0  0  0  0  0  0  0  0  0  0  0
   15.2435  -18.7007   20.5517 C   0  0  0  0  0  0  0  0  0  0  0  0
   15.3468  -18.5898   19.3065 O   0  0  0  0  0  0  0  0  0  0  0  0
   13.9326  -18.5486   21.1954 C   0  0  0  0  0  0  0  0  0  0  0  0
   12.9571  -17.7028   20.4501 C   0  0  0  0  0  0  0  0  0  0  0  0
   11.6073  -17.5443   21.0628 C   0  0  2  0  0  0  0  0  0  0  0  0
   10.8488  -16.6329   20.2093 N   0  0  0  0  0  0  0  0  0  0  0  0
   11.7445  -16.9918   22.4292 C   0  0  0  0  0  0  0  0  0  0  0  0
   12.1972  -15.8796   22.7324 O   0  0  0  0  0  0  0  0  0  0  0  0
    9.1990  -18.0230   25.2045 O   0  0  0  0  0  0  0  0  0  0  0  0
   10.1523  -17.0728   25.4834 C   0  0  0  0  0  0  0  0  0  0  0  0
   11.5212  -17.4397   24.8973 C   0  0  2  0  0  0  0  0  0  0  0  0
   11.3127  -17.8169   23.5340 N   0  0  0  0  0  0  0  0  0  0  0  0
   12.0634  -18.5214   25.7311 C   0  0  0  0  0  0  0  0  0  0  0  0
   12.3983  -18.3155   27.0528 O   0  0  0  0  0  0  0  0  0  0  0  0
   12.2276  -19.6579   25.2372 O   0  0  0  0  0  0  0  0  0  0  0  0
  2  1  1  6
  3  2  1  0
  4  2  1  0
  4  5  1  0
  5  6  1  1
  7  5  1  0
  7  8  2  0
  9 10  1  0
 10 12  1  0
 11 10  2  0
 12 13  1  0
 14 13  1  6
 14 15  1  0
 15  7  1  0
 16 14  1  0
 17 16  2  0
 18 19  1  0
 20 19  1  1
 20 21  1  0
 21 16  1  0
 22 23  1  0
 22 20  1  0
 24 22  2  0
M  END
$$$$
