LQS.pdb
     RDKit          3D

 24 23  0  0  1  0  0  0  0  0999 V2000
    7.3944  -12.3017   21.0022 C   0  0  0  0  0  0  0  0  0  0  0  0
    8.3618  -13.3968   20.6058 C   0  0  2  0  0  0  0  0  0  0  0  0
    9.1759  -12.8982   19.4531 C   0  0  0  0  0  0  0  0  0  0  0  0
    7.6674  -14.7023   20.3492 C   0  0  0  0  0  0  0  0  0  0  0  0
    8.6131  -15.8392   20.5675 C   0  0  2  0  0  0  0  0  0  0  0  0
    8.4089  -16.8693   19.5937 N   0  0  0  0  0  0  0  0  0  0  0  0
    8.5728  -16.3574   21.9608 C   0  0  0  0  0  0  0  0  0  0  0  0
    8.8132  -15.5730   22.9140 O   0  0  0  0  0  0  0  0  0  0  0  0
    5.9111  -21.5414   24.7184 N   0  0  0  0  0  0  0  0  0  0  0  0
    5.5054  -20.8561   23.5425 C   0  0  0  0  0  0  0  0  0  0  0  0
    4.3471  -21.0924   23.1233 O   0  0  0  0  0  0  0  0  0  0  0  0
    6.3676  -19.9110   22.8221 C   0  0  0  0  0  0  0  0  0  0  0  0
    7.7047  -19.6787   23.4392 C   0  0  0  0  0  0  0  0  0  0  0  0
    8.1419  -18.2594   23.5688 C   0  0  2  0  0  0  0  0  0  0  0  0
    8.2672  -17.7200   22.2168 N   0  0  0  0  0  0  0  0  0  0  0  0
    9.4395  -18.2028   24.2787 C   0  0  0  0  0  0  0  0  0  0  0  0
   10.5641  -18.2884   23.7668 O   0  0  0  0  0  0  0  0  0  0  0  0
    9.6495  -16.3402   27.8591 O   0  0  0  0  0  0  0  0  0  0  0  0
   10.7794  -16.7416   27.1871 C   0  0  0  0  0  0  0  0  0  0  0  0
   10.5957  -18.1073   26.5139 C   0  0  2  0  0  0  0  0  0  0  0  0
    9.4136  -18.0310   25.7131 N   0  0  0  0  0  0  0  0  0  0  0  0
   10.5137  -19.1034   27.5911 C   0  0  0  0  0  0  0  0  0  0  0  0
   11.5787  -19.3458   28.4328 O   0  0  0  0  0  0  0  0  0  0  0  0
    9.4566  -19.7502   27.7542 O   0  0  0  0  0  0  0  0  0  0  0  0
  2  1  1  6
  3  2  1  0
  4  2  1  0
  4  5  1  0
  5  6  1  6
  7  5  1  0
  7  8  2  0
  9 10  1  0
 10 12  1  0
 11 10  2  0
 12 13  1  0
 14 13  1  6
 14 15  1  0
 15  7  1  0
 16 14  1  0
 17 16  2  0
 18 19  1  0
 20 19  1  1
 20 21  1  0
 21 16  1  0
 22 23  1  0
 22 20  1  0
 24 22  2  0
M  END
$$$$
