LQS.pdb
     RDKit          3D

 24 23  0  0  1  0  0  0  0  0999 V2000
    8.5213  -12.8791   19.3957 C   0  0  0  0  0  0  0  0  0  0  0  0
    7.5151  -13.7787   20.0818 C   0  0  2  0  0  0  0  0  0  0  0  0
    6.5124  -12.9075   20.7716 C   0  0  0  0  0  0  0  0  0  0  0  0
    8.1731  -14.7873   20.9774 C   0  0  0  0  0  0  0  0  0  0  0  0
    9.1284  -15.6266   20.1917 C   0  0  2  0  0  0  0  0  0  0  0  0
    8.4432  -16.3658   19.1741 N   0  0  0  0  0  0  0  0  0  0  0  0
    9.9712  -16.4952   21.0558 C   0  0  0  0  0  0  0  0  0  0  0  0
    9.5346  -17.6220   21.4042 O   0  0  0  0  0  0  0  0  0  0  0  0
   15.9516  -17.3053   21.4563 N   0  0  0  0  0  0  0  0  0  0  0  0
   15.3694  -17.6334   22.7094 C   0  0  0  0  0  0  0  0  0  0  0  0
   15.7104  -18.7268   23.2207 O   0  0  0  0  0  0  0  0  0  0  0  0
   14.4115  -16.7653   23.4053 C   0  0  0  0  0  0  0  0  0  0  0  0
   13.3860  -16.1274   22.5312 C   0  0  0  0  0  0  0  0  0  0  0  0
   12.0871  -16.8457   22.3935 C   0  0  2  0  0  0  0  0  0  0  0  0
   11.2534  -16.0622   21.4848 N   0  0  0  0  0  0  0  0  0  0  0  0
   11.4445  -16.9681   23.7213 C   0  0  0  0  0  0  0  0  0  0  0  0
   11.0504  -16.0379   24.4379 O   0  0  0  0  0  0  0  0  0  0  0  0
   10.4949  -20.8171   24.8628 O   0  0  0  0  0  0  0  0  0  0  0  0
    9.8834  -19.7825   25.5301 C   0  0  0  0  0  0  0  0  0  0  0  0
   10.7628  -18.5270   25.5778 C   0  0  2  0  0  0  0  0  0  0  0  0
   11.2482  -18.2972   24.2528 N   0  0  0  0  0  0  0  0  0  0  0  0
   11.8263  -18.7912   26.5568 C   0  0  0  0  0  0  0  0  0  0  0  0
   11.5395  -19.0735   27.8758 O   0  0  0  0  0  0  0  0  0  0  0  0
   13.0216  -18.7610   26.1926 O   0  0  0  0  0  0  0  0  0  0  0  0
  2  1  1  1
  3  2  1  0
  4  2  1  0
  4  5  1  0
  5  6  1  6
  7  5  1  0
  7  8  2  0
  9 10  1  0
 10 12  1  0
 11 10  2  0
 12 13  1  0
 14 13  1  1
 14 15  1  0
 15  7  1  0
 16 14  1  0
 17 16  2  0
 18 19  1  0
 20 19  1  6
 20 21  1  0
 21 16  1  0
 22 23  1  0
 22 20  1  0
 24 22  2  0
M  END
$$$$
