EPA.pdb
     RDKit          3D

 22 22  0  0  1  0  0  0  0  0999 V2000
    7.8433  -13.9414   21.0427 N   0  0  0  0  0  0  0  0  0  0  0  0
    7.2953  -14.4451   22.2793 C   0  0  1  0  0  0  0  0  0  0  0  0
    7.1187  -15.9297   22.1544 C   0  0  0  0  0  0  0  0  0  0  0  0
    6.6425  -16.6142   23.3963 C   0  0  0  0  0  0  0  0  0  0  0  0
    6.5101  -18.0627   23.2691 C   0  0  0  0  0  0  0  0  0  0  0  0
    5.4100  -18.6266   23.2478 O   0  0  0  0  0  0  0  0  0  0  0  0
    8.2367  -14.2142   23.4333 C   0  0  0  0  0  0  0  0  0  0  0  0
    9.4501  -14.4095   23.1927 O   0  0  0  0  0  0  0  0  0  0  0  0
    7.6505  -18.8424   23.1682 O   0  0  0  0  0  0  0  0  0  0  0  0
    7.8355  -13.8075   24.7134 N   0  0  0  0  0  0  0  0  0  0  0  0
    6.4815  -13.6054   25.1605 C   0  0  0  0  0  0  0  0  0  0  0  0
    6.5798  -12.9164   26.5216 C   0  0  0  0  0  0  0  0  0  0  0  0
    8.0186  -12.3985   26.5418 C   0  0  0  0  0  0  0  0  0  0  0  0
    8.7114  -13.5195   25.8017 C   0  0  1  0  0  0  0  0  0  0  0  0
    8.8612  -14.6461   26.7590 C   0  0  0  0  0  0  0  0  0  0  0  0
    7.8940  -15.3489   27.1456 O   0  0  0  0  0  0  0  0  0  0  0  0
   11.7927  -16.7874   27.5062 C   0  0  0  0  0  0  0  0  0  0  0  0
   10.4601  -16.2411   27.8906 C   0  0  2  0  0  0  0  0  0  0  0  0
   10.1390  -14.9756   27.2836 N   0  0  0  0  0  0  0  0  0  0  0  0
   10.3538  -16.2163   29.3642 C   0  0  0  0  0  0  0  0  0  0  0  0
   10.0894  -15.0932   29.8897 O   0  0  0  0  0  0  0  0  0  0  0  0
   10.5166  -17.2958   30.1905 O   0  0  0  0  0  0  0  0  0  0  0  0
  2  1  1  6
  3  4  1  0
  3  2  1  0
  4  5  1  0
  5  9  1  0
  5  6  2  0
  7 10  1  0
  7  2  1  0
  8  7  2  0
 10 14  1  0
 11 12  1  0
 11 10  1  0
 12 13  1  0
 13 14  1  0
 14 15  1  1
 15 19  1  0
 15 16  2  0
 18 17  1  1
 18 20  1  0
 19 18  1  0
 20 22  1  0
 21 20  2  0
M  END
$$$$
