EPA.pdb
     RDKit          3D

 22 22  0  0  1  0  0  0  0  0999 V2000
    8.0909  -14.0973   21.1052 N   0  0  0  0  0  0  0  0  0  0  0  0
    7.3562  -14.1262   22.3472 C   0  0  1  0  0  0  0  0  0  0  0  0
    6.6299  -15.4355   22.4426 C   0  0  0  0  0  0  0  0  0  0  0  0
    7.1239  -16.4990   21.5138 C   0  0  0  0  0  0  0  0  0  0  0  0
    7.5058  -17.7430   22.1760 C   0  0  0  0  0  0  0  0  0  0  0  0
    7.1666  -18.0057   23.3356 O   0  0  0  0  0  0  0  0  0  0  0  0
    8.2803  -14.0533   23.5355 C   0  0  0  0  0  0  0  0  0  0  0  0
    9.4851  -14.3045   23.3036 O   0  0  0  0  0  0  0  0  0  0  0  0
    8.2752  -18.6686   21.4905 O   0  0  0  0  0  0  0  0  0  0  0  0
    7.8724  -13.7308   24.8373 N   0  0  0  0  0  0  0  0  0  0  0  0
    6.5180  -13.5271   25.2825 C   0  0  0  0  0  0  0  0  0  0  0  0
    6.6154  -12.9420   26.6914 C   0  0  0  0  0  0  0  0  0  0  0  0
    8.0661  -12.4641   26.7659 C   0  0  0  0  0  0  0  0  0  0  0  0
    8.7407  -13.5455   25.9536 C   0  0  1  0  0  0  0  0  0  0  0  0
    8.8498  -14.7424   26.8275 C   0  0  0  0  0  0  0  0  0  0  0  0
    7.8548  -15.4202   27.1872 O   0  0  0  0  0  0  0  0  0  0  0  0
   11.4989  -17.2107   27.3833 C   0  0  0  0  0  0  0  0  0  0  0  0
   10.3532  -16.4385   27.9429 C   0  0  2  0  0  0  0  0  0  0  0  0
   10.1186  -15.1725   27.2985 N   0  0  0  0  0  0  0  0  0  0  0  0
   10.5194  -16.3176   29.4061 C   0  0  0  0  0  0  0  0  0  0  0  0
   10.6790  -17.4010   30.0450 O   0  0  0  0  0  0  0  0  0  0  0  0
   10.5140  -15.1443   30.1118 O   0  0  0  0  0  0  0  0  0  0  0  0
  2  1  1  6
  3  4  1  0
  3  2  1  0
  4  5  1  0
  5  9  1  0
  5  6  2  0
  7 10  1  0
  7  2  1  0
  8  7  2  0
 10 14  1  0
 11 12  1  0
 11 10  1  0
 12 13  1  0
 13 14  1  0
 14 15  1  1
 15 19  1  0
 15 16  2  0
 18 17  1  6
 18 20  1  0
 19 18  1  0
 20 22  1  0
 21 20  2  0
M  END
$$$$
