EPA.pdb
     RDKit          3D

 22 22  0  0  1  0  0  0  0  0999 V2000
    9.6075  -15.3238   14.6546 N   0  0  0  0  0  0  0  0  0  0  0  0
    8.6728  -15.1241   15.7361 C   0  0  1  0  0  0  0  0  0  0  0  0
    7.8200  -16.3519   15.8637 C   0  0  0  0  0  0  0  0  0  0  0  0
    8.5574  -17.5933   16.2546 C   0  0  0  0  0  0  0  0  0  0  0  0
    7.7095  -18.7728   16.4019 C   0  0  0  0  0  0  0  0  0  0  0  0
    7.9388  -19.6511   17.2414 O   0  0  0  0  0  0  0  0  0  0  0  0
    9.3839  -14.9493   17.0533 C   0  0  0  0  0  0  0  0  0  0  0  0
   10.5867  -15.2978   17.0724 O   0  0  0  0  0  0  0  0  0  0  0  0
    6.6068  -18.9237   15.5772 O   0  0  0  0  0  0  0  0  0  0  0  0
    8.7874  -14.4357   18.2133 N   0  0  0  0  0  0  0  0  0  0  0  0
    7.3834  -14.1846   18.4126 C   0  0  0  0  0  0  0  0  0  0  0  0
    7.2727  -13.3880   19.7127 C   0  0  0  0  0  0  0  0  0  0  0  0
    8.7002  -12.8843   19.9300 C   0  0  0  0  0  0  0  0  0  0  0  0
    9.4791  -14.0686   19.4054 C   0  0  1  0  0  0  0  0  0  0  0  0
    9.4435  -15.1148   20.4600 C   0  0  0  0  0  0  0  0  0  0  0  0
    8.4867  -15.9180   20.5954 O   0  0  0  0  0  0  0  0  0  0  0  0
   12.1145  -16.6383   22.6360 C   0  0  0  0  0  0  0  0  0  0  0  0
   10.6977  -16.3701   22.2578 C   0  0  2  0  0  0  0  0  0  0  0  0
   10.5206  -15.2457   21.3762 N   0  0  0  0  0  0  0  0  0  0  0  0
    9.8791  -16.2746   23.4842 C   0  0  0  0  0  0  0  0  0  0  0  0
    9.2998  -15.1655   23.6883 O   0  0  0  0  0  0  0  0  0  0  0  0
    9.7021  -17.2762   24.4009 O   0  0  0  0  0  0  0  0  0  0  0  0
  2  1  1  6
  3  4  1  0
  3  2  1  0
  4  5  1  0
  5  9  1  0
  5  6  2  0
  7 10  1  0
  7  2  1  0
  8  7  2  0
 10 14  1  0
 11 12  1  0
 11 10  1  0
 12 13  1  0
 13 14  1  0
 14 15  1  1
 15 19  1  0
 15 16  2  0
 18 17  1  1
 18 20  1  0
 19 18  1  0
 20 22  1  0
 21 20  2  0
M  END
$$$$
