EPA.pdb
     RDKit          3D

 22 22  0  0  1  0  0  0  0  0999 V2000
    8.2189  -14.2177   21.0832 N   0  0  0  0  0  0  0  0  0  0  0  0
    7.4131  -14.1454   22.2784 C   0  0  1  0  0  0  0  0  0  0  0  0
    6.6080  -15.4066   22.3893 C   0  0  0  0  0  0  0  0  0  0  0  0
    6.9137  -16.4420   21.3538 C   0  0  0  0  0  0  0  0  0  0  0  0
    7.6784  -17.5812   21.8530 C   0  0  0  0  0  0  0  0  0  0  0  0
    8.8836  -17.7234   21.6159 O   0  0  0  0  0  0  0  0  0  0  0  0
    8.2695  -14.0654   23.5159 C   0  0  0  0  0  0  0  0  0  0  0  0
    9.4801  -14.3448   23.3585 O   0  0  0  0  0  0  0  0  0  0  0  0
    7.0416  -18.5429   22.6200 O   0  0  0  0  0  0  0  0  0  0  0  0
    7.7950  -13.7076   24.7856 N   0  0  0  0  0  0  0  0  0  0  0  0
    6.4183  -13.5075   25.1581 C   0  0  0  0  0  0  0  0  0  0  0  0
    6.4403  -12.8774   26.5507 C   0  0  0  0  0  0  0  0  0  0  0  0
    7.8802  -12.3788   26.6800 C   0  0  0  0  0  0  0  0  0  0  0  0
    8.6058  -13.4764   25.9361 C   0  0  1  0  0  0  0  0  0  0  0  0
    8.6856  -14.6439   26.8520 C   0  0  0  0  0  0  0  0  0  0  0  0
    7.6947  -15.3646   27.1302 O   0  0  0  0  0  0  0  0  0  0  0  0
   11.3952  -16.9515   27.2166 C   0  0  0  0  0  0  0  0  0  0  0  0
   10.2447  -16.3186   27.9223 C   0  0  2  0  0  0  0  0  0  0  0  0
    9.9200  -14.9941   27.4605 N   0  0  0  0  0  0  0  0  0  0  0  0
   10.4784  -16.3788   29.3800 C   0  0  0  0  0  0  0  0  0  0  0  0
   10.4372  -15.2748   30.0019 O   0  0  0  0  0  0  0  0  0  0  0  0
   10.7319  -17.5172   30.0974 O   0  0  0  0  0  0  0  0  0  0  0  0
  2  1  1  6
  3  4  1  0
  3  2  1  0
  4  5  1  0
  5  9  1  0
  5  6  2  0
  7 10  1  0
  7  2  1  0
  8  7  2  0
 10 14  1  0
 11 12  1  0
 11 10  1  0
 12 13  1  0
 13 14  1  0
 14 15  1  1
 15 19  1  0
 15 16  2  0
 18 17  1  6
 18 20  1  0
 19 18  1  0
 20 22  1  0
 21 20  2  0
M  END
$$$$
