EPA.pdb
     RDKit          3D

 22 22  0  0  1  0  0  0  0  0999 V2000
    9.1924  -15.5154   14.6704 N   0  0  0  0  0  0  0  0  0  0  0  0
    8.4384  -15.2117   15.8631 C   0  0  1  0  0  0  0  0  0  0  0  0
    7.6755  -16.4374   16.2714 C   0  0  0  0  0  0  0  0  0  0  0  0
    8.1244  -17.7057   15.6175 C   0  0  0  0  0  0  0  0  0  0  0  0
    8.1218  -18.8686   16.5003 C   0  0  0  0  0  0  0  0  0  0  0  0
    8.9326  -19.7940   16.3770 O   0  0  0  0  0  0  0  0  0  0  0  0
    9.3459  -14.8603   17.0137 C   0  0  0  0  0  0  0  0  0  0  0  0
   10.5593  -15.1235   16.8494 O   0  0  0  0  0  0  0  0  0  0  0  0
    7.1823  -18.9488   17.5150 O   0  0  0  0  0  0  0  0  0  0  0  0
    8.9145  -14.2760   18.2127 N   0  0  0  0  0  0  0  0  0  0  0  0
    7.5594  -13.9286   18.5548 C   0  0  0  0  0  0  0  0  0  0  0  0
    7.6428  -13.0897   19.8300 C   0  0  0  0  0  0  0  0  0  0  0  0
    9.1138  -12.6737   19.8724 C   0  0  0  0  0  0  0  0  0  0  0  0
    9.7555  -13.9207   19.3086 C   0  0  1  0  0  0  0  0  0  0  0  0
    9.7729  -14.9318   20.3974 C   0  0  0  0  0  0  0  0  0  0  0  0
    8.7873  -15.6622   20.6690 O   0  0  0  0  0  0  0  0  0  0  0  0
   12.6508  -16.5980   22.1501 C   0  0  0  0  0  0  0  0  0  0  0  0
   11.2032  -16.2862   21.9789 C   0  0  2  0  0  0  0  0  0  0  0  0
   10.9376  -15.1115   21.1898 N   0  0  0  0  0  0  0  0  0  0  0  0
   10.5562  -16.2461   23.3067 C   0  0  0  0  0  0  0  0  0  0  0  0
    9.9726  -15.1637   23.6151 O   0  0  0  0  0  0  0  0  0  0  0  0
   10.5398  -17.2720   24.2134 O   0  0  0  0  0  0  0  0  0  0  0  0
  2  1  1  6
  3  4  1  0
  3  2  1  0
  4  5  1  0
  5  9  1  0
  5  6  2  0
  7 10  1  0
  7  2  1  0
  8  7  2  0
 10 14  1  0
 11 12  1  0
 11 10  1  0
 12 13  1  0
 13 14  1  0
 14 15  1  1
 15 19  1  0
 15 16  2  0
 18 17  1  1
 18 20  1  0
 19 18  1  0
 20 22  1  0
 21 20  2  0
M  END
$$$$
