EPA.pdb
     RDKit          3D

 22 22  0  0  1  0  0  0  0  0999 V2000
    8.1828  -14.2412   21.0870 N   0  0  0  0  0  0  0  0  0  0  0  0
    7.3810  -14.0459   22.2712 C   0  0  1  0  0  0  0  0  0  0  0  0
    6.3146  -15.1007   22.3057 C   0  0  0  0  0  0  0  0  0  0  0  0
    6.8192  -16.5024   22.4406 C   0  0  0  0  0  0  0  0  0  0  0  0
    5.7687  -17.5070   22.5783 C   0  0  0  0  0  0  0  0  0  0  0  0
    5.5583  -18.1021   23.6414 O   0  0  0  0  0  0  0  0  0  0  0  0
    8.2004  -14.2140   23.5248 C   0  0  0  0  0  0  0  0  0  0  0  0
    9.3589  -14.6607   23.3615 O   0  0  0  0  0  0  0  0  0  0  0  0
    4.9736  -17.8121   21.4858 O   0  0  0  0  0  0  0  0  0  0  0  0
    7.7460  -13.9067   24.8149 N   0  0  0  0  0  0  0  0  0  0  0  0
    6.3869  -13.6226   25.1970 C   0  0  0  0  0  0  0  0  0  0  0  0
    6.4482  -13.0928   26.6297 C   0  0  0  0  0  0  0  0  0  0  0  0
    7.9224  -12.7215   26.7962 C   0  0  0  0  0  0  0  0  0  0  0  0
    8.5636  -13.8204   25.9805 C   0  0  1  0  0  0  0  0  0  0  0  0
    8.5427  -15.0503   26.8142 C   0  0  0  0  0  0  0  0  0  0  0  0
    7.4915  -15.6937   27.0586 O   0  0  0  0  0  0  0  0  0  0  0  0
   11.0440  -17.5349   26.7039 C   0  0  0  0  0  0  0  0  0  0  0  0
   10.0070  -16.9519   27.6022 C   0  0  2  0  0  0  0  0  0  0  0  0
    9.7447  -15.5540   27.3784 N   0  0  0  0  0  0  0  0  0  0  0  0
   10.3565  -17.2546   29.0056 C   0  0  0  0  0  0  0  0  0  0  0  0
   10.5480  -18.4760   29.2862 O   0  0  0  0  0  0  0  0  0  0  0  0
   10.4868  -16.3315   30.0084 O   0  0  0  0  0  0  0  0  0  0  0  0
  2  1  1  6
  3  4  1  0
  3  2  1  0
  4  5  1  0
  5  9  1  0
  5  6  2  0
  7 10  1  0
  7  2  1  0
  8  7  2  0
 10 14  1  0
 11 12  1  0
 11 10  1  0
 12 13  1  0
 13 14  1  0
 14 15  1  1
 15 19  1  0
 15 16  2  0
 18 17  1  6
 18 20  1  0
 19 18  1  0
 20 22  1  0
 21 20  2  0
M  END
$$$$
