GDG.pdb
     RDKit          3D

 17 16  0  0  1  0  0  0  0  0999 V2000
    1.3046  -20.4665   21.4791 N   0  0  0  0  0  0  0  0  0  0  0  0
    1.7940  -19.2955   22.1725 C   0  0  0  0  0  0  0  0  0  0  0  0
    3.2408  -19.4609   22.4556 C   0  0  0  0  0  0  0  0  0  0  0  0
    3.7522  -20.5740   22.7344 O   0  0  0  0  0  0  0  0  0  0  0  0
    4.1078  -18.3371   22.4180 N   0  0  0  0  0  0  0  0  0  0  0  0
    5.5111  -18.4908   22.6755 C   0  0  1  0  0  0  0  0  0  0  0  0
    6.3458  -17.8264   21.6235 C   0  0  0  0  0  0  0  0  0  0  0  0
    6.3248  -18.5138   20.3130 C   0  0  0  0  0  0  0  0  0  0  0  0
    6.8572  -19.6365   20.1220 O   0  0  0  0  0  0  0  0  0  0  0  0
    5.8810  -18.0649   24.0485 C   0  0  0  0  0  0  0  0  0  0  0  0
    5.3888  -16.9884   24.5009 O   0  0  0  0  0  0  0  0  0  0  0  0
    5.7027  -17.9285   19.2243 O   0  0  0  0  0  0  0  0  0  0  0  0
    6.7582  -18.8099   24.8699 N   0  0  0  0  0  0  0  0  0  0  0  0
    7.0745  -18.3902   26.2096 C   0  0  0  0  0  0  0  0  0  0  0  0
    8.0136  -19.3421   26.8712 C   0  0  0  0  0  0  0  0  0  0  0  0
    8.3904  -19.0831   28.1766 O   0  0  0  0  0  0  0  0  0  0  0  0
    8.4563  -20.3516   26.2732 O   0  0  0  0  0  0  0  0  0  0  0  0
  2  1  1  0
  3  2  1  0
  4  3  2  0
  5  3  1  0
  6 10  1  0
  6  5  1  0
  7  8  1  0
  6  7  1  6
  8  9  2  0
 10 13  1  0
 11 10  2  0
 12  8  1  0
 13 14  1  0
 14 15  1  0
 15 17  2  0
 15 16  1  0
M  END
$$$$
