GDG.pdb
     RDKit          3D

 17 16  0  0  1  0  0  0  0  0999 V2000
   -2.4489  -26.3721   27.3294 N   0  0  0  0  0  0  0  0  0  0  0  0
   -3.1366  -26.2609   26.0620 C   0  0  0  0  0  0  0  0  0  0  0  0
   -4.0446  -25.0883   26.0968 C   0  0  0  0  0  0  0  0  0  0  0  0
   -3.6423  -23.9155   25.8949 O   0  0  0  0  0  0  0  0  0  0  0  0
   -5.4276  -25.2650   26.3659 N   0  0  0  0  0  0  0  0  0  0  0  0
   -6.3301  -24.1512   26.3022 C   0  0  1  0  0  0  0  0  0  0  0  0
   -7.6336  -24.5271   25.6665 C   0  0  0  0  0  0  0  0  0  0  0  0
   -7.5290  -24.8649   24.2293 C   0  0  0  0  0  0  0  0  0  0  0  0
   -7.7886  -26.0082   23.7757 O   0  0  0  0  0  0  0  0  0  0  0  0
   -6.5087  -23.4958   27.6221 C   0  0  0  0  0  0  0  0  0  0  0  0
   -6.4996  -24.2192   28.6626 O   0  0  0  0  0  0  0  0  0  0  0  0
   -7.1307  -23.9087   23.3117 O   0  0  0  0  0  0  0  0  0  0  0  0
   -6.6884  -22.1006   27.7649 N   0  0  0  0  0  0  0  0  0  0  0  0
   -6.6807  -21.4684   29.0577 C   0  0  0  0  0  0  0  0  0  0  0  0
   -7.9013  -21.8166   29.8416 C   0  0  0  0  0  0  0  0  0  0  0  0
   -8.0778  -21.2129   31.0735 O   0  0  0  0  0  0  0  0  0  0  0  0
   -8.7507  -22.6312   29.4086 O   0  0  0  0  0  0  0  0  0  0  0  0
  2  1  1  0
  3  2  1  0
  4  3  2  0
  5  3  1  0
  6 10  1  0
  6  5  1  0
  7  8  1  0
  6  7  1  1
  8  9  2  0
 10 13  1  0
 11 10  2  0
 12  8  1  0
 13 14  1  0
 14 15  1  0
 15 17  2  0
 15 16  1  0
M  END
$$$$
