GDG.pdb
     RDKit          3D

 17 16  0  0  1  0  0  0  0  0999 V2000
    6.7855  -13.3378   18.5384 N   0  0  0  0  0  0  0  0  0  0  0  0
    8.0697  -12.7664   18.8790 C   0  0  0  0  0  0  0  0  0  0  0  0
    9.0560  -13.8568   19.0765 C   0  0  0  0  0  0  0  0  0  0  0  0
    8.7377  -15.0714   19.0381 O   0  0  0  0  0  0  0  0  0  0  0  0
   10.4204  -13.5486   19.3203 N   0  0  0  0  0  0  0  0  0  0  0  0
   11.3809  -14.5972   19.5126 C   0  0  1  0  0  0  0  0  0  0  0  0
   12.7081  -14.2536   18.9082 C   0  0  0  0  0  0  0  0  0  0  0  0
   13.6416  -15.3980   18.8111 C   0  0  0  0  0  0  0  0  0  0  0  0
   14.3182  -15.8121   19.7863 O   0  0  0  0  0  0  0  0  0  0  0  0
   11.4919  -15.0042   20.9357 C   0  0  0  0  0  0  0  0  0  0  0  0
   11.9113  -14.1542   21.7769 O   0  0  0  0  0  0  0  0  0  0  0  0
   13.8063  -16.0685   17.6118 O   0  0  0  0  0  0  0  0  0  0  0  0
   11.1497  -16.2988   21.3897 N   0  0  0  0  0  0  0  0  0  0  0  0
   11.1814  -16.6400   22.7874 C   0  0  0  0  0  0  0  0  0  0  0  0
   12.1898  -17.7037   23.0657 C   0  0  0  0  0  0  0  0  0  0  0  0
   12.0437  -18.4533   24.2189 O   0  0  0  0  0  0  0  0  0  0  0  0
   13.1470  -17.9226   22.2856 O   0  0  0  0  0  0  0  0  0  0  0  0
  2  1  1  0
  3  2  1  0
  4  3  2  0
  5  3  1  0
  6 10  1  0
  6  5  1  0
  7  8  1  0
  6  7  1  1
  8  9  2  0
 10 13  1  0
 11 10  2  0
 12  8  1  0
 13 14  1  0
 14 15  1  0
 15 17  2  0
 15 16  1  0
M  END
$$$$
