GDG.pdb
     RDKit          3D

 17 16  0  0  1  0  0  0  0  0999 V2000
    1.8583  -20.6557   22.1271 N   0  0  0  0  0  0  0  0  0  0  0  0
    2.3719  -19.3103   22.2595 C   0  0  0  0  0  0  0  0  0  0  0  0
    3.8006  -19.3664   22.6551 C   0  0  0  0  0  0  0  0  0  0  0  0
    4.3187  -20.3859   23.1749 O   0  0  0  0  0  0  0  0  0  0  0  0
    4.6417  -18.2406   22.4513 N   0  0  0  0  0  0  0  0  0  0  0  0
    6.0283  -18.2916   22.8174 C   0  0  1  0  0  0  0  0  0  0  0  0
    6.8889  -17.5488   21.8416 C   0  0  0  0  0  0  0  0  0  0  0  0
    6.8841  -18.1197   20.4761 C   0  0  0  0  0  0  0  0  0  0  0  0
    7.1165  -19.3328   20.2421 O   0  0  0  0  0  0  0  0  0  0  0  0
    6.2558  -17.8610   24.2196 C   0  0  0  0  0  0  0  0  0  0  0  0
    5.6259  -16.8498   24.6516 O   0  0  0  0  0  0  0  0  0  0  0  0
    6.6172  -17.3164   19.3814 O   0  0  0  0  0  0  0  0  0  0  0  0
    7.1450  -18.5318   25.0907 N   0  0  0  0  0  0  0  0  0  0  0  0
    7.2527  -18.1729   26.4801 C   0  0  0  0  0  0  0  0  0  0  0  0
    8.2526  -19.0251   27.1869 C   0  0  0  0  0  0  0  0  0  0  0  0
    8.4118  -18.8477   28.5494 O   0  0  0  0  0  0  0  0  0  0  0  0
    8.9359  -19.8811   26.5761 O   0  0  0  0  0  0  0  0  0  0  0  0
  2  1  1  0
  3  2  1  0
  4  3  2  0
  5  3  1  0
  6 10  1  0
  6  5  1  0
  7  8  1  0
  6  7  1  6
  8  9  2  0
 10 13  1  0
 11 10  2  0
 12  8  1  0
 13 14  1  0
 14 15  1  0
 15 17  2  0
 15 16  1  0
M  END
$$$$
