GDG.pdb
     RDKit          3D

 17 16  0  0  1  0  0  0  0  0999 V2000
    8.7314  -23.5189   20.8341 N   0  0  0  0  0  0  0  0  0  0  0  0
    7.6976  -23.6965   21.8297 C   0  0  0  0  0  0  0  0  0  0  0  0
    7.1570  -22.3709   22.2187 C   0  0  0  0  0  0  0  0  0  0  0  0
    7.7267  -21.2931   21.9159 O   0  0  0  0  0  0  0  0  0  0  0  0
    5.9505  -22.2831   22.9623 N   0  0  0  0  0  0  0  0  0  0  0  0
    5.4509  -21.0084   23.3921 C   0  0  1  0  0  0  0  0  0  0  0  0
    3.9684  -20.9002   23.2049 C   0  0  0  0  0  0  0  0  0  0  0  0
    3.4717  -21.5137   21.9530 C   0  0  0  0  0  0  0  0  0  0  0  0
    3.4077  -20.8882   20.8644 O   0  0  0  0  0  0  0  0  0  0  0  0
    5.8759  -20.6750   24.7747 C   0  0  0  0  0  0  0  0  0  0  0  0
    5.1181  -19.9448   25.4808 O   0  0  0  0  0  0  0  0  0  0  0  0
    3.0488  -22.8313   21.9377 O   0  0  0  0  0  0  0  0  0  0  0  0
    7.0891  -21.1377   25.3343 N   0  0  0  0  0  0  0  0  0  0  0  0
    7.5298  -20.7104   26.6360 C   0  0  0  0  0  0  0  0  0  0  0  0
    8.8863  -20.0925   26.5761 C   0  0  0  0  0  0  0  0  0  0  0  0
    9.5125  -19.7803   27.7692 O   0  0  0  0  0  0  0  0  0  0  0  0
    9.4542  -19.8574   25.4830 O   0  0  0  0  0  0  0  0  0  0  0  0
  2  1  1  0
  3  2  1  0
  4  3  2  0
  5  3  1  0
  6 10  1  0
  6  5  1  0
  7  8  1  0
  6  7  1  1
  8  9  2  0
 10 13  1  0
 11 10  2  0
 12  8  1  0
 13 14  1  0
 14 15  1  0
 15 17  2  0
 15 16  1  0
M  END
$$$$
