GDG.pdb
     RDKit          3D

 17 16  0  0  1  0  0  0  0  0999 V2000
    9.2842  -18.5866   20.3725 N   0  0  0  0  0  0  0  0  0  0  0  0
    9.3348  -19.9741   20.7774 C   0  0  0  0  0  0  0  0  0  0  0  0
    9.1531  -20.0641   22.2470 C   0  0  0  0  0  0  0  0  0  0  0  0
    9.1021  -19.0490   22.9853 O   0  0  0  0  0  0  0  0  0  0  0  0
    9.0288  -21.3320   22.8738 N   0  0  0  0  0  0  0  0  0  0  0  0
    8.8625  -21.4284   24.2959 C   0  0  1  0  0  0  0  0  0  0  0  0
    8.0545  -22.6297   24.6814 C   0  0  0  0  0  0  0  0  0  0  0  0
    6.6630  -22.6082   24.1776 C   0  0  0  0  0  0  0  0  0  0  0  0
    5.8833  -21.6403   24.3660 O   0  0  0  0  0  0  0  0  0  0  0  0
   10.1566  -21.3569   25.0195 C   0  0  0  0  0  0  0  0  0  0  0  0
   11.2053  -21.7447   24.4230 O   0  0  0  0  0  0  0  0  0  0  0  0
    6.1593  -23.6813   23.4636 O   0  0  0  0  0  0  0  0  0  0  0  0
   10.2663  -20.8749   26.3443 N   0  0  0  0  0  0  0  0  0  0  0  0
   11.5471  -20.6594   26.9640 C   0  0  0  0  0  0  0  0  0  0  0  0
   11.3989  -20.2112   28.3792 C   0  0  0  0  0  0  0  0  0  0  0  0
   12.5468  -20.0447   29.1327 O   0  0  0  0  0  0  0  0  0  0  0  0
   10.2728  -19.9884   28.8840 O   0  0  0  0  0  0  0  0  0  0  0  0
  2  1  1  0
  3  2  1  0
  4  3  2  0
  5  3  1  0
  6 10  1  0
  6  5  1  0
  7  8  1  0
  6  7  1  6
  8  9  2  0
 10 13  1  0
 11 10  2  0
 12  8  1  0
 13 14  1  0
 14 15  1  0
 15 17  2  0
 15 16  1  0
M  END
$$$$
