GDG.pdb
     RDKit          3D

 17 16  0  0  1  0  0  0  0  0999 V2000
    3.0815  -26.5688   19.9386 N   0  0  0  0  0  0  0  0  0  0  0  0
    1.8356  -25.9745   20.3701 C   0  0  0  0  0  0  0  0  0  0  0  0
    2.1225  -24.7674   21.1831 C   0  0  0  0  0  0  0  0  0  0  0  0
    3.2905  -24.3544   21.3914 O   0  0  0  0  0  0  0  0  0  0  0  0
    1.0576  -24.0279   21.7622 N   0  0  0  0  0  0  0  0  0  0  0  0
    1.3255  -22.8505   22.5375 C   0  0  1  0  0  0  0  0  0  0  0  0
    0.2115  -21.8536   22.4381 C   0  0  0  0  0  0  0  0  0  0  0  0
   -0.0386  -21.3629   21.0644 C   0  0  0  0  0  0  0  0  0  0  0  0
   -0.9810  -21.7869   20.3486 O   0  0  0  0  0  0  0  0  0  0  0  0
    1.6786  -23.1711   23.9432 C   0  0  0  0  0  0  0  0  0  0  0  0
    0.8582  -23.8461   24.6339 O   0  0  0  0  0  0  0  0  0  0  0  0
    0.7784  -20.3956   20.5060 O   0  0  0  0  0  0  0  0  0  0  0  0
    2.8903  -22.7546   24.5412 N   0  0  0  0  0  0  0  0  0  0  0  0
    3.2193  -23.1025   25.8983 C   0  0  0  0  0  0  0  0  0  0  0  0
    3.8618  -24.4467   25.9756 C   0  0  0  0  0  0  0  0  0  0  0  0
    3.0418  -25.5606   25.9809 O   0  0  0  0  0  0  0  0  0  0  0  0
    5.1076  -24.5777   26.0346 O   0  0  0  0  0  0  0  0  0  0  0  0
  2  1  1  0
  3  2  1  0
  4  3  2  0
  5  3  1  0
  6 10  1  0
  6  5  1  0
  7  8  1  0
  6  7  1  1
  8  9  2  0
 10 13  1  0
 11 10  2  0
 12  8  1  0
 13 14  1  0
 14 15  1  0
 15 17  2  0
 15 16  1  0
M  END
$$$$
