GDG.pdb
     RDKit          3D

 17 16  0  0  1  0  0  0  0  0999 V2000
    7.2383  -12.8743   19.0209 N   0  0  0  0  0  0  0  0  0  0  0  0
    8.5981  -12.7255   18.5514 C   0  0  0  0  0  0  0  0  0  0  0  0
    9.4324  -13.8188   19.1075 C   0  0  0  0  0  0  0  0  0  0  0  0
    8.9745  -14.6866   19.8919 O   0  0  0  0  0  0  0  0  0  0  0  0
   10.8055  -13.9158   18.7591 N   0  0  0  0  0  0  0  0  0  0  0  0
   11.6065  -15.0009   19.2493 C   0  0  1  0  0  0  0  0  0  0  0  0
   12.8044  -15.2437   18.3828 C   0  0  0  0  0  0  0  0  0  0  0  0
   12.4799  -15.7681   17.0374 C   0  0  0  0  0  0  0  0  0  0  0  0
   11.7891  -16.8025   16.8558 O   0  0  0  0  0  0  0  0  0  0  0  0
   11.9635  -14.8345   20.6804 C   0  0  0  0  0  0  0  0  0  0  0  0
   12.5836  -13.7865   21.0311 O   0  0  0  0  0  0  0  0  0  0  0  0
   12.9384  -15.1208   15.9034 O   0  0  0  0  0  0  0  0  0  0  0  0
   11.6408  -15.7959   21.6657 N   0  0  0  0  0  0  0  0  0  0  0  0
   11.8912  -15.5566   23.0625 C   0  0  0  0  0  0  0  0  0  0  0  0
   11.5889  -16.7641   23.8848 C   0  0  0  0  0  0  0  0  0  0  0  0
   11.8118  -16.6955   25.2482 O   0  0  0  0  0  0  0  0  0  0  0  0
   11.1453  -17.8172   23.3683 O   0  0  0  0  0  0  0  0  0  0  0  0
  2  1  1  0
  3  2  1  0
  4  3  2  0
  5  3  1  0
  6 10  1  0
  6  5  1  0
  7  8  1  0
  6  7  1  6
  8  9  2  0
 10 13  1  0
 11 10  2  0
 12  8  1  0
 13 14  1  0
 14 15  1  0
 15 17  2  0
 15 16  1  0
M  END
$$$$
