GDG.pdb
     RDKit          3D

 17 16  0  0  1  0  0  0  0  0999 V2000
   15.8050  -19.2433   17.2507 N   0  0  0  0  0  0  0  0  0  0  0  0
   14.7055  -18.8802   18.1173 C   0  0  0  0  0  0  0  0  0  0  0  0
   15.0877  -17.6973   18.9268 C   0  0  0  0  0  0  0  0  0  0  0  0
   16.2237  -17.5734   19.4484 O   0  0  0  0  0  0  0  0  0  0  0  0
   14.1559  -16.6470   19.1387 N   0  0  0  0  0  0  0  0  0  0  0  0
   14.4642  -15.5696   20.0349 C   0  0  1  0  0  0  0  0  0  0  0  0
   13.7334  -14.3142   19.6678 C   0  0  0  0  0  0  0  0  0  0  0  0
   13.9356  -13.8863   18.2656 C   0  0  0  0  0  0  0  0  0  0  0  0
   15.0743  -13.7316   17.7560 O   0  0  0  0  0  0  0  0  0  0  0  0
   14.2678  -15.9473   21.4570 C   0  0  0  0  0  0  0  0  0  0  0  0
   13.1438  -16.4149   21.8088 O   0  0  0  0  0  0  0  0  0  0  0  0
   12.8493  -13.6344   17.4460 O   0  0  0  0  0  0  0  0  0  0  0  0
   15.2816  -15.8065   22.4325 N   0  0  0  0  0  0  0  0  0  0  0  0
   15.0779  -16.2196   23.7959 C   0  0  0  0  0  0  0  0  0  0  0  0
   16.3219  -16.0627   24.6042 C   0  0  0  0  0  0  0  0  0  0  0  0
   16.2799  -16.4211   25.9395 O   0  0  0  0  0  0  0  0  0  0  0  0
   17.3818  -15.6202   24.1008 O   0  0  0  0  0  0  0  0  0  0  0  0
  2  1  1  0
  3  2  1  0
  4  3  2  0
  5  3  1  0
  6 10  1  0
  6  5  1  0
  7  8  1  0
  6  7  1  6
  8  9  2  0
 10 13  1  0
 11 10  2  0
 12  8  1  0
 13 14  1  0
 14 15  1  0
 15 17  2  0
 15 16  1  0
M  END
$$$$
