GDG.pdb
     RDKit          3D

 17 16  0  0  1  0  0  0  0  0999 V2000
    1.9355  -20.6791   21.6960 N   0  0  0  0  0  0  0  0  0  0  0  0
    2.2786  -19.3771   22.2240 C   0  0  0  0  0  0  0  0  0  0  0  0
    3.7350  -19.3277   22.5018 C   0  0  0  0  0  0  0  0  0  0  0  0
    4.3978  -20.3468   22.8185 O   0  0  0  0  0  0  0  0  0  0  0  0
    4.4362  -18.0961   22.4150 N   0  0  0  0  0  0  0  0  0  0  0  0
    5.8359  -18.0314   22.7244 C   0  0  1  0  0  0  0  0  0  0  0  0
    6.5730  -17.1304   21.7812 C   0  0  0  0  0  0  0  0  0  0  0  0
    6.6204  -17.6249   20.3871 C   0  0  0  0  0  0  0  0  0  0  0  0
    6.0870  -17.0135   19.4270 O   0  0  0  0  0  0  0  0  0  0  0  0
    6.0820  -17.6892   24.1476 C   0  0  0  0  0  0  0  0  0  0  0  0
    5.4126  -16.7472   24.6676 O   0  0  0  0  0  0  0  0  0  0  0  0
    7.2702  -18.8088   20.0849 O   0  0  0  0  0  0  0  0  0  0  0  0
    7.0310  -18.3700   24.9447 N   0  0  0  0  0  0  0  0  0  0  0  0
    7.1785  -18.0865   26.3478 C   0  0  0  0  0  0  0  0  0  0  0  0
    8.2455  -18.9275   26.9642 C   0  0  0  0  0  0  0  0  0  0  0  0
    8.4957  -18.7739   28.3159 O   0  0  0  0  0  0  0  0  0  0  0  0
    8.9043  -19.7534   26.2886 O   0  0  0  0  0  0  0  0  0  0  0  0
  2  1  1  0
  3  2  1  0
  4  3  2  0
  5  3  1  0
  6 10  1  0
  6  5  1  0
  7  8  1  0
  6  7  1  6
  8  9  2  0
 10 13  1  0
 11 10  2  0
 12  8  1  0
 13 14  1  0
 14 15  1  0
 15 17  2  0
 15 16  1  0
M  END
$$$$
