GDG.pdb
     RDKit          3D

 17 16  0  0  1  0  0  0  0  0999 V2000
    7.0685  -12.6196   19.2353 N   0  0  0  0  0  0  0  0  0  0  0  0
    8.4623  -12.9285   19.0047 C   0  0  0  0  0  0  0  0  0  0  0  0
    8.7924  -14.2223   19.6511 C   0  0  0  0  0  0  0  0  0  0  0  0
    7.9714  -14.8504   20.3648 O   0  0  0  0  0  0  0  0  0  0  0  0
   10.0777  -14.7997   19.4755 N   0  0  0  0  0  0  0  0  0  0  0  0
   10.4289  -16.0151   20.1529 C   0  0  1  0  0  0  0  0  0  0  0  0
   11.4185  -16.8224   19.3696 C   0  0  0  0  0  0  0  0  0  0  0  0
   10.9011  -17.3217   18.0760 C   0  0  0  0  0  0  0  0  0  0  0  0
   11.4970  -17.1365   16.9847 O   0  0  0  0  0  0  0  0  0  0  0  0
   10.8699  -15.7733   21.5495 C   0  0  0  0  0  0  0  0  0  0  0  0
   11.7275  -14.8653   21.7643 O   0  0  0  0  0  0  0  0  0  0  0  0
    9.7120  -18.0275   18.0220 O   0  0  0  0  0  0  0  0  0  0  0  0
   10.3732  -16.5134   22.6471 N   0  0  0  0  0  0  0  0  0  0  0  0
   10.5899  -16.0858   24.0040 C   0  0  0  0  0  0  0  0  0  0  0  0
   11.5432  -16.9875   24.7136 C   0  0  0  0  0  0  0  0  0  0  0  0
   12.1351  -18.0075   23.9907 O   0  0  0  0  0  0  0  0  0  0  0  0
   11.8095  -16.8369   25.9298 O   0  0  0  0  0  0  0  0  0  0  0  0
  2  1  1  0
  3  2  1  0
  4  3  2  0
  5  3  1  0
  6 10  1  0
  6  5  1  0
  7  8  1  0
  6  7  1  6
  8  9  2  0
 10 13  1  0
 11 10  2  0
 12  8  1  0
 13 14  1  0
 14 15  1  0
 15 17  2  0
 15 16  1  0
M  END
$$$$
