GDG.pdb
     RDKit          3D

 17 16  0  0  1  0  0  0  0  0999 V2000
    7.0990  -13.0595   19.0377 N   0  0  0  0  0  0  0  0  0  0  0  0
    8.4490  -12.8259   18.5744 C   0  0  0  0  0  0  0  0  0  0  0  0
    9.3340  -13.9066   19.0741 C   0  0  0  0  0  0  0  0  0  0  0  0
    8.9117  -14.8510   19.7867 O   0  0  0  0  0  0  0  0  0  0  0  0
   10.7168  -13.9020   18.7518 N   0  0  0  0  0  0  0  0  0  0  0  0
   11.5710  -14.9676   19.1925 C   0  0  1  0  0  0  0  0  0  0  0  0
   12.7628  -15.1307   18.2994 C   0  0  0  0  0  0  0  0  0  0  0  0
   12.4398  -15.6453   16.9498 C   0  0  0  0  0  0  0  0  0  0  0  0
   12.8487  -15.0984   15.8944 O   0  0  0  0  0  0  0  0  0  0  0  0
   11.9455  -14.8333   20.6225 C   0  0  0  0  0  0  0  0  0  0  0  0
   12.4692  -13.7467   21.0110 O   0  0  0  0  0  0  0  0  0  0  0  0
   11.6553  -16.7754   16.7997 O   0  0  0  0  0  0  0  0  0  0  0  0
   11.7424  -15.8663   21.5664 N   0  0  0  0  0  0  0  0  0  0  0  0
   12.0158  -15.6725   22.9660 C   0  0  0  0  0  0  0  0  0  0  0  0
   11.7532  -16.9147   23.7493 C   0  0  0  0  0  0  0  0  0  0  0  0
   12.0751  -16.9161   25.0945 O   0  0  0  0  0  0  0  0  0  0  0  0
   11.2558  -17.9352   23.2167 O   0  0  0  0  0  0  0  0  0  0  0  0
  2  1  1  0
  3  2  1  0
  4  3  2  0
  5  3  1  0
  6 10  1  0
  6  5  1  0
  7  8  1  0
  6  7  1  6
  8  9  2  0
 10 13  1  0
 11 10  2  0
 12  8  1  0
 13 14  1  0
 14 15  1  0
 15 17  2  0
 15 16  1  0
M  END
$$$$
