NEG.pdb
     RDKit          3D

 22 21  0  0  1  0  0  0  0  0999 V2000
    7.3774  -11.9060   17.9378 N   0  0  0  0  0  0  0  0  0  0  0  0
    7.7120  -13.2811   17.7895 C   0  0  0  0  0  0  0  0  0  0  0  0
    8.1422  -13.7580   16.6906 O   0  0  0  0  0  0  0  0  0  0  0  0
    7.5706  -14.2228   18.9234 C   0  0  0  0  0  0  0  0  0  0  0  0
    8.7393  -14.0964   19.8926 C   0  0  2  0  0  0  0  0  0  0  0  0
    9.9924  -14.0876   19.1530 N   0  0  0  0  0  0  0  0  0  0  0  0
    8.7516  -15.1694   20.8858 C   0  0  0  0  0  0  0  0  0  0  0  0
    7.7295  -15.3695   21.5945 O   0  0  0  0  0  0  0  0  0  0  0  0
    9.8820  -15.9945   21.0759 N   0  0  0  0  0  0  0  0  0  0  0  0
    9.9139  -16.9436   22.2022 C   0  0  1  0  0  0  0  0  0  0  0  0
   10.0290  -18.3303   21.6395 C   0  0  0  0  0  0  0  0  0  0  0  0
    8.9924  -18.6977   20.6424 C   0  0  0  0  0  0  0  0  0  0  0  0
    9.1910  -20.0615   20.1055 C   0  0  0  0  0  0  0  0  0  0  0  0
   10.2712  -20.4941   19.6309 O   0  0  0  0  0  0  0  0  0  0  0  0
   11.0894  -16.6421   23.0702 C   0  0  0  0  0  0  0  0  0  0  0  0
   11.0206  -16.9487   24.2854 O   0  0  0  0  0  0  0  0  0  0  0  0
    8.1247  -20.9733   20.1057 O   0  0  0  0  0  0  0  0  0  0  0  0
   12.2639  -16.0304   22.5800 N   0  0  0  0  0  0  0  0  0  0  0  0
   13.4095  -15.7469   23.4249 C   0  0  0  0  0  0  0  0  0  0  0  0
   14.5258  -15.1501   22.6865 C   0  0  0  0  0  0  0  0  0  0  0  0
   14.4116  -14.9670   21.4558 O   0  0  0  0  0  0  0  0  0  0  0  0
   15.7130  -14.7761   23.2985 O   0  0  0  0  0  0  0  0  0  0  0  0
  1  2  1  0
  2  4  1  0
  2  3  2  0
  5  6  1  6
  5  4  1  0
  7  5  1  0
  7  8  2  0
  9  7  1  0
 10  9  1  0
 10 15  1  0
 10 11  1  6
 12 11  1  0
 12 13  1  0
 13 14  2  0
 15 16  2  0
 15 18  1  0
 17 13  1  0
 18 19  1  0
 19 20  1  0
 20 22  1  0
 21 20  2  0
M  END
$$$$
