NEG.pdb
     RDKit          3D

 22 21  0  0  1  0  0  0  0  0999 V2000
   17.5809  -18.0829   38.9897 N   0  0  0  0  0  0  0  0  0  0  0  0
   16.7546  -17.1484   39.6744 C   0  0  0  0  0  0  0  0  0  0  0  0
   15.6725  -16.7061   39.1709 O   0  0  0  0  0  0  0  0  0  0  0  0
   17.1269  -16.6479   41.0174 C   0  0  0  0  0  0  0  0  0  0  0  0
   17.3089  -17.7964   42.0017 C   0  0  2  0  0  0  0  0  0  0  0  0
   18.2972  -18.7324   41.4874 N   0  0  0  0  0  0  0  0  0  0  0  0
   16.0532  -18.4939   42.2748 C   0  0  0  0  0  0  0  0  0  0  0  0
   15.0324  -17.8292   42.5961 O   0  0  0  0  0  0  0  0  0  0  0  0
   15.9487  -19.8997   42.1882 N   0  0  0  0  0  0  0  0  0  0  0  0
   14.6787  -20.5615   42.5335 C   0  0  1  0  0  0  0  0  0  0  0  0
   14.8047  -22.0178   42.1929 C   0  0  0  0  0  0  0  0  0  0  0  0
   14.7136  -22.3406   40.7466 C   0  0  0  0  0  0  0  0  0  0  0  0
   14.9980  -23.7659   40.4726 C   0  0  0  0  0  0  0  0  0  0  0  0
   15.2614  -24.6255   41.3506 O   0  0  0  0  0  0  0  0  0  0  0  0
   14.4153  -20.3961   43.9928 C   0  0  0  0  0  0  0  0  0  0  0  0
   15.3970  -20.4042   44.7749 O   0  0  0  0  0  0  0  0  0  0  0  0
   14.9837  -24.2385   39.1516 O   0  0  0  0  0  0  0  0  0  0  0  0
   13.1158  -20.2332   44.5207 N   0  0  0  0  0  0  0  0  0  0  0  0
   12.8647  -20.0488   45.9383 C   0  0  0  0  0  0  0  0  0  0  0  0
   11.4380  -19.9313   46.2516 C   0  0  0  0  0  0  0  0  0  0  0  0
   10.6073  -19.9505   45.3185 O   0  0  0  0  0  0  0  0  0  0  0  0
   10.9652  -19.7991   47.5489 O   0  0  0  0  0  0  0  0  0  0  0  0
  1  2  1  0
  2  4  1  0
  2  3  2  0
  5  6  1  6
  5  4  1  0
  7  5  1  0
  7  8  2  0
  9  7  1  0
 10  9  1  0
 10 15  1  0
 10 11  1  1
 12 11  1  0
 12 13  1  0
 13 14  2  0
 15 16  2  0
 15 18  1  0
 17 13  1  0
 18 19  1  0
 19 20  1  0
 20 22  1  0
 21 20  2  0
M  END
$$$$
