NEG.pdb
     RDKit          3D

 22 21  0  0  1  0  0  0  0  0999 V2000
   10.3913  -17.4443   18.5748 N   0  0  0  0  0  0  0  0  0  0  0  0
   10.8342  -16.1164   18.8304 C   0  0  0  0  0  0  0  0  0  0  0  0
   11.3972  -15.4070   17.9361 O   0  0  0  0  0  0  0  0  0  0  0  0
   10.6546  -15.5004   20.1650 C   0  0  0  0  0  0  0  0  0  0  0  0
   10.0503  -16.4916   21.1516 C   0  0  2  0  0  0  0  0  0  0  0  0
    8.6908  -16.8190   20.7490 N   0  0  0  0  0  0  0  0  0  0  0  0
   10.0575  -15.9811   22.5217 C   0  0  0  0  0  0  0  0  0  0  0  0
   11.1407  -15.5874   23.0306 O   0  0  0  0  0  0  0  0  0  0  0  0
    8.8791  -15.9147   23.2974 N   0  0  0  0  0  0  0  0  0  0  0  0
    8.9510  -15.4723   24.7007 C   0  0  1  0  0  0  0  0  0  0  0  0
    7.9696  -14.3520   24.8867 C   0  0  0  0  0  0  0  0  0  0  0  0
    7.8561  -13.8324   26.2728 C   0  0  0  0  0  0  0  0  0  0  0  0
    7.0026  -12.6270   26.3503 C   0  0  0  0  0  0  0  0  0  0  0  0
    6.7743  -11.9774   27.4015 O   0  0  0  0  0  0  0  0  0  0  0  0
    8.6044  -16.6132   25.5976 C   0  0  0  0  0  0  0  0  0  0  0  0
    7.5147  -17.2058   25.4054 O   0  0  0  0  0  0  0  0  0  0  0  0
    6.3821  -12.1361   25.1916 O   0  0  0  0  0  0  0  0  0  0  0  0
    9.4481  -17.0458   26.6439 N   0  0  0  0  0  0  0  0  0  0  0  0
    9.0955  -18.1381   27.5324 C   0  0  0  0  0  0  0  0  0  0  0  0
   10.1400  -18.4274   28.5187 C   0  0  0  0  0  0  0  0  0  0  0  0
   11.2465  -17.8559   28.4176 O   0  0  0  0  0  0  0  0  0  0  0  0
    9.9529  -19.3145   29.5685 O   0  0  0  0  0  0  0  0  0  0  0  0
  1  2  1  0
  2  4  1  0
  2  3  2  0
  5  6  1  6
  5  4  1  0
  7  5  1  0
  7  8  2  0
  9  7  1  0
 10  9  1  0
 10 15  1  0
 10 11  1  6
 12 11  1  0
 12 13  1  0
 13 14  2  0
 15 16  2  0
 15 18  1  0
 17 13  1  0
 18 19  1  0
 19 20  1  0
 20 22  1  0
 21 20  2  0
M  END
$$$$
