NEG.pdb
     RDKit          3D

 22 21  0  0  1  0  0  0  0  0999 V2000
    6.2479  -19.8709   18.9108 N   0  0  0  0  0  0  0  0  0  0  0  0
    7.0205  -19.3130   19.9676 C   0  0  0  0  0  0  0  0  0  0  0  0
    8.2909  -19.3869   19.9888 O   0  0  0  0  0  0  0  0  0  0  0  0
    6.3671  -18.6152   21.0985 C   0  0  0  0  0  0  0  0  0  0  0  0
    6.6969  -19.2884   22.4248 C   0  0  2  0  0  0  0  0  0  0  0  0
    6.0009  -20.5631   22.5154 N   0  0  0  0  0  0  0  0  0  0  0  0
    6.3539  -18.4481   23.5710 C   0  0  0  0  0  0  0  0  0  0  0  0
    5.1616  -18.4095   23.9763 O   0  0  0  0  0  0  0  0  0  0  0  0
    7.3250  -17.6734   24.2430 N   0  0  0  0  0  0  0  0  0  0  0  0
    6.9185  -16.7901   25.3497 C   0  0  1  0  0  0  0  0  0  0  0  0
    7.6634  -17.2143   26.5818 C   0  0  0  0  0  0  0  0  0  0  0  0
    9.1409  -17.0936   26.5021 C   0  0  0  0  0  0  0  0  0  0  0  0
    9.8043  -17.5037   27.7588 C   0  0  0  0  0  0  0  0  0  0  0  0
    9.2150  -18.0034   28.7498 O   0  0  0  0  0  0  0  0  0  0  0  0
    7.2565  -15.3782   25.0056 C   0  0  0  0  0  0  0  0  0  0  0  0
    8.2317  -15.1733   24.2424 O   0  0  0  0  0  0  0  0  0  0  0  0
   11.1908  -17.3422   27.9004 O   0  0  0  0  0  0  0  0  0  0  0  0
    6.5275  -14.2755   25.5021 N   0  0  0  0  0  0  0  0  0  0  0  0
    6.7080  -12.9268   24.9970 C   0  0  0  0  0  0  0  0  0  0  0  0
    6.6551  -11.9129   26.0537 C   0  0  0  0  0  0  0  0  0  0  0  0
    6.4853  -12.2767   27.2369 O   0  0  0  0  0  0  0  0  0  0  0  0
    6.7868  -10.5563   25.7964 O   0  0  0  0  0  0  0  0  0  0  0  0
  1  2  1  0
  2  4  1  0
  2  3  2  0
  5  6  1  1
  5  4  1  0
  7  5  1  0
  7  8  2  0
  9  7  1  0
 10  9  1  0
 10 15  1  0
 10 11  1  1
 12 11  1  0
 12 13  1  0
 13 14  2  0
 15 16  2  0
 15 18  1  0
 17 13  1  0
 18 19  1  0
 19 20  1  0
 20 22  1  0
 21 20  2  0
M  END
$$$$
