NEG.pdb
     RDKit          3D

 22 21  0  0  1  0  0  0  0  0999 V2000
    5.5709  -12.1515   27.2548 N   0  0  0  0  0  0  0  0  0  0  0  0
    6.7806  -12.3352   26.5284 C   0  0  0  0  0  0  0  0  0  0  0  0
    7.5708  -11.3700   26.2749 O   0  0  0  0  0  0  0  0  0  0  0  0
    7.1721  -13.6745   26.0328 C   0  0  0  0  0  0  0  0  0  0  0  0
    7.6251  -13.6127   24.5795 C   0  0  2  0  0  0  0  0  0  0  0  0
    6.5313  -13.1415   23.7434 N   0  0  0  0  0  0  0  0  0  0  0  0
    8.1044  -14.9062   24.0949 C   0  0  0  0  0  0  0  0  0  0  0  0
    7.3730  -15.9243   24.2197 O   0  0  0  0  0  0  0  0  0  0  0  0
    9.3707  -15.0501   23.4862 N   0  0  0  0  0  0  0  0  0  0  0  0
    9.8522  -16.3899   23.1073 C   0  0  1  0  0  0  0  0  0  0  0  0
   10.5649  -16.2737   21.7915 C   0  0  0  0  0  0  0  0  0  0  0  0
   11.5697  -15.1839   21.7090 C   0  0  0  0  0  0  0  0  0  0  0  0
   12.0576  -14.9761   20.3284 C   0  0  0  0  0  0  0  0  0  0  0  0
   11.7384  -15.6857   19.3415 O   0  0  0  0  0  0  0  0  0  0  0  0
   10.7869  -16.8944   24.1551 C   0  0  0  0  0  0  0  0  0  0  0  0
   11.4086  -17.9609   23.9283 O   0  0  0  0  0  0  0  0  0  0  0  0
   12.9424  -13.9228   20.0525 O   0  0  0  0  0  0  0  0  0  0  0  0
   10.9953  -16.2232   25.3799 N   0  0  0  0  0  0  0  0  0  0  0  0
   11.9055  -16.7163   26.3973 C   0  0  0  0  0  0  0  0  0  0  0  0
   11.2863  -17.7083   27.2805 C   0  0  0  0  0  0  0  0  0  0  0  0
   10.1683  -18.1772   26.9783 O   0  0  0  0  0  0  0  0  0  0  0  0
   11.8917  -18.1536   28.4463 O   0  0  0  0  0  0  0  0  0  0  0  0
  1  2  1  0
  2  4  1  0
  2  3  2  0
  5  6  1  6
  5  4  1  0
  7  5  1  0
  7  8  2  0
  9  7  1  0
 10  9  1  0
 10 15  1  0
 10 11  1  6
 12 11  1  0
 12 13  1  0
 13 14  2  0
 15 16  2  0
 15 18  1  0
 17 13  1  0
 18 19  1  0
 19 20  1  0
 20 22  1  0
 21 20  2  0
M  END
$$$$
