NEG.pdb
     RDKit          3D

 22 21  0  0  1  0  0  0  0  0999 V2000
    8.7061  -11.7420   19.5417 N   0  0  0  0  0  0  0  0  0  0  0  0
    8.2381  -13.0797   19.6701 C   0  0  0  0  0  0  0  0  0  0  0  0
    8.2375  -13.6920   20.7859 O   0  0  0  0  0  0  0  0  0  0  0  0
    7.7269  -13.8207   18.4944 C   0  0  0  0  0  0  0  0  0  0  0  0
    8.8578  -14.1916   17.5434 C   0  0  2  0  0  0  0  0  0  0  0  0
    8.3344  -14.9897   16.4450 N   0  0  0  0  0  0  0  0  0  0  0  0
    9.9334  -14.9150   18.2198 C   0  0  0  0  0  0  0  0  0  0  0  0
    9.6842  -16.0173   18.7765 O   0  0  0  0  0  0  0  0  0  0  0  0
   11.2526  -14.4127   18.2679 N   0  0  0  0  0  0  0  0  0  0  0  0
   12.3309  -15.2419   18.8336 C   0  0  1  0  0  0  0  0  0  0  0  0
   13.5573  -15.0501   17.9897 C   0  0  0  0  0  0  0  0  0  0  0  0
   13.7802  -16.0870   16.9509 C   0  0  0  0  0  0  0  0  0  0  0  0
   14.7298  -15.6398   15.9088 C   0  0  0  0  0  0  0  0  0  0  0  0
   15.9676  -15.5045   16.0782 O   0  0  0  0  0  0  0  0  0  0  0  0
   12.6006  -14.8128   20.2369 C   0  0  0  0  0  0  0  0  0  0  0  0
   12.7242  -13.5850   20.4659 O   0  0  0  0  0  0  0  0  0  0  0  0
   14.2603  -15.3333   14.6228 O   0  0  0  0  0  0  0  0  0  0  0  0
   12.7212  -15.7280   21.3055 N   0  0  0  0  0  0  0  0  0  0  0  0
   12.8990  -15.3041   22.6823 C   0  0  0  0  0  0  0  0  0  0  0  0
   12.9967  -16.4301   23.6150 C   0  0  0  0  0  0  0  0  0  0  0  0
   13.2754  -16.2052   24.8121 O   0  0  0  0  0  0  0  0  0  0  0  0
   12.7912  -17.7452   23.2246 O   0  0  0  0  0  0  0  0  0  0  0  0
  1  2  1  0
  2  4  1  0
  2  3  2  0
  5  6  1  6
  5  4  1  0
  7  5  1  0
  7  8  2  0
  9  7  1  0
 10  9  1  0
 10 15  1  0
 10 11  1  6
 12 11  1  0
 12 13  1  0
 13 14  2  0
 15 16  2  0
 15 18  1  0
 17 13  1  0
 18 19  1  0
 19 20  1  0
 20 22  1  0
 21 20  2  0
M  END
$$$$
