NEG.pdb
     RDKit          3D

 22 21  0  0  1  0  0  0  0  0999 V2000
    7.4894  -12.9976   16.6400 N   0  0  0  0  0  0  0  0  0  0  0  0
    8.1170  -14.1617   16.1147 C   0  0  0  0  0  0  0  0  0  0  0  0
    7.9207  -14.5557   14.9205 O   0  0  0  0  0  0  0  0  0  0  0  0
    9.0352  -14.9704   16.9488 C   0  0  0  0  0  0  0  0  0  0  0  0
    9.0843  -14.4473   18.3788 C   0  0  2  0  0  0  0  0  0  0  0  0
    9.4171  -13.0307   18.3729 N   0  0  0  0  0  0  0  0  0  0  0  0
   10.0415  -15.1831   19.2035 C   0  0  0  0  0  0  0  0  0  0  0  0
    9.9627  -16.4384   19.2735 O   0  0  0  0  0  0  0  0  0  0  0  0
   11.0594  -14.5250   19.9286 N   0  0  0  0  0  0  0  0  0  0  0  0
   11.9843  -15.3083   20.7660 C   0  0  1  0  0  0  0  0  0  0  0  0
   13.3421  -14.6747   20.6781 C   0  0  0  0  0  0  0  0  0  0  0  0
   14.4389  -15.4335   21.3303 C   0  0  0  0  0  0  0  0  0  0  0  0
   15.7539  -14.7805   21.1520 C   0  0  0  0  0  0  0  0  0  0  0  0
   16.4406  -14.8280   20.1006 O   0  0  0  0  0  0  0  0  0  0  0  0
   11.5028  -15.2976   22.1782 C   0  0  0  0  0  0  0  0  0  0  0  0
   10.8354  -14.3084   22.5673 O   0  0  0  0  0  0  0  0  0  0  0  0
   16.3152  -14.0435   22.2057 O   0  0  0  0  0  0  0  0  0  0  0  0
   11.7681  -16.3483   23.0835 N   0  0  0  0  0  0  0  0  0  0  0  0
   11.2637  -16.3545   24.4444 C   0  0  0  0  0  0  0  0  0  0  0  0
   11.7488  -17.4961   25.2246 C   0  0  0  0  0  0  0  0  0  0  0  0
   12.4473  -18.3650   24.6603 O   0  0  0  0  0  0  0  0  0  0  0  0
   11.4649  -17.6560   26.5729 O   0  0  0  0  0  0  0  0  0  0  0  0
  1  2  1  0
  2  4  1  0
  2  3  2  0
  5  6  1  6
  5  4  1  0
  7  5  1  0
  7  8  2  0
  9  7  1  0
 10  9  1  0
 10 15  1  0
 10 11  1  1
 12 11  1  0
 12 13  1  0
 13 14  2  0
 15 16  2  0
 15 18  1  0
 17 13  1  0
 18 19  1  0
 19 20  1  0
 20 22  1  0
 21 20  2  0
M  END
$$$$
