NEG.pdb
     RDKit          3D

 22 21  0  0  1  0  0  0  0  0999 V2000
   13.8273  -13.5061   18.9996 N   0  0  0  0  0  0  0  0  0  0  0  0
   14.4279  -14.5763   18.2793 C   0  0  0  0  0  0  0  0  0  0  0  0
   15.6721  -14.5976   18.0118 O   0  0  0  0  0  0  0  0  0  0  0  0
   13.6173  -15.7219   17.8069 C   0  0  0  0  0  0  0  0  0  0  0  0
   12.1592  -15.5728   18.2224 C   0  0  2  0  0  0  0  0  0  0  0  0
   11.6488  -14.2868   17.7717 N   0  0  0  0  0  0  0  0  0  0  0  0
   11.9806  -15.7037   19.6677 C   0  0  0  0  0  0  0  0  0  0  0  0
   11.2154  -14.9061   20.2722 O   0  0  0  0  0  0  0  0  0  0  0  0
   12.6437  -16.7043   20.4119 N   0  0  0  0  0  0  0  0  0  0  0  0
   12.2652  -16.9439   21.8153 C   0  0  1  0  0  0  0  0  0  0  0  0
   12.3928  -18.4145   22.0875 C   0  0  0  0  0  0  0  0  0  0  0  0
   12.0228  -18.8392   23.4611 C   0  0  0  0  0  0  0  0  0  0  0  0
   12.2233  -20.2894   23.6714 C   0  0  0  0  0  0  0  0  0  0  0  0
   13.1717  -20.7943   24.3230 O   0  0  0  0  0  0  0  0  0  0  0  0
   13.1764  -16.1745   22.7119 C   0  0  0  0  0  0  0  0  0  0  0  0
   12.9305  -16.1718   23.9427 O   0  0  0  0  0  0  0  0  0  0  0  0
   11.3138  -21.2059   23.1225 O   0  0  0  0  0  0  0  0  0  0  0  0
   14.2932  -15.4562   22.2314 N   0  0  0  0  0  0  0  0  0  0  0  0
   15.1823  -14.7149   23.1069 C   0  0  0  0  0  0  0  0  0  0  0  0
   16.3185  -15.5151   23.5719 C   0  0  0  0  0  0  0  0  0  0  0  0
   16.4028  -16.7116   23.2219 O   0  0  0  0  0  0  0  0  0  0  0  0
   17.3127  -14.9986   24.3897 O   0  0  0  0  0  0  0  0  0  0  0  0
  1  2  1  0
  2  4  1  0
  2  3  2  0
  5  6  1  1
  5  4  1  0
  7  5  1  0
  7  8  2  0
  9  7  1  0
 10  9  1  0
 10 15  1  0
 10 11  1  1
 12 11  1  0
 12 13  1  0
 13 14  2  0
 15 16  2  0
 15 18  1  0
 17 13  1  0
 18 19  1  0
 19 20  1  0
 20 22  1  0
 21 20  2  0
M  END
$$$$
