NEG.pdb
     RDKit          3D

 22 21  0  0  1  0  0  0  0  0999 V2000
    6.9109  -13.0245   17.2392 N   0  0  0  0  0  0  0  0  0  0  0  0
    7.6026  -13.9326   16.3897 C   0  0  0  0  0  0  0  0  0  0  0  0
    7.3434  -14.0277   15.1472 O   0  0  0  0  0  0  0  0  0  0  0  0
    8.6649  -14.8139   16.9259 C   0  0  0  0  0  0  0  0  0  0  0  0
    8.8890  -14.5641   18.4119 C   0  0  2  0  0  0  0  0  0  0  0  0
    9.0221  -13.1357   18.6556 N   0  0  0  0  0  0  0  0  0  0  0  0
   10.0644  -15.2702   18.9196 C   0  0  0  0  0  0  0  0  0  0  0  0
   10.1486  -16.5185   18.7727 O   0  0  0  0  0  0  0  0  0  0  0  0
   11.1159  -14.5908   19.5735 N   0  0  0  0  0  0  0  0  0  0  0  0
   12.2612  -15.3516   20.1023 C   0  0  1  0  0  0  0  0  0  0  0  0
   13.5160  -14.7692   19.5201 C   0  0  0  0  0  0  0  0  0  0  0  0
   13.8894  -15.2820   18.1779 C   0  0  0  0  0  0  0  0  0  0  0  0
   15.1822  -14.7366   17.7103 C   0  0  0  0  0  0  0  0  0  0  0  0
   15.7529  -13.7289   18.1982 O   0  0  0  0  0  0  0  0  0  0  0  0
   12.2850  -15.2398   21.5900 C   0  0  0  0  0  0  0  0  0  0  0  0
   12.0853  -14.1108   22.1008 O   0  0  0  0  0  0  0  0  0  0  0  0
   15.8572  -15.3562   16.6479 O   0  0  0  0  0  0  0  0  0  0  0  0
   12.5220  -16.3457   22.4353 N   0  0  0  0  0  0  0  0  0  0  0  0
   12.5261  -16.2374   23.8827 C   0  0  0  0  0  0  0  0  0  0  0  0
   12.6074  -17.5398   24.5494 C   0  0  0  0  0  0  0  0  0  0  0  0
   12.5436  -18.5802   23.8603 O   0  0  0  0  0  0  0  0  0  0  0  0
   12.7536  -17.6698   25.9226 O   0  0  0  0  0  0  0  0  0  0  0  0
  1  2  1  0
  2  4  1  0
  2  3  2  0
  5  6  1  6
  5  4  1  0
  7  5  1  0
  7  8  2  0
  9  7  1  0
 10  9  1  0
 10 15  1  0
 10 11  1  6
 12 11  1  0
 12 13  1  0
 13 14  2  0
 15 16  2  0
 15 18  1  0
 17 13  1  0
 18 19  1  0
 19 20  1  0
 20 22  1  0
 21 20  2  0
M  END
$$$$
