NEG.pdb
     RDKit          3D

 22 21  0  0  1  0  0  0  0  0999 V2000
    3.9119  -19.8643   20.0562 N   0  0  0  0  0  0  0  0  0  0  0  0
    4.4040  -18.8013   20.8641 C   0  0  0  0  0  0  0  0  0  0  0  0
    4.6287  -17.6408   20.3919 O   0  0  0  0  0  0  0  0  0  0  0  0
    4.6773  -19.0071   22.3048 C   0  0  0  0  0  0  0  0  0  0  0  0
    5.8032  -18.1007   22.7862 C   0  0  2  0  0  0  0  0  0  0  0  0
    7.0273  -18.4111   22.0632 N   0  0  0  0  0  0  0  0  0  0  0  0
    6.0289  -18.2176   24.2261 C   0  0  0  0  0  0  0  0  0  0  0  0
    5.0808  -17.9862   25.0227 O   0  0  0  0  0  0  0  0  0  0  0  0
    7.2859  -18.5852   24.7550 N   0  0  0  0  0  0  0  0  0  0  0  0
    7.4755  -18.6476   26.2145 C   0  0  1  0  0  0  0  0  0  0  0  0
    7.4923  -20.0924   26.6207 C   0  0  0  0  0  0  0  0  0  0  0  0
    8.6492  -20.8776   26.1216 C   0  0  0  0  0  0  0  0  0  0  0  0
    8.6396  -22.2687   26.6238 C   0  0  0  0  0  0  0  0  0  0  0  0
    9.0368  -22.6219   27.7625 O   0  0  0  0  0  0  0  0  0  0  0  0
    8.7698  -17.9979   26.5735 C   0  0  0  0  0  0  0  0  0  0  0  0
    9.4702  -17.5239   25.6460 O   0  0  0  0  0  0  0  0  0  0  0  0
    8.1610  -23.3025   25.8049 O   0  0  0  0  0  0  0  0  0  0  0  0
    9.2311  -17.8982   27.9044 N   0  0  0  0  0  0  0  0  0  0  0  0
   10.4724  -17.2324   28.2543 C   0  0  0  0  0  0  0  0  0  0  0  0
   10.7375  -17.2463   29.6955 C   0  0  0  0  0  0  0  0  0  0  0  0
    9.9874  -17.9073   30.4450 O   0  0  0  0  0  0  0  0  0  0  0  0
   11.7932  -16.5530   30.2690 O   0  0  0  0  0  0  0  0  0  0  0  0
  1  2  1  0
  2  4  1  0
  2  3  2  0
  5  6  1  6
  5  4  1  0
  7  5  1  0
  7  8  2  0
  9  7  1  0
 10  9  1  0
 10 15  1  0
 10 11  1  6
 12 11  1  0
 12 13  1  0
 13 14  2  0
 15 16  2  0
 15 18  1  0
 17 13  1  0
 18 19  1  0
 19 20  1  0
 20 22  1  0
 21 20  2  0
M  END
$$$$
