NEG.pdb
     RDKit          3D

 22 21  0  0  1  0  0  0  0  0999 V2000
    8.2419  -18.0526   15.3650 N   0  0  0  0  0  0  0  0  0  0  0  0
    7.0768  -17.7443   16.1215 C   0  0  0  0  0  0  0  0  0  0  0  0
    5.9441  -17.5550   15.5725 O   0  0  0  0  0  0  0  0  0  0  0  0
    7.1381  -17.6306   17.5966 C   0  0  0  0  0  0  0  0  0  0  0  0
    8.5676  -17.7822   18.1012 C   0  0  2  0  0  0  0  0  0  0  0  0
    9.1050  -19.0661   17.6768 N   0  0  0  0  0  0  0  0  0  0  0  0
    8.6560  -17.6584   19.5554 C   0  0  0  0  0  0  0  0  0  0  0  0
    8.2618  -16.5993   20.1122 O   0  0  0  0  0  0  0  0  0  0  0  0
    9.1727  -18.6973   20.3607 N   0  0  0  0  0  0  0  0  0  0  0  0
    9.1277  -18.5767   21.8282 C   0  0  1  0  0  0  0  0  0  0  0  0
    9.2649  -19.9522   22.4130 C   0  0  0  0  0  0  0  0  0  0  0  0
   10.6491  -20.4870   22.4566 C   0  0  0  0  0  0  0  0  0  0  0  0
   10.7034  -21.8532   23.0208 C   0  0  0  0  0  0  0  0  0  0  0  0
   10.1430  -22.8589   22.5172 O   0  0  0  0  0  0  0  0  0  0  0  0
   10.2507  -17.7085   22.2880 C   0  0  0  0  0  0  0  0  0  0  0  0
   11.0546  -17.2768   21.4263 O   0  0  0  0  0  0  0  0  0  0  0  0
   11.4210  -22.0916   24.2026 O   0  0  0  0  0  0  0  0  0  0  0  0
   10.4404  -17.3590   23.6429 N   0  0  0  0  0  0  0  0  0  0  0  0
   11.3448  -16.3027   24.0590 C   0  0  0  0  0  0  0  0  0  0  0  0
   11.3597  -16.1075   25.5113 C   0  0  0  0  0  0  0  0  0  0  0  0
   10.5609  -16.7563   26.2200 O   0  0  0  0  0  0  0  0  0  0  0  0
   12.2288  -15.2275   26.1392 O   0  0  0  0  0  0  0  0  0  0  0  0
  1  2  1  0
  2  4  1  0
  2  3  2  0
  5  6  1  1
  5  4  1  0
  7  5  1  0
  7  8  2  0
  9  7  1  0
 10  9  1  0
 10 15  1  0
 10 11  1  1
 12 11  1  0
 12 13  1  0
 13 14  2  0
 15 16  2  0
 15 18  1  0
 17 13  1  0
 18 19  1  0
 19 20  1  0
 20 22  1  0
 21 20  2  0
M  END
$$$$
