NEG.pdb
     RDKit          3D

 22 21  0  0  1  0  0  0  0  0999 V2000
   10.5820  -19.2309   15.7937 N   0  0  0  0  0  0  0  0  0  0  0  0
   11.8600  -18.8342   16.2776 C   0  0  0  0  0  0  0  0  0  0  0  0
   12.9201  -18.9822   15.5888 O   0  0  0  0  0  0  0  0  0  0  0  0
   12.0078  -18.2256   17.6194 C   0  0  0  0  0  0  0  0  0  0  0  0
   10.7008  -18.2898   18.3996 C   0  0  2  0  0  0  0  0  0  0  0  0
    9.6688  -17.5473   17.6917 N   0  0  0  0  0  0  0  0  0  0  0  0
   10.8440  -17.7745   19.7604 C   0  0  0  0  0  0  0  0  0  0  0  0
   10.6712  -16.5459   19.9791 O   0  0  0  0  0  0  0  0  0  0  0  0
   11.1717  -18.6178   20.8450 N   0  0  0  0  0  0  0  0  0  0  0  0
   11.2032  -18.0717   22.2128 C   0  0  1  0  0  0  0  0  0  0  0  0
   10.7744  -19.1564   23.1574 C   0  0  0  0  0  0  0  0  0  0  0  0
   10.7883  -18.7869   24.5951 C   0  0  0  0  0  0  0  0  0  0  0  0
   10.4503  -19.9305   25.4700 C   0  0  0  0  0  0  0  0  0  0  0  0
   10.4992  -19.9108   26.7256 O   0  0  0  0  0  0  0  0  0  0  0  0
   12.5904  -17.6274   22.5364 C   0  0  0  0  0  0  0  0  0  0  0  0
   13.4560  -18.5086   22.7591 O   0  0  0  0  0  0  0  0  0  0  0  0
   10.0399  -21.1458   24.9018 O   0  0  0  0  0  0  0  0  0  0  0  0
   12.9609  -16.2664   22.6010 N   0  0  0  0  0  0  0  0  0  0  0  0
   14.2169  -15.8241   23.1786 C   0  0  0  0  0  0  0  0  0  0  0  0
   15.3207  -15.8369   22.2149 C   0  0  0  0  0  0  0  0  0  0  0  0
   16.4290  -15.3700   22.5540 O   0  0  0  0  0  0  0  0  0  0  0  0
   15.1888  -16.3492   20.9326 O   0  0  0  0  0  0  0  0  0  0  0  0
  1  2  1  0
  2  4  1  0
  2  3  2  0
  5  6  1  6
  5  4  1  0
  7  5  1  0
  7  8  2  0
  9  7  1  0
 10  9  1  0
 10 15  1  0
 10 11  1  1
 12 11  1  0
 12 13  1  0
 13 14  2  0
 15 16  2  0
 15 18  1  0
 17 13  1  0
 18 19  1  0
 19 20  1  0
 20 22  1  0
 21 20  2  0
M  END
$$$$
