NEG.pdb
     RDKit          3D

 22 21  0  0  1  0  0  0  0  0999 V2000
    7.8820  -14.7075   18.8348 N   0  0  0  0  0  0  0  0  0  0  0  0
    6.9236  -15.6615   19.2777 C   0  0  0  0  0  0  0  0  0  0  0  0
    6.2288  -16.3505   18.4637 O   0  0  0  0  0  0  0  0  0  0  0  0
    6.6946  -15.8924   20.7223 C   0  0  0  0  0  0  0  0  0  0  0  0
    7.6556  -15.0688   21.5703 C   0  0  2  0  0  0  0  0  0  0  0  0
    8.9266  -14.9279   20.8759 N   0  0  0  0  0  0  0  0  0  0  0  0
    7.8696  -15.6572   22.8916 C   0  0  0  0  0  0  0  0  0  0  0  0
    6.8757  -15.9380   23.6131 O   0  0  0  0  0  0  0  0  0  0  0  0
    9.1652  -15.9230   23.3871 N   0  0  0  0  0  0  0  0  0  0  0  0
    9.3340  -16.4244   24.7620 C   0  0  1  0  0  0  0  0  0  0  0  0
   10.3262  -17.5501   24.7286 C   0  0  0  0  0  0  0  0  0  0  0  0
   11.0235  -17.7421   23.4320 C   0  0  0  0  0  0  0  0  0  0  0  0
   12.0038  -18.8485   23.4825 C   0  0  0  0  0  0  0  0  0  0  0  0
   13.0576  -18.8410   24.1670 O   0  0  0  0  0  0  0  0  0  0  0  0
    9.8370  -15.3218   25.6324 C   0  0  0  0  0  0  0  0  0  0  0  0
   10.1102  -14.2216   25.0937 O   0  0  0  0  0  0  0  0  0  0  0  0
   11.7831  -20.0107   22.7282 O   0  0  0  0  0  0  0  0  0  0  0  0
   10.0155  -15.4695   27.0253 N   0  0  0  0  0  0  0  0  0  0  0  0
   10.1446  -14.3355   27.9221 C   0  0  0  0  0  0  0  0  0  0  0  0
   10.3562  -14.7351   29.3160 C   0  0  0  0  0  0  0  0  0  0  0  0
   10.3114  -15.9477   29.6140 O   0  0  0  0  0  0  0  0  0  0  0  0
   10.6066  -13.8194   30.3273 O   0  0  0  0  0  0  0  0  0  0  0  0
  1  2  1  0
  2  4  1  0
  2  3  2  0
  5  6  1  6
  5  4  1  0
  7  5  1  0
  7  8  2  0
  9  7  1  0
 10  9  1  0
 10 15  1  0
 10 11  1  6
 12 11  1  0
 12 13  1  0
 13 14  2  0
 15 16  2  0
 15 18  1  0
 17 13  1  0
 18 19  1  0
 19 20  1  0
 20 22  1  0
 21 20  2  0
M  END
$$$$
