NEG.pdb
     RDKit          3D

 22 21  0  0  1  0  0  0  0  0999 V2000
    7.5595  -11.9837   19.3311 N   0  0  0  0  0  0  0  0  0  0  0  0
    7.8343  -12.6558   20.5548 C   0  0  0  0  0  0  0  0  0  0  0  0
    7.2741  -12.3253   21.6489 O   0  0  0  0  0  0  0  0  0  0  0  0
    8.7958  -13.7810   20.6030 C   0  0  0  0  0  0  0  0  0  0  0  0
    9.4433  -14.0101   19.2432 C   0  0  2  0  0  0  0  0  0  0  0  0
    8.4150  -14.2688   18.2466 N   0  0  0  0  0  0  0  0  0  0  0  0
   10.4050  -15.1112   19.2678 C   0  0  0  0  0  0  0  0  0  0  0  0
   10.0157  -16.2798   19.0032 O   0  0  0  0  0  0  0  0  0  0  0  0
   11.7664  -14.9034   19.5807 N   0  0  0  0  0  0  0  0  0  0  0  0
   12.7037  -16.0397   19.5591 C   0  0  1  0  0  0  0  0  0  0  0  0
   13.9426  -15.6077   18.8301 C   0  0  0  0  0  0  0  0  0  0  0  0
   13.7445  -14.5327   17.8255 C   0  0  0  0  0  0  0  0  0  0  0  0
   14.9949  -14.1987   17.1096 C   0  0  0  0  0  0  0  0  0  0  0  0
   15.3289  -14.6697   15.9935 O   0  0  0  0  0  0  0  0  0  0  0  0
   13.0411  -16.4295   20.9592 C   0  0  0  0  0  0  0  0  0  0  0  0
   13.7086  -17.4776   21.1362 O   0  0  0  0  0  0  0  0  0  0  0  0
   15.9044  -13.2949   17.6791 O   0  0  0  0  0  0  0  0  0  0  0  0
   12.6407  -15.6707   22.0808 N   0  0  0  0  0  0  0  0  0  0  0  0
   12.9280  -16.0782   23.4440 C   0  0  0  0  0  0  0  0  0  0  0  0
   14.3350  -15.8905   23.8081 C   0  0  0  0  0  0  0  0  0  0  0  0
   15.1316  -15.4536   22.9504 O   0  0  0  0  0  0  0  0  0  0  0  0
   14.8253  -16.1783   25.0733 O   0  0  0  0  0  0  0  0  0  0  0  0
  1  2  1  0
  2  4  1  0
  2  3  2  0
  5  6  1  6
  5  4  1  0
  7  5  1  0
  7  8  2  0
  9  7  1  0
 10  9  1  0
 10 15  1  0
 10 11  1  6
 12 11  1  0
 12 13  1  0
 13 14  2  0
 15 16  2  0
 15 18  1  0
 17 13  1  0
 18 19  1  0
 19 20  1  0
 20 22  1  0
 21 20  2  0
M  END
$$$$
