MFH.pdb
     RDKit          3D

 30 31  0  0  1  0  0  0  0  0999 V2000
    7.8034  -12.7362   17.6945 C   0  0  0  0  0  0  0  0  0  0  0  0
    8.1021  -14.3491   16.8984 S   0  0  0  0  0  0  0  0  0  0  0  0
    8.4591  -15.5360   18.2186 C   0  0  0  0  0  0  0  0  0  0  0  0
    9.3362  -14.9360   19.2939 C   0  0  0  0  0  0  0  0  0  0  0  0
    9.5558  -15.8868   20.4494 C   0  0  2  0  0  0  0  0  0  0  0  0
    8.4453  -16.8230   20.4395 N   0  0  0  0  0  0  0  0  0  0  0  0
    9.5774  -15.0736   21.6857 C   0  0  0  0  0  0  0  0  0  0  0  0
   10.4909  -14.2513   21.9247 O   0  0  0  0  0  0  0  0  0  0  0  0
    8.5392  -15.2243   22.6293 N   0  0  0  0  0  0  0  0  0  0  0  0
    8.4498  -14.3011   23.7400 C   0  0  1  0  0  0  0  0  0  0  0  0
    7.0644  -14.2182   24.3207 C   0  0  0  0  0  0  0  0  0  0  0  0
    6.9749  -13.3926   25.5245 C   0  0  0  0  0  0  0  0  0  0  0  0
    6.5499  -13.9747   26.7087 C   0  0  0  0  0  0  0  0  0  0  0  0
    6.4309  -13.2890   27.8951 C   0  0  0  0  0  0  0  0  0  0  0  0
    6.7608  -11.9344   27.8850 C   0  0  0  0  0  0  0  0  0  0  0  0
    7.1868  -11.3168   26.7329 C   0  0  0  0  0  0  0  0  0  0  0  0
    7.2860  -12.0504   25.5808 C   0  0  0  0  0  0  0  0  0  0  0  0
    9.3411  -14.8615   24.8199 C   0  0  0  0  0  0  0  0  0  0  0  0
    9.5766  -14.2164   25.8905 O   0  0  0  0  0  0  0  0  0  0  0  0
    9.9526  -16.1267   24.6891 N   0  0  0  0  0  0  0  0  0  0  0  0
   10.5877  -16.7536   25.8553 C   0  0  1  0  0  0  0  0  0  0  0  0
    9.5661  -16.9596   26.9547 C   0  0  0  0  0  0  0  0  0  0  0  0
   10.1308  -17.6494   28.1233 C   0  0  0  0  0  0  0  0  0  0  0  0
   11.4243  -18.0923   28.2522 C   0  0  0  0  0  0  0  0  0  0  0  0
   11.5409  -18.6775   29.4553 N   0  0  0  0  0  0  0  0  0  0  0  0
   10.3678  -18.6135   30.0760 C   0  0  0  0  0  0  0  0  0  0  0  0
    9.5025  -17.9804   29.2535 N   0  0  0  0  0  0  0  0  0  0  0  0
   11.2310  -17.9994   25.4055 C   0  0  0  0  0  0  0  0  0  0  0  0
   10.8341  -18.5866   24.3757 O   0  0  0  0  0  0  0  0  0  0  0  0
   12.2839  -18.5387   26.1135 O   0  0  0  0  0  0  0  0  0  0  0  0
  2  1  1  0
  3  2  1  0
  4  3  1  0
  5  4  1  0
  5  6  1  1
  7  5  1  0
  8  7  2  0
  9  7  1  0
 10  9  1  0
 11 12  1  0
 10 11  1  1
 12 13  2  0
 13 14  1  0
 15 14  2  0
 16 15  1  0
 17 16  2  0
 17 12  1  0
 18 10  1  0
 18 19  2  0
 20 18  1  0
 21 22  1  1
 21 20  1  0
 23 22  1  0
 24 23  2  0
 25 24  1  0
 25 26  1  0
 26 27  2  0
 27 23  1  0
 28 21  1  0
 29 28  2  0
 30 28  1  0
M  END
$$$$
