MFH.pdb
     RDKit          3D

 30 31  0  0  1  0  0  0  0  0999 V2000
    8.5420  -11.8753   18.4263 C   0  0  0  0  0  0  0  0  0  0  0  0
    7.7465  -13.2282   17.4981 S   0  0  0  0  0  0  0  0  0  0  0  0
    8.2183  -14.7778   18.3074 C   0  0  0  0  0  0  0  0  0  0  0  0
    8.5048  -14.5808   19.7787 C   0  0  0  0  0  0  0  0  0  0  0  0
    8.9481  -15.8608   20.4515 C   0  0  2  0  0  0  0  0  0  0  0  0
    7.8485  -16.8019   20.3293 N   0  0  0  0  0  0  0  0  0  0  0  0
    9.2362  -15.5334   21.8657 C   0  0  0  0  0  0  0  0  0  0  0  0
   10.3275  -15.0350   22.2237 O   0  0  0  0  0  0  0  0  0  0  0  0
    8.2547  -15.7883   22.8469 N   0  0  0  0  0  0  0  0  0  0  0  0
    8.4129  -15.2277   24.1716 C   0  0  1  0  0  0  0  0  0  0  0  0
    7.1001  -14.8834   24.8208 C   0  0  0  0  0  0  0  0  0  0  0  0
    7.2333  -14.0946   26.0450 C   0  0  0  0  0  0  0  0  0  0  0  0
    7.0712  -12.7193   25.9794 C   0  0  0  0  0  0  0  0  0  0  0  0
    7.1754  -11.8869   27.0694 C   0  0  0  0  0  0  0  0  0  0  0  0
    7.4605  -12.4786   28.2992 C   0  0  0  0  0  0  0  0  0  0  0  0
    7.6290  -13.8386   28.4098 C   0  0  0  0  0  0  0  0  0  0  0  0
    7.5135  -14.6179   27.2896 C   0  0  0  0  0  0  0  0  0  0  0  0
    9.0415  -16.3121   25.0103 C   0  0  0  0  0  0  0  0  0  0  0  0
    8.5726  -17.4942   25.0312 O   0  0  0  0  0  0  0  0  0  0  0  0
   10.1781  -16.0618   25.8088 N   0  0  0  0  0  0  0  0  0  0  0  0
   10.7690  -17.1503   26.5976 C   0  0  1  0  0  0  0  0  0  0  0  0
   12.2620  -17.2192   26.3508 C   0  0  0  0  0  0  0  0  0  0  0  0
   12.5882  -17.8138   25.0468 C   0  0  0  0  0  0  0  0  0  0  0  0
   11.6866  -18.3089   24.1371 C   0  0  0  0  0  0  0  0  0  0  0  0
   12.3778  -18.7723   23.0830 N   0  0  0  0  0  0  0  0  0  0  0  0
   13.6738  -18.5826   23.3064 C   0  0  0  0  0  0  0  0  0  0  0  0
   13.7998  -17.9927   24.5156 N   0  0  0  0  0  0  0  0  0  0  0  0
   10.4130  -16.9312   28.0095 C   0  0  0  0  0  0  0  0  0  0  0  0
   10.5178  -15.7974   28.5254 O   0  0  0  0  0  0  0  0  0  0  0  0
    9.9564  -17.9748   28.7863 O   0  0  0  0  0  0  0  0  0  0  0  0
  2  1  1  0
  3  2  1  0
  4  3  1  0
  5  4  1  0
  5  6  1  1
  7  5  1  0
  8  7  2  0
  9  7  1  0
 10  9  1  0
 11 12  1  0
 10 11  1  1
 12 13  2  0
 13 14  1  0
 15 14  2  0
 16 15  1  0
 17 16  2  0
 17 12  1  0
 18 10  1  0
 18 19  2  0
 20 18  1  0
 21 22  1  1
 21 20  1  0
 23 22  1  0
 24 23  2  0
 25 24  1  0
 25 26  1  0
 26 27  2  0
 27 23  1  0
 28 21  1  0
 29 28  2  0
 30 28  1  0
M  END
$$$$
