MFH.pdb
     RDKit          3D

 30 31  0  0  1  0  0  0  0  0999 V2000
    9.0795  -21.1709   21.6077 C   0  0  0  0  0  0  0  0  0  0  0  0
    9.5203  -20.9810   19.8487 S   0  0  0  0  0  0  0  0  0  0  0  0
    9.3299  -19.2276   19.4387 C   0  0  0  0  0  0  0  0  0  0  0  0
    9.4221  -18.3487   20.6653 C   0  0  0  0  0  0  0  0  0  0  0  0
    9.0811  -16.9066   20.3627 C   0  0  2  0  0  0  0  0  0  0  0  0
   10.0101  -16.4616   19.3387 N   0  0  0  0  0  0  0  0  0  0  0  0
    9.2455  -16.1459   21.6214 C   0  0  0  0  0  0  0  0  0  0  0  0
   10.3566  -15.7011   21.9892 O   0  0  0  0  0  0  0  0  0  0  0  0
    8.1189  -15.9106   22.4379 N   0  0  0  0  0  0  0  0  0  0  0  0
    8.2732  -15.1481   23.6580 C   0  0  1  0  0  0  0  0  0  0  0  0
    6.9590  -14.6981   24.2359 C   0  0  0  0  0  0  0  0  0  0  0  0
    7.0920  -13.8368   25.4102 C   0  0  0  0  0  0  0  0  0  0  0  0
    7.2638  -12.4733   25.2277 C   0  0  0  0  0  0  0  0  0  0  0  0
    7.3986  -11.5770   26.2623 C   0  0  0  0  0  0  0  0  0  0  0  0
    7.3573  -12.0882   27.5587 C   0  0  0  0  0  0  0  0  0  0  0  0
    7.1886  -13.4336   27.7856 C   0  0  0  0  0  0  0  0  0  0  0  0
    7.0598  -14.2790   26.7159 C   0  0  0  0  0  0  0  0  0  0  0  0
    8.8901  -16.0894   24.6620 C   0  0  0  0  0  0  0  0  0  0  0  0
    8.6411  -17.3366   24.6463 O   0  0  0  0  0  0  0  0  0  0  0  0
    9.7709  -15.6266   25.6630 N   0  0  0  0  0  0  0  0  0  0  0  0
   10.4864  -16.5917   26.5075 C   0  0  1  0  0  0  0  0  0  0  0  0
   11.9635  -16.5801   26.1721 C   0  0  0  0  0  0  0  0  0  0  0  0
   12.2687  -17.3464   24.9555 C   0  0  0  0  0  0  0  0  0  0  0  0
   11.3604  -18.0208   24.1772 C   0  0  0  0  0  0  0  0  0  0  0  0
   12.0323  -18.6002   23.1690 N   0  0  0  0  0  0  0  0  0  0  0  0
   13.3227  -18.3097   23.2943 C   0  0  0  0  0  0  0  0  0  0  0  0
   13.4647  -17.5381   24.3945 N   0  0  0  0  0  0  0  0  0  0  0  0
   10.1971  -16.2645   27.9138 C   0  0  0  0  0  0  0  0  0  0  0  0
    9.7822  -17.1426   28.7008 O   0  0  0  0  0  0  0  0  0  0  0  0
   10.3808  -14.9823   28.3860 O   0  0  0  0  0  0  0  0  0  0  0  0
  2  1  1  0
  3  2  1  0
  4  3  1  0
  5  4  1  0
  5  6  1  6
  7  5  1  0
  8  7  2  0
  9  7  1  0
 10  9  1  0
 11 12  1  0
 10 11  1  1
 12 13  2  0
 13 14  1  0
 15 14  2  0
 16 15  1  0
 17 16  2  0
 17 12  1  0
 18 10  1  0
 18 19  2  0
 20 18  1  0
 21 22  1  1
 21 20  1  0
 23 22  1  0
 24 23  2  0
 25 24  1  0
 25 26  1  0
 26 27  2  0
 27 23  1  0
 28 21  1  0
 29 28  2  0
 30 28  1  0
M  END
$$$$
