MFH.pdb
     RDKit          3D

 30 31  0  0  1  0  0  0  0  0999 V2000
    7.2379  -20.9654   20.8654 C   0  0  0  0  0  0  0  0  0  0  0  0
    8.6573  -20.9505   19.7210 S   0  0  0  0  0  0  0  0  0  0  0  0
    8.9858  -19.2194   19.3033 C   0  0  0  0  0  0  0  0  0  0  0  0
    8.8850  -18.3187   20.5134 C   0  0  0  0  0  0  0  0  0  0  0  0
    9.0031  -16.8556   20.1488 C   0  0  2  0  0  0  0  0  0  0  0  0
   10.1646  -16.7305   19.2857 N   0  0  0  0  0  0  0  0  0  0  0  0
    9.1739  -16.1036   21.4119 C   0  0  0  0  0  0  0  0  0  0  0  0
   10.3036  -15.7917   21.8524 O   0  0  0  0  0  0  0  0  0  0  0  0
    8.0320  -15.7227   22.1482 N   0  0  0  0  0  0  0  0  0  0  0  0
    8.1921  -14.9218   23.3427 C   0  0  1  0  0  0  0  0  0  0  0  0
    6.9584  -14.1323   23.6865 C   0  0  0  0  0  0  0  0  0  0  0  0
    7.0244  -13.4662   24.9868 C   0  0  0  0  0  0  0  0  0  0  0  0
    7.8089  -12.3312   25.1215 C   0  0  0  0  0  0  0  0  0  0  0  0
    7.9399  -11.6307   26.2980 C   0  0  0  0  0  0  0  0  0  0  0  0
    7.2366  -12.1047   27.4045 C   0  0  0  0  0  0  0  0  0  0  0  0
    6.4469  -13.2266   27.3155 C   0  0  0  0  0  0  0  0  0  0  0  0
    6.3546  -13.8836   26.1175 C   0  0  0  0  0  0  0  0  0  0  0  0
    8.4125  -15.8973   24.4717 C   0  0  0  0  0  0  0  0  0  0  0  0
    7.7216  -16.9599   24.5783 O   0  0  0  0  0  0  0  0  0  0  0  0
    9.3957  -15.6731   25.4591 N   0  0  0  0  0  0  0  0  0  0  0  0
    9.9818  -16.8126   26.1763 C   0  0  1  0  0  0  0  0  0  0  0  0
   11.1890  -17.3340   25.4244 C   0  0  0  0  0  0  0  0  0  0  0  0
   10.8620  -18.4795   24.5634 C   0  0  0  0  0  0  0  0  0  0  0  0
    9.6431  -19.1067   24.4827 C   0  0  0  0  0  0  0  0  0  0  0  0
    9.7540  -20.1093   23.5960 N   0  0  0  0  0  0  0  0  0  0  0  0
   10.9962  -20.1261   23.1249 C   0  0  0  0  0  0  0  0  0  0  0  0
   11.6753  -19.1220   23.7222 N   0  0  0  0  0  0  0  0  0  0  0  0
   10.2843  -16.3761   27.5498 C   0  0  0  0  0  0  0  0  0  0  0  0
   10.6382  -17.2024   28.4184 O   0  0  0  0  0  0  0  0  0  0  0  0
   10.1828  -15.0465   27.8999 O   0  0  0  0  0  0  0  0  0  0  0  0
  2  1  1  0
  3  2  1  0
  4  3  1  0
  5  4  1  0
  5  6  1  6
  7  5  1  0
  8  7  2  0
  9  7  1  0
 10  9  1  0
 11 12  1  0
 10 11  1  1
 12 13  2  0
 13 14  1  0
 15 14  2  0
 16 15  1  0
 17 16  2  0
 17 12  1  0
 18 10  1  0
 18 19  2  0
 20 18  1  0
 21 22  1  6
 21 20  1  0
 23 22  1  0
 24 23  2  0
 25 24  1  0
 25 26  1  0
 26 27  2  0
 27 23  1  0
 28 21  1  0
 29 28  2  0
 30 28  1  0
M  END
$$$$
