MFH.pdb
     RDKit          3D

 30 31  0  0  1  0  0  0  0  0999 V2000
    7.3452  -14.0494   15.0271 C   0  0  0  0  0  0  0  0  0  0  0  0
    8.2439  -13.4510   16.4964 S   0  0  0  0  0  0  0  0  0  0  0  0
    8.3683  -14.8433   17.6476 C   0  0  0  0  0  0  0  0  0  0  0  0
    9.0092  -14.4378   18.9554 C   0  0  0  0  0  0  0  0  0  0  0  0
    9.1459  -15.6024   19.9107 C   0  0  2  0  0  0  0  0  0  0  0  0
    7.9667  -16.4317   19.7329 N   0  0  0  0  0  0  0  0  0  0  0  0
    9.2204  -15.0394   21.2773 C   0  0  0  0  0  0  0  0  0  0  0  0
   10.1480  -14.2773   21.6327 O   0  0  0  0  0  0  0  0  0  0  0  0
    8.2179  -15.3674   22.2145 N   0  0  0  0  0  0  0  0  0  0  0  0
    8.2930  -14.8244   23.5537 C   0  0  1  0  0  0  0  0  0  0  0  0
    6.9418  -14.4927   24.1263 C   0  0  0  0  0  0  0  0  0  0  0  0
    6.9955  -13.8617   25.4445 C   0  0  0  0  0  0  0  0  0  0  0  0
    7.2788  -12.5074   25.5304 C   0  0  0  0  0  0  0  0  0  0  0  0
    7.3527  -11.8182   26.7184 C   0  0  0  0  0  0  0  0  0  0  0  0
    7.1272  -12.5399   27.8898 C   0  0  0  0  0  0  0  0  0  0  0  0
    6.8432  -13.8845   27.8508 C   0  0  0  0  0  0  0  0  0  0  0  0
    6.7825  -14.5181   26.6383 C   0  0  0  0  0  0  0  0  0  0  0  0
    8.8734  -15.9182   24.4147 C   0  0  0  0  0  0  0  0  0  0  0  0
    8.3474  -17.0751   24.4663 O   0  0  0  0  0  0  0  0  0  0  0  0
   10.0261  -15.7051   25.2007 N   0  0  0  0  0  0  0  0  0  0  0  0
   10.5878  -16.8116   25.9860 C   0  0  1  0  0  0  0  0  0  0  0  0
   12.0896  -16.8718   25.7979 C   0  0  0  0  0  0  0  0  0  0  0  0
   12.4691  -17.2299   24.4238 C   0  0  0  0  0  0  0  0  0  0  0  0
   11.6894  -17.9124   23.5228 C   0  0  0  0  0  0  0  0  0  0  0  0
   12.3956  -18.0504   22.3889 N   0  0  0  0  0  0  0  0  0  0  0  0
   13.5836  -17.4787   22.5544 C   0  0  0  0  0  0  0  0  0  0  0  0
   13.6255  -16.9749   23.8075 N   0  0  0  0  0  0  0  0  0  0  0  0
   10.1746  -16.6276   27.3873 C   0  0  0  0  0  0  0  0  0  0  0  0
    9.5049  -15.6290   27.7291 O   0  0  0  0  0  0  0  0  0  0  0  0
   10.5196  -17.5561   28.3463 O   0  0  0  0  0  0  0  0  0  0  0  0
  2  1  1  0
  3  2  1  0
  4  3  1  0
  5  4  1  0
  5  6  1  1
  7  5  1  0
  8  7  2  0
  9  7  1  0
 10  9  1  0
 11 12  1  0
 10 11  1  1
 12 13  2  0
 13 14  1  0
 15 14  2  0
 16 15  1  0
 17 16  2  0
 17 12  1  0
 18 10  1  0
 18 19  2  0
 20 18  1  0
 21 22  1  1
 21 20  1  0
 23 22  1  0
 24 23  2  0
 25 24  1  0
 25 26  1  0
 26 27  2  0
 27 23  1  0
 28 21  1  0
 29 28  2  0
 30 28  1  0
M  END
$$$$
