MFH.pdb
     RDKit          3D

 30 31  0  0  1  0  0  0  0  0999 V2000
    6.4203  -11.3875   19.5147 C   0  0  0  0  0  0  0  0  0  0  0  0
    8.0659  -12.1722   19.4883 S   0  0  0  0  0  0  0  0  0  0  0  0
    7.8774  -13.8278   20.1972 C   0  0  0  0  0  0  0  0  0  0  0  0
    9.2127  -14.4552   20.5269 C   0  0  0  0  0  0  0  0  0  0  0  0
    9.0618  -15.8052   21.1916 C   0  0  2  0  0  0  0  0  0  0  0  0
    7.6854  -16.2220   20.9877 N   0  0  0  0  0  0  0  0  0  0  0  0
    9.3734  -15.6223   22.6268 C   0  0  0  0  0  0  0  0  0  0  0  0
   10.2769  -14.8487   23.0176 O   0  0  0  0  0  0  0  0  0  0  0  0
    8.6329  -16.3391   23.5906 N   0  0  0  0  0  0  0  0  0  0  0  0
    8.8324  -16.0539   24.9952 C   0  0  1  0  0  0  0  0  0  0  0  0
    7.5508  -15.7281   25.7129 C   0  0  0  0  0  0  0  0  0  0  0  0
    7.3227  -14.2954   25.8973 C   0  0  0  0  0  0  0  0  0  0  0  0
    6.1420  -13.7373   25.4320 C   0  0  0  0  0  0  0  0  0  0  0  0
    5.8295  -12.4035   25.5545 C   0  0  0  0  0  0  0  0  0  0  0  0
    6.7651  -11.5841   26.1845 C   0  0  0  0  0  0  0  0  0  0  0  0
    7.9490  -12.0956   26.6610 C   0  0  0  0  0  0  0  0  0  0  0  0
    8.2061  -13.4323   26.5107 C   0  0  0  0  0  0  0  0  0  0  0  0
    9.3621  -17.3264   25.6074 C   0  0  0  0  0  0  0  0  0  0  0  0
    8.7091  -18.4162   25.5481 O   0  0  0  0  0  0  0  0  0  0  0  0
   10.6061  -17.3627   26.2730 N   0  0  0  0  0  0  0  0  0  0  0  0
   11.0363  -18.5942   26.9475 C   0  0  1  0  0  0  0  0  0  0  0  0
   12.4956  -18.8679   26.6474 C   0  0  0  0  0  0  0  0  0  0  0  0
   12.7643  -18.9590   25.2052 C   0  0  0  0  0  0  0  0  0  0  0  0
   11.9475  -19.5407   24.2670 C   0  0  0  0  0  0  0  0  0  0  0  0
   12.5496  -19.4298   23.0717 N   0  0  0  0  0  0  0  0  0  0  0  0
   13.7088  -18.8012   23.2349 C   0  0  0  0  0  0  0  0  0  0  0  0
   13.8378  -18.5130   24.5489 N   0  0  0  0  0  0  0  0  0  0  0  0
   10.7456  -18.4490   28.3837 C   0  0  0  0  0  0  0  0  0  0  0  0
   10.2933  -17.3757   28.8378 O   0  0  0  0  0  0  0  0  0  0  0  0
   10.9669  -19.4968   29.2520 O   0  0  0  0  0  0  0  0  0  0  0  0
  2  1  1  0
  3  2  1  0
  4  3  1  0
  5  4  1  0
  5  6  1  1
  7  5  1  0
  8  7  2  0
  9  7  1  0
 10  9  1  0
 11 12  1  0
 10 11  1  1
 12 13  2  0
 13 14  1  0
 15 14  2  0
 16 15  1  0
 17 16  2  0
 17 12  1  0
 18 10  1  0
 18 19  2  0
 20 18  1  0
 21 22  1  1
 21 20  1  0
 23 22  1  0
 24 23  2  0
 25 24  1  0
 25 26  1  0
 26 27  2  0
 27 23  1  0
 28 21  1  0
 29 28  2  0
 30 28  1  0
M  END
$$$$
