MFH.pdb
     RDKit          3D

 30 31  0  0  1  0  0  0  0  0999 V2000
    5.2769  -18.5550   24.0849 C   0  0  0  0  0  0  0  0  0  0  0  0
    5.5371  -19.8024   22.7808 S   0  0  0  0  0  0  0  0  0  0  0  0
    6.3937  -18.9753   21.4166 C   0  0  0  0  0  0  0  0  0  0  0  0
    6.4246  -17.4747   21.5977 C   0  0  0  0  0  0  0  0  0  0  0  0
    7.7139  -16.8643   21.0952 C   0  0  2  0  0  0  0  0  0  0  0  0
    8.2911  -17.8137   20.1596 N   0  0  0  0  0  0  0  0  0  0  0  0
    8.5855  -16.6545   22.2727 C   0  0  0  0  0  0  0  0  0  0  0  0
    8.7327  -17.5302   23.1554 O   0  0  0  0  0  0  0  0  0  0  0  0
    9.2755  -15.4315   22.4115 N   0  0  0  0  0  0  0  0  0  0  0  0
    8.9472  -14.5523   23.5131 C   0  0  1  0  0  0  0  0  0  0  0  0
    7.5264  -14.0602   23.4643 C   0  0  0  0  0  0  0  0  0  0  0  0
    7.1382  -13.2549   24.6217 C   0  0  0  0  0  0  0  0  0  0  0  0
    7.8275  -12.0813   24.8857 C   0  0  0  0  0  0  0  0  0  0  0  0
    7.5431  -11.2527   25.9460 C   0  0  0  0  0  0  0  0  0  0  0  0
    6.5004  -11.6317   26.7903 C   0  0  0  0  0  0  0  0  0  0  0  0
    5.7904  -12.7874   26.5657 C   0  0  0  0  0  0  0  0  0  0  0  0
    6.1185  -13.5737   25.4935 C   0  0  0  0  0  0  0  0  0  0  0  0
    9.0760  -15.3857   24.7635 C   0  0  0  0  0  0  0  0  0  0  0  0
    8.9317  -14.8774   25.9205 O   0  0  0  0  0  0  0  0  0  0  0  0
    9.3624  -16.7664   24.7038 N   0  0  0  0  0  0  0  0  0  0  0  0
    9.4073  -17.5558   25.9412 C   0  0  1  0  0  0  0  0  0  0  0  0
    8.7743  -18.9132   25.7144 C   0  0  0  0  0  0  0  0  0  0  0  0
    8.9599  -19.8171   26.8585 C   0  0  0  0  0  0  0  0  0  0  0  0
    9.5533  -19.4945   28.0541 C   0  0  0  0  0  0  0  0  0  0  0  0
    9.5398  -20.5911   28.8293 N   0  0  0  0  0  0  0  0  0  0  0  0
    8.9603  -21.5805   28.1580 C   0  0  0  0  0  0  0  0  0  0  0  0
    8.6047  -21.1009   26.9457 N   0  0  0  0  0  0  0  0  0  0  0  0
   10.8101  -17.6246   26.3837 C   0  0  0  0  0  0  0  0  0  0  0  0
   11.1304  -18.2987   27.3865 O   0  0  0  0  0  0  0  0  0  0  0  0
   11.7946  -16.9462   25.6972 O   0  0  0  0  0  0  0  0  0  0  0  0
  2  1  1  0
  3  2  1  0
  4  3  1  0
  5  4  1  0
  5  6  1  6
  7  5  1  0
  8  7  2  0
  9  7  1  0
 10  9  1  0
 11 12  1  0
 10 11  1  6
 12 13  2  0
 13 14  1  0
 15 14  2  0
 16 15  1  0
 17 16  2  0
 17 12  1  0
 18 10  1  0
 18 19  2  0
 20 18  1  0
 21 22  1  6
 21 20  1  0
 23 22  1  0
 24 23  2  0
 25 24  1  0
 25 26  1  0
 26 27  2  0
 27 23  1  0
 28 21  1  0
 29 28  2  0
 30 28  1  0
M  END
$$$$
