MFH.pdb
     RDKit          3D

 30 31  0  0  1  0  0  0  0  0999 V2000
    6.5769  -12.6616   17.5308 C   0  0  0  0  0  0  0  0  0  0  0  0
    7.6696  -12.5187   18.9835 S   0  0  0  0  0  0  0  0  0  0  0  0
    7.8606  -14.1829   19.6712 C   0  0  0  0  0  0  0  0  0  0  0  0
    8.7166  -14.1830   20.9174 C   0  0  0  0  0  0  0  0  0  0  0  0
    8.8954  -15.5720   21.4884 C   0  0  2  0  0  0  0  0  0  0  0  0
    7.6262  -16.2593   21.3257 N   0  0  0  0  0  0  0  0  0  0  0  0
    9.2557  -15.4143   22.9151 C   0  0  0  0  0  0  0  0  0  0  0  0
   10.2729  -14.7809   23.2779 O   0  0  0  0  0  0  0  0  0  0  0  0
    8.4313  -15.9933   23.9032 N   0  0  0  0  0  0  0  0  0  0  0  0
    8.7970  -15.8646   25.2974 C   0  0  1  0  0  0  0  0  0  0  0  0
    7.6159  -15.5907   26.1882 C   0  0  0  0  0  0  0  0  0  0  0  0
    7.3845  -14.1698   26.4453 C   0  0  0  0  0  0  0  0  0  0  0  0
    6.1566  -13.6181   26.1141 C   0  0  0  0  0  0  0  0  0  0  0  0
    5.8367  -12.2953   26.3139 C   0  0  0  0  0  0  0  0  0  0  0  0
    6.8154  -11.4811   26.8821 C   0  0  0  0  0  0  0  0  0  0  0  0
    8.0469  -11.9866   27.2258 C   0  0  0  0  0  0  0  0  0  0  0  0
    8.3089  -13.3122   27.0034 C   0  0  0  0  0  0  0  0  0  0  0  0
    9.3496  -17.2064   25.7084 C   0  0  0  0  0  0  0  0  0  0  0  0
    8.7069  -18.2838   25.4996 O   0  0  0  0  0  0  0  0  0  0  0  0
   10.6048  -17.3243   26.3430 N   0  0  0  0  0  0  0  0  0  0  0  0
   11.0806  -18.6436   26.7781 C   0  0  1  0  0  0  0  0  0  0  0  0
   12.5436  -18.8110   26.4231 C   0  0  0  0  0  0  0  0  0  0  0  0
   12.7765  -18.7757   24.9722 C   0  0  0  0  0  0  0  0  0  0  0  0
   11.8147  -18.8782   23.9976 C   0  0  0  0  0  0  0  0  0  0  0  0
   12.4288  -18.8133   22.8049 N   0  0  0  0  0  0  0  0  0  0  0  0
   13.7350  -18.6746   23.0051 C   0  0  0  0  0  0  0  0  0  0  0  0
   13.9455  -18.6518   24.3397 N   0  0  0  0  0  0  0  0  0  0  0  0
   10.8036  -18.7723   28.2186 C   0  0  0  0  0  0  0  0  0  0  0  0
   10.3655  -17.8017   28.8733 O   0  0  0  0  0  0  0  0  0  0  0  0
   11.0225  -19.9679   28.8694 O   0  0  0  0  0  0  0  0  0  0  0  0
  2  1  1  0
  3  2  1  0
  4  3  1  0
  5  4  1  0
  5  6  1  1
  7  5  1  0
  8  7  2  0
  9  7  1  0
 10  9  1  0
 11 12  1  0
 10 11  1  1
 12 13  2  0
 13 14  1  0
 15 14  2  0
 16 15  1  0
 17 16  2  0
 17 12  1  0
 18 10  1  0
 18 19  2  0
 20 18  1  0
 21 22  1  1
 21 20  1  0
 23 22  1  0
 24 23  2  0
 25 24  1  0
 25 26  1  0
 26 27  2  0
 27 23  1  0
 28 21  1  0
 29 28  2  0
 30 28  1  0
M  END
$$$$
