MFH.pdb
     RDKit          3D

 30 31  0  0  1  0  0  0  0  0999 V2000
    9.7194  -21.4445   20.5090 C   0  0  0  0  0  0  0  0  0  0  0  0
    8.1296  -20.8370   19.8547 S   0  0  0  0  0  0  0  0  0  0  0  0
    8.3734  -19.1043   19.3883 C   0  0  0  0  0  0  0  0  0  0  0  0
    8.9845  -18.2988   20.5122 C   0  0  0  0  0  0  0  0  0  0  0  0
    9.1718  -16.8454   20.1381 C   0  0  2  0  0  0  0  0  0  0  0  0
   10.3818  -16.7705   19.3380 N   0  0  0  0  0  0  0  0  0  0  0  0
    9.2998  -16.0829   21.3999 C   0  0  0  0  0  0  0  0  0  0  0  0
   10.3809  -16.0124   22.0275 O   0  0  0  0  0  0  0  0  0  0  0  0
    8.1720  -15.4116   21.9181 N   0  0  0  0  0  0  0  0  0  0  0  0
    8.2723  -14.7352   23.1935 C   0  0  1  0  0  0  0  0  0  0  0  0
    7.1811  -13.7213   23.4045 C   0  0  0  0  0  0  0  0  0  0  0  0
    7.1808  -13.1199   24.7375 C   0  0  0  0  0  0  0  0  0  0  0  0
    8.0403  -12.0639   24.9987 C   0  0  0  0  0  0  0  0  0  0  0  0
    8.1188  -11.4286   26.2161 C   0  0  0  0  0  0  0  0  0  0  0  0
    7.2792  -11.8869   27.2303 C   0  0  0  0  0  0  0  0  0  0  0  0
    6.4113  -12.9312   27.0149 C   0  0  0  0  0  0  0  0  0  0  0  0
    6.3768  -13.5257   25.7818 C   0  0  0  0  0  0  0  0  0  0  0  0
    8.0858  -15.8000   24.2452 C   0  0  0  0  0  0  0  0  0  0  0  0
    7.2802  -16.7695   24.0760 O   0  0  0  0  0  0  0  0  0  0  0  0
    8.7976  -15.7663   25.4635 N   0  0  0  0  0  0  0  0  0  0  0  0
    9.4298  -16.9901   25.9725 C   0  0  1  0  0  0  0  0  0  0  0  0
   10.3435  -17.5797   24.9180 C   0  0  0  0  0  0  0  0  0  0  0  0
   11.0124  -18.8055   25.3769 C   0  0  0  0  0  0  0  0  0  0  0  0
   10.7631  -19.4692   26.5529 C   0  0  0  0  0  0  0  0  0  0  0  0
   11.5843  -20.5304   26.6087 N   0  0  0  0  0  0  0  0  0  0  0  0
   12.3328  -20.5482   25.5110 C   0  0  0  0  0  0  0  0  0  0  0  0
   11.9783  -19.4855   24.7552 N   0  0  0  0  0  0  0  0  0  0  0  0
   10.1182  -16.6547   27.2303 C   0  0  0  0  0  0  0  0  0  0  0  0
   10.5158  -15.4899   27.4489 O   0  0  0  0  0  0  0  0  0  0  0  0
   10.3346  -17.6215   28.1890 O   0  0  0  0  0  0  0  0  0  0  0  0
  2  1  1  0
  3  2  1  0
  4  3  1  0
  5  4  1  0
  5  6  1  6
  7  5  1  0
  8  7  2  0
  9  7  1  0
 10  9  1  0
 11 12  1  0
 10 11  1  6
 12 13  2  0
 13 14  1  0
 15 14  2  0
 16 15  1  0
 17 16  2  0
 17 12  1  0
 18 10  1  0
 18 19  2  0
 20 18  1  0
 21 22  1  6
 21 20  1  0
 23 22  1  0
 24 23  2  0
 25 24  1  0
 25 26  1  0
 26 27  2  0
 27 23  1  0
 28 21  1  0
 29 28  2  0
 30 28  1  0
M  END
$$$$
