MFH.pdb
     RDKit          3D

 30 31  0  0  1  0  0  0  0  0999 V2000
   10.4611  -21.1801   22.0721 C   0  0  0  0  0  0  0  0  0  0  0  0
    8.8687  -21.3032   21.1925 S   0  0  0  0  0  0  0  0  0  0  0  0
    8.6685  -19.7772   20.2386 C   0  0  0  0  0  0  0  0  0  0  0  0
    9.0424  -18.5548   21.0457 C   0  0  0  0  0  0  0  0  0  0  0  0
    8.2502  -17.3337   20.6348 C   0  0  2  0  0  0  0  0  0  0  0  0
    8.7011  -16.9695   19.3029 N   0  0  0  0  0  0  0  0  0  0  0  0
    8.5419  -16.2714   21.6230 C   0  0  0  0  0  0  0  0  0  0  0  0
    9.4226  -15.4036   21.4258 O   0  0  0  0  0  0  0  0  0  0  0  0
    7.8083  -16.2290   22.8277 N   0  0  0  0  0  0  0  0  0  0  0  0
    7.9413  -15.0820   23.6998 C   0  0  1  0  0  0  0  0  0  0  0  0
    6.6952  -14.8064   24.4966 C   0  0  0  0  0  0  0  0  0  0  0  0
    6.8329  -13.7062   25.4501 C   0  0  0  0  0  0  0  0  0  0  0  0
    7.3461  -12.4957   25.0104 C   0  0  0  0  0  0  0  0  0  0  0  0
    7.5163  -11.3997   25.8237 C   0  0  0  0  0  0  0  0  0  0  0  0
    7.1463  -11.5340   27.1611 C   0  0  0  0  0  0  0  0  0  0  0  0
    6.6331  -12.7163   27.6398 C   0  0  0  0  0  0  0  0  0  0  0  0
    6.4861  -13.7745   26.7830 C   0  0  0  0  0  0  0  0  0  0  0  0
    9.0217  -15.4355   24.6909 C   0  0  0  0  0  0  0  0  0  0  0  0
    9.3362  -14.6512   25.6414 O   0  0  0  0  0  0  0  0  0  0  0  0
    9.7309  -16.6528   24.6063 N   0  0  0  0  0  0  0  0  0  0  0  0
   10.7623  -16.9665   25.6034 C   0  0  1  0  0  0  0  0  0  0  0  0
   11.8103  -15.8730   25.6281 C   0  0  0  0  0  0  0  0  0  0  0  0
   12.5938  -15.8187   24.3856 C   0  0  0  0  0  0  0  0  0  0  0  0
   12.1004  -15.9679   23.1129 C   0  0  0  0  0  0  0  0  0  0  0  0
   13.1305  -15.8650   22.2574 N   0  0  0  0  0  0  0  0  0  0  0  0
   14.2433  -15.6577   22.9532 C   0  0  0  0  0  0  0  0  0  0  0  0
   13.9095  -15.6299   24.2624 N   0  0  0  0  0  0  0  0  0  0  0  0
   10.0924  -17.1722   26.8985 C   0  0  0  0  0  0  0  0  0  0  0  0
    8.8547  -17.0327   27.0058 O   0  0  0  0  0  0  0  0  0  0  0  0
   10.8206  -17.5237   28.0151 O   0  0  0  0  0  0  0  0  0  0  0  0
  2  1  1  0
  3  2  1  0
  4  3  1  0
  5  4  1  0
  5  6  1  6
  7  5  1  0
  8  7  2  0
  9  7  1  0
 10  9  1  0
 11 12  1  0
 10 11  1  1
 12 13  2  0
 13 14  1  0
 15 14  2  0
 16 15  1  0
 17 16  2  0
 17 12  1  0
 18 10  1  0
 18 19  2  0
 20 18  1  0
 21 22  1  1
 21 20  1  0
 23 22  1  0
 24 23  2  0
 25 24  1  0
 25 26  1  0
 26 27  2  0
 27 23  1  0
 28 21  1  0
 29 28  2  0
 30 28  1  0
M  END
$$$$
