MFH.pdb
     RDKit          3D

 30 31  0  0  1  0  0  0  0  0999 V2000
    8.4077  -11.6173   19.2365 C   0  0  0  0  0  0  0  0  0  0  0  0
    7.5791  -12.8189   18.1437 S   0  0  0  0  0  0  0  0  0  0  0  0
    7.4191  -14.3633   19.0755 C   0  0  0  0  0  0  0  0  0  0  0  0
    7.2941  -14.1148   20.5615 C   0  0  0  0  0  0  0  0  0  0  0  0
    7.1768  -15.4008   21.3486 C   0  0  2  0  0  0  0  0  0  0  0  0
    5.8037  -15.8538   21.2103 N   0  0  0  0  0  0  0  0  0  0  0  0
    7.5115  -15.0839   22.7549 C   0  0  0  0  0  0  0  0  0  0  0  0
    7.1366  -14.0234   23.3048 O   0  0  0  0  0  0  0  0  0  0  0  0
    8.2770  -16.0011   23.5058 N   0  0  0  0  0  0  0  0  0  0  0  0
    8.7039  -15.6435   24.8415 C   0  0  1  0  0  0  0  0  0  0  0  0
    7.5687  -15.6104   25.8283 C   0  0  0  0  0  0  0  0  0  0  0  0
    7.1861  -14.2622   26.2462 C   0  0  0  0  0  0  0  0  0  0  0  0
    8.1181  -13.4714   26.9005 C   0  0  0  0  0  0  0  0  0  0  0  0
    7.8612  -12.1918   27.3346 C   0  0  0  0  0  0  0  0  0  0  0  0
    6.5868  -11.6802   27.0937 C   0  0  0  0  0  0  0  0  0  0  0  0
    5.6320  -12.4297   26.4482 C   0  0  0  0  0  0  0  0  0  0  0  0
    5.9450  -13.6983   26.0384 C   0  0  0  0  0  0  0  0  0  0  0  0
    9.6365  -16.7412   25.2884 C   0  0  0  0  0  0  0  0  0  0  0  0
    9.2464  -17.9478   25.3867 O   0  0  0  0  0  0  0  0  0  0  0  0
   10.9834  -16.4767   25.6171 N   0  0  0  0  0  0  0  0  0  0  0  0
   11.8866  -17.5884   25.9409 C   0  0  1  0  0  0  0  0  0  0  0  0
   13.3271  -17.1574   25.7572 C   0  0  0  0  0  0  0  0  0  0  0  0
   13.6074  -16.7064   24.3866 C   0  0  0  0  0  0  0  0  0  0  0  0
   12.8025  -16.9031   23.2916 C   0  0  0  0  0  0  0  0  0  0  0  0
   13.4126  -16.3544   22.2284 N   0  0  0  0  0  0  0  0  0  0  0  0
   14.5654  -15.8254   22.6245 C   0  0  0  0  0  0  0  0  0  0  0  0
   14.6821  -16.0438   23.9530 N   0  0  0  0  0  0  0  0  0  0  0  0
   11.5751  -18.0418   27.3068 C   0  0  0  0  0  0  0  0  0  0  0  0
   11.7349  -19.2376   27.6341 O   0  0  0  0  0  0  0  0  0  0  0  0
   11.1023  -17.1528   28.2486 O   0  0  0  0  0  0  0  0  0  0  0  0
  2  1  1  0
  3  2  1  0
  4  3  1  0
  5  4  1  0
  5  6  1  1
  7  5  1  0
  8  7  2  0
  9  7  1  0
 10  9  1  0
 11 12  1  0
 10 11  1  1
 12 13  2  0
 13 14  1  0
 15 14  2  0
 16 15  1  0
 17 16  2  0
 17 12  1  0
 18 10  1  0
 18 19  2  0
 20 18  1  0
 21 22  1  1
 21 20  1  0
 23 22  1  0
 24 23  2  0
 25 24  1  0
 25 26  1  0
 26 27  2  0
 27 23  1  0
 28 21  1  0
 29 28  2  0
 30 28  1  0
M  END
$$$$
