MFH.pdb
     RDKit          3D

 30 31  0  0  1  0  0  0  0  0999 V2000
    8.1368  -21.3552   21.1903 C   0  0  0  0  0  0  0  0  0  0  0  0
    9.1695  -21.1066   19.7083 S   0  0  0  0  0  0  0  0  0  0  0  0
    9.1048  -19.3425   19.3047 C   0  0  0  0  0  0  0  0  0  0  0  0
    8.4847  -18.5315   20.4198 C   0  0  0  0  0  0  0  0  0  0  0  0
    8.2952  -17.0812   20.0350 C   0  0  2  0  0  0  0  0  0  0  0  0
    9.2040  -16.8170   18.9333 N   0  0  0  0  0  0  0  0  0  0  0  0
    8.6247  -16.2671   21.2262 C   0  0  0  0  0  0  0  0  0  0  0  0
    9.7900  -15.8742   21.4613 O   0  0  0  0  0  0  0  0  0  0  0  0
    7.5982  -15.9189   22.1297 N   0  0  0  0  0  0  0  0  0  0  0  0
    7.9022  -15.0568   23.2514 C   0  0  1  0  0  0  0  0  0  0  0  0
    6.6783  -14.4067   23.8371 C   0  0  0  0  0  0  0  0  0  0  0  0
    6.9609  -13.5186   24.9641 C   0  0  0  0  0  0  0  0  0  0  0  0
    7.7169  -12.3769   24.7471 C   0  0  0  0  0  0  0  0  0  0  0  0
    8.0392  -11.4771   25.7361 C   0  0  0  0  0  0  0  0  0  0  0  0
    7.5701  -11.7462   27.0211 C   0  0  0  0  0  0  0  0  0  0  0  0
    6.8171  -12.8667   27.2811 C   0  0  0  0  0  0  0  0  0  0  0  0
    6.5273  -13.7276   26.2563 C   0  0  0  0  0  0  0  0  0  0  0  0
    8.4732  -15.9524   24.3221 C   0  0  0  0  0  0  0  0  0  0  0  0
    7.8307  -16.9581   24.7618 O   0  0  0  0  0  0  0  0  0  0  0  0
    9.7462  -15.7130   24.8827 N   0  0  0  0  0  0  0  0  0  0  0  0
   10.3500  -16.7120   25.7737 C   0  0  1  0  0  0  0  0  0  0  0  0
   11.8585  -16.6835   25.6392 C   0  0  0  0  0  0  0  0  0  0  0  0
   12.3164  -17.2079   24.3446 C   0  0  0  0  0  0  0  0  0  0  0  0
   11.5690  -17.9518   23.4651 C   0  0  0  0  0  0  0  0  0  0  0  0
   12.3465  -18.2452   22.4101 N   0  0  0  0  0  0  0  0  0  0  0  0
   13.5474  -17.7107   22.6038 C   0  0  0  0  0  0  0  0  0  0  0  0
   13.5255  -17.0732   23.7951 N   0  0  0  0  0  0  0  0  0  0  0  0
    9.8736  -16.4458   27.1413 C   0  0  0  0  0  0  0  0  0  0  0  0
    9.2976  -17.3377   27.8012 O   0  0  0  0  0  0  0  0  0  0  0  0
   10.0564  -15.2067   27.7174 O   0  0  0  0  0  0  0  0  0  0  0  0
  2  1  1  0
  3  2  1  0
  4  3  1  0
  5  4  1  0
  5  6  1  6
  7  5  1  0
  8  7  2  0
  9  7  1  0
 10  9  1  0
 11 12  1  0
 10 11  1  1
 12 13  2  0
 13 14  1  0
 15 14  2  0
 16 15  1  0
 17 16  2  0
 17 12  1  0
 18 10  1  0
 18 19  2  0
 20 18  1  0
 21 22  1  1
 21 20  1  0
 23 22  1  0
 24 23  2  0
 25 24  1  0
 25 26  1  0
 26 27  2  0
 27 23  1  0
 28 21  1  0
 29 28  2  0
 30 28  1  0
M  END
$$$$
