MFH.pdb
     RDKit          3D

 30 31  0  0  1  0  0  0  0  0999 V2000
    9.1694  -21.0542   21.1110 C   0  0  0  0  0  0  0  0  0  0  0  0
    7.8674  -20.6687   19.8941 S   0  0  0  0  0  0  0  0  0  0  0  0
    8.0932  -18.9405   19.4027 C   0  0  0  0  0  0  0  0  0  0  0  0
    8.7633  -18.1289   20.4880 C   0  0  0  0  0  0  0  0  0  0  0  0
    8.7943  -16.6525   20.1616 C   0  0  2  0  0  0  0  0  0  0  0  0
    9.8801  -16.4540   19.2175 N   0  0  0  0  0  0  0  0  0  0  0  0
    9.0313  -15.9297   21.4311 C   0  0  0  0  0  0  0  0  0  0  0  0
   10.1173  -15.3575   21.6777 O   0  0  0  0  0  0  0  0  0  0  0  0
    8.0055  -15.8797   22.3988 N   0  0  0  0  0  0  0  0  0  0  0  0
    8.1107  -14.9436   23.4972 C   0  0  1  0  0  0  0  0  0  0  0  0
    6.8033  -14.2732   23.8208 C   0  0  0  0  0  0  0  0  0  0  0  0
    6.8479  -13.4345   25.0179 C   0  0  0  0  0  0  0  0  0  0  0  0
    7.5303  -12.2287   24.9689 C   0  0  0  0  0  0  0  0  0  0  0  0
    7.6327  -11.3671   26.0362 C   0  0  0  0  0  0  0  0  0  0  0  0
    7.0087  -11.7458   27.2240 C   0  0  0  0  0  0  0  0  0  0  0  0
    6.3213  -12.9329   27.3169 C   0  0  0  0  0  0  0  0  0  0  0  0
    6.2528  -13.7511   26.2209 C   0  0  0  0  0  0  0  0  0  0  0  0
    8.4910  -15.7613   24.7061 C   0  0  0  0  0  0  0  0  0  0  0  0
    8.3972  -15.2914   25.8843 O   0  0  0  0  0  0  0  0  0  0  0  0
    8.9675  -17.0839   24.5821 N   0  0  0  0  0  0  0  0  0  0  0  0
   10.1399  -17.5120   25.3559 C   0  0  1  0  0  0  0  0  0  0  0  0
   11.4030  -16.9449   24.7414 C   0  0  0  0  0  0  0  0  0  0  0  0
   11.9478  -17.8070   23.6828 C   0  0  0  0  0  0  0  0  0  0  0  0
   11.4336  -19.0152   23.2812 C   0  0  0  0  0  0  0  0  0  0  0  0
   12.2198  -19.4923   22.3025 N   0  0  0  0  0  0  0  0  0  0  0  0
   13.2018  -18.6244   22.0834 C   0  0  0  0  0  0  0  0  0  0  0  0
   13.0314  -17.5886   22.9345 N   0  0  0  0  0  0  0  0  0  0  0  0
    9.9307  -17.1070   26.7561 C   0  0  0  0  0  0  0  0  0  0  0  0
   10.8109  -17.3155   27.6189 O   0  0  0  0  0  0  0  0  0  0  0  0
    8.7589  -16.4892   27.1384 O   0  0  0  0  0  0  0  0  0  0  0  0
  2  1  1  0
  3  2  1  0
  4  3  1  0
  5  4  1  0
  5  6  1  6
  7  5  1  0
  8  7  2  0
  9  7  1  0
 10  9  1  0
 11 12  1  0
 10 11  1  1
 12 13  2  0
 13 14  1  0
 15 14  2  0
 16 15  1  0
 17 16  2  0
 17 12  1  0
 18 10  1  0
 18 19  2  0
 20 18  1  0
 21 22  1  6
 21 20  1  0
 23 22  1  0
 24 23  2  0
 25 24  1  0
 25 26  1  0
 26 27  2  0
 27 23  1  0
 28 21  1  0
 29 28  2  0
 30 28  1  0
M  END
$$$$
