TYE.pdb
     RDKit          3D

 29 29  0  0  1  0  0  0  0  0999 V2000
   27.7777  -18.8846  -16.2779 C   0  0  0  0  0  0  0  0  0  0  0  0
   26.6759  -19.5497  -15.5257 C   0  0  1  0  0  0  0  0  0  0  0  0
   25.7673  -20.1066  -16.3999 O   0  0  0  0  0  0  0  0  0  0  0  0
   27.1729  -20.5612  -14.4992 C   0  0  2  0  0  0  0  0  0  0  0  0
   27.9273  -21.5875  -15.1502 N   0  0  0  0  0  0  0  0  0  0  0  0
   26.0631  -21.0751  -13.6562 C   0  0  0  0  0  0  0  0  0  0  0  0
   25.6338  -22.2145  -13.8831 O   0  0  0  0  0  0  0  0  0  0  0  0
   29.0173  -20.6923   -7.3884 O   0  0  0  0  0  0  0  0  0  0  0  0
   27.8437  -20.5237   -8.1413 C   0  0  0  0  0  0  0  0  0  0  0  0
   27.4893  -21.4683   -9.0776 C   0  0  0  0  0  0  0  0  0  0  0  0
   26.3336  -21.3021   -9.8191 C   0  0  0  0  0  0  0  0  0  0  0  0
   25.4963  -20.2204   -9.6715 C   0  0  0  0  0  0  0  0  0  0  0  0
   24.2642  -20.0667  -10.4789 C   0  0  0  0  0  0  0  0  0  0  0  0
   24.3634  -20.7143  -11.8221 C   0  0  2  0  0  0  0  0  0  0  0  0
   25.4779  -20.3282  -12.6133 N   0  0  0  0  0  0  0  0  0  0  0  0
   23.1099  -20.5057  -12.5869 C   0  0  0  0  0  0  0  0  0  0  0  0
   23.1587  -19.9047  -13.7140 O   0  0  0  0  0  0  0  0  0  0  0  0
   25.8763  -19.2832   -8.7214 C   0  0  0  0  0  0  0  0  0  0  0  0
   27.0250  -19.4352   -7.9752 C   0  0  0  0  0  0  0  0  0  0  0  0
   21.8465  -20.9337  -12.1471 N   0  0  0  0  0  0  0  0  0  0  0  0
   20.7112  -21.1170  -13.0837 C   0  0  1  0  0  0  0  0  0  0  0  0
   21.1559  -22.0970  -14.1263 C   0  0  0  0  0  0  0  0  0  0  0  0
   21.0436  -21.5074  -15.4942 C   0  0  0  0  0  0  0  0  0  0  0  0
   21.3688  -22.5169  -16.5525 C   0  0  0  0  0  0  0  0  0  0  0  0
   21.3614  -22.1997  -17.7611 O   0  0  0  0  0  0  0  0  0  0  0  0
   19.5016  -21.4958  -12.3528 C   0  0  0  0  0  0  0  0  0  0  0  0
   18.2677  -21.0856  -12.8967 O   0  0  0  0  0  0  0  0  0  0  0  0
   21.6795  -23.8107  -16.1837 O   0  0  0  0  0  0  0  0  0  0  0  0
   19.5266  -22.1558  -11.2866 O   0  0  0  0  0  0  0  0  0  0  0  0
  2  1  1  6
  2  4  1  0
  3  2  1  0
  4  5  1  6
  6  4  1  0
  6  7  2  0
  9  8  1  0
 10  9  2  0
 11 10  1  0
 12 11  2  0
 12 18  1  0
 14 13  1  1
 13 12  1  0
 14 15  1  0
 15  6  1  0
 16 14  1  0
 17 16  2  0
 18 19  2  0
 19  9  1  0
 20 16  1  0
 21 22  1  6
 21 20  1  0
 22 23  1  0
 23 24  1  0
 24 28  1  0
 25 24  2  0
 26 27  1  0
 26 21  1  0
 29 26  2  0
M  END
$$$$
