TYE.pdb
     RDKit          3D

 29 29  0  0  1  0  0  0  0  0999 V2000
   28.4206  -20.0024  -18.5263 C   0  0  0  0  0  0  0  0  0  0  0  0
   27.6084  -20.1822  -17.2893 C   0  0  1  0  0  0  0  0  0  0  0  0
   26.2947  -19.8376  -17.5246 O   0  0  0  0  0  0  0  0  0  0  0  0
   27.7325  -21.5762  -16.6850 C   0  0  2  0  0  0  0  0  0  0  0  0
   27.3636  -22.5629  -17.6529 N   0  0  0  0  0  0  0  0  0  0  0  0
   26.9891  -21.6849  -15.4037 C   0  0  0  0  0  0  0  0  0  0  0  0
   25.9006  -22.2759  -15.4059 O   0  0  0  0  0  0  0  0  0  0  0  0
   24.6381  -20.7973   -6.8778 O   0  0  0  0  0  0  0  0  0  0  0  0
   25.3420  -20.7605   -8.0927 C   0  0  0  0  0  0  0  0  0  0  0  0
   26.6317  -20.2806   -8.1224 C   0  0  0  0  0  0  0  0  0  0  0  0
   27.3248  -20.2442   -9.3189 C   0  0  0  0  0  0  0  0  0  0  0  0
   26.7866  -20.6708  -10.5111 C   0  0  0  0  0  0  0  0  0  0  0  0
   27.5509  -20.6208  -11.7787 C   0  0  0  0  0  0  0  0  0  0  0  0
   26.7716  -21.1266  -12.9493 C   0  0  2  0  0  0  0  0  0  0  0  0
   27.4637  -21.1483  -14.1894 N   0  0  0  0  0  0  0  0  0  0  0  0
   25.5082  -20.3633  -13.0940 C   0  0  0  0  0  0  0  0  0  0  0  0
   25.5601  -19.1172  -13.3743 O   0  0  0  0  0  0  0  0  0  0  0  0
   25.4856  -21.1497  -10.4536 C   0  0  0  0  0  0  0  0  0  0  0  0
   24.7825  -21.1919   -9.2690 C   0  0  0  0  0  0  0  0  0  0  0  0
   24.2320  -20.9295  -12.9411 N   0  0  0  0  0  0  0  0  0  0  0  0
   22.9984  -20.1078  -12.9956 C   0  0  1  0  0  0  0  0  0  0  0  0
   22.3919  -20.3155  -14.3499 C   0  0  0  0  0  0  0  0  0  0  0  0
   23.0759  -19.4715  -15.3752 C   0  0  0  0  0  0  0  0  0  0  0  0
   22.4411  -19.6279  -16.7233 C   0  0  0  0  0  0  0  0  0  0  0  0
   22.9194  -20.4163  -17.5666 O   0  0  0  0  0  0  0  0  0  0  0  0
   22.1217  -20.4267  -11.8684 C   0  0  0  0  0  0  0  0  0  0  0  0
   21.0747  -19.5240  -11.5938 O   0  0  0  0  0  0  0  0  0  0  0  0
   21.3155  -18.8906  -17.0330 O   0  0  0  0  0  0  0  0  0  0  0  0
   22.2680  -21.4497  -11.1577 O   0  0  0  0  0  0  0  0  0  0  0  0
  2  1  1  6
  2  4  1  0
  3  2  1  0
  4  5  1  6
  6  4  1  0
  6  7  2  0
  9  8  1  0
 10  9  2  0
 11 10  1  0
 12 11  2  0
 12 18  1  0
 14 13  1  1
 13 12  1  0
 14 15  1  0
 15  6  1  0
 16 14  1  0
 17 16  2  0
 18 19  2  0
 19  9  1  0
 20 16  1  0
 21 22  1  6
 21 20  1  0
 22 23  1  0
 23 24  1  0
 24 28  1  0
 25 24  2  0
 26 27  1  0
 26 21  1  0
 29 26  2  0
M  END
$$$$
