TYE.pdb
     RDKit          3D

 29 29  0  0  1  0  0  0  0  0999 V2000
   26.7191   -9.3844  -15.6433 C   0  0  0  0  0  0  0  0  0  0  0  0
   27.0166   -9.5861  -17.0900 C   0  0  1  0  0  0  0  0  0  0  0  0
   28.3756   -9.7047  -17.2876 O   0  0  0  0  0  0  0  0  0  0  0  0
   26.2474  -10.7491  -17.7063 C   0  0  2  0  0  0  0  0  0  0  0  0
   26.6479  -10.9332  -19.0672 N   0  0  0  0  0  0  0  0  0  0  0  0
   24.7814  -10.5907  -17.5282 C   0  0  0  0  0  0  0  0  0  0  0  0
   24.1660   -9.8812  -18.3357 O   0  0  0  0  0  0  0  0  0  0  0  0
   16.3728  -11.5699  -15.0268 O   0  0  0  0  0  0  0  0  0  0  0  0
   17.7658  -11.7184  -15.1268 C   0  0  0  0  0  0  0  0  0  0  0  0
   18.3262  -12.1389  -16.3116 C   0  0  0  0  0  0  0  0  0  0  0  0
   19.6981  -12.2852  -16.4100 C   0  0  0  0  0  0  0  0  0  0  0  0
   20.5569  -12.0284  -15.3662 C   0  0  0  0  0  0  0  0  0  0  0  0
   22.0228  -12.1935  -15.4983 C   0  0  0  0  0  0  0  0  0  0  0  0
   22.6756  -11.0536  -16.2112 C   0  0  2  0  0  0  0  0  0  0  0  0
   24.0604  -11.2086  -16.4859 N   0  0  0  0  0  0  0  0  0  0  0  0
   22.4501   -9.7882  -15.4713 C   0  0  0  0  0  0  0  0  0  0  0  0
   23.3253   -9.3939  -14.6273 O   0  0  0  0  0  0  0  0  0  0  0  0
   19.9667  -11.6062  -14.1836 C   0  0  0  0  0  0  0  0  0  0  0  0
   18.6013  -11.4558  -14.0705 C   0  0  0  0  0  0  0  0  0  0  0  0
   21.3162   -8.9766  -15.6398 N   0  0  0  0  0  0  0  0  0  0  0  0
   21.1868   -7.6612  -14.9670 C   0  0  1  0  0  0  0  0  0  0  0  0
   22.2985   -6.7958  -15.4773 C   0  0  0  0  0  0  0  0  0  0  0  0
   22.2661   -5.4499  -14.8302 C   0  0  0  0  0  0  0  0  0  0  0  0
   23.3718   -4.5740  -15.3353 C   0  0  0  0  0  0  0  0  0  0  0  0
   24.3612   -5.0670  -15.9179 O   0  0  0  0  0  0  0  0  0  0  0  0
   19.8414   -7.1190  -15.1587 C   0  0  0  0  0  0  0  0  0  0  0  0
   19.3103   -6.3349  -14.1149 O   0  0  0  0  0  0  0  0  0  0  0  0
   23.2924   -3.2076  -15.1529 O   0  0  0  0  0  0  0  0  0  0  0  0
   19.1637   -7.3242  -16.1940 O   0  0  0  0  0  0  0  0  0  0  0  0
  2  1  1  1
  2  4  1  0
  3  2  1  0
  4  5  1  6
  6  4  1  0
  6  7  2  0
  9  8  1  0
 10  9  2  0
 11 10  1  0
 12 11  2  0
 12 18  1  0
 14 13  1  1
 13 12  1  0
 14 15  1  0
 15  6  1  0
 16 14  1  0
 17 16  2  0
 18 19  2  0
 19  9  1  0
 20 16  1  0
 21 22  1  6
 21 20  1  0
 22 23  1  0
 23 24  1  0
 24 28  1  0
 25 24  2  0
 26 27  1  0
 26 21  1  0
 29 26  2  0
M  END
$$$$
