TYE.pdb
     RDKit          3D

 29 29  0  0  1  0  0  0  0  0999 V2000
   39.1688  -28.1154  -19.0647 C   0  0  0  0  0  0  0  0  0  0  0  0
   39.0715  -27.3730  -17.7757 C   0  0  1  0  0  0  0  0  0  0  0  0
   40.2488  -26.7041  -17.5180 O   0  0  0  0  0  0  0  0  0  0  0  0
   37.8625  -26.4472  -17.7040 C   0  0  2  0  0  0  0  0  0  0  0  0
   37.8656  -25.7348  -16.4635 N   0  0  0  0  0  0  0  0  0  0  0  0
   36.5976  -27.1776  -17.9735 C   0  0  0  0  0  0  0  0  0  0  0  0
   35.8544  -27.4355  -17.0168 O   0  0  0  0  0  0  0  0  0  0  0  0
   29.6945  -30.9372  -22.0631 O   0  0  0  0  0  0  0  0  0  0  0  0
   30.9007  -30.2628  -21.8126 C   0  0  0  0  0  0  0  0  0  0  0  0
   30.8835  -29.0430  -21.1751 C   0  0  0  0  0  0  0  0  0  0  0  0
   32.0715  -28.3789  -20.9285 C   0  0  0  0  0  0  0  0  0  0  0  0
   33.3005  -28.8791  -21.2924 C   0  0  0  0  0  0  0  0  0  0  0  0
   34.5579  -28.1469  -21.0164 C   0  0  0  0  0  0  0  0  0  0  0  0
   35.0152  -28.2875  -19.6005 C   0  0  2  0  0  0  0  0  0  0  0  0
   36.2054  -27.5896  -19.2636 N   0  0  0  0  0  0  0  0  0  0  0  0
   35.1575  -29.7207  -19.2464 C   0  0  0  0  0  0  0  0  0  0  0  0
   36.3134  -30.2641  -19.2950 O   0  0  0  0  0  0  0  0  0  0  0  0
   33.2899  -30.1097  -21.9333 C   0  0  0  0  0  0  0  0  0  0  0  0
   32.1143  -30.7832  -22.1859 C   0  0  0  0  0  0  0  0  0  0  0  0
   34.0852  -30.5378  -18.8525 N   0  0  0  0  0  0  0  0  0  0  0  0
   34.2970  -31.9038  -18.3150 C   0  0  1  0  0  0  0  0  0  0  0  0
   35.2646  -31.7829  -17.1774 C   0  0  0  0  0  0  0  0  0  0  0  0
   35.3842  -33.0763  -16.4396 C   0  0  0  0  0  0  0  0  0  0  0  0
   36.4140  -32.9932  -15.3545 C   0  0  0  0  0  0  0  0  0  0  0  0
   36.3783  -32.0733  -14.5096 O   0  0  0  0  0  0  0  0  0  0  0  0
   33.0159  -32.5240  -17.9758 C   0  0  0  0  0  0  0  0  0  0  0  0
   31.8602  -31.7302  -18.1194 O   0  0  0  0  0  0  0  0  0  0  0  0
   37.4117  -33.9456  -15.2915 O   0  0  0  0  0  0  0  0  0  0  0  0
   32.9158  -33.7073  -17.5722 O   0  0  0  0  0  0  0  0  0  0  0  0
  2  1  1  6
  2  4  1  0
  3  2  1  0
  4  5  1  1
  6  4  1  0
  6  7  2  0
  9  8  1  0
 10  9  2  0
 11 10  1  0
 12 11  2  0
 12 18  1  0
 14 13  1  6
 13 12  1  0
 14 15  1  0
 15  6  1  0
 16 14  1  0
 17 16  2  0
 18 19  2  0
 19  9  1  0
 20 16  1  0
 21 22  1  1
 21 20  1  0
 22 23  1  0
 23 24  1  0
 24 28  1  0
 25 24  2  0
 26 27  1  0
 26 21  1  0
 29 26  2  0
M  END
$$$$
