TYE.pdb
     RDKit          3D

 29 29  0  0  1  0  0  0  0  0999 V2000
   27.4845  -11.7045  -15.4051 C   0  0  0  0  0  0  0  0  0  0  0  0
   26.2861  -10.8964  -15.7698 C   0  0  1  0  0  0  0  0  0  0  0  0
   26.5158  -10.1983  -16.9359 O   0  0  0  0  0  0  0  0  0  0  0  0
   25.0045  -11.7189  -15.8411 C   0  0  2  0  0  0  0  0  0  0  0  0
   25.1444  -12.7582  -16.8139 N   0  0  0  0  0  0  0  0  0  0  0  0
   23.8128  -10.8573  -16.0504 C   0  0  0  0  0  0  0  0  0  0  0  0
   23.3001  -10.8297  -17.1776 O   0  0  0  0  0  0  0  0  0  0  0  0
   18.2770  -13.9429  -17.2709 O   0  0  0  0  0  0  0  0  0  0  0  0
   18.9190  -12.9102  -16.5681 C   0  0  0  0  0  0  0  0  0  0  0  0
   18.8884  -11.6251  -17.0602 C   0  0  0  0  0  0  0  0  0  0  0  0
   19.5208  -10.6082  -16.3679 C   0  0  0  0  0  0  0  0  0  0  0  0
   20.1956  -10.8115  -15.1862 C   0  0  0  0  0  0  0  0  0  0  0  0
   20.8646   -9.7044  -14.4650 C   0  0  0  0  0  0  0  0  0  0  0  0
   22.1045   -9.2281  -15.1500 C   0  0  2  0  0  0  0  0  0  0  0  0
   23.2403  -10.0722  -15.0287 N   0  0  0  0  0  0  0  0  0  0  0  0
   22.4478   -7.8581  -14.6971 C   0  0  0  0  0  0  0  0  0  0  0  0
   23.1396   -7.7073  -13.6329 O   0  0  0  0  0  0  0  0  0  0  0  0
   20.2113  -12.1155  -14.7122 C   0  0  0  0  0  0  0  0  0  0  0  0
   19.5858  -13.1390  -15.3908 C   0  0  0  0  0  0  0  0  0  0  0  0
   22.0563   -6.6911  -15.3734 N   0  0  0  0  0  0  0  0  0  0  0  0
   22.5420   -5.3497  -14.9677 C   0  0  1  0  0  0  0  0  0  0  0  0
   22.2039   -4.4052  -16.0806 C   0  0  0  0  0  0  0  0  0  0  0  0
   22.5328   -2.9977  -15.7034 C   0  0  0  0  0  0  0  0  0  0  0  0
   22.1473   -2.0374  -16.7869 C   0  0  0  0  0  0  0  0  0  0  0  0
   21.6635   -2.4495  -17.8628 O   0  0  0  0  0  0  0  0  0  0  0  0
   22.0003   -4.9843  -13.6585 C   0  0  0  0  0  0  0  0  0  0  0  0
   22.8425   -4.2537  -12.7963 O   0  0  0  0  0  0  0  0  0  0  0  0
   22.3304   -0.6830  -16.5901 O   0  0  0  0  0  0  0  0  0  0  0  0
   20.8420   -5.2921  -13.2888 O   0  0  0  0  0  0  0  0  0  0  0  0
  2  1  1  6
  2  4  1  0
  3  2  1  0
  4  5  1  6
  6  4  1  0
  6  7  2  0
  9  8  1  0
 10  9  2  0
 11 10  1  0
 12 11  2  0
 12 18  1  0
 14 13  1  1
 13 12  1  0
 14 15  1  0
 15  6  1  0
 16 14  1  0
 17 16  2  0
 18 19  2  0
 19  9  1  0
 20 16  1  0
 21 22  1  6
 21 20  1  0
 22 23  1  0
 23 24  1  0
 24 28  1  0
 25 24  2  0
 26 27  1  0
 26 21  1  0
 29 26  2  0
M  END
$$$$
