TYE.pdb
     RDKit          3D

 29 29  0  0  1  0  0  0  0  0999 V2000
   25.4780  -12.1509  -20.5868 C   0  0  0  0  0  0  0  0  0  0  0  0
   24.4868  -12.1394  -19.4734 C   0  0  1  0  0  0  0  0  0  0  0  0
   24.6688  -13.2363  -18.6588 O   0  0  0  0  0  0  0  0  0  0  0  0
   24.4850  -10.8362  -18.6825 C   0  0  2  0  0  0  0  0  0  0  0  0
   25.7840  -10.5960  -18.1336 N   0  0  0  0  0  0  0  0  0  0  0  0
   23.3935  -10.8092  -17.6755 C   0  0  0  0  0  0  0  0  0  0  0  0
   22.2373  -11.0350  -18.0580 O   0  0  0  0  0  0  0  0  0  0  0  0
   23.3782  -16.8898  -15.1069 O   0  0  0  0  0  0  0  0  0  0  0  0
   23.2494  -15.5148  -14.8511 C   0  0  0  0  0  0  0  0  0  0  0  0
   24.3743  -14.7474  -14.6503 C   0  0  0  0  0  0  0  0  0  0  0  0
   24.2473  -13.3933  -14.3983 C   0  0  0  0  0  0  0  0  0  0  0  0
   23.0314  -12.7525  -14.3351 C   0  0  0  0  0  0  0  0  0  0  0  0
   22.9235  -11.3006  -14.0633 C   0  0  0  0  0  0  0  0  0  0  0  0
   22.6248  -10.4991  -15.2888 C   0  0  2  0  0  0  0  0  0  0  0  0
   23.6122  -10.5392  -16.3090 N   0  0  0  0  0  0  0  0  0  0  0  0
   22.3381   -9.0904  -14.9242 C   0  0  0  0  0  0  0  0  0  0  0  0
   23.2992   -8.2488  -14.8799 O   0  0  0  0  0  0  0  0  0  0  0  0
   21.9137  -13.5486  -14.5410 C   0  0  0  0  0  0  0  0  0  0  0  0
   22.0245  -14.8990  -14.7930 C   0  0  0  0  0  0  0  0  0  0  0  0
   21.0547   -8.6087  -14.6185 N   0  0  0  0  0  0  0  0  0  0  0  0
   20.7709   -7.1582  -14.4941 C   0  0  1  0  0  0  0  0  0  0  0  0
   21.2856   -6.5018  -15.7389 C   0  0  0  0  0  0  0  0  0  0  0  0
   21.0931   -5.0217  -15.6795 C   0  0  0  0  0  0  0  0  0  0  0  0
   21.5216   -4.3634  -16.9554 C   0  0  0  0  0  0  0  0  0  0  0  0
   21.4484   -3.1233  -17.0897 O   0  0  0  0  0  0  0  0  0  0  0  0
   19.3511   -6.9369  -14.2184 C   0  0  0  0  0  0  0  0  0  0  0  0
   18.4508   -7.9328  -14.6473 O   0  0  0  0  0  0  0  0  0  0  0  0
   22.0020   -5.1396  -17.9914 O   0  0  0  0  0  0  0  0  0  0  0  0
   18.9210   -5.9170  -13.6286 O   0  0  0  0  0  0  0  0  0  0  0  0
  2  1  1  6
  2  4  1  0
  3  2  1  0
  4  5  1  1
  6  4  1  0
  6  7  2  0
  9  8  1  0
 10  9  2  0
 11 10  1  0
 12 11  2  0
 12 18  1  0
 14 13  1  1
 13 12  1  0
 14 15  1  0
 15  6  1  0
 16 14  1  0
 17 16  2  0
 18 19  2  0
 19  9  1  0
 20 16  1  0
 21 22  1  6
 21 20  1  0
 22 23  1  0
 23 24  1  0
 24 28  1  0
 25 24  2  0
 26 27  1  0
 26 21  1  0
 29 26  2  0
M  END
$$$$
