TYE.pdb
     RDKit          3D

 29 29  0  0  1  0  0  0  0  0999 V2000
   22.6870  -22.4876  -20.9740 C   0  0  0  0  0  0  0  0  0  0  0  0
   22.0168  -22.2413  -19.6654 C   0  0  1  0  0  0  0  0  0  0  0  0
   20.6523  -22.3914  -19.7903 O   0  0  0  0  0  0  0  0  0  0  0  0
   22.5819  -23.0883  -18.5309 C   0  0  2  0  0  0  0  0  0  0  0  0
   22.4927  -24.4761  -18.8661 N   0  0  0  0  0  0  0  0  0  0  0  0
   21.9571  -22.7443  -17.2281 C   0  0  0  0  0  0  0  0  0  0  0  0
   21.1710  -23.5568  -16.7221 O   0  0  0  0  0  0  0  0  0  0  0  0
   19.8213  -18.6844   -9.6483 O   0  0  0  0  0  0  0  0  0  0  0  0
   20.4465  -19.0177  -10.8610 C   0  0  0  0  0  0  0  0  0  0  0  0
   21.1138  -20.2156  -10.9807 C   0  0  0  0  0  0  0  0  0  0  0  0
   21.7296  -20.5436  -12.1750 C   0  0  0  0  0  0  0  0  0  0  0  0
   21.7134  -19.7216  -13.2783 C   0  0  0  0  0  0  0  0  0  0  0  0
   22.3813  -20.0973  -14.5456 C   0  0  0  0  0  0  0  0  0  0  0  0
   21.6147  -21.1129  -15.3295 C   0  0  2  0  0  0  0  0  0  0  0  0
   22.2166  -21.5395  -16.5432 N   0  0  0  0  0  0  0  0  0  0  0  0
   20.2398  -20.6251  -15.5964 C   0  0  0  0  0  0  0  0  0  0  0  0
   20.0541  -19.7489  -16.5083 O   0  0  0  0  0  0  0  0  0  0  0  0
   21.0343  -18.5206  -13.1311 C   0  0  0  0  0  0  0  0  0  0  0  0
   20.4161  -18.1800  -11.9474 C   0  0  0  0  0  0  0  0  0  0  0  0
   19.1043  -21.0711  -14.9004 N   0  0  0  0  0  0  0  0  0  0  0  0
   17.7470  -20.5549  -15.2024 C   0  0  1  0  0  0  0  0  0  0  0  0
   16.7856  -21.6777  -14.9571 C   0  0  0  0  0  0  0  0  0  0  0  0
   16.6611  -21.9631  -13.4962 C   0  0  0  0  0  0  0  0  0  0  0  0
   15.6515  -23.0385  -13.2337 C   0  0  0  0  0  0  0  0  0  0  0  0
   15.7886  -24.1776  -13.7289 O   0  0  0  0  0  0  0  0  0  0  0  0
   17.4826  -19.3347  -14.4395 C   0  0  0  0  0  0  0  0  0  0  0  0
   18.3223  -19.0711  -13.3386 O   0  0  0  0  0  0  0  0  0  0  0  0
   14.5590  -22.7634  -12.4354 O   0  0  0  0  0  0  0  0  0  0  0  0
   16.5578  -18.5374  -14.7257 O   0  0  0  0  0  0  0  0  0  0  0  0
  2  1  1  6
  2  4  1  0
  3  2  1  0
  4  5  1  6
  6  4  1  0
  6  7  2  0
  9  8  1  0
 10  9  2  0
 11 10  1  0
 12 11  2  0
 12 18  1  0
 14 13  1  6
 13 12  1  0
 14 15  1  0
 15  6  1  0
 16 14  1  0
 17 16  2  0
 18 19  2  0
 19  9  1  0
 20 16  1  0
 21 22  1  1
 21 20  1  0
 22 23  1  0
 23 24  1  0
 24 28  1  0
 25 24  2  0
 26 27  1  0
 26 21  1  0
 29 26  2  0
M  END
$$$$
