TYE.pdb
     RDKit          3D

 29 29  0  0  1  0  0  0  0  0999 V2000
   22.2216   -6.6685  -21.8363 C   0  0  0  0  0  0  0  0  0  0  0  0
   21.9046   -6.6272  -20.3803 C   0  0  1  0  0  0  0  0  0  0  0  0
   20.5423   -6.5408  -20.1890 O   0  0  0  0  0  0  0  0  0  0  0  0
   22.5179   -7.7827  -19.5977 C   0  0  2  0  0  0  0  0  0  0  0  0
   22.0227   -9.0283  -20.0971 N   0  0  0  0  0  0  0  0  0  0  0  0
   22.3372   -7.6085  -18.1337 C   0  0  0  0  0  0  0  0  0  0  0  0
   21.5036   -8.3205  -17.5571 O   0  0  0  0  0  0  0  0  0  0  0  0
   26.7342  -11.6453  -15.7395 O   0  0  0  0  0  0  0  0  0  0  0  0
   26.1244  -10.3861  -15.6165 C   0  0  0  0  0  0  0  0  0  0  0  0
   25.1229  -10.1979  -14.6911 C   0  0  0  0  0  0  0  0  0  0  0  0
   24.5224   -8.9578  -14.5701 C   0  0  0  0  0  0  0  0  0  0  0  0
   24.8767   -7.8740  -15.3401 C   0  0  0  0  0  0  0  0  0  0  0  0
   24.2169   -6.5566  -15.1902 C   0  0  0  0  0  0  0  0  0  0  0  0
   22.9503   -6.4465  -15.9757 C   0  0  2  0  0  0  0  0  0  0  0  0
   23.0681   -6.6733  -17.3728 N   0  0  0  0  0  0  0  0  0  0  0  0
   22.3084   -5.1315  -15.7340 C   0  0  0  0  0  0  0  0  0  0  0  0
   22.9240   -4.0642  -16.0742 O   0  0  0  0  0  0  0  0  0  0  0  0
   25.8883   -8.0905  -16.2648 C   0  0  0  0  0  0  0  0  0  0  0  0
   26.4960   -9.3204  -16.3969 C   0  0  0  0  0  0  0  0  0  0  0  0
   21.0429   -4.9770  -15.1446 N   0  0  0  0  0  0  0  0  0  0  0  0
   20.2775   -3.7111  -15.2521 C   0  0  1  0  0  0  0  0  0  0  0  0
   20.0910   -3.4334  -16.7126 C   0  0  0  0  0  0  0  0  0  0  0  0
   19.2604   -2.2094  -16.9206 C   0  0  0  0  0  0  0  0  0  0  0  0
   19.0666   -1.9217  -18.3782 C   0  0  0  0  0  0  0  0  0  0  0  0
   19.5011   -2.7075  -19.2472 O   0  0  0  0  0  0  0  0  0  0  0  0
   19.0411   -3.7936  -14.4740 C   0  0  0  0  0  0  0  0  0  0  0  0
   18.6719   -5.0639  -13.9879 O   0  0  0  0  0  0  0  0  0  0  0  0
   18.4001   -0.7746  -18.7607 O   0  0  0  0  0  0  0  0  0  0  0  0
   18.3187   -2.7972  -14.2323 O   0  0  0  0  0  0  0  0  0  0  0  0
  2  1  1  6
  2  4  1  0
  3  2  1  0
  4  5  1  6
  6  4  1  0
  6  7  2  0
  9  8  1  0
 10  9  2  0
 11 10  1  0
 12 11  2  0
 12 18  1  0
 14 13  1  1
 13 12  1  0
 14 15  1  0
 15  6  1  0
 16 14  1  0
 17 16  2  0
 18 19  2  0
 19  9  1  0
 20 16  1  0
 21 22  1  6
 21 20  1  0
 22 23  1  0
 23 24  1  0
 24 28  1  0
 25 24  2  0
 26 27  1  0
 26 21  1  0
 29 26  2  0
M  END
$$$$
