TYE.pdb
     RDKit          3D

 29 29  0  0  1  0  0  0  0  0999 V2000
   18.6936   -8.5466  -18.7446 C   0  0  0  0  0  0  0  0  0  0  0  0
   18.4178  -10.0083  -18.8429 C   0  0  1  0  0  0  0  0  0  0  0  0
   17.7825  -10.2969  -20.0317 O   0  0  0  0  0  0  0  0  0  0  0  0
   19.6580  -10.8702  -18.6356 C   0  0  2  0  0  0  0  0  0  0  0  0
   19.3282  -12.2510  -18.8108 N   0  0  0  0  0  0  0  0  0  0  0  0
   20.3214  -10.5712  -17.3407 C   0  0  0  0  0  0  0  0  0  0  0  0
   19.7911  -10.9854  -16.3009 O   0  0  0  0  0  0  0  0  0  0  0  0
   23.8382  -15.7235  -16.0445 O   0  0  0  0  0  0  0  0  0  0  0  0
   23.7781  -14.3211  -15.9959 C   0  0  0  0  0  0  0  0  0  0  0  0
   23.8156  -13.5934  -17.1637 C   0  0  0  0  0  0  0  0  0  0  0  0
   23.7565  -12.2123  -17.1158 C   0  0  0  0  0  0  0  0  0  0  0  0
   23.6598  -11.5057  -15.9392 C   0  0  0  0  0  0  0  0  0  0  0  0
   23.5982  -10.0261  -15.9161 C   0  0  0  0  0  0  0  0  0  0  0  0
   22.2056   -9.4988  -16.0433 C   0  0  2  0  0  0  0  0  0  0  0  0
   21.5229   -9.8400  -17.2411 N   0  0  0  0  0  0  0  0  0  0  0  0
   22.1950   -8.0268  -15.8625 C   0  0  0  0  0  0  0  0  0  0  0  0
   22.1946   -7.2711  -16.8933 O   0  0  0  0  0  0  0  0  0  0  0  0
   23.6238  -12.2628  -14.7770 C   0  0  0  0  0  0  0  0  0  0  0  0
   23.6819  -13.6394  -14.8089 C   0  0  0  0  0  0  0  0  0  0  0  0
   22.1845   -7.3943  -14.6085 N   0  0  0  0  0  0  0  0  0  0  0  0
   22.0414   -5.9242  -14.4734 C   0  0  1  0  0  0  0  0  0  0  0  0
   20.7906   -5.5361  -15.2013 C   0  0  0  0  0  0  0  0  0  0  0  0
   20.5264   -4.0723  -15.0638 C   0  0  0  0  0  0  0  0  0  0  0  0
   19.2143   -3.6937  -15.6801 C   0  0  0  0  0  0  0  0  0  0  0  0
   18.8664   -4.1677  -16.7827 O   0  0  0  0  0  0  0  0  0  0  0  0
   22.0848   -5.5338  -13.0639 C   0  0  0  0  0  0  0  0  0  0  0  0
   21.8620   -6.5470  -12.1098 O   0  0  0  0  0  0  0  0  0  0  0  0
   18.3836   -2.8109  -15.0189 O   0  0  0  0  0  0  0  0  0  0  0  0
   22.3078   -4.3583  -12.6876 O   0  0  0  0  0  0  0  0  0  0  0  0
  2  1  1  6
  2  4  1  0
  3  2  1  0
  4  5  1  1
  6  4  1  0
  6  7  2  0
  9  8  1  0
 10  9  2  0
 11 10  1  0
 12 11  2  0
 12 18  1  0
 14 13  1  6
 13 12  1  0
 14 15  1  0
 15  6  1  0
 16 14  1  0
 17 16  2  0
 18 19  2  0
 19  9  1  0
 20 16  1  0
 21 22  1  1
 21 20  1  0
 22 23  1  0
 23 24  1  0
 24 28  1  0
 25 24  2  0
 26 27  1  0
 26 21  1  0
 29 26  2  0
M  END
$$$$
