TYE.pdb
     RDKit          3D

 29 29  0  0  1  0  0  0  0  0999 V2000
   24.1990  -11.5750  -22.6335 C   0  0  0  0  0  0  0  0  0  0  0  0
   23.4952  -11.1883  -21.3776 C   0  0  1  0  0  0  0  0  0  0  0  0
   22.1321  -11.1636  -21.5806 O   0  0  0  0  0  0  0  0  0  0  0  0
   23.8778  -12.0536  -20.1822 C   0  0  2  0  0  0  0  0  0  0  0  0
   23.6562  -13.4335  -20.4872 N   0  0  0  0  0  0  0  0  0  0  0  0
   23.2041  -11.5979  -18.9394 C   0  0  0  0  0  0  0  0  0  0  0  0
   22.1432  -12.1471  -18.6125 O   0  0  0  0  0  0  0  0  0  0  0  0
   21.2398   -7.2853  -11.4432 O   0  0  0  0  0  0  0  0  0  0  0  0
   21.9188   -7.8185  -12.5511 C   0  0  0  0  0  0  0  0  0  0  0  0
   22.3188   -6.9882  -13.5734 C   0  0  0  0  0  0  0  0  0  0  0  0
   22.9874   -7.5135  -14.6645 C   0  0  0  0  0  0  0  0  0  0  0  0
   23.2835   -8.8512  -14.7905 C   0  0  0  0  0  0  0  0  0  0  0  0
   24.0008   -9.3876  -15.9700 C   0  0  0  0  0  0  0  0  0  0  0  0
   23.0872  -10.0207  -16.9691 C   0  0  2  0  0  0  0  0  0  0  0  0
   23.7150  -10.5725  -18.1174 N   0  0  0  0  0  0  0  0  0  0  0  0
   22.0364   -9.0604  -17.3853 C   0  0  0  0  0  0  0  0  0  0  0  0
   22.2923   -8.2173  -18.3113 O   0  0  0  0  0  0  0  0  0  0  0  0
   22.8694   -9.6660  -13.7465 C   0  0  0  0  0  0  0  0  0  0  0  0
   22.2022   -9.1572  -12.6531 C   0  0  0  0  0  0  0  0  0  0  0  0
   20.7519   -9.0146  -16.8189 N   0  0  0  0  0  0  0  0  0  0  0  0
   19.7392   -8.0214  -17.2523 C   0  0  1  0  0  0  0  0  0  0  0  0
   18.6054   -8.7879  -17.8623 C   0  0  0  0  0  0  0  0  0  0  0  0
   17.5109   -7.8674  -18.2936 C   0  0  0  0  0  0  0  0  0  0  0  0
   16.3396   -8.6278  -18.8364 C   0  0  0  0  0  0  0  0  0  0  0  0
   16.3217   -9.8770  -18.8099 O   0  0  0  0  0  0  0  0  0  0  0  0
   19.3688   -7.1492  -16.1374 C   0  0  0  0  0  0  0  0  0  0  0  0
   19.3464   -7.7255  -14.8513 O   0  0  0  0  0  0  0  0  0  0  0  0
   15.2706   -7.9366  -19.3711 O   0  0  0  0  0  0  0  0  0  0  0  0
   19.0785   -5.9381  -16.2852 O   0  0  0  0  0  0  0  0  0  0  0  0
  2  1  1  6
  2  4  1  0
  3  2  1  0
  4  5  1  6
  6  4  1  0
  6  7  2  0
  9  8  1  0
 10  9  2  0
 11 10  1  0
 12 11  2  0
 12 18  1  0
 14 13  1  1
 13 12  1  0
 14 15  1  0
 15  6  1  0
 16 14  1  0
 17 16  2  0
 18 19  2  0
 19  9  1  0
 20 16  1  0
 21 22  1  1
 21 20  1  0
 22 23  1  0
 23 24  1  0
 24 28  1  0
 25 24  2  0
 26 27  1  0
 26 21  1  0
 29 26  2  0
M  END
$$$$
