TYE.pdb
     RDKit          3D

 29 29  0  0  1  0  0  0  0  0999 V2000
   25.4172  -11.0493  -16.1647 C   0  0  0  0  0  0  0  0  0  0  0  0
   25.6734  -12.3242  -16.8936 C   0  0  1  0  0  0  0  0  0  0  0  0
   26.6031  -13.0842  -16.2169 O   0  0  0  0  0  0  0  0  0  0  0  0
   24.4030  -13.1116  -17.1938 C   0  0  2  0  0  0  0  0  0  0  0  0
   24.7334  -14.3427  -17.8432 N   0  0  0  0  0  0  0  0  0  0  0  0
   23.4121  -12.2895  -17.9342 C   0  0  0  0  0  0  0  0  0  0  0  0
   23.6682  -11.9758  -19.1047 O   0  0  0  0  0  0  0  0  0  0  0  0
   20.8828  -14.8978  -23.0581 O   0  0  0  0  0  0  0  0  0  0  0  0
   20.6688  -14.1038  -21.9196 C   0  0  0  0  0  0  0  0  0  0  0  0
   20.3671  -12.7685  -22.0630 C   0  0  0  0  0  0  0  0  0  0  0  0
   20.1564  -11.9865  -20.9417 C   0  0  0  0  0  0  0  0  0  0  0  0
   20.2327  -12.4781  -19.6589 C   0  0  0  0  0  0  0  0  0  0  0  0
   20.0027  -11.6184  -18.4750 C   0  0  0  0  0  0  0  0  0  0  0  0
   21.2539  -10.9763  -17.9693 C   0  0  2  0  0  0  0  0  0  0  0  0
   22.1976  -11.8511  -17.3679 N   0  0  0  0  0  0  0  0  0  0  0  0
   20.9238   -9.8749  -17.0325 C   0  0  0  0  0  0  0  0  0  0  0  0
   21.3266   -9.9435  -15.8213 O   0  0  0  0  0  0  0  0  0  0  0  0
   20.5382  -13.8265  -19.5421 C   0  0  0  0  0  0  0  0  0  0  0  0
   20.7508  -14.6182  -20.6501 C   0  0  0  0  0  0  0  0  0  0  0  0
   20.1835   -8.7376  -17.3944 N   0  0  0  0  0  0  0  0  0  0  0  0
   19.9111   -7.6411  -16.4334 C   0  0  1  0  0  0  0  0  0  0  0  0
   21.2160   -7.2908  -15.7857 C   0  0  0  0  0  0  0  0  0  0  0  0
   21.0343   -6.2082  -14.7725 C   0  0  0  0  0  0  0  0  0  0  0  0
   22.3281   -5.8693  -14.0971 C   0  0  0  0  0  0  0  0  0  0  0  0
   22.3639   -5.6247  -12.8723 O   0  0  0  0  0  0  0  0  0  0  0  0
   19.2339   -6.5306  -17.1035 C   0  0  0  0  0  0  0  0  0  0  0  0
   18.5604   -5.6015  -16.2851 O   0  0  0  0  0  0  0  0  0  0  0  0
   23.4911   -5.8279  -14.8403 O   0  0  0  0  0  0  0  0  0  0  0  0
   19.2333   -6.3828  -18.3489 O   0  0  0  0  0  0  0  0  0  0  0  0
  2  1  1  1
  2  4  1  0
  3  2  1  0
  4  5  1  6
  6  4  1  0
  6  7  2  0
  9  8  1  0
 10  9  2  0
 11 10  1  0
 12 11  2  0
 12 18  1  0
 14 13  1  1
 13 12  1  0
 14 15  1  0
 15  6  1  0
 16 14  1  0
 17 16  2  0
 18 19  2  0
 19  9  1  0
 20 16  1  0
 21 22  1  6
 21 20  1  0
 22 23  1  0
 23 24  1  0
 24 28  1  0
 25 24  2  0
 26 27  1  0
 26 21  1  0
 29 26  2  0
M  END
$$$$
