TYE.pdb
     RDKit          3D

 29 29  0  0  1  0  0  0  0  0999 V2000
   27.1521  -22.3485  -19.4328 C   0  0  0  0  0  0  0  0  0  0  0  0
   26.3733  -22.2746  -18.1640 C   0  0  1  0  0  0  0  0  0  0  0  0
   25.0438  -22.5505  -18.4012 O   0  0  0  0  0  0  0  0  0  0  0  0
   26.9472  -23.1473  -17.0536 C   0  0  2  0  0  0  0  0  0  0  0  0
   27.0024  -24.5107  -17.4831 N   0  0  0  0  0  0  0  0  0  0  0  0
   26.2212  -22.9505  -15.7729 C   0  0  0  0  0  0  0  0  0  0  0  0
   25.4406  -23.8367  -15.3993 O   0  0  0  0  0  0  0  0  0  0  0  0
   23.5804  -20.0672   -7.8565 O   0  0  0  0  0  0  0  0  0  0  0  0
   24.2554  -20.1902   -9.0820 C   0  0  0  0  0  0  0  0  0  0  0  0
   25.3465  -21.0233   -9.1820 C   0  0  0  0  0  0  0  0  0  0  0  0
   26.0112  -21.1443  -10.3890 C   0  0  0  0  0  0  0  0  0  0  0  0
   25.6357  -20.4634  -11.5241 C   0  0  0  0  0  0  0  0  0  0  0  0
   26.3655  -20.6112  -12.8044 C   0  0  0  0  0  0  0  0  0  0  0  0
   25.6668  -21.5097  -13.7729 C   0  0  2  0  0  0  0  0  0  0  0  0
   26.3790  -21.8054  -14.9656 N   0  0  0  0  0  0  0  0  0  0  0  0
   24.3305  -20.9617  -14.1102 C   0  0  0  0  0  0  0  0  0  0  0  0
   24.1579  -20.3873  -15.2390 O   0  0  0  0  0  0  0  0  0  0  0  0
   24.5332  -19.6307  -11.3963 C   0  0  0  0  0  0  0  0  0  0  0  0
   23.8609  -19.4998  -10.2003 C   0  0  0  0  0  0  0  0  0  0  0  0
   23.2187  -21.0334  -13.2550 N   0  0  0  0  0  0  0  0  0  0  0  0
   21.8344  -20.8399  -13.7512 C   0  0  1  0  0  0  0  0  0  0  0  0
   21.6282  -21.8161  -14.8691 C   0  0  0  0  0  0  0  0  0  0  0  0
   21.2926  -21.1073  -16.1404 C   0  0  0  0  0  0  0  0  0  0  0  0
   19.9904  -21.5865  -16.7057 C   0  0  0  0  0  0  0  0  0  0  0  0
   19.6676  -22.7914  -16.6327 O   0  0  0  0  0  0  0  0  0  0  0  0
   20.8769  -20.9472  -12.6500 C   0  0  0  0  0  0  0  0  0  0  0  0
   21.3293  -21.5578  -11.4630 O   0  0  0  0  0  0  0  0  0  0  0  0
   19.1411  -20.6832  -17.3133 O   0  0  0  0  0  0  0  0  0  0  0  0
   19.6984  -20.5249  -12.7263 O   0  0  0  0  0  0  0  0  0  0  0  0
  2  1  1  6
  2  4  1  0
  3  2  1  0
  4  5  1  6
  6  4  1  0
  6  7  2  0
  9  8  1  0
 10  9  2  0
 11 10  1  0
 12 11  2  0
 12 18  1  0
 14 13  1  6
 13 12  1  0
 14 15  1  0
 15  6  1  0
 16 14  1  0
 17 16  2  0
 18 19  2  0
 19  9  1  0
 20 16  1  0
 21 22  1  6
 21 20  1  0
 22 23  1  0
 23 24  1  0
 24 28  1  0
 25 24  2  0
 26 27  1  0
 26 21  1  0
 29 26  2  0
M  END
$$$$
