TYE.pdb
     RDKit          3D

 29 29  0  0  1  0  0  0  0  0999 V2000
   20.3689  -13.9088  -19.4991 C   0  0  0  0  0  0  0  0  0  0  0  0
   20.1857  -12.6353  -18.7462 C   0  0  1  0  0  0  0  0  0  0  0  0
   18.9779  -12.0562  -19.0712 O   0  0  0  0  0  0  0  0  0  0  0  0
   20.3531  -12.7972  -17.2397 C   0  0  2  0  0  0  0  0  0  0  0  0
   19.4322  -13.7754  -16.7482 N   0  0  0  0  0  0  0  0  0  0  0  0
   20.2732  -11.4911  -16.5370 C   0  0  0  0  0  0  0  0  0  0  0  0
   19.1610  -11.0929  -16.1646 O   0  0  0  0  0  0  0  0  0  0  0  0
   22.6240   -3.4603  -13.5105 O   0  0  0  0  0  0  0  0  0  0  0  0
   22.6246   -4.8163  -13.8765 C   0  0  0  0  0  0  0  0  0  0  0  0
   23.2653   -5.2143  -15.0279 C   0  0  0  0  0  0  0  0  0  0  0  0
   23.2658   -6.5497  -15.3884 C   0  0  0  0  0  0  0  0  0  0  0  0
   22.6477   -7.5281  -14.6442 C   0  0  0  0  0  0  0  0  0  0  0  0
   22.6632   -8.9514  -15.0532 C   0  0  0  0  0  0  0  0  0  0  0  0
   21.3941   -9.3813  -15.7150 C   0  0  2  0  0  0  0  0  0  0  0  0
   21.4010  -10.6864  -16.2754 N   0  0  0  0  0  0  0  0  0  0  0  0
   20.9932   -8.3949  -16.7474 C   0  0  0  0  0  0  0  0  0  0  0  0
   21.5789   -8.4070  -17.8834 O   0  0  0  0  0  0  0  0  0  0  0  0
   22.0095   -7.1004  -13.4888 C   0  0  0  0  0  0  0  0  0  0  0  0
   22.0004   -5.7734  -13.1168 C   0  0  0  0  0  0  0  0  0  0  0  0
   19.9919   -7.4285  -16.5569 N   0  0  0  0  0  0  0  0  0  0  0  0
   19.6260   -6.4593  -17.6182 C   0  0  1  0  0  0  0  0  0  0  0  0
   18.1883   -6.7057  -17.9612 C   0  0  0  0  0  0  0  0  0  0  0  0
   17.7133   -5.7369  -18.9942 C   0  0  0  0  0  0  0  0  0  0  0  0
   16.2795   -5.9812  -19.3539 C   0  0  0  0  0  0  0  0  0  0  0  0
   15.6207   -6.8748  -18.7805 O   0  0  0  0  0  0  0  0  0  0  0  0
   19.9366   -5.0941  -17.1931 C   0  0  0  0  0  0  0  0  0  0  0  0
   19.7547   -4.7893  -15.8290 O   0  0  0  0  0  0  0  0  0  0  0  0
   15.6836   -5.2079  -20.3304 O   0  0  0  0  0  0  0  0  0  0  0  0
   20.3482   -4.2103  -17.9820 O   0  0  0  0  0  0  0  0  0  0  0  0
  2  1  1  6
  2  4  1  0
  3  2  1  0
  4  5  1  1
  6  4  1  0
  6  7  2  0
  9  8  1  0
 10  9  2  0
 11 10  1  0
 12 11  2  0
 12 18  1  0
 14 13  1  6
 13 12  1  0
 14 15  1  0
 15  6  1  0
 16 14  1  0
 17 16  2  0
 18 19  2  0
 19  9  1  0
 20 16  1  0
 21 22  1  1
 21 20  1  0
 22 23  1  0
 23 24  1  0
 24 28  1  0
 25 24  2  0
 26 27  1  0
 26 21  1  0
 29 26  2  0
M  END
$$$$
