SVF.pdb
     RDKit          3D

 25 25  0  0  1  0  0  0  0  0999 V2000
   24.1515  -20.6898   -8.4951 O   0  0  0  0  0  0  0  0  0  0  0  0
   25.1758  -21.5913   -8.7662 C   0  0  0  0  0  0  0  0  0  0  0  0
   26.3696  -20.7963   -9.2492 C   0  0  2  0  0  0  0  0  0  0  0  0
   26.7972  -19.8203   -8.2720 N   0  0  0  0  0  0  0  0  0  0  0  0
   26.0760  -20.1025  -10.5254 C   0  0  0  0  0  0  0  0  0  0  0  0
   25.8217  -18.8595  -10.5614 O   0  0  0  0  0  0  0  0  0  0  0  0
   28.0319  -19.6461  -13.6090 C   0  0  0  0  0  0  0  0  0  0  0  0
   26.7919  -20.4047  -14.0075 C   0  0  1  0  0  0  0  0  0  0  0  0
   27.1351  -21.8485  -14.1868 C   0  0  0  0  0  0  0  0  0  0  0  0
   25.6724  -20.2315  -12.9736 C   0  0  2  0  0  0  0  0  0  0  0  0
   26.0741  -20.8190  -11.7343 N   0  0  0  0  0  0  0  0  0  0  0  0
   24.4864  -20.9517  -13.5628 C   0  0  0  0  0  0  0  0  0  0  0  0
   24.3288  -22.1833  -13.3601 O   0  0  0  0  0  0  0  0  0  0  0  0
   23.5236  -20.2904  -14.3493 N   0  0  0  0  0  0  0  0  0  0  0  0
   22.1193  -20.1853  -13.9789 C   0  0  1  0  0  0  0  0  0  0  0  0
   21.9519  -19.5229  -12.6317 C   0  0  0  0  0  0  0  0  0  0  0  0
   20.5653  -19.3116  -12.2401 C   0  0  0  0  0  0  0  0  0  0  0  0
   19.9550  -18.0941  -12.4224 C   0  0  0  0  0  0  0  0  0  0  0  0
   18.6428  -17.8531  -12.0648 C   0  0  0  0  0  0  0  0  0  0  0  0
   17.9208  -18.8806  -11.5022 C   0  0  0  0  0  0  0  0  0  0  0  0
   18.5205  -20.1080  -11.3133 C   0  0  0  0  0  0  0  0  0  0  0  0
   19.8426  -20.3348  -11.6786 C   0  0  0  0  0  0  0  0  0  0  0  0
   21.3953  -19.4592  -15.0512 C   0  0  0  0  0  0  0  0  0  0  0  0
   21.9117  -18.4638  -15.6229 O   0  0  0  0  0  0  0  0  0  0  0  0
   20.1260  -19.8282  -15.4807 O   0  0  0  0  0  0  0  0  0  0  0  0
  2  1  1  0
  3  2  1  0
  3  4  1  1
  5  3  1  0
  5  6  2  0
  8  7  1  1
  8 10  1  0
  9  8  1  0
 10 12  1  0
 10 11  1  1
 11  5  1  0
 12 14  1  0
 13 12  2  0
 14 15  1  0
 15 23  1  0
 15 16  1  1
 17 16  1  0
 17 22  2  0
 18 17  1  0
 19 18  2  0
 19 20  1  0
 20 21  2  0
 21 22  1  0
 23 24  2  0
 23 25  1  0
M  END
$$$$
