SVF.pdb
     RDKit          3D

 25 25  0  0  1  0  0  0  0  0999 V2000
   20.0154   -9.0493  -16.5193 O   0  0  0  0  0  0  0  0  0  0  0  0
   20.7129  -10.1838  -16.1171 C   0  0  0  0  0  0  0  0  0  0  0  0
   21.4740   -9.8308  -14.8576 C   0  0  2  0  0  0  0  0  0  0  0  0
   20.6645   -9.0649  -13.9365 N   0  0  0  0  0  0  0  0  0  0  0  0
   22.7050   -9.0659  -15.1669 C   0  0  0  0  0  0  0  0  0  0  0  0
   22.7717   -7.8124  -14.9795 O   0  0  0  0  0  0  0  0  0  0  0  0
   26.3753  -10.3260  -14.3323 C   0  0  0  0  0  0  0  0  0  0  0  0
   26.2418   -9.9531  -15.7867 C   0  0  1  0  0  0  0  0  0  0  0  0
   26.1289  -11.1988  -16.6054 C   0  0  0  0  0  0  0  0  0  0  0  0
   25.0380   -9.0321  -16.0210 C   0  0  2  0  0  0  0  0  0  0  0  0
   23.8354   -9.7247  -15.6800 N   0  0  0  0  0  0  0  0  0  0  0  0
   25.0829   -8.7026  -17.4913 C   0  0  0  0  0  0  0  0  0  0  0  0
   24.5642   -9.4825  -18.3311 O   0  0  0  0  0  0  0  0  0  0  0  0
   25.6949   -7.5314  -17.9780 N   0  0  0  0  0  0  0  0  0  0  0  0
   25.8061   -7.2132  -19.3946 C   0  0  1  0  0  0  0  0  0  0  0  0
   25.2945   -5.8228  -19.6897 C   0  0  0  0  0  0  0  0  0  0  0  0
   25.3885   -5.4389  -21.0912 C   0  0  0  0  0  0  0  0  0  0  0  0
   24.4210   -5.8094  -21.9939 C   0  0  0  0  0  0  0  0  0  0  0  0
   24.4730   -5.4657  -23.3307 C   0  0  0  0  0  0  0  0  0  0  0  0
   25.5423   -4.7202  -23.7714 C   0  0  0  0  0  0  0  0  0  0  0  0
   26.5208   -4.3412  -22.8766 C   0  0  0  0  0  0  0  0  0  0  0  0
   26.4541   -4.6951  -21.5338 C   0  0  0  0  0  0  0  0  0  0  0  0
   27.2183   -7.3886  -19.8143 C   0  0  0  0  0  0  0  0  0  0  0  0
   28.1662   -7.0462  -19.0603 O   0  0  0  0  0  0  0  0  0  0  0  0
   27.5725   -7.9320  -21.0436 O   0  0  0  0  0  0  0  0  0  0  0  0
  2  1  1  0
  3  2  1  0
  3  4  1  1
  5  3  1  0
  5  6  2  0
  8  7  1  1
  8 10  1  0
  9  8  1  0
 10 12  1  0
 10 11  1  6
 11  5  1  0
 12 14  1  0
 13 12  2  0
 14 15  1  0
 15 23  1  0
 15 16  1  1
 17 16  1  0
 17 22  2  0
 18 17  1  0
 19 18  2  0
 19 20  1  0
 20 21  2  0
 21 22  1  0
 23 24  2  0
 23 25  1  0
M  END
$$$$
