SVF.pdb
     RDKit          3D

 25 25  0  0  1  0  0  0  0  0999 V2000
   15.0899  -13.6260    5.9294 O   0  0  0  0  0  0  0  0  0  0  0  0
   16.3717  -14.1563    5.8238 C   0  0  0  0  0  0  0  0  0  0  0  0
   17.3360  -12.9985    5.6825 C   0  0  2  0  0  0  0  0  0  0  0  0
   17.3580  -12.4781    4.3338 N   0  0  0  0  0  0  0  0  0  0  0  0
   18.7117  -13.3909    6.0692 C   0  0  0  0  0  0  0  0  0  0  0  0
   19.3957  -14.1937    5.3632 O   0  0  0  0  0  0  0  0  0  0  0  0
   20.2571  -11.8442    9.7373 C   0  0  0  0  0  0  0  0  0  0  0  0
   21.1721  -12.1517    8.5796 C   0  0  1  0  0  0  0  0  0  0  0  0
   22.5168  -12.5394    9.1051 C   0  0  0  0  0  0  0  0  0  0  0  0
   20.5936  -13.2557    7.6859 C   0  0  2  0  0  0  0  0  0  0  0  0
   19.2905  -12.8735    7.2406 N   0  0  0  0  0  0  0  0  0  0  0  0
   20.5355  -14.4770    8.5676 C   0  0  0  0  0  0  0  0  0  0  0  0
   19.5593  -14.6536    9.3411 O   0  0  0  0  0  0  0  0  0  0  0  0
   21.5508  -15.4527    8.5633 N   0  0  0  0  0  0  0  0  0  0  0  0
   21.4882  -16.6796    9.3451 C   0  0  1  0  0  0  0  0  0  0  0  0
   21.6157  -17.9014    8.4660 C   0  0  0  0  0  0  0  0  0  0  0  0
   20.4165  -18.2118    7.7004 C   0  0  0  0  0  0  0  0  0  0  0  0
   20.4258  -18.1843    6.3266 C   0  0  0  0  0  0  0  0  0  0  0  0
   19.3105  -18.4720    5.5642 C   0  0  0  0  0  0  0  0  0  0  0  0
   18.1428  -18.7996    6.2142 C   0  0  0  0  0  0  0  0  0  0  0  0
   18.1188  -18.8312    7.5927 C   0  0  0  0  0  0  0  0  0  0  0  0
   19.2500  -18.5389    8.3462 C   0  0  0  0  0  0  0  0  0  0  0  0
   22.5389  -16.6335   10.3916 C   0  0  0  0  0  0  0  0  0  0  0  0
   23.4909  -15.8134   10.3189 O   0  0  0  0  0  0  0  0  0  0  0  0
   22.5345  -17.4783   11.4953 O   0  0  0  0  0  0  0  0  0  0  0  0
  2  1  1  0
  3  2  1  0
  3  4  1  6
  5  3  1  0
  5  6  2  0
  8  7  1  1
  8 10  1  0
  9  8  1  0
 10 12  1  0
 10 11  1  1
 11  5  1  0
 12 14  1  0
 13 12  2  0
 14 15  1  0
 15 23  1  0
 15 16  1  6
 17 16  1  0
 17 22  2  0
 18 17  1  0
 19 18  2  0
 19 20  1  0
 20 21  2  0
 21 22  1  0
 23 24  2  0
 23 25  1  0
M  END
$$$$
