SVF.pdb
     RDKit          3D

 25 25  0  0  1  0  0  0  0  0999 V2000
   21.2941  -20.2307  -11.5577 O   0  0  0  0  0  0  0  0  0  0  0  0
   21.8744  -19.6002  -12.6537 C   0  0  0  0  0  0  0  0  0  0  0  0
   22.6298  -20.6504  -13.4391 C   0  0  2  0  0  0  0  0  0  0  0  0
   21.7643  -21.7246  -13.8720 N   0  0  0  0  0  0  0  0  0  0  0  0
   23.7442  -21.2205  -12.6459 C   0  0  0  0  0  0  0  0  0  0  0  0
   23.6222  -22.3216  -12.0266 O   0  0  0  0  0  0  0  0  0  0  0  0
   28.5517  -20.9019  -11.4816 C   0  0  0  0  0  0  0  0  0  0  0  0
   27.3813  -20.5008  -12.3425 C   0  0  1  0  0  0  0  0  0  0  0  0
   27.5918  -21.0164  -13.7298 C   0  0  0  0  0  0  0  0  0  0  0  0
   26.0572  -21.0129  -11.7623 C   0  0  2  0  0  0  0  0  0  0  0  0
   24.9723  -20.5421  -12.5647 N   0  0  0  0  0  0  0  0  0  0  0  0
   25.9976  -20.4403  -10.3692 C   0  0  0  0  0  0  0  0  0  0  0  0
   25.5644  -19.2742  -10.1819 O   0  0  0  0  0  0  0  0  0  0  0  0
   26.4158  -21.1712   -9.2405 N   0  0  0  0  0  0  0  0  0  0  0  0
   26.5121  -20.5997   -7.9047 C   0  0  1  0  0  0  0  0  0  0  0  0
   27.2068  -21.5419   -6.9500 C   0  0  0  0  0  0  0  0  0  0  0  0
   27.7593  -20.8930   -5.7693 C   0  0  0  0  0  0  0  0  0  0  0  0
   26.9730  -20.6241   -4.6750 C   0  0  0  0  0  0  0  0  0  0  0  0
   27.4583  -20.0105   -3.5367 C   0  0  0  0  0  0  0  0  0  0  0  0
   28.7873  -19.6555   -3.5031 C   0  0  0  0  0  0  0  0  0  0  0  0
   29.5884  -19.9192   -4.5942 C   0  0  0  0  0  0  0  0  0  0  0  0
   29.0849  -20.5377   -5.7330 C   0  0  0  0  0  0  0  0  0  0  0  0
   27.2008  -19.2886   -7.9942 C   0  0  0  0  0  0  0  0  0  0  0  0
   28.2204  -19.1398   -8.7171 O   0  0  0  0  0  0  0  0  0  0  0  0
   26.7687  -18.1663   -7.2975 O   0  0  0  0  0  0  0  0  0  0  0  0
  2  1  1  0
  3  2  1  0
  3  4  1  1
  5  3  1  0
  5  6  2  0
  8  7  1  1
  8 10  1  0
  9  8  1  0
 10 12  1  0
 10 11  1  6
 11  5  1  0
 12 14  1  0
 13 12  2  0
 14 15  1  0
 15 23  1  0
 15 16  1  1
 17 16  1  0
 17 22  2  0
 18 17  1  0
 19 18  2  0
 19 20  1  0
 20 21  2  0
 21 22  1  0
 23 24  2  0
 23 25  1  0
M  END
$$$$
