SVF.pdb
     RDKit          3D

 25 25  0  0  1  0  0  0  0  0999 V2000
   19.1454  -19.3982  -14.8457 O   0  0  0  0  0  0  0  0  0  0  0  0
   19.6243  -19.8332  -13.6141 C   0  0  0  0  0  0  0  0  0  0  0  0
   19.9249  -21.3115  -13.7360 C   0  0  2  0  0  0  0  0  0  0  0  0
   18.9783  -22.1159  -12.9963 N   0  0  0  0  0  0  0  0  0  0  0  0
   21.2944  -21.6249  -13.2645 C   0  0  0  0  0  0  0  0  0  0  0  0
   21.5876  -21.6225  -12.0297 O   0  0  0  0  0  0  0  0  0  0  0  0
   23.2987  -24.6885  -13.6932 C   0  0  0  0  0  0  0  0  0  0  0  0
   24.0815  -23.5718  -14.3351 C   0  0  1  0  0  0  0  0  0  0  0  0
   23.9064  -23.6379  -15.8183 C   0  0  0  0  0  0  0  0  0  0  0  0
   23.6524  -22.2028  -13.7929 C   0  0  2  0  0  0  0  0  0  0  0  0
   22.3060  -21.9345  -14.1896 N   0  0  0  0  0  0  0  0  0  0  0  0
   24.6131  -21.2216  -14.4147 C   0  0  0  0  0  0  0  0  0  0  0  0
   24.2759  -20.5638  -15.4327 O   0  0  0  0  0  0  0  0  0  0  0  0
   25.9030  -21.0035  -13.8935 N   0  0  0  0  0  0  0  0  0  0  0  0
   26.8492  -20.0548  -14.4635 C   0  0  1  0  0  0  0  0  0  0  0  0
   27.5068  -19.2190  -13.3906 C   0  0  0  0  0  0  0  0  0  0  0  0
   27.9010  -19.9714  -12.2078 C   0  0  0  0  0  0  0  0  0  0  0  0
   27.0253  -20.1656  -11.1669 C   0  0  0  0  0  0  0  0  0  0  0  0
   27.3600  -20.8726  -10.0285 C   0  0  0  0  0  0  0  0  0  0  0  0
   28.6266  -21.4027   -9.9388 C   0  0  0  0  0  0  0  0  0  0  0  0
   29.5162  -21.2157  -10.9759 C   0  0  0  0  0  0  0  0  0  0  0  0
   29.1640  -20.5015  -12.1155 C   0  0  0  0  0  0  0  0  0  0  0  0
   27.8416  -20.7996  -15.2768 C   0  0  0  0  0  0  0  0  0  0  0  0
   28.6104  -20.1986  -16.0719 O   0  0  0  0  0  0  0  0  0  0  0  0
   27.9792  -22.1811  -15.2104 O   0  0  0  0  0  0  0  0  0  0  0  0
  2  1  1  0
  3  2  1  0
  3  4  1  1
  5  3  1  0
  5  6  2  0
  8  7  1  1
  8 10  1  0
  9  8  1  0
 10 12  1  0
 10 11  1  6
 11  5  1  0
 12 14  1  0
 13 12  2  0
 14 15  1  0
 15 23  1  0
 15 16  1  1
 17 16  1  0
 17 22  2  0
 18 17  1  0
 19 18  2  0
 19 20  1  0
 20 21  2  0
 21 22  1  0
 23 24  2  0
 23 25  1  0
M  END
$$$$
