SVF.pdb
     RDKit          3D

 25 25  0  0  1  0  0  0  0  0999 V2000
   17.4953  -12.4639  -14.9396 O   0  0  0  0  0  0  0  0  0  0  0  0
   17.0749  -12.7495  -16.2347 C   0  0  0  0  0  0  0  0  0  0  0  0
   18.0857  -13.6955  -16.8460 C   0  0  2  0  0  0  0  0  0  0  0  0
   18.3199  -14.8489  -16.0061 N   0  0  0  0  0  0  0  0  0  0  0  0
   19.3775  -13.0153  -17.1002 C   0  0  0  0  0  0  0  0  0  0  0  0
   20.4044  -13.2565  -16.3944 O   0  0  0  0  0  0  0  0  0  0  0  0
   22.0349  -10.3291  -20.2759 C   0  0  0  0  0  0  0  0  0  0  0  0
   20.8482  -11.1948  -19.9378 C   0  0  1  0  0  0  0  0  0  0  0  0
   20.9870  -12.5120  -20.6312 C   0  0  0  0  0  0  0  0  0  0  0  0
   20.7068  -11.3851  -18.4226 C   0  0  2  0  0  0  0  0  0  0  0  0
   19.4891  -12.0784  -18.1416 N   0  0  0  0  0  0  0  0  0  0  0  0
   20.6851   -9.9879  -17.8572 C   0  0  0  0  0  0  0  0  0  0  0  0
   19.6703   -9.2597  -18.0073 O   0  0  0  0  0  0  0  0  0  0  0  0
   21.7777   -9.4487  -17.1511 N   0  0  0  0  0  0  0  0  0  0  0  0
   21.7854   -8.1060  -16.5875 C   0  0  1  0  0  0  0  0  0  0  0  0
   22.7325   -8.0050  -15.4151 C   0  0  0  0  0  0  0  0  0  0  0  0
   22.8460   -6.6656  -14.8551 C   0  0  0  0  0  0  0  0  0  0  0  0
   23.7597   -5.7660  -15.3490 C   0  0  0  0  0  0  0  0  0  0  0  0
   23.8987   -4.4871  -14.8459 C   0  0  0  0  0  0  0  0  0  0  0  0
   23.0842   -4.1034  -13.8054 C   0  0  0  0  0  0  0  0  0  0  0  0
   22.1625   -4.9960  -13.2996 C   0  0  0  0  0  0  0  0  0  0  0  0
   22.0348   -6.2800  -13.8169 C   0  0  0  0  0  0  0  0  0  0  0  0
   22.1218   -7.1390  -17.6612 C   0  0  0  0  0  0  0  0  0  0  0  0
   23.0224   -7.3924  -18.5033 O   0  0  0  0  0  0  0  0  0  0  0  0
   21.4740   -5.9170  -17.7988 O   0  0  0  0  0  0  0  0  0  0  0  0
  2  1  1  0
  3  2  1  0
  3  4  1  1
  5  3  1  0
  5  6  2  0
  8  7  1  1
  8 10  1  0
  9  8  1  0
 10 12  1  0
 10 11  1  6
 11  5  1  0
 12 14  1  0
 13 12  2  0
 14 15  1  0
 15 23  1  0
 15 16  1  1
 17 16  1  0
 17 22  2  0
 18 17  1  0
 19 18  2  0
 19 20  1  0
 20 21  2  0
 21 22  1  0
 23 24  2  0
 23 25  1  0
M  END
$$$$
