SVF.pdb
     RDKit          3D

 25 25  0  0  1  0  0  0  0  0999 V2000
   29.5247  -17.3697  -15.5372 O   0  0  0  0  0  0  0  0  0  0  0  0
   28.6619  -17.4097  -14.4466 C   0  0  0  0  0  0  0  0  0  0  0  0
   27.3636  -18.0323  -14.9125 C   0  0  2  0  0  0  0  0  0  0  0  0
   26.6324  -17.1535  -15.7976 N   0  0  0  0  0  0  0  0  0  0  0  0
   26.4953  -18.3921  -13.7667 C   0  0  0  0  0  0  0  0  0  0  0  0
   25.7519  -17.5323  -13.2021 O   0  0  0  0  0  0  0  0  0  0  0  0
   25.8870  -22.4989  -13.0237 C   0  0  0  0  0  0  0  0  0  0  0  0
   24.8955  -21.4269  -12.6500 C   0  0  1  0  0  0  0  0  0  0  0  0
   24.0150  -21.9324  -11.5527 C   0  0  0  0  0  0  0  0  0  0  0  0
   25.6018  -20.1309  -12.2332 C   0  0  2  0  0  0  0  0  0  0  0  0
   26.4801  -19.7100  -13.2790 N   0  0  0  0  0  0  0  0  0  0  0  0
   26.3676  -20.4911  -10.9857 C   0  0  0  0  0  0  0  0  0  0  0  0
   27.6078  -20.6949  -11.0407 O   0  0  0  0  0  0  0  0  0  0  0  0
   25.7404  -20.6126   -9.7308 N   0  0  0  0  0  0  0  0  0  0  0  0
   26.4662  -20.8450   -8.4899 C   0  0  1  0  0  0  0  0  0  0  0  0
   27.3763  -19.6861   -8.1576 C   0  0  0  0  0  0  0  0  0  0  0  0
   28.0075  -19.7810   -6.8487 C   0  0  0  0  0  0  0  0  0  0  0  0
   27.6075  -18.9765   -5.8090 C   0  0  0  0  0  0  0  0  0  0  0  0
   28.1800  -19.0354   -4.5534 C   0  0  0  0  0  0  0  0  0  0  0  0
   29.1942  -19.9407   -4.3408 C   0  0  0  0  0  0  0  0  0  0  0  0
   29.6060  -20.7546   -5.3752 C   0  0  0  0  0  0  0  0  0  0  0  0
   29.0195  -20.6832   -6.6336 C   0  0  0  0  0  0  0  0  0  0  0  0
   25.4880  -21.1142   -7.4074 C   0  0  0  0  0  0  0  0  0  0  0  0
   24.2987  -20.7108   -7.4931 O   0  0  0  0  0  0  0  0  0  0  0  0
   25.8206  -21.8154   -6.2544 O   0  0  0  0  0  0  0  0  0  0  0  0
  2  1  1  0
  3  2  1  0
  3  4  1  6
  5  3  1  0
  5  6  2  0
  8  7  1  1
  8 10  1  0
  9  8  1  0
 10 12  1  0
 10 11  1  6
 11  5  1  0
 12 14  1  0
 13 12  2  0
 14 15  1  0
 15 23  1  0
 15 16  1  1
 17 16  1  0
 17 22  2  0
 18 17  1  0
 19 18  2  0
 19 20  1  0
 20 21  2  0
 21 22  1  0
 23 24  2  0
 23 25  1  0
M  END
$$$$
