SVF.pdb
     RDKit          3D

 25 25  0  0  1  0  0  0  0  0999 V2000
   27.4519  -22.2521  -14.8170 O   0  0  0  0  0  0  0  0  0  0  0  0
   27.5731  -22.9804  -15.9961 C   0  0  0  0  0  0  0  0  0  0  0  0
   27.4153  -22.0136  -17.1497 C   0  0  2  0  0  0  0  0  0  0  0  0
   28.6515  -21.3257  -17.4483 N   0  0  0  0  0  0  0  0  0  0  0  0
   26.3610  -21.0097  -16.8728 C   0  0  0  0  0  0  0  0  0  0  0  0
   26.6452  -19.8522  -16.4368 O   0  0  0  0  0  0  0  0  0  0  0  0
   22.4971  -21.9350  -18.1610 C   0  0  0  0  0  0  0  0  0  0  0  0
   22.8671  -20.5052  -17.8594 C   0  0  1  0  0  0  0  0  0  0  0  0
   21.6404  -19.7560  -17.4487 C   0  0  0  0  0  0  0  0  0  0  0  0
   23.9486  -20.4229  -16.7751 C   0  0  2  0  0  0  0  0  0  0  0  0
   25.0094  -21.3267  -17.0914 N   0  0  0  0  0  0  0  0  0  0  0  0
   23.2500  -20.8221  -15.5003 C   0  0  0  0  0  0  0  0  0  0  0  0
   23.0910  -22.0380  -15.2195 O   0  0  0  0  0  0  0  0  0  0  0  0
   22.7555  -19.8705  -14.5877 N   0  0  0  0  0  0  0  0  0  0  0  0
   22.1625  -20.2212  -13.3049 C   0  0  1  0  0  0  0  0  0  0  0  0
   22.7589  -19.4078  -12.1803 C   0  0  0  0  0  0  0  0  0  0  0  0
   23.9962  -19.9545  -11.6412 C   0  0  0  0  0  0  0  0  0  0  0  0
   25.1697  -19.8884  -12.3532 C   0  0  0  0  0  0  0  0  0  0  0  0
   26.3636  -20.3946  -11.8777 C   0  0  0  0  0  0  0  0  0  0  0  0
   26.3718  -20.9895  -10.6369 C   0  0  0  0  0  0  0  0  0  0  0  0
   25.2015  -21.0629   -9.9111 C   0  0  0  0  0  0  0  0  0  0  0  0
   24.0075  -20.5486  -10.4037 C   0  0  0  0  0  0  0  0  0  0  0  0
   20.6914  -20.0521  -13.3962 C   0  0  0  0  0  0  0  0  0  0  0  0
   19.9322  -20.4765  -12.4863 O   0  0  0  0  0  0  0  0  0  0  0  0
   20.0746  -19.4259  -14.4729 O   0  0  0  0  0  0  0  0  0  0  0  0
  2  1  1  0
  3  2  1  0
  3  4  1  1
  5  3  1  0
  5  6  2  0
  8  7  1  1
  8 10  1  0
  9  8  1  0
 10 12  1  0
 10 11  1  6
 11  5  1  0
 12 14  1  0
 13 12  2  0
 14 15  1  0
 15 23  1  0
 15 16  1  1
 17 16  1  0
 17 22  2  0
 18 17  1  0
 19 18  2  0
 19 20  1  0
 20 21  2  0
 21 22  1  0
 23 24  2  0
 23 25  1  0
M  END
$$$$
