SVF.pdb
     RDKit          3D

 25 25  0  0  1  0  0  0  0  0999 V2000
   29.1624  -20.8839  -15.1634 O   0  0  0  0  0  0  0  0  0  0  0  0
   28.1082  -21.7866  -15.0682 C   0  0  0  0  0  0  0  0  0  0  0  0
   26.8280  -21.0253  -15.3362 C   0  0  2  0  0  0  0  0  0  0  0  0
   26.9774  -20.0882  -16.4270 N   0  0  0  0  0  0  0  0  0  0  0  0
   26.3730  -20.2923  -14.1313 C   0  0  0  0  0  0  0  0  0  0  0  0
   26.3488  -19.0238  -14.0963 O   0  0  0  0  0  0  0  0  0  0  0  0
   23.0738  -20.2117  -12.7826 C   0  0  0  0  0  0  0  0  0  0  0  0
   23.9356  -20.7679  -11.6780 C   0  0  1  0  0  0  0  0  0  0  0  0
   23.8053  -22.2570  -11.6552 C   0  0  0  0  0  0  0  0  0  0  0  0
   25.4012  -20.3483  -11.8453 C   0  0  2  0  0  0  0  0  0  0  0  0
   25.9548  -20.9990  -12.9909 N   0  0  0  0  0  0  0  0  0  0  0  0
   26.0802  -20.7991  -10.5772 C   0  0  0  0  0  0  0  0  0  0  0  0
   26.5839  -21.9495  -10.5031 O   0  0  0  0  0  0  0  0  0  0  0  0
   26.1779  -19.9689   -9.4440 N   0  0  0  0  0  0  0  0  0  0  0  0
   26.8537  -20.3631   -8.2159 C   0  0  1  0  0  0  0  0  0  0  0  0
   27.6982  -19.2382   -7.6652 C   0  0  0  0  0  0  0  0  0  0  0  0
   28.2588  -19.5044   -6.3478 C   0  0  0  0  0  0  0  0  0  0  0  0
   27.7994  -18.8420   -5.2350 C   0  0  0  0  0  0  0  0  0  0  0  0
   28.3042  -19.0654   -3.9689 C   0  0  0  0  0  0  0  0  0  0  0  0
   29.3103  -19.9925   -3.8220 C   0  0  0  0  0  0  0  0  0  0  0  0
   29.7813  -20.6649   -4.9302 C   0  0  0  0  0  0  0  0  0  0  0  0
   29.2627  -20.4288   -6.1983 C   0  0  0  0  0  0  0  0  0  0  0  0
   25.8380  -20.8276   -7.2394 C   0  0  0  0  0  0  0  0  0  0  0  0
   26.1781  -21.4238   -6.1842 O   0  0  0  0  0  0  0  0  0  0  0  0
   24.4745  -20.6357   -7.4280 O   0  0  0  0  0  0  0  0  0  0  0  0
  2  1  1  0
  3  2  1  0
  3  4  1  6
  5  3  1  0
  5  6  2  0
  8  7  1  6
  8 10  1  0
  9  8  1  0
 10 12  1  0
 10 11  1  6
 11  5  1  0
 12 14  1  0
 13 12  2  0
 14 15  1  0
 15 23  1  0
 15 16  1  1
 17 16  1  0
 17 22  2  0
 18 17  1  0
 19 18  2  0
 19 20  1  0
 20 21  2  0
 21 22  1  0
 23 24  2  0
 23 25  1  0
M  END
$$$$
