SVF.pdb
     RDKit          3D

 25 25  0  0  1  0  0  0  0  0999 V2000
   27.8744  -18.4932  -16.2417 O   0  0  0  0  0  0  0  0  0  0  0  0
   26.8788  -19.3935  -15.8762 C   0  0  0  0  0  0  0  0  0  0  0  0
   27.4967  -20.4000  -14.9298 C   0  0  2  0  0  0  0  0  0  0  0  0
   28.3574  -21.3324  -15.6229 N   0  0  0  0  0  0  0  0  0  0  0  0
   26.4576  -21.1593  -14.1951 C   0  0  0  0  0  0  0  0  0  0  0  0
   25.9756  -22.2396  -14.6551 O   0  0  0  0  0  0  0  0  0  0  0  0
   26.6091  -21.9354  -10.4575 C   0  0  0  0  0  0  0  0  0  0  0  0
   25.2592  -21.3271  -10.7396 C   0  0  1  0  0  0  0  0  0  0  0  0
   25.2275  -19.9312  -10.2056 C   0  0  0  0  0  0  0  0  0  0  0  0
   24.9373  -21.3479  -12.2390 C   0  0  2  0  0  0  0  0  0  0  0  0
   25.9816  -20.6897  -12.9591 N   0  0  0  0  0  0  0  0  0  0  0  0
   23.6317  -20.6050  -12.3651 C   0  0  0  0  0  0  0  0  0  0  0  0
   23.5309  -19.4252  -11.9401 O   0  0  0  0  0  0  0  0  0  0  0  0
   22.4921  -21.1877  -12.9521 N   0  0  0  0  0  0  0  0  0  0  0  0
   21.2363  -20.4765  -13.1458 C   0  0  1  0  0  0  0  0  0  0  0  0
   21.2721  -19.6225  -14.3913 C   0  0  0  0  0  0  0  0  0  0  0  0
   21.5562  -20.3627  -15.6128 C   0  0  0  0  0  0  0  0  0  0  0  0
   22.8432  -20.5027  -16.0735 C   0  0  0  0  0  0  0  0  0  0  0  0
   23.1545  -21.1964  -17.2267 C   0  0  0  0  0  0  0  0  0  0  0  0
   22.1273  -21.7697  -17.9404 C   0  0  0  0  0  0  0  0  0  0  0  0
   20.8306  -21.6374  -17.4898 C   0  0  0  0  0  0  0  0  0  0  0  0
   20.5334  -20.9358  -16.3269 C   0  0  0  0  0  0  0  0  0  0  0  0
   20.1284  -21.4627  -13.1774 C   0  0  0  0  0  0  0  0  0  0  0  0
   20.3603  -22.6995  -13.1479 O   0  0  0  0  0  0  0  0  0  0  0  0
   18.7919  -21.0863  -13.2404 O   0  0  0  0  0  0  0  0  0  0  0  0
  2  1  1  0
  3  2  1  0
  3  4  1  6
  5  3  1  0
  5  6  2  0
  8  7  1  6
  8 10  1  0
  9  8  1  0
 10 12  1  0
 10 11  1  6
 11  5  1  0
 12 14  1  0
 13 12  2  0
 14 15  1  0
 15 23  1  0
 15 16  1  6
 17 16  1  0
 17 22  2  0
 18 17  1  0
 19 18  2  0
 19 20  1  0
 20 21  2  0
 21 22  1  0
 23 24  2  0
 23 25  1  0
M  END
$$$$
