SVF.pdb
     RDKit          3D

 25 25  0  0  1  0  0  0  0  0999 V2000
   26.0924  -17.2843  -17.5273 O   0  0  0  0  0  0  0  0  0  0  0  0
   25.7417  -18.4988  -16.9466 C   0  0  0  0  0  0  0  0  0  0  0  0
   26.9122  -19.4429  -17.1175 C   0  0  2  0  0  0  0  0  0  0  0  0
   26.8024  -20.2220  -18.3305 N   0  0  0  0  0  0  0  0  0  0  0  0
   27.0360  -20.3643  -15.9635 C   0  0  0  0  0  0  0  0  0  0  0  0
   26.3925  -21.4573  -15.9153 O   0  0  0  0  0  0  0  0  0  0  0  0
   29.5683  -19.1547  -12.7470 C   0  0  0  0  0  0  0  0  0  0  0  0
   29.2275  -20.6074  -12.9603 C   0  0  1  0  0  0  0  0  0  0  0  0
   29.2370  -21.3133  -11.6426 C   0  0  0  0  0  0  0  0  0  0  0  0
   27.8716  -20.7683  -13.6587 C   0  0  2  0  0  0  0  0  0  0  0  0
   27.8799  -20.0392  -14.8878 N   0  0  0  0  0  0  0  0  0  0  0  0
   26.8670  -20.1986  -12.6900 C   0  0  0  0  0  0  0  0  0  0  0  0
   26.6569  -18.9588  -12.6518 O   0  0  0  0  0  0  0  0  0  0  0  0
   26.1354  -21.0129  -11.8043 N   0  0  0  0  0  0  0  0  0  0  0  0
   25.1886  -20.4900  -10.8293 C   0  0  1  0  0  0  0  0  0  0  0  0
   23.7896  -20.9952  -11.0927 C   0  0  0  0  0  0  0  0  0  0  0  0
   23.1947  -20.4878  -12.3212 C   0  0  0  0  0  0  0  0  0  0  0  0
   22.4370  -19.3414  -12.3209 C   0  0  0  0  0  0  0  0  0  0  0  0
   21.8559  -18.8276  -13.4638 C   0  0  0  0  0  0  0  0  0  0  0  0
   22.0477  -19.4970  -14.6506 C   0  0  0  0  0  0  0  0  0  0  0  0
   22.8058  -20.6489  -14.6658 C   0  0  0  0  0  0  0  0  0  0  0  0
   23.3843  -21.1535  -13.5067 C   0  0  0  0  0  0  0  0  0  0  0  0
   25.6615  -20.8416   -9.4677 C   0  0  0  0  0  0  0  0  0  0  0  0
   26.5543  -21.7121   -9.2961 O   0  0  0  0  0  0  0  0  0  0  0  0
   25.1556  -20.2413   -8.3207 O   0  0  0  0  0  0  0  0  0  0  0  0
  2  1  1  0
  3  2  1  0
  3  4  1  6
  5  3  1  0
  5  6  2  0
  8  7  1  1
  8 10  1  0
  9  8  1  0
 10 12  1  0
 10 11  1  6
 11  5  1  0
 12 14  1  0
 13 12  2  0
 14 15  1  0
 15 23  1  0
 15 16  1  6
 17 16  1  0
 17 22  2  0
 18 17  1  0
 19 18  2  0
 19 20  1  0
 20 21  2  0
 21 22  1  0
 23 24  2  0
 23 25  1  0
M  END
$$$$
