SVF.pdb
     RDKit          3D

 25 25  0  0  1  0  0  0  0  0999 V2000
   16.4032  -10.5307  -16.1507 O   0  0  0  0  0  0  0  0  0  0  0  0
   17.0543  -11.2444  -17.1518 C   0  0  0  0  0  0  0  0  0  0  0  0
   17.9246  -12.2847  -16.4803 C   0  0  2  0  0  0  0  0  0  0  0  0
   17.1397  -13.2423  -15.7338 N   0  0  0  0  0  0  0  0  0  0  0  0
   18.9114  -11.6574  -15.5699 C   0  0  0  0  0  0  0  0  0  0  0  0
   18.6260  -11.3956  -14.3612 O   0  0  0  0  0  0  0  0  0  0  0  0
   23.6045  -10.2341  -14.9132 C   0  0  0  0  0  0  0  0  0  0  0  0
   22.5604  -11.1008  -15.5695 C   0  0  1  0  0  0  0  0  0  0  0  0
   22.7526  -12.5177  -15.1335 C   0  0  0  0  0  0  0  0  0  0  0  0
   21.1428  -10.6144  -15.2440 C   0  0  2  0  0  0  0  0  0  0  0  0
   20.1980  -11.3374  -16.0358 N   0  0  0  0  0  0  0  0  0  0  0  0
   21.1458   -9.1487  -15.5962 C   0  0  0  0  0  0  0  0  0  0  0  0
   21.1705   -8.7871  -16.8009 O   0  0  0  0  0  0  0  0  0  0  0  0
   21.1216   -8.1419  -14.6121 N   0  0  0  0  0  0  0  0  0  0  0  0
   21.0741   -6.7194  -14.9200 C   0  0  1  0  0  0  0  0  0  0  0  0
   20.0694   -5.9999  -14.0513 C   0  0  0  0  0  0  0  0  0  0  0  0
   19.9420   -4.5784  -14.3406 C   0  0  0  0  0  0  0  0  0  0  0  0
   19.0203   -4.1202  -15.2509 C   0  0  0  0  0  0  0  0  0  0  0  0
   18.8682   -2.7811  -15.5532 C   0  0  0  0  0  0  0  0  0  0  0  0
   19.6775   -1.8716  -14.9119 C   0  0  0  0  0  0  0  0  0  0  0  0
   20.6070   -2.3171  -13.9958 C   0  0  0  0  0  0  0  0  0  0  0  0
   20.7480   -3.6687  -13.7023 C   0  0  0  0  0  0  0  0  0  0  0  0
   22.4387   -6.1543  -14.7796 C   0  0  0  0  0  0  0  0  0  0  0  0
   23.1644   -6.4492  -13.7944 O   0  0  0  0  0  0  0  0  0  0  0  0
   22.9873   -5.2808  -15.7112 O   0  0  0  0  0  0  0  0  0  0  0  0
  2  1  1  0
  3  2  1  0
  3  4  1  1
  5  3  1  0
  5  6  2  0
  8  7  1  1
  8 10  1  0
  9  8  1  0
 10 12  1  0
 10 11  1  6
 11  5  1  0
 12 14  1  0
 13 12  2  0
 14 15  1  0
 15 23  1  0
 15 16  1  1
 17 16  1  0
 17 22  2  0
 18 17  1  0
 19 18  2  0
 19 20  1  0
 20 21  2  0
 21 22  1  0
 23 24  2  0
 23 25  1  0
M  END
$$$$
