QAI.pdb
     RDKit          3D

 23 22  0  0  1  0  0  0  0  0999 V2000
    9.2903  -22.1664   19.5655 N   0  0  0  0  0  0  0  0  0  0  0  0
    8.2711  -21.4430   18.8500 C   0  0  0  0  0  0  0  0  0  0  0  0
    7.6053  -22.1326   18.0394 O   0  0  0  0  0  0  0  0  0  0  0  0
    8.0385  -20.0129   19.0621 C   0  0  0  0  0  0  0  0  0  0  0  0
    8.9325  -19.3665   20.0794 C   0  0  0  0  0  0  0  0  0  0  0  0
    8.1772  -18.6177   21.1475 C   0  0  2  0  0  0  0  0  0  0  0  0
    6.7429  -18.7582   20.9946 N   0  0  0  0  0  0  0  0  0  0  0  0
    8.5916  -17.1935   21.1992 C   0  0  0  0  0  0  0  0  0  0  0  0
    9.8177  -16.9619   21.3374 O   0  0  0  0  0  0  0  0  0  0  0  0
    7.0586  -13.7596   20.7516 C   0  0  0  0  0  0  0  0  0  0  0  0
    8.1208  -14.7306   21.2007 C   0  0  2  0  0  0  0  0  0  0  0  0
    7.7175  -16.0996   21.1054 N   0  0  0  0  0  0  0  0  0  0  0  0
    8.6421  -14.3900   22.5543 C   0  0  0  0  0  0  0  0  0  0  0  0
    9.6506  -13.6476   22.6153 O   0  0  0  0  0  0  0  0  0  0  0  0
    6.4143  -11.7385   27.1821 C   0  0  0  0  0  0  0  0  0  0  0  0
    7.5284  -12.7140   26.8059 C   0  0  0  0  0  0  0  0  0  0  0  0
    7.1750  -13.4847   25.5660 C   0  0  2  0  0  0  0  0  0  0  0  0
    5.9386  -14.3347   25.7760 C   0  0  0  0  0  0  0  0  0  0  0  0
    8.3367  -14.2506   25.0648 C   0  0  2  0  0  0  0  0  0  0  0  0
    8.0645  -14.8552   23.7492 N   0  0  0  0  0  0  0  0  0  0  0  0
    8.8759  -15.2722   25.9549 C   0  0  0  0  0  0  0  0  0  0  0  0
    8.9532  -16.6209   25.5299 O   0  0  0  0  0  0  0  0  0  0  0  0
    9.2922  -15.0351   27.1138 O   0  0  0  0  0  0  0  0  0  0  0  0
  2  1  1  0
  3  2  2  0
  4  2  1  0
  5  6  1  0
  5  4  1  0
  6  7  1  6
  8  9  2  0
  8  6  1  0
 11 10  1  1
 11 13  1  0
 11 12  1  0
 12  8  1  0
 13 20  1  0
 14 13  2  0
 16 15  1  0
 17 19  1  0
 17 16  1  0
 17 18  1  1
 19 21  1  0
 19 20  1  6
 21 23  2  0
 21 22  1  0
M  END
$$$$
