QAI.pdb
     RDKit          3D

 23 22  0  0  1  0  0  0  0  0999 V2000
    8.1227  -12.9677   17.9025 N   0  0  0  0  0  0  0  0  0  0  0  0
    8.4697  -14.1834   17.2127 C   0  0  0  0  0  0  0  0  0  0  0  0
    8.9989  -14.0182   16.0863 O   0  0  0  0  0  0  0  0  0  0  0  0
    8.2204  -15.5047   17.7924 C   0  0  0  0  0  0  0  0  0  0  0  0
    7.5751  -15.4940   19.1473 C   0  0  0  0  0  0  0  0  0  0  0  0
    7.3363  -16.8737   19.7053 C   0  0  2  0  0  0  0  0  0  0  0  0
    6.4830  -17.6657   18.8423 N   0  0  0  0  0  0  0  0  0  0  0  0
    6.8128  -16.8081   21.0925 C   0  0  0  0  0  0  0  0  0  0  0  0
    5.6564  -16.3433   21.2433 O   0  0  0  0  0  0  0  0  0  0  0  0
    6.8865  -18.3458   24.3293 C   0  0  0  0  0  0  0  0  0  0  0  0
    7.0503  -17.0497   23.5770 C   0  0  2  0  0  0  0  0  0  0  0  0
    7.5131  -17.2251   22.2350 N   0  0  0  0  0  0  0  0  0  0  0  0
    7.8810  -16.0731   24.3361 C   0  0  0  0  0  0  0  0  0  0  0  0
    9.1223  -16.1139   24.1646 O   0  0  0  0  0  0  0  0  0  0  0  0
    5.9024  -11.3598   27.1804 C   0  0  0  0  0  0  0  0  0  0  0  0
    6.3035  -12.7860   26.8070 C   0  0  0  0  0  0  0  0  0  0  0  0
    7.5278  -12.7920   25.9368 C   0  0  2  0  0  0  0  0  0  0  0  0
    7.2247  -12.2605   24.5509 C   0  0  0  0  0  0  0  0  0  0  0  0
    8.1696  -14.1244   25.9281 C   0  0  2  0  0  0  0  0  0  0  0  0
    7.3459  -15.1216   25.2227 N   0  0  0  0  0  0  0  0  0  0  0  0
    8.5647  -14.6650   27.2236 C   0  0  0  0  0  0  0  0  0  0  0  0
    9.5715  -14.0253   27.9871 O   0  0  0  0  0  0  0  0  0  0  0  0
    8.0592  -15.6943   27.7309 O   0  0  0  0  0  0  0  0  0  0  0  0
  2  1  1  0
  3  2  2  0
  4  2  1  0
  5  6  1  0
  5  4  1  0
  6  7  1  6
  8  9  2  0
  8  6  1  0
 11 10  1  1
 11 13  1  0
 11 12  1  0
 12  8  1  0
 13 20  1  0
 14 13  2  0
 16 15  1  0
 17 19  1  0
 17 16  1  0
 17 18  1  6
 19 21  1  0
 19 20  1  1
 21 23  2  0
 21 22  1  0
M  END
$$$$
