QAI.pdb
     RDKit          3D

 23 22  0  0  1  0  0  0  0  0999 V2000
   10.5460  -13.2743   18.1761 N   0  0  0  0  0  0  0  0  0  0  0  0
    9.3072  -13.4070   17.4536 C   0  0  0  0  0  0  0  0  0  0  0  0
    9.4169  -13.9000   16.3043 O   0  0  0  0  0  0  0  0  0  0  0  0
    8.0244  -12.9957   18.0276 C   0  0  0  0  0  0  0  0  0  0  0  0
    7.8196  -13.3742   19.4653 C   0  0  0  0  0  0  0  0  0  0  0  0
    8.1035  -14.8276   19.7460 C   0  0  2  0  0  0  0  0  0  0  0  0
    7.4610  -15.6996   18.7831 N   0  0  0  0  0  0  0  0  0  0  0  0
    7.7453  -15.1845   21.1414 C   0  0  0  0  0  0  0  0  0  0  0  0
    7.1641  -14.3048   21.8228 O   0  0  0  0  0  0  0  0  0  0  0  0
    7.6216  -18.2841   23.3022 C   0  0  0  0  0  0  0  0  0  0  0  0
    7.5611  -16.7988   23.0512 C   0  0  2  0  0  0  0  0  0  0  0  0
    8.0084  -16.4236   21.7454 N   0  0  0  0  0  0  0  0  0  0  0  0
    8.2503  -16.0298   24.1252 C   0  0  0  0  0  0  0  0  0  0  0  0
    9.4781  -15.8171   23.9867 O   0  0  0  0  0  0  0  0  0  0  0  0
    5.8377  -11.8411   26.2533 C   0  0  0  0  0  0  0  0  0  0  0  0
    6.8094  -12.8912   25.7171 C   0  0  0  0  0  0  0  0  0  0  0  0
    7.4327  -13.6723   26.8385 C   0  0  2  0  0  0  0  0  0  0  0  0
    8.1494  -12.7628   27.8153 C   0  0  0  0  0  0  0  0  0  0  0  0
    8.2841  -14.7644   26.3190 C   0  0  2  0  0  0  0  0  0  0  0  0
    7.5979  -15.5387   25.2702 N   0  0  0  0  0  0  0  0  0  0  0  0
    8.8354  -15.6856   27.3061 C   0  0  0  0  0  0  0  0  0  0  0  0
   10.0426  -15.3738   27.9776 O   0  0  0  0  0  0  0  0  0  0  0  0
    8.2983  -16.7755   27.6160 O   0  0  0  0  0  0  0  0  0  0  0  0
  2  1  1  0
  3  2  2  0
  4  2  1  0
  5  6  1  0
  5  4  1  0
  6  7  1  6
  8  9  2  0
  8  6  1  0
 11 10  1  1
 11 13  1  0
 11 12  1  0
 12  8  1  0
 13 20  1  0
 14 13  2  0
 16 15  1  0
 17 19  1  0
 17 16  1  0
 17 18  1  6
 19 21  1  0
 19 20  1  6
 21 23  2  0
 21 22  1  0
M  END
$$$$
