QAI.pdb
     RDKit          3D

 23 22  0  0  1  0  0  0  0  0999 V2000
    8.0211  -12.8784   18.0608 N   0  0  0  0  0  0  0  0  0  0  0  0
    8.4793  -14.1028   17.4564 C   0  0  0  0  0  0  0  0  0  0  0  0
    9.1213  -13.9555   16.3877 O   0  0  0  0  0  0  0  0  0  0  0  0
    8.2112  -15.4125   18.0536 C   0  0  0  0  0  0  0  0  0  0  0  0
    7.4351  -15.3800   19.3377 C   0  0  0  0  0  0  0  0  0  0  0  0
    7.2976  -16.7337   19.9862 C   0  0  2  0  0  0  0  0  0  0  0  0
    6.3808  -17.5901   19.2608 N   0  0  0  0  0  0  0  0  0  0  0  0
    6.9230  -16.6076   21.4168 C   0  0  0  0  0  0  0  0  0  0  0  0
    5.9822  -15.8232   21.6920 O   0  0  0  0  0  0  0  0  0  0  0  0
    7.1566  -18.4371   24.6135 C   0  0  0  0  0  0  0  0  0  0  0  0
    7.2011  -17.1368   23.8519 C   0  0  2  0  0  0  0  0  0  0  0  0
    7.5406  -17.2969   22.4717 N   0  0  0  0  0  0  0  0  0  0  0  0
    8.0639  -16.1296   24.5311 C   0  0  0  0  0  0  0  0  0  0  0  0
    9.2369  -15.9952   24.1094 O   0  0  0  0  0  0  0  0  0  0  0  0
    5.9244  -11.9132   27.7987 C   0  0  0  0  0  0  0  0  0  0  0  0
    6.6241  -13.2316   27.4720 C   0  0  0  0  0  0  0  0  0  0  0  0
    7.6875  -13.0344   26.4296 C   0  0  2  0  0  0  0  0  0  0  0  0
    7.1121  -12.4527   25.1547 C   0  0  0  0  0  0  0  0  0  0  0  0
    8.4589  -14.2774   26.2129 C   0  0  2  0  0  0  0  0  0  0  0  0
    7.6307  -15.3345   25.6071 N   0  0  0  0  0  0  0  0  0  0  0  0
    9.1526  -14.8237   27.3736 C   0  0  0  0  0  0  0  0  0  0  0  0
    8.8850  -16.1444   27.8090 O   0  0  0  0  0  0  0  0  0  0  0  0
   10.0015  -14.1853   28.0402 O   0  0  0  0  0  0  0  0  0  0  0  0
  2  1  1  0
  3  2  2  0
  4  2  1  0
  5  6  1  0
  5  4  1  0
  6  7  1  6
  8  9  2  0
  8  6  1  0
 11 10  1  1
 11 13  1  0
 11 12  1  0
 12  8  1  0
 13 20  1  0
 14 13  2  0
 16 15  1  0
 17 19  1  0
 17 16  1  0
 17 18  1  6
 19 21  1  0
 19 20  1  1
 21 23  2  0
 21 22  1  0
M  END
$$$$
