QAI.pdb
     RDKit          3D

 23 22  0  0  1  0  0  0  0  0999 V2000
   10.1113  -13.8803   17.6289 N   0  0  0  0  0  0  0  0  0  0  0  0
    8.8311  -13.5782   17.0426 C   0  0  0  0  0  0  0  0  0  0  0  0
    8.7260  -13.8698   15.8260 O   0  0  0  0  0  0  0  0  0  0  0  0
    7.7431  -12.9781   17.8174 C   0  0  0  0  0  0  0  0  0  0  0  0
    7.7131  -13.3544   19.2699 C   0  0  0  0  0  0  0  0  0  0  0  0
    7.8880  -14.8325   19.5071 C   0  0  2  0  0  0  0  0  0  0  0  0
    7.0412  -15.6236   18.6368 N   0  0  0  0  0  0  0  0  0  0  0  0
    7.6849  -15.1741   20.9371 C   0  0  0  0  0  0  0  0  0  0  0  0
    6.8761  -14.4636   21.5829 O   0  0  0  0  0  0  0  0  0  0  0  0
    8.3844  -18.0391   23.2654 C   0  0  0  0  0  0  0  0  0  0  0  0
    8.0675  -16.5957   22.9669 C   0  0  2  0  0  0  0  0  0  0  0  0
    8.3272  -16.2249   21.6101 N   0  0  0  0  0  0  0  0  0  0  0  0
    8.7233  -15.6753   23.9378 C   0  0  0  0  0  0  0  0  0  0  0  0
    9.8863  -15.2890   23.6729 O   0  0  0  0  0  0  0  0  0  0  0  0
    5.7540  -12.2368   27.2902 C   0  0  0  0  0  0  0  0  0  0  0  0
    6.5830  -13.4690   26.9312 C   0  0  0  0  0  0  0  0  0  0  0  0
    7.8679  -13.0778   26.2588 C   0  0  2  0  0  0  0  0  0  0  0  0
    7.6121  -12.2718   25.0019 C   0  0  0  0  0  0  0  0  0  0  0  0
    8.7334  -14.2561   26.0356 C   0  0  2  0  0  0  0  0  0  0  0  0
    8.1081  -15.2262   25.1200 N   0  0  0  0  0  0  0  0  0  0  0  0
    9.1976  -14.9577   27.2269 C   0  0  0  0  0  0  0  0  0  0  0  0
    8.8947  -16.3288   27.4113 O   0  0  0  0  0  0  0  0  0  0  0  0
    9.8711  -14.4154   28.1349 O   0  0  0  0  0  0  0  0  0  0  0  0
  2  1  1  0
  3  2  2  0
  4  2  1  0
  5  6  1  0
  5  4  1  0
  6  7  1  6
  8  9  2  0
  8  6  1  0
 11 10  1  6
 11 13  1  0
 11 12  1  0
 12  8  1  0
 13 20  1  0
 14 13  2  0
 16 15  1  0
 17 19  1  0
 17 16  1  0
 17 18  1  6
 19 21  1  0
 19 20  1  6
 21 23  2  0
 21 22  1  0
M  END
$$$$
