QAI.pdb
     RDKit          3D

 23 22  0  0  1  0  0  0  0  0999 V2000
   10.3620  -13.3852   18.3891 N   0  0  0  0  0  0  0  0  0  0  0  0
    9.2109  -12.9735   17.6279 C   0  0  0  0  0  0  0  0  0  0  0  0
    9.4522  -12.6528   16.4383 O   0  0  0  0  0  0  0  0  0  0  0  0
    7.8671  -12.9373   18.2084 C   0  0  0  0  0  0  0  0  0  0  0  0
    7.7577  -13.4983   19.5961 C   0  0  0  0  0  0  0  0  0  0  0  0
    7.8589  -15.0014   19.6417 C   0  0  2  0  0  0  0  0  0  0  0  0
    6.7948  -15.6379   18.8914 N   0  0  0  0  0  0  0  0  0  0  0  0
    7.9203  -15.4928   21.0408 C   0  0  0  0  0  0  0  0  0  0  0  0
    6.8669  -15.4129   21.7191 O   0  0  0  0  0  0  0  0  0  0  0  0
   10.1110  -17.6803   23.1433 C   0  0  0  0  0  0  0  0  0  0  0  0
    9.0894  -16.5851   22.9714 C   0  0  2  0  0  0  0  0  0  0  0  0
    9.0617  -16.0346   21.6516 N   0  0  0  0  0  0  0  0  0  0  0  0
    9.2277  -15.5333   24.0177 C   0  0  0  0  0  0  0  0  0  0  0  0
   10.0955  -14.6471   23.8350 O   0  0  0  0  0  0  0  0  0  0  0  0
    6.5727  -11.4227   27.2328 C   0  0  0  0  0  0  0  0  0  0  0  0
    7.5657  -12.5700   27.4119 C   0  0  0  0  0  0  0  0  0  0  0  0
    7.3998  -13.6008   26.3320 C   0  0  2  0  0  0  0  0  0  0  0  0
    6.1153  -14.3845   26.5071 C   0  0  0  0  0  0  0  0  0  0  0  0
    8.6007  -14.4571   26.2231 C   0  0  2  0  0  0  0  0  0  0  0  0
    8.4422  -15.4887   25.1833 N   0  0  0  0  0  0  0  0  0  0  0  0
    9.0631  -15.0893   27.4533 C   0  0  0  0  0  0  0  0  0  0  0  0
    9.0625  -16.5003   27.5748 O   0  0  0  0  0  0  0  0  0  0  0  0
    9.4771  -14.4507   28.4499 O   0  0  0  0  0  0  0  0  0  0  0  0
  2  1  1  0
  3  2  2  0
  4  2  1  0
  5  6  1  0
  5  4  1  0
  6  7  1  1
  8  9  2  0
  8  6  1  0
 11 10  1  6
 11 13  1  0
 11 12  1  0
 12  8  1  0
 13 20  1  0
 14 13  2  0
 16 15  1  0
 17 19  1  0
 17 16  1  0
 17 18  1  1
 19 21  1  0
 19 20  1  6
 21 23  2  0
 21 22  1  0
M  END
$$$$
