QAI.pdb
     RDKit          3D

 23 22  0  0  1  0  0  0  0  0999 V2000
    8.3476  -12.5338   16.6130 N   0  0  0  0  0  0  0  0  0  0  0  0
    7.8284  -13.8231   16.2358 C   0  0  0  0  0  0  0  0  0  0  0  0
    7.8388  -14.0557   15.0021 O   0  0  0  0  0  0  0  0  0  0  0  0
    7.3309  -14.7808   17.2254 C   0  0  0  0  0  0  0  0  0  0  0  0
    7.3243  -14.2867   18.6424 C   0  0  0  0  0  0  0  0  0  0  0  0
    8.5397  -14.7093   19.4273 C   0  0  2  0  0  0  0  0  0  0  0  0
    9.3163  -15.7104   18.7239 N   0  0  0  0  0  0  0  0  0  0  0  0
    8.1677  -15.1559   20.7930 C   0  0  0  0  0  0  0  0  0  0  0  0
    7.3797  -14.4213   21.4375 O   0  0  0  0  0  0  0  0  0  0  0  0
    8.5183  -18.2307   22.9591 C   0  0  0  0  0  0  0  0  0  0  0  0
    8.2387  -16.7703   22.7103 C   0  0  2  0  0  0  0  0  0  0  0  0
    8.6307  -16.3298   21.4072 N   0  0  0  0  0  0  0  0  0  0  0  0
    8.8015  -15.9099   23.7887 C   0  0  0  0  0  0  0  0  0  0  0  0
    9.9968  -15.5488   23.6753 O   0  0  0  0  0  0  0  0  0  0  0  0
    5.8487  -12.0125   25.8287 C   0  0  0  0  0  0  0  0  0  0  0  0
    6.9244  -12.9695   25.3173 C   0  0  0  0  0  0  0  0  0  0  0  0
    7.6281  -13.6491   26.4571 C   0  0  2  0  0  0  0  0  0  0  0  0
    8.2023  -12.6423   27.4327 C   0  0  0  0  0  0  0  0  0  0  0  0
    8.6250  -14.6237   25.9635 C   0  0  2  0  0  0  0  0  0  0  0  0
    8.0658  -15.4900   24.9112 N   0  0  0  0  0  0  0  0  0  0  0  0
    9.2746  -15.4563   26.9692 C   0  0  0  0  0  0  0  0  0  0  0  0
   10.4510  -15.0066   27.6169 O   0  0  0  0  0  0  0  0  0  0  0  0
    8.8519  -16.5847   27.3161 O   0  0  0  0  0  0  0  0  0  0  0  0
  2  1  1  0
  3  2  2  0
  4  2  1  0
  5  6  1  0
  5  4  1  0
  6  7  1  6
  8  9  2  0
  8  6  1  0
 11 10  1  1
 11 13  1  0
 11 12  1  0
 12  8  1  0
 13 20  1  0
 14 13  2  0
 16 15  1  0
 17 19  1  0
 17 16  1  0
 17 18  1  6
 19 21  1  0
 19 20  1  6
 21 23  2  0
 21 22  1  0
M  END
$$$$
