QAI.pdb
     RDKit          3D

 23 22  0  0  1  0  0  0  0  0999 V2000
    9.4553  -14.2477   16.1418 N   0  0  0  0  0  0  0  0  0  0  0  0
    8.0317  -14.3211   16.3471 C   0  0  0  0  0  0  0  0  0  0  0  0
    7.4054  -14.9696   15.4734 O   0  0  0  0  0  0  0  0  0  0  0  0
    7.3774  -13.6847   17.4920 C   0  0  0  0  0  0  0  0  0  0  0  0
    8.2941  -12.9334   18.4126 C   0  0  0  0  0  0  0  0  0  0  0  0
    9.1850  -13.8321   19.2314 C   0  0  2  0  0  0  0  0  0  0  0  0
    9.7030  -14.9372   18.4500 N   0  0  0  0  0  0  0  0  0  0  0  0
    8.4939  -14.2983   20.4594 C   0  0  0  0  0  0  0  0  0  0  0  0
    7.8802  -13.4330   21.1307 O   0  0  0  0  0  0  0  0  0  0  0  0
    7.6851  -17.5578   22.2086 C   0  0  0  0  0  0  0  0  0  0  0  0
    7.8317  -16.0602   22.1160 C   0  0  2  0  0  0  0  0  0  0  0  0
    8.4791  -15.6248   20.9171 N   0  0  0  0  0  0  0  0  0  0  0  0
    8.4677  -15.4921   23.3378 C   0  0  0  0  0  0  0  0  0  0  0  0
    9.7070  -15.3045   23.3102 O   0  0  0  0  0  0  0  0  0  0  0  0
    5.5701  -12.3446   27.1505 C   0  0  0  0  0  0  0  0  0  0  0  0
    6.2772  -13.5928   26.6249 C   0  0  0  0  0  0  0  0  0  0  0  0
    7.6024  -13.2437   26.0099 C   0  0  2  0  0  0  0  0  0  0  0  0
    7.4400  -12.2721   24.8590 C   0  0  0  0  0  0  0  0  0  0  0  0
    8.3602  -14.4614   25.6489 C   0  0  2  0  0  0  0  0  0  0  0  0
    7.7535  -15.1614   24.5033 N   0  0  0  0  0  0  0  0  0  0  0  0
    8.5985  -15.4214   26.7205 C   0  0  0  0  0  0  0  0  0  0  0  0
    8.1146  -16.7479   26.6114 O   0  0  0  0  0  0  0  0  0  0  0  0
    9.2246  -15.1481   27.7721 O   0  0  0  0  0  0  0  0  0  0  0  0
  2  1  1  0
  3  2  2  0
  4  2  1  0
  5  6  1  0
  5  4  1  0
  6  7  1  6
  8  9  2  0
  8  6  1  0
 11 10  1  1
 11 13  1  0
 11 12  1  0
 12  8  1  0
 13 20  1  0
 14 13  2  0
 16 15  1  0
 17 19  1  0
 17 16  1  0
 17 18  1  6
 19 21  1  0
 19 20  1  6
 21 23  2  0
 21 22  1  0
M  END
$$$$
