QAI.pdb
     RDKit          3D

 23 22  0  0  1  0  0  0  0  0999 V2000
   10.7040  -13.3587   18.7907 N   0  0  0  0  0  0  0  0  0  0  0  0
    9.5011  -13.2244   18.0101 C   0  0  0  0  0  0  0  0  0  0  0  0
    9.6219  -13.5294   16.7983 O   0  0  0  0  0  0  0  0  0  0  0  0
    8.2401  -12.7674   18.5973 C   0  0  0  0  0  0  0  0  0  0  0  0
    7.9094  -13.3599   19.9359 C   0  0  0  0  0  0  0  0  0  0  0  0
    7.8583  -14.8663   19.9254 C   0  0  2  0  0  0  0  0  0  0  0  0
    6.7608  -15.3644   19.1205 N   0  0  0  0  0  0  0  0  0  0  0  0
    7.8246  -15.4116   21.3055 C   0  0  0  0  0  0  0  0  0  0  0  0
    6.8014  -15.1658   21.9900 O   0  0  0  0  0  0  0  0  0  0  0  0
    9.5312  -18.0364   23.3405 C   0  0  0  0  0  0  0  0  0  0  0  0
    8.7863  -16.7325   23.2074 C   0  0  2  0  0  0  0  0  0  0  0  0
    8.8462  -16.1745   21.8918 N   0  0  0  0  0  0  0  0  0  0  0  0
    9.1968  -15.7541   24.2535 C   0  0  0  0  0  0  0  0  0  0  0  0
   10.2215  -15.0667   24.0316 O   0  0  0  0  0  0  0  0  0  0  0  0
    5.6092  -12.5837   26.2506 C   0  0  0  0  0  0  0  0  0  0  0  0
    6.8978  -13.2492   25.7699 C   0  0  0  0  0  0  0  0  0  0  0  0
    7.6905  -13.7884   26.9262 C   0  0  2  0  0  0  0  0  0  0  0  0
    8.0340  -12.6970   27.9191 C   0  0  0  0  0  0  0  0  0  0  0  0
    8.8693  -14.5482   26.4566 C   0  0  2  0  0  0  0  0  0  0  0  0
    8.4990  -15.5683   25.4602 N   0  0  0  0  0  0  0  0  0  0  0  0
    9.6969  -15.1671   27.4856 C   0  0  0  0  0  0  0  0  0  0  0  0
    9.7047  -16.5744   27.6447 O   0  0  0  0  0  0  0  0  0  0  0  0
   10.4304  -14.5200   28.2702 O   0  0  0  0  0  0  0  0  0  0  0  0
  2  1  1  0
  3  2  2  0
  4  2  1  0
  5  6  1  0
  5  4  1  0
  6  7  1  6
  8  9  2  0
  8  6  1  0
 11 10  1  6
 11 13  1  0
 11 12  1  0
 12  8  1  0
 13 20  1  0
 14 13  2  0
 16 15  1  0
 17 19  1  0
 17 16  1  0
 17 18  1  1
 19 21  1  0
 19 20  1  6
 21 23  2  0
 21 22  1  0
M  END
$$$$
