QAI.pdb
     RDKit          3D

 23 22  0  0  1  0  0  0  0  0999 V2000
   10.8876  -13.2517   18.9224 N   0  0  0  0  0  0  0  0  0  0  0  0
    9.9901  -13.0711   17.8106 C   0  0  0  0  0  0  0  0  0  0  0  0
   10.5447  -13.0395   16.6847 O   0  0  0  0  0  0  0  0  0  0  0  0
    8.5435  -12.9374   17.9929 C   0  0  0  0  0  0  0  0  0  0  0  0
    8.0037  -13.5329   19.2603 C   0  0  0  0  0  0  0  0  0  0  0  0
    8.2119  -15.0226   19.3556 C   0  0  2  0  0  0  0  0  0  0  0  0
    7.4732  -15.7381   18.3345 N   0  0  0  0  0  0  0  0  0  0  0  0
    7.8989  -15.5221   20.7177 C   0  0  0  0  0  0  0  0  0  0  0  0
    6.7114  -15.4059   21.1078 O   0  0  0  0  0  0  0  0  0  0  0  0
    8.9680  -18.0414   23.1003 C   0  0  0  0  0  0  0  0  0  0  0  0
    8.5094  -16.6212   22.8871 C   0  0  2  0  0  0  0  0  0  0  0  0
    8.8283  -16.1088   21.5904 N   0  0  0  0  0  0  0  0  0  0  0  0
    8.9769  -15.7214   23.9789 C   0  0  0  0  0  0  0  0  0  0  0  0
   10.1484  -15.2815   23.9034 O   0  0  0  0  0  0  0  0  0  0  0  0
    5.7330  -12.1774   27.0516 C   0  0  0  0  0  0  0  0  0  0  0  0
    6.4845  -13.4823   26.7929 C   0  0  0  0  0  0  0  0  0  0  0  0
    7.8474  -13.2157   26.2206 C   0  0  2  0  0  0  0  0  0  0  0  0
    7.7590  -12.4792   24.8997 C   0  0  0  0  0  0  0  0  0  0  0  0
    8.6479  -14.4573   26.1489 C   0  0  2  0  0  0  0  0  0  0  0  0
    8.1774  -15.3481   25.0739 N   0  0  0  0  0  0  0  0  0  0  0  0
    8.7704  -15.2249   27.3828 C   0  0  0  0  0  0  0  0  0  0  0  0
    9.4290  -14.6694   28.5068 O   0  0  0  0  0  0  0  0  0  0  0  0
    8.3181  -16.3854   27.5274 O   0  0  0  0  0  0  0  0  0  0  0  0
  2  1  1  0
  3  2  2  0
  4  2  1  0
  5  6  1  0
  5  4  1  0
  6  7  1  6
  8  9  2  0
  8  6  1  0
 11 10  1  1
 11 13  1  0
 11 12  1  0
 12  8  1  0
 13 20  1  0
 14 13  2  0
 16 15  1  0
 17 19  1  0
 17 16  1  0
 17 18  1  6
 19 21  1  0
 19 20  1  6
 21 23  2  0
 21 22  1  0
M  END
$$$$
