QAI.pdb
     RDKit          3D

 23 22  0  0  1  0  0  0  0  0999 V2000
    9.1761  -13.4142   19.1850 N   0  0  0  0  0  0  0  0  0  0  0  0
    8.3494  -13.8106   18.0743 C   0  0  0  0  0  0  0  0  0  0  0  0
    8.8826  -13.6769   16.9457 O   0  0  0  0  0  0  0  0  0  0  0  0
    6.9930  -14.3297   18.2610 C   0  0  0  0  0  0  0  0  0  0  0  0
    6.6046  -14.5987   19.6854 C   0  0  0  0  0  0  0  0  0  0  0  0
    7.4095  -15.7007   20.3254 C   0  0  2  0  0  0  0  0  0  0  0  0
    7.2648  -16.9569   19.6174 N   0  0  0  0  0  0  0  0  0  0  0  0
    7.0821  -15.8366   21.7667 C   0  0  0  0  0  0  0  0  0  0  0  0
    6.9088  -14.7749   22.4138 O   0  0  0  0  0  0  0  0  0  0  0  0
    6.6084  -18.6051   24.3241 C   0  0  0  0  0  0  0  0  0  0  0  0
    6.7185  -17.1767   23.8545 C   0  0  2  0  0  0  0  0  0  0  0  0
    6.9543  -17.0563   22.4489 N   0  0  0  0  0  0  0  0  0  0  0  0
    7.7079  -16.4067   24.6596 C   0  0  0  0  0  0  0  0  0  0  0  0
    8.9168  -16.5123   24.3444 O   0  0  0  0  0  0  0  0  0  0  0  0
    5.7478  -11.9685   27.1187 C   0  0  0  0  0  0  0  0  0  0  0  0
    6.6083  -12.9284   26.2986 C   0  0  0  0  0  0  0  0  0  0  0  0
    7.6283  -13.6121   27.1637 C   0  0  2  0  0  0  0  0  0  0  0  0
    8.5806  -12.6147   27.7906 C   0  0  0  0  0  0  0  0  0  0  0  0
    8.3134  -14.6954   26.4258 C   0  0  2  0  0  0  0  0  0  0  0  0
    7.3546  -15.5793   25.7404 N   0  0  0  0  0  0  0  0  0  0  0  0
    9.2504  -15.5114   27.1893 C   0  0  0  0  0  0  0  0  0  0  0  0
    8.8323  -16.7432   27.7494 O   0  0  0  0  0  0  0  0  0  0  0  0
   10.4451  -15.1903   27.3944 O   0  0  0  0  0  0  0  0  0  0  0  0
  2  1  1  0
  3  2  2  0
  4  2  1  0
  5  6  1  0
  5  4  1  0
  6  7  1  6
  8  9  2  0
  8  6  1  0
 11 10  1  1
 11 13  1  0
 11 12  1  0
 12  8  1  0
 13 20  1  0
 14 13  2  0
 16 15  1  0
 17 19  1  0
 17 16  1  0
 17 18  1  6
 19 21  1  0
 19 20  1  1
 21 23  2  0
 21 22  1  0
M  END
$$$$
