DAI.pdb
     RDKit          3D

 22 21  0  0  1  0  0  0  0  0999 V2000
    9.6582  -17.6539   18.9783 N   0  0  0  0  0  0  0  0  0  0  0  0
   10.0799  -18.0136   20.3143 C   0  0  1  0  0  0  0  0  0  0  0  0
   11.5310  -17.6030   20.4610 C   0  0  0  0  0  0  0  0  0  0  0  0
   12.3490  -18.7054   19.8951 C   0  0  0  0  0  0  0  0  0  0  0  0
   12.8796  -18.5674   18.7623 O   0  0  0  0  0  0  0  0  0  0  0  0
    9.1827  -17.3882   21.2845 C   0  0  0  0  0  0  0  0  0  0  0  0
    8.9474  -16.1568   21.2118 O   0  0  0  0  0  0  0  0  0  0  0  0
   12.5480  -19.8883   20.5762 O   0  0  0  0  0  0  0  0  0  0  0  0
    6.6707  -18.4807   23.7851 C   0  0  0  0  0  0  0  0  0  0  0  0
    7.5965  -17.4372   23.2237 C   0  0  2  0  0  0  0  0  0  0  0  0
    8.5353  -18.0978   22.3404 N   0  0  0  0  0  0  0  0  0  0  0  0
    8.3077  -16.6959   24.3230 C   0  0  0  0  0  0  0  0  0  0  0  0
    9.4543  -17.1089   24.5801 O   0  0  0  0  0  0  0  0  0  0  0  0
    5.9493  -11.7675   25.9083 C   0  0  0  0  0  0  0  0  0  0  0  0
    6.9337  -12.8181   25.3592 C   0  0  0  0  0  0  0  0  0  0  0  0
    7.5187  -13.6233   26.4683 C   0  0  2  0  0  0  0  0  0  0  0  0
    8.3251  -12.6790   27.3353 C   0  0  0  0  0  0  0  0  0  0  0  0
    8.2864  -14.8418   26.0652 C   0  0  2  0  0  0  0  0  0  0  0  0
    7.7365  -15.6313   25.0044 N   0  0  0  0  0  0  0  0  0  0  0  0
    8.9389  -15.5898   27.1222 C   0  0  0  0  0  0  0  0  0  0  0  0
   10.1704  -15.3908   27.6593 O   0  0  0  0  0  0  0  0  0  0  0  0
    8.2660  -16.5698   27.6180 O   0  0  0  0  0  0  0  0  0  0  0  0
  2  6  1  0
  2  1  1  6
  2  3  1  0
  3  4  1  0
  4  5  2  0
  4  8  1  0
  6  7  2  0
 10  9  1  1
 10 12  1  0
 11 10  1  0
 11  6  1  0
 12 19  1  0
 12 13  2  0
 15 14  1  0
 16 15  1  0
 16 17  1  6
 18 16  1  0
 18 19  1  1
 20 21  1  0
 20 18  1  0
 22 20  2  0
M  END
$$$$
