DAI.pdb
     RDKit          3D

 22 21  0  0  1  0  0  0  0  0999 V2000
   10.7540  -14.3093   18.1673 N   0  0  0  0  0  0  0  0  0  0  0  0
   10.9109  -14.9041   19.4765 C   0  0  1  0  0  0  0  0  0  0  0  0
   12.2202  -14.4032   20.0515 C   0  0  0  0  0  0  0  0  0  0  0  0
   13.3066  -15.0339   19.2599 C   0  0  0  0  0  0  0  0  0  0  0  0
   14.4088  -14.4398   19.1335 O   0  0  0  0  0  0  0  0  0  0  0  0
    9.7405  -14.5833   20.2917 C   0  0  0  0  0  0  0  0  0  0  0  0
    9.5731  -13.4100   20.7067 O   0  0  0  0  0  0  0  0  0  0  0  0
   13.1461  -16.2615   18.6517 O   0  0  0  0  0  0  0  0  0  0  0  0
    6.5246  -16.1549   21.2943 C   0  0  0  0  0  0  0  0  0  0  0  0
    7.6387  -15.1713   21.5228 C   0  0  2  0  0  0  0  0  0  0  0  0
    8.7443  -15.5365   20.6613 N   0  0  0  0  0  0  0  0  0  0  0  0
    8.0549  -15.1502   22.9686 C   0  0  0  0  0  0  0  0  0  0  0  0
    9.1473  -15.6976   23.2098 O   0  0  0  0  0  0  0  0  0  0  0  0
    6.0032  -11.1126   26.2632 C   0  0  0  0  0  0  0  0  0  0  0  0
    6.9988  -12.0821   25.5972 C   0  0  0  0  0  0  0  0  0  0  0  0
    6.8507  -13.4559   26.1551 C   0  0  2  0  0  0  0  0  0  0  0  0
    7.3000  -13.4072   27.6006 C   0  0  0  0  0  0  0  0  0  0  0  0
    7.5023  -14.5565   25.3801 C   0  0  2  0  0  0  0  0  0  0  0  0
    7.2855  -14.5671   23.9645 N   0  0  0  0  0  0  0  0  0  0  0  0
    7.5602  -15.8615   26.0094 C   0  0  0  0  0  0  0  0  0  0  0  0
    6.8187  -16.9650   25.7318 O   0  0  0  0  0  0  0  0  0  0  0  0
    8.4262  -15.9946   26.9536 O   0  0  0  0  0  0  0  0  0  0  0  0
  2  6  1  0
  2  1  1  6
  2  3  1  0
  3  4  1  0
  4  5  2  0
  4  8  1  0
  6  7  2  0
 10  9  1  1
 10 12  1  0
 11 10  1  0
 11  6  1  0
 12 19  1  0
 12 13  2  0
 15 14  1  0
 16 15  1  0
 16 17  1  1
 18 16  1  0
 18 19  1  6
 20 21  1  0
 20 18  1  0
 22 20  2  0
M  END
$$$$
