DAI.pdb
     RDKit          3D

 22 21  0  0  1  0  0  0  0  0999 V2000
    9.7834  -14.3501   18.3083 N   0  0  0  0  0  0  0  0  0  0  0  0
   10.4287  -14.9047   19.4780 C   0  0  1  0  0  0  0  0  0  0  0  0
   11.6182  -14.0243   19.8035 C   0  0  0  0  0  0  0  0  0  0  0  0
   12.8161  -14.6928   19.2355 C   0  0  0  0  0  0  0  0  0  0  0  0
   12.8053  -15.9380   19.0534 O   0  0  0  0  0  0  0  0  0  0  0  0
    9.4512  -15.0097   20.5599 C   0  0  0  0  0  0  0  0  0  0  0  0
    8.7205  -14.0266   20.8370 O   0  0  0  0  0  0  0  0  0  0  0  0
   13.9524  -13.9874   18.8980 O   0  0  0  0  0  0  0  0  0  0  0  0
    7.8086  -17.6766   22.5198 C   0  0  0  0  0  0  0  0  0  0  0  0
    8.2411  -16.2438   22.3743 C   0  0  2  0  0  0  0  0  0  0  0  0
    9.2617  -16.1846   21.3482 N   0  0  0  0  0  0  0  0  0  0  0  0
    8.7458  -15.6946   23.6810 C   0  0  0  0  0  0  0  0  0  0  0  0
    9.9813  -15.7442   23.8305 O   0  0  0  0  0  0  0  0  0  0  0  0
    5.4673  -12.3029   27.3420 C   0  0  0  0  0  0  0  0  0  0  0  0
    6.0466  -13.5587   26.6624 C   0  0  0  0  0  0  0  0  0  0  0  0
    7.4784  -13.3522   26.3050 C   0  0  2  0  0  0  0  0  0  0  0  0
    7.5292  -12.2611   25.2559 C   0  0  0  0  0  0  0  0  0  0  0  0
    8.2429  -14.5753   25.9097 C   0  0  2  0  0  0  0  0  0  0  0  0
    7.9051  -15.1708   24.6518 N   0  0  0  0  0  0  0  0  0  0  0  0
    8.5880  -15.5073   26.9654 C   0  0  0  0  0  0  0  0  0  0  0  0
    8.3814  -16.8490   27.0063 O   0  0  0  0  0  0  0  0  0  0  0  0
    9.1656  -15.0003   27.9991 O   0  0  0  0  0  0  0  0  0  0  0  0
  2  6  1  0
  2  1  1  6
  2  3  1  0
  3  4  1  0
  4  5  2  0
  4  8  1  0
  6  7  2  0
 10  9  1  1
 10 12  1  0
 11 10  1  0
 11  6  1  0
 12 19  1  0
 12 13  2  0
 15 14  1  0
 16 15  1  0
 16 17  1  6
 18 16  1  0
 18 19  1  6
 20 21  1  0
 20 18  1  0
 22 20  2  0
M  END
$$$$
