DAI.pdb
     RDKit          3D

 22 21  0  0  1  0  0  0  0  0999 V2000
    9.8902  -18.3973   19.7283 N   0  0  0  0  0  0  0  0  0  0  0  0
   10.6096  -17.1653   19.9670 C   0  0  1  0  0  0  0  0  0  0  0  0
   11.1008  -16.6567   18.6270 C   0  0  0  0  0  0  0  0  0  0  0  0
   12.2464  -17.5159   18.2347 C   0  0  0  0  0  0  0  0  0  0  0  0
   12.2521  -18.0655   17.1025 O   0  0  0  0  0  0  0  0  0  0  0  0
    9.7371  -16.2307   20.6757 C   0  0  0  0  0  0  0  0  0  0  0  0
   10.1532  -15.0790   20.9544 O   0  0  0  0  0  0  0  0  0  0  0  0
   13.3153  -17.7348   19.0788 O   0  0  0  0  0  0  0  0  0  0  0  0
    6.2688  -16.2163   22.1048 C   0  0  0  0  0  0  0  0  0  0  0  0
    7.6214  -15.6051   21.8639 C   0  0  2  0  0  0  0  0  0  0  0  0
    8.4059  -16.5421   21.0864 N   0  0  0  0  0  0  0  0  0  0  0  0
    8.3019  -15.2662   23.1623 C   0  0  0  0  0  0  0  0  0  0  0  0
    9.3163  -14.5516   23.0540 O   0  0  0  0  0  0  0  0  0  0  0  0
    7.6960  -11.4281   26.7492 C   0  0  0  0  0  0  0  0  0  0  0  0
    7.7073  -12.9446   27.0221 C   0  0  0  0  0  0  0  0  0  0  0  0
    7.3533  -13.7049   25.7904 C   0  0  2  0  0  0  0  0  0  0  0  0
    5.8436  -13.6915   25.6696 C   0  0  0  0  0  0  0  0  0  0  0  0
    7.9341  -15.0780   25.6728 C   0  0  2  0  0  0  0  0  0  0  0  0
    7.8410  -15.7122   24.3921 N   0  0  0  0  0  0  0  0  0  0  0  0
    7.7817  -15.9586   26.8145 C   0  0  0  0  0  0  0  0  0  0  0  0
    8.5506  -16.0314   27.9317 O   0  0  0  0  0  0  0  0  0  0  0  0
    6.7894  -16.7785   26.7661 O   0  0  0  0  0  0  0  0  0  0  0  0
  2  6  1  0
  2  1  1  6
  2  3  1  0
  3  4  1  0
  4  5  2  0
  4  8  1  0
  6  7  2  0
 10  9  1  1
 10 12  1  0
 11 10  1  0
 11  6  1  0
 12 19  1  0
 12 13  2  0
 15 14  1  0
 16 15  1  0
 16 17  1  1
 18 16  1  0
 18 19  1  6
 20 21  1  0
 20 18  1  0
 22 20  2  0
M  END
$$$$
