DAI.pdb
     RDKit          3D

 22 21  0  0  1  0  0  0  0  0999 V2000
    8.5996  -18.4726   20.1585 N   0  0  0  0  0  0  0  0  0  0  0  0
    8.0302  -17.1433   20.1242 C   0  0  1  0  0  0  0  0  0  0  0  0
    7.0753  -17.0860   18.9492 C   0  0  0  0  0  0  0  0  0  0  0  0
    7.9020  -17.1715   17.7188 C   0  0  0  0  0  0  0  0  0  0  0  0
    9.1409  -17.3706   17.8150 O   0  0  0  0  0  0  0  0  0  0  0  0
    7.4055  -16.8564   21.4144 C   0  0  0  0  0  0  0  0  0  0  0  0
    6.8336  -15.7535   21.5980 O   0  0  0  0  0  0  0  0  0  0  0  0
    7.3517  -17.0379   16.4610 O   0  0  0  0  0  0  0  0  0  0  0  0
    6.6062  -18.6292   24.5967 C   0  0  0  0  0  0  0  0  0  0  0  0
    6.8754  -17.3781   23.8073 C   0  0  2  0  0  0  0  0  0  0  0  0
    7.3986  -17.7668   22.5138 N   0  0  0  0  0  0  0  0  0  0  0  0
    7.8318  -16.4731   24.5354 C   0  0  0  0  0  0  0  0  0  0  0  0
    9.0233  -16.5782   24.1883 O   0  0  0  0  0  0  0  0  0  0  0  0
    5.6385  -11.9303   26.8236 C   0  0  0  0  0  0  0  0  0  0  0  0
    6.7233  -12.6983   26.0440 C   0  0  0  0  0  0  0  0  0  0  0  0
    7.5279  -13.5525   26.9624 C   0  0  2  0  0  0  0  0  0  0  0  0
    8.4726  -12.6398   27.7164 C   0  0  0  0  0  0  0  0  0  0  0  0
    8.2222  -14.7208   26.3381 C   0  0  2  0  0  0  0  0  0  0  0  0
    7.4254  -15.5856   25.5208 N   0  0  0  0  0  0  0  0  0  0  0  0
    9.2438  -15.3801   27.1281 C   0  0  0  0  0  0  0  0  0  0  0  0
    9.1206  -16.4774   27.9189 O   0  0  0  0  0  0  0  0  0  0  0  0
   10.4212  -14.8605   27.0746 O   0  0  0  0  0  0  0  0  0  0  0  0
  2  6  1  0
  2  1  1  1
  2  3  1  0
  3  4  1  0
  4  5  2  0
  4  8  1  0
  6  7  2  0
 10  9  1  1
 10 12  1  0
 11 10  1  0
 11  6  1  0
 12 19  1  0
 12 13  2  0
 15 14  1  0
 16 15  1  0
 16 17  1  6
 18 16  1  0
 18 19  1  1
 20 21  1  0
 20 18  1  0
 22 20  2  0
M  END
$$$$
