DAI.pdb
     RDKit          3D

 22 21  0  0  1  0  0  0  0  0999 V2000
    8.2911  -18.9966   19.7899 N   0  0  0  0  0  0  0  0  0  0  0  0
    8.1861  -17.5541   19.8066 C   0  0  1  0  0  0  0  0  0  0  0  0
    7.5111  -17.1307   18.5179 C   0  0  0  0  0  0  0  0  0  0  0  0
    8.4801  -17.3837   17.4217 C   0  0  0  0  0  0  0  0  0  0  0  0
    9.6186  -17.8464   17.6930 O   0  0  0  0  0  0  0  0  0  0  0  0
    7.4761  -17.1394   21.0153 C   0  0  0  0  0  0  0  0  0  0  0  0
    6.5445  -16.3011   20.9340 O   0  0  0  0  0  0  0  0  0  0  0  0
    8.1713  -17.1251   16.1024 O   0  0  0  0  0  0  0  0  0  0  0  0
    6.6811  -18.3261   24.3297 C   0  0  0  0  0  0  0  0  0  0  0  0
    7.0712  -17.1425   23.4882 C   0  0  2  0  0  0  0  0  0  0  0  0
    7.7744  -17.6335   22.3210 N   0  0  0  0  0  0  0  0  0  0  0  0
    7.9178  -16.1763   24.2714 C   0  0  0  0  0  0  0  0  0  0  0  0
    9.1451  -16.3784   24.2051 O   0  0  0  0  0  0  0  0  0  0  0  0
    5.9143  -11.1005   26.7867 C   0  0  0  0  0  0  0  0  0  0  0  0
    6.1836  -12.5915   26.5057 C   0  0  0  0  0  0  0  0  0  0  0  0
    7.4806  -12.7682   25.7935 C   0  0  2  0  0  0  0  0  0  0  0  0
    7.3080  -12.2109   24.3959 C   0  0  0  0  0  0  0  0  0  0  0  0
    8.0554  -14.1488   25.8023 C   0  0  2  0  0  0  0  0  0  0  0  0
    7.3801  -15.1357   25.0143 N   0  0  0  0  0  0  0  0  0  0  0  0
    8.6070  -14.6257   27.0556 C   0  0  0  0  0  0  0  0  0  0  0  0
    8.3356  -15.7847   27.7094 O   0  0  0  0  0  0  0  0  0  0  0  0
    9.4659  -13.8524   27.6244 O   0  0  0  0  0  0  0  0  0  0  0  0
  2  6  1  0
  2  1  1  6
  2  3  1  0
  3  4  1  0
  4  5  2  0
  4  8  1  0
  6  7  2  0
 10  9  1  1
 10 12  1  0
 11 10  1  0
 11  6  1  0
 12 19  1  0
 12 13  2  0
 15 14  1  0
 16 15  1  0
 16 17  1  6
 18 16  1  0
 18 19  1  1
 20 21  1  0
 20 18  1  0
 22 20  2  0
M  END
$$$$
