DAI.pdb
     RDKit          3D

 22 21  0  0  1  0  0  0  0  0999 V2000
   10.4578  -18.8403   20.0756 N   0  0  0  0  0  0  0  0  0  0  0  0
   10.4632  -17.3997   19.9454 C   0  0  1  0  0  0  0  0  0  0  0  0
   10.3544  -17.0744   18.4696 C   0  0  0  0  0  0  0  0  0  0  0  0
   11.6599  -17.4243   17.8548 C   0  0  0  0  0  0  0  0  0  0  0  0
   12.7158  -17.3079   18.5297 O   0  0  0  0  0  0  0  0  0  0  0  0
    9.3853  -16.8411   20.7598 C   0  0  0  0  0  0  0  0  0  0  0  0
    9.1100  -15.6187   20.6753 O   0  0  0  0  0  0  0  0  0  0  0  0
   11.7551  -17.8765   16.5551 O   0  0  0  0  0  0  0  0  0  0  0  0
    6.7122  -18.0611   23.0660 C   0  0  0  0  0  0  0  0  0  0  0  0
    7.6011  -16.9813   22.5137 C   0  0  2  0  0  0  0  0  0  0  0  0
    8.5994  -17.6081   21.6718 N   0  0  0  0  0  0  0  0  0  0  0  0
    8.2390  -16.1860   23.6201 C   0  0  0  0  0  0  0  0  0  0  0  0
    9.4384  -16.4467   23.8317 O   0  0  0  0  0  0  0  0  0  0  0  0
    7.1649  -10.8705   26.7244 C   0  0  0  0  0  0  0  0  0  0  0  0
    7.9012  -12.2238   26.6955 C   0  0  0  0  0  0  0  0  0  0  0  0
    7.3074  -13.1256   25.6685 C   0  0  2  0  0  0  0  0  0  0  0  0
    5.8446  -13.3059   26.0172 C   0  0  0  0  0  0  0  0  0  0  0  0
    8.0153  -14.4232   25.4410 C   0  0  2  0  0  0  0  0  0  0  0  0
    7.5502  -15.2320   24.3546 N   0  0  0  0  0  0  0  0  0  0  0  0
    8.4499  -15.1523   26.6166 C   0  0  0  0  0  0  0  0  0  0  0  0
    9.4502  -14.8398   27.4804 O   0  0  0  0  0  0  0  0  0  0  0  0
    7.8055  -16.2365   26.8781 O   0  0  0  0  0  0  0  0  0  0  0  0
  2  6  1  0
  2  1  1  6
  2  3  1  0
  3  4  1  0
  4  5  2  0
  4  8  1  0
  6  7  2  0
 10  9  1  1
 10 12  1  0
 11 10  1  0
 11  6  1  0
 12 19  1  0
 12 13  2  0
 15 14  1  0
 16 15  1  0
 16 17  1  1
 18 16  1  0
 18 19  1  1
 20 21  1  0
 20 18  1  0
 22 20  2  0
M  END
$$$$
