DAI.pdb
     RDKit          3D

 22 21  0  0  1  0  0  0  0  0999 V2000
   10.8440  -17.0598   18.9795 N   0  0  0  0  0  0  0  0  0  0  0  0
   11.1098  -17.2637   20.3867 C   0  0  1  0  0  0  0  0  0  0  0  0
   12.5147  -16.7675   20.6623 C   0  0  0  0  0  0  0  0  0  0  0  0
   13.4455  -17.7995   20.1395 C   0  0  0  0  0  0  0  0  0  0  0  0
   14.6787  -17.5543   20.0855 O   0  0  0  0  0  0  0  0  0  0  0  0
   10.0758  -16.5918   21.1718 C   0  0  0  0  0  0  0  0  0  0  0  0
   10.0562  -15.3376   21.2327 O   0  0  0  0  0  0  0  0  0  0  0  0
   12.9988  -19.0304   19.7057 O   0  0  0  0  0  0  0  0  0  0  0  0
    6.8426  -17.5407   22.7585 C   0  0  0  0  0  0  0  0  0  0  0  0
    7.9566  -16.5620   22.5088 C   0  0  2  0  0  0  0  0  0  0  0  0
    9.0559  -17.2793   21.8963 N   0  0  0  0  0  0  0  0  0  0  0  0
    8.3845  -15.8906   23.7855 C   0  0  0  0  0  0  0  0  0  0  0  0
    9.4689  -16.2885   24.2515 O   0  0  0  0  0  0  0  0  0  0  0  0
    6.7787  -10.7370   26.9611 C   0  0  0  0  0  0  0  0  0  0  0  0
    7.5206  -12.0872   26.9928 C   0  0  0  0  0  0  0  0  0  0  0  0
    7.0824  -12.9565   25.8646 C   0  0  2  0  0  0  0  0  0  0  0  0
    5.6245  -13.2956   26.0956 C   0  0  0  0  0  0  0  0  0  0  0  0
    7.9246  -14.1627   25.5954 C   0  0  2  0  0  0  0  0  0  0  0  0
    7.6335  -14.9020   24.4039 N   0  0  0  0  0  0  0  0  0  0  0  0
    8.3199  -14.9599   26.7401 C   0  0  0  0  0  0  0  0  0  0  0  0
    7.9640  -16.2352   27.0426 O   0  0  0  0  0  0  0  0  0  0  0  0
    9.1112  -14.3876   27.5801 O   0  0  0  0  0  0  0  0  0  0  0  0
  2  6  1  0
  2  1  1  6
  2  3  1  0
  3  4  1  0
  4  5  2  0
  4  8  1  0
  6  7  2  0
 10  9  1  1
 10 12  1  0
 11 10  1  0
 11  6  1  0
 12 19  1  0
 12 13  2  0
 15 14  1  0
 16 15  1  0
 16 17  1  1
 18 16  1  0
 18 19  1  6
 20 21  1  0
 20 18  1  0
 22 20  2  0
M  END
$$$$
