DAI.pdb
     RDKit          3D

 22 21  0  0  1  0  0  0  0  0999 V2000
    8.3746  -18.6670   19.8174 N   0  0  0  0  0  0  0  0  0  0  0  0
    8.1410  -17.2400   19.8556 C   0  0  1  0  0  0  0  0  0  0  0  0
    7.1852  -16.9037   18.7290 C   0  0  0  0  0  0  0  0  0  0  0  0
    7.9549  -17.0164   17.4643 C   0  0  0  0  0  0  0  0  0  0  0  0
    9.1586  -17.3819   17.4996 O   0  0  0  0  0  0  0  0  0  0  0  0
    7.6516  -16.8701   21.1826 C   0  0  0  0  0  0  0  0  0  0  0  0
    7.1749  -15.7241   21.3736 O   0  0  0  0  0  0  0  0  0  0  0  0
    7.3889  -16.7302   16.2393 O   0  0  0  0  0  0  0  0  0  0  0  0
    6.8350  -18.5977   24.3778 C   0  0  0  0  0  0  0  0  0  0  0  0
    7.0959  -17.3513   23.5782 C   0  0  2  0  0  0  0  0  0  0  0  0
    7.6775  -17.7440   22.3110 N   0  0  0  0  0  0  0  0  0  0  0  0
    7.9978  -16.4069   24.3255 C   0  0  0  0  0  0  0  0  0  0  0  0
    9.2124  -16.5347   24.0807 O   0  0  0  0  0  0  0  0  0  0  0  0
    6.2822  -11.3779   27.1171 C   0  0  0  0  0  0  0  0  0  0  0  0
    6.4826  -12.8773   26.8233 C   0  0  0  0  0  0  0  0  0  0  0  0
    7.6943  -13.0928   25.9831 C   0  0  2  0  0  0  0  0  0  0  0  0
    7.3813  -12.5699   24.5966 C   0  0  0  0  0  0  0  0  0  0  0  0
    8.2493  -14.4816   25.9695 C   0  0  2  0  0  0  0  0  0  0  0  0
    7.5208  -15.4620   25.2218 N   0  0  0  0  0  0  0  0  0  0  0  0
    8.8571  -14.9610   27.1955 C   0  0  0  0  0  0  0  0  0  0  0  0
    9.8043  -14.3573   27.9590 O   0  0  0  0  0  0  0  0  0  0  0  0
    8.4473  -16.1068   27.6178 O   0  0  0  0  0  0  0  0  0  0  0  0
  2  6  1  0
  2  1  1  1
  2  3  1  0
  3  4  1  0
  4  5  2  0
  4  8  1  0
  6  7  2  0
 10  9  1  1
 10 12  1  0
 11 10  1  0
 11  6  1  0
 12 19  1  0
 12 13  2  0
 15 14  1  0
 16 15  1  0
 16 17  1  6
 18 16  1  0
 18 19  1  1
 20 21  1  0
 20 18  1  0
 22 20  2  0
M  END
$$$$
