DAI.pdb
     RDKit          3D

 22 21  0  0  1  0  0  0  0  0999 V2000
    9.1813  -17.5434   19.2845 N   0  0  0  0  0  0  0  0  0  0  0  0
    9.9155  -17.5816   20.5302 C   0  0  1  0  0  0  0  0  0  0  0  0
   11.1575  -16.7317   20.3543 C   0  0  0  0  0  0  0  0  0  0  0  0
   12.1897  -17.6017   19.7360 C   0  0  0  0  0  0  0  0  0  0  0  0
   12.6197  -18.6015   20.3680 O   0  0  0  0  0  0  0  0  0  0  0  0
    9.0408  -17.1410   21.6155 C   0  0  0  0  0  0  0  0  0  0  0  0
    8.4644  -16.0279   21.5383 O   0  0  0  0  0  0  0  0  0  0  0  0
   12.6989  -17.3476   18.4795 O   0  0  0  0  0  0  0  0  0  0  0  0
    7.2787  -18.6253   24.5015 C   0  0  0  0  0  0  0  0  0  0  0  0
    7.8849  -17.4298   23.8200 C   0  0  2  0  0  0  0  0  0  0  0  0
    8.7869  -17.9079   22.7924 N   0  0  0  0  0  0  0  0  0  0  0  0
    8.5984  -16.5470   24.8075 C   0  0  0  0  0  0  0  0  0  0  0  0
    9.8127  -16.7868   24.9463 O   0  0  0  0  0  0  0  0  0  0  0  0
    5.8640  -11.8735   26.0081 C   0  0  0  0  0  0  0  0  0  0  0  0
    7.1045  -12.6850   25.5874 C   0  0  0  0  0  0  0  0  0  0  0  0
    7.6935  -13.3935   26.7585 C   0  0  2  0  0  0  0  0  0  0  0  0
    8.4488  -12.3656   27.5752 C   0  0  0  0  0  0  0  0  0  0  0  0
    8.5110  -14.6078   26.4523 C   0  0  2  0  0  0  0  0  0  0  0  0
    7.9594  -15.5393   25.5147 N   0  0  0  0  0  0  0  0  0  0  0  0
    9.2535  -15.1970   27.5495 C   0  0  0  0  0  0  0  0  0  0  0  0
   10.4039  -14.7566   28.1215 O   0  0  0  0  0  0  0  0  0  0  0  0
    8.7606  -16.2773   28.0485 O   0  0  0  0  0  0  0  0  0  0  0  0
  2  6  1  0
  2  1  1  6
  2  3  1  0
  3  4  1  0
  4  5  2  0
  4  8  1  0
  6  7  2  0
 10  9  1  1
 10 12  1  0
 11 10  1  0
 11  6  1  0
 12 19  1  0
 12 13  2  0
 15 14  1  0
 16 15  1  0
 16 17  1  6
 18 16  1  0
 18 19  1  1
 20 21  1  0
 20 18  1  0
 22 20  2  0
M  END
$$$$
