DAI.pdb
     RDKit          3D

 22 21  0  0  1  0  0  0  0  0999 V2000
   11.3740  -17.6033   18.9395 N   0  0  0  0  0  0  0  0  0  0  0  0
   11.6117  -17.6105   20.3663 C   0  0  1  0  0  0  0  0  0  0  0  0
   12.8878  -16.8341   20.6203 C   0  0  0  0  0  0  0  0  0  0  0  0
   13.9962  -17.6217   20.0239 C   0  0  0  0  0  0  0  0  0  0  0  0
   14.0693  -18.8584   20.2455 O   0  0  0  0  0  0  0  0  0  0  0  0
   10.4386  -17.0690   21.0501 C   0  0  0  0  0  0  0  0  0  0  0  0
    9.7449  -16.1839   20.4911 O   0  0  0  0  0  0  0  0  0  0  0  0
   14.9588  -17.0370   19.2275 O   0  0  0  0  0  0  0  0  0  0  0  0
    7.9379  -18.1602   23.3243 C   0  0  0  0  0  0  0  0  0  0  0  0
    8.7865  -16.9823   22.9323 C   0  0  2  0  0  0  0  0  0  0  0  0
   10.0117  -17.4864   22.3468 N   0  0  0  0  0  0  0  0  0  0  0  0
    9.0686  -16.0993   24.1173 C   0  0  0  0  0  0  0  0  0  0  0  0
   10.2006  -16.2368   24.6184 O   0  0  0  0  0  0  0  0  0  0  0  0
    6.5907  -10.9762   26.7450 C   0  0  0  0  0  0  0  0  0  0  0  0
    7.5689  -12.1600   26.8717 C   0  0  0  0  0  0  0  0  0  0  0  0
    7.2923  -13.1870   25.8281 C   0  0  2  0  0  0  0  0  0  0  0  0
    5.8581  -13.6390   26.0082 C   0  0  0  0  0  0  0  0  0  0  0  0
    8.2566  -14.3277   25.7530 C   0  0  2  0  0  0  0  0  0  0  0  0
    8.1431  -15.1972   24.6207 N   0  0  0  0  0  0  0  0  0  0  0  0
    8.6100  -14.9759   27.0009 C   0  0  0  0  0  0  0  0  0  0  0  0
    9.3778  -14.4951   28.0127 O   0  0  0  0  0  0  0  0  0  0  0  0
    8.1355  -16.1607   27.1753 O   0  0  0  0  0  0  0  0  0  0  0  0
  2  6  1  0
  2  1  1  6
  2  3  1  0
  3  4  1  0
  4  5  2  0
  4  8  1  0
  6  7  2  0
 10  9  1  1
 10 12  1  0
 11 10  1  0
 11  6  1  0
 12 19  1  0
 12 13  2  0
 15 14  1  0
 16 15  1  0
 16 17  1  1
 18 16  1  0
 18 19  1  6
 20 21  1  0
 20 18  1  0
 22 20  2  0
M  END
$$$$
