DAI.pdb
     RDKit          3D

 22 21  0  0  1  0  0  0  0  0999 V2000
   10.0237  -13.7564   18.7944 N   0  0  0  0  0  0  0  0  0  0  0  0
    8.7715  -13.1607   19.2060 C   0  0  1  0  0  0  0  0  0  0  0  0
    7.8573  -13.1396   17.9978 C   0  0  0  0  0  0  0  0  0  0  0  0
    8.1166  -14.3902   17.2406 C   0  0  0  0  0  0  0  0  0  0  0  0
    8.9144  -15.2448   17.7064 O   0  0  0  0  0  0  0  0  0  0  0  0
    8.2374  -13.9065   20.3443 C   0  0  0  0  0  0  0  0  0  0  0  0
    7.2233  -13.4787   20.9489 O   0  0  0  0  0  0  0  0  0  0  0  0
    7.5066  -14.6488   16.0307 O   0  0  0  0  0  0  0  0  0  0  0  0
    8.6775  -17.2305   21.9520 C   0  0  0  0  0  0  0  0  0  0  0  0
    8.2612  -15.7863   22.0011 C   0  0  2  0  0  0  0  0  0  0  0  0
    8.8028  -15.1228   20.8330 N   0  0  0  0  0  0  0  0  0  0  0  0
    8.7308  -15.1298   23.2708 C   0  0  0  0  0  0  0  0  0  0  0  0
    9.8908  -14.6779   23.2317 O   0  0  0  0  0  0  0  0  0  0  0  0
    5.7631  -11.9144   27.1504 C   0  0  0  0  0  0  0  0  0  0  0  0
    6.1576  -13.1631   26.3383 C   0  0  0  0  0  0  0  0  0  0  0  0
    7.6010  -13.1192   25.9709 C   0  0  2  0  0  0  0  0  0  0  0  0
    7.7499  -12.1184   24.8439 C   0  0  0  0  0  0  0  0  0  0  0  0
    8.2456  -14.4347   25.6697 C   0  0  2  0  0  0  0  0  0  0  0  0
    7.9379  -15.0312   24.4045 N   0  0  0  0  0  0  0  0  0  0  0  0
    8.3977  -15.3627   26.7733 C   0  0  0  0  0  0  0  0  0  0  0  0
    8.0310  -16.6690   26.8331 O   0  0  0  0  0  0  0  0  0  0  0  0
    8.9526  -14.8900   27.8354 O   0  0  0  0  0  0  0  0  0  0  0  0
  2  6  1  0
  2  1  1  6
  2  3  1  0
  3  4  1  0
  4  5  2  0
  4  8  1  0
  6  7  2  0
 10  9  1  1
 10 12  1  0
 11 10  1  0
 11  6  1  0
 12 19  1  0
 12 13  2  0
 15 14  1  0
 16 15  1  0
 16 17  1  6
 18 16  1  0
 18 19  1  6
 20 21  1  0
 20 18  1  0
 22 20  2  0
M  END
$$$$
