DAI.pdb
     RDKit          3D

 22 21  0  0  1  0  0  0  0  0999 V2000
    8.6047  -18.2462   19.9903 N   0  0  0  0  0  0  0  0  0  0  0  0
    8.0424  -16.9158   20.0686 C   0  0  1  0  0  0  0  0  0  0  0  0
    7.0390  -16.7773   18.9418 C   0  0  0  0  0  0  0  0  0  0  0  0
    7.8054  -16.8511   17.6722 C   0  0  0  0  0  0  0  0  0  0  0  0
    8.3353  -17.9396   17.3284 O   0  0  0  0  0  0  0  0  0  0  0  0
    7.4745  -16.7134   21.4005 C   0  0  0  0  0  0  0  0  0  0  0  0
    6.9864  -15.5976   21.7066 O   0  0  0  0  0  0  0  0  0  0  0  0
    7.9581  -15.7548   16.8490 O   0  0  0  0  0  0  0  0  0  0  0  0
    6.6774  -18.7551   24.4269 C   0  0  0  0  0  0  0  0  0  0  0  0
    6.9138  -17.4431   23.7312 C   0  0  2  0  0  0  0  0  0  0  0  0
    7.4337  -17.7232   22.4086 N   0  0  0  0  0  0  0  0  0  0  0  0
    7.8576  -16.5748   24.5180 C   0  0  0  0  0  0  0  0  0  0  0  0
    9.0643  -16.7367   24.2556 O   0  0  0  0  0  0  0  0  0  0  0  0
    5.7631  -11.8374   26.1651 C   0  0  0  0  0  0  0  0  0  0  0  0
    6.8758  -12.7356   25.5910 C   0  0  0  0  0  0  0  0  0  0  0  0
    7.5632  -13.4851   26.6801 C   0  0  2  0  0  0  0  0  0  0  0  0
    8.5324  -12.5292   27.3441 C   0  0  0  0  0  0  0  0  0  0  0  0
    8.1998  -14.7808   26.2894 C   0  0  2  0  0  0  0  0  0  0  0  0
    7.4247  -15.6602   25.4667 N   0  0  0  0  0  0  0  0  0  0  0  0
    9.0331  -15.4319   27.2814 C   0  0  0  0  0  0  0  0  0  0  0  0
    8.7827  -16.5720   27.9756 O   0  0  0  0  0  0  0  0  0  0  0  0
   10.1567  -14.8572   27.5393 O   0  0  0  0  0  0  0  0  0  0  0  0
  2  6  1  0
  2  1  1  1
  2  3  1  0
  3  4  1  0
  4  5  2  0
  4  8  1  0
  6  7  2  0
 10  9  1  1
 10 12  1  0
 11 10  1  0
 11  6  1  0
 12 19  1  0
 12 13  2  0
 15 14  1  0
 16 15  1  0
 16 17  1  6
 18 16  1  0
 18 19  1  1
 20 21  1  0
 20 18  1  0
 22 20  2  0
M  END
$$$$
