DAI.pdb
     RDKit          3D

 22 21  0  0  1  0  0  0  0  0999 V2000
    5.4986  -18.5375   23.4234 N   0  0  0  0  0  0  0  0  0  0  0  0
    6.8282  -18.9335   23.0139 C   0  0  1  0  0  0  0  0  0  0  0  0
    6.7160  -20.2915   22.3511 C   0  0  0  0  0  0  0  0  0  0  0  0
    5.3430  -20.7889   22.6198 C   0  0  0  0  0  0  0  0  0  0  0  0
    5.0737  -21.2960   23.7397 O   0  0  0  0  0  0  0  0  0  0  0  0
    7.3936  -17.8955   22.1536 C   0  0  0  0  0  0  0  0  0  0  0  0
    8.4940  -18.0919   21.5812 O   0  0  0  0  0  0  0  0  0  0  0  0
    4.3428  -20.7136   21.6728 O   0  0  0  0  0  0  0  0  0  0  0  0
    6.6217  -14.4547   20.9465 C   0  0  0  0  0  0  0  0  0  0  0  0
    7.5447  -15.4623   21.5742 C   0  0  2  0  0  0  0  0  0  0  0  0
    6.7662  -16.6367   21.9101 N   0  0  0  0  0  0  0  0  0  0  0  0
    8.2255  -14.8910   22.7883 C   0  0  0  0  0  0  0  0  0  0  0  0
    9.2402  -14.2090   22.5506 O   0  0  0  0  0  0  0  0  0  0  0  0
    6.5571  -11.5299   27.3263 C   0  0  0  0  0  0  0  0  0  0  0  0
    7.5902  -12.6224   26.9891 C   0  0  0  0  0  0  0  0  0  0  0  0
    7.1386  -13.4338   25.8238 C   0  0  2  0  0  0  0  0  0  0  0  0
    5.8144  -14.0657   26.1994 C   0  0  0  0  0  0  0  0  0  0  0  0
    8.1236  -14.4229   25.2870 C   0  0  2  0  0  0  0  0  0  0  0  0
    7.7644  -15.1032   24.0791 N   0  0  0  0  0  0  0  0  0  0  0  0
    8.8531  -15.2188   26.2548 C   0  0  0  0  0  0  0  0  0  0  0  0
    9.5690  -14.7938   27.3278 O   0  0  0  0  0  0  0  0  0  0  0  0
    8.8192  -16.4941   26.0766 O   0  0  0  0  0  0  0  0  0  0  0  0
  2  6  1  0
  2  1  1  6
  2  3  1  0
  3  4  1  0
  4  5  2  0
  4  8  1  0
  6  7  2  0
 10  9  1  1
 10 12  1  0
 11 10  1  0
 11  6  1  0
 12 19  1  0
 12 13  2  0
 15 14  1  0
 16 15  1  0
 16 17  1  1
 18 16  1  0
 18 19  1  6
 20 21  1  0
 20 18  1  0
 22 20  2  0
M  END
$$$$
