DAI.pdb
     RDKit          3D

 22 21  0  0  1  0  0  0  0  0999 V2000
   10.3272  -18.8726   20.7196 N   0  0  0  0  0  0  0  0  0  0  0  0
   11.0157  -17.6022   20.6531 C   0  0  1  0  0  0  0  0  0  0  0  0
   11.4428  -17.3893   19.2150 C   0  0  0  0  0  0  0  0  0  0  0  0
   12.6312  -18.2499   18.9877 C   0  0  0  0  0  0  0  0  0  0  0  0
   13.5622  -18.2603   19.8344 O   0  0  0  0  0  0  0  0  0  0  0  0
   10.1400  -16.5548   21.1759 C   0  0  0  0  0  0  0  0  0  0  0  0
   10.5613  -15.3747   21.2593 O   0  0  0  0  0  0  0  0  0  0  0  0
   12.7505  -19.0458   17.8674 O   0  0  0  0  0  0  0  0  0  0  0  0
    6.5834  -16.2324   22.3136 C   0  0  0  0  0  0  0  0  0  0  0  0
    7.9714  -15.6977   22.0933 C   0  0  2  0  0  0  0  0  0  0  0  0
    8.8000  -16.7837   21.6117 N   0  0  0  0  0  0  0  0  0  0  0  0
    8.5295  -15.1019   23.3571 C   0  0  0  0  0  0  0  0  0  0  0  0
    9.6447  -14.5604   23.2360 O   0  0  0  0  0  0  0  0  0  0  0  0
    5.8238  -11.4979   25.9317 C   0  0  0  0  0  0  0  0  0  0  0  0
    6.9018  -12.4251   25.3378 C   0  0  0  0  0  0  0  0  0  0  0  0
    7.3067  -13.4641   26.3261 C   0  0  2  0  0  0  0  0  0  0  0  0
    7.8675  -12.7438   27.5346 C   0  0  0  0  0  0  0  0  0  0  0  0
    8.2126  -14.5404   25.8183 C   0  0  2  0  0  0  0  0  0  0  0  0
    7.8592  -15.1480   24.5706 N   0  0  0  0  0  0  0  0  0  0  0  0
    8.7913  -15.4341   26.8025 C   0  0  0  0  0  0  0  0  0  0  0  0
    9.8379  -15.2049   27.6372 O   0  0  0  0  0  0  0  0  0  0  0  0
    8.2440  -16.5960   26.9004 O   0  0  0  0  0  0  0  0  0  0  0  0
  2  6  1  0
  2  1  1  6
  2  3  1  0
  3  4  1  0
  4  5  2  0
  4  8  1  0
  6  7  2  0
 10  9  1  1
 10 12  1  0
 11 10  1  0
 11  6  1  0
 12 19  1  0
 12 13  2  0
 15 14  1  0
 16 15  1  0
 16 17  1  1
 18 16  1  0
 18 19  1  6
 20 21  1  0
 20 18  1  0
 22 20  2  0
M  END
$$$$
