DAI.pdb
     RDKit          3D

 22 21  0  0  1  0  0  0  0  0999 V2000
   10.7833  -15.2142   18.5119 N   0  0  0  0  0  0  0  0  0  0  0  0
   11.2966  -15.3349   19.8588 C   0  0  1  0  0  0  0  0  0  0  0  0
   12.2419  -14.1742   20.0928 C   0  0  0  0  0  0  0  0  0  0  0  0
   13.4983  -14.4900   19.3671 C   0  0  0  0  0  0  0  0  0  0  0  0
   14.0761  -15.5888   19.5738 O   0  0  0  0  0  0  0  0  0  0  0  0
   10.1756  -15.3886   20.7956 C   0  0  0  0  0  0  0  0  0  0  0  0
    9.3014  -14.4872   20.7734 O   0  0  0  0  0  0  0  0  0  0  0  0
   14.0595  -13.6098   18.4654 O   0  0  0  0  0  0  0  0  0  0  0  0
    8.5318  -17.8863   22.9549 C   0  0  0  0  0  0  0  0  0  0  0  0
    8.8356  -16.4505   22.6276 C   0  0  2  0  0  0  0  0  0  0  0  0
    9.9976  -16.4229   21.7632 N   0  0  0  0  0  0  0  0  0  0  0  0
    9.0643  -15.6462   23.8784 C   0  0  0  0  0  0  0  0  0  0  0  0
   10.2458  -15.6076   24.2706 O   0  0  0  0  0  0  0  0  0  0  0  0
    6.6271  -10.8822   26.8215 C   0  0  0  0  0  0  0  0  0  0  0  0
    7.2339  -12.2683   27.1129 C   0  0  0  0  0  0  0  0  0  0  0  0
    7.0522  -13.1793   25.9478 C   0  0  2  0  0  0  0  0  0  0  0  0
    5.6556  -13.7579   26.0404 C   0  0  0  0  0  0  0  0  0  0  0  0
    8.1039  -14.2256   25.7579 C   0  0  2  0  0  0  0  0  0  0  0  0
    8.0416  -14.9937   24.5508 N   0  0  0  0  0  0  0  0  0  0  0  0
    8.5294  -14.9546   26.9368 C   0  0  0  0  0  0  0  0  0  0  0  0
    8.4900  -16.2937   27.1597 O   0  0  0  0  0  0  0  0  0  0  0  0
    9.0075  -14.2429   27.8981 O   0  0  0  0  0  0  0  0  0  0  0  0
  2  6  1  0
  2  1  1  6
  2  3  1  0
  3  4  1  0
  4  5  2  0
  4  8  1  0
  6  7  2  0
 10  9  1  1
 10 12  1  0
 11 10  1  0
 11  6  1  0
 12 19  1  0
 12 13  2  0
 15 14  1  0
 16 15  1  0
 16 17  1  1
 18 16  1  0
 18 19  1  6
 20 21  1  0
 20 18  1  0
 22 20  2  0
M  END
$$$$
