DRW.pdb
     RDKit          3D

 34 35  0  0  1  0  0  0  0  0999 V2000
   21.7679  -19.5911  -15.2874 N   0  0  0  0  0  0  0  0  0  0  0  0
   22.9455  -19.0428  -14.6029 C   0  0  1  0  0  0  0  0  0  0  0  0
   22.4644  -17.9877  -13.6693 C   0  0  0  0  0  0  0  0  0  0  0  0
   21.8715  -16.8257  -14.3287 C   0  0  0  0  0  0  0  0  0  0  0  0
   20.7365  -16.3553  -14.1704 O   0  0  0  0  0  0  0  0  0  0  0  0
   23.6567  -20.1626  -13.9019 C   0  0  0  0  0  0  0  0  0  0  0  0
   23.0726  -21.0084  -13.2237 O   0  0  0  0  0  0  0  0  0  0  0  0
   22.6832  -16.1506  -15.2613 O   0  0  0  0  0  0  0  0  0  0  0  0
   30.5470  -24.0123  -14.7519 N   0  0  0  0  0  0  0  0  0  0  0  0
   30.2653  -23.0248  -15.7349 C   0  0  0  0  0  0  0  0  0  0  0  0
   30.4560  -23.2645  -16.9840 N   0  0  0  0  0  0  0  0  0  0  0  0
   29.7630  -21.7543  -15.2943 N   0  0  0  0  0  0  0  0  0  0  0  0
   29.5047  -21.6223  -13.8712 C   0  0  0  0  0  0  0  0  0  0  0  0
   28.2605  -20.7797  -13.6761 C   0  0  0  0  0  0  0  0  0  0  0  0
   27.0854  -21.5174  -14.2842 C   0  0  0  0  0  0  0  0  0  0  0  0
   25.8391  -21.3361  -13.4473 C   0  0  2  0  0  0  0  0  0  0  0  0
   25.0660  -20.2674  -14.0135 N   0  0  0  0  0  0  0  0  0  0  0  0
   26.2952  -20.9211  -12.0734 C   0  0  0  0  0  0  0  0  0  0  0  0
   27.3415  -20.2353  -11.9699 O   0  0  0  0  0  0  0  0  0  0  0  0
   30.1546  -22.5588  -17.6767 N   0  0  0  0  0  0  0  0  0  0  0  0
   25.5904  -21.2762  -10.9109 C   0  0  1  0  0  0  0  0  0  0  0  0
   26.1696  -21.2487   -9.5555 C   0  0  0  0  0  0  0  0  0  0  0  0
   27.0131  -20.0471   -9.3648 C   0  0  0  0  0  0  0  0  0  0  0  0
   28.0946  -20.2779   -8.4013 C   0  0  0  0  0  0  0  0  0  0  0  0
   29.1638  -21.1596   -8.5786 N   0  0  0  0  0  0  0  0  0  0  0  0
   29.9512  -21.1617   -7.4808 C   0  0  0  0  0  0  0  0  0  0  0  0
   29.4303  -20.3008   -6.5779 C   0  0  0  0  0  0  0  0  0  0  0  0
   29.8295  -19.9100   -5.3226 C   0  0  0  0  0  0  0  0  0  0  0  0
   29.1191  -18.9718   -4.5870 C   0  0  0  0  0  0  0  0  0  0  0  0
   27.9797  -18.4202   -5.1401 C   0  0  0  0  0  0  0  0  0  0  0  0
   27.5876  -18.8172   -6.3948 C   0  0  0  0  0  0  0  0  0  0  0  0
   28.2961  -19.7594   -7.1382 C   0  0  0  0  0  0  0  0  0  0  0  0
   25.0973  -21.4817   -8.6006 O   0  0  0  0  0  0  0  0  0  0  0  0
   23.9642  -20.9482   -8.7608 O   0  0  0  0  0  0  0  0  0  0  0  0
  2  1  1  1
  3  2  1  0
  4  3  1  0
  5  4  2  0
  6 17  1  0
  6  2  1  0
  7  6  2  0
  8  4  1  0
  9 10  1  0
 10 12  1  0
 10 11  2  0
 12 13  1  0
 13 14  1  0
 14 15  1  0
 16 17  1  0
 16 15  1  6
 18 16  1  0
 19 18  2  0
 20 18  1  0
 21 20  1  0
 22 23  1  0
 21 22  1  1
 23 24  2  0
 25 24  1  0
 26 25  1  0
 27 26  2  0
 28 27  1  0
 29 30  1  0
 29 28  2  0
 30 31  2  0
 31 26  1  0
 31 23  1  0
 32 21  1  0
 32 34  1  0
 33 32  2  0
M  END
$$$$
