DRW.pdb
     RDKit          3D

 34 35  0  0  1  0  0  0  0  0999 V2000
   26.9839  -17.8529  -17.0128 N   0  0  0  0  0  0  0  0  0  0  0  0
   27.7094  -18.6540  -16.0189 C   0  0  1  0  0  0  0  0  0  0  0  0
   28.7917  -17.7964  -15.4626 C   0  0  0  0  0  0  0  0  0  0  0  0
   29.7629  -17.3356  -16.4530 C   0  0  0  0  0  0  0  0  0  0  0  0
   30.7896  -16.6691  -16.2621 O   0  0  0  0  0  0  0  0  0  0  0  0
   26.7367  -19.1172  -14.9745 C   0  0  0  0  0  0  0  0  0  0  0  0
   26.1026  -18.3426  -14.2572 O   0  0  0  0  0  0  0  0  0  0  0  0
   29.5089  -17.6876  -17.7931 O   0  0  0  0  0  0  0  0  0  0  0  0
   23.5053  -26.3948  -15.8156 N   0  0  0  0  0  0  0  0  0  0  0  0
   24.8574  -26.0287  -15.5737 C   0  0  0  0  0  0  0  0  0  0  0  0
   25.8224  -26.6444  -16.1599 N   0  0  0  0  0  0  0  0  0  0  0  0
   25.1145  -24.9538  -14.6576 N   0  0  0  0  0  0  0  0  0  0  0  0
   23.9958  -24.5262  -13.8360 C   0  0  0  0  0  0  0  0  0  0  0  0
   24.2495  -23.1090  -13.3636 C   0  0  0  0  0  0  0  0  0  0  0  0
   25.3160  -22.4960  -14.2478 C   0  0  0  0  0  0  0  0  0  0  0  0
   25.5830  -21.0592  -13.8592 C   0  0  2  0  0  0  0  0  0  0  0  0
   26.5253  -20.5068  -14.7903 N   0  0  0  0  0  0  0  0  0  0  0  0
   26.2198  -21.0896  -12.4948 C   0  0  0  0  0  0  0  0  0  0  0  0
   27.3697  -21.5796  -12.3799 O   0  0  0  0  0  0  0  0  0  0  0  0
   26.7943  -26.3910  -15.9155 N   0  0  0  0  0  0  0  0  0  0  0  0
   25.5702  -20.5898  -11.3535 C   0  0  1  0  0  0  0  0  0  0  0  0
   25.9793  -20.8985   -9.9712 C   0  0  0  0  0  0  0  0  0  0  0  0
   27.1667  -20.1050   -9.5811 C   0  0  0  0  0  0  0  0  0  0  0  0
   27.2196  -19.8633   -8.1355 C   0  0  0  0  0  0  0  0  0  0  0  0
   26.1252  -19.5500   -7.3253 N   0  0  0  0  0  0  0  0  0  0  0  0
   26.5319  -19.3467   -6.0532 C   0  0  0  0  0  0  0  0  0  0  0  0
   27.8718  -19.5185   -5.9988 C   0  0  0  0  0  0  0  0  0  0  0  0
   28.7806  -19.4511   -4.9705 C   0  0  0  0  0  0  0  0  0  0  0  0
   30.1320  -19.6958   -5.1700 C   0  0  0  0  0  0  0  0  0  0  0  0
   30.5673  -20.0155   -6.4415 C   0  0  0  0  0  0  0  0  0  0  0  0
   29.6523  -20.0799   -7.4634 C   0  0  0  0  0  0  0  0  0  0  0  0
   28.2941  -19.8345   -7.2698 C   0  0  0  0  0  0  0  0  0  0  0  0
   24.8013  -20.8165   -9.1219 O   0  0  0  0  0  0  0  0  0  0  0  0
   23.8085  -20.1144   -9.4625 O   0  0  0  0  0  0  0  0  0  0  0  0
  2  1  1  6
  3  2  1  0
  4  3  1  0
  5  4  2  0
  6 17  1  0
  6  2  1  0
  7  6  2  0
  8  4  1  0
  9 10  1  0
 10 12  1  0
 10 11  2  0
 12 13  1  0
 13 14  1  0
 14 15  1  0
 16 17  1  0
 16 15  1  6
 18 16  1  0
 19 18  2  0
 20 18  1  0
 21 20  1  0
 22 23  1  0
 21 22  1  1
 23 24  2  0
 25 24  1  0
 26 25  1  0
 27 26  2  0
 28 27  1  0
 29 30  1  0
 29 28  2  0
 30 31  2  0
 31 26  1  0
 31 23  1  0
 32 21  1  0
 32 34  1  0
 33 32  2  0
M  END
$$$$
