DRW.pdb
     RDKit          3D

 34 35  0  0  1  0  0  0  0  0999 V2000
   27.7326  -19.9383  -18.4427 N   0  0  0  0  0  0  0  0  0  0  0  0
   28.3989  -20.6055  -17.3172 C   0  0  1  0  0  0  0  0  0  0  0  0
   29.8412  -20.7278  -17.6650 C   0  0  0  0  0  0  0  0  0  0  0  0
   30.1552  -21.8553  -18.5407 C   0  0  0  0  0  0  0  0  0  0  0  0
   29.3663  -22.6269  -19.1036 O   0  0  0  0  0  0  0  0  0  0  0  0
   28.1645  -19.7976  -16.0747 C   0  0  0  0  0  0  0  0  0  0  0  0
   28.8578  -18.8286  -15.7634 O   0  0  0  0  0  0  0  0  0  0  0  0
   31.5210  -22.1032  -18.7804 O   0  0  0  0  0  0  0  0  0  0  0  0
   22.6040  -19.8191  -12.4151 N   0  0  0  0  0  0  0  0  0  0  0  0
   21.7879  -20.3541  -13.4487 C   0  0  0  0  0  0  0  0  0  0  0  0
   20.8568  -21.2005  -13.1826 N   0  0  0  0  0  0  0  0  0  0  0  0
   22.0323  -19.9236  -14.7962 N   0  0  0  0  0  0  0  0  0  0  0  0
   23.1455  -19.0108  -14.9887 C   0  0  0  0  0  0  0  0  0  0  0  0
   24.4402  -19.7619  -14.7527 C   0  0  0  0  0  0  0  0  0  0  0  0
   25.4406  -18.8051  -14.1375 C   0  0  0  0  0  0  0  0  0  0  0  0
   26.7955  -19.4594  -13.9871 C   0  0  2  0  0  0  0  0  0  0  0  0
   27.1010  -20.1517  -15.2068 N   0  0  0  0  0  0  0  0  0  0  0  0
   26.6678  -20.4729  -12.8806 C   0  0  0  0  0  0  0  0  0  0  0  0
   26.2074  -21.6077  -13.1561 O   0  0  0  0  0  0  0  0  0  0  0  0
   20.2814  -21.5663  -13.9595 N   0  0  0  0  0  0  0  0  0  0  0  0
   27.0455  -20.1891  -11.5573 C   0  0  2  0  0  0  0  0  0  0  0  0
   26.7924  -21.0889  -10.4172 C   0  0  0  0  0  0  0  0  0  0  0  0
   27.9060  -21.0350   -9.4432 C   0  0  0  0  0  0  0  0  0  0  0  0
   27.4499  -20.6538   -8.1024 C   0  0  0  0  0  0  0  0  0  0  0  0
   26.1171  -20.5815   -7.6895 N   0  0  0  0  0  0  0  0  0  0  0  0
   26.0496  -20.1552   -6.4094 C   0  0  0  0  0  0  0  0  0  0  0  0
   27.3074  -19.9432   -5.9613 C   0  0  0  0  0  0  0  0  0  0  0  0
   27.8100  -19.5306   -4.7509 C   0  0  0  0  0  0  0  0  0  0  0  0
   29.1743  -19.4088   -4.5273 C   0  0  0  0  0  0  0  0  0  0  0  0
   30.0444  -19.7131   -5.5562 C   0  0  0  0  0  0  0  0  0  0  0  0
   29.5334  -20.1239   -6.7627 C   0  0  0  0  0  0  0  0  0  0  0  0
   28.1646  -20.2475   -6.9938 C   0  0  0  0  0  0  0  0  0  0  0  0
   25.4488  -20.8278   -9.9246 O   0  0  0  0  0  0  0  0  0  0  0  0
   24.9118  -19.6963  -10.0852 O   0  0  0  0  0  0  0  0  0  0  0  0
  2  1  1  6
  3  2  1  0
  4  3  1  0
  5  4  2  0
  6 17  1  0
  6  2  1  0
  7  6  2  0
  8  4  1  0
  9 10  1  0
 10 12  1  0
 10 11  2  0
 12 13  1  0
 13 14  1  0
 14 15  1  0
 16 17  1  0
 16 15  1  6
 18 16  1  0
 19 18  2  0
 20 18  1  0
 21 20  1  0
 22 23  1  0
 21 22  1  1
 23 24  2  0
 25 24  1  0
 26 25  1  0
 27 26  2  0
 28 27  1  0
 29 30  1  0
 29 28  2  0
 30 31  2  0
 31 26  1  0
 31 23  1  0
 32 21  1  0
 32 34  1  0
 33 32  2  0
M  END
$$$$
