DRW.pdb
     RDKit          3D

 34 35  0  0  1  0  0  0  0  0999 V2000
   24.3778  -20.6526   -8.2954 N   0  0  0  0  0  0  0  0  0  0  0  0
   24.3373  -20.9846   -9.7251 C   0  0  1  0  0  0  0  0  0  0  0  0
   23.0083  -20.5570  -10.2421 C   0  0  0  0  0  0  0  0  0  0  0  0
   21.8761  -21.2700   -9.6537 C   0  0  0  0  0  0  0  0  0  0  0  0
   20.6794  -21.1892   -9.9633 O   0  0  0  0  0  0  0  0  0  0  0  0
   25.4798  -20.2940  -10.4099 C   0  0  0  0  0  0  0  0  0  0  0  0
   25.9558  -19.2298  -10.0132 O   0  0  0  0  0  0  0  0  0  0  0  0
   22.1721  -22.1616   -8.6040 O   0  0  0  0  0  0  0  0  0  0  0  0
   31.5895  -22.5032   -9.2189 N   0  0  0  0  0  0  0  0  0  0  0  0
   31.8260  -22.6737  -10.6102 C   0  0  0  0  0  0  0  0  0  0  0  0
   32.6981  -23.5195  -11.0322 N   0  0  0  0  0  0  0  0  0  0  0  0
   31.0650  -21.8757  -11.5294 N   0  0  0  0  0  0  0  0  0  0  0  0
   29.8144  -21.3329  -11.0286 C   0  0  0  0  0  0  0  0  0  0  0  0
   28.6704  -22.1778  -11.5516 C   0  0  0  0  0  0  0  0  0  0  0  0
   28.0528  -21.4627  -12.7357 C   0  0  0  0  0  0  0  0  0  0  0  0
   27.1669  -20.3249  -12.2806 C   0  0  2  0  0  0  0  0  0  0  0  0
   26.0502  -20.8785  -11.5686 N   0  0  0  0  0  0  0  0  0  0  0  0
   26.6539  -19.6495  -13.5250 C   0  0  0  0  0  0  0  0  0  0  0  0
   25.9847  -20.3266  -14.3431 O   0  0  0  0  0  0  0  0  0  0  0  0
   32.9101  -23.5513  -12.0434 N   0  0  0  0  0  0  0  0  0  0  0  0
   26.9002  -18.2932  -13.7972 C   0  0  2  0  0  0  0  0  0  0  0  0
   26.3684  -17.5788  -14.9720 C   0  0  0  0  0  0  0  0  0  0  0  0
   26.5848  -16.1196  -14.8466 C   0  0  0  0  0  0  0  0  0  0  0  0
   26.0816  -15.3839  -16.0113 C   0  0  0  0  0  0  0  0  0  0  0  0
   24.7595  -15.3874  -16.4631 N   0  0  0  0  0  0  0  0  0  0  0  0
   24.6496  -14.6420  -17.5844 C   0  0  0  0  0  0  0  0  0  0  0  0
   25.8685  -14.1421  -17.8880 C   0  0  0  0  0  0  0  0  0  0  0  0
   26.3165  -13.3212  -18.8946 C   0  0  0  0  0  0  0  0  0  0  0  0
   27.6432  -12.9228  -18.9792 C   0  0  0  0  0  0  0  0  0  0  0  0
   28.5318  -13.3688  -18.0201 C   0  0  0  0  0  0  0  0  0  0  0  0
   28.0756  -14.1895  -17.0182 C   0  0  0  0  0  0  0  0  0  0  0  0
   26.7449  -14.5938  -16.9281 C   0  0  0  0  0  0  0  0  0  0  0  0
   26.8708  -18.2375  -16.1675 O   0  0  0  0  0  0  0  0  0  0  0  0
   28.0971  -18.5155  -16.2834 O   0  0  0  0  0  0  0  0  0  0  0  0
  2  1  1  1
  3  2  1  0
  4  3  1  0
  5  4  2  0
  6 17  1  0
  6  2  1  0
  7  6  2  0
  8  4  1  0
  9 10  1  0
 10 12  1  0
 10 11  2  0
 12 13  1  0
 13 14  1  0
 14 15  1  0
 16 17  1  0
 16 15  1  6
 18 16  1  0
 19 18  2  0
 20 18  1  0
 21 20  1  0
 22 23  1  0
 21 22  1  1
 23 24  2  0
 25 24  1  0
 26 25  1  0
 27 26  2  0
 28 27  1  0
 29 30  1  0
 29 28  2  0
 30 31  2  0
 31 26  1  0
 31 23  1  0
 32 21  1  0
 32 34  1  0
 33 32  2  0
M  END
$$$$
