DRW.pdb
     RDKit          3D

 34 35  0  0  1  0  0  0  0  0999 V2000
   26.2934  -19.3982  -18.3958 N   0  0  0  0  0  0  0  0  0  0  0  0
   26.8236  -19.8284  -17.0959 C   0  0  1  0  0  0  0  0  0  0  0  0
   27.7917  -18.7905  -16.6465 C   0  0  0  0  0  0  0  0  0  0  0  0
   29.0500  -18.7794  -17.3902 C   0  0  0  0  0  0  0  0  0  0  0  0
   29.3840  -19.5073  -18.3353 O   0  0  0  0  0  0  0  0  0  0  0  0
   25.6761  -20.0068  -16.1458 C   0  0  0  0  0  0  0  0  0  0  0  0
   24.8433  -19.1265  -15.9263 O   0  0  0  0  0  0  0  0  0  0  0  0
   30.0077  -17.8270  -16.9902 O   0  0  0  0  0  0  0  0  0  0  0  0
   25.6964  -26.8651  -16.1666 N   0  0  0  0  0  0  0  0  0  0  0  0
   24.2812  -26.8663  -16.0321 C   0  0  0  0  0  0  0  0  0  0  0  0
   23.6491  -27.9424  -15.7217 N   0  0  0  0  0  0  0  0  0  0  0  0
   23.5788  -25.6339  -16.2525 N   0  0  0  0  0  0  0  0  0  0  0  0
   24.3903  -24.4869  -16.6204 C   0  0  0  0  0  0  0  0  0  0  0  0
   24.9015  -23.8242  -15.3573 C   0  0  0  0  0  0  0  0  0  0  0  0
   23.8532  -22.8415  -14.8773 C   0  0  0  0  0  0  0  0  0  0  0  0
   24.4792  -21.5125  -14.5189 C   0  0  2  0  0  0  0  0  0  0  0  0
   25.5279  -21.2385  -15.4598 N   0  0  0  0  0  0  0  0  0  0  0  0
   25.0921  -21.6755  -13.1530 C   0  0  0  0  0  0  0  0  0  0  0  0
   25.6491  -22.7644  -12.8710 O   0  0  0  0  0  0  0  0  0  0  0  0
   22.6160  -27.9207  -15.6930 N   0  0  0  0  0  0  0  0  0  0  0  0
   25.0594  -20.6526  -12.1902 C   0  0  1  0  0  0  0  0  0  0  0  0
   25.3838  -20.8511  -10.7658 C   0  0  0  0  0  0  0  0  0  0  0  0
   26.4386  -19.9094  -10.3272 C   0  0  0  0  0  0  0  0  0  0  0  0
   27.6361  -19.9888  -11.1702 C   0  0  0  0  0  0  0  0  0  0  0  0
   27.7724  -19.4229  -12.4404 N   0  0  0  0  0  0  0  0  0  0  0  0
   28.9845  -19.7237  -12.9555 C   0  0  0  0  0  0  0  0  0  0  0  0
   29.6577  -20.4761  -12.0564 C   0  0  0  0  0  0  0  0  0  0  0  0
   30.9149  -21.0304  -12.0580 C   0  0  0  0  0  0  0  0  0  0  0  0
   31.3953  -21.7600  -10.9796 C   0  0  0  0  0  0  0  0  0  0  0  0
   30.5797  -21.9287   -9.8774 C   0  0  0  0  0  0  0  0  0  0  0  0
   29.3245  -21.3720   -9.8846 C   0  0  0  0  0  0  0  0  0  0  0  0
   28.8360  -20.6390  -10.9647 C   0  0  0  0  0  0  0  0  0  0  0  0
   24.1374  -20.8686  -10.0163 O   0  0  0  0  0  0  0  0  0  0  0  0
   23.0442  -20.5758  -10.5763 O   0  0  0  0  0  0  0  0  0  0  0  0
  2  1  1  6
  3  2  1  0
  4  3  1  0
  5  4  2  0
  6 17  1  0
  6  2  1  0
  7  6  2  0
  8  4  1  0
  9 10  1  0
 10 12  1  0
 10 11  2  0
 12 13  1  0
 13 14  1  0
 14 15  1  0
 16 17  1  0
 16 15  1  6
 18 16  1  0
 19 18  2  0
 20 18  1  0
 21 20  1  0
 22 23  1  0
 21 22  1  1
 23 24  2  0
 25 24  1  0
 26 25  1  0
 27 26  2  0
 28 27  1  0
 29 30  1  0
 29 28  2  0
 30 31  2  0
 31 26  1  0
 31 23  1  0
 32 21  1  0
 32 34  1  0
 33 32  2  0
M  END
$$$$
