DRW.pdb
     RDKit          3D

 34 35  0  0  1  0  0  0  0  0999 V2000
   25.1845  -21.2867   -9.0439 N   0  0  0  0  0  0  0  0  0  0  0  0
   24.1078  -21.2643  -10.0419 C   0  0  1  0  0  0  0  0  0  0  0  0
   22.9723  -20.5033   -9.4521 C   0  0  0  0  0  0  0  0  0  0  0  0
   22.1155  -21.2906   -8.5675 C   0  0  0  0  0  0  0  0  0  0  0  0
   21.0448  -20.9532   -8.0437 O   0  0  0  0  0  0  0  0  0  0  0  0
   24.6352  -20.6430  -11.3018 C   0  0  0  0  0  0  0  0  0  0  0  0
   25.3796  -19.6620  -11.3057 O   0  0  0  0  0  0  0  0  0  0  0  0
   22.5528  -22.5956   -8.2674 O   0  0  0  0  0  0  0  0  0  0  0  0
   29.2394  -20.0913  -16.9400 N   0  0  0  0  0  0  0  0  0  0  0  0
   28.0437  -20.6926  -17.4192 C   0  0  0  0  0  0  0  0  0  0  0  0
   27.7255  -20.6274  -18.6635 N   0  0  0  0  0  0  0  0  0  0  0  0
   27.2027  -21.3734  -16.4758 N   0  0  0  0  0  0  0  0  0  0  0  0
   27.6006  -21.2909  -15.0814 C   0  0  0  0  0  0  0  0  0  0  0  0
   26.6876  -22.1775  -14.2590 C   0  0  0  0  0  0  0  0  0  0  0  0
   25.2538  -21.8589  -14.6299 C   0  0  0  0  0  0  0  0  0  0  0  0
   24.7292  -20.6957  -13.8187 C   0  0  2  0  0  0  0  0  0  0  0  0
   24.2699  -21.1968  -12.5545 N   0  0  0  0  0  0  0  0  0  0  0  0
   23.5488  -20.1392  -14.5705 C   0  0  0  0  0  0  0  0  0  0  0  0
   22.4923  -20.8155  -14.6146 O   0  0  0  0  0  0  0  0  0  0  0  0
   26.9125  -21.1717  -18.9973 N   0  0  0  0  0  0  0  0  0  0  0  0
   23.5936  -18.8943  -15.2204 C   0  0  2  0  0  0  0  0  0  0  0  0
   22.4320  -18.2633  -15.8731 C   0  0  0  0  0  0  0  0  0  0  0  0
   22.7923  -16.9396  -16.4296 C   0  0  0  0  0  0  0  0  0  0  0  0
   23.9659  -17.0092  -17.3064 C   0  0  0  0  0  0  0  0  0  0  0  0
   23.9368  -17.2502  -18.6823 N   0  0  0  0  0  0  0  0  0  0  0  0
   25.1946  -17.2940  -19.1732 C   0  0  0  0  0  0  0  0  0  0  0  0
   26.0595  -17.0868  -18.1550 C   0  0  0  0  0  0  0  0  0  0  0  0
   27.4303  -17.0129  -18.0950 C   0  0  0  0  0  0  0  0  0  0  0  0
   28.0990  -16.7628  -16.9049 C   0  0  0  0  0  0  0  0  0  0  0  0
   27.3579  -16.5842  -15.7529 C   0  0  0  0  0  0  0  0  0  0  0  0
   25.9886  -16.6606  -15.8219 C   0  0  0  0  0  0  0  0  0  0  0  0
   25.3111  -16.9122  -17.0136 C   0  0  0  0  0  0  0  0  0  0  0  0
   21.8354  -19.2371  -16.7741 O   0  0  0  0  0  0  0  0  0  0  0  0
   22.5426  -20.1315  -17.3166 O   0  0  0  0  0  0  0  0  0  0  0  0
  2  1  1  1
  3  2  1  0
  4  3  1  0
  5  4  2  0
  6 17  1  0
  6  2  1  0
  7  6  2  0
  8  4  1  0
  9 10  1  0
 10 12  1  0
 10 11  2  0
 12 13  1  0
 13 14  1  0
 14 15  1  0
 16 17  1  0
 16 15  1  6
 18 16  1  0
 19 18  2  0
 20 18  1  0
 21 20  1  0
 22 23  1  0
 21 22  1  1
 23 24  2  0
 25 24  1  0
 26 25  1  0
 27 26  2  0
 28 27  1  0
 29 30  1  0
 29 28  2  0
 30 31  2  0
 31 26  1  0
 31 23  1  0
 32 21  1  0
 32 34  1  0
 33 32  2  0
M  END
$$$$
