DRW.pdb
     RDKit          3D

 34 35  0  0  1  0  0  0  0  0999 V2000
   19.7463  -24.1761  -14.3104 N   0  0  0  0  0  0  0  0  0  0  0  0
   20.2060  -22.9172  -13.7106 C   0  0  1  0  0  0  0  0  0  0  0  0
   19.2900  -22.6044  -12.5795 C   0  0  0  0  0  0  0  0  0  0  0  0
   19.4217  -21.2458  -12.0568 C   0  0  0  0  0  0  0  0  0  0  0  0
   19.2408  -20.8543  -10.8955 O   0  0  0  0  0  0  0  0  0  0  0  0
   21.6325  -23.0859  -13.2770 C   0  0  0  0  0  0  0  0  0  0  0  0
   21.9756  -23.8631  -12.3855 O   0  0  0  0  0  0  0  0  0  0  0  0
   19.8007  -20.2515  -12.9799 O   0  0  0  0  0  0  0  0  0  0  0  0
   28.5624  -21.2892  -16.1322 N   0  0  0  0  0  0  0  0  0  0  0  0
   29.0182  -22.6003  -15.8259 C   0  0  0  0  0  0  0  0  0  0  0  0
   30.2713  -22.8430  -15.6688 N   0  0  0  0  0  0  0  0  0  0  0  0
   28.0413  -23.6444  -15.6976 N   0  0  0  0  0  0  0  0  0  0  0  0
   26.6504  -23.2428  -15.8141 C   0  0  0  0  0  0  0  0  0  0  0  0
   26.2957  -22.3605  -14.6343 C   0  0  0  0  0  0  0  0  0  0  0  0
   24.8447  -21.9464  -14.7686 C   0  0  0  0  0  0  0  0  0  0  0  0
   24.0383  -22.3993  -13.5723 C   0  0  2  0  0  0  0  0  0  0  0  0
   22.6456  -22.3236  -13.9111 N   0  0  0  0  0  0  0  0  0  0  0  0
   24.3156  -21.4173  -12.4647 C   0  0  0  0  0  0  0  0  0  0  0  0
   23.8815  -20.2451  -12.5792 O   0  0  0  0  0  0  0  0  0  0  0  0
   30.5580  -23.7791  -15.3368 N   0  0  0  0  0  0  0  0  0  0  0  0
   25.0411  -21.7705  -11.3144 C   0  0  2  0  0  0  0  0  0  0  0  0
   25.6227  -20.7944  -10.3752 C   0  0  0  0  0  0  0  0  0  0  0  0
   26.3209  -21.4801   -9.2644 C   0  0  0  0  0  0  0  0  0  0  0  0
   26.8730  -20.5332   -8.2898 C   0  0  0  0  0  0  0  0  0  0  0  0
   26.5979  -19.1641   -8.2443 N   0  0  0  0  0  0  0  0  0  0  0  0
   27.3059  -18.5807   -7.2526 C   0  0  0  0  0  0  0  0  0  0  0  0
   28.0449  -19.5309   -6.6371 C   0  0  0  0  0  0  0  0  0  0  0  0
   28.9150  -19.4939   -5.5744 C   0  0  0  0  0  0  0  0  0  0  0  0
   29.5480  -20.6366   -5.1058 C   0  0  0  0  0  0  0  0  0  0  0  0
   29.2902  -21.8411   -5.7313 C   0  0  0  0  0  0  0  0  0  0  0  0
   28.4200  -21.8686   -6.7931 C   0  0  0  0  0  0  0  0  0  0  0  0
   27.7818  -20.7246   -7.2689 C   0  0  0  0  0  0  0  0  0  0  0  0
   26.3746  -19.8169  -11.1467 O   0  0  0  0  0  0  0  0  0  0  0  0
   26.0886  -18.5886  -11.0848 O   0  0  0  0  0  0  0  0  0  0  0  0
  2  1  1  1
  3  2  1  0
  4  3  1  0
  5  4  2  0
  6 17  1  0
  6  2  1  0
  7  6  2  0
  8  4  1  0
  9 10  1  0
 10 12  1  0
 10 11  2  0
 12 13  1  0
 13 14  1  0
 14 15  1  0
 16 17  1  0
 16 15  1  6
 18 16  1  0
 19 18  2  0
 20 18  1  0
 21 20  1  0
 22 23  1  0
 21 22  1  1
 23 24  2  0
 25 24  1  0
 26 25  1  0
 27 26  2  0
 28 27  1  0
 29 30  1  0
 29 28  2  0
 30 31  2  0
 31 26  1  0
 31 23  1  0
 32 21  1  0
 32 34  1  0
 33 32  2  0
M  END
$$$$
