DRW.pdb
     RDKit          3D

 34 35  0  0  1  0  0  0  0  0999 V2000
   24.3347  -18.4495  -16.6374 N   0  0  0  0  0  0  0  0  0  0  0  0
   25.0731  -18.2019  -15.3927 C   0  0  1  0  0  0  0  0  0  0  0  0
   24.7832  -16.8024  -14.9760 C   0  0  0  0  0  0  0  0  0  0  0  0
   25.4543  -15.7838  -15.7813 C   0  0  0  0  0  0  0  0  0  0  0  0
   25.4446  -15.6568  -17.0135 O   0  0  0  0  0  0  0  0  0  0  0  0
   24.6453  -19.2154  -14.3723 C   0  0  0  0  0  0  0  0  0  0  0  0
   23.6311  -19.0892  -13.6852 O   0  0  0  0  0  0  0  0  0  0  0  0
   26.2079  -14.8233  -15.0785 O   0  0  0  0  0  0  0  0  0  0  0  0
   21.0614  -24.7305  -14.0369 N   0  0  0  0  0  0  0  0  0  0  0  0
   22.1021  -25.5772  -14.5065 C   0  0  0  0  0  0  0  0  0  0  0  0
   21.8330  -26.6812  -15.1088 N   0  0  0  0  0  0  0  0  0  0  0  0
   23.4601  -25.1657  -14.2891 N   0  0  0  0  0  0  0  0  0  0  0  0
   23.6680  -24.1330  -13.2893 C   0  0  0  0  0  0  0  0  0  0  0  0
   25.1573  -23.9438  -13.0839 C   0  0  0  0  0  0  0  0  0  0  0  0
   25.6019  -22.7457  -13.8974 C   0  0  0  0  0  0  0  0  0  0  0  0
   25.0635  -21.4608  -13.3094 C   0  0  2  0  0  0  0  0  0  0  0  0
   25.4328  -20.3776  -14.1758 N   0  0  0  0  0  0  0  0  0  0  0  0
   25.7507  -21.2687  -11.9832 C   0  0  0  0  0  0  0  0  0  0  0  0
   26.9994  -21.1412  -11.9671 O   0  0  0  0  0  0  0  0  0  0  0  0
   22.6155  -27.2834  -15.4148 N   0  0  0  0  0  0  0  0  0  0  0  0
   25.0417  -21.2284  -10.7708 C   0  0  1  0  0  0  0  0  0  0  0  0
   25.6718  -21.0196   -9.4544 C   0  0  0  0  0  0  0  0  0  0  0  0
   26.5690  -19.8423   -9.4781 C   0  0  0  0  0  0  0  0  0  0  0  0
   27.7918  -20.0633   -8.6989 C   0  0  0  0  0  0  0  0  0  0  0  0
   28.9078  -20.7855   -9.1292 N   0  0  0  0  0  0  0  0  0  0  0  0
   29.8370  -20.8321   -8.1497 C   0  0  0  0  0  0  0  0  0  0  0  0
   29.3646  -20.1566   -7.0781 C   0  0  0  0  0  0  0  0  0  0  0  0
   29.8944  -19.8809   -5.8407 C   0  0  0  0  0  0  0  0  0  0  0  0
   29.2043  -19.1305   -4.8990 C   0  0  0  0  0  0  0  0  0  0  0  0
   27.9499  -18.6512   -5.2233 C   0  0  0  0  0  0  0  0  0  0  0  0
   27.4278  -18.9322   -6.4618 C   0  0  0  0  0  0  0  0  0  0  0  0
   28.1154  -19.6858   -7.4115 C   0  0  0  0  0  0  0  0  0  0  0  0
   24.6274  -21.0548   -8.4425 O   0  0  0  0  0  0  0  0  0  0  0  0
   23.4292  -20.7934   -8.7432 O   0  0  0  0  0  0  0  0  0  0  0  0
  2  1  1  6
  3  2  1  0
  4  3  1  0
  5  4  2  0
  6 17  1  0
  6  2  1  0
  7  6  2  0
  8  4  1  0
  9 10  1  0
 10 12  1  0
 10 11  2  0
 12 13  1  0
 13 14  1  0
 14 15  1  0
 16 17  1  0
 16 15  1  6
 18 16  1  0
 19 18  2  0
 20 18  1  0
 21 20  1  0
 22 23  1  0
 21 22  1  1
 23 24  2  0
 25 24  1  0
 26 25  1  0
 27 26  2  0
 28 27  1  0
 29 30  1  0
 29 28  2  0
 30 31  2  0
 31 26  1  0
 31 23  1  0
 32 21  1  0
 32 34  1  0
 33 32  2  0
M  END
$$$$
