DRW.pdb
     RDKit          3D

 34 35  0  0  1  0  0  0  0  0999 V2000
   21.9472  -23.4674  -15.7571 N   0  0  0  0  0  0  0  0  0  0  0  0
   22.1259  -22.3528  -14.8182 C   0  0  1  0  0  0  0  0  0  0  0  0
   21.0708  -22.4779  -13.7753 C   0  0  0  0  0  0  0  0  0  0  0  0
   19.7481  -22.0237  -14.2005 C   0  0  0  0  0  0  0  0  0  0  0  0
   19.4534  -20.9691  -14.7796 O   0  0  0  0  0  0  0  0  0  0  0  0
   23.5148  -22.4194  -14.2543 C   0  0  0  0  0  0  0  0  0  0  0  0
   24.1996  -23.4427  -14.2760 O   0  0  0  0  0  0  0  0  0  0  0  0
   18.6687  -22.8847  -13.9216 O   0  0  0  0  0  0  0  0  0  0  0  0
   29.3697  -22.0989  -16.1384 N   0  0  0  0  0  0  0  0  0  0  0  0
   28.4631  -21.0798  -16.5385 C   0  0  0  0  0  0  0  0  0  0  0  0
   28.0417  -21.0110  -17.7516 N   0  0  0  0  0  0  0  0  0  0  0  0
   28.0322  -20.1308  -15.5514 N   0  0  0  0  0  0  0  0  0  0  0  0
   28.6049  -20.2764  -14.2247 C   0  0  0  0  0  0  0  0  0  0  0  0
   27.5461  -19.9378  -13.1950 C   0  0  0  0  0  0  0  0  0  0  0  0
   26.1846  -20.1377  -13.8285 C   0  0  0  0  0  0  0  0  0  0  0  0
   25.4012  -21.2092  -13.1040 C   0  0  2  0  0  0  0  0  0  0  0  0
   24.0810  -21.2611  -13.6650 N   0  0  0  0  0  0  0  0  0  0  0  0
   25.2938  -20.7718  -11.6670 C   0  0  0  0  0  0  0  0  0  0  0  0
   24.5857  -19.7717  -11.3952 O   0  0  0  0  0  0  0  0  0  0  0  0
   27.4167  -20.2315  -18.0167 N   0  0  0  0  0  0  0  0  0  0  0  0
   25.9582  -21.4444  -10.6274 C   0  0  2  0  0  0  0  0  0  0  0  0
   25.9632  -20.9920   -9.2243 C   0  0  0  0  0  0  0  0  0  0  0  0
   27.0001  -21.7032   -8.4428 C   0  0  0  0  0  0  0  0  0  0  0  0
   27.1086  -21.1906   -7.0729 C   0  0  0  0  0  0  0  0  0  0  0  0
   26.0494  -21.0546   -6.1719 N   0  0  0  0  0  0  0  0  0  0  0  0
   26.4893  -20.5103   -5.0164 C   0  0  0  0  0  0  0  0  0  0  0  0
   27.8171  -20.2820   -5.1282 C   0  0  0  0  0  0  0  0  0  0  0  0
   28.7522  -19.7687   -4.2622 C   0  0  0  0  0  0  0  0  0  0  0  0
   30.0900  -19.6531   -4.6129 C   0  0  0  0  0  0  0  0  0  0  0  0
   30.4840  -20.0682   -5.8702 C   0  0  0  0  0  0  0  0  0  0  0  0
   29.5427  -20.5791   -6.7296 C   0  0  0  0  0  0  0  0  0  0  0  0
   28.1978  -20.6971   -6.3837 C   0  0  0  0  0  0  0  0  0  0  0  0
   25.9893  -19.5376   -9.2182 O   0  0  0  0  0  0  0  0  0  0  0  0
   26.7854  -18.9040   -9.9659 O   0  0  0  0  0  0  0  0  0  0  0  0
  2  1  1  6
  3  2  1  0
  4  3  1  0
  5  4  2  0
  6 17  1  0
  6  2  1  0
  7  6  2  0
  8  4  1  0
  9 10  1  0
 10 12  1  0
 10 11  2  0
 12 13  1  0
 13 14  1  0
 14 15  1  0
 16 17  1  0
 16 15  1  6
 18 16  1  0
 19 18  2  0
 20 18  1  0
 21 20  1  0
 22 23  1  0
 21 22  1  6
 23 24  2  0
 25 24  1  0
 26 25  1  0
 27 26  2  0
 28 27  1  0
 29 30  1  0
 29 28  2  0
 30 31  2  0
 31 26  1  0
 31 23  1  0
 32 21  1  0
 32 34  1  0
 33 32  2  0
M  END
$$$$
