DRW.pdb
     RDKit          3D

 34 35  0  0  1  0  0  0  0  0999 V2000
   27.4612  -21.1973  -17.2187 N   0  0  0  0  0  0  0  0  0  0  0  0
   27.8567  -21.7088  -15.9003 C   0  0  1  0  0  0  0  0  0  0  0  0
   29.3446  -21.7397  -15.8648 C   0  0  0  0  0  0  0  0  0  0  0  0
   29.9444  -22.7870  -16.6893 C   0  0  0  0  0  0  0  0  0  0  0  0
   31.1410  -23.0940  -16.7813 O   0  0  0  0  0  0  0  0  0  0  0  0
   27.2658  -20.8208  -14.8450 C   0  0  0  0  0  0  0  0  0  0  0  0
   27.2496  -19.5925  -14.9333 O   0  0  0  0  0  0  0  0  0  0  0  0
   29.0608  -23.5467  -17.4807 O   0  0  0  0  0  0  0  0  0  0  0  0
   20.3651  -21.4377  -11.2461 N   0  0  0  0  0  0  0  0  0  0  0  0
   20.1637  -20.1168  -11.7314 C   0  0  0  0  0  0  0  0  0  0  0  0
   19.3190  -19.3284  -11.1668 N   0  0  0  0  0  0  0  0  0  0  0  0
   20.9289  -19.6888  -12.8681 N   0  0  0  0  0  0  0  0  0  0  0  0
   21.9238  -20.6236  -13.3637 C   0  0  0  0  0  0  0  0  0  0  0  0
   23.2536  -20.3174  -12.7049 C   0  0  0  0  0  0  0  0  0  0  0  0
   24.3466  -21.0071  -13.4951 C   0  0  0  0  0  0  0  0  0  0  0  0
   25.7024  -20.7658  -12.8704 C   0  0  2  0  0  0  0  0  0  0  0  0
   26.6960  -21.4047  -13.6858 N   0  0  0  0  0  0  0  0  0  0  0  0
   25.6852  -21.4372  -11.5225 C   0  0  0  0  0  0  0  0  0  0  0  0
   25.1346  -22.5605  -11.4185 O   0  0  0  0  0  0  0  0  0  0  0  0
   19.2048  -18.3720  -11.5422 N   0  0  0  0  0  0  0  0  0  0  0  0
   26.2624  -20.8486  -10.3847 C   0  0  2  0  0  0  0  0  0  0  0  0
   25.7868  -21.0766   -9.0080 C   0  0  0  0  0  0  0  0  0  0  0  0
   26.3029  -20.0354   -8.0908 C   0  0  0  0  0  0  0  0  0  0  0  0
   27.6982  -20.2773   -7.7088 C   0  0  0  0  0  0  0  0  0  0  0  0
   28.6716  -20.8625   -8.5225 N   0  0  0  0  0  0  0  0  0  0  0  0
   29.8352  -20.9773   -7.8458 C   0  0  0  0  0  0  0  0  0  0  0  0
   29.6578  -20.4809   -6.6009 C   0  0  0  0  0  0  0  0  0  0  0  0
   30.4999  -20.3366   -5.5247 C   0  0  0  0  0  0  0  0  0  0  0  0
   30.0757  -19.7630   -4.3343 C   0  0  0  0  0  0  0  0  0  0  0  0
   28.7682  -19.3276   -4.2372 C   0  0  0  0  0  0  0  0  0  0  0  0
   27.9334  -19.4765   -5.3172 C   0  0  0  0  0  0  0  0  0  0  0  0
   28.3531  -20.0523   -6.5150 C   0  0  0  0  0  0  0  0  0  0  0  0
   24.3480  -21.2846   -9.0553 O   0  0  0  0  0  0  0  0  0  0  0  0
   23.6178  -20.5728   -9.8000 O   0  0  0  0  0  0  0  0  0  0  0  0
  2  1  1  6
  3  2  1  0
  4  3  1  0
  5  4  2  0
  6 17  1  0
  6  2  1  0
  7  6  2  0
  8  4  1  0
  9 10  1  0
 10 12  1  0
 10 11  2  0
 12 13  1  0
 13 14  1  0
 14 15  1  0
 16 17  1  0
 16 15  1  6
 18 16  1  0
 19 18  2  0
 20 18  1  0
 21 20  1  0
 22 23  1  0
 21 22  1  6
 23 24  2  0
 25 24  1  0
 26 25  1  0
 27 26  2  0
 28 27  1  0
 29 30  1  0
 29 28  2  0
 30 31  2  0
 31 26  1  0
 31 23  1  0
 32 21  1  0
 32 34  1  0
 33 32  2  0
M  END
$$$$
