DRW.pdb
     RDKit          3D

 34 35  0  0  1  0  0  0  0  0999 V2000
   19.7469  -22.5190  -14.9679 N   0  0  0  0  0  0  0  0  0  0  0  0
   20.3808  -21.4843  -14.1412 C   0  0  1  0  0  0  0  0  0  0  0  0
   19.5183  -21.2825  -12.9447 C   0  0  0  0  0  0  0  0  0  0  0  0
   18.0842  -21.3030  -13.2267 C   0  0  0  0  0  0  0  0  0  0  0  0
   17.5241  -21.4459  -14.3223 O   0  0  0  0  0  0  0  0  0  0  0  0
   21.7687  -21.9345  -13.7912 C   0  0  0  0  0  0  0  0  0  0  0  0
   22.0924  -22.2927  -12.6583 O   0  0  0  0  0  0  0  0  0  0  0  0
   17.2245  -21.1410  -12.1226 O   0  0  0  0  0  0  0  0  0  0  0  0
   27.0237  -26.1233  -16.5571 N   0  0  0  0  0  0  0  0  0  0  0  0
   25.9163  -26.5507  -17.3393 C   0  0  0  0  0  0  0  0  0  0  0  0
   25.6220  -27.7986  -17.4394 N   0  0  0  0  0  0  0  0  0  0  0  0
   25.1373  -25.5510  -18.0135 N   0  0  0  0  0  0  0  0  0  0  0  0
   25.3582  -24.1760  -17.6014 C   0  0  0  0  0  0  0  0  0  0  0  0
   24.8044  -23.9895  -16.2034 C   0  0  0  0  0  0  0  0  0  0  0  0
   24.8263  -22.5106  -15.8757 C   0  0  0  0  0  0  0  0  0  0  0  0
   24.1516  -22.2386  -14.5501 C   0  0  2  0  0  0  0  0  0  0  0  0
   22.7666  -21.9544  -14.7979 N   0  0  0  0  0  0  0  0  0  0  0  0
   24.7986  -21.0046  -13.9787 C   0  0  0  0  0  0  0  0  0  0  0  0
   24.0643  -20.0468  -13.6334 O   0  0  0  0  0  0  0  0  0  0  0  0
   24.8274  -28.0747  -18.0402 N   0  0  0  0  0  0  0  0  0  0  0  0
   26.1904  -20.8928  -13.8215 C   0  0  2  0  0  0  0  0  0  0  0  0
   26.8493  -20.5188  -12.5568 C   0  0  0  0  0  0  0  0  0  0  0  0
   26.4954  -21.4660  -11.4755 C   0  0  0  0  0  0  0  0  0  0  0  0
   27.0258  -21.0438  -10.1749 C   0  0  0  0  0  0  0  0  0  0  0  0
   26.3135  -20.3442   -9.1975 N   0  0  0  0  0  0  0  0  0  0  0  0
   27.1136  -20.0755   -8.1426 C   0  0  0  0  0  0  0  0  0  0  0  0
   28.3415  -20.5813   -8.3961 C   0  0  0  0  0  0  0  0  0  0  0  0
   29.5080  -20.6079   -7.6706 C   0  0  0  0  0  0  0  0  0  0  0  0
   30.6558  -21.2224   -8.1513 C   0  0  0  0  0  0  0  0  0  0  0  0
   30.6155  -21.8218   -9.3953 C   0  0  0  0  0  0  0  0  0  0  0  0
   29.4458  -21.7897  -10.1138 C   0  0  0  0  0  0  0  0  0  0  0  0
   28.2901  -21.1737   -9.6370 C   0  0  0  0  0  0  0  0  0  0  0  0
   28.2611  -20.2998  -12.8299 O   0  0  0  0  0  0  0  0  0  0  0  0
   28.9367  -21.1598  -13.4612 O   0  0  0  0  0  0  0  0  0  0  0  0
  2  1  1  6
  3  2  1  0
  4  3  1  0
  5  4  2  0
  6 17  1  0
  6  2  1  0
  7  6  2  0
  8  4  1  0
  9 10  1  0
 10 12  1  0
 10 11  2  0
 12 13  1  0
 13 14  1  0
 14 15  1  0
 16 17  1  0
 16 15  1  6
 18 16  1  0
 19 18  2  0
 20 18  1  0
 21 20  1  0
 22 23  1  0
 21 22  1  1
 23 24  2  0
 25 24  1  0
 26 25  1  0
 27 26  2  0
 28 27  1  0
 29 30  1  0
 29 28  2  0
 30 31  2  0
 31 26  1  0
 31 23  1  0
 32 21  1  0
 32 34  1  0
 33 32  2  0
M  END
$$$$
