DRW.pdb
     RDKit          3D

 34 35  0  0  1  0  0  0  0  0999 V2000
   25.2881  -20.3376   -9.1897 N   0  0  0  0  0  0  0  0  0  0  0  0
   25.2041  -20.8996  -10.5436 C   0  0  1  0  0  0  0  0  0  0  0  0
   23.8527  -20.5732  -11.0762 C   0  0  0  0  0  0  0  0  0  0  0  0
   22.7483  -21.1209  -10.2908 C   0  0  0  0  0  0  0  0  0  0  0  0
   22.7958  -21.6434   -9.1686 O   0  0  0  0  0  0  0  0  0  0  0  0
   26.3134  -20.3211  -11.3720 C   0  0  0  0  0  0  0  0  0  0  0  0
   26.5351  -19.1121  -11.4466 O   0  0  0  0  0  0  0  0  0  0  0  0
   21.4677  -21.0508  -10.8735 O   0  0  0  0  0  0  0  0  0  0  0  0
   31.6052  -21.6901   -8.9318 N   0  0  0  0  0  0  0  0  0  0  0  0
   31.8182  -22.6701   -9.9392 C   0  0  0  0  0  0  0  0  0  0  0  0
   32.2311  -23.8495   -9.6352 N   0  0  0  0  0  0  0  0  0  0  0  0
   31.5599  -22.3061  -11.3036 N   0  0  0  0  0  0  0  0  0  0  0  0
   31.5165  -20.8837  -11.5937 C   0  0  0  0  0  0  0  0  0  0  0  0
   30.0690  -20.4555  -11.7257 C   0  0  0  0  0  0  0  0  0  0  0  0
   29.4315  -21.2671  -12.8346 C   0  0  0  0  0  0  0  0  0  0  0  0
   28.0433  -20.7575  -13.1506 C   0  0  2  0  0  0  0  0  0  0  0  0
   27.1549  -21.1911  -12.1100 N   0  0  0  0  0  0  0  0  0  0  0  0
   27.6241  -21.4111  -14.4410 C   0  0  0  0  0  0  0  0  0  0  0  0
   27.2343  -22.6039  -14.4108 O   0  0  0  0  0  0  0  0  0  0  0  0
   32.4528  -24.5101  -10.3988 N   0  0  0  0  0  0  0  0  0  0  0  0
   27.6561  -20.7312  -15.6703 C   0  0  1  0  0  0  0  0  0  0  0  0
   26.4685  -20.1478  -16.3203 C   0  0  0  0  0  0  0  0  0  0  0  0
   25.6312  -19.4216  -15.3388 C   0  0  0  0  0  0  0  0  0  0  0  0
   24.4599  -18.7990  -15.9645 C   0  0  0  0  0  0  0  0  0  0  0  0
   23.3889  -19.4852  -16.5427 N   0  0  0  0  0  0  0  0  0  0  0  0
   22.5039  -18.6089  -17.0662 C   0  0  0  0  0  0  0  0  0  0  0  0
   22.9617  -17.3556  -16.8485 C   0  0  0  0  0  0  0  0  0  0  0  0
   22.4589  -16.1128  -17.1493 C   0  0  0  0  0  0  0  0  0  0  0  0
   23.1226  -14.9477  -16.7915 C   0  0  0  0  0  0  0  0  0  0  0  0
   24.3222  -15.0496  -16.1139 C   0  0  0  0  0  0  0  0  0  0  0  0
   24.8177  -16.2956  -15.8180 C   0  0  0  0  0  0  0  0  0  0  0  0
   24.1564  -17.4693  -16.1753 C   0  0  0  0  0  0  0  0  0  0  0  0
   26.9098  -19.4227  -17.5015 O   0  0  0  0  0  0  0  0  0  0  0  0
   26.1993  -19.3969  -18.5451 O   0  0  0  0  0  0  0  0  0  0  0  0
  2  1  1  1
  3  2  1  0
  4  3  1  0
  5  4  2  0
  6 17  1  0
  6  2  1  0
  7  6  2  0
  8  4  1  0
  9 10  1  0
 10 12  1  0
 10 11  2  0
 12 13  1  0
 13 14  1  0
 14 15  1  0
 16 17  1  0
 16 15  1  1
 18 16  1  0
 19 18  2  0
 20 18  1  0
 21 20  1  0
 22 23  1  0
 21 22  1  1
 23 24  2  0
 25 24  1  0
 26 25  1  0
 27 26  2  0
 28 27  1  0
 29 30  1  0
 29 28  2  0
 30 31  2  0
 31 26  1  0
 31 23  1  0
 32 21  1  0
 32 34  1  0
 33 32  2  0
M  END
$$$$
