DRW.pdb
     RDKit          3D

 34 35  0  0  1  0  0  0  0  0999 V2000
   30.6674  -27.7023  -21.1695 N   0  0  0  0  0  0  0  0  0  0  0  0
   29.9517  -27.1382  -20.0182 C   0  0  1  0  0  0  0  0  0  0  0  0
   29.8131  -25.6751  -20.2557 C   0  0  0  0  0  0  0  0  0  0  0  0
   31.0570  -24.9215  -20.1093 C   0  0  0  0  0  0  0  0  0  0  0  0
   32.1778  -25.3512  -19.8032 O   0  0  0  0  0  0  0  0  0  0  0  0
   28.6300  -27.8361  -19.8869 C   0  0  0  0  0  0  0  0  0  0  0  0
   27.9485  -28.1709  -20.8565 O   0  0  0  0  0  0  0  0  0  0  0  0
   30.9823  -23.5344  -20.3431 O   0  0  0  0  0  0  0  0  0  0  0  0
   30.7624  -31.8475  -16.5855 N   0  0  0  0  0  0  0  0  0  0  0  0
   30.0648  -33.0849  -16.6394 C   0  0  0  0  0  0  0  0  0  0  0  0
   30.6798  -34.1767  -16.9287 N   0  0  0  0  0  0  0  0  0  0  0  0
   28.6562  -33.0810  -16.3624 N   0  0  0  0  0  0  0  0  0  0  0  0
   28.0587  -31.7875  -16.0812 C   0  0  0  0  0  0  0  0  0  0  0  0
   27.8111  -31.0679  -17.3915 C   0  0  0  0  0  0  0  0  0  0  0  0
   27.1801  -29.7251  -17.0857 C   0  0  0  0  0  0  0  0  0  0  0  0
   26.9579  -28.9290  -18.3519 C   0  0  2  0  0  0  0  0  0  0  0  0
   28.1262  -28.1314  -18.5952 N   0  0  0  0  0  0  0  0  0  0  0  0
   25.7960  -28.0081  -18.0876 C   0  0  0  0  0  0  0  0  0  0  0  0
   25.7942  -27.3323  -17.0298 O   0  0  0  0  0  0  0  0  0  0  0  0
   30.1288  -35.0458  -17.0277 N   0  0  0  0  0  0  0  0  0  0  0  0
   24.7203  -27.8830  -18.9829 C   0  0  2  0  0  0  0  0  0  0  0  0
   23.5050  -27.0959  -18.7057 C   0  0  0  0  0  0  0  0  0  0  0  0
   22.6463  -27.0072  -19.9084 C   0  0  0  0  0  0  0  0  0  0  0  0
   21.4885  -26.1318  -19.6979 C   0  0  0  0  0  0  0  0  0  0  0  0
   21.5309  -24.7379  -19.6132 N   0  0  0  0  0  0  0  0  0  0  0  0
   20.2950  -24.2493  -19.3705 C   0  0  0  0  0  0  0  0  0  0  0  0
   19.4316  -25.2867  -19.2928 C   0  0  0  0  0  0  0  0  0  0  0  0
   18.0754  -25.3587  -19.0844 C   0  0  0  0  0  0  0  0  0  0  0  0
   17.3998  -26.5710  -19.0697 C   0  0  0  0  0  0  0  0  0  0  0  0
   18.1191  -27.7331  -19.2710 C   0  0  0  0  0  0  0  0  0  0  0  0
   19.4742  -27.6518  -19.4776 C   0  0  0  0  0  0  0  0  0  0  0  0
   20.1584  -26.4378  -19.4928 C   0  0  0  0  0  0  0  0  0  0  0  0
   22.9057  -27.6052  -17.4820 O   0  0  0  0  0  0  0  0  0  0  0  0
   22.3677  -26.8200  -16.6524 O   0  0  0  0  0  0  0  0  0  0  0  0
  2  1  1  6
  3  2  1  0
  4  3  1  0
  5  4  2  0
  6 17  1  0
  6  2  1  0
  7  6  2  0
  8  4  1  0
  9 10  1  0
 10 12  1  0
 10 11  2  0
 12 13  1  0
 13 14  1  0
 14 15  1  0
 16 17  1  0
 16 15  1  1
 18 16  1  0
 19 18  2  0
 20 18  1  0
 21 20  1  0
 22 23  1  0
 21 22  1  6
 23 24  2  0
 25 24  1  0
 26 25  1  0
 27 26  2  0
 28 27  1  0
 29 30  1  0
 29 28  2  0
 30 31  2  0
 31 26  1  0
 31 23  1  0
 32 21  1  0
 32 34  1  0
 33 32  2  0
M  END
$$$$
