DRW.pdb
     RDKit          3D

 34 35  0  0  1  0  0  0  0  0999 V2000
   31.3053  -22.0935  -19.0716 N   0  0  0  0  0  0  0  0  0  0  0  0
   30.3682  -20.9633  -19.0521 C   0  0  1  0  0  0  0  0  0  0  0  0
   30.7057  -20.0874  -20.2076 C   0  0  0  0  0  0  0  0  0  0  0  0
   32.0490  -19.5135  -20.1551 C   0  0  0  0  0  0  0  0  0  0  0  0
   32.9232  -19.6952  -19.2965 O   0  0  0  0  0  0  0  0  0  0  0  0
   28.9686  -21.5004  -19.1160 C   0  0  0  0  0  0  0  0  0  0  0  0
   27.9901  -20.7959  -19.3664 O   0  0  0  0  0  0  0  0  0  0  0  0
   32.4026  -18.6451  -21.2064 O   0  0  0  0  0  0  0  0  0  0  0  0
   28.7434  -28.7891  -18.2334 N   0  0  0  0  0  0  0  0  0  0  0  0
   28.3379  -28.1065  -17.0542 C   0  0  0  0  0  0  0  0  0  0  0  0
   28.9726  -28.2680  -15.9474 N   0  0  0  0  0  0  0  0  0  0  0  0
   27.2014  -27.2332  -17.1340 N   0  0  0  0  0  0  0  0  0  0  0  0
   26.5297  -27.1660  -18.4200 C   0  0  0  0  0  0  0  0  0  0  0  0
   26.3001  -25.7113  -18.7764 C   0  0  0  0  0  0  0  0  0  0  0  0
   27.6279  -24.9862  -18.6970 C   0  0  0  0  0  0  0  0  0  0  0  0
   27.4516  -23.5037  -18.9371 C   0  0  2  0  0  0  0  0  0  0  0  0
   28.7430  -22.8798  -18.8794 N   0  0  0  0  0  0  0  0  0  0  0  0
   26.6141  -22.9765  -17.8019 C   0  0  0  0  0  0  0  0  0  0  0  0
   27.0384  -23.1141  -16.6286 O   0  0  0  0  0  0  0  0  0  0  0  0
   28.5994  -27.8241  -15.0917 N   0  0  0  0  0  0  0  0  0  0  0  0
   25.3797  -22.3396  -18.0143 C   0  0  2  0  0  0  0  0  0  0  0  0
   24.6038  -21.6720  -16.9534 C   0  0  0  0  0  0  0  0  0  0  0  0
   24.4107  -20.2371  -17.2624 C   0  0  0  0  0  0  0  0  0  0  0  0
   23.4287  -20.0289  -18.3317 C   0  0  0  0  0  0  0  0  0  0  0  0
   22.0449  -20.1697  -18.2002 N   0  0  0  0  0  0  0  0  0  0  0  0
   21.4404  -19.9493  -19.3881 C   0  0  0  0  0  0  0  0  0  0  0  0
   22.3909  -19.6644  -20.3063 C   0  0  0  0  0  0  0  0  0  0  0  0
   22.3332  -19.3486  -21.6423 C   0  0  0  0  0  0  0  0  0  0  0  0
   23.4757  -19.0697  -22.3792 C   0  0  0  0  0  0  0  0  0  0  0  0
   24.7014  -19.1130  -21.7436 C   0  0  0  0  0  0  0  0  0  0  0  0
   24.7499  -19.4303  -20.4084 C   0  0  0  0  0  0  0  0  0  0  0  0
   23.6064  -19.7121  -19.6632 C   0  0  0  0  0  0  0  0  0  0  0  0
   23.4189  -22.4728  -16.6878 O   0  0  0  0  0  0  0  0  0  0  0  0
   23.0569  -23.3755  -17.4931 O   0  0  0  0  0  0  0  0  0  0  0  0
  2  1  1  6
  3  2  1  0
  4  3  1  0
  5  4  2  0
  6 17  1  0
  6  2  1  0
  7  6  2  0
  8  4  1  0
  9 10  1  0
 10 12  1  0
 10 11  2  0
 12 13  1  0
 13 14  1  0
 14 15  1  0
 16 17  1  0
 16 15  1  1
 18 16  1  0
 19 18  2  0
 20 18  1  0
 21 20  1  0
 22 23  1  0
 21 22  1  6
 23 24  2  0
 25 24  1  0
 26 25  1  0
 27 26  2  0
 28 27  1  0
 29 30  1  0
 29 28  2  0
 30 31  2  0
 31 26  1  0
 31 23  1  0
 32 21  1  0
 32 34  1  0
 33 32  2  0
M  END
$$$$
