DPF.pdb
     RDKit          3D

 27 28  0  0  1  0  0  0  0  0999 V2000
   23.4339  -22.1519  -14.3351 N   0  0  0  0  0  0  0  0  0  0  0  0
   24.1430  -20.9776  -13.8072 C   0  0  1  0  0  0  0  0  0  0  0  0
   23.0181  -20.0442  -13.2979 C   0  0  0  0  0  0  0  0  0  0  0  0
   22.4218  -19.4395  -14.5053 C   0  0  0  0  0  0  0  0  0  0  0  0
   23.1462  -19.1557  -15.4833 O   0  0  0  0  0  0  0  0  0  0  0  0
   25.0334  -21.3856  -12.7221 C   0  0  0  0  0  0  0  0  0  0  0  0
   24.5478  -22.1348  -11.8149 O   0  0  0  0  0  0  0  0  0  0  0  0
   21.0672  -19.1928  -14.5465 O   0  0  0  0  0  0  0  0  0  0  0  0
   26.3798  -20.9609  -12.6901 N   0  0  0  0  0  0  0  0  0  0  0  0
   27.1179  -20.3959  -13.7917 C   0  0  0  0  0  0  0  0  0  0  0  0
   27.9120  -19.3005  -13.0583 C   0  0  0  0  0  0  0  0  0  0  0  0
   28.5084  -20.1728  -11.9582 C   0  0  0  0  0  0  0  0  0  0  0  0
   27.2771  -21.0070  -11.5766 C   0  0  1  0  0  0  0  0  0  0  0  0
   26.6722  -20.4483  -10.3169 C   0  0  0  0  0  0  0  0  0  0  0  0
   25.8423  -19.5042  -10.3316 O   0  0  0  0  0  0  0  0  0  0  0  0
   27.0273  -20.9796   -9.0625 N   0  0  0  0  0  0  0  0  0  0  0  0
   26.4249  -20.4652   -7.8121 C   0  0  1  0  0  0  0  0  0  0  0  0
   26.7892  -21.3758   -6.6620 C   0  0  0  0  0  0  0  0  0  0  0  0
   27.8473  -20.7537   -5.8512 C   0  0  0  0  0  0  0  0  0  0  0  0
   29.1669  -21.0539   -6.1748 C   0  0  0  0  0  0  0  0  0  0  0  0
   30.2047  -20.5026   -5.4869 C   0  0  0  0  0  0  0  0  0  0  0  0
   29.9911  -19.6178   -4.4335 C   0  0  0  0  0  0  0  0  0  0  0  0
   28.6914  -19.3118   -4.1026 C   0  0  0  0  0  0  0  0  0  0  0  0
   27.6428  -19.8780   -4.8099 C   0  0  0  0  0  0  0  0  0  0  0  0
   26.9918  -19.1357   -7.5878 C   0  0  0  0  0  0  0  0  0  0  0  0
   28.1013  -18.8001   -8.0630 O   0  0  0  0  0  0  0  0  0  0  0  0
   26.3118  -18.2006   -6.8360 O   0  0  0  0  0  0  0  0  0  0  0  0
  2  1  1  1
  2  3  1  0
  4  5  2  0
  4  3  1  0
  6  2  1  0
  6  7  2  0
  8  4  1  0
  9  6  1  0
 10  9  1  0
 11 10  1  0
 12 13  1  0
 12 11  1  0
 13  9  1  0
 13 14  1  1
 15 14  2  0
 16 14  1  0
 17 25  1  0
 17 16  1  0
 17 18  1  1
 19 18  1  0
 20 19  2  0
 21 20  1  0
 22 23  1  0
 22 21  2  0
 23 24  2  0
 24 19  1  0
 25 27  1  0
 26 25  2  0
M  END
$$$$
