DPF.pdb
     RDKit          3D

 27 28  0  0  1  0  0  0  0  0999 V2000
   26.7071  -20.1868  -15.5340 N   0  0  0  0  0  0  0  0  0  0  0  0
   25.5514  -20.3013  -14.6330 C   0  0  1  0  0  0  0  0  0  0  0  0
   24.5209  -21.1362  -15.4311 C   0  0  0  0  0  0  0  0  0  0  0  0
   23.9772  -20.2261  -16.4584 C   0  0  0  0  0  0  0  0  0  0  0  0
   23.1932  -19.3106  -16.1284 O   0  0  0  0  0  0  0  0  0  0  0  0
   25.9515  -20.9788  -13.4011 C   0  0  0  0  0  0  0  0  0  0  0  0
   25.0270  -21.4488  -12.6631 O   0  0  0  0  0  0  0  0  0  0  0  0
   24.3399  -20.3916  -17.7769 O   0  0  0  0  0  0  0  0  0  0  0  0
   27.3140  -21.1035  -13.0514 N   0  0  0  0  0  0  0  0  0  0  0  0
   28.4390  -20.7773  -13.8913 C   0  0  0  0  0  0  0  0  0  0  0  0
   29.3763  -20.1291  -12.8570 C   0  0  0  0  0  0  0  0  0  0  0  0
   29.3511  -21.2472  -11.8195 C   0  0  0  0  0  0  0  0  0  0  0  0
   27.8513  -21.5764  -11.8125 C   0  0  1  0  0  0  0  0  0  0  0  0
   27.2089  -20.9309  -10.6143 C   0  0  0  0  0  0  0  0  0  0  0  0
   26.8015  -19.7418  -10.6296 O   0  0  0  0  0  0  0  0  0  0  0  0
   27.0436  -21.6575   -9.4198 N   0  0  0  0  0  0  0  0  0  0  0  0
   26.4029  -21.0481   -8.2327 C   0  0  1  0  0  0  0  0  0  0  0  0
   26.9236  -19.6420   -8.0415 C   0  0  0  0  0  0  0  0  0  0  0  0
   27.6945  -19.5631   -6.7911 C   0  0  0  0  0  0  0  0  0  0  0  0
   28.0347  -20.7598   -6.1678 C   0  0  0  0  0  0  0  0  0  0  0  0
   28.7653  -20.7738   -5.0189 C   0  0  0  0  0  0  0  0  0  0  0  0
   29.2017  -19.5953   -4.4197 C   0  0  0  0  0  0  0  0  0  0  0  0
   28.8727  -18.4046   -5.0251 C   0  0  0  0  0  0  0  0  0  0  0  0
   28.1295  -18.4021   -6.1947 C   0  0  0  0  0  0  0  0  0  0  0  0
   24.9660  -21.0098   -8.5031 C   0  0  0  0  0  0  0  0  0  0  0  0
   24.1222  -20.8912   -7.5847 O   0  0  0  0  0  0  0  0  0  0  0  0
   24.4923  -21.1047   -9.7949 O   0  0  0  0  0  0  0  0  0  0  0  0
  2  1  1  6
  2  3  1  0
  4  5  2  0
  4  3  1  0
  6  2  1  0
  6  7  2  0
  8  4  1  0
  9  6  1  0
 10  9  1  0
 11 10  1  0
 12 13  1  0
 12 11  1  0
 13  9  1  0
 13 14  1  1
 15 14  2  0
 16 14  1  0
 17 25  1  0
 17 16  1  0
 17 18  1  6
 19 18  1  0
 20 19  2  0
 21 20  1  0
 22 23  1  0
 22 21  2  0
 23 24  2  0
 24 19  1  0
 25 27  1  0
 26 25  2  0
M  END
$$$$
