DPF.pdb
     RDKit          3D

 27 28  0  0  1  0  0  0  0  0999 V2000
   22.8200  -21.7985  -13.6057 N   0  0  0  0  0  0  0  0  0  0  0  0
   23.6444  -20.6779  -13.1313 C   0  0  1  0  0  0  0  0  0  0  0  0
   22.6216  -19.6402  -12.6089 C   0  0  0  0  0  0  0  0  0  0  0  0
   21.9906  -19.0595  -13.8105 C   0  0  0  0  0  0  0  0  0  0  0  0
   22.6686  -18.8764  -14.8442 O   0  0  0  0  0  0  0  0  0  0  0  0
   24.5344  -21.1364  -12.0663 C   0  0  0  0  0  0  0  0  0  0  0  0
   23.9962  -21.6297  -11.0236 O   0  0  0  0  0  0  0  0  0  0  0  0
   20.6548  -18.7238  -13.7847 O   0  0  0  0  0  0  0  0  0  0  0  0
   25.9367  -21.0332  -12.1980 N   0  0  0  0  0  0  0  0  0  0  0  0
   26.6512  -20.6505  -13.3899 C   0  0  0  0  0  0  0  0  0  0  0  0
   27.7548  -19.7692  -12.7785 C   0  0  0  0  0  0  0  0  0  0  0  0
   28.2595  -20.7583  -11.7325 C   0  0  0  0  0  0  0  0  0  0  0  0
   26.9228  -21.2876  -11.1932 C   0  0  1  0  0  0  0  0  0  0  0  0
   26.6127  -20.6079   -9.8867 C   0  0  0  0  0  0  0  0  0  0  0  0
   26.1131  -19.4558   -9.8309 O   0  0  0  0  0  0  0  0  0  0  0  0
   26.8795  -21.2585   -8.6671 N   0  0  0  0  0  0  0  0  0  0  0  0
   26.9107  -20.5120   -7.3892 C   0  0  1  0  0  0  0  0  0  0  0  0
   27.5317  -21.3737   -6.3139 C   0  0  0  0  0  0  0  0  0  0  0  0
   27.9723  -20.5293   -5.1928 C   0  0  0  0  0  0  0  0  0  0  0  0
   29.2919  -20.0878   -5.1991 C   0  0  0  0  0  0  0  0  0  0  0  0
   29.7718  -19.2852   -4.2094 C   0  0  0  0  0  0  0  0  0  0  0  0
   28.9658  -18.8731   -3.1516 C   0  0  0  0  0  0  0  0  0  0  0  0
   27.6588  -19.3020   -3.1326 C   0  0  0  0  0  0  0  0  0  0  0  0
   27.1806  -20.1180   -4.1455 C   0  0  0  0  0  0  0  0  0  0  0  0
   27.7401  -19.3283   -7.6135 C   0  0  0  0  0  0  0  0  0  0  0  0
   28.8130  -19.3838   -8.2580 O   0  0  0  0  0  0  0  0  0  0  0  0
   27.3596  -18.1001   -7.1148 O   0  0  0  0  0  0  0  0  0  0  0  0
  2  1  1  1
  2  3  1  0
  4  5  2  0
  4  3  1  0
  6  2  1  0
  6  7  2  0
  8  4  1  0
  9  6  1  0
 10  9  1  0
 11 10  1  0
 12 13  1  0
 12 11  1  0
 13  9  1  0
 13 14  1  1
 15 14  2  0
 16 14  1  0
 17 25  1  0
 17 16  1  0
 17 18  1  1
 19 18  1  0
 20 19  2  0
 21 20  1  0
 22 23  1  0
 22 21  2  0
 23 24  2  0
 24 19  1  0
 25 27  1  0
 26 25  2  0
M  END
$$$$
