DPF.pdb
     RDKit          3D

 27 28  0  0  1  0  0  0  0  0999 V2000
   28.8574  -21.9516  -16.4039 N   0  0  0  0  0  0  0  0  0  0  0  0
   28.0593  -20.8370  -16.9343 C   0  0  1  0  0  0  0  0  0  0  0  0
   27.2835  -21.4501  -18.1251 C   0  0  0  0  0  0  0  0  0  0  0  0
   28.1695  -21.3069  -19.2971 C   0  0  0  0  0  0  0  0  0  0  0  0
   28.7299  -20.2135  -19.5253 O   0  0  0  0  0  0  0  0  0  0  0  0
   27.1518  -20.3440  -15.9000 C   0  0  0  0  0  0  0  0  0  0  0  0
   26.4968  -21.2083  -15.2336 O   0  0  0  0  0  0  0  0  0  0  0  0
   28.3744  -22.3828  -20.1327 O   0  0  0  0  0  0  0  0  0  0  0  0
   27.0139  -18.9600  -15.6554 N   0  0  0  0  0  0  0  0  0  0  0  0
   27.8446  -17.9152  -16.1994 C   0  0  0  0  0  0  0  0  0  0  0  0
   26.7808  -16.8433  -16.4953 C   0  0  0  0  0  0  0  0  0  0  0  0
   26.1225  -16.8139  -15.1195 C   0  0  0  0  0  0  0  0  0  0  0  0
   26.0397  -18.3189  -14.8267 C   0  0  1  0  0  0  0  0  0  0  0  0
   24.6388  -18.7987  -15.0959 C   0  0  0  0  0  0  0  0  0  0  0  0
   24.2417  -19.0987  -16.2502 O   0  0  0  0  0  0  0  0  0  0  0  0
   23.7171  -18.9271  -14.0396 N   0  0  0  0  0  0  0  0  0  0  0  0
   22.3832  -19.5321  -14.2536 C   0  0  1  0  0  0  0  0  0  0  0  0
   22.0732  -20.4879  -13.1244 C   0  0  0  0  0  0  0  0  0  0  0  0
   23.1150  -21.5238  -13.0498 C   0  0  0  0  0  0  0  0  0  0  0  0
   24.1343  -21.3460  -12.1194 C   0  0  0  0  0  0  0  0  0  0  0  0
   25.1244  -22.2692  -11.9728 C   0  0  0  0  0  0  0  0  0  0  0  0
   25.1598  -23.4271  -12.7451 C   0  0  0  0  0  0  0  0  0  0  0  0
   24.1583  -23.6160  -13.6690 C   0  0  0  0  0  0  0  0  0  0  0  0
   23.1550  -22.6703  -13.8092 C   0  0  0  0  0  0  0  0  0  0  0  0
   21.4174  -18.4337  -14.2497 C   0  0  0  0  0  0  0  0  0  0  0  0
   21.7330  -17.2756  -13.8910 O   0  0  0  0  0  0  0  0  0  0  0  0
   20.1133  -18.6445  -14.6461 O   0  0  0  0  0  0  0  0  0  0  0  0
  2  1  1  1
  2  3  1  0
  4  5  2  0
  4  3  1  0
  6  2  1  0
  6  7  2  0
  8  4  1  0
  9  6  1  0
 10  9  1  0
 11 10  1  0
 12 13  1  0
 12 11  1  0
 13  9  1  0
 13 14  1  6
 15 14  2  0
 16 14  1  0
 17 25  1  0
 17 16  1  0
 17 18  1  1
 19 18  1  0
 20 19  2  0
 21 20  1  0
 22 23  1  0
 22 21  2  0
 23 24  2  0
 24 19  1  0
 25 27  1  0
 26 25  2  0
M  END
$$$$
