DPF.pdb
     RDKit          3D

 27 28  0  0  1  0  0  0  0  0999 V2000
   26.0173  -20.4349  -16.1780 N   0  0  0  0  0  0  0  0  0  0  0  0
   26.6074  -19.5991  -15.1227 C   0  0  1  0  0  0  0  0  0  0  0  0
   25.7979  -18.2809  -15.1763 C   0  0  0  0  0  0  0  0  0  0  0  0
   26.7948  -17.2049  -15.3426 C   0  0  0  0  0  0  0  0  0  0  0  0
   27.9835  -17.4908  -15.6017 O   0  0  0  0  0  0  0  0  0  0  0  0
   26.4640  -20.2640  -13.8289 C   0  0  0  0  0  0  0  0  0  0  0  0
   25.3052  -20.2793  -13.3022 O   0  0  0  0  0  0  0  0  0  0  0  0
   26.4068  -15.8896  -15.2125 O   0  0  0  0  0  0  0  0  0  0  0  0
   27.5738  -20.8647  -13.1949 N   0  0  0  0  0  0  0  0  0  0  0  0
   28.8627  -21.1086  -13.7921 C   0  0  0  0  0  0  0  0  0  0  0  0
   29.7846  -20.7536  -12.6120 C   0  0  0  0  0  0  0  0  0  0  0  0
   29.1257  -21.6360  -11.5565 C   0  0  0  0  0  0  0  0  0  0  0  0
   27.6458  -21.3521  -11.8517 C   0  0  1  0  0  0  0  0  0  0  0  0
   27.1212  -20.3647  -10.8443 C   0  0  0  0  0  0  0  0  0  0  0  0
   27.8827  -19.6789  -10.1164 O   0  0  0  0  0  0  0  0  0  0  0  0
   25.7344  -20.1792  -10.6877 N   0  0  0  0  0  0  0  0  0  0  0  0
   24.9053  -21.1649   -9.9583 C   0  0  1  0  0  0  0  0  0  0  0  0
   24.6894  -20.6937   -8.5385 C   0  0  0  0  0  0  0  0  0  0  0  0
   25.9852  -20.3833   -7.9152 C   0  0  0  0  0  0  0  0  0  0  0  0
   26.4566  -19.0787   -8.0255 C   0  0  0  0  0  0  0  0  0  0  0  0
   27.6367  -18.7049   -7.4582 C   0  0  0  0  0  0  0  0  0  0  0  0
   28.4203  -19.6088   -6.7460 C   0  0  0  0  0  0  0  0  0  0  0  0
   27.9664  -20.9021   -6.6288 C   0  0  0  0  0  0  0  0  0  0  0  0
   26.7635  -21.2715   -7.2094 C   0  0  0  0  0  0  0  0  0  0  0  0
   23.6218  -21.2336  -10.6562 C   0  0  0  0  0  0  0  0  0  0  0  0
   22.6957  -21.9824  -10.2674 O   0  0  0  0  0  0  0  0  0  0  0  0
   23.3910  -20.4654  -11.7781 O   0  0  0  0  0  0  0  0  0  0  0  0
  2  1  1  6
  2  3  1  0
  4  5  2  0
  4  3  1  0
  6  2  1  0
  6  7  2  0
  8  4  1  0
  9  6  1  0
 10  9  1  0
 11 10  1  0
 12 13  1  0
 12 11  1  0
 13  9  1  0
 13 14  1  1
 15 14  2  0
 16 14  1  0
 17 25  1  0
 17 16  1  0
 17 18  1  1
 19 18  1  0
 20 19  2  0
 21 20  1  0
 22 23  1  0
 22 21  2  0
 23 24  2  0
 24 19  1  0
 25 27  1  0
 26 25  2  0
M  END
$$$$
