DPF.pdb
     RDKit          3D

 27 28  0  0  1  0  0  0  0  0999 V2000
   26.4773  -18.4846  -17.1045 N   0  0  0  0  0  0  0  0  0  0  0  0
   25.7251  -19.6233  -16.5587 C   0  0  1  0  0  0  0  0  0  0  0  0
   26.6782  -20.8314  -16.7262 C   0  0  0  0  0  0  0  0  0  0  0  0
   26.4288  -21.3532  -18.0844 C   0  0  0  0  0  0  0  0  0  0  0  0
   25.2814  -21.2905  -18.5756 O   0  0  0  0  0  0  0  0  0  0  0  0
   25.4116  -19.3789  -15.1521 C   0  0  0  0  0  0  0  0  0  0  0  0
   26.3733  -19.0523  -14.3848 O   0  0  0  0  0  0  0  0  0  0  0  0
   27.4655  -21.9059  -18.8037 O   0  0  0  0  0  0  0  0  0  0  0  0
   24.0894  -19.5016  -14.6715 N   0  0  0  0  0  0  0  0  0  0  0  0
   22.8981  -19.5905  -15.4781 C   0  0  0  0  0  0  0  0  0  0  0  0
   22.1061  -20.6447  -14.6847 C   0  0  0  0  0  0  0  0  0  0  0  0
   22.1894  -19.9828  -13.3128 C   0  0  0  0  0  0  0  0  0  0  0  0
   23.6648  -19.5575  -13.3064 C   0  0  1  0  0  0  0  0  0  0  0  0
   24.4591  -20.5400  -12.4886 C   0  0  0  0  0  0  0  0  0  0  0  0
   24.6443  -21.7271  -12.8584 O   0  0  0  0  0  0  0  0  0  0  0  0
   25.0278  -20.1469  -11.2622 N   0  0  0  0  0  0  0  0  0  0  0  0
   25.7306  -21.1190  -10.3949 C   0  0  1  0  0  0  0  0  0  0  0  0
   27.1713  -20.6956  -10.2228 C   0  0  0  0  0  0  0  0  0  0  0  0
   27.3844  -20.2030   -8.8531 C   0  0  0  0  0  0  0  0  0  0  0  0
   26.8512  -18.9601   -8.5256 C   0  0  0  0  0  0  0  0  0  0  0  0
   26.9858  -18.4427   -7.2733 C   0  0  0  0  0  0  0  0  0  0  0  0
   27.6606  -19.1323   -6.2697 C   0  0  0  0  0  0  0  0  0  0  0  0
   28.1928  -20.3625   -6.5793 C   0  0  0  0  0  0  0  0  0  0  0  0
   28.0492  -20.8800   -7.8568 C   0  0  0  0  0  0  0  0  0  0  0  0
   25.0511  -21.0957   -9.1000 C   0  0  0  0  0  0  0  0  0  0  0  0
   24.2322  -20.1970   -8.7979 O   0  0  0  0  0  0  0  0  0  0  0  0
   25.2959  -22.0759   -8.1612 O   0  0  0  0  0  0  0  0  0  0  0  0
  2  1  1  1
  2  3  1  0
  4  5  2  0
  4  3  1  0
  6  2  1  0
  6  7  2  0
  8  4  1  0
  9  6  1  0
 10  9  1  0
 11 10  1  0
 12 13  1  0
 12 11  1  0
 13  9  1  0
 13 14  1  1
 15 14  2  0
 16 14  1  0
 17 25  1  0
 17 16  1  0
 17 18  1  1
 19 18  1  0
 20 19  2  0
 21 20  1  0
 22 23  1  0
 22 21  2  0
 23 24  2  0
 24 19  1  0
 25 27  1  0
 26 25  2  0
M  END
$$$$
