DPF.pdb
     RDKit          3D

 27 28  0  0  1  0  0  0  0  0999 V2000
   27.2580  -20.4118  -15.5211 N   0  0  0  0  0  0  0  0  0  0  0  0
   27.4189  -19.1604  -14.7671 C   0  0  1  0  0  0  0  0  0  0  0  0
   26.7702  -18.0811  -15.6673 C   0  0  0  0  0  0  0  0  0  0  0  0
   26.8030  -16.8316  -14.8820 C   0  0  0  0  0  0  0  0  0  0  0  0
   27.8965  -16.3671  -14.4944 O   0  0  0  0  0  0  0  0  0  0  0  0
   26.7335  -19.2680  -13.4805 C   0  0  0  0  0  0  0  0  0  0  0  0
   26.8654  -18.3015  -12.6628 O   0  0  0  0  0  0  0  0  0  0  0  0
   25.6250  -16.1834  -14.5821 O   0  0  0  0  0  0  0  0  0  0  0  0
   25.9559  -20.4040  -13.1655 N   0  0  0  0  0  0  0  0  0  0  0  0
   25.5886  -21.4598  -14.0754 C   0  0  0  0  0  0  0  0  0  0  0  0
   25.7454  -22.6834  -13.1554 C   0  0  0  0  0  0  0  0  0  0  0  0
   24.8878  -22.1868  -11.9957 C   0  0  0  0  0  0  0  0  0  0  0  0
   25.3772  -20.7345  -11.8995 C   0  0  1  0  0  0  0  0  0  0  0  0
   26.3561  -20.6167  -10.7625 C   0  0  0  0  0  0  0  0  0  0  0  0
   27.5534  -20.9854  -10.8660 O   0  0  0  0  0  0  0  0  0  0  0  0
   25.9479  -20.0791   -9.5270 N   0  0  0  0  0  0  0  0  0  0  0  0
   26.7110  -20.3406   -8.2859 C   0  0  1  0  0  0  0  0  0  0  0  0
   27.4443  -19.0867   -7.8682 C   0  0  0  0  0  0  0  0  0  0  0  0
   28.0073  -19.2655   -6.5209 C   0  0  0  0  0  0  0  0  0  0  0  0
   29.0954  -20.1223   -6.3864 C   0  0  0  0  0  0  0  0  0  0  0  0
   29.6879  -20.3255   -5.1773 C   0  0  0  0  0  0  0  0  0  0  0  0
   29.2320  -19.6872   -4.0271 C   0  0  0  0  0  0  0  0  0  0  0  0
   28.1569  -18.8371   -4.1454 C   0  0  0  0  0  0  0  0  0  0  0  0
   27.5620  -18.6370   -5.3809 C   0  0  0  0  0  0  0  0  0  0  0  0
   25.7342  -20.7061   -7.2605 C   0  0  0  0  0  0  0  0  0  0  0  0
   24.5311  -20.3662   -7.3408 O   0  0  0  0  0  0  0  0  0  0  0  0
   26.1151  -21.4454   -6.1603 O   0  0  0  0  0  0  0  0  0  0  0  0
  2  1  1  6
  2  3  1  0
  4  5  2  0
  4  3  1  0
  6  2  1  0
  6  7  2  0
  8  4  1  0
  9  6  1  0
 10  9  1  0
 11 10  1  0
 12 13  1  0
 12 11  1  0
 13  9  1  0
 13 14  1  1
 15 14  2  0
 16 14  1  0
 17 25  1  0
 17 16  1  0
 17 18  1  1
 19 18  1  0
 20 19  2  0
 21 20  1  0
 22 23  1  0
 22 21  2  0
 23 24  2  0
 24 19  1  0
 25 27  1  0
 26 25  2  0
M  END
$$$$
