DPF.pdb
     RDKit          3D

 27 28  0  0  1  0  0  0  0  0999 V2000
   23.0017  -21.8317  -15.0658 N   0  0  0  0  0  0  0  0  0  0  0  0
   23.6797  -20.6772  -14.4594 C   0  0  1  0  0  0  0  0  0  0  0  0
   22.5453  -19.8820  -13.7691 C   0  0  0  0  0  0  0  0  0  0  0  0
   22.1293  -18.8517  -14.7409 C   0  0  0  0  0  0  0  0  0  0  0  0
   21.7269  -17.7396  -14.3370 O   0  0  0  0  0  0  0  0  0  0  0  0
   24.6741  -21.1405  -13.4935 C   0  0  0  0  0  0  0  0  0  0  0  0
   24.3171  -22.0446  -12.6716 O   0  0  0  0  0  0  0  0  0  0  0  0
   22.1889  -19.1231  -16.0902 O   0  0  0  0  0  0  0  0  0  0  0  0
   25.9792  -20.6010  -13.4803 N   0  0  0  0  0  0  0  0  0  0  0  0
   26.5604  -19.7608  -14.4970 C   0  0  0  0  0  0  0  0  0  0  0  0
   27.3312  -18.7590  -13.6192 C   0  0  0  0  0  0  0  0  0  0  0  0
   28.0985  -19.7684  -12.7710 C   0  0  0  0  0  0  0  0  0  0  0  0
   26.9802  -20.7777  -12.4735 C   0  0  1  0  0  0  0  0  0  0  0  0
   26.4566  -20.5398  -11.0827 C   0  0  0  0  0  0  0  0  0  0  0  0
   25.5733  -19.6803  -10.8354 O   0  0  0  0  0  0  0  0  0  0  0  0
   26.9526  -21.2898   -9.9994 N   0  0  0  0  0  0  0  0  0  0  0  0
   26.5426  -20.9933   -8.6084 C   0  0  1  0  0  0  0  0  0  0  0  0
   27.4726  -21.6951   -7.6454 C   0  0  0  0  0  0  0  0  0  0  0  0
   27.7204  -20.8353   -6.4777 C   0  0  0  0  0  0  0  0  0  0  0  0
   28.9993  -20.3086   -6.3258 C   0  0  0  0  0  0  0  0  0  0  0  0
   29.3044  -19.4867   -5.2840 C   0  0  0  0  0  0  0  0  0  0  0  0
   28.3532  -19.1390   -4.3287 C   0  0  0  0  0  0  0  0  0  0  0  0
   27.0844  -19.6524   -4.4664 C   0  0  0  0  0  0  0  0  0  0  0  0
   26.7846  -20.4873   -5.5311 C   0  0  0  0  0  0  0  0  0  0  0  0
   26.6549  -19.5452   -8.4362 C   0  0  0  0  0  0  0  0  0  0  0  0
   27.6306  -18.8988   -8.8830 O   0  0  0  0  0  0  0  0  0  0  0  0
   25.6762  -18.8400   -7.7676 O   0  0  0  0  0  0  0  0  0  0  0  0
  2  1  1  1
  2  3  1  0
  4  5  2  0
  4  3  1  0
  6  2  1  0
  6  7  2  0
  8  4  1  0
  9  6  1  0
 10  9  1  0
 11 10  1  0
 12 13  1  0
 12 11  1  0
 13  9  1  0
 13 14  1  1
 15 14  2  0
 16 14  1  0
 17 25  1  0
 17 16  1  0
 17 18  1  1
 19 18  1  0
 20 19  2  0
 21 20  1  0
 22 23  1  0
 22 21  2  0
 23 24  2  0
 24 19  1  0
 25 27  1  0
 26 25  2  0
M  END
$$$$
