DPF.pdb
     RDKit          3D

 27 28  0  0  1  0  0  0  0  0999 V2000
   22.5036  -21.1207  -13.9466 N   0  0  0  0  0  0  0  0  0  0  0  0
   23.7415  -20.3601  -13.7237 C   0  0  1  0  0  0  0  0  0  0  0  0
   23.2685  -18.8975  -13.5421 C   0  0  0  0  0  0  0  0  0  0  0  0
   23.1784  -18.3335  -14.9033 C   0  0  0  0  0  0  0  0  0  0  0  0
   24.1960  -18.2861  -15.6272 O   0  0  0  0  0  0  0  0  0  0  0  0
   24.4173  -20.8575  -12.5268 C   0  0  0  0  0  0  0  0  0  0  0  0
   23.7211  -20.9812  -11.4685 O   0  0  0  0  0  0  0  0  0  0  0  0
   21.9700  -17.8634  -15.3682 O   0  0  0  0  0  0  0  0  0  0  0  0
   25.7904  -21.1868  -12.5530 N   0  0  0  0  0  0  0  0  0  0  0  0
   26.6181  -21.2813  -13.7292 C   0  0  0  0  0  0  0  0  0  0  0  0
   27.9161  -20.6421  -13.2047 C   0  0  0  0  0  0  0  0  0  0  0  0
   28.0770  -21.4918  -11.9481 C   0  0  0  0  0  0  0  0  0  0  0  0
   26.6295  -21.4945  -11.4358 C   0  0  1  0  0  0  0  0  0  0  0  0
   26.4992  -20.4968  -10.3166 C   0  0  0  0  0  0  0  0  0  0  0  0
   26.3849  -19.2627  -10.5267 O   0  0  0  0  0  0  0  0  0  0  0  0
   26.5016  -20.9286   -8.9766 N   0  0  0  0  0  0  0  0  0  0  0  0
   27.2423  -20.1864   -7.9319 C   0  0  1  0  0  0  0  0  0  0  0  0
   26.6006  -20.4307   -6.5853 C   0  0  0  0  0  0  0  0  0  0  0  0
   27.4238  -19.8282   -5.5256 C   0  0  0  0  0  0  0  0  0  0  0  0
   28.0076  -20.6855   -4.5979 C   0  0  0  0  0  0  0  0  0  0  0  0
   28.8011  -20.2092   -3.5992 C   0  0  0  0  0  0  0  0  0  0  0  0
   29.0617  -18.8484   -3.4631 C   0  0  0  0  0  0  0  0  0  0  0  0
   28.4912  -17.9891   -4.3733 C   0  0  0  0  0  0  0  0  0  0  0  0
   27.6859  -18.4847   -5.3864 C   0  0  0  0  0  0  0  0  0  0  0  0
   28.6075  -20.7113   -7.9306 C   0  0  0  0  0  0  0  0  0  0  0  0
   28.8528  -21.9191   -8.1552 O   0  0  0  0  0  0  0  0  0  0  0  0
   29.6787  -19.8800   -7.6783 O   0  0  0  0  0  0  0  0  0  0  0  0
  2  1  1  1
  2  3  1  0
  4  5  2  0
  4  3  1  0
  6  2  1  0
  6  7  2  0
  8  4  1  0
  9  6  1  0
 10  9  1  0
 11 10  1  0
 12 13  1  0
 12 11  1  0
 13  9  1  0
 13 14  1  1
 15 14  2  0
 16 14  1  0
 17 25  1  0
 17 16  1  0
 17 18  1  1
 19 18  1  0
 20 19  2  0
 21 20  1  0
 22 23  1  0
 22 21  2  0
 23 24  2  0
 24 19  1  0
 25 27  1  0
 26 25  2  0
M  END
$$$$
