DPF.pdb
     RDKit          3D

 27 28  0  0  1  0  0  0  0  0999 V2000
   22.5062  -21.3807  -14.0153 N   0  0  0  0  0  0  0  0  0  0  0  0
   23.2772  -20.2595  -13.4594 C   0  0  1  0  0  0  0  0  0  0  0  0
   22.2070  -19.3114  -12.8666 C   0  0  0  0  0  0  0  0  0  0  0  0
   21.5883  -18.6328  -14.0224 C   0  0  0  0  0  0  0  0  0  0  0  0
   20.3553  -18.4294  -14.0394 O   0  0  0  0  0  0  0  0  0  0  0  0
   24.1886  -20.7510  -12.4277 C   0  0  0  0  0  0  0  0  0  0  0  0
   23.6996  -20.9857  -11.2761 O   0  0  0  0  0  0  0  0  0  0  0  0
   22.3763  -18.2259  -15.0764 O   0  0  0  0  0  0  0  0  0  0  0  0
   25.5577  -20.9558  -12.7068 N   0  0  0  0  0  0  0  0  0  0  0  0
   26.1775  -20.8922  -14.0065 C   0  0  0  0  0  0  0  0  0  0  0  0
   27.4947  -20.1811  -13.6490 C   0  0  0  0  0  0  0  0  0  0  0  0
   27.9302  -21.1020  -12.5135 C   0  0  0  0  0  0  0  0  0  0  0  0
   26.5955  -21.2686  -11.7729 C   0  0  1  0  0  0  0  0  0  0  0  0
   26.5840  -20.3696  -10.5660 C   0  0  0  0  0  0  0  0  0  0  0  0
   26.4991  -19.1190  -10.6607 O   0  0  0  0  0  0  0  0  0  0  0  0
   26.6698  -20.9174   -9.2719 N   0  0  0  0  0  0  0  0  0  0  0  0
   27.4179  -20.2303   -8.1952 C   0  0  1  0  0  0  0  0  0  0  0  0
   26.8064  -20.5718   -6.8558 C   0  0  0  0  0  0  0  0  0  0  0  0
   27.6083  -19.9749   -5.7765 C   0  0  0  0  0  0  0  0  0  0  0  0
   28.2808  -20.8409   -4.9197 C   0  0  0  0  0  0  0  0  0  0  0  0
   29.0612  -20.3682   -3.9090 C   0  0  0  0  0  0  0  0  0  0  0  0
   29.2193  -19.0025   -3.6895 C   0  0  0  0  0  0  0  0  0  0  0  0
   28.5603  -18.1346   -4.5291 C   0  0  0  0  0  0  0  0  0  0  0  0
   27.7693  -18.6266   -5.5551 C   0  0  0  0  0  0  0  0  0  0  0  0
   28.7915  -20.7298   -8.2524 C   0  0  0  0  0  0  0  0  0  0  0  0
   29.0576  -21.8938   -8.6315 O   0  0  0  0  0  0  0  0  0  0  0  0
   29.8476  -19.9224   -7.8854 O   0  0  0  0  0  0  0  0  0  0  0  0
  2  1  1  1
  2  3  1  0
  4  5  2  0
  4  3  1  0
  6  2  1  0
  6  7  2  0
  8  4  1  0
  9  6  1  0
 10  9  1  0
 11 10  1  0
 12 13  1  0
 12 11  1  0
 13  9  1  0
 13 14  1  1
 15 14  2  0
 16 14  1  0
 17 25  1  0
 17 16  1  0
 17 18  1  1
 19 18  1  0
 20 19  2  0
 21 20  1  0
 22 23  1  0
 22 21  2  0
 23 24  2  0
 24 19  1  0
 25 27  1  0
 26 25  2  0
M  END
$$$$
