DPF.pdb
     RDKit          3D

 27 28  0  0  1  0  0  0  0  0999 V2000
   22.7069  -21.5897  -14.4906 N   0  0  0  0  0  0  0  0  0  0  0  0
   23.4760  -20.4889  -13.8931 C   0  0  1  0  0  0  0  0  0  0  0  0
   22.4007  -19.5175  -13.3489 C   0  0  0  0  0  0  0  0  0  0  0  0
   21.9024  -18.7732  -14.5222 C   0  0  0  0  0  0  0  0  0  0  0  0
   20.6880  -18.8113  -14.8152 O   0  0  0  0  0  0  0  0  0  0  0  0
   24.3243  -21.0049  -12.8205 C   0  0  0  0  0  0  0  0  0  0  0  0
   23.7473  -21.5680  -11.8355 O   0  0  0  0  0  0  0  0  0  0  0  0
   22.7811  -18.0384  -15.2874 O   0  0  0  0  0  0  0  0  0  0  0  0
   25.7296  -20.8803  -12.8832 N   0  0  0  0  0  0  0  0  0  0  0  0
   26.4923  -20.4398  -14.0242 C   0  0  0  0  0  0  0  0  0  0  0  0
   27.5552  -19.5723  -13.3268 C   0  0  0  0  0  0  0  0  0  0  0  0
   28.0250  -20.5986  -12.3006 C   0  0  0  0  0  0  0  0  0  0  0  0
   26.6724  -21.1654  -11.8456 C   0  0  1  0  0  0  0  0  0  0  0  0
   26.2943  -20.5447  -10.5277 C   0  0  0  0  0  0  0  0  0  0  0  0
   25.8784  -19.3619  -10.4370 O   0  0  0  0  0  0  0  0  0  0  0  0
   26.3985  -21.2883   -9.3368 N   0  0  0  0  0  0  0  0  0  0  0  0
   26.5664  -20.6203   -8.0266 C   0  0  1  0  0  0  0  0  0  0  0  0
   27.3414  -21.5223   -7.0936 C   0  0  0  0  0  0  0  0  0  0  0  0
   27.9453  -20.7226   -6.0166 C   0  0  0  0  0  0  0  0  0  0  0  0
   27.2457  -20.6244   -4.8179 C   0  0  0  0  0  0  0  0  0  0  0  0
   27.7460  -19.9210   -3.7648 C   0  0  0  0  0  0  0  0  0  0  0  0
   28.9750  -19.2714   -3.8417 C   0  0  0  0  0  0  0  0  0  0  0  0
   29.6778  -19.3602   -5.0210 C   0  0  0  0  0  0  0  0  0  0  0  0
   29.1595  -20.0794   -6.0861 C   0  0  0  0  0  0  0  0  0  0  0  0
   27.3264  -19.3952   -8.2731 C   0  0  0  0  0  0  0  0  0  0  0  0
   28.3513  -19.3853   -8.9934 O   0  0  0  0  0  0  0  0  0  0  0  0
   26.9310  -18.1992   -7.7117 O   0  0  0  0  0  0  0  0  0  0  0  0
  2  1  1  1
  2  3  1  0
  4  5  2  0
  4  3  1  0
  6  2  1  0
  6  7  2  0
  8  4  1  0
  9  6  1  0
 10  9  1  0
 11 10  1  0
 12 13  1  0
 12 11  1  0
 13  9  1  0
 13 14  1  1
 15 14  2  0
 16 14  1  0
 17 25  1  0
 17 16  1  0
 17 18  1  1
 19 18  1  0
 20 19  2  0
 21 20  1  0
 22 23  1  0
 22 21  2  0
 23 24  2  0
 24 19  1  0
 25 27  1  0
 26 25  2  0
M  END
$$$$
