DPF.pdb
     RDKit          3D

 27 28  0  0  1  0  0  0  0  0999 V2000
   22.9768  -21.6614  -14.7549 N   0  0  0  0  0  0  0  0  0  0  0  0
   23.6095  -20.5650  -14.0080 C   0  0  1  0  0  0  0  0  0  0  0  0
   22.4289  -19.8261  -13.3327 C   0  0  0  0  0  0  0  0  0  0  0  0
   21.8926  -18.9078  -14.3566 C   0  0  0  0  0  0  0  0  0  0  0  0
   20.7149  -18.4984  -14.2716 O   0  0  0  0  0  0  0  0  0  0  0  0
   24.5357  -21.1124  -13.0184 C   0  0  0  0  0  0  0  0  0  0  0  0
   24.0468  -21.8442  -12.0988 O   0  0  0  0  0  0  0  0  0  0  0  0
   22.6965  -18.5061  -15.4006 O   0  0  0  0  0  0  0  0  0  0  0  0
   25.9188  -20.8356  -13.0882 N   0  0  0  0  0  0  0  0  0  0  0  0
   26.6081  -20.2303  -14.2000 C   0  0  0  0  0  0  0  0  0  0  0  0
   27.5886  -19.3119  -13.4493 C   0  0  0  0  0  0  0  0  0  0  0  0
   28.1837  -20.3590  -12.5130 C   0  0  0  0  0  0  0  0  0  0  0  0
   26.9071  -21.0988  -12.0877 C   0  0  1  0  0  0  0  0  0  0  0  0
   26.4932  -20.6250  -10.7205 C   0  0  0  0  0  0  0  0  0  0  0  0
   25.8319  -19.5701  -10.5469 O   0  0  0  0  0  0  0  0  0  0  0  0
   26.8430  -21.3666   -9.5761 N   0  0  0  0  0  0  0  0  0  0  0  0
   26.6741  -20.8061   -8.2166 C   0  0  1  0  0  0  0  0  0  0  0  0
   27.5226  -21.5855   -7.2382 C   0  0  0  0  0  0  0  0  0  0  0  0
   27.7176  -20.7973   -6.0114 C   0  0  0  0  0  0  0  0  0  0  0  0
   28.8590  -20.0058   -5.9293 C   0  0  0  0  0  0  0  0  0  0  0  0
   29.1023  -19.2300   -4.8370 C   0  0  0  0  0  0  0  0  0  0  0  0
   28.2226  -19.1956   -3.7585 C   0  0  0  0  0  0  0  0  0  0  0  0
   27.0898  -19.9732   -3.8261 C   0  0  0  0  0  0  0  0  0  0  0  0
   26.8517  -20.7582   -4.9430 C   0  0  0  0  0  0  0  0  0  0  0  0
   27.1341  -19.4189   -8.2731 C   0  0  0  0  0  0  0  0  0  0  0  0
   28.1703  -19.0896   -8.8954 O   0  0  0  0  0  0  0  0  0  0  0  0
   26.4305  -18.4197   -7.6339 O   0  0  0  0  0  0  0  0  0  0  0  0
  2  1  1  1
  2  3  1  0
  4  5  2  0
  4  3  1  0
  6  2  1  0
  6  7  2  0
  8  4  1  0
  9  6  1  0
 10  9  1  0
 11 10  1  0
 12 13  1  0
 12 11  1  0
 13  9  1  0
 13 14  1  1
 15 14  2  0
 16 14  1  0
 17 25  1  0
 17 16  1  0
 17 18  1  1
 19 18  1  0
 20 19  2  0
 21 20  1  0
 22 23  1  0
 22 21  2  0
 23 24  2  0
 24 19  1  0
 25 27  1  0
 26 25  2  0
M  END
$$$$
