DPF.pdb
     RDKit          3D

 27 28  0  0  1  0  0  0  0  0999 V2000
   22.6554  -21.5229  -13.3656 N   0  0  0  0  0  0  0  0  0  0  0  0
   23.6947  -20.5203  -13.0918 C   0  0  1  0  0  0  0  0  0  0  0  0
   22.9089  -19.2177  -12.8061 C   0  0  0  0  0  0  0  0  0  0  0  0
   22.3476  -18.7953  -14.1044 C   0  0  0  0  0  0  0  0  0  0  0  0
   21.1106  -18.8071  -14.2824 O   0  0  0  0  0  0  0  0  0  0  0  0
   24.4863  -20.9336  -11.9347 C   0  0  0  0  0  0  0  0  0  0  0  0
   23.8748  -21.0825  -10.8283 O   0  0  0  0  0  0  0  0  0  0  0  0
   23.1930  -18.3883  -15.1130 O   0  0  0  0  0  0  0  0  0  0  0  0
   25.8759  -21.1581  -12.0490 N   0  0  0  0  0  0  0  0  0  0  0  0
   26.6337  -21.1812  -13.2748 C   0  0  0  0  0  0  0  0  0  0  0  0
   27.9102  -20.4496  -12.8235 C   0  0  0  0  0  0  0  0  0  0  0  0
   28.2121  -21.2938  -11.5893 C   0  0  0  0  0  0  0  0  0  0  0  0
   26.8035  -21.4096  -10.9891 C   0  0  1  0  0  0  0  0  0  0  0  0
   26.6686  -20.4327   -9.8522 C   0  0  0  0  0  0  0  0  0  0  0  0
   26.5735  -19.1933  -10.0393 O   0  0  0  0  0  0  0  0  0  0  0  0
   26.6445  -20.8911   -8.5214 N   0  0  0  0  0  0  0  0  0  0  0  0
   27.0554  -20.0163   -7.4002 C   0  0  1  0  0  0  0  0  0  0  0  0
   26.8682  -20.7485   -6.0912 C   0  0  0  0  0  0  0  0  0  0  0  0
   27.5433  -20.0143   -5.0099 C   0  0  0  0  0  0  0  0  0  0  0  0
   27.8531  -18.6767   -5.2358 C   0  0  0  0  0  0  0  0  0  0  0  0
   28.4585  -17.9215   -4.2780 C   0  0  0  0  0  0  0  0  0  0  0  0
   28.7928  -18.4532   -3.0355 C   0  0  0  0  0  0  0  0  0  0  0  0
   28.4921  -19.7745   -2.7983 C   0  0  0  0  0  0  0  0  0  0  0  0
   27.8752  -20.5337   -3.7799 C   0  0  0  0  0  0  0  0  0  0  0  0
   28.4729  -19.7153   -7.5991 C   0  0  0  0  0  0  0  0  0  0  0  0
   28.9587  -18.5964   -7.3133 O   0  0  0  0  0  0  0  0  0  0  0  0
   29.3270  -20.6677   -8.1142 O   0  0  0  0  0  0  0  0  0  0  0  0
  2  1  1  1
  2  3  1  0
  4  5  2  0
  4  3  1  0
  6  2  1  0
  6  7  2  0
  8  4  1  0
  9  6  1  0
 10  9  1  0
 11 10  1  0
 12 13  1  0
 12 11  1  0
 13  9  1  0
 13 14  1  1
 15 14  2  0
 16 14  1  0
 17 25  1  0
 17 16  1  0
 17 18  1  1
 19 18  1  0
 20 19  2  0
 21 20  1  0
 22 23  1  0
 22 21  2  0
 23 24  2  0
 24 19  1  0
 25 27  1  0
 26 25  2  0
M  END
$$$$
