DPF.pdb
     RDKit          3D

 27 28  0  0  1  0  0  0  0  0999 V2000
   14.9688  -15.8547    3.2700 N   0  0  0  0  0  0  0  0  0  0  0  0
   16.4226  -15.6584    3.3618 C   0  0  1  0  0  0  0  0  0  0  0  0
   16.5927  -14.5034    4.3782 C   0  0  0  0  0  0  0  0  0  0  0  0
   16.1826  -13.2780    3.6646 C   0  0  0  0  0  0  0  0  0  0  0  0
   14.9910  -12.9031    3.7032 O   0  0  0  0  0  0  0  0  0  0  0  0
   17.0574  -16.8870    3.8352 C   0  0  0  0  0  0  0  0  0  0  0  0
   16.6194  -17.3944    4.9174 O   0  0  0  0  0  0  0  0  0  0  0  0
   17.1187  -12.5531    2.9604 O   0  0  0  0  0  0  0  0  0  0  0  0
   18.1148  -17.4822    3.1128 N   0  0  0  0  0  0  0  0  0  0  0  0
   18.4430  -17.2356    1.7311 C   0  0  0  0  0  0  0  0  0  0  0  0
   19.9797  -17.2202    1.8114 C   0  0  0  0  0  0  0  0  0  0  0  0
   20.1667  -18.5508    2.5336 C   0  0  0  0  0  0  0  0  0  0  0  0
   19.0613  -18.4412    3.5938 C   0  0  1  0  0  0  0  0  0  0  0  0
   19.6755  -18.0450    4.9094 C   0  0  0  0  0  0  0  0  0  0  0  0
   19.9815  -16.8554    5.1767 O   0  0  0  0  0  0  0  0  0  0  0  0
   19.9286  -19.0168    5.8960 N   0  0  0  0  0  0  0  0  0  0  0  0
   20.4045  -18.6359    7.2449 C   0  0  1  0  0  0  0  0  0  0  0  0
   19.2830  -17.9698    8.0086 C   0  0  0  0  0  0  0  0  0  0  0  0
   18.2172  -18.9469    8.2797 C   0  0  0  0  0  0  0  0  0  0  0  0
   18.3770  -19.7855    9.3785 C   0  0  0  0  0  0  0  0  0  0  0  0
   17.4264  -20.7023    9.7101 C   0  0  0  0  0  0  0  0  0  0  0  0
   16.2576  -20.8401    8.9665 C   0  0  0  0  0  0  0  0  0  0  0  0
   16.0862  -20.0173    7.8774 C   0  0  0  0  0  0  0  0  0  0  0  0
   17.0597  -19.0872    7.5494 C   0  0  0  0  0  0  0  0  0  0  0  0
   20.7934  -19.8742    7.9192 C   0  0  0  0  0  0  0  0  0  0  0  0
   21.3074  -19.8730    9.0616 O   0  0  0  0  0  0  0  0  0  0  0  0
   20.6028  -21.0958    7.3079 O   0  0  0  0  0  0  0  0  0  0  0  0
  2  1  1  1
  2  3  1  0
  4  5  2  0
  4  3  1  0
  6  2  1  0
  6  7  2  0
  8  4  1  0
  9  6  1  0
 10  9  1  0
 11 10  1  0
 12 13  1  0
 12 11  1  0
 13  9  1  0
 13 14  1  1
 15 14  2  0
 16 14  1  0
 17 25  1  0
 17 16  1  0
 17 18  1  1
 19 18  1  0
 20 19  2  0
 21 20  1  0
 22 23  1  0
 22 21  2  0
 23 24  2  0
 24 19  1  0
 25 27  1  0
 26 25  2  0
M  END
$$$$
