WTN.pdb
     RDKit          3D

 30 31  0  0  1  0  0  0  0  0999 V2000
   25.7544  -13.9001  -17.6552 N   0  0  0  0  0  0  0  0  0  0  0  0
   24.3920  -13.6993  -17.2039 C   0  0  1  0  0  0  0  0  0  0  0  0
   24.2400  -13.8546  -15.7263 C   0  0  0  0  0  0  0  0  0  0  0  0
   24.5361  -15.2660  -15.3798 C   0  0  0  0  0  0  0  0  0  0  0  0
   25.6439  -15.7745  -14.7225 C   0  0  0  0  0  0  0  0  0  0  0  0
   25.5001  -17.0918  -14.6245 N   0  0  0  0  0  0  0  0  0  0  0  0
   24.3318  -17.4513  -15.1989 C   0  0  0  0  0  0  0  0  0  0  0  0
   23.7089  -18.6713  -15.3685 C   0  0  0  0  0  0  0  0  0  0  0  0
   22.4895  -18.7555  -16.0064 C   0  0  0  0  0  0  0  0  0  0  0  0
   21.8719  -17.6149  -16.4865 C   0  0  0  0  0  0  0  0  0  0  0  0
   22.4744  -16.3691  -16.3311 C   0  0  0  0  0  0  0  0  0  0  0  0
   23.6961  -16.3190  -15.6875 C   0  0  0  0  0  0  0  0  0  0  0  0
   23.9022  -12.3892  -17.7115 C   0  0  0  0  0  0  0  0  0  0  0  0
   24.6841  -11.4052  -17.6535 O   0  0  0  0  0  0  0  0  0  0  0  0
   22.9479  -11.1659  -21.0883 C   0  0  0  0  0  0  0  0  0  0  0  0
   21.7480  -10.9855  -20.1956 C   0  0  1  0  0  0  0  0  0  0  0  0
   20.9615  -12.1432  -20.2947 O   0  0  0  0  0  0  0  0  0  0  0  0
   22.1978  -10.9084  -18.7382 C   0  0  2  0  0  0  0  0  0  0  0  0
   22.6246  -12.1895  -18.2484 N   0  0  0  0  0  0  0  0  0  0  0  0
   21.0549  -10.3565  -17.9764 C   0  0  0  0  0  0  0  0  0  0  0  0
   20.3351  -11.1610  -17.3315 O   0  0  0  0  0  0  0  0  0  0  0  0
   17.1881   -7.2765  -16.1800 N   0  0  0  0  0  0  0  0  0  0  0  0
   18.3549   -6.5128  -16.4168 C   0  0  0  0  0  0  0  0  0  0  0  0
   18.3176   -5.2944  -16.0436 O   0  0  0  0  0  0  0  0  0  0  0  0
   19.5911   -7.0025  -17.0462 C   0  0  0  0  0  0  0  0  0  0  0  0
   19.5395   -8.4726  -17.2292 C   0  0  2  0  0  0  0  0  0  0  0  0
   20.7244   -8.9866  -17.9297 N   0  0  0  0  0  0  0  0  0  0  0  0
   18.3572   -8.8822  -18.0134 C   0  0  0  0  0  0  0  0  0  0  0  0
   18.3713   -8.7790  -19.2877 O   0  0  0  0  0  0  0  0  0  0  0  0
   17.1969   -9.3856  -17.4557 O   0  0  0  0  0  0  0  0  0  0  0  0
  2  1  1  1
  2 13  1  0
  2  3  1  0
  3  4  1  0
  4 12  1  0
  4  5  2  0
  5  6  1  0
  7  6  1  0
  7  8  2  0
  9  8  1  0
 10  9  2  0
 11 12  2  0
 11 10  1  0
 12  7  1  0
 13 19  1  0
 14 13  2  0
 16 15  1  6
 16 17  1  0
 16 18  1  0
 18 20  1  0
 18 19  1  1
 20 27  1  0
 21 20  2  0
 22 23  1  0
 23 24  2  0
 25 23  1  0
 26 25  1  6
 26 28  1  0
 27 26  1  0
 28 29  2  0
 28 30  1  0
M  END
$$$$
