WTN.pdb
     RDKit          3D

 30 31  0  0  1  0  0  0  0  0999 V2000
   22.8625  -19.7649  -13.5716 N   0  0  0  0  0  0  0  0  0  0  0  0
   21.5304  -19.7872  -13.0013 C   0  0  1  0  0  0  0  0  0  0  0  0
   20.4565  -19.8762  -14.0355 C   0  0  0  0  0  0  0  0  0  0  0  0
   20.5005  -18.6382  -14.8511 C   0  0  0  0  0  0  0  0  0  0  0  0
   21.0197  -18.4662  -16.1234 C   0  0  0  0  0  0  0  0  0  0  0  0
   20.8505  -17.1953  -16.4725 N   0  0  0  0  0  0  0  0  0  0  0  0
   20.2371  -16.5394  -15.4638 C   0  0  0  0  0  0  0  0  0  0  0  0
   19.8342  -15.2283  -15.3085 C   0  0  0  0  0  0  0  0  0  0  0  0
   19.2152  -14.8157  -14.1476 C   0  0  0  0  0  0  0  0  0  0  0  0
   18.9889  -15.7129  -13.1197 C   0  0  0  0  0  0  0  0  0  0  0  0
   19.3834  -17.0424  -13.2455 C   0  0  0  0  0  0  0  0  0  0  0  0
   20.0010  -17.4239  -14.4213 C   0  0  0  0  0  0  0  0  0  0  0  0
   21.4580  -20.8698  -11.9830 C   0  0  0  0  0  0  0  0  0  0  0  0
   22.0315  -21.9597  -12.2400 O   0  0  0  0  0  0  0  0  0  0  0  0
   22.5899  -20.5996   -8.3455 C   0  0  0  0  0  0  0  0  0  0  0  0
   21.1803  -21.1303   -8.3696 C   0  0  1  0  0  0  0  0  0  0  0  0
   20.3083  -20.0381   -8.2456 O   0  0  0  0  0  0  0  0  0  0  0  0
   20.8862  -21.7479   -9.7351 C   0  0  2  0  0  0  0  0  0  0  0  0
   20.7899  -20.7451  -10.7589 N   0  0  0  0  0  0  0  0  0  0  0  0
   19.6385  -22.5294   -9.5806 C   0  0  0  0  0  0  0  0  0  0  0  0
   18.6222  -22.1452  -10.2138 O   0  0  0  0  0  0  0  0  0  0  0  0
   16.9267  -27.7807   -8.5610 N   0  0  0  0  0  0  0  0  0  0  0  0
   17.1906  -26.5687   -9.2408 C   0  0  0  0  0  0  0  0  0  0  0  0
   16.2253  -26.0761   -9.9120 O   0  0  0  0  0  0  0  0  0  0  0  0
   18.4678  -25.8387   -9.2344 C   0  0  0  0  0  0  0  0  0  0  0  0
   18.2889  -24.4736   -8.6850 C   0  0  2  0  0  0  0  0  0  0  0  0
   19.5199  -23.6760   -8.7686 N   0  0  0  0  0  0  0  0  0  0  0  0
   17.8861  -24.5071   -7.2647 C   0  0  0  0  0  0  0  0  0  0  0  0
   18.7363  -24.2173   -6.3547 O   0  0  0  0  0  0  0  0  0  0  0  0
   16.6170  -24.8392   -6.8293 O   0  0  0  0  0  0  0  0  0  0  0  0
  2  1  1  6
  2 13  1  0
  2  3  1  0
  3  4  1  0
  4 12  1  0
  4  5  2  0
  5  6  1  0
  7  6  1  0
  7  8  2  0
  9  8  1  0
 10  9  2  0
 11 12  2  0
 11 10  1  0
 12  7  1  0
 13 19  1  0
 14 13  2  0
 16 15  1  6
 16 17  1  0
 16 18  1  0
 18 20  1  0
 18 19  1  6
 20 27  1  0
 21 20  2  0
 22 23  1  0
 23 24  2  0
 25 23  1  0
 26 25  1  1
 26 28  1  0
 27 26  1  0
 28 29  2  0
 28 30  1  0
M  END
$$$$
