WTN.pdb
     RDKit          3D

 30 31  0  0  1  0  0  0  0  0999 V2000
   23.6985  -18.3423  -20.0557 N   0  0  0  0  0  0  0  0  0  0  0  0
   22.8870  -17.6150  -19.1003 C   0  0  1  0  0  0  0  0  0  0  0  0
   21.8089  -16.8091  -19.7475 C   0  0  0  0  0  0  0  0  0  0  0  0
   22.4531  -15.7540  -20.5671 C   0  0  0  0  0  0  0  0  0  0  0  0
   22.8378  -15.8143  -21.8961 C   0  0  0  0  0  0  0  0  0  0  0  0
   23.3763  -14.6451  -22.2258 N   0  0  0  0  0  0  0  0  0  0  0  0
   23.3516  -13.8296  -21.1496 C   0  0  0  0  0  0  0  0  0  0  0  0
   23.7756  -12.5314  -20.9493 C   0  0  0  0  0  0  0  0  0  0  0  0
   23.6258  -11.9244  -19.7204 C   0  0  0  0  0  0  0  0  0  0  0  0
   23.0469  -12.6104  -18.6682 C   0  0  0  0  0  0  0  0  0  0  0  0
   22.6087  -13.9213  -18.8381 C   0  0  0  0  0  0  0  0  0  0  0  0
   22.7733  -14.5007  -20.0818 C   0  0  0  0  0  0  0  0  0  0  0  0
   22.3766  -18.5659  -18.0759 C   0  0  0  0  0  0  0  0  0  0  0  0
   22.1843  -19.7596  -18.4239 O   0  0  0  0  0  0  0  0  0  0  0  0
   22.1085  -20.3012  -13.6259 C   0  0  0  0  0  0  0  0  0  0  0  0
   22.6715  -19.3741  -14.6712 C   0  0  1  0  0  0  0  0  0  0  0  0
   23.7659  -20.0163  -15.2699 O   0  0  0  0  0  0  0  0  0  0  0  0
   21.6458  -19.1699  -15.7841 C   0  0  2  0  0  0  0  0  0  0  0  0
   22.0990  -18.2091  -16.7508 N   0  0  0  0  0  0  0  0  0  0  0  0
   20.3854  -18.7644  -15.1219 C   0  0  0  0  0  0  0  0  0  0  0  0
   20.3819  -17.6858  -14.4754 O   0  0  0  0  0  0  0  0  0  0  0  0
   16.8831  -18.3867  -16.9633 N   0  0  0  0  0  0  0  0  0  0  0  0
   16.2955  -19.4126  -16.1868 C   0  0  0  0  0  0  0  0  0  0  0  0
   15.2478  -19.9557  -16.6689 O   0  0  0  0  0  0  0  0  0  0  0  0
   16.7886  -19.8995  -14.8891 C   0  0  0  0  0  0  0  0  0  0  0  0
   17.9714  -19.1203  -14.4518 C   0  0  2  0  0  0  0  0  0  0  0  0
   19.1910  -19.5119  -15.1716 N   0  0  0  0  0  0  0  0  0  0  0  0
   18.2386  -19.2999  -13.0106 C   0  0  0  0  0  0  0  0  0  0  0  0
   18.7934  -20.3742  -12.5948 O   0  0  0  0  0  0  0  0  0  0  0  0
   17.9240  -18.3631  -12.0441 O   0  0  0  0  0  0  0  0  0  0  0  0
  2  1  1  6
  2 13  1  0
  2  3  1  0
  3  4  1  0
  4 12  1  0
  4  5  2  0
  5  6  1  0
  7  6  1  0
  7  8  2  0
  9  8  1  0
 10  9  2  0
 11 12  2  0
 11 10  1  0
 12  7  1  0
 13 19  1  0
 14 13  2  0
 16 15  1  1
 16 17  1  0
 16 18  1  0
 18 20  1  0
 18 19  1  6
 20 27  1  0
 21 20  2  0
 22 23  1  0
 23 24  2  0
 25 23  1  0
 26 25  1  6
 26 28  1  0
 27 26  1  0
 28 29  2  0
 28 30  1  0
M  END
$$$$
