WTN.pdb
     RDKit          3D

 30 31  0  0  1  0  0  0  0  0999 V2000
   24.7344  -20.8550  -16.5653 N   0  0  0  0  0  0  0  0  0  0  0  0
   24.1631  -20.5060  -15.2800 C   0  0  1  0  0  0  0  0  0  0  0  0
   22.7307  -20.9087  -15.1517 C   0  0  0  0  0  0  0  0  0  0  0  0
   21.9286  -20.0468  -16.0537 C   0  0  0  0  0  0  0  0  0  0  0  0
   21.8231  -20.1111  -17.4330 C   0  0  0  0  0  0  0  0  0  0  0  0
   20.9988  -19.1481  -17.8316 N   0  0  0  0  0  0  0  0  0  0  0  0
   20.5674  -18.4623  -16.7511 C   0  0  0  0  0  0  0  0  0  0  0  0
   19.7143  -17.3872  -16.6045 C   0  0  0  0  0  0  0  0  0  0  0  0
   19.4402  -16.8722  -15.3552 C   0  0  0  0  0  0  0  0  0  0  0  0
   20.0183  -17.4279  -14.2283 C   0  0  0  0  0  0  0  0  0  0  0  0
   20.8833  -18.5131  -14.3426 C   0  0  0  0  0  0  0  0  0  0  0  0
   21.1372  -19.0055  -15.6086 C   0  0  0  0  0  0  0  0  0  0  0  0
   25.0279  -21.0555  -14.2008 C   0  0  0  0  0  0  0  0  0  0  0  0
   25.1452  -22.3055  -14.1187 O   0  0  0  0  0  0  0  0  0  0  0  0
   28.5388  -21.0153  -13.7812 C   0  0  0  0  0  0  0  0  0  0  0  0
   28.0327  -20.4293  -12.4890 C   0  0  1  0  0  0  0  0  0  0  0  0
   28.0272  -19.0328  -12.6242 O   0  0  0  0  0  0  0  0  0  0  0  0
   26.5759  -20.8350  -12.2756 C   0  0  2  0  0  0  0  0  0  0  0  0
   25.7164  -20.2631  -13.2743 N   0  0  0  0  0  0  0  0  0  0  0  0
   26.2201  -20.4097  -10.9030 C   0  0  0  0  0  0  0  0  0  0  0  0
   25.6776  -19.2845  -10.7585 O   0  0  0  0  0  0  0  0  0  0  0  0
   24.3970  -21.2507   -5.5274 N   0  0  0  0  0  0  0  0  0  0  0  0
   25.6926  -21.3525   -6.0859 C   0  0  0  0  0  0  0  0  0  0  0  0
   26.6585  -20.9787   -5.3427 O   0  0  0  0  0  0  0  0  0  0  0  0
   26.0126  -21.8500   -7.4328 C   0  0  0  0  0  0  0  0  0  0  0  0
   26.1210  -20.7271   -8.3945 C   0  0  2  0  0  0  0  0  0  0  0  0
   26.4518  -21.1874   -9.7500 N   0  0  0  0  0  0  0  0  0  0  0  0
   27.1673  -19.7656   -7.9926 C   0  0  0  0  0  0  0  0  0  0  0  0
   28.3660  -19.9172   -8.4110 O   0  0  0  0  0  0  0  0  0  0  0  0
   26.9418  -18.6774   -7.1708 O   0  0  0  0  0  0  0  0  0  0  0  0
  2  1  1  6
  2 13  1  0
  2  3  1  0
  3  4  1  0
  4 12  1  0
  4  5  2  0
  5  6  1  0
  7  6  1  0
  7  8  2  0
  9  8  1  0
 10  9  2  0
 11 12  2  0
 11 10  1  0
 12  7  1  0
 13 19  1  0
 14 13  2  0
 16 15  1  6
 16 17  1  0
 16 18  1  0
 18 20  1  0
 18 19  1  6
 20 27  1  0
 21 20  2  0
 22 23  1  0
 23 24  2  0
 25 23  1  0
 26 25  1  1
 26 28  1  0
 27 26  1  0
 28 29  2  0
 28 30  1  0
M  END
$$$$
