WTN.pdb
     RDKit          3D

 30 31  0  0  1  0  0  0  0  0999 V2000
   28.3098  -22.0123  -10.4475 N   0  0  0  0  0  0  0  0  0  0  0  0
   27.1980  -21.1506  -10.0984 C   0  0  1  0  0  0  0  0  0  0  0  0
   27.6245  -19.9147   -9.3765 C   0  0  0  0  0  0  0  0  0  0  0  0
   28.5014  -20.3197   -8.2509 C   0  0  0  0  0  0  0  0  0  0  0  0
   29.6674  -21.0655   -8.2962 C   0  0  0  0  0  0  0  0  0  0  0  0
   30.1274  -21.1925   -7.0560 N   0  0  0  0  0  0  0  0  0  0  0  0
   29.2936  -20.5510   -6.2091 C   0  0  0  0  0  0  0  0  0  0  0  0
   29.3037  -20.3752   -4.8401 C   0  0  0  0  0  0  0  0  0  0  0  0
   28.3050  -19.6584   -4.2158 C   0  0  0  0  0  0  0  0  0  0  0  0
   27.2762  -19.1040   -4.9553 C   0  0  0  0  0  0  0  0  0  0  0  0
   27.2373  -19.2633   -6.3381 C   0  0  0  0  0  0  0  0  0  0  0  0
   28.2531  -19.9870   -6.9331 C   0  0  0  0  0  0  0  0  0  0  0  0
   26.3994  -20.8713  -11.3224 C   0  0  0  0  0  0  0  0  0  0  0  0
   26.9825  -20.3257  -12.2947 O   0  0  0  0  0  0  0  0  0  0  0  0
   25.6203  -22.6336  -13.9345 C   0  0  0  0  0  0  0  0  0  0  0  0
   24.2351  -22.1986  -13.5329 C   0  0  1  0  0  0  0  0  0  0  0  0
   23.6959  -23.1943  -12.7045 O   0  0  0  0  0  0  0  0  0  0  0  0
   24.3203  -20.9393  -12.6730 C   0  0  2  0  0  0  0  0  0  0  0  0
   25.0400  -21.1799  -11.4535 N   0  0  0  0  0  0  0  0  0  0  0  0
   22.9267  -20.4988  -12.4375 C   0  0  0  0  0  0  0  0  0  0  0  0
   22.4736  -20.5828  -11.2675 O   0  0  0  0  0  0  0  0  0  0  0  0
   18.3298  -17.2252  -14.4526 N   0  0  0  0  0  0  0  0  0  0  0  0
   19.3579  -17.4178  -13.5004 C   0  0  0  0  0  0  0  0  0  0  0  0
   19.1005  -17.0454  -12.3088 O   0  0  0  0  0  0  0  0  0  0  0  0
   20.6791  -18.0070  -13.7676 C   0  0  0  0  0  0  0  0  0  0  0  0
   20.7877  -19.3515  -13.1528 C   0  0  2  0  0  0  0  0  0  0  0  0
   22.0780  -19.9917  -13.4428 N   0  0  0  0  0  0  0  0  0  0  0  0
   19.7305  -20.2598  -13.6406 C   0  0  0  0  0  0  0  0  0  0  0  0
   19.9700  -21.0491  -14.6176 O   0  0  0  0  0  0  0  0  0  0  0  0
   18.4586  -20.3239  -13.1033 O   0  0  0  0  0  0  0  0  0  0  0  0
  2  1  1  6
  2 13  1  0
  2  3  1  0
  3  4  1  0
  4 12  1  0
  4  5  2  0
  5  6  1  0
  7  6  1  0
  7  8  2  0
  9  8  1  0
 10  9  2  0
 11 12  2  0
 11 10  1  0
 12  7  1  0
 13 19  1  0
 14 13  2  0
 16 15  1  1
 16 17  1  0
 16 18  1  0
 18 20  1  0
 18 19  1  1
 20 27  1  0
 21 20  2  0
 22 23  1  0
 23 24  2  0
 25 23  1  0
 26 25  1  6
 26 28  1  0
 27 26  1  0
 28 29  2  0
 28 30  1  0
M  END
$$$$
