WTN.pdb
     RDKit          3D

 30 31  0  0  1  0  0  0  0  0999 V2000
   26.5998  -22.5052  -12.0083 N   0  0  0  0  0  0  0  0  0  0  0  0
   25.8422  -21.3510  -11.5679 C   0  0  1  0  0  0  0  0  0  0  0  0
   26.6678  -20.1089  -11.4896 C   0  0  0  0  0  0  0  0  0  0  0  0
   27.7623  -20.3453  -10.5168 C   0  0  0  0  0  0  0  0  0  0  0  0
   29.0514  -20.7859  -10.7652 C   0  0  0  0  0  0  0  0  0  0  0  0
   29.6959  -20.8587   -9.6054 N   0  0  0  0  0  0  0  0  0  0  0  0
   28.8622  -20.4781   -8.6135 C   0  0  0  0  0  0  0  0  0  0  0  0
   29.0213  -20.3717   -7.2466 C   0  0  0  0  0  0  0  0  0  0  0  0
   27.9803  -19.9470   -6.4484 C   0  0  0  0  0  0  0  0  0  0  0  0
   26.7586  -19.6209   -7.0085 C   0  0  0  0  0  0  0  0  0  0  0  0
   26.5660  -19.7177   -8.3843 C   0  0  0  0  0  0  0  0  0  0  0  0
   27.6291  -20.1463   -9.1561 C   0  0  0  0  0  0  0  0  0  0  0  0
   24.6387  -21.2042  -12.4305 C   0  0  0  0  0  0  0  0  0  0  0  0
   24.7981  -21.2524  -13.6776 O   0  0  0  0  0  0  0  0  0  0  0  0
   20.9810  -22.7481  -11.6909 C   0  0  0  0  0  0  0  0  0  0  0  0
   20.9129  -21.2987  -12.0957 C   0  0  1  0  0  0  0  0  0  0  0  0
   20.8644  -20.5278  -10.9244 O   0  0  0  0  0  0  0  0  0  0  0  0
   22.2057  -20.9013  -12.8051 C   0  0  2  0  0  0  0  0  0  0  0  0
   23.3427  -21.0161  -11.9350 N   0  0  0  0  0  0  0  0  0  0  0  0
   22.0028  -19.5218  -13.3023 C   0  0  0  0  0  0  0  0  0  0  0  0
   22.5570  -18.5835  -12.6749 O   0  0  0  0  0  0  0  0  0  0  0  0
   24.1265  -16.7650  -17.2255 N   0  0  0  0  0  0  0  0  0  0  0  0
   23.3586  -17.9527  -17.2475 C   0  0  0  0  0  0  0  0  0  0  0  0
   22.9564  -18.3436  -18.3922 O   0  0  0  0  0  0  0  0  0  0  0  0
   22.9941  -18.7638  -16.0756 C   0  0  0  0  0  0  0  0  0  0  0  0
   21.7054  -18.3077  -15.5025 C   0  0  2  0  0  0  0  0  0  0  0  0
   21.2277  -19.1961  -14.4342 N   0  0  0  0  0  0  0  0  0  0  0  0
   20.6444  -18.2486  -16.5280 C   0  0  0  0  0  0  0  0  0  0  0  0
   20.2858  -17.1195  -17.0089 O   0  0  0  0  0  0  0  0  0  0  0  0
   19.9872  -19.3586  -17.0243 O   0  0  0  0  0  0  0  0  0  0  0  0
  2  1  1  6
  2 13  1  0
  2  3  1  0
  3  4  1  0
  4 12  1  0
  4  5  2  0
  5  6  1  0
  7  6  1  0
  7  8  2  0
  9  8  1  0
 10  9  2  0
 11 12  2  0
 11 10  1  0
 12  7  1  0
 13 19  1  0
 14 13  2  0
 16 15  1  1
 16 17  1  0
 16 18  1  0
 18 20  1  0
 18 19  1  1
 20 27  1  0
 21 20  2  0
 22 23  1  0
 23 24  2  0
 25 23  1  0
 26 25  1  6
 26 28  1  0
 27 26  1  0
 28 29  2  0
 28 30  1  0
M  END
$$$$
