WTN.pdb
     RDKit          3D

 30 31  0  0  1  0  0  0  0  0999 V2000
   27.8884  -27.3289  -16.0551 N   0  0  0  0  0  0  0  0  0  0  0  0
   27.7116  -26.8508  -17.4117 C   0  0  1  0  0  0  0  0  0  0  0  0
   28.0730  -27.8719  -18.4399 C   0  0  0  0  0  0  0  0  0  0  0  0
   29.4955  -28.2415  -18.2400 C   0  0  0  0  0  0  0  0  0  0  0  0
   30.0177  -29.2456  -17.4420 C   0  0  0  0  0  0  0  0  0  0  0  0
   31.3411  -29.2233  -17.5596 N   0  0  0  0  0  0  0  0  0  0  0  0
   31.6911  -28.2344  -18.4102 C   0  0  0  0  0  0  0  0  0  0  0  0
   32.9119  -27.7876  -18.8742 C   0  0  0  0  0  0  0  0  0  0  0  0
   32.9846  -26.7329  -19.7592 C   0  0  0  0  0  0  0  0  0  0  0  0
   31.8315  -26.1062  -20.1954 C   0  0  0  0  0  0  0  0  0  0  0  0
   30.5846  -26.5331  -19.7460 C   0  0  0  0  0  0  0  0  0  0  0  0
   30.5461  -27.5926  -18.8596 C   0  0  0  0  0  0  0  0  0  0  0  0
   26.3271  -26.3271  -17.5636 C   0  0  0  0  0  0  0  0  0  0  0  0
   25.9463  -25.9936  -18.7155 O   0  0  0  0  0  0  0  0  0  0  0  0
   23.3275  -28.2749  -16.9449 C   0  0  0  0  0  0  0  0  0  0  0  0
   23.1465  -27.0115  -16.1446 C   0  0  1  0  0  0  0  0  0  0  0  0
   23.6226  -27.2535  -14.8471 O   0  0  0  0  0  0  0  0  0  0  0  0
   24.0338  -25.9082  -16.7171 C   0  0  2  0  0  0  0  0  0  0  0  0
   25.4266  -26.1846  -16.5010 N   0  0  0  0  0  0  0  0  0  0  0  0
   23.5954  -24.6461  -16.0796 C   0  0  0  0  0  0  0  0  0  0  0  0
   24.1826  -24.2838  -15.0284 O   0  0  0  0  0  0  0  0  0  0  0  0
   21.9465  -19.2278  -15.7971 N   0  0  0  0  0  0  0  0  0  0  0  0
   21.1984  -20.3616  -16.1918 C   0  0  0  0  0  0  0  0  0  0  0  0
   19.9542  -20.3411  -15.9153 O   0  0  0  0  0  0  0  0  0  0  0  0
   21.7298  -21.5436  -16.8878 C   0  0  0  0  0  0  0  0  0  0  0  0
   22.1331  -22.5874  -15.9156 C   0  0  2  0  0  0  0  0  0  0  0  0
   22.5617  -23.8269  -16.5780 N   0  0  0  0  0  0  0  0  0  0  0  0
   21.0254  -22.9398  -15.0048 C   0  0  0  0  0  0  0  0  0  0  0  0
   20.2848  -23.9494  -15.2637 O   0  0  0  0  0  0  0  0  0  0  0  0
   20.7179  -22.2375  -13.8547 O   0  0  0  0  0  0  0  0  0  0  0  0
  2  1  1  1
  2 13  1  0
  2  3  1  0
  3  4  1  0
  4 12  1  0
  4  5  2  0
  5  6  1  0
  7  6  1  0
  7  8  2  0
  9  8  1  0
 10  9  2  0
 11 12  2  0
 11 10  1  0
 12  7  1  0
 13 19  1  0
 14 13  2  0
 16 15  1  6
 16 17  1  0
 16 18  1  0
 18 20  1  0
 18 19  1  1
 20 27  1  0
 21 20  2  0
 22 23  1  0
 23 24  2  0
 25 23  1  0
 26 25  1  6
 26 28  1  0
 27 26  1  0
 28 29  2  0
 28 30  1  0
M  END
$$$$
