WTN.pdb
     RDKit          3D

 30 31  0  0  1  0  0  0  0  0999 V2000
   28.0923  -22.0577  -10.2506 N   0  0  0  0  0  0  0  0  0  0  0  0
   27.0274  -21.1057  -10.0057 C   0  0  1  0  0  0  0  0  0  0  0  0
   27.5122  -19.8390   -9.3804 C   0  0  0  0  0  0  0  0  0  0  0  0
   28.4589  -20.1952   -8.2956 C   0  0  0  0  0  0  0  0  0  0  0  0
   29.6943  -20.8120   -8.4023 C   0  0  0  0  0  0  0  0  0  0  0  0
   30.2009  -20.9405   -7.1806 N   0  0  0  0  0  0  0  0  0  0  0  0
   29.3302  -20.4250   -6.2862 C   0  0  0  0  0  0  0  0  0  0  0  0
   29.3620  -20.3051   -4.9114 C   0  0  0  0  0  0  0  0  0  0  0  0
   28.3129  -19.7232   -4.2319 C   0  0  0  0  0  0  0  0  0  0  0  0
   27.2109  -19.2502   -4.9208 C   0  0  0  0  0  0  0  0  0  0  0  0
   27.1484  -19.3562   -6.3079 C   0  0  0  0  0  0  0  0  0  0  0  0
   28.2160  -19.9444   -6.9588 C   0  0  0  0  0  0  0  0  0  0  0  0
   26.2736  -20.8870  -11.2699 C   0  0  0  0  0  0  0  0  0  0  0  0
   26.9332  -20.6757  -12.3202 O   0  0  0  0  0  0  0  0  0  0  0  0
   25.5462  -22.4038  -13.7869 C   0  0  0  0  0  0  0  0  0  0  0  0
   24.1448  -21.9770  -13.4357 C   0  0  1  0  0  0  0  0  0  0  0  0
   23.5932  -22.9607  -12.6011 O   0  0  0  0  0  0  0  0  0  0  0  0
   24.1901  -20.6981  -12.6021 C   0  0  2  0  0  0  0  0  0  0  0  0
   24.8763  -20.9028  -11.3570 N   0  0  0  0  0  0  0  0  0  0  0  0
   22.7853  -20.2694  -12.4174 C   0  0  0  0  0  0  0  0  0  0  0  0
   22.3204  -20.2671  -11.2490 O   0  0  0  0  0  0  0  0  0  0  0  0
   20.7844  -16.3644  -14.2816 N   0  0  0  0  0  0  0  0  0  0  0  0
   20.7442  -17.6205  -14.9306 C   0  0  0  0  0  0  0  0  0  0  0  0
   21.4385  -17.7288  -15.9942 O   0  0  0  0  0  0  0  0  0  0  0  0
   19.9810  -18.7961  -14.4840 C   0  0  0  0  0  0  0  0  0  0  0  0
   20.5726  -19.3680  -13.2509 C   0  0  2  0  0  0  0  0  0  0  0  0
   21.9382  -19.8642  -13.4692 N   0  0  0  0  0  0  0  0  0  0  0  0
   19.7739  -20.4993  -12.7382 C   0  0  0  0  0  0  0  0  0  0  0  0
   18.8325  -20.2858  -11.8998 O   0  0  0  0  0  0  0  0  0  0  0  0
   19.9733  -21.8160  -13.1082 O   0  0  0  0  0  0  0  0  0  0  0  0
  2  1  1  6
  2 13  1  0
  2  3  1  0
  3  4  1  0
  4 12  1  0
  4  5  2  0
  5  6  1  0
  7  6  1  0
  7  8  2  0
  9  8  1  0
 10  9  2  0
 11 12  2  0
 11 10  1  0
 12  7  1  0
 13 19  1  0
 14 13  2  0
 16 15  1  1
 16 17  1  0
 16 18  1  0
 18 20  1  0
 18 19  1  1
 20 27  1  0
 21 20  2  0
 22 23  1  0
 23 24  2  0
 25 23  1  0
 26 25  1  6
 26 28  1  0
 27 26  1  0
 28 29  2  0
 28 30  1  0
M  END
$$$$
