WTN.pdb
     RDKit          3D

 30 31  0  0  1  0  0  0  0  0999 V2000
   23.9640  -34.8199  -13.4986 N   0  0  0  0  0  0  0  0  0  0  0  0
   22.9362  -34.8021  -12.4771 C   0  0  1  0  0  0  0  0  0  0  0  0
   22.2626  -36.1241  -12.3069 C   0  0  0  0  0  0  0  0  0  0  0  0
   21.4952  -36.4113  -13.5432 C   0  0  0  0  0  0  0  0  0  0  0  0
   21.9441  -36.9941  -14.7165 C   0  0  0  0  0  0  0  0  0  0  0  0
   20.9233  -37.0590  -15.5648 N   0  0  0  0  0  0  0  0  0  0  0  0
   19.8268  -36.5355  -14.9753 C   0  0  0  0  0  0  0  0  0  0  0  0
   18.5267  -36.3612  -15.4048 C   0  0  0  0  0  0  0  0  0  0  0  0
   17.5846  -35.7853  -14.5791 C   0  0  0  0  0  0  0  0  0  0  0  0
   17.9306  -35.3732  -13.3051 C   0  0  0  0  0  0  0  0  0  0  0  0
   19.2339  -35.5352  -12.8420 C   0  0  0  0  0  0  0  0  0  0  0  0
   20.1540  -36.1156  -13.6941 C   0  0  0  0  0  0  0  0  0  0  0  0
   23.5178  -34.2710  -11.2146 C   0  0  0  0  0  0  0  0  0  0  0  0
   24.7595  -34.3825  -11.0453 O   0  0  0  0  0  0  0  0  0  0  0  0
   23.4713  -30.7880   -9.7046 C   0  0  0  0  0  0  0  0  0  0  0  0
   22.9099  -31.7420   -8.6828 C   0  0  1  0  0  0  0  0  0  0  0  0
   21.5137  -31.7472   -8.8221 O   0  0  0  0  0  0  0  0  0  0  0  0
   23.3675  -33.1640   -9.0003 C   0  0  2  0  0  0  0  0  0  0  0  0
   22.7644  -33.6562  -10.2074 N   0  0  0  0  0  0  0  0  0  0  0  0
   23.0306  -33.9859   -7.8161 C   0  0  0  0  0  0  0  0  0  0  0  0
   21.9210  -34.5774   -7.8077 O   0  0  0  0  0  0  0  0  0  0  0  0
   25.1494  -33.0352   -3.4796 N   0  0  0  0  0  0  0  0  0  0  0  0
   25.4739  -34.0628   -4.3959 C   0  0  0  0  0  0  0  0  0  0  0  0
   26.5686  -33.9247   -5.0344 O   0  0  0  0  0  0  0  0  0  0  0  0
   24.6656  -35.2618   -4.6662 C   0  0  0  0  0  0  0  0  0  0  0  0
   23.4964  -34.9260   -5.5133 C   0  0  2  0  0  0  0  0  0  0  0  0
   23.8760  -34.1458   -6.6991 N   0  0  0  0  0  0  0  0  0  0  0  0
   22.4964  -34.1327   -4.7708 C   0  0  0  0  0  0  0  0  0  0  0  0
   22.1824  -32.9620   -5.1780 O   0  0  0  0  0  0  0  0  0  0  0  0
   21.8522  -34.5743   -3.6304 O   0  0  0  0  0  0  0  0  0  0  0  0
  2  1  1  6
  2 13  1  0
  2  3  1  0
  3  4  1  0
  4 12  1  0
  4  5  2  0
  5  6  1  0
  7  6  1  0
  7  8  2  0
  9  8  1  0
 10  9  2  0
 11 12  2  0
 11 10  1  0
 12  7  1  0
 13 19  1  0
 14 13  2  0
 16 15  1  6
 16 17  1  0
 16 18  1  0
 18 20  1  0
 18 19  1  6
 20 27  1  0
 21 20  2  0
 22 23  1  0
 23 24  2  0
 25 23  1  0
 26 25  1  1
 26 28  1  0
 27 26  1  0
 28 29  2  0
 28 30  1  0
M  END
$$$$
