WTN.pdb
     RDKit          3D

 30 31  0  0  1  0  0  0  0  0999 V2000
   27.5084  -22.0273  -13.1309 N   0  0  0  0  0  0  0  0  0  0  0  0
   26.4743  -21.3521  -12.3727 C   0  0  1  0  0  0  0  0  0  0  0  0
   26.9710  -20.1303  -11.6719 C   0  0  0  0  0  0  0  0  0  0  0  0
   27.9503  -20.5571  -10.6429 C   0  0  0  0  0  0  0  0  0  0  0  0
   29.2363  -21.0364  -10.8280 C   0  0  0  0  0  0  0  0  0  0  0  0
   29.7571  -21.2994   -9.6341 N   0  0  0  0  0  0  0  0  0  0  0  0
   28.8464  -21.0044   -8.6815 C   0  0  0  0  0  0  0  0  0  0  0  0
   28.8723  -21.0886   -7.3041 C   0  0  0  0  0  0  0  0  0  0  0  0
   27.7771  -20.7122   -6.5559 C   0  0  0  0  0  0  0  0  0  0  0  0
   26.6339  -20.2436   -7.1775 C   0  0  0  0  0  0  0  0  0  0  0  0
   26.5762  -20.1466   -8.5654 C   0  0  0  0  0  0  0  0  0  0  0  0
   27.6905  -20.5318   -9.2861 C   0  0  0  0  0  0  0  0  0  0  0  0
   25.3140  -21.0874  -13.2659 C   0  0  0  0  0  0  0  0  0  0  0  0
   25.4526  -20.2260  -14.1724 O   0  0  0  0  0  0  0  0  0  0  0  0
   24.1702  -22.5792  -16.0261 C   0  0  0  0  0  0  0  0  0  0  0  0
   22.9550  -22.6417  -15.1381 C   0  0  1  0  0  0  0  0  0  0  0  0
   23.0131  -23.8429  -14.4153 O   0  0  0  0  0  0  0  0  0  0  0  0
   23.0191  -21.5244  -14.0989 C   0  0  2  0  0  0  0  0  0  0  0  0
   24.0803  -21.7403  -13.1554 N   0  0  0  0  0  0  0  0  0  0  0  0
   21.6856  -21.4724  -13.4580 C   0  0  0  0  0  0  0  0  0  0  0  0
   21.5196  -22.1209  -12.3935 O   0  0  0  0  0  0  0  0  0  0  0  0
   18.7023  -18.4744  -11.6127 N   0  0  0  0  0  0  0  0  0  0  0  0
   18.1802  -18.5481  -12.9252 C   0  0  0  0  0  0  0  0  0  0  0  0
   17.4557  -17.5686  -13.3003 O   0  0  0  0  0  0  0  0  0  0  0  0
   18.4039  -19.6444  -13.8802 C   0  0  0  0  0  0  0  0  0  0  0  0
   19.2884  -20.6790  -13.2930 C   0  0  2  0  0  0  0  0  0  0  0  0
   20.5925  -20.7418  -13.9671 N   0  0  0  0  0  0  0  0  0  0  0  0
   18.6859  -22.0243  -13.3820 C   0  0  0  0  0  0  0  0  0  0  0  0
   18.8755  -22.7392  -14.4249 O   0  0  0  0  0  0  0  0  0  0  0  0
   17.9062  -22.5885  -12.3899 O   0  0  0  0  0  0  0  0  0  0  0  0
  2  1  1  6
  2 13  1  0
  2  3  1  0
  3  4  1  0
  4 12  1  0
  4  5  2  0
  5  6  1  0
  7  6  1  0
  7  8  2  0
  9  8  1  0
 10  9  2  0
 11 12  2  0
 11 10  1  0
 12  7  1  0
 13 19  1  0
 14 13  2  0
 16 15  1  6
 16 17  1  0
 16 18  1  0
 18 20  1  0
 18 19  1  1
 20 27  1  0
 21 20  2  0
 22 23  1  0
 23 24  2  0
 25 23  1  0
 26 25  1  6
 26 28  1  0
 27 26  1  0
 28 29  2  0
 28 30  1  0
M  END
$$$$
