WTN.pdb
     RDKit          3D

 30 31  0  0  1  0  0  0  0  0999 V2000
   27.8107  -20.1660   -9.7105 N   0  0  0  0  0  0  0  0  0  0  0  0
   26.5509  -20.8748   -9.6067 C   0  0  1  0  0  0  0  0  0  0  0  0
   25.8245  -20.5864   -8.3341 C   0  0  0  0  0  0  0  0  0  0  0  0
   26.7338  -19.8169   -7.4503 C   0  0  0  0  0  0  0  0  0  0  0  0
   27.0785  -18.4780   -7.5297 C   0  0  0  0  0  0  0  0  0  0  0  0
   27.9212  -18.2068   -6.5387 N   0  0  0  0  0  0  0  0  0  0  0  0
   28.1322  -19.3306   -5.8200 C   0  0  0  0  0  0  0  0  0  0  0  0
   28.9043  -19.5988   -4.7077 C   0  0  0  0  0  0  0  0  0  0  0  0
   28.9379  -20.8653   -4.1638 C   0  0  0  0  0  0  0  0  0  0  0  0
   28.1959  -21.8875   -4.7272 C   0  0  0  0  0  0  0  0  0  0  0  0
   27.4070  -21.6492   -5.8497 C   0  0  0  0  0  0  0  0  0  0  0  0
   27.3953  -20.3693   -6.3704 C   0  0  0  0  0  0  0  0  0  0  0  0
   25.7392  -20.5997  -10.8231 C   0  0  0  0  0  0  0  0  0  0  0  0
   25.2940  -19.4339  -10.9831 O   0  0  0  0  0  0  0  0  0  0  0  0
   26.5452  -21.7962  -14.5082 C   0  0  0  0  0  0  0  0  0  0  0  0
   25.1080  -22.0913  -14.1667 C   0  0  1  0  0  0  0  0  0  0  0  0
   25.0338  -23.4256  -13.7392 O   0  0  0  0  0  0  0  0  0  0  0  0
   24.6789  -21.2440  -12.9707 C   0  0  2  0  0  0  0  0  0  0  0  0
   25.4434  -21.5613  -11.7968 N   0  0  0  0  0  0  0  0  0  0  0  0
   23.2287  -21.4799  -12.7900 C   0  0  0  0  0  0  0  0  0  0  0  0
   22.8051  -21.6684  -11.6210 O   0  0  0  0  0  0  0  0  0  0  0  0
   20.2678  -19.5140  -10.6473 N   0  0  0  0  0  0  0  0  0  0  0  0
   19.9264  -20.4056  -11.6910 C   0  0  0  0  0  0  0  0  0  0  0  0
   19.2152  -21.4116  -11.3640 O   0  0  0  0  0  0  0  0  0  0  0  0
   20.3162  -20.2677  -13.1028 C   0  0  0  0  0  0  0  0  0  0  0  0
   20.8424  -21.5496  -13.6292 C   0  0  2  0  0  0  0  0  0  0  0  0
   22.2950  -21.5060  -13.8461 N   0  0  0  0  0  0  0  0  0  0  0  0
   20.2189  -21.9048  -14.9199 C   0  0  0  0  0  0  0  0  0  0  0  0
   19.1273  -22.5702  -14.9380 O   0  0  0  0  0  0  0  0  0  0  0  0
   20.7434  -21.5610  -16.1516 O   0  0  0  0  0  0  0  0  0  0  0  0
  2  1  1  6
  2 13  1  0
  2  3  1  0
  3  4  1  0
  4 12  1  0
  4  5  2  0
  5  6  1  0
  7  6  1  0
  7  8  2  0
  9  8  1  0
 10  9  2  0
 11 12  2  0
 11 10  1  0
 12  7  1  0
 13 19  1  0
 14 13  2  0
 16 15  1  1
 16 17  1  0
 16 18  1  0
 18 20  1  0
 18 19  1  1
 20 27  1  0
 21 20  2  0
 22 23  1  0
 23 24  2  0
 25 23  1  0
 26 25  1  6
 26 28  1  0
 27 26  1  0
 28 29  2  0
 28 30  1  0
M  END
$$$$
