WTN.pdb
     RDKit          3D

 30 31  0  0  1  0  0  0  0  0999 V2000
   26.0401  -21.3509  -17.4671 N   0  0  0  0  0  0  0  0  0  0  0  0
   27.1461  -21.7891  -16.6394 C   0  0  1  0  0  0  0  0  0  0  0  0
   26.7842  -21.8966  -15.1944 C   0  0  0  0  0  0  0  0  0  0  0  0
   26.0441  -20.6689  -14.8137 C   0  0  0  0  0  0  0  0  0  0  0  0
   24.8039  -20.5678  -14.2059 C   0  0  0  0  0  0  0  0  0  0  0  0
   24.5219  -19.2786  -14.0500 N   0  0  0  0  0  0  0  0  0  0  0  0
   25.5429  -18.5421  -14.5389 C   0  0  0  0  0  0  0  0  0  0  0  0
   25.7579  -17.1813  -14.6248 C   0  0  0  0  0  0  0  0  0  0  0  0
   26.9168  -16.6865  -15.1844 C   0  0  0  0  0  0  0  0  0  0  0  0
   27.8827  -17.5498  -15.6688 C   0  0  0  0  0  0  0  0  0  0  0  0
   27.6958  -18.9278  -15.5969 C   0  0  0  0  0  0  0  0  0  0  0  0
   26.5237  -19.3914  -15.0304 C   0  0  0  0  0  0  0  0  0  0  0  0
   27.7020  -23.0494  -17.2022 C   0  0  0  0  0  0  0  0  0  0  0  0
   27.0532  -23.6240  -18.1143 O   0  0  0  0  0  0  0  0  0  0  0  0
   31.5595  -23.4424  -17.8072 C   0  0  0  0  0  0  0  0  0  0  0  0
   31.0070  -24.7596  -17.3286 C   0  0  1  0  0  0  0  0  0  0  0  0
   31.2799  -24.8661  -15.9564 O   0  0  0  0  0  0  0  0  0  0  0  0
   29.4850  -24.7551  -17.4536 C   0  0  2  0  0  0  0  0  0  0  0  0
   28.9023  -23.6307  -16.7759 N   0  0  0  0  0  0  0  0  0  0  0  0
   29.0174  -26.0525  -16.9155 C   0  0  0  0  0  0  0  0  0  0  0  0
   28.3414  -26.0397  -15.8553 O   0  0  0  0  0  0  0  0  0  0  0  0
   26.5452  -30.4270  -15.3461 N   0  0  0  0  0  0  0  0  0  0  0  0
   26.8664  -30.0265  -16.6641 C   0  0  0  0  0  0  0  0  0  0  0  0
   26.7512  -30.9173  -17.5687 O   0  0  0  0  0  0  0  0  0  0  0  0
   27.3129  -28.6853  -17.0715 C   0  0  0  0  0  0  0  0  0  0  0  0
   28.7878  -28.5719  -16.9753 C   0  0  2  0  0  0  0  0  0  0  0  0
   29.2830  -27.2994  -17.5178 N   0  0  0  0  0  0  0  0  0  0  0  0
   29.4662  -29.6551  -17.7150 C   0  0  0  0  0  0  0  0  0  0  0  0
   29.7567  -29.4979  -18.9502 O   0  0  0  0  0  0  0  0  0  0  0  0
   29.8231  -30.8672  -17.1546 O   0  0  0  0  0  0  0  0  0  0  0  0
  2  1  1  6
  2 13  1  0
  2  3  1  0
  3  4  1  0
  4 12  1  0
  4  5  2  0
  5  6  1  0
  7  6  1  0
  7  8  2  0
  9  8  1  0
 10  9  2  0
 11 12  2  0
 11 10  1  0
 12  7  1  0
 13 19  1  0
 14 13  2  0
 16 15  1  1
 16 17  1  0
 16 18  1  0
 18 20  1  0
 18 19  1  1
 20 27  1  0
 21 20  2  0
 22 23  1  0
 23 24  2  0
 25 23  1  0
 26 25  1  6
 26 28  1  0
 27 26  1  0
 28 29  2  0
 28 30  1  0
M  END
$$$$
