WTN.pdb
     RDKit          3D

 30 31  0  0  1  0  0  0  0  0999 V2000
   28.2489  -21.5844  -16.2705 N   0  0  0  0  0  0  0  0  0  0  0  0
   27.2099  -20.6418  -15.9070 C   0  0  1  0  0  0  0  0  0  0  0  0
   26.4373  -20.1453  -17.0848 C   0  0  0  0  0  0  0  0  0  0  0  0
   27.3677  -19.3912  -17.9598 C   0  0  0  0  0  0  0  0  0  0  0  0
   27.9521  -19.8007  -19.1466 C   0  0  0  0  0  0  0  0  0  0  0  0
   28.7169  -18.8112  -19.5958 N   0  0  0  0  0  0  0  0  0  0  0  0
   28.6447  -17.7731  -18.7349 C   0  0  0  0  0  0  0  0  0  0  0  0
   29.2310  -16.5235  -18.7246 C   0  0  0  0  0  0  0  0  0  0  0  0
   28.9788  -15.6369  -17.6992 C   0  0  0  0  0  0  0  0  0  0  0  0
   28.1321  -15.9888  -16.6638 C   0  0  0  0  0  0  0  0  0  0  0  0
   27.5251  -17.2419  -16.6451 C   0  0  0  0  0  0  0  0  0  0  0  0
   27.7986  -18.1071  -17.6873 C   0  0  0  0  0  0  0  0  0  0  0  0
   26.3519  -21.2495  -14.8541 C   0  0  0  0  0  0  0  0  0  0  0  0
   26.2928  -22.5049  -14.7941 O   0  0  0  0  0  0  0  0  0  0  0  0
   26.8020  -21.7985  -11.7153 C   0  0  0  0  0  0  0  0  0  0  0  0
   25.4271  -21.1970  -11.5839 C   0  0  1  0  0  0  0  0  0  0  0  0
   25.5792  -19.8652  -11.1696 O   0  0  0  0  0  0  0  0  0  0  0  0
   24.7595  -21.1349  -12.9561 C   0  0  2  0  0  0  0  0  0  0  0  0
   25.6087  -20.5063  -13.9291 N   0  0  0  0  0  0  0  0  0  0  0  0
   23.4787  -20.4173  -12.7658 C   0  0  0  0  0  0  0  0  0  0  0  0
   23.4717  -19.1717  -12.9384 O   0  0  0  0  0  0  0  0  0  0  0  0
   18.8831  -21.2807  -15.8538 N   0  0  0  0  0  0  0  0  0  0  0  0
   19.8373  -20.4758  -15.1886 C   0  0  0  0  0  0  0  0  0  0  0  0
   19.5975  -19.2242  -15.1589 O   0  0  0  0  0  0  0  0  0  0  0  0
   21.0639  -20.9577  -14.5350 C   0  0  0  0  0  0  0  0  0  0  0  0
   20.9896  -20.7581  -13.0680 C   0  0  2  0  0  0  0  0  0  0  0  0
   22.2685  -21.0435  -12.4036 N   0  0  0  0  0  0  0  0  0  0  0  0
   19.9723  -21.6327  -12.4508 C   0  0  0  0  0  0  0  0  0  0  0  0
   20.1280  -22.9016  -12.4687 O   0  0  0  0  0  0  0  0  0  0  0  0
   18.8257  -21.1682  -11.8342 O   0  0  0  0  0  0  0  0  0  0  0  0
  2  1  1  6
  2 13  1  0
  2  3  1  0
  3  4  1  0
  4 12  1  0
  4  5  2  0
  5  6  1  0
  7  6  1  0
  7  8  2  0
  9  8  1  0
 10  9  2  0
 11 12  2  0
 11 10  1  0
 12  7  1  0
 13 19  1  0
 14 13  2  0
 16 15  1  6
 16 17  1  0
 16 18  1  0
 18 20  1  0
 18 19  1  6
 20 27  1  0
 21 20  2  0
 22 23  1  0
 23 24  2  0
 25 23  1  0
 26 25  1  6
 26 28  1  0
 27 26  1  0
 28 29  2  0
 28 30  1  0
M  END
$$$$
