QCE.pdb
     RDKit          3D

 25 24  0  0  1  0  0  0  0  0999 V2000
   17.9106  -12.4078  -14.4089 N   0  0  0  0  0  0  0  0  0  0  0  0
   18.6097  -12.9658  -15.5045 C   0  0  0  0  0  0  0  0  0  0  0  0
   18.5801  -14.2051  -15.6626 O   0  0  0  0  0  0  0  0  0  0  0  0
   19.3499  -12.1072  -16.4319 C   0  0  0  0  0  0  0  0  0  0  0  0
   19.1957  -10.6396  -16.2307 C   0  0  0  0  0  0  0  0  0  0  0  0
   20.4577   -9.8341  -16.3288 C   0  0  2  0  0  0  0  0  0  0  0  0
   21.5938  -10.7025  -16.1406 N   0  0  0  0  0  0  0  0  0  0  0  0
   20.3651   -8.7294  -15.3657 C   0  0  0  0  0  0  0  0  0  0  0  0
   20.2723   -9.0309  -14.1434 O   0  0  0  0  0  0  0  0  0  0  0  0
   20.3665   -7.3469  -15.6676 N   0  0  0  0  0  0  0  0  0  0  0  0
   20.6814   -6.3392  -14.6649 C   0  0  1  0  0  0  0  0  0  0  0  0
   22.0451   -6.6678  -14.1237 C   0  0  0  0  0  0  0  0  0  0  0  0
   22.6930   -5.3866  -13.0418 S   0  0  0  0  0  0  0  0  0  0  0  0
   20.5810   -4.9771  -15.2266 C   0  0  0  0  0  0  0  0  0  0  0  0
   21.2480   -4.6420  -16.2255 O   0  0  0  0  0  0  0  0  0  0  0  0
   19.7141   -3.9723  -14.6525 N   0  0  0  0  0  0  0  0  0  0  0  0
   19.5666   -2.6515  -15.2621 C   0  0  1  0  0  0  0  0  0  0  0  0
   18.2036   -2.1309  -14.8646 C   0  0  0  0  0  0  0  0  0  0  0  0
   17.0652   -2.9628  -15.4172 C   0  0  0  0  0  0  0  0  0  0  0  0
   15.7743   -2.3540  -14.9852 C   0  0  0  0  0  0  0  0  0  0  0  0
   15.8174   -1.3866  -14.1621 O   0  0  0  0  0  0  0  0  0  0  0  0
   20.6619   -1.7575  -14.8370 C   0  0  0  0  0  0  0  0  0  0  0  0
   21.2875   -2.0273  -13.7724 O   0  0  0  0  0  0  0  0  0  0  0  0
   14.5658   -2.8123  -15.4563 O   0  0  0  0  0  0  0  0  0  0  0  0
   21.0444   -0.6346  -15.5449 O   0  0  0  0  0  0  0  0  0  0  0  0
  2  4  1  0
  2  1  1  0
  3  2  2  0
  5  4  1  0
  5  6  1  0
  6  7  1  1
  8  6  1  0
  9  8  2  0
 10  8  1  0
 11 10  1  0
 11 14  1  0
 11 12  1  6
 13 12  1  0
 14 16  1  0
 15 14  2  0
 16 17  1  0
 17 18  1  1
 17 22  1  0
 19 20  1  0
 19 18  1  0
 20 24  1  0
 21 20  2  0
 22 23  2  0
 22 25  1  0
M  END
$$$$
