QCE.pdb
     RDKit          3D

 25 24  0  0  1  0  0  0  0  0999 V2000
   23.2252  -14.7168  -17.2522 N   0  0  0  0  0  0  0  0  0  0  0  0
   24.6007  -14.8618  -17.5480 C   0  0  0  0  0  0  0  0  0  0  0  0
   25.0892  -16.0119  -17.5663 O   0  0  0  0  0  0  0  0  0  0  0  0
   25.4309  -13.6879  -17.8274 C   0  0  0  0  0  0  0  0  0  0  0  0
   24.7172  -12.3827  -17.8979 C   0  0  0  0  0  0  0  0  0  0  0  0
   25.0006  -11.4256  -16.7777 C   0  0  2  0  0  0  0  0  0  0  0  0
   25.1072  -12.1582  -15.5398 N   0  0  0  0  0  0  0  0  0  0  0  0
   23.9566  -10.3929  -16.7902 C   0  0  0  0  0  0  0  0  0  0  0  0
   23.8450   -9.6926  -17.8345 O   0  0  0  0  0  0  0  0  0  0  0  0
   23.0541  -10.0955  -15.7417 N   0  0  0  0  0  0  0  0  0  0  0  0
   22.0382   -9.0602  -15.8695 C   0  0  1  0  0  0  0  0  0  0  0  0
   20.7411   -9.6553  -15.3964 C   0  0  0  0  0  0  0  0  0  0  0  0
   20.8831  -11.3997  -14.9859 S   0  0  0  0  0  0  0  0  0  0  0  0
   22.4278   -7.8366  -15.1401 C   0  0  0  0  0  0  0  0  0  0  0  0
   23.1101   -7.8982  -14.0980 O   0  0  0  0  0  0  0  0  0  0  0  0
   22.0413   -6.5183  -15.5913 N   0  0  0  0  0  0  0  0  0  0  0  0
   22.5273   -5.3101  -14.9266 C   0  0  1  0  0  0  0  0  0  0  0  0
   22.3185   -4.1620  -15.8885 C   0  0  0  0  0  0  0  0  0  0  0  0
   22.7669   -2.8283  -15.3284 C   0  0  0  0  0  0  0  0  0  0  0  0
   22.4607   -1.7633  -16.3262 C   0  0  0  0  0  0  0  0  0  0  0  0
   22.0795   -2.1229  -17.4841 O   0  0  0  0  0  0  0  0  0  0  0  0
   21.8300   -5.1077  -13.6412 C   0  0  0  0  0  0  0  0  0  0  0  0
   20.6334   -5.4996  -13.5311 O   0  0  0  0  0  0  0  0  0  0  0  0
   22.5795   -0.4280  -16.0173 O   0  0  0  0  0  0  0  0  0  0  0  0
   22.4183   -4.5103  -12.5433 O   0  0  0  0  0  0  0  0  0  0  0  0
  2  4  1  0
  2  1  1  0
  3  2  2  0
  5  4  1  0
  5  6  1  0
  6  7  1  1
  8  6  1  0
  9  8  2  0
 10  8  1  0
 11 10  1  0
 11 14  1  0
 11 12  1  1
 13 12  1  0
 14 16  1  0
 15 14  2  0
 16 17  1  0
 17 18  1  6
 17 22  1  0
 19 20  1  0
 19 18  1  0
 20 24  1  0
 21 20  2  0
 22 23  2  0
 22 25  1  0
M  END
$$$$
