QCE.pdb
     RDKit          3D

 25 24  0  0  1  0  0  0  0  0999 V2000
   28.2297  -10.6196  -16.0753 N   0  0  0  0  0  0  0  0  0  0  0  0
   28.3584  -12.0230  -16.1936 C   0  0  0  0  0  0  0  0  0  0  0  0
   29.5024  -12.5237  -16.1432 O   0  0  0  0  0  0  0  0  0  0  0  0
   27.1752  -12.8681  -16.3700 C   0  0  0  0  0  0  0  0  0  0  0  0
   25.8647  -12.1613  -16.4032 C   0  0  0  0  0  0  0  0  0  0  0  0
   24.7242  -12.8755  -15.7397 C   0  0  2  0  0  0  0  0  0  0  0  0
   24.6016  -14.2000  -16.2973 N   0  0  0  0  0  0  0  0  0  0  0  0
   23.5249  -12.0392  -15.8784 C   0  0  0  0  0  0  0  0  0  0  0  0
   22.5450  -12.5288  -16.5055 O   0  0  0  0  0  0  0  0  0  0  0  0
   23.3517  -10.7265  -15.3793 N   0  0  0  0  0  0  0  0  0  0  0  0
   22.0762  -10.0298  -15.4689 C   0  0  1  0  0  0  0  0  0  0  0  0
   21.0799  -10.8323  -14.6791 C   0  0  0  0  0  0  0  0  0  0  0  0
   19.5469   -9.9418  -14.3814 S   0  0  0  0  0  0  0  0  0  0  0  0
   22.1994   -8.6296  -15.0157 C   0  0  0  0  0  0  0  0  0  0  0  0
   22.6677   -8.3553  -13.8930 O   0  0  0  0  0  0  0  0  0  0  0  0
   21.7866   -7.5167  -15.8414 N   0  0  0  0  0  0  0  0  0  0  0  0
   22.0301   -6.1331  -15.4364 C   0  0  1  0  0  0  0  0  0  0  0  0
   22.2763   -5.3395  -16.7000 C   0  0  0  0  0  0  0  0  0  0  0  0
   22.4946   -3.8633  -16.4417 C   0  0  0  0  0  0  0  0  0  0  0  0
   22.7840   -3.1884  -17.7395 C   0  0  0  0  0  0  0  0  0  0  0  0
   23.9354   -3.3510  -18.2524 O   0  0  0  0  0  0  0  0  0  0  0  0
   20.8927   -5.6131  -14.6521 C   0  0  0  0  0  0  0  0  0  0  0  0
   19.7339   -6.0545  -14.8969 O   0  0  0  0  0  0  0  0  0  0  0  0
   21.8431   -2.4124  -18.3760 O   0  0  0  0  0  0  0  0  0  0  0  0
   21.0264   -4.6645  -13.6567 O   0  0  0  0  0  0  0  0  0  0  0  0
  2  4  1  0
  2  1  1  0
  3  2  2  0
  5  4  1  0
  5  6  1  0
  6  7  1  6
  8  6  1  0
  9  8  2  0
 10  8  1  0
 11 10  1  0
 11 14  1  0
 11 12  1  1
 13 12  1  0
 14 16  1  0
 15 14  2  0
 16 17  1  0
 17 18  1  6
 17 22  1  0
 19 20  1  0
 19 18  1  0
 20 24  1  0
 21 20  2  0
 22 23  2  0
 22 25  1  0
M  END
$$$$
