QCE.pdb
     RDKit          3D

 25 24  0  0  1  0  0  0  0  0999 V2000
   25.7675  -13.4359  -15.8298 N   0  0  0  0  0  0  0  0  0  0  0  0
   25.7513  -12.0656  -16.1796 C   0  0  0  0  0  0  0  0  0  0  0  0
   26.7258  -11.3547  -15.8528 O   0  0  0  0  0  0  0  0  0  0  0  0
   24.6164  -11.4959  -16.9096 C   0  0  0  0  0  0  0  0  0  0  0  0
   23.5260  -12.4445  -17.2688 C   0  0  0  0  0  0  0  0  0  0  0  0
   22.3287  -12.4309  -16.3647 C   0  0  2  0  0  0  0  0  0  0  0  0
   21.4277  -13.4890  -16.7502 N   0  0  0  0  0  0  0  0  0  0  0  0
   21.7453  -11.0838  -16.4072 C   0  0  0  0  0  0  0  0  0  0  0  0
   21.3734  -10.6474  -17.5317 O   0  0  0  0  0  0  0  0  0  0  0  0
   21.5563  -10.2131  -15.3079 N   0  0  0  0  0  0  0  0  0  0  0  0
   20.8572   -8.9429  -15.4419 C   0  0  1  0  0  0  0  0  0  0  0  0
   19.5269   -9.0983  -14.7591 C   0  0  0  0  0  0  0  0  0  0  0  0
   19.6815   -9.5369  -13.0226 S   0  0  0  0  0  0  0  0  0  0  0  0
   21.6677   -7.8285  -14.9104 C   0  0  0  0  0  0  0  0  0  0  0  0
   22.5008   -8.0149  -14.0014 O   0  0  0  0  0  0  0  0  0  0  0  0
   21.5373   -6.4781  -15.4106 N   0  0  0  0  0  0  0  0  0  0  0  0
   22.3058   -5.3738  -14.8384 C   0  0  1  0  0  0  0  0  0  0  0  0
   22.8573   -4.5724  -15.9963 C   0  0  0  0  0  0  0  0  0  0  0  0
   23.5461   -3.2958  -15.5611 C   0  0  0  0  0  0  0  0  0  0  0  0
   24.0320   -2.5772  -16.7739 C   0  0  0  0  0  0  0  0  0  0  0  0
   23.6647   -1.3718  -16.9400 O   0  0  0  0  0  0  0  0  0  0  0  0
   21.4610   -4.5636  -13.9388 C   0  0  0  0  0  0  0  0  0  0  0  0
   20.2110   -4.5526  -14.1261 O   0  0  0  0  0  0  0  0  0  0  0  0
   24.8555   -3.1855  -17.6928 O   0  0  0  0  0  0  0  0  0  0  0  0
   21.9650   -3.8123  -12.8949 O   0  0  0  0  0  0  0  0  0  0  0  0
  2  4  1  0
  2  1  1  0
  3  2  2  0
  5  4  1  0
  5  6  1  0
  6  7  1  6
  8  6  1  0
  9  8  2  0
 10  8  1  0
 11 10  1  0
 11 14  1  0
 11 12  1  1
 13 12  1  0
 14 16  1  0
 15 14  2  0
 16 17  1  0
 17 18  1  6
 17 22  1  0
 19 20  1  0
 19 18  1  0
 20 24  1  0
 21 20  2  0
 22 23  2  0
 22 25  1  0
M  END
$$$$
