QCE.pdb
     RDKit          3D

 25 24  0  0  1  0  0  0  0  0999 V2000
   17.5694  -14.5506  -15.8236 N   0  0  0  0  0  0  0  0  0  0  0  0
   17.4687  -14.2025  -17.1907 C   0  0  0  0  0  0  0  0  0  0  0  0
   16.7974  -14.9379  -17.9459 O   0  0  0  0  0  0  0  0  0  0  0  0
   18.1364  -13.0052  -17.7063 C   0  0  0  0  0  0  0  0  0  0  0  0
   18.8895  -12.1946  -16.7093 C   0  0  0  0  0  0  0  0  0  0  0  0
   20.3762  -12.1418  -16.9045 C   0  0  2  0  0  0  0  0  0  0  0  0
   20.9428  -13.4339  -16.6052 N   0  0  0  0  0  0  0  0  0  0  0  0
   20.9005  -11.0392  -16.0883 C   0  0  0  0  0  0  0  0  0  0  0  0
   20.3682  -10.8481  -14.9598 O   0  0  0  0  0  0  0  0  0  0  0  0
   21.9500  -10.1573  -16.4391 N   0  0  0  0  0  0  0  0  0  0  0  0
   22.4464   -9.1448  -15.5179 C   0  0  1  0  0  0  0  0  0  0  0  0
   23.9212   -9.3854  -15.3524 C   0  0  0  0  0  0  0  0  0  0  0  0
   24.2858  -10.7078  -14.1904 S   0  0  0  0  0  0  0  0  0  0  0  0
   22.1190   -7.7849  -15.9919 C   0  0  0  0  0  0  0  0  0  0  0  0
   22.3071   -7.4546  -17.1796 O   0  0  0  0  0  0  0  0  0  0  0  0
   21.5705   -6.7770  -15.1121 N   0  0  0  0  0  0  0  0  0  0  0  0
   21.2436   -5.4365  -15.5958 C   0  0  1  0  0  0  0  0  0  0  0  0
   19.9349   -5.0405  -14.9497 C   0  0  0  0  0  0  0  0  0  0  0  0
   19.5058   -3.6291  -15.2926 C   0  0  0  0  0  0  0  0  0  0  0  0
   18.2423   -3.3227  -14.5625 C   0  0  0  0  0  0  0  0  0  0  0  0
   18.2839   -2.4510  -13.6385 O   0  0  0  0  0  0  0  0  0  0  0  0
   22.3364   -4.4923  -15.2896 C   0  0  0  0  0  0  0  0  0  0  0  0
   23.0033   -4.6588  -14.2288 O   0  0  0  0  0  0  0  0  0  0  0  0
   17.0590   -3.9536  -14.8697 O   0  0  0  0  0  0  0  0  0  0  0  0
   22.6736   -3.4298  -16.1053 O   0  0  0  0  0  0  0  0  0  0  0  0
  2  4  1  0
  2  1  1  0
  3  2  2  0
  5  4  1  0
  5  6  1  0
  6  7  1  1
  8  6  1  0
  9  8  2  0
 10  8  1  0
 11 10  1  0
 11 14  1  0
 11 12  1  6
 13 12  1  0
 14 16  1  0
 15 14  2  0
 16 17  1  0
 17 18  1  1
 17 22  1  0
 19 20  1  0
 19 18  1  0
 20 24  1  0
 21 20  2  0
 22 23  2  0
 22 25  1  0
M  END
$$$$
