QCE.pdb
     RDKit          3D

 25 24  0  0  1  0  0  0  0  0999 V2000
   22.3617  -13.9850  -21.6226 N   0  0  0  0  0  0  0  0  0  0  0  0
   22.1354  -12.7359  -20.9992 C   0  0  0  0  0  0  0  0  0  0  0  0
   22.8558  -11.7676  -21.3238 O   0  0  0  0  0  0  0  0  0  0  0  0
   21.0785  -12.5835  -19.9967 C   0  0  0  0  0  0  0  0  0  0  0  0
   21.4184  -11.7540  -18.8074 C   0  0  0  0  0  0  0  0  0  0  0  0
   22.5729  -12.2424  -17.9830 C   0  0  2  0  0  0  0  0  0  0  0  0
   22.2433  -13.5260  -17.4137 N   0  0  0  0  0  0  0  0  0  0  0  0
   22.8983  -11.2016  -16.9993 C   0  0  0  0  0  0  0  0  0  0  0  0
   22.1380  -11.0911  -15.9978 O   0  0  0  0  0  0  0  0  0  0  0  0
   23.9856  -10.2979  -17.0583 N   0  0  0  0  0  0  0  0  0  0  0  0
   24.2712   -9.3640  -15.9783 C   0  0  1  0  0  0  0  0  0  0  0  0
   25.7670   -9.2822  -15.8510 C   0  0  0  0  0  0  0  0  0  0  0  0
   26.5114  -10.8435  -15.3609 S   0  0  0  0  0  0  0  0  0  0  0  0
   23.6262   -8.0572  -16.2177 C   0  0  0  0  0  0  0  0  0  0  0  0
   23.7317   -7.4792  -17.3177 O   0  0  0  0  0  0  0  0  0  0  0  0
   22.8484   -7.3873  -15.1994 N   0  0  0  0  0  0  0  0  0  0  0  0
   22.2462   -6.0763  -15.4367 C   0  0  1  0  0  0  0  0  0  0  0  0
   20.7581   -6.2953  -15.5939 C   0  0  0  0  0  0  0  0  0  0  0  0
   19.9907   -5.0123  -15.8357 C   0  0  0  0  0  0  0  0  0  0  0  0
   18.5572   -5.3494  -16.0702 C   0  0  0  0  0  0  0  0  0  0  0  0
   17.6999   -4.4177  -15.9597 O   0  0  0  0  0  0  0  0  0  0  0  0
   22.5701   -5.1483  -14.3351 C   0  0  0  0  0  0  0  0  0  0  0  0
   22.8369   -5.6273  -13.1963 O   0  0  0  0  0  0  0  0  0  0  0  0
   18.1593   -6.6244  -16.3996 O   0  0  0  0  0  0  0  0  0  0  0  0
   22.5991   -3.7751  -14.4821 O   0  0  0  0  0  0  0  0  0  0  0  0
  2  4  1  0
  2  1  1  0
  3  2  2  0
  5  4  1  0
  5  6  1  0
  6  7  1  1
  8  6  1  0
  9  8  2  0
 10  8  1  0
 11 10  1  0
 11 14  1  0
 11 12  1  6
 13 12  1  0
 14 16  1  0
 15 14  2  0
 16 17  1  0
 17 18  1  1
 17 22  1  0
 19 20  1  0
 19 18  1  0
 20 24  1  0
 21 20  2  0
 22 23  2  0
 22 25  1  0
M  END
$$$$
