QCE.pdb
     RDKit          3D

 25 24  0  0  1  0  0  0  0  0999 V2000
   14.6545  -15.0924  -12.1189 N   0  0  0  0  0  0  0  0  0  0  0  0
   14.7607  -13.7660  -12.5981 C   0  0  0  0  0  0  0  0  0  0  0  0
   13.8455  -13.3178  -13.3215 O   0  0  0  0  0  0  0  0  0  0  0  0
   15.9185  -12.9386  -12.2515 C   0  0  0  0  0  0  0  0  0  0  0  0
   15.6439  -11.4938  -12.0159 C   0  0  0  0  0  0  0  0  0  0  0  0
   14.8840  -11.1727  -10.7628 C   0  0  2  0  0  0  0  0  0  0  0  0
   13.5855  -11.7980  -10.8187 N   0  0  0  0  0  0  0  0  0  0  0  0
   14.8543   -9.7119  -10.6138 C   0  0  0  0  0  0  0  0  0  0  0  0
   14.1001   -9.0642  -11.3916 O   0  0  0  0  0  0  0  0  0  0  0  0
   15.5925   -8.9457   -9.6809 N   0  0  0  0  0  0  0  0  0  0  0  0
   15.4528   -7.4993   -9.5892 C   0  0  1  0  0  0  0  0  0  0  0  0
   15.0841   -7.1819   -8.1666 C   0  0  0  0  0  0  0  0  0  0  0  0
   15.2830   -5.4405   -7.7668 S   0  0  0  0  0  0  0  0  0  0  0  0
   16.6775   -6.8140  -10.0492 C   0  0  0  0  0  0  0  0  0  0  0  0
   17.7945   -7.1072   -9.5785 O   0  0  0  0  0  0  0  0  0  0  0  0
   16.6446   -5.7782  -11.0575 N   0  0  0  0  0  0  0  0  0  0  0  0
   17.8563   -5.0670  -11.4623 C   0  0  1  0  0  0  0  0  0  0  0  0
   18.6709   -6.0246  -12.3027 C   0  0  0  0  0  0  0  0  0  0  0  0
   19.9088   -5.3872  -12.8985 C   0  0  0  0  0  0  0  0  0  0  0  0
   20.6743   -6.4304  -13.6397 C   0  0  0  0  0  0  0  0  0  0  0  0
   21.2937   -7.3095  -12.9623 O   0  0  0  0  0  0  0  0  0  0  0  0
   17.5139   -3.8267  -12.1860 C   0  0  0  0  0  0  0  0  0  0  0  0
   16.3659   -3.7235  -12.7047 O   0  0  0  0  0  0  0  0  0  0  0  0
   20.7161   -6.4557  -15.0145 O   0  0  0  0  0  0  0  0  0  0  0  0
   18.3852   -2.7641  -12.3273 O   0  0  0  0  0  0  0  0  0  0  0  0
  2  4  1  0
  2  1  1  0
  3  2  2  0
  5  4  1  0
  5  6  1  0
  6  7  1  6
  8  6  1  0
  9  8  2  0
 10  8  1  0
 11 10  1  0
 11 14  1  0
 11 12  1  1
 13 12  1  0
 14 16  1  0
 15 14  2  0
 16 17  1  0
 17 18  1  6
 17 22  1  0
 19 20  1  0
 19 18  1  0
 20 24  1  0
 21 20  2  0
 22 23  2  0
 22 25  1  0
M  END
$$$$
