QCE.pdb
     RDKit          3D

 25 24  0  0  1  0  0  0  0  0999 V2000
   20.5773  -16.6845  -15.1050 N   0  0  0  0  0  0  0  0  0  0  0  0
   20.1909  -15.3744  -15.4718 C   0  0  0  0  0  0  0  0  0  0  0  0
   19.2496  -14.8342  -14.8520 O   0  0  0  0  0  0  0  0  0  0  0  0
   20.8815  -14.6687  -16.5537 C   0  0  0  0  0  0  0  0  0  0  0  0
   21.7957  -13.5685  -16.1392 C   0  0  0  0  0  0  0  0  0  0  0  0
   21.8962  -12.4136  -17.0917 C   0  0  2  0  0  0  0  0  0  0  0  0
   22.6517  -12.8166  -18.2522 N   0  0  0  0  0  0  0  0  0  0  0  0
   22.4600  -11.2718  -16.3600 C   0  0  0  0  0  0  0  0  0  0  0  0
   21.8175  -10.8491  -15.3591 O   0  0  0  0  0  0  0  0  0  0  0  0
   23.6603  -10.5868  -16.6642 N   0  0  0  0  0  0  0  0  0  0  0  0
   24.1575   -9.4977  -15.8354 C   0  0  1  0  0  0  0  0  0  0  0  0
   25.6461   -9.4357  -16.0364 C   0  0  0  0  0  0  0  0  0  0  0  0
   26.5205  -10.7534  -15.1816 S   0  0  0  0  0  0  0  0  0  0  0  0
   23.4657   -8.2306  -16.1471 C   0  0  0  0  0  0  0  0  0  0  0  0
   23.0763   -7.9777  -17.3045 O   0  0  0  0  0  0  0  0  0  0  0  0
   23.2082   -7.2283  -15.1373 N   0  0  0  0  0  0  0  0  0  0  0  0
   22.3798   -6.0566  -15.4173 C   0  0  1  0  0  0  0  0  0  0  0  0
   21.0128   -6.5666  -15.8151 C   0  0  0  0  0  0  0  0  0  0  0  0
   20.0107   -5.4565  -16.0545 C   0  0  0  0  0  0  0  0  0  0  0  0
   18.6973   -6.0664  -16.4101 C   0  0  0  0  0  0  0  0  0  0  0  0
   17.8529   -6.2492  -15.4779 O   0  0  0  0  0  0  0  0  0  0  0  0
   22.3324   -5.1611  -14.2446 C   0  0  0  0  0  0  0  0  0  0  0  0
   22.0294   -3.9465  -14.4199 O   0  0  0  0  0  0  0  0  0  0  0  0
   18.3928   -6.4232  -17.7033 O   0  0  0  0  0  0  0  0  0  0  0  0
   22.6016   -5.5809  -12.9564 O   0  0  0  0  0  0  0  0  0  0  0  0
  2  4  1  0
  2  1  1  0
  3  2  2  0
  5  4  1  0
  5  6  1  0
  6  7  1  6
  8  6  1  0
  9  8  2  0
 10  8  1  0
 11 10  1  0
 11 14  1  0
 11 12  1  6
 13 12  1  0
 14 16  1  0
 15 14  2  0
 16 17  1  0
 17 18  1  1
 17 22  1  0
 19 20  1  0
 19 18  1  0
 20 24  1  0
 21 20  2  0
 22 23  2  0
 22 25  1  0
M  END
$$$$
