QCE.pdb
     RDKit          3D

 25 24  0  0  1  0  0  0  0  0999 V2000
   15.8608  -21.1502    3.8365 N   0  0  0  0  0  0  0  0  0  0  0  0
   15.7043  -20.5475    2.5667 C   0  0  0  0  0  0  0  0  0  0  0  0
   14.9765  -21.1135    1.7231 O   0  0  0  0  0  0  0  0  0  0  0  0
   16.3807  -19.2872    2.2511 C   0  0  0  0  0  0  0  0  0  0  0  0
   17.1098  -18.6360    3.3747 C   0  0  0  0  0  0  0  0  0  0  0  0
   16.2893  -17.7269    4.2415 C   0  0  2  0  0  0  0  0  0  0  0  0
   16.0006  -16.5119    3.5199 N   0  0  0  0  0  0  0  0  0  0  0  0
   17.0129  -17.5318    5.5045 C   0  0  0  0  0  0  0  0  0  0  0  0
   18.2239  -17.1831    5.4320 O   0  0  0  0  0  0  0  0  0  0  0  0
   16.4898  -17.6980    6.8088 N   0  0  0  0  0  0  0  0  0  0  0  0
   17.2885  -17.4389    7.9984 C   0  0  1  0  0  0  0  0  0  0  0  0
   16.5400  -16.4260    8.8193 C   0  0  0  0  0  0  0  0  0  0  0  0
   16.7086  -14.7524    8.1847 S   0  0  0  0  0  0  0  0  0  0  0  0
   17.5824  -18.6894    8.7271 C   0  0  0  0  0  0  0  0  0  0  0  0
   16.8717  -19.7033    8.5783 O   0  0  0  0  0  0  0  0  0  0  0  0
   18.6966  -18.8008    9.6418 N   0  0  0  0  0  0  0  0  0  0  0  0
   18.9808  -20.0469   10.3519 C   0  0  1  0  0  0  0  0  0  0  0  0
   19.4063  -21.0604    9.3133 C   0  0  0  0  0  0  0  0  0  0  0  0
   19.8367  -22.3823    9.9140 C   0  0  0  0  0  0  0  0  0  0  0  0
   20.2978  -23.2793    8.8157 C   0  0  0  0  0  0  0  0  0  0  0  0
   20.2799  -22.8259    7.6284 O   0  0  0  0  0  0  0  0  0  0  0  0
   20.0088  -19.8314   11.3893 C   0  0  0  0  0  0  0  0  0  0  0  0
   20.6844  -18.7636   11.3620 O   0  0  0  0  0  0  0  0  0  0  0  0
   20.7346  -24.5599    9.0639 O   0  0  0  0  0  0  0  0  0  0  0  0
   20.2740  -20.7389   12.3965 O   0  0  0  0  0  0  0  0  0  0  0  0
  2  4  1  0
  2  1  1  0
  3  2  2  0
  5  4  1  0
  5  6  1  0
  6  7  1  6
  8  6  1  0
  9  8  2  0
 10  8  1  0
 11 10  1  0
 11 14  1  0
 11 12  1  1
 13 12  1  0
 14 16  1  0
 15 14  2  0
 16 17  1  0
 17 18  1  6
 17 22  1  0
 19 20  1  0
 19 18  1  0
 20 24  1  0
 21 20  2  0
 22 23  2  0
 22 25  1  0
M  END
$$$$
