QCE.pdb
     RDKit          3D

 25 24  0  0  1  0  0  0  0  0999 V2000
   18.4929  -10.7067  -18.6056 N   0  0  0  0  0  0  0  0  0  0  0  0
   18.2257  -12.0745  -18.3642 C   0  0  0  0  0  0  0  0  0  0  0  0
   17.4896  -12.6892  -19.1655 O   0  0  0  0  0  0  0  0  0  0  0  0
   18.8014  -12.7525  -17.2006 C   0  0  0  0  0  0  0  0  0  0  0  0
   19.6998  -11.9315  -16.3422 C   0  0  0  0  0  0  0  0  0  0  0  0
   21.1704  -12.1372  -16.5570 C   0  0  2  0  0  0  0  0  0  0  0  0
   21.5689  -13.3889  -15.9615 N   0  0  0  0  0  0  0  0  0  0  0  0
   21.8731  -10.9587  -16.0334 C   0  0  0  0  0  0  0  0  0  0  0  0
   21.9448  -10.8351  -14.7793 O   0  0  0  0  0  0  0  0  0  0  0  0
   22.4829   -9.9345  -16.7959 N   0  0  0  0  0  0  0  0  0  0  0  0
   23.1439   -8.7977  -16.1707 C   0  0  1  0  0  0  0  0  0  0  0  0
   24.5745   -8.8115  -16.6328 C   0  0  0  0  0  0  0  0  0  0  0  0
   25.4685   -7.3197  -16.1777 S   0  0  0  0  0  0  0  0  0  0  0  0
   22.4374   -7.5365  -16.4730 C   0  0  0  0  0  0  0  0  0  0  0  0
   22.1297   -7.2357  -17.6435 O   0  0  0  0  0  0  0  0  0  0  0  0
   22.0712   -6.5951  -15.4385 N   0  0  0  0  0  0  0  0  0  0  0  0
   21.3108   -5.3837  -15.7420 C   0  0  1  0  0  0  0  0  0  0  0  0
   19.8482   -5.7232  -15.5626 C   0  0  0  0  0  0  0  0  0  0  0  0
   18.9319   -4.5364  -15.7760 C   0  0  0  0  0  0  0  0  0  0  0  0
   17.5277   -4.9626  -15.5112 C   0  0  0  0  0  0  0  0  0  0  0  0
   17.0493   -5.9085  -16.2125 O   0  0  0  0  0  0  0  0  0  0  0  0
   21.7445   -4.2676  -14.8785 C   0  0  0  0  0  0  0  0  0  0  0  0
   22.4353   -4.5268  -13.8522 O   0  0  0  0  0  0  0  0  0  0  0  0
   16.7615   -4.3623  -14.5391 O   0  0  0  0  0  0  0  0  0  0  0  0
   21.4358   -2.9454  -15.1330 O   0  0  0  0  0  0  0  0  0  0  0  0
  2  4  1  0
  2  1  1  0
  3  2  2  0
  5  4  1  0
  5  6  1  0
  6  7  1  1
  8  6  1  0
  9  8  2  0
 10  8  1  0
 11 10  1  0
 11 14  1  0
 11 12  1  6
 13 12  1  0
 14 16  1  0
 15 14  2  0
 16 17  1  0
 17 18  1  1
 17 22  1  0
 19 20  1  0
 19 18  1  0
 20 24  1  0
 21 20  2  0
 22 23  2  0
 22 25  1  0
M  END
$$$$
