QCE.pdb
     RDKit          3D

 25 24  0  0  1  0  0  0  0  0999 V2000
   16.7629  -12.1063  -13.7497 N   0  0  0  0  0  0  0  0  0  0  0  0
   15.5184  -12.7468  -13.9526 C   0  0  0  0  0  0  0  0  0  0  0  0
   15.5033  -13.9871  -14.1051 O   0  0  0  0  0  0  0  0  0  0  0  0
   14.2765  -11.9708  -13.9817 C   0  0  0  0  0  0  0  0  0  0  0  0
   14.4030  -10.5203  -13.6684 C   0  0  0  0  0  0  0  0  0  0  0  0
   14.5552  -10.1802  -12.2151 C   0  0  2  0  0  0  0  0  0  0  0  0
   13.2713  -10.2781  -11.5653 N   0  0  0  0  0  0  0  0  0  0  0  0
   15.1884   -8.8582  -12.1239 C   0  0  0  0  0  0  0  0  0  0  0  0
   14.4686   -7.8513  -12.3713 O   0  0  0  0  0  0  0  0  0  0  0  0
   16.5367   -8.5922  -11.7865 N   0  0  0  0  0  0  0  0  0  0  0  0
   17.0567   -7.2347  -11.7022 C   0  0  1  0  0  0  0  0  0  0  0  0
   16.6337   -6.6832  -10.3691 C   0  0  0  0  0  0  0  0  0  0  0  0
   16.8745   -7.8506   -9.0234 S   0  0  0  0  0  0  0  0  0  0  0  0
   18.5177   -7.2082  -11.9161 C   0  0  0  0  0  0  0  0  0  0  0  0
   19.2120   -8.2297  -11.7441 O   0  0  0  0  0  0  0  0  0  0  0  0
   19.2110   -6.0088  -12.3303 N   0  0  0  0  0  0  0  0  0  0  0  0
   20.6104   -6.0423  -12.7525 C   0  0  1  0  0  0  0  0  0  0  0  0
   20.7225   -7.1000  -13.8276 C   0  0  0  0  0  0  0  0  0  0  0  0
   22.1356   -7.2759  -14.3433 C   0  0  0  0  0  0  0  0  0  0  0  0
   22.1060   -8.1990  -15.5140 C   0  0  0  0  0  0  0  0  0  0  0  0
   20.9780   -8.6458  -15.8926 O   0  0  0  0  0  0  0  0  0  0  0  0
   21.0448   -4.7107  -13.2188 C   0  0  0  0  0  0  0  0  0  0  0  0
   20.1690   -3.8917  -13.6183 O   0  0  0  0  0  0  0  0  0  0  0  0
   23.2554   -8.5631  -16.1764 O   0  0  0  0  0  0  0  0  0  0  0  0
   22.3657   -4.3070  -13.2414 O   0  0  0  0  0  0  0  0  0  0  0  0
  2  4  1  0
  2  1  1  0
  3  2  2  0
  5  4  1  0
  5  6  1  0
  6  7  1  6
  8  6  1  0
  9  8  2  0
 10  8  1  0
 11 10  1  0
 11 14  1  0
 11 12  1  1
 13 12  1  0
 14 16  1  0
 15 14  2  0
 16 17  1  0
 17 18  1  6
 17 22  1  0
 19 20  1  0
 19 18  1  0
 20 24  1  0
 21 20  2  0
 22 23  2  0
 22 25  1  0
M  END
$$$$
