QCE.pdb
     RDKit          3D

 25 24  0  0  1  0  0  0  0  0999 V2000
   23.6676  -16.5961  -19.5951 N   0  0  0  0  0  0  0  0  0  0  0  0
   22.5247  -17.3179  -20.0110 C   0  0  0  0  0  0  0  0  0  0  0  0
   22.6509  -18.1602  -20.9256 O   0  0  0  0  0  0  0  0  0  0  0  0
   21.2237  -17.0818  -19.3809 C   0  0  0  0  0  0  0  0  0  0  0  0
   21.2082  -16.1055  -18.2563 C   0  0  0  0  0  0  0  0  0  0  0  0
   22.0608  -16.4620  -17.0744 C   0  0  2  0  0  0  0  0  0  0  0  0
   21.3532  -17.4041  -16.2425 N   0  0  0  0  0  0  0  0  0  0  0  0
   22.4421  -15.2147  -16.3993 C   0  0  0  0  0  0  0  0  0  0  0  0
   21.6509  -14.7616  -15.5264 O   0  0  0  0  0  0  0  0  0  0  0  0
   23.6155  -14.4579  -16.6290 N   0  0  0  0  0  0  0  0  0  0  0  0
   23.9363  -13.2754  -15.8423 C   0  0  1  0  0  0  0  0  0  0  0  0
   25.4330  -13.2286  -15.7082 C   0  0  0  0  0  0  0  0  0  0  0  0
   26.0907  -14.6022  -14.7529 S   0  0  0  0  0  0  0  0  0  0  0  0
   23.3589  -12.0583  -16.4476 C   0  0  0  0  0  0  0  0  0  0  0  0
   23.4517  -11.8424  -17.6723 O   0  0  0  0  0  0  0  0  0  0  0  0
   22.6648  -11.0644  -15.6595 N   0  0  0  0  0  0  0  0  0  0  0  0
   22.1003   -9.8622  -16.2708 C   0  0  1  0  0  0  0  0  0  0  0  0
   21.2918   -9.1610  -15.2023 C   0  0  0  0  0  0  0  0  0  0  0  0
   20.6840   -7.8574  -15.6763 C   0  0  0  0  0  0  0  0  0  0  0  0
   19.9765   -7.2153  -14.5315 C   0  0  0  0  0  0  0  0  0  0  0  0
   18.8659   -7.7113  -14.1630 O   0  0  0  0  0  0  0  0  0  0  0  0
   23.1702   -9.0090  -16.8244 C   0  0  0  0  0  0  0  0  0  0  0  0
   24.2980   -9.0023  -16.2537 O   0  0  0  0  0  0  0  0  0  0  0  0
   20.4983   -6.1207  -13.8818 O   0  0  0  0  0  0  0  0  0  0  0  0
   23.0059   -8.2126  -17.9411 O   0  0  0  0  0  0  0  0  0  0  0  0
  2  4  1  0
  2  1  1  0
  3  2  2  0
  5  4  1  0
  5  6  1  0
  6  7  1  1
  8  6  1  0
  9  8  2  0
 10  8  1  0
 11 10  1  0
 11 14  1  0
 11 12  1  6
 13 12  1  0
 14 16  1  0
 15 14  2  0
 16 17  1  0
 17 18  1  1
 17 22  1  0
 19 20  1  0
 19 18  1  0
 20 24  1  0
 21 20  2  0
 22 23  2  0
 22 25  1  0
M  END
$$$$
