QCE.pdb
     RDKit          3D

 25 24  0  0  1  0  0  0  0  0999 V2000
   24.1671  -15.9597  -18.9603 N   0  0  0  0  0  0  0  0  0  0  0  0
   24.2059  -15.9031  -20.3730 C   0  0  0  0  0  0  0  0  0  0  0  0
   24.9629  -16.6899  -20.9812 O   0  0  0  0  0  0  0  0  0  0  0  0
   23.3753  -14.9433  -21.1038 C   0  0  0  0  0  0  0  0  0  0  0  0
   22.4938  -14.0753  -20.2746 C   0  0  0  0  0  0  0  0  0  0  0  0
   22.8932  -12.6313  -20.1944 C   0  0  2  0  0  0  0  0  0  0  0  0
   24.3287  -12.5275  -20.2885 N   0  0  0  0  0  0  0  0  0  0  0  0
   22.3180  -12.0706  -18.9650 C   0  0  0  0  0  0  0  0  0  0  0  0
   21.0606  -12.0815  -18.8548 O   0  0  0  0  0  0  0  0  0  0  0  0
   23.0333  -11.5110  -17.8799 N   0  0  0  0  0  0  0  0  0  0  0  0
   22.3588  -10.9815  -16.7031 C   0  0  1  0  0  0  0  0  0  0  0  0
   23.1654  -11.4029  -15.5064 C   0  0  0  0  0  0  0  0  0  0  0  0
   22.6265  -10.6072  -13.9871 S   0  0  0  0  0  0  0  0  0  0  0  0
   22.1735   -9.5200  -16.8060 C   0  0  0  0  0  0  0  0  0  0  0  0
   23.1072   -8.7767  -17.1678 O   0  0  0  0  0  0  0  0  0  0  0  0
   20.9137   -8.8823  -16.4948 N   0  0  0  0  0  0  0  0  0  0  0  0
   20.7684   -7.4276  -16.5128 C   0  0  1  0  0  0  0  0  0  0  0  0
   19.3015   -7.1325  -16.7316 C   0  0  0  0  0  0  0  0  0  0  0  0
   18.9889   -5.6507  -16.7462 C   0  0  0  0  0  0  0  0  0  0  0  0
   17.5311   -5.4719  -17.0038 C   0  0  0  0  0  0  0  0  0  0  0  0
   17.0247   -6.0704  -18.0042 O   0  0  0  0  0  0  0  0  0  0  0  0
   21.2856   -6.8379  -15.2621 C   0  0  0  0  0  0  0  0  0  0  0  0
   21.1814   -7.4996  -14.1903 O   0  0  0  0  0  0  0  0  0  0  0  0
   16.7444   -4.6887  -16.1912 O   0  0  0  0  0  0  0  0  0  0  0  0
   21.8829   -5.5940  -15.1986 O   0  0  0  0  0  0  0  0  0  0  0  0
  2  4  1  0
  2  1  1  0
  3  2  2  0
  5  4  1  0
  5  6  1  0
  6  7  1  1
  8  6  1  0
  9  8  2  0
 10  8  1  0
 11 10  1  0
 11 14  1  0
 11 12  1  1
 13 12  1  0
 14 16  1  0
 15 14  2  0
 16 17  1  0
 17 18  1  1
 17 22  1  0
 19 20  1  0
 19 18  1  0
 20 24  1  0
 21 20  2  0
 22 23  2  0
 22 25  1  0
M  END
$$$$
