QCE.pdb
     RDKit          3D

 25 24  0  0  1  0  0  0  0  0999 V2000
   19.0329  -11.9360  -15.8831 N   0  0  0  0  0  0  0  0  0  0  0  0
   18.5250  -13.2543  -15.8153 C   0  0  0  0  0  0  0  0  0  0  0  0
   18.9982  -14.1165  -16.5864 O   0  0  0  0  0  0  0  0  0  0  0  0
   17.4688  -13.5981  -14.8607 C   0  0  0  0  0  0  0  0  0  0  0  0
   17.0343  -12.5079  -13.9438 C   0  0  0  0  0  0  0  0  0  0  0  0
   15.9788  -12.8809  -12.9449 C   0  0  2  0  0  0  0  0  0  0  0  0
   15.0486  -13.7994  -13.5543 N   0  0  0  0  0  0  0  0  0  0  0  0
   15.3740  -11.6407  -12.4417 C   0  0  0  0  0  0  0  0  0  0  0  0
   14.6807  -10.9632  -13.2501 O   0  0  0  0  0  0  0  0  0  0  0  0
   15.4904  -11.1187  -11.1317 N   0  0  0  0  0  0  0  0  0  0  0  0
   14.7495   -9.9409  -10.7027 C   0  0  1  0  0  0  0  0  0  0  0  0
   13.8137  -10.3825   -9.6120 C   0  0  0  0  0  0  0  0  0  0  0  0
   12.5369  -11.5029  -10.2003 S   0  0  0  0  0  0  0  0  0  0  0  0
   15.6630   -8.8549  -10.2937 C   0  0  0  0  0  0  0  0  0  0  0  0
   16.6308   -9.0776   -9.5395 O   0  0  0  0  0  0  0  0  0  0  0  0
   15.4834   -7.4917  -10.7412 N   0  0  0  0  0  0  0  0  0  0  0  0
   16.3652   -6.4166  -10.2893 C   0  0  1  0  0  0  0  0  0  0  0  0
   16.2041   -5.2729  -11.2655 C   0  0  0  0  0  0  0  0  0  0  0  0
   17.0273   -4.0563  -10.8970 C   0  0  0  0  0  0  0  0  0  0  0  0
   16.7287   -2.9648  -11.8680 C   0  0  0  0  0  0  0  0  0  0  0  0
   15.6148   -2.3618  -11.7632 O   0  0  0  0  0  0  0  0  0  0  0  0
   16.0429   -6.0283   -8.9019 C   0  0  0  0  0  0  0  0  0  0  0  0
   16.9361   -5.4678   -8.2051 O   0  0  0  0  0  0  0  0  0  0  0  0
   17.6223   -2.6078  -12.8512 O   0  0  0  0  0  0  0  0  0  0  0  0
   14.8090   -6.2441   -8.3195 O   0  0  0  0  0  0  0  0  0  0  0  0
  2  4  1  0
  2  1  1  0
  3  2  2  0
  5  4  1  0
  5  6  1  0
  6  7  1  6
  8  6  1  0
  9  8  2  0
 10  8  1  0
 11 10  1  0
 11 14  1  0
 11 12  1  1
 13 12  1  0
 14 16  1  0
 15 14  2  0
 16 17  1  0
 17 18  1  6
 17 22  1  0
 19 20  1  0
 19 18  1  0
 20 24  1  0
 21 20  2  0
 22 23  2  0
 22 25  1  0
M  END
$$$$
