QCE.pdb
     RDKit          3D

 25 24  0  0  1  0  0  0  0  0999 V2000
   24.3287  -13.7485  -20.7730 N   0  0  0  0  0  0  0  0  0  0  0  0
   23.5177  -14.8769  -20.5098 C   0  0  0  0  0  0  0  0  0  0  0  0
   23.2716  -15.6665  -21.4468 O   0  0  0  0  0  0  0  0  0  0  0  0
   22.9808  -15.1125  -19.1677 C   0  0  0  0  0  0  0  0  0  0  0  0
   23.3232  -14.0934  -18.1370 C   0  0  0  0  0  0  0  0  0  0  0  0
   24.7887  -13.8691  -17.9068 C   0  0  2  0  0  0  0  0  0  0  0  0
   25.3571  -15.0364  -17.2787 N   0  0  0  0  0  0  0  0  0  0  0  0
   24.9409  -12.6258  -17.1400 C   0  0  0  0  0  0  0  0  0  0  0  0
   24.4466  -12.5954  -15.9790 O   0  0  0  0  0  0  0  0  0  0  0  0
   25.5887  -11.4442  -17.5721 N   0  0  0  0  0  0  0  0  0  0  0  0
   25.6676  -10.2573  -16.7323 C   0  0  1  0  0  0  0  0  0  0  0  0
   27.1259   -9.9325  -16.5651 C   0  0  0  0  0  0  0  0  0  0  0  0
   28.1514  -11.3988  -16.3918 S   0  0  0  0  0  0  0  0  0  0  0  0
   24.8763   -9.1474  -17.3007 C   0  0  0  0  0  0  0  0  0  0  0  0
   24.8080   -8.9708  -18.5333 O   0  0  0  0  0  0  0  0  0  0  0  0
   24.1489   -8.2175  -16.4660 N   0  0  0  0  0  0  0  0  0  0  0  0
   23.2760   -7.1954  -17.0415 C   0  0  1  0  0  0  0  0  0  0  0  0
   22.1773   -6.9349  -16.0356 C   0  0  0  0  0  0  0  0  0  0  0  0
   21.2279   -5.8353  -16.4636 C   0  0  0  0  0  0  0  0  0  0  0  0
   20.1966   -5.6539  -15.4021 C   0  0  0  0  0  0  0  0  0  0  0  0
   20.2892   -6.3653  -14.3530 O   0  0  0  0  0  0  0  0  0  0  0  0
   24.0456   -5.9790  -17.3693 C   0  0  0  0  0  0  0  0  0  0  0  0
   25.0625   -5.6978  -16.6732 O   0  0  0  0  0  0  0  0  0  0  0  0
   19.1716   -4.7464  -15.5380 O   0  0  0  0  0  0  0  0  0  0  0  0
   23.7139   -5.1254  -18.4035 O   0  0  0  0  0  0  0  0  0  0  0  0
  2  4  1  0
  2  1  1  0
  3  2  2  0
  5  4  1  0
  5  6  1  0
  6  7  1  1
  8  6  1  0
  9  8  2  0
 10  8  1  0
 11 10  1  0
 11 14  1  0
 11 12  1  6
 13 12  1  0
 14 16  1  0
 15 14  2  0
 16 17  1  0
 17 18  1  1
 17 22  1  0
 19 20  1  0
 19 18  1  0
 20 24  1  0
 21 20  2  0
 22 23  2  0
 22 25  1  0
M  END
$$$$
