MSE.pdb
     RDKit          3D

 24 23  0  0  1  0  0  0  0  0999 V2000
   22.6787  -11.8581  -20.7051 C   0  0  0  0  0  0  0  0  0  0  0  0
   22.0077  -13.5205  -20.4214 S   0  0  0  0  0  0  0  0  0  0  0  0
   21.4279  -13.6111  -18.6959 C   0  0  0  0  0  0  0  0  0  0  0  0
   20.7442  -12.3203  -18.3004 C   0  0  0  0  0  0  0  0  0  0  0  0
   20.3027  -12.4358  -16.8596 C   0  0  2  0  0  0  0  0  0  0  0  0
   19.1989  -13.3710  -16.8223 N   0  0  0  0  0  0  0  0  0  0  0  0
   19.8425  -11.1433  -16.3124 C   0  0  0  0  0  0  0  0  0  0  0  0
   18.7783  -10.6431  -16.7455 O   0  0  0  0  0  0  0  0  0  0  0  0
   19.9335   -7.8937  -12.8031 O   0  0  0  0  0  0  0  0  0  0  0  0
   20.3550   -9.1049  -13.3347 C   0  0  0  0  0  0  0  0  0  0  0  0
   20.1829   -9.0965  -14.8583 C   0  0  2  0  0  0  0  0  0  0  0  0
   20.5363  -10.4172  -15.3118 N   0  0  0  0  0  0  0  0  0  0  0  0
   21.1460   -8.0638  -15.3691 C   0  0  0  0  0  0  0  0  0  0  0  0
   22.3638   -8.3246  -15.5310 O   0  0  0  0  0  0  0  0  0  0  0  0
   20.7285   -6.7433  -15.6942 N   0  0  0  0  0  0  0  0  0  0  0  0
   21.6682   -5.6981  -16.0820 C   0  0  1  0  0  0  0  0  0  0  0  0
   20.8962   -4.6190  -16.7988 C   0  0  0  0  0  0  0  0  0  0  0  0
   21.7966   -3.5384  -17.3251 C   0  0  0  0  0  0  0  0  0  0  0  0
   21.1087   -2.4473  -18.0388 C   0  0  0  0  0  0  0  0  0  0  0  0
   19.8900   -2.4240  -18.3239 O   0  0  0  0  0  0  0  0  0  0  0  0
   22.3690   -5.1345  -14.9130 C   0  0  0  0  0  0  0  0  0  0  0  0
   21.7969   -5.1372  -13.8000 O   0  0  0  0  0  0  0  0  0  0  0  0
   21.8426   -1.3356  -18.4442 O   0  0  0  0  0  0  0  0  0  0  0  0
   23.6386   -4.6031  -15.0072 O   0  0  0  0  0  0  0  0  0  0  0  0
  1  2  1  0
  3  2  1  0
  4  3  1  0
  5  7  1  0
  5  4  1  0
  5  6  1  6
  7 12  1  0
  7  8  2  0
 10  9  1  0
 11 10  1  1
 11 13  1  0
 12 11  1  0
 13 15  1  0
 13 14  2  0
 15 16  1  0
 16 21  1  0
 16 17  1  1
 18 17  1  0
 19 18  1  0
 20 19  2  0
 21 22  2  0
 21 24  1  0
 23 19  1  0
M  END
$$$$
