MSE.pdb
     RDKit          3D

 24 23  0  0  1  0  0  0  0  0999 V2000
   20.5358  -16.3063  -22.2900 C   0  0  0  0  0  0  0  0  0  0  0  0
   22.2246  -16.0488  -21.6768 S   0  0  0  0  0  0  0  0  0  0  0  0
   22.1239  -15.5729  -19.9205 C   0  0  0  0  0  0  0  0  0  0  0  0
   21.4297  -14.2362  -19.7748 C   0  0  0  0  0  0  0  0  0  0  0  0
   21.3782  -13.8823  -18.3064 C   0  0  2  0  0  0  0  0  0  0  0  0
   20.3549  -14.7075  -17.7014 N   0  0  0  0  0  0  0  0  0  0  0  0
   21.0293  -12.4640  -18.0867 C   0  0  0  0  0  0  0  0  0  0  0  0
   21.8988  -11.5847  -18.2892 O   0  0  0  0  0  0  0  0  0  0  0  0
   17.5436  -11.5038  -16.1845 O   0  0  0  0  0  0  0  0  0  0  0  0
   17.8681  -10.6367  -17.2188 C   0  0  0  0  0  0  0  0  0  0  0  0
   19.3833  -10.6448  -17.4535 C   0  0  2  0  0  0  0  0  0  0  0  0
   19.7535  -12.0222  -17.6543 N   0  0  0  0  0  0  0  0  0  0  0  0
   19.9907  -10.0899  -16.1972 C   0  0  0  0  0  0  0  0  0  0  0  0
   20.2626  -10.8275  -15.2178 O   0  0  0  0  0  0  0  0  0  0  0  0
   20.2876   -8.7060  -16.0544 N   0  0  0  0  0  0  0  0  0  0  0  0
   20.8520   -8.1484  -14.8311 C   0  0  1  0  0  0  0  0  0  0  0  0
   21.3922   -6.7769  -15.1493 C   0  0  0  0  0  0  0  0  0  0  0  0
   21.9590   -6.0998  -13.9345 C   0  0  0  0  0  0  0  0  0  0  0  0
   22.4372   -4.7230  -14.1551 C   0  0  0  0  0  0  0  0  0  0  0  0
   23.3883   -4.3977  -14.9012 O   0  0  0  0  0  0  0  0  0  0  0  0
   19.8460   -8.0647  -13.7558 C   0  0  0  0  0  0  0  0  0  0  0  0
   18.6566   -7.8128  -14.0525 O   0  0  0  0  0  0  0  0  0  0  0  0
   21.8031   -3.6728  -13.4963 O   0  0  0  0  0  0  0  0  0  0  0  0
   20.1748   -8.2558  -12.4297 O   0  0  0  0  0  0  0  0  0  0  0  0
  1  2  1  0
  3  2  1  0
  4  3  1  0
  5  7  1  0
  5  4  1  0
  5  6  1  1
  7 12  1  0
  7  8  2  0
 10  9  1  0
 11 10  1  1
 11 13  1  0
 12 11  1  0
 13 15  1  0
 13 14  2  0
 15 16  1  0
 16 21  1  0
 16 17  1  6
 18 17  1  0
 19 18  1  0
 20 19  2  0
 21 22  2  0
 21 24  1  0
 23 19  1  0
M  END
$$$$
