MSE.pdb
     RDKit          3D

 24 23  0  0  1  0  0  0  0  0999 V2000
   18.5288  -10.0991  -21.3458 C   0  0  0  0  0  0  0  0  0  0  0  0
   17.7296  -11.6371  -20.8073 S   0  0  0  0  0  0  0  0  0  0  0  0
   18.5417  -12.1908  -19.2725 C   0  0  0  0  0  0  0  0  0  0  0  0
   18.3521  -11.1657  -18.1756 C   0  0  0  0  0  0  0  0  0  0  0  0
   19.1237  -11.6205  -16.9583 C   0  0  2  0  0  0  0  0  0  0  0  0
   18.3871  -12.7174  -16.3680 N   0  0  0  0  0  0  0  0  0  0  0  0
   19.2584  -10.5485  -15.9511 C   0  0  0  0  0  0  0  0  0  0  0  0
   18.2344  -10.1417  -15.3545 O   0  0  0  0  0  0  0  0  0  0  0  0
   21.9457   -8.3156  -12.7289 O   0  0  0  0  0  0  0  0  0  0  0  0
   21.7132   -9.3163  -13.6625 C   0  0  0  0  0  0  0  0  0  0  0  0
   20.6414   -8.8628  -14.6608 C   0  0  2  0  0  0  0  0  0  0  0  0
   20.4907   -9.9377  -15.6076 N   0  0  0  0  0  0  0  0  0  0  0  0
   21.1927   -7.6281  -15.3139 C   0  0  0  0  0  0  0  0  0  0  0  0
   22.1075   -7.6917  -16.1720 O   0  0  0  0  0  0  0  0  0  0  0  0
   20.7080   -6.3293  -14.9945 N   0  0  0  0  0  0  0  0  0  0  0  0
   21.2695   -5.1180  -15.5805 C   0  0  1  0  0  0  0  0  0  0  0  0
   20.2159   -4.0406  -15.5241 C   0  0  0  0  0  0  0  0  0  0  0  0
   20.6637   -2.7796  -16.2057 C   0  0  0  0  0  0  0  0  0  0  0  0
   19.6804   -1.6814  -16.1923 C   0  0  0  0  0  0  0  0  0  0  0  0
   19.8720   -0.5324  -16.6506 O   0  0  0  0  0  0  0  0  0  0  0  0
   22.4854   -4.6816  -14.8687 C   0  0  0  0  0  0  0  0  0  0  0  0
   23.4450   -4.2219  -15.5274 O   0  0  0  0  0  0  0  0  0  0  0  0
   18.4251   -1.9040  -15.6323 O   0  0  0  0  0  0  0  0  0  0  0  0
   22.5992   -4.7641  -13.4964 O   0  0  0  0  0  0  0  0  0  0  0  0
  1  2  1  0
  3  2  1  0
  4  3  1  0
  5  7  1  0
  5  4  1  0
  5  6  1  1
  7 12  1  0
  7  8  2  0
 10  9  1  0
 11 10  1  1
 11 13  1  0
 12 11  1  0
 13 15  1  0
 13 14  2  0
 15 16  1  0
 16 21  1  0
 16 17  1  1
 18 17  1  0
 19 18  1  0
 20 19  2  0
 21 22  2  0
 21 24  1  0
 23 19  1  0
M  END
$$$$
