MSE.pdb
     RDKit          3D

 24 23  0  0  1  0  0  0  0  0999 V2000
   19.7936  -15.4902  -20.3176 C   0  0  0  0  0  0  0  0  0  0  0  0
   21.4620  -14.7993  -20.5002 S   0  0  0  0  0  0  0  0  0  0  0  0
   21.9742  -14.1205  -18.8883 C   0  0  0  0  0  0  0  0  0  0  0  0
   21.5088  -12.6875  -18.7471 C   0  0  0  0  0  0  0  0  0  0  0  0
   21.8593  -12.2062  -17.3580 C   0  0  2  0  0  0  0  0  0  0  0  0
   21.2042  -13.0912  -16.4189 N   0  0  0  0  0  0  0  0  0  0  0  0
   21.3899  -10.8277  -17.1108 C   0  0  0  0  0  0  0  0  0  0  0  0
   21.9583   -9.8769  -17.6966 O   0  0  0  0  0  0  0  0  0  0  0  0
   19.1793   -9.9870  -13.8499 O   0  0  0  0  0  0  0  0  0  0  0  0
   18.7093   -9.3025  -14.9624 C   0  0  0  0  0  0  0  0  0  0  0  0
   19.8252   -9.1695  -16.0057 C   0  0  2  0  0  0  0  0  0  0  0  0
   20.3202  -10.5017  -16.2394 N   0  0  0  0  0  0  0  0  0  0  0  0
   20.8707   -8.2978  -15.3716 C   0  0  0  0  0  0  0  0  0  0  0  0
   21.7495   -8.7737  -14.6111 O   0  0  0  0  0  0  0  0  0  0  0  0
   20.9178   -6.8945  -15.6001 N   0  0  0  0  0  0  0  0  0  0  0  0
   21.9602   -6.0442  -15.0377 C   0  0  1  0  0  0  0  0  0  0  0  0
   22.5832   -5.2614  -16.1660 C   0  0  0  0  0  0  0  0  0  0  0  0
   23.6963   -4.3739  -15.6877 C   0  0  0  0  0  0  0  0  0  0  0  0
   24.3489   -3.5721  -16.7384 C   0  0  0  0  0  0  0  0  0  0  0  0
   24.4957   -3.9233  -17.9310 O   0  0  0  0  0  0  0  0  0  0  0  0
   21.4226   -5.1272  -14.0152 C   0  0  0  0  0  0  0  0  0  0  0  0
   22.1868   -4.6915  -13.1252 O   0  0  0  0  0  0  0  0  0  0  0  0
   24.8555   -2.3161  -16.4147 O   0  0  0  0  0  0  0  0  0  0  0  0
   20.1005   -4.7331  -14.0085 O   0  0  0  0  0  0  0  0  0  0  0  0
  1  2  1  0
  3  2  1  0
  4  3  1  0
  5  7  1  0
  5  4  1  0
  5  6  1  1
  7 12  1  0
  7  8  2  0
 10  9  1  0
 11 10  1  1
 11 13  1  0
 12 11  1  0
 13 15  1  0
 13 14  2  0
 15 16  1  0
 16 21  1  0
 16 17  1  6
 18 17  1  0
 19 18  1  0
 20 19  2  0
 21 22  2  0
 21 24  1  0
 23 19  1  0
M  END
$$$$
