MSE.pdb
     RDKit          3D

 24 23  0  0  1  0  0  0  0  0999 V2000
   19.5625  -11.4269  -22.7365 C   0  0  0  0  0  0  0  0  0  0  0  0
   19.0702  -10.5599  -21.2199 S   0  0  0  0  0  0  0  0  0  0  0  0
   19.8916  -11.3721  -19.8103 C   0  0  0  0  0  0  0  0  0  0  0  0
   19.6177  -10.6124  -18.5305 C   0  0  0  0  0  0  0  0  0  0  0  0
   20.2273  -11.3796  -17.3799 C   0  0  2  0  0  0  0  0  0  0  0  0
   19.3409  -12.4843  -17.0829 N   0  0  0  0  0  0  0  0  0  0  0  0
   20.3655  -10.5484  -16.1667 C   0  0  0  0  0  0  0  0  0  0  0  0
   19.3385  -10.2470  -15.5151 O   0  0  0  0  0  0  0  0  0  0  0  0
   24.0411   -9.8186  -14.6640 O   0  0  0  0  0  0  0  0  0  0  0  0
   22.9812   -9.5713  -13.8022 C   0  0  0  0  0  0  0  0  0  0  0  0
   21.7520   -9.1196  -14.5997 C   0  0  2  0  0  0  0  0  0  0  0  0
   21.6044  -10.0596  -15.6810 N   0  0  0  0  0  0  0  0  0  0  0  0
   22.0810   -7.7451  -15.1072 C   0  0  0  0  0  0  0  0  0  0  0  0
   22.5193   -7.5618  -16.2697 O   0  0  0  0  0  0  0  0  0  0  0  0
   21.9130   -6.5862  -14.2994 N   0  0  0  0  0  0  0  0  0  0  0  0
   22.1783   -5.2410  -14.7952 C   0  0  1  0  0  0  0  0  0  0  0  0
   21.3242   -5.0173  -16.0178 C   0  0  0  0  0  0  0  0  0  0  0  0
   21.4979   -3.6357  -16.5802 C   0  0  0  0  0  0  0  0  0  0  0  0
   20.6635   -3.3330  -17.7571 C   0  0  0  0  0  0  0  0  0  0  0  0
   20.5299   -4.0713  -18.7592 O   0  0  0  0  0  0  0  0  0  0  0  0
   21.8877   -4.2170  -13.7743 C   0  0  0  0  0  0  0  0  0  0  0  0
   22.3836   -3.0748  -13.8986 O   0  0  0  0  0  0  0  0  0  0  0  0
   19.9512   -2.1370  -17.7920 O   0  0  0  0  0  0  0  0  0  0  0  0
   21.0843   -4.4785  -12.6837 O   0  0  0  0  0  0  0  0  0  0  0  0
  1  2  1  0
  3  2  1  0
  4  3  1  0
  5  7  1  0
  5  4  1  0
  5  6  1  1
  7 12  1  0
  7  8  2  0
 10  9  1  0
 11 10  1  1
 11 13  1  0
 12 11  1  0
 13 15  1  0
 13 14  2  0
 15 16  1  0
 16 21  1  0
 16 17  1  6
 18 17  1  0
 19 18  1  0
 20 19  2  0
 21 22  2  0
 21 24  1  0
 23 19  1  0
M  END
$$$$
