MSE.pdb
     RDKit          3D

 24 23  0  0  1  0  0  0  0  0999 V2000
   16.3561  -13.4453  -11.3615 C   0  0  0  0  0  0  0  0  0  0  0  0
   15.3187  -13.2339   -9.8873 S   0  0  0  0  0  0  0  0  0  0  0  0
   13.7662  -12.4270  -10.3973 C   0  0  0  0  0  0  0  0  0  0  0  0
   14.0492  -11.0609  -10.9836 C   0  0  0  0  0  0  0  0  0  0  0  0
   14.3103  -10.0986   -9.8479 C   0  0  2  0  0  0  0  0  0  0  0  0
   13.0559   -9.9036   -9.1532 N   0  0  0  0  0  0  0  0  0  0  0  0
   14.7907   -8.7869  -10.3280 C   0  0  0  0  0  0  0  0  0  0  0  0
   14.0171   -8.0629  -10.9968 O   0  0  0  0  0  0  0  0  0  0  0  0
   17.5804   -6.8522   -8.4568 O   0  0  0  0  0  0  0  0  0  0  0  0
   16.9321   -6.1439   -9.4593 C   0  0  0  0  0  0  0  0  0  0  0  0
   16.6275   -7.0703  -10.6425 C   0  0  2  0  0  0  0  0  0  0  0  0
   16.0920   -8.2827  -10.0786 N   0  0  0  0  0  0  0  0  0  0  0  0
   17.9471   -7.3136  -11.3166 C   0  0  0  0  0  0  0  0  0  0  0  0
   18.6918   -8.2664  -10.9780 O   0  0  0  0  0  0  0  0  0  0  0  0
   18.4178   -6.4799  -12.3688 N   0  0  0  0  0  0  0  0  0  0  0  0
   19.7470   -6.6274  -12.9497 C   0  0  1  0  0  0  0  0  0  0  0  0
   19.8707   -5.6454  -14.0874 C   0  0  0  0  0  0  0  0  0  0  0  0
   21.2204   -5.7106  -14.7426 C   0  0  0  0  0  0  0  0  0  0  0  0
   21.4491   -4.7080  -15.7989 C   0  0  0  0  0  0  0  0  0  0  0  0
   20.7460   -4.5637  -16.8245 O   0  0  0  0  0  0  0  0  0  0  0  0
   20.8070   -6.3900  -11.9520 C   0  0  0  0  0  0  0  0  0  0  0  0
   20.5834   -5.6099  -10.9994 O   0  0  0  0  0  0  0  0  0  0  0  0
   22.5257   -3.8330  -15.6796 O   0  0  0  0  0  0  0  0  0  0  0  0
   22.0406   -7.0019  -12.0354 O   0  0  0  0  0  0  0  0  0  0  0  0
  1  2  1  0
  3  2  1  0
  4  3  1  0
  5  7  1  0
  5  4  1  0
  5  6  1  6
  7 12  1  0
  7  8  2  0
 10  9  1  0
 11 10  1  1
 11 13  1  0
 12 11  1  0
 13 15  1  0
 13 14  2  0
 15 16  1  0
 16 21  1  0
 16 17  1  6
 18 17  1  0
 19 18  1  0
 20 19  2  0
 21 22  2  0
 21 24  1  0
 23 19  1  0
M  END
$$$$
