MSE.pdb
     RDKit          3D

 24 23  0  0  1  0  0  0  0  0999 V2000
   12.8859  -13.5950  -18.0064 C   0  0  0  0  0  0  0  0  0  0  0  0
   13.6591  -13.0756  -16.4486 S   0  0  0  0  0  0  0  0  0  0  0  0
   15.3508  -12.5066  -16.8173 C   0  0  0  0  0  0  0  0  0  0  0  0
   16.1168  -12.2628  -15.5352 C   0  0  0  0  0  0  0  0  0  0  0  0
   17.5159  -11.8167  -15.8923 C   0  0  2  0  0  0  0  0  0  0  0  0
   18.3434  -13.0027  -15.9491 N   0  0  0  0  0  0  0  0  0  0  0  0
   18.0817  -10.8965  -14.8850 C   0  0  0  0  0  0  0  0  0  0  0  0
   18.3309  -11.3302  -13.7361 O   0  0  0  0  0  0  0  0  0  0  0  0
   19.1356   -7.1417  -16.0352 O   0  0  0  0  0  0  0  0  0  0  0  0
   19.7893   -7.6351  -14.9143 C   0  0  0  0  0  0  0  0  0  0  0  0
   18.8722   -8.6022  -14.1563 C   0  0  2  0  0  0  0  0  0  0  0  0
   18.3671   -9.5305  -15.1349 N   0  0  0  0  0  0  0  0  0  0  0  0
   17.7730   -7.7538  -13.5845 C   0  0  0  0  0  0  0  0  0  0  0  0
   16.7372   -7.4892  -14.2435 O   0  0  0  0  0  0  0  0  0  0  0  0
   17.8497   -7.2095  -12.2724 N   0  0  0  0  0  0  0  0  0  0  0  0
   16.8327   -6.3130  -11.7359 C   0  0  1  0  0  0  0  0  0  0  0  0
   16.8789   -6.4020  -10.2313 C   0  0  0  0  0  0  0  0  0  0  0  0
   15.7950   -5.5871   -9.5860 C   0  0  0  0  0  0  0  0  0  0  0  0
   15.7987   -5.6016   -8.1119 C   0  0  0  0  0  0  0  0  0  0  0  0
   16.6336   -6.1994   -7.3959 O   0  0  0  0  0  0  0  0  0  0  0  0
   17.0486   -4.9208  -12.1725 C   0  0  0  0  0  0  0  0  0  0  0  0
   18.2157   -4.5240  -12.3883 O   0  0  0  0  0  0  0  0  0  0  0  0
   14.8077   -4.9045   -7.4258 O   0  0  0  0  0  0  0  0  0  0  0  0
   16.0025   -4.0394  -12.3511 O   0  0  0  0  0  0  0  0  0  0  0  0
  1  2  1  0
  3  2  1  0
  4  3  1  0
  5  7  1  0
  5  4  1  0
  5  6  1  1
  7 12  1  0
  7  8  2  0
 10  9  1  0
 11 10  1  6
 11 13  1  0
 12 11  1  0
 13 15  1  0
 13 14  2  0
 15 16  1  0
 16 21  1  0
 16 17  1  1
 18 17  1  0
 19 18  1  0
 20 19  2  0
 21 22  2  0
 21 24  1  0
 23 19  1  0
M  END
$$$$
