MSE.pdb
     RDKit          3D

 24 23  0  0  1  0  0  0  0  0999 V2000
   27.6215  -13.6624  -14.7054 C   0  0  0  0  0  0  0  0  0  0  0  0
   27.9775  -12.0744  -15.5091 S   0  0  0  0  0  0  0  0  0  0  0  0
   26.3906  -11.2638  -15.8910 C   0  0  0  0  0  0  0  0  0  0  0  0
   26.6265   -9.8712  -16.4340 C   0  0  0  0  0  0  0  0  0  0  0  0
   25.2848   -9.2140  -16.6625 C   0  0  2  0  0  0  0  0  0  0  0  0
   24.4836  -10.1332  -17.4418 N   0  0  0  0  0  0  0  0  0  0  0  0
   25.4055   -7.9455  -17.4095 C   0  0  0  0  0  0  0  0  0  0  0  0
   26.0333   -6.9921  -16.8929 O   0  0  0  0  0  0  0  0  0  0  0  0
   26.3087   -7.1219  -21.2495 O   0  0  0  0  0  0  0  0  0  0  0  0
   24.9909   -6.8552  -20.9040 C   0  0  0  0  0  0  0  0  0  0  0  0
   24.9033   -6.4855  -19.4184 C   0  0  2  0  0  0  0  0  0  0  0  0
   24.8485   -7.7299  -18.6953 N   0  0  0  0  0  0  0  0  0  0  0  0
   23.6283   -5.7064  -19.2694 C   0  0  0  0  0  0  0  0  0  0  0  0
   22.5052   -6.2549  -19.3927 O   0  0  0  0  0  0  0  0  0  0  0  0
   23.6288   -4.3131  -18.9820 N   0  0  0  0  0  0  0  0  0  0  0  0
   22.3992   -3.5425  -18.8401 C   0  0  1  0  0  0  0  0  0  0  0  0
   22.7124   -2.3088  -18.0314 C   0  0  0  0  0  0  0  0  0  0  0  0
   21.4894   -1.4734  -17.7831 C   0  0  0  0  0  0  0  0  0  0  0  0
   21.7085   -0.2830  -16.9416 C   0  0  0  0  0  0  0  0  0  0  0  0
   22.8059    0.0631  -16.4488 O   0  0  0  0  0  0  0  0  0  0  0  0
   21.8382   -3.1655  -20.1511 C   0  0  0  0  0  0  0  0  0  0  0  0
   20.6012   -3.0125  -20.2632 O   0  0  0  0  0  0  0  0  0  0  0  0
   20.6296    0.5475  -16.6502 O   0  0  0  0  0  0  0  0  0  0  0  0
   22.6354   -2.9755  -21.2608 O   0  0  0  0  0  0  0  0  0  0  0  0
  1  2  1  0
  3  2  1  0
  4  3  1  0
  5  7  1  0
  5  4  1  0
  5  6  1  6
  7 12  1  0
  7  8  2  0
 10  9  1  0
 11 10  1  6
 11 13  1  0
 12 11  1  0
 13 15  1  0
 13 14  2  0
 15 16  1  0
 16 21  1  0
 16 17  1  1
 18 17  1  0
 19 18  1  0
 20 19  2  0
 21 22  2  0
 21 24  1  0
 23 19  1  0
M  END
$$$$
