MSE.pdb
     RDKit          3D

 24 23  0  0  1  0  0  0  0  0999 V2000
   21.0139  -28.8081  -11.6433 C   0  0  0  0  0  0  0  0  0  0  0  0
   20.3417  -27.2255  -12.2247 S   0  0  0  0  0  0  0  0  0  0  0  0
   18.8836  -26.8213  -11.2089 C   0  0  0  0  0  0  0  0  0  0  0  0
   19.2257  -26.9058   -9.7372 C   0  0  0  0  0  0  0  0  0  0  0  0
   17.9996  -26.5262   -8.9393 C   0  0  2  0  0  0  0  0  0  0  0  0
   17.7557  -25.1186   -9.1705 N   0  0  0  0  0  0  0  0  0  0  0  0
   18.1899  -26.7385   -7.4900 C   0  0  0  0  0  0  0  0  0  0  0  0
   19.0985  -27.5092   -7.1018 O   0  0  0  0  0  0  0  0  0  0  0  0
   17.2005  -24.0508   -4.4635 O   0  0  0  0  0  0  0  0  0  0  0  0
   16.6308  -25.3144   -4.3860 C   0  0  0  0  0  0  0  0  0  0  0  0
   17.5381  -26.3413   -5.0741 C   0  0  2  0  0  0  0  0  0  0  0  0
   17.3994  -26.1179   -6.4902 N   0  0  0  0  0  0  0  0  0  0  0  0
   17.0032  -27.6864   -4.6747 C   0  0  0  0  0  0  0  0  0  0  0  0
   15.8625  -28.0719   -5.0317 O   0  0  0  0  0  0  0  0  0  0  0  0
   17.7591  -28.5880   -3.8750 N   0  0  0  0  0  0  0  0  0  0  0  0
   17.2272  -29.8676   -3.4219 C   0  0  1  0  0  0  0  0  0  0  0  0
   17.9028  -30.9600   -4.2120 C   0  0  0  0  0  0  0  0  0  0  0  0
   19.2393  -30.5264   -4.7422 C   0  0  0  0  0  0  0  0  0  0  0  0
   20.3056  -31.5398   -4.6471 C   0  0  0  0  0  0  0  0  0  0  0  0
   20.8834  -31.8859   -3.5919 O   0  0  0  0  0  0  0  0  0  0  0  0
   17.4491  -30.0692   -1.9778 C   0  0  0  0  0  0  0  0  0  0  0  0
   18.0065  -29.1658   -1.3151 O   0  0  0  0  0  0  0  0  0  0  0  0
   20.7306  -32.1857   -5.8052 O   0  0  0  0  0  0  0  0  0  0  0  0
   17.0610  -31.2249   -1.3322 O   0  0  0  0  0  0  0  0  0  0  0  0
  1  2  1  0
  3  2  1  0
  4  3  1  0
  5  7  1  0
  5  4  1  0
  5  6  1  1
  7 12  1  0
  7  8  2  0
 10  9  1  0
 11 10  1  1
 11 13  1  0
 12 11  1  0
 13 15  1  0
 13 14  2  0
 15 16  1  0
 16 21  1  0
 16 17  1  6
 18 17  1  0
 19 18  1  0
 20 19  2  0
 21 22  2  0
 21 24  1  0
 23 19  1  0
M  END
$$$$
