MSE.pdb
     RDKit          3D

 24 23  0  0  1  0  0  0  0  0999 V2000
   29.1064  -18.7523   -5.9779 C   0  0  0  0  0  0  0  0  0  0  0  0
   27.5605  -19.6467   -5.6546 S   0  0  0  0  0  0  0  0  0  0  0  0
   27.3290  -20.8762   -6.9797 C   0  0  0  0  0  0  0  0  0  0  0  0
   27.0468  -20.1862   -8.2966 C   0  0  0  0  0  0  0  0  0  0  0  0
   26.8764  -21.2435   -9.3629 C   0  0  2  0  0  0  0  0  0  0  0  0
   28.1648  -21.8753   -9.5509 N   0  0  0  0  0  0  0  0  0  0  0  0
   26.4416  -20.6696  -10.6526 C   0  0  0  0  0  0  0  0  0  0  0  0
   26.9814  -19.6158  -11.0628 O   0  0  0  0  0  0  0  0  0  0  0  0
   24.5515  -23.0280  -13.2696 O   0  0  0  0  0  0  0  0  0  0  0  0
   25.2134  -21.9050  -13.7471 C   0  0  0  0  0  0  0  0  0  0  0  0
   25.0440  -20.7399  -12.7648 C   0  0  2  0  0  0  0  0  0  0  0  0
   25.4361  -21.2410  -11.4726 N   0  0  0  0  0  0  0  0  0  0  0  0
   23.5840  -20.3903  -12.7990 C   0  0  0  0  0  0  0  0  0  0  0  0
   22.7817  -20.8359  -11.9417 O   0  0  0  0  0  0  0  0  0  0  0  0
   23.0388  -19.5397  -13.8004 N   0  0  0  0  0  0  0  0  0  0  0  0
   21.6061  -19.3026  -13.9314 C   0  0  1  0  0  0  0  0  0  0  0  0
   21.4056  -18.2032  -14.9438 C   0  0  0  0  0  0  0  0  0  0  0  0
   19.9583  -17.8302  -15.0900 C   0  0  0  0  0  0  0  0  0  0  0  0
   19.6782  -16.8129  -16.1194 C   0  0  0  0  0  0  0  0  0  0  0  0
   20.0955  -16.8428  -17.2993 O   0  0  0  0  0  0  0  0  0  0  0  0
   20.8885  -20.5210  -14.3510 C   0  0  0  0  0  0  0  0  0  0  0  0
   21.4394  -21.3063  -15.1545 O   0  0  0  0  0  0  0  0  0  0  0  0
   18.8883  -15.7149  -15.7885 O   0  0  0  0  0  0  0  0  0  0  0  0
   19.6258  -20.8236  -13.8847 O   0  0  0  0  0  0  0  0  0  0  0  0
  1  2  1  0
  3  2  1  0
  4  3  1  0
  5  7  1  0
  5  4  1  0
  5  6  1  6
  7 12  1  0
  7  8  2  0
 10  9  1  0
 11 10  1  6
 11 13  1  0
 12 11  1  0
 13 15  1  0
 13 14  2  0
 15 16  1  0
 16 21  1  0
 16 17  1  6
 18 17  1  0
 19 18  1  0
 20 19  2  0
 21 22  2  0
 21 24  1  0
 23 19  1  0
M  END
$$$$
