MSE.pdb
     RDKit          3D

 24 23  0  0  1  0  0  0  0  0999 V2000
   18.6543  -16.8001  -19.8030 C   0  0  0  0  0  0  0  0  0  0  0  0
   18.0830  -15.1099  -19.4698 S   0  0  0  0  0  0  0  0  0  0  0  0
   19.3435  -14.2756  -18.4517 C   0  0  0  0  0  0  0  0  0  0  0  0
   18.9088  -12.8632  -18.1261 C   0  0  0  0  0  0  0  0  0  0  0  0
   19.9239  -12.2559  -17.1854 C   0  0  2  0  0  0  0  0  0  0  0  0
   19.8861  -13.0234  -15.9591 N   0  0  0  0  0  0  0  0  0  0  0  0
   19.6162  -10.8466  -16.8677 C   0  0  0  0  0  0  0  0  0  0  0  0
   19.5599  -10.0108  -17.7996 O   0  0  0  0  0  0  0  0  0  0  0  0
   16.9799   -9.3972  -14.0743 O   0  0  0  0  0  0  0  0  0  0  0  0
   18.3114   -9.0570  -13.8778 C   0  0  0  0  0  0  0  0  0  0  0  0
   19.0431   -9.0053  -15.2243 C   0  0  2  0  0  0  0  0  0  0  0  0
   19.3761  -10.3670  -15.5554 N   0  0  0  0  0  0  0  0  0  0  0  0
   20.2750   -8.1808  -14.9845 C   0  0  0  0  0  0  0  0  0  0  0  0
   21.2878   -8.6623  -14.4192 O   0  0  0  0  0  0  0  0  0  0  0  0
   20.3561   -6.8180  -15.3843 N   0  0  0  0  0  0  0  0  0  0  0  0
   21.5324   -5.9955  -15.1282 C   0  0  1  0  0  0  0  0  0  0  0  0
   21.3607   -4.6924  -15.8676 C   0  0  0  0  0  0  0  0  0  0  0  0
   20.3159   -3.8195  -15.2339 C   0  0  0  0  0  0  0  0  0  0  0  0
   19.9770   -2.6023  -15.9933 C   0  0  0  0  0  0  0  0  0  0  0  0
   20.5126   -2.2465  -17.0673 O   0  0  0  0  0  0  0  0  0  0  0  0
   21.7183   -5.7446  -13.6867 C   0  0  0  0  0  0  0  0  0  0  0  0
   20.7909   -6.0255  -12.8948 O   0  0  0  0  0  0  0  0  0  0  0  0
   18.9848   -1.7553  -15.5064 O   0  0  0  0  0  0  0  0  0  0  0  0
   22.8850   -5.2087  -13.1818 O   0  0  0  0  0  0  0  0  0  0  0  0
  1  2  1  0
  3  2  1  0
  4  3  1  0
  5  7  1  0
  5  4  1  0
  5  6  1  1
  7 12  1  0
  7  8  2  0
 10  9  1  0
 11 10  1  1
 11 13  1  0
 12 11  1  0
 13 15  1  0
 13 14  2  0
 15 16  1  0
 16 21  1  0
 16 17  1  6
 18 17  1  0
 19 18  1  0
 20 19  2  0
 21 22  2  0
 21 24  1  0
 23 19  1  0
M  END
$$$$
