MSE.pdb
     RDKit          3D

 24 23  0  0  1  0  0  0  0  0999 V2000
   14.8409  -14.1862  -20.0352 C   0  0  0  0  0  0  0  0  0  0  0  0
   15.2533  -12.8868  -18.8369 S   0  0  0  0  0  0  0  0  0  0  0  0
   16.7305  -13.4176  -17.9110 C   0  0  0  0  0  0  0  0  0  0  0  0
   17.2371  -12.2922  -17.0352 C   0  0  0  0  0  0  0  0  0  0  0  0
   18.4538  -12.7820  -16.2844 C   0  0  2  0  0  0  0  0  0  0  0  0
   18.0296  -13.8894  -15.4549 N   0  0  0  0  0  0  0  0  0  0  0  0
   19.0300  -11.7366  -15.4143 C   0  0  0  0  0  0  0  0  0  0  0  0
   18.4156  -11.4034  -14.3744 O   0  0  0  0  0  0  0  0  0  0  0  0
   22.8228  -10.5137  -16.0647 O   0  0  0  0  0  0  0  0  0  0  0  0
   22.3106  -10.2637  -14.7989 C   0  0  0  0  0  0  0  0  0  0  0  0
   20.8019  -10.0044  -14.8860 C   0  0  2  0  0  0  0  0  0  0  0  0
   20.2538  -11.0728  -15.6815 N   0  0  0  0  0  0  0  0  0  0  0  0
   20.6580   -8.6773  -15.5738 C   0  0  0  0  0  0  0  0  0  0  0  0
   20.0887   -8.5735  -16.6884 O   0  0  0  0  0  0  0  0  0  0  0  0
   21.1575   -7.4756  -14.9992 N   0  0  0  0  0  0  0  0  0  0  0  0
   21.0236   -6.1798  -15.6542 C   0  0  1  0  0  0  0  0  0  0  0  0
   19.5607   -5.9497  -15.9389 C   0  0  0  0  0  0  0  0  0  0  0  0
   19.2912   -4.5459  -16.3992 C   0  0  0  0  0  0  0  0  0  0  0  0
   17.8651   -4.1978  -16.5345 C   0  0  0  0  0  0  0  0  0  0  0  0
   16.9061   -4.9522  -16.2552 O   0  0  0  0  0  0  0  0  0  0  0  0
   21.5594   -5.0890  -14.8184 C   0  0  0  0  0  0  0  0  0  0  0  0
   21.7254   -3.9575  -15.3264 O   0  0  0  0  0  0  0  0  0  0  0  0
   17.5189   -2.9351  -17.0085 O   0  0  0  0  0  0  0  0  0  0  0  0
   21.8842   -5.2765  -13.4908 O   0  0  0  0  0  0  0  0  0  0  0  0
  1  2  1  0
  3  2  1  0
  4  3  1  0
  5  7  1  0
  5  4  1  0
  5  6  1  1
  7 12  1  0
  7  8  2  0
 10  9  1  0
 11 10  1  6
 11 13  1  0
 12 11  1  0
 13 15  1  0
 13 14  2  0
 15 16  1  0
 16 21  1  0
 16 17  1  1
 18 17  1  0
 19 18  1  0
 20 19  2  0
 21 22  2  0
 21 24  1  0
 23 19  1  0
M  END
$$$$
