MSE.pdb
     RDKit          3D

 24 23  0  0  1  0  0  0  0  0999 V2000
   21.2828  -14.5286  -18.4396 C   0  0  0  0  0  0  0  0  0  0  0  0
   22.2338  -15.0670  -19.8888 S   0  0  0  0  0  0  0  0  0  0  0  0
   23.8258  -14.1799  -19.8838 C   0  0  0  0  0  0  0  0  0  0  0  0
   23.6706  -12.8206  -19.2371 C   0  0  0  0  0  0  0  0  0  0  0  0
   25.0359  -12.1801  -19.1382 C   0  0  2  0  0  0  0  0  0  0  0  0
   25.7794  -12.9072  -18.1317 N   0  0  0  0  0  0  0  0  0  0  0  0
   24.9583  -10.7620  -18.7324 C   0  0  0  0  0  0  0  0  0  0  0  0
   25.1887  -10.4567  -17.5392 O   0  0  0  0  0  0  0  0  0  0  0  0
   24.3090   -6.1698  -20.2774 O   0  0  0  0  0  0  0  0  0  0  0  0
   24.3306   -7.5321  -20.5436 C   0  0  0  0  0  0  0  0  0  0  0  0
   24.5307   -8.3172  -19.2418 C   0  0  2  0  0  0  0  0  0  0  0  0
   24.6346   -9.7036  -19.6183 N   0  0  0  0  0  0  0  0  0  0  0  0
   23.2996   -8.0612  -18.4210 C   0  0  0  0  0  0  0  0  0  0  0  0
   22.2307   -8.6875  -18.6273 O   0  0  0  0  0  0  0  0  0  0  0  0
   23.2825   -7.1000  -17.3724 N   0  0  0  0  0  0  0  0  0  0  0  0
   22.1048   -6.8634  -16.5461 C   0  0  1  0  0  0  0  0  0  0  0  0
   22.5719   -6.3934  -15.1915 C   0  0  0  0  0  0  0  0  0  0  0  0
   21.4223   -6.0953  -14.2723 C   0  0  0  0  0  0  0  0  0  0  0  0
   21.8052   -5.6562  -12.9182 C   0  0  0  0  0  0  0  0  0  0  0  0
   22.9671   -5.3680  -12.5521 O   0  0  0  0  0  0  0  0  0  0  0  0
   21.2060   -5.8633  -17.1522 C   0  0  0  0  0  0  0  0  0  0  0  0
   21.6998   -4.9158  -17.8037 O   0  0  0  0  0  0  0  0  0  0  0  0
   20.8205   -5.5412  -11.9404 O   0  0  0  0  0  0  0  0  0  0  0  0
   19.8345   -5.9390  -17.0238 O   0  0  0  0  0  0  0  0  0  0  0  0
  1  2  1  0
  3  2  1  0
  4  3  1  0
  5  7  1  0
  5  4  1  0
  5  6  1  1
  7 12  1  0
  7  8  2  0
 10  9  1  0
 11 10  1  6
 11 13  1  0
 12 11  1  0
 13 15  1  0
 13 14  2  0
 15 16  1  0
 16 21  1  0
 16 17  1  1
 18 17  1  0
 19 18  1  0
 20 19  2  0
 21 22  2  0
 21 24  1  0
 23 19  1  0
M  END
$$$$
