NQP.pdb
     RDKit          3D

 25 25  0  0  1  0  0  0  0  0999 V2000
   12.5584  -19.0049   18.1243 N   0  0  0  0  0  0  0  0  0  0  0  0
   11.2058  -18.5730   18.1069 C   0  0  0  0  0  0  0  0  0  0  0  0
   10.8829  -17.5123   17.4856 O   0  0  0  0  0  0  0  0  0  0  0  0
   10.1899  -19.3791   18.8228 C   0  0  0  0  0  0  0  0  0  0  0  0
    9.7975  -18.7314   20.1079 C   0  0  2  0  0  0  0  0  0  0  0  0
    9.3599  -17.3804   19.8023 N   0  0  0  0  0  0  0  0  0  0  0  0
   10.8048  -18.7413   21.1644 C   0  0  0  0  0  0  0  0  0  0  0  0
   11.3556  -19.8405   21.5004 O   0  0  0  0  0  0  0  0  0  0  0  0
   16.1966  -17.1835   23.5802 N   0  0  0  0  0  0  0  0  0  0  0  0
   15.2215  -16.1864   23.4241 C   0  0  0  0  0  0  0  0  0  0  0  0
   15.4927  -15.1777   22.6929 O   0  0  0  0  0  0  0  0  0  0  0  0
   13.8842  -16.2276   24.0585 C   0  0  0  0  0  0  0  0  0  0  0  0
   12.7713  -16.1897   23.0578 C   0  0  0  0  0  0  0  0  0  0  0  0
   12.1963  -17.6107   22.9258 C   0  0  2  0  0  0  0  0  0  0  0  0
   11.2345  -17.5796   21.8693 N   0  0  0  0  0  0  0  0  0  0  0  0
   11.6494  -18.0429   24.1999 C   0  0  0  0  0  0  0  0  0  0  0  0
   10.7537  -17.2552   24.7304 O   0  0  0  0  0  0  0  0  0  0  0  0
   11.9319  -19.1884   24.9692 N   0  0  0  0  0  0  0  0  0  0  0  0
   12.8627  -20.2303   24.6579 C   0  0  0  0  0  0  0  0  0  0  0  0
   12.8839  -21.1460   25.9043 C   0  0  0  0  0  0  0  0  0  0  0  0
   11.4373  -20.9568   26.4031 C   0  0  0  0  0  0  0  0  0  0  0  0
   11.3099  -19.4786   26.2361 C   0  0  1  0  0  0  0  0  0  0  0  0
   11.9678  -18.7826   27.3654 C   0  0  0  0  0  0  0  0  0  0  0  0
   11.4588  -18.6864   28.6477 O   0  0  0  0  0  0  0  0  0  0  0  0
   13.0747  -18.2378   27.1381 O   0  0  0  0  0  0  0  0  0  0  0  0
  2  3  2  0
  2  1  1  0
  4  2  1  0
  5  4  1  0
  5  7  1  0
  5  6  1  6
  7  8  2  0
  9 10  1  0
 10 12  1  0
 11 10  2  0
 12 13  1  0
 14 13  1  1
 14 16  1  0
 15  7  1  0
 15 14  1  0
 16 17  2  0
 18 16  1  0
 18 22  1  0
 19 18  1  0
 20 21  1  0
 20 19  1  0
 21 22  1  0
 22 23  1  1
 23 25  2  0
 23 24  1  0
M  END
$$$$
