NQP.pdb
     RDKit          3D

 25 25  0  0  1  0  0  0  0  0999 V2000
    7.5002  -13.0560   16.9504 N   0  0  0  0  0  0  0  0  0  0  0  0
    8.1982  -13.3563   18.1500 C   0  0  0  0  0  0  0  0  0  0  0  0
    9.4626  -13.4844   18.1372 O   0  0  0  0  0  0  0  0  0  0  0  0
    7.4262  -13.5155   19.4043 C   0  0  0  0  0  0  0  0  0  0  0  0
    7.7551  -14.8049   20.0781 C   0  0  2  0  0  0  0  0  0  0  0  0
    7.3183  -15.8801   19.2045 N   0  0  0  0  0  0  0  0  0  0  0  0
    7.2357  -14.9714   21.4322 C   0  0  0  0  0  0  0  0  0  0  0  0
    6.0170  -14.6911   21.6791 O   0  0  0  0  0  0  0  0  0  0  0  0
    7.8171  -19.7502   25.2684 N   0  0  0  0  0  0  0  0  0  0  0  0
    7.1772  -18.7421   26.0057 C   0  0  0  0  0  0  0  0  0  0  0  0
    6.6403  -19.0497   27.1205 O   0  0  0  0  0  0  0  0  0  0  0  0
    7.0825  -17.3297   25.5710 C   0  0  0  0  0  0  0  0  0  0  0  0
    7.6405  -17.1114   24.1991 C   0  0  0  0  0  0  0  0  0  0  0  0
    7.4802  -15.6220   23.8475 C   0  0  2  0  0  0  0  0  0  0  0  0
    8.0101  -15.4400   22.5328 N   0  0  0  0  0  0  0  0  0  0  0  0
    8.1291  -14.8034   24.8564 C   0  0  0  0  0  0  0  0  0  0  0  0
    9.4281  -14.9119   24.9270 O   0  0  0  0  0  0  0  0  0  0  0  0
    7.5789  -13.8994   25.7859 N   0  0  0  0  0  0  0  0  0  0  0  0
    6.1941  -13.5906   25.9751 C   0  0  0  0  0  0  0  0  0  0  0  0
    6.1467  -12.6652   27.2135 C   0  0  0  0  0  0  0  0  0  0  0  0
    7.5118  -11.9616   27.0774 C   0  0  0  0  0  0  0  0  0  0  0  0
    8.3617  -13.1376   26.7255 C   0  0  1  0  0  0  0  0  0  0  0  0
    8.6921  -13.9074   27.9466 C   0  0  0  0  0  0  0  0  0  0  0  0
    8.2356  -15.1809   28.2337 O   0  0  0  0  0  0  0  0  0  0  0  0
    9.4461  -13.3584   28.7854 O   0  0  0  0  0  0  0  0  0  0  0  0
  2  3  2  0
  2  1  1  0
  4  2  1  0
  5  4  1  0
  5  7  1  0
  5  6  1  6
  7  8  2  0
  9 10  1  0
 10 12  1  0
 11 10  2  0
 12 13  1  0
 14 13  1  1
 14 16  1  0
 15  7  1  0
 15 14  1  0
 16 17  2  0
 18 16  1  0
 18 22  1  0
 19 18  1  0
 20 21  1  0
 20 19  1  0
 21 22  1  0
 22 23  1  1
 23 25  2  0
 23 24  1  0
M  END
$$$$
