NQP.pdb
     RDKit          3D

 25 25  0  0  1  0  0  0  0  0999 V2000
    8.7383  -12.6152   17.4836 N   0  0  0  0  0  0  0  0  0  0  0  0
    8.1216  -13.7994   17.9670 C   0  0  0  0  0  0  0  0  0  0  0  0
    8.1743  -14.8703   17.2846 O   0  0  0  0  0  0  0  0  0  0  0  0
    7.4219  -13.7582   19.2721 C   0  0  0  0  0  0  0  0  0  0  0  0
    8.3417  -14.1264   20.3872 C   0  0  2  0  0  0  0  0  0  0  0  0
    9.0928  -15.2968   19.9676 N   0  0  0  0  0  0  0  0  0  0  0  0
    7.7186  -14.3299   21.6915 C   0  0  0  0  0  0  0  0  0  0  0  0
    6.9507  -13.4324   22.1705 O   0  0  0  0  0  0  0  0  0  0  0  0
    7.2256  -19.8143   25.1268 N   0  0  0  0  0  0  0  0  0  0  0  0
    6.7904  -18.7490   25.9300 C   0  0  0  0  0  0  0  0  0  0  0  0
    6.3531  -19.0065   27.0996 O   0  0  0  0  0  0  0  0  0  0  0  0
    6.8049  -17.3305   25.5055 C   0  0  0  0  0  0  0  0  0  0  0  0
    7.3902  -17.1445   24.1402 C   0  0  0  0  0  0  0  0  0  0  0  0
    7.3526  -15.6438   23.8026 C   0  0  2  0  0  0  0  0  0  0  0  0
    7.9070  -15.4923   22.4941 N   0  0  0  0  0  0  0  0  0  0  0  0
    8.0559  -14.8894   24.8250 C   0  0  0  0  0  0  0  0  0  0  0  0
    9.3512  -15.0481   24.8582 O   0  0  0  0  0  0  0  0  0  0  0  0
    7.5626  -14.0027   25.8019 N   0  0  0  0  0  0  0  0  0  0  0  0
    6.1930  -13.6755   26.0590 C   0  0  0  0  0  0  0  0  0  0  0  0
    6.2155  -12.7848   27.3233 C   0  0  0  0  0  0  0  0  0  0  0  0
    7.5863  -12.1012   27.1478 C   0  0  0  0  0  0  0  0  0  0  0  0
    8.3986  -13.2813   26.7274 C   0  0  1  0  0  0  0  0  0  0  0  0
    8.7666  -14.0909   27.9115 C   0  0  0  0  0  0  0  0  0  0  0  0
    9.7114  -13.7363   28.8570 O   0  0  0  0  0  0  0  0  0  0  0  0
    8.1723  -15.1847   28.0667 O   0  0  0  0  0  0  0  0  0  0  0  0
  2  3  2  0
  2  1  1  0
  4  2  1  0
  5  4  1  0
  5  7  1  0
  5  6  1  6
  7  8  2  0
  9 10  1  0
 10 12  1  0
 11 10  2  0
 12 13  1  0
 14 13  1  1
 14 16  1  0
 15  7  1  0
 15 14  1  0
 16 17  2  0
 18 16  1  0
 18 22  1  0
 19 18  1  0
 20 21  1  0
 20 19  1  0
 21 22  1  0
 22 23  1  1
 23 25  2  0
 23 24  1  0
M  END
$$$$
