NQP.pdb
     RDKit          3D

 25 25  0  0  1  0  0  0  0  0999 V2000
    9.3647  -14.8464   17.9505 N   0  0  0  0  0  0  0  0  0  0  0  0
    8.4511  -13.7975   18.2360 C   0  0  0  0  0  0  0  0  0  0  0  0
    8.3132  -12.8323   17.4208 O   0  0  0  0  0  0  0  0  0  0  0  0
    7.6704  -13.8536   19.4938 C   0  0  0  0  0  0  0  0  0  0  0  0
    7.9821  -15.0915   20.2654 C   0  0  2  0  0  0  0  0  0  0  0  0
    7.5204  -16.2243   19.4821 N   0  0  0  0  0  0  0  0  0  0  0  0
    7.4700  -15.1413   21.6314 C   0  0  0  0  0  0  0  0  0  0  0  0
    6.2950  -14.7148   21.8804 O   0  0  0  0  0  0  0  0  0  0  0  0
    7.8537  -20.1804   24.6635 N   0  0  0  0  0  0  0  0  0  0  0  0
    6.6971  -19.3945   24.7813 C   0  0  0  0  0  0  0  0  0  0  0  0
    5.6589  -19.9132   25.3093 O   0  0  0  0  0  0  0  0  0  0  0  0
    6.6002  -17.9881   24.3283 C   0  0  0  0  0  0  0  0  0  0  0  0
    7.8864  -17.2403   24.4944 C   0  0  0  0  0  0  0  0  0  0  0  0
    7.6550  -15.7843   24.0541 C   0  0  2  0  0  0  0  0  0  0  0  0
    8.2050  -15.6484   22.7420 N   0  0  0  0  0  0  0  0  0  0  0  0
    8.2355  -14.8755   25.0269 C   0  0  0  0  0  0  0  0  0  0  0  0
    9.5398  -14.8252   25.0499 O   0  0  0  0  0  0  0  0  0  0  0  0
    7.6134  -14.0282   25.9644 N   0  0  0  0  0  0  0  0  0  0  0  0
    6.2081  -13.8645   26.1819 C   0  0  0  0  0  0  0  0  0  0  0  0
    6.0901  -12.9415   27.4174 C   0  0  0  0  0  0  0  0  0  0  0  0
    7.3711  -12.1000   27.2492 C   0  0  0  0  0  0  0  0  0  0  0  0
    8.3317  -13.1829   26.8839 C   0  0  1  0  0  0  0  0  0  0  0  0
    8.7662  -13.9065   28.1007 C   0  0  0  0  0  0  0  0  0  0  0  0
    9.6526  -13.4192   29.0438 O   0  0  0  0  0  0  0  0  0  0  0  0
    8.2909  -15.0521   28.2884 O   0  0  0  0  0  0  0  0  0  0  0  0
  2  3  2  0
  2  1  1  0
  4  2  1  0
  5  4  1  0
  5  7  1  0
  5  6  1  6
  7  8  2  0
  9 10  1  0
 10 12  1  0
 11 10  2  0
 12 13  1  0
 14 13  1  1
 14 16  1  0
 15  7  1  0
 15 14  1  0
 16 17  2  0
 18 16  1  0
 18 22  1  0
 19 18  1  0
 20 21  1  0
 20 19  1  0
 21 22  1  0
 22 23  1  1
 23 25  2  0
 23 24  1  0
M  END
$$$$
