NQP.pdb
     RDKit          3D

 25 25  0  0  1  0  0  0  0  0999 V2000
    8.3355  -12.4341   17.9059 N   0  0  0  0  0  0  0  0  0  0  0  0
    8.0766  -13.7922   18.2297 C   0  0  0  0  0  0  0  0  0  0  0  0
    8.4859  -14.7198   17.4633 O   0  0  0  0  0  0  0  0  0  0  0  0
    7.3257  -14.1000   19.4691 C   0  0  0  0  0  0  0  0  0  0  0  0
    8.2379  -14.5903   20.5427 C   0  0  2  0  0  0  0  0  0  0  0  0
    8.7381  -15.8910   20.1329 N   0  0  0  0  0  0  0  0  0  0  0  0
    7.6775  -14.6328   21.8899 C   0  0  0  0  0  0  0  0  0  0  0  0
    7.0470  -13.6220   22.3430 O   0  0  0  0  0  0  0  0  0  0  0  0
    6.9638  -20.0379   24.9322 N   0  0  0  0  0  0  0  0  0  0  0  0
    6.0527  -19.3506   24.1156 C   0  0  0  0  0  0  0  0  0  0  0  0
    5.0807  -19.9998   23.6063 O   0  0  0  0  0  0  0  0  0  0  0  0
    6.1455  -17.9064   23.8021 C   0  0  0  0  0  0  0  0  0  0  0  0
    7.2339  -17.2204   24.5677 C   0  0  0  0  0  0  0  0  0  0  0  0
    7.2935  -15.7537   24.1065 C   0  0  2  0  0  0  0  0  0  0  0  0
    7.7825  -15.7537   22.7637 N   0  0  0  0  0  0  0  0  0  0  0  0
    8.1102  -14.9797   25.0247 C   0  0  0  0  0  0  0  0  0  0  0  0
    9.3927  -15.2204   24.9856 O   0  0  0  0  0  0  0  0  0  0  0  0
    7.7403  -13.9986   25.9652 N   0  0  0  0  0  0  0  0  0  0  0  0
    6.4430  -13.4217   26.1470 C   0  0  0  0  0  0  0  0  0  0  0  0
    6.5661  -12.5252   27.4014 C   0  0  0  0  0  0  0  0  0  0  0  0
    8.0460  -12.1072   27.2906 C   0  0  0  0  0  0  0  0  0  0  0  0
    8.6478  -13.4239   26.9255 C   0  0  1  0  0  0  0  0  0  0  0  0
    8.8020  -14.2635   28.1355 C   0  0  0  0  0  0  0  0  0  0  0  0
    8.0963  -15.4240   28.3955 O   0  0  0  0  0  0  0  0  0  0  0  0
    9.6402  -13.8900   28.9909 O   0  0  0  0  0  0  0  0  0  0  0  0
  2  3  2  0
  2  1  1  0
  4  2  1  0
  5  4  1  0
  5  7  1  0
  5  6  1  6
  7  8  2  0
  9 10  1  0
 10 12  1  0
 11 10  2  0
 12 13  1  0
 14 13  1  1
 14 16  1  0
 15  7  1  0
 15 14  1  0
 16 17  2  0
 18 16  1  0
 18 22  1  0
 19 18  1  0
 20 21  1  0
 20 19  1  0
 21 22  1  0
 22 23  1  1
 23 25  2  0
 23 24  1  0
M  END
$$$$
