NQP.pdb
     RDKit          3D

 25 25  0  0  1  0  0  0  0  0999 V2000
    9.2137  -15.5323   18.1666 N   0  0  0  0  0  0  0  0  0  0  0  0
    8.4294  -14.3771   18.4251 C   0  0  0  0  0  0  0  0  0  0  0  0
    8.4856  -13.3792   17.6400 O   0  0  0  0  0  0  0  0  0  0  0  0
    7.5529  -14.3620   19.6194 C   0  0  0  0  0  0  0  0  0  0  0  0
    7.6128  -15.6629   20.3467 C   0  0  2  0  0  0  0  0  0  0  0  0
    6.7989  -16.6146   19.6106 N   0  0  0  0  0  0  0  0  0  0  0  0
    7.2458  -15.6251   21.7591 C   0  0  0  0  0  0  0  0  0  0  0  0
    6.0949  -15.1966   22.1004 O   0  0  0  0  0  0  0  0  0  0  0  0
    9.1045  -19.5725   26.3678 N   0  0  0  0  0  0  0  0  0  0  0  0
    8.4047  -18.5258   26.9875 C   0  0  0  0  0  0  0  0  0  0  0  0
    8.2122  -18.5828   28.2466 O   0  0  0  0  0  0  0  0  0  0  0  0
    7.8686  -17.3470   26.2695 C   0  0  0  0  0  0  0  0  0  0  0  0
    8.2080  -17.3582   24.8114 C   0  0  0  0  0  0  0  0  0  0  0  0
    7.7135  -16.0386   24.1937 C   0  0  2  0  0  0  0  0  0  0  0  0
    8.1014  -16.0458   22.8182 N   0  0  0  0  0  0  0  0  0  0  0  0
    8.2431  -14.9130   24.9432 C   0  0  0  0  0  0  0  0  0  0  0  0
    9.5384  -14.7574   24.8954 O   0  0  0  0  0  0  0  0  0  0  0  0
    7.5792  -13.9484   25.7259 N   0  0  0  0  0  0  0  0  0  0  0  0
    6.1683  -13.8268   25.9340 C   0  0  0  0  0  0  0  0  0  0  0  0
    6.0052  -12.7069   26.9883 C   0  0  0  0  0  0  0  0  0  0  0  0
    7.2346  -11.8390   26.6528 C   0  0  0  0  0  0  0  0  0  0  0  0
    8.2536  -12.9147   26.4693 C   0  0  1  0  0  0  0  0  0  0  0  0
    8.7366  -13.3852   27.7877 C   0  0  0  0  0  0  0  0  0  0  0  0
    9.5827  -12.6804   28.6244 O   0  0  0  0  0  0  0  0  0  0  0  0
    8.3457  -14.5130   28.1737 O   0  0  0  0  0  0  0  0  0  0  0  0
  2  3  2  0
  2  1  1  0
  4  2  1  0
  5  4  1  0
  5  7  1  0
  5  6  1  6
  7  8  2  0
  9 10  1  0
 10 12  1  0
 11 10  2  0
 12 13  1  0
 14 13  1  1
 14 16  1  0
 15  7  1  0
 15 14  1  0
 16 17  2  0
 18 16  1  0
 18 22  1  0
 19 18  1  0
 20 21  1  0
 20 19  1  0
 21 22  1  0
 22 23  1  1
 23 25  2  0
 23 24  1  0
M  END
$$$$
