NQP.pdb
     RDKit          3D

 25 25  0  0  1  0  0  0  0  0999 V2000
    9.4674  -12.9661   17.8390 N   0  0  0  0  0  0  0  0  0  0  0  0
    8.2753  -13.7347   17.7695 C   0  0  0  0  0  0  0  0  0  0  0  0
    7.9211  -14.2643   16.6698 O   0  0  0  0  0  0  0  0  0  0  0  0
    7.4620  -13.9029   18.9962 C   0  0  0  0  0  0  0  0  0  0  0  0
    8.3294  -14.0972   20.1940 C   0  0  2  0  0  0  0  0  0  0  0  0
    9.2446  -15.1863   19.9005 N   0  0  0  0  0  0  0  0  0  0  0  0
    7.6352  -14.3084   21.4607 C   0  0  0  0  0  0  0  0  0  0  0  0
    6.7761  -13.4553   21.8589 O   0  0  0  0  0  0  0  0  0  0  0  0
    7.0572  -19.7142   24.9756 N   0  0  0  0  0  0  0  0  0  0  0  0
    6.6036  -18.6362   25.7512 C   0  0  0  0  0  0  0  0  0  0  0  0
    6.1217  -18.8770   26.9069 O   0  0  0  0  0  0  0  0  0  0  0  0
    6.6474  -17.2225   25.3128 C   0  0  0  0  0  0  0  0  0  0  0  0
    7.2371  -17.0621   23.9461 C   0  0  0  0  0  0  0  0  0  0  0  0
    7.2601  -15.5615   23.6069 C   0  0  2  0  0  0  0  0  0  0  0  0
    7.8495  -15.4314   22.3114 N   0  0  0  0  0  0  0  0  0  0  0  0
    7.9659  -14.8309   24.6448 C   0  0  0  0  0  0  0  0  0  0  0  0
    9.2573  -15.0156   24.6918 O   0  0  0  0  0  0  0  0  0  0  0  0
    7.4784  -13.9438   25.6243 N   0  0  0  0  0  0  0  0  0  0  0  0
    6.1089  -13.6520   25.9209 C   0  0  0  0  0  0  0  0  0  0  0  0
    6.1458  -12.7418   27.1709 C   0  0  0  0  0  0  0  0  0  0  0  0
    7.4899  -12.0222   26.9414 C   0  0  0  0  0  0  0  0  0  0  0  0
    8.3223  -13.1848   26.5119 C   0  0  1  0  0  0  0  0  0  0  0  0
    8.7512  -13.9654   27.6949 C   0  0  0  0  0  0  0  0  0  0  0  0
    9.7193  -13.5724   28.6009 O   0  0  0  0  0  0  0  0  0  0  0  0
    8.1900  -15.0706   27.8882 O   0  0  0  0  0  0  0  0  0  0  0  0
  2  3  2  0
  2  1  1  0
  4  2  1  0
  5  4  1  0
  5  7  1  0
  5  6  1  6
  7  8  2  0
  9 10  1  0
 10 12  1  0
 11 10  2  0
 12 13  1  0
 14 13  1  1
 14 16  1  0
 15  7  1  0
 15 14  1  0
 16 17  2  0
 18 16  1  0
 18 22  1  0
 19 18  1  0
 20 21  1  0
 20 19  1  0
 21 22  1  0
 22 23  1  1
 23 25  2  0
 23 24  1  0
M  END
$$$$
