NQP.pdb
     RDKit          3D

 25 25  0  0  1  0  0  0  0  0999 V2000
    8.7358  -12.6960   17.5492 N   0  0  0  0  0  0  0  0  0  0  0  0
    8.1425  -13.9251   17.9412 C   0  0  0  0  0  0  0  0  0  0  0  0
    8.2688  -14.9563   17.2092 O   0  0  0  0  0  0  0  0  0  0  0  0
    7.3803  -13.9770   19.2105 C   0  0  0  0  0  0  0  0  0  0  0  0
    8.2878  -14.1945   20.3741 C   0  0  2  0  0  0  0  0  0  0  0  0
    9.2014  -15.2678   20.0230 N   0  0  0  0  0  0  0  0  0  0  0  0
    7.6369  -14.4441   21.6567 C   0  0  0  0  0  0  0  0  0  0  0  0
    6.6973  -13.6765   22.0471 O   0  0  0  0  0  0  0  0  0  0  0  0
    7.2751  -19.8912   25.0667 N   0  0  0  0  0  0  0  0  0  0  0  0
    6.8170  -18.8444   25.8814 C   0  0  0  0  0  0  0  0  0  0  0  0
    6.3556  -19.1275   27.0358 O   0  0  0  0  0  0  0  0  0  0  0  0
    6.8334  -17.4175   25.4859 C   0  0  0  0  0  0  0  0  0  0  0  0
    7.4445  -17.2016   24.1364 C   0  0  0  0  0  0  0  0  0  0  0  0
    7.3943  -15.6961   23.8225 C   0  0  2  0  0  0  0  0  0  0  0  0
    7.9807  -15.5150   22.5318 N   0  0  0  0  0  0  0  0  0  0  0  0
    8.0597  -14.9493   24.8754 C   0  0  0  0  0  0  0  0  0  0  0  0
    9.3560  -15.0897   24.9396 O   0  0  0  0  0  0  0  0  0  0  0  0
    7.5282  -14.0868   25.8540 N   0  0  0  0  0  0  0  0  0  0  0  0
    6.1470  -13.8898   26.1737 C   0  0  0  0  0  0  0  0  0  0  0  0
    6.1418  -12.9634   27.4122 C   0  0  0  0  0  0  0  0  0  0  0  0
    7.4264  -12.1526   27.1486 C   0  0  0  0  0  0  0  0  0  0  0  0
    8.3319  -13.2582   26.7163 C   0  0  1  0  0  0  0  0  0  0  0  0
    8.8374  -13.9911   27.8997 C   0  0  0  0  0  0  0  0  0  0  0  0
    9.7763  -13.5100   28.7938 O   0  0  0  0  0  0  0  0  0  0  0  0
    8.3754  -15.1392   28.1049 O   0  0  0  0  0  0  0  0  0  0  0  0
  2  3  2  0
  2  1  1  0
  4  2  1  0
  5  4  1  0
  5  7  1  0
  5  6  1  6
  7  8  2  0
  9 10  1  0
 10 12  1  0
 11 10  2  0
 12 13  1  0
 14 13  1  1
 14 16  1  0
 15  7  1  0
 15 14  1  0
 16 17  2  0
 18 16  1  0
 18 22  1  0
 19 18  1  0
 20 21  1  0
 20 19  1  0
 21 22  1  0
 22 23  1  1
 23 25  2  0
 23 24  1  0
M  END
$$$$
