NQP.pdb
     RDKit          3D

 25 25  0  0  1  0  0  0  0  0999 V2000
    8.6916  -12.5723   17.8022 N   0  0  0  0  0  0  0  0  0  0  0  0
    7.9241  -13.7350   18.0768 C   0  0  0  0  0  0  0  0  0  0  0  0
    7.8164  -14.6496   17.2009 O   0  0  0  0  0  0  0  0  0  0  0  0
    7.2584  -13.8561   19.3946 C   0  0  0  0  0  0  0  0  0  0  0  0
    8.2046  -14.3626   20.4305 C   0  0  2  0  0  0  0  0  0  0  0  0
    8.7804  -15.5992   19.9313 N   0  0  0  0  0  0  0  0  0  0  0  0
    7.6554  -14.5317   21.7724 C   0  0  0  0  0  0  0  0  0  0  0  0
    6.9109  -13.6237   22.2683 O   0  0  0  0  0  0  0  0  0  0  0  0
    7.3307  -19.9399   25.3405 N   0  0  0  0  0  0  0  0  0  0  0  0
    6.9445  -18.8568   26.1448 C   0  0  0  0  0  0  0  0  0  0  0  0
    6.5977  -19.0858   27.3502 O   0  0  0  0  0  0  0  0  0  0  0  0
    6.9122  -17.4504   25.6825 C   0  0  0  0  0  0  0  0  0  0  0  0
    7.4105  -17.2945   24.2794 C   0  0  0  0  0  0  0  0  0  0  0  0
    7.3954  -15.7963   23.9289 C   0  0  2  0  0  0  0  0  0  0  0  0
    7.8934  -15.6707   22.5952 N   0  0  0  0  0  0  0  0  0  0  0  0
    8.1633  -15.0512   24.9108 C   0  0  0  0  0  0  0  0  0  0  0  0
    9.4308  -15.3534   24.9894 O   0  0  0  0  0  0  0  0  0  0  0  0
    7.7588  -14.0422   25.8065 N   0  0  0  0  0  0  0  0  0  0  0  0
    6.4566  -13.4588   25.9198 C   0  0  0  0  0  0  0  0  0  0  0  0
    6.5322  -12.5255   27.1510 C   0  0  0  0  0  0  0  0  0  0  0  0
    8.0162  -12.1126   27.0863 C   0  0  0  0  0  0  0  0  0  0  0  0
    8.6290  -13.4402   26.7844 C   0  0  1  0  0  0  0  0  0  0  0  0
    8.7335  -14.2436   28.0240 C   0  0  0  0  0  0  0  0  0  0  0  0
    8.0068  -15.3885   28.2952 O   0  0  0  0  0  0  0  0  0  0  0  0
    9.5466  -13.8523   28.8953 O   0  0  0  0  0  0  0  0  0  0  0  0
  2  3  2  0
  2  1  1  0
  4  2  1  0
  5  4  1  0
  5  7  1  0
  5  6  1  6
  7  8  2  0
  9 10  1  0
 10 12  1  0
 11 10  2  0
 12 13  1  0
 14 13  1  1
 14 16  1  0
 15  7  1  0
 15 14  1  0
 16 17  2  0
 18 16  1  0
 18 22  1  0
 19 18  1  0
 20 21  1  0
 20 19  1  0
 21 22  1  0
 22 23  1  1
 23 25  2  0
 23 24  1  0
M  END
$$$$
