NQP.pdb
     RDKit          3D

 25 25  0  0  1  0  0  0  0  0999 V2000
    8.6783  -12.5363   17.5087 N   0  0  0  0  0  0  0  0  0  0  0  0
    8.2410  -13.8099   17.9593 C   0  0  0  0  0  0  0  0  0  0  0  0
    8.4892  -14.8495   17.2717 O   0  0  0  0  0  0  0  0  0  0  0  0
    7.4959  -13.8979   19.2367 C   0  0  0  0  0  0  0  0  0  0  0  0
    8.4063  -14.2396   20.3678 C   0  0  2  0  0  0  0  0  0  0  0  0
    9.1749  -15.4077   19.9745 N   0  0  0  0  0  0  0  0  0  0  0  0
    7.7700  -14.4306   21.6676 C   0  0  0  0  0  0  0  0  0  0  0  0
    6.9979  -13.5284   22.1305 O   0  0  0  0  0  0  0  0  0  0  0  0
    7.3857  -19.8514   25.2304 N   0  0  0  0  0  0  0  0  0  0  0  0
    6.8611  -18.7864   25.9787 C   0  0  0  0  0  0  0  0  0  0  0  0
    6.3582  -19.0355   27.1236 O   0  0  0  0  0  0  0  0  0  0  0  0
    6.8520  -17.3776   25.5229 C   0  0  0  0  0  0  0  0  0  0  0  0
    7.4811  -17.2049   24.1754 C   0  0  0  0  0  0  0  0  0  0  0  0
    7.3995  -15.7161   23.7954 C   0  0  2  0  0  0  0  0  0  0  0  0
    7.9497  -15.5856   22.4828 N   0  0  0  0  0  0  0  0  0  0  0  0
    8.0800  -14.9127   24.7956 C   0  0  0  0  0  0  0  0  0  0  0  0
    9.3774  -15.0483   24.8470 O   0  0  0  0  0  0  0  0  0  0  0  0
    7.5624  -13.9988   25.7341 N   0  0  0  0  0  0  0  0  0  0  0  0
    6.1859  -13.6762   25.9574 C   0  0  0  0  0  0  0  0  0  0  0  0
    6.1791  -12.7439   27.1916 C   0  0  0  0  0  0  0  0  0  0  0  0
    7.5466  -12.0537   27.0163 C   0  0  0  0  0  0  0  0  0  0  0  0
    8.3763  -13.2393   26.6489 C   0  0  1  0  0  0  0  0  0  0  0  0
    8.7313  -14.0058   27.8652 C   0  0  0  0  0  0  0  0  0  0  0  0
    9.6646  -13.6164   28.8085 O   0  0  0  0  0  0  0  0  0  0  0  0
    8.1366  -15.0943   28.0523 O   0  0  0  0  0  0  0  0  0  0  0  0
  2  3  2  0
  2  1  1  0
  4  2  1  0
  5  4  1  0
  5  7  1  0
  5  6  1  6
  7  8  2  0
  9 10  1  0
 10 12  1  0
 11 10  2  0
 12 13  1  0
 14 13  1  1
 14 16  1  0
 15  7  1  0
 15 14  1  0
 16 17  2  0
 18 16  1  0
 18 22  1  0
 19 18  1  0
 20 21  1  0
 20 19  1  0
 21 22  1  0
 22 23  1  1
 23 25  2  0
 23 24  1  0
M  END
$$$$
