IMM.pdb
     RDKit          3D

 25 24  0  0  1  0  0  0  0  0999 V2000
    7.3858  -12.1858   18.9622 C   0  0  0  0  0  0  0  0  0  0  0  0
    7.5974  -13.6284   19.3540 C   0  0  0  0  0  0  0  0  0  0  0  0
    8.0736  -13.6817   20.7831 C   0  0  2  0  0  0  0  0  0  0  0  0
    9.4158  -12.9743   20.8212 C   0  0  0  0  0  0  0  0  0  0  0  0
    8.2046  -15.0757   21.3229 C   0  0  2  0  0  0  0  0  0  0  0  0
    7.0223  -15.8546   21.1508 N   0  0  0  0  0  0  0  0  0  0  0  0
    8.6118  -14.9840   22.7471 C   0  0  0  0  0  0  0  0  0  0  0  0
    9.7914  -14.6496   23.0231 O   0  0  0  0  0  0  0  0  0  0  0  0
    7.0686  -12.2209   28.1553 C   0  0  0  0  0  0  0  0  0  0  0  0
    7.3770  -11.9602   26.3814 S   0  0  0  0  0  0  0  0  0  0  0  0
    6.6496  -13.3614   25.4443 C   0  0  0  0  0  0  0  0  0  0  0  0
    7.1908  -14.6153   26.0685 C   0  0  0  0  0  0  0  0  0  0  0  0
    8.2581  -15.2014   25.1755 C   0  0  2  0  0  0  0  0  0  0  0  0
    7.7425  -15.2537   23.8333 N   0  0  0  0  0  0  0  0  0  0  0  0
    8.6015  -16.5353   25.7169 C   0  0  0  0  0  0  0  0  0  0  0  0
    7.6145  -17.2793   26.0047 O   0  0  0  0  0  0  0  0  0  0  0  0
   12.0471  -20.2741   22.2623 C   0  0  0  0  0  0  0  0  0  0  0  0
   12.8366  -19.0629   23.3400 S   0  0  0  0  0  0  0  0  0  0  0  0
   11.6944  -18.2145   24.4207 C   0  0  0  0  0  0  0  0  0  0  0  0
   11.1634  -19.0607   25.5216 C   0  0  0  0  0  0  0  0  0  0  0  0
   10.1142  -18.3686   26.3656 C   0  0  2  0  0  0  0  0  0  0  0  0
    9.8985  -17.0067   25.9224 N   0  0  0  0  0  0  0  0  0  0  0  0
   10.4050  -18.3919   27.7972 C   0  0  0  0  0  0  0  0  0  0  0  0
   10.5447  -17.2096   28.5050 O   0  0  0  0  0  0  0  0  0  0  0  0
   10.5352  -19.4730   28.4202 O   0  0  0  0  0  0  0  0  0  0  0  0
  2  1  1  0
  2  3  1  0
  3  4  1  6
  5  3  1  0
  5  6  1  1
  7  8  2  0
  7  5  1  0
 10 11  1  0
 10  9  1  0
 11 12  1  0
 13 12  1  1
 13 14  1  0
 14  7  1  0
 15 13  1  0
 16 15  2  0
 18 17  1  0
 19 20  1  0
 19 18  1  0
 21 20  1  6
 21 22  1  0
 22 15  1  0
 23 21  1  0
 24 23  1  0
 25 23  2  0
M  END
$$$$
