IMM.pdb
     RDKit          3D

 25 24  0  0  1  0  0  0  0  0999 V2000
    7.3221  -12.1975   19.1739 C   0  0  0  0  0  0  0  0  0  0  0  0
    7.4568  -13.5450   19.8413 C   0  0  0  0  0  0  0  0  0  0  0  0
    8.7788  -14.1541   19.4497 C   0  0  2  0  0  0  0  0  0  0  0  0
    8.7681  -14.2817   17.9375 C   0  0  0  0  0  0  0  0  0  0  0  0
    9.0378  -15.4898   20.0827 C   0  0  2  0  0  0  0  0  0  0  0  0
    8.0921  -16.4844   19.6947 N   0  0  0  0  0  0  0  0  0  0  0  0
    9.0819  -15.3036   21.5544 C   0  0  0  0  0  0  0  0  0  0  0  0
    9.9304  -14.5161   22.0435 O   0  0  0  0  0  0  0  0  0  0  0  0
    6.4876  -11.5887   26.8485 C   0  0  0  0  0  0  0  0  0  0  0  0
    6.0345  -13.0235   25.8257 S   0  0  0  0  0  0  0  0  0  0  0  0
    7.5706  -13.8076   25.1963 C   0  0  0  0  0  0  0  0  0  0  0  0
    7.1369  -14.9602   24.3372 C   0  0  0  0  0  0  0  0  0  0  0  0
    8.3525  -15.7243   23.8696 C   0  0  2  0  0  0  0  0  0  0  0  0
    8.2155  -15.9673   22.4582 N   0  0  0  0  0  0  0  0  0  0  0  0
    8.4244  -16.9685   24.6677 C   0  0  0  0  0  0  0  0  0  0  0  0
    8.2962  -18.0472   24.0116 O   0  0  0  0  0  0  0  0  0  0  0  0
   10.2070  -13.0959   29.3989 C   0  0  0  0  0  0  0  0  0  0  0  0
   11.3256  -14.4829   29.6757 S   0  0  0  0  0  0  0  0  0  0  0  0
   11.2929  -15.7005   28.3685 C   0  0  0  0  0  0  0  0  0  0  0  0
    9.9501  -15.8992   27.7623 C   0  0  0  0  0  0  0  0  0  0  0  0
    9.9471  -16.8720   26.6022 C   0  0  2  0  0  0  0  0  0  0  0  0
    8.6175  -17.0246   26.0484 N   0  0  0  0  0  0  0  0  0  0  0  0
   10.5077  -18.1800   26.9330 C   0  0  0  0  0  0  0  0  0  0  0  0
   11.8259  -18.4768   26.6282 O   0  0  0  0  0  0  0  0  0  0  0  0
    9.8180  -19.0631   27.4971 O   0  0  0  0  0  0  0  0  0  0  0  0
  2  1  1  0
  2  3  1  0
  3  4  1  6
  5  3  1  0
  5  6  1  1
  7  8  2  0
  7  5  1  0
 10 11  1  0
 10  9  1  0
 11 12  1  0
 13 12  1  1
 13 14  1  0
 14  7  1  0
 15 13  1  0
 16 15  2  0
 18 17  1  0
 19 20  1  0
 19 18  1  0
 21 20  1  1
 21 22  1  0
 22 15  1  0
 23 21  1  0
 24 23  1  0
 25 23  2  0
M  END
$$$$
