IMM.pdb
     RDKit          3D

 25 24  0  0  1  0  0  0  0  0999 V2000
    8.8159  -18.9133   16.8982 C   0  0  0  0  0  0  0  0  0  0  0  0
    8.5904  -19.2538   18.3517 C   0  0  0  0  0  0  0  0  0  0  0  0
    8.8820  -18.0354   19.1898 C   0  0  2  0  0  0  0  0  0  0  0  0
   10.3189  -17.6419   18.9003 C   0  0  0  0  0  0  0  0  0  0  0  0
    8.6896  -18.2563   20.6615 C   0  0  2  0  0  0  0  0  0  0  0  0
    7.3780  -18.7090   20.9914 N   0  0  0  0  0  0  0  0  0  0  0  0
    9.0418  -16.9996   21.3680 C   0  0  0  0  0  0  0  0  0  0  0  0
   10.2044  -16.5379   21.2468 O   0  0  0  0  0  0  0  0  0  0  0  0
    6.8842  -12.6740   27.1345 C   0  0  0  0  0  0  0  0  0  0  0  0
    6.4325  -12.7497   25.3738 S   0  0  0  0  0  0  0  0  0  0  0  0
    7.8901  -13.3220   24.4152 C   0  0  0  0  0  0  0  0  0  0  0  0
    7.4145  -14.4609   23.5601 C   0  0  0  0  0  0  0  0  0  0  0  0
    8.5941  -15.0876   22.8557 C   0  0  2  0  0  0  0  0  0  0  0  0
    8.1375  -16.2751   22.1837 N   0  0  0  0  0  0  0  0  0  0  0  0
    9.6246  -15.3622   23.8818 C   0  0  0  0  0  0  0  0  0  0  0  0
   10.5632  -14.5112   23.9556 O   0  0  0  0  0  0  0  0  0  0  0  0
   10.7467  -12.8942   28.8002 C   0  0  0  0  0  0  0  0  0  0  0  0
   10.9896  -14.5825   29.3854 S   0  0  0  0  0  0  0  0  0  0  0  0
   11.2711  -15.7613   28.0727 C   0  0  0  0  0  0  0  0  0  0  0  0
   10.3023  -15.6571   26.9499 C   0  0  0  0  0  0  0  0  0  0  0  0
   10.6267  -16.5662   25.7835 C   0  0  2  0  0  0  0  0  0  0  0  0
    9.6261  -16.4609   24.7417 N   0  0  0  0  0  0  0  0  0  0  0  0
   10.8118  -17.9645   26.1642 C   0  0  0  0  0  0  0  0  0  0  0  0
   11.8332  -18.3286   27.0260 O   0  0  0  0  0  0  0  0  0  0  0  0
   10.0582  -18.8665   25.7258 O   0  0  0  0  0  0  0  0  0  0  0  0
  2  1  1  0
  2  3  1  0
  3  4  1  1
  5  3  1  0
  5  6  1  6
  7  8  2  0
  7  5  1  0
 10 11  1  0
 10  9  1  0
 11 12  1  0
 13 12  1  1
 13 14  1  0
 14  7  1  0
 15 13  1  0
 16 15  2  0
 18 17  1  0
 19 20  1  0
 19 18  1  0
 21 20  1  1
 21 22  1  0
 22 15  1  0
 23 21  1  0
 24 23  1  0
 25 23  2  0
M  END
$$$$
