IMM.pdb
     RDKit          3D

 25 24  0  0  1  0  0  0  0  0999 V2000
    6.3873  -19.6728   18.2219 C   0  0  0  0  0  0  0  0  0  0  0  0
    6.5588  -19.6420   19.7216 C   0  0  0  0  0  0  0  0  0  0  0  0
    7.2759  -18.3729   20.1052 C   0  0  2  0  0  0  0  0  0  0  0  0
    8.5442  -18.3212   19.2734 C   0  0  0  0  0  0  0  0  0  0  0  0
    7.6080  -18.2866   21.5661 C   0  0  2  0  0  0  0  0  0  0  0  0
    6.5403  -18.7176   22.4078 N   0  0  0  0  0  0  0  0  0  0  0  0
    8.0281  -16.8947   21.8637 C   0  0  0  0  0  0  0  0  0  0  0  0
    8.9483  -16.3772   21.1819 O   0  0  0  0  0  0  0  0  0  0  0  0
    5.6760  -13.0510   26.6265 C   0  0  0  0  0  0  0  0  0  0  0  0
    6.5920  -11.8909   25.5658 S   0  0  0  0  0  0  0  0  0  0  0  0
    7.8419  -12.8317   24.6048 C   0  0  0  0  0  0  0  0  0  0  0  0
    7.1528  -14.0715   24.1124 C   0  0  0  0  0  0  0  0  0  0  0  0
    8.1249  -14.9017   23.3088 C   0  0  2  0  0  0  0  0  0  0  0  0
    7.4494  -16.0987   22.8834 N   0  0  0  0  0  0  0  0  0  0  0  0
    9.2938  -15.1725   24.1750 C   0  0  0  0  0  0  0  0  0  0  0  0
   10.0557  -14.1808   24.3911 O   0  0  0  0  0  0  0  0  0  0  0  0
   10.4804  -13.0923   28.4537 C   0  0  0  0  0  0  0  0  0  0  0  0
   10.5902  -14.8113   28.9874 S   0  0  0  0  0  0  0  0  0  0  0  0
   11.4456  -15.8674   27.8276 C   0  0  0  0  0  0  0  0  0  0  0  0
   10.5425  -16.6945   26.9847 C   0  0  0  0  0  0  0  0  0  0  0  0
   10.8225  -16.5775   25.5015 C   0  0  2  0  0  0  0  0  0  0  0  0
    9.5975  -16.4080   24.7476 N   0  0  0  0  0  0  0  0  0  0  0  0
   11.5956  -17.6933   24.9614 C   0  0  0  0  0  0  0  0  0  0  0  0
   12.9231  -17.8655   25.3171 O   0  0  0  0  0  0  0  0  0  0  0  0
   11.0841  -18.5194   24.1677 O   0  0  0  0  0  0  0  0  0  0  0  0
  2  1  1  0
  2  3  1  0
  3  4  1  6
  5  3  1  0
  5  6  1  1
  7  8  2  0
  7  5  1  0
 10 11  1  0
 10  9  1  0
 11 12  1  0
 13 12  1  1
 13 14  1  0
 14  7  1  0
 15 13  1  0
 16 15  2  0
 18 17  1  0
 19 20  1  0
 19 18  1  0
 21 20  1  1
 21 22  1  0
 22 15  1  0
 23 21  1  0
 24 23  1  0
 25 23  2  0
M  END
$$$$
