IMM.pdb
     RDKit          3D

 25 24  0  0  1  0  0  0  0  0999 V2000
    7.4236  -11.7397   25.1398 C   0  0  0  0  0  0  0  0  0  0  0  0
    7.6741  -13.2283   25.1666 C   0  0  0  0  0  0  0  0  0  0  0  0
    6.3536  -13.9436   25.2945 C   0  0  2  0  0  0  0  0  0  0  0  0
    5.7648  -13.5344   26.6321 C   0  0  0  0  0  0  0  0  0  0  0  0
    6.4671  -15.4376   25.2113 C   0  0  2  0  0  0  0  0  0  0  0  0
    7.4742  -15.9698   26.0697 N   0  0  0  0  0  0  0  0  0  0  0  0
    6.6904  -15.8063   23.7912 C   0  0  0  0  0  0  0  0  0  0  0  0
    5.9656  -15.2867   22.9057 O   0  0  0  0  0  0  0  0  0  0  0  0
    7.8126  -11.9694   20.6241 C   0  0  0  0  0  0  0  0  0  0  0  0
    8.6327  -13.3758   19.8121 S   0  0  0  0  0  0  0  0  0  0  0  0
    8.0183  -14.9326   20.5668 C   0  0  0  0  0  0  0  0  0  0  0  0
    8.3867  -14.8730   22.0212 C   0  0  0  0  0  0  0  0  0  0  0  0
    8.7438  -16.2575   22.5068 C   0  0  2  0  0  0  0  0  0  0  0  0
    7.6840  -16.7212   23.3623 N   0  0  0  0  0  0  0  0  0  0  0  0
   10.0473  -16.1583   23.2005 C   0  0  0  0  0  0  0  0  0  0  0  0
   11.0007  -15.6869   22.5081 O   0  0  0  0  0  0  0  0  0  0  0  0
   10.6430  -13.3789   28.9816 C   0  0  0  0  0  0  0  0  0  0  0  0
   10.0411  -15.0506   28.6736 S   0  0  0  0  0  0  0  0  0  0  0  0
   10.1526  -15.5471   26.9609 C   0  0  0  0  0  0  0  0  0  0  0  0
   11.5329  -15.8738   26.5159 C   0  0  0  0  0  0  0  0  0  0  0  0
   11.6044  -16.3928   25.0954 C   0  0  2  0  0  0  0  0  0  0  0  0
   10.2822  -16.5381   24.5223 N   0  0  0  0  0  0  0  0  0  0  0  0
   12.3497  -17.6426   24.9651 C   0  0  0  0  0  0  0  0  0  0  0  0
   13.6994  -17.6910   25.2722 O   0  0  0  0  0  0  0  0  0  0  0  0
   11.7938  -18.6975   24.5751 O   0  0  0  0  0  0  0  0  0  0  0  0
  2  1  1  0
  2  3  1  0
  3  4  1  1
  5  3  1  0
  5  6  1  1
  7  8  2  0
  7  5  1  0
 10 11  1  0
 10  9  1  0
 11 12  1  0
 13 12  1  1
 13 14  1  0
 14  7  1  0
 15 13  1  0
 16 15  2  0
 18 17  1  0
 19 20  1  0
 19 18  1  0
 21 20  1  1
 21 22  1  0
 22 15  1  0
 23 21  1  0
 24 23  1  0
 25 23  2  0
M  END
$$$$
