IMM.pdb
     RDKit          3D

 25 24  0  0  1  0  0  0  0  0999 V2000
    7.5211  -18.0558   18.1987 C   0  0  0  0  0  0  0  0  0  0  0  0
    7.3683  -16.5672   18.3993 C   0  0  0  0  0  0  0  0  0  0  0  0
    7.9387  -16.1945   19.7439 C   0  0  2  0  0  0  0  0  0  0  0  0
    7.2787  -17.1040   20.7638 C   0  0  0  0  0  0  0  0  0  0  0  0
    7.7222  -14.7561   20.1124 C   0  0  2  0  0  0  0  0  0  0  0  0
    8.3078  -13.8471   19.1822 N   0  0  0  0  0  0  0  0  0  0  0  0
    8.2305  -14.5501   21.4914 C   0  0  0  0  0  0  0  0  0  0  0  0
    9.4718  -14.5066   21.6829 O   0  0  0  0  0  0  0  0  0  0  0  0
    6.9847  -10.6396   27.0226 C   0  0  0  0  0  0  0  0  0  0  0  0
    6.3998  -12.3578   27.1467 S   0  0  0  0  0  0  0  0  0  0  0  0
    7.5481  -13.4407   26.2089 C   0  0  0  0  0  0  0  0  0  0  0  0
    6.9782  -13.5655   24.8253 C   0  0  0  0  0  0  0  0  0  0  0  0
    7.9909  -14.2278   23.9220 C   0  0  2  0  0  0  0  0  0  0  0  0
    7.3931  -14.3971   22.6243 N   0  0  0  0  0  0  0  0  0  0  0  0
    8.3743  -15.5092   24.5554 C   0  0  0  0  0  0  0  0  0  0  0  0
    7.4331  -16.3466   24.7086 O   0  0  0  0  0  0  0  0  0  0  0  0
   13.1911  -17.6052   21.0785 C   0  0  0  0  0  0  0  0  0  0  0  0
   12.8959  -18.1028   22.7864 S   0  0  0  0  0  0  0  0  0  0  0  0
   11.4391  -17.3602   23.5066 C   0  0  0  0  0  0  0  0  0  0  0  0
   11.2145  -17.7284   24.9292 C   0  0  0  0  0  0  0  0  0  0  0  0
    9.9359  -17.1601   25.5074 C   0  0  2  0  0  0  0  0  0  0  0  0
    9.6620  -15.8398   24.9787 N   0  0  0  0  0  0  0  0  0  0  0  0
    9.9151  -17.1318   26.9680 C   0  0  0  0  0  0  0  0  0  0  0  0
    9.8244  -15.9274   27.6460 O   0  0  0  0  0  0  0  0  0  0  0  0
    9.9783  -18.1872   27.6432 O   0  0  0  0  0  0  0  0  0  0  0  0
  2  1  1  0
  2  3  1  0
  3  4  1  1
  5  3  1  0
  5  6  1  6
  7  8  2  0
  7  5  1  0
 10 11  1  0
 10  9  1  0
 11 12  1  0
 13 12  1  1
 13 14  1  0
 14  7  1  0
 15 13  1  0
 16 15  2  0
 18 17  1  0
 19 20  1  0
 19 18  1  0
 21 20  1  1
 21 22  1  0
 22 15  1  0
 23 21  1  0
 24 23  1  0
 25 23  2  0
M  END
$$$$
