IMM.pdb
     RDKit          3D

 25 24  0  0  1  0  0  0  0  0999 V2000
    8.0327  -21.7910   20.6497 C   0  0  0  0  0  0  0  0  0  0  0  0
    7.7092  -20.4391   20.0607 C   0  0  0  0  0  0  0  0  0  0  0  0
    8.2796  -19.3677   20.9545 C   0  0  2  0  0  0  0  0  0  0  0  0
    7.6862  -19.5900   22.3335 C   0  0  0  0  0  0  0  0  0  0  0  0
    7.9909  -17.9727   20.4826 C   0  0  2  0  0  0  0  0  0  0  0  0
    8.4620  -17.7219   19.1600 N   0  0  0  0  0  0  0  0  0  0  0  0
    8.5621  -17.0229   21.4695 C   0  0  0  0  0  0  0  0  0  0  0  0
    9.8044  -16.8328   21.4834 O   0  0  0  0  0  0  0  0  0  0  0  0
    6.0278  -12.9185   26.8823 C   0  0  0  0  0  0  0  0  0  0  0  0
    6.6815  -12.2972   25.3023 S   0  0  0  0  0  0  0  0  0  0  0  0
    8.0210  -13.4182   24.7368 C   0  0  0  0  0  0  0  0  0  0  0  0
    7.3752  -14.4280   23.8324 C   0  0  0  0  0  0  0  0  0  0  0  0
    8.4311  -15.3530   23.2761 C   0  0  2  0  0  0  0  0  0  0  0  0
    7.7850  -16.3051   22.4123 N   0  0  0  0  0  0  0  0  0  0  0  0
    9.1140  -15.9846   24.4271 C   0  0  0  0  0  0  0  0  0  0  0  0
    8.4927  -16.9492   24.9694 O   0  0  0  0  0  0  0  0  0  0  0  0
   10.6879  -12.4147   28.8468 C   0  0  0  0  0  0  0  0  0  0  0  0
   11.1220  -14.0852   28.3243 S   0  0  0  0  0  0  0  0  0  0  0  0
    9.7275  -15.0376   27.7408 C   0  0  0  0  0  0  0  0  0  0  0  0
   10.0886  -16.3871   27.2323 C   0  0  0  0  0  0  0  0  0  0  0  0
   10.9715  -16.3548   26.0028 C   0  0  2  0  0  0  0  0  0  0  0  0
   10.3550  -15.5972   24.9334 N   0  0  0  0  0  0  0  0  0  0  0  0
   11.3571  -17.6800   25.5234 C   0  0  0  0  0  0  0  0  0  0  0  0
   10.8123  -18.1910   24.3570 O   0  0  0  0  0  0  0  0  0  0  0  0
   12.1845  -18.3860   26.1485 O   0  0  0  0  0  0  0  0  0  0  0  0
  2  1  1  0
  2  3  1  0
  3  4  1  1
  5  3  1  0
  5  6  1  6
  7  8  2  0
  7  5  1  0
 10 11  1  0
 10  9  1  0
 11 12  1  0
 13 12  1  1
 13 14  1  0
 14  7  1  0
 15 13  1  0
 16 15  2  0
 18 17  1  0
 19 20  1  0
 19 18  1  0
 21 20  1  1
 21 22  1  0
 22 15  1  0
 23 21  1  0
 24 23  1  0
 25 23  2  0
M  END
$$$$
