IMM.pdb
     RDKit          3D

 25 24  0  0  1  0  0  0  0  0999 V2000
    6.3611  -11.9744   27.1767 C   0  0  0  0  0  0  0  0  0  0  0  0
    5.7345  -13.1224   26.4224 C   0  0  0  0  0  0  0  0  0  0  0  0
    6.8211  -13.8982   25.7228 C   0  0  2  0  0  0  0  0  0  0  0  0
    7.5142  -12.9270   24.7849 C   0  0  0  0  0  0  0  0  0  0  0  0
    6.3164  -15.0877   24.9599 C   0  0  2  0  0  0  0  0  0  0  0  0
    5.6461  -16.0377   25.7860 N   0  0  0  0  0  0  0  0  0  0  0  0
    7.4604  -15.6892   24.2306 C   0  0  0  0  0  0  0  0  0  0  0  0
    8.1574  -16.5631   24.8052 O   0  0  0  0  0  0  0  0  0  0  0  0
    7.3868  -12.0998   18.8647 C   0  0  0  0  0  0  0  0  0  0  0  0
    8.6915  -13.2976   19.2803 S   0  0  0  0  0  0  0  0  0  0  0  0
    8.0964  -14.3666   20.6492 C   0  0  0  0  0  0  0  0  0  0  0  0
    9.2189  -15.3116   20.9679 C   0  0  0  0  0  0  0  0  0  0  0  0
    8.9436  -15.9928   22.2871 C   0  0  2  0  0  0  0  0  0  0  0  0
    7.8237  -15.3361   22.9072 N   0  0  0  0  0  0  0  0  0  0  0  0
   10.1826  -15.9103   23.0922 C   0  0  0  0  0  0  0  0  0  0  0  0
   11.0421  -15.0685   22.6884 O   0  0  0  0  0  0  0  0  0  0  0  0
   10.3406  -13.3798   28.7458 C   0  0  0  0  0  0  0  0  0  0  0  0
   11.3385  -14.8583   29.0106 S   0  0  0  0  0  0  0  0  0  0  0  0
   11.9793  -15.5688   27.5016 C   0  0  0  0  0  0  0  0  0  0  0  0
   10.9382  -15.8553   26.4798 C   0  0  0  0  0  0  0  0  0  0  0  0
   11.5041  -16.2744   25.1395 C   0  0  2  0  0  0  0  0  0  0  0  0
   10.4525  -16.6749   24.2277 N   0  0  0  0  0  0  0  0  0  0  0  0
   12.5159  -17.3241   25.2331 C   0  0  0  0  0  0  0  0  0  0  0  0
   12.3093  -18.5546   24.6317 O   0  0  0  0  0  0  0  0  0  0  0  0
   13.5904  -17.1428   25.8548 O   0  0  0  0  0  0  0  0  0  0  0  0
  2  1  1  0
  2  3  1  0
  3  4  1  6
  5  3  1  0
  5  6  1  1
  7  8  2  0
  7  5  1  0
 10 11  1  0
 10  9  1  0
 11 12  1  0
 13 12  1  6
 13 14  1  0
 14  7  1  0
 15 13  1  0
 16 15  2  0
 18 17  1  0
 19 20  1  0
 19 18  1  0
 21 20  1  1
 21 22  1  0
 22 15  1  0
 23 21  1  0
 24 23  1  0
 25 23  2  0
M  END
$$$$
