IMM.pdb
     RDKit          3D

 25 24  0  0  1  0  0  0  0  0999 V2000
    8.6989  -16.6676   16.5068 C   0  0  0  0  0  0  0  0  0  0  0  0
    8.5070  -17.5159   17.7408 C   0  0  0  0  0  0  0  0  0  0  0  0
    8.7576  -16.6670   18.9609 C   0  0  2  0  0  0  0  0  0  0  0  0
   10.1709  -16.1289   18.8338 C   0  0  0  0  0  0  0  0  0  0  0  0
    8.5982  -17.4100   20.2549 C   0  0  2  0  0  0  0  0  0  0  0  0
    7.3055  -17.9926   20.4087 N   0  0  0  0  0  0  0  0  0  0  0  0
    8.9294  -16.4823   21.3650 C   0  0  0  0  0  0  0  0  0  0  0  0
   10.0771  -15.9722   21.4106 O   0  0  0  0  0  0  0  0  0  0  0  0
    6.4364  -11.4545   26.2683 C   0  0  0  0  0  0  0  0  0  0  0  0
    6.2018  -13.2544   26.1439 S   0  0  0  0  0  0  0  0  0  0  0  0
    7.7155  -13.9975   25.4178 C   0  0  0  0  0  0  0  0  0  0  0  0
    7.2697  -14.7772   24.2145 C   0  0  0  0  0  0  0  0  0  0  0  0
    8.4790  -15.3134   23.4863 C   0  0  2  0  0  0  0  0  0  0  0  0
    8.0207  -16.1291   22.3933 N   0  0  0  0  0  0  0  0  0  0  0  0
    9.2885  -16.0653   24.4710 C   0  0  0  0  0  0  0  0  0  0  0  0
    8.8342  -17.2047   24.7963 O   0  0  0  0  0  0  0  0  0  0  0  0
   11.4610  -13.7157   30.4148 C   0  0  0  0  0  0  0  0  0  0  0  0
   10.6634  -13.4741   28.8157 S   0  0  0  0  0  0  0  0  0  0  0  0
   10.3215  -14.9985   27.9489 C   0  0  0  0  0  0  0  0  0  0  0  0
   11.5044  -15.5805   27.2618 C   0  0  0  0  0  0  0  0  0  0  0  0
   11.1511  -16.4110   26.0463 C   0  0  2  0  0  0  0  0  0  0  0  0
   10.4781  -15.6127   25.0425 N   0  0  0  0  0  0  0  0  0  0  0  0
   10.3600  -17.5990   26.3582 C   0  0  0  0  0  0  0  0  0  0  0  0
    9.0534  -17.7100   25.9120 O   0  0  0  0  0  0  0  0  0  0  0  0
   10.8369  -18.5434   27.0324 O   0  0  0  0  0  0  0  0  0  0  0  0
  2  1  1  0
  2  3  1  0
  3  4  1  6
  5  3  1  0
  5  6  1  1
  7  8  2  0
  7  5  1  0
 10 11  1  0
 10  9  1  0
 11 12  1  0
 13 12  1  1
 13 14  1  0
 14  7  1  0
 15 13  1  0
 16 15  2  0
 18 17  1  0
 19 20  1  0
 19 18  1  0
 21 20  1  1
 21 22  1  0
 22 15  1  0
 23 21  1  0
 24 23  1  0
 25 23  2  0
M  END
$$$$
