IMM.pdb
     RDKit          3D

 25 24  0  0  1  0  0  0  0  0999 V2000
    8.7094  -20.5906   19.0637 C   0  0  0  0  0  0  0  0  0  0  0  0
    7.9520  -19.2847   19.0790 C   0  0  0  0  0  0  0  0  0  0  0  0
    8.5752  -18.3706   20.1028 C   0  0  2  0  0  0  0  0  0  0  0  0
    8.6260  -19.1470   21.4058 C   0  0  0  0  0  0  0  0  0  0  0  0
    7.8296  -17.0824   20.2935 C   0  0  2  0  0  0  0  0  0  0  0  0
    7.6823  -16.3383   19.0857 N   0  0  0  0  0  0  0  0  0  0  0  0
    8.5180  -16.3014   21.3512 C   0  0  0  0  0  0  0  0  0  0  0  0
    9.6291  -15.7738   21.0931 O   0  0  0  0  0  0  0  0  0  0  0  0
    6.9369  -12.2704   26.5286 C   0  0  0  0  0  0  0  0  0  0  0  0
    5.9739  -12.9126   25.1250 S   0  0  0  0  0  0  0  0  0  0  0  0
    7.1316  -13.6383   23.8986 C   0  0  0  0  0  0  0  0  0  0  0  0
    7.8646  -14.7402   24.6078 C   0  0  0  0  0  0  0  0  0  0  0  0
    8.7948  -15.4303   23.6390 C   0  0  2  0  0  0  0  0  0  0  0  0
    7.9952  -16.1094   22.6542 N   0  0  0  0  0  0  0  0  0  0  0  0
    9.6482  -16.3482   24.4259 C   0  0  0  0  0  0  0  0  0  0  0  0
    9.1113  -17.4517   24.7495 O   0  0  0  0  0  0  0  0  0  0  0  0
   10.1187  -12.8999   29.0496 C   0  0  0  0  0  0  0  0  0  0  0  0
   10.3426  -14.5509   29.7395 S   0  0  0  0  0  0  0  0  0  0  0  0
   11.0229  -15.7257   28.5778 C   0  0  0  0  0  0  0  0  0  0  0  0
   10.7750  -15.3788   27.1537 C   0  0  0  0  0  0  0  0  0  0  0  0
   11.3823  -16.3626   26.1761 C   0  0  2  0  0  0  0  0  0  0  0  0
   10.9603  -16.0827   24.8191 N   0  0  0  0  0  0  0  0  0  0  0  0
   11.1145  -17.7598   26.5084 C   0  0  0  0  0  0  0  0  0  0  0  0
   10.0448  -18.4261   25.9336 O   0  0  0  0  0  0  0  0  0  0  0  0
   11.8387  -18.3900   27.3160 O   0  0  0  0  0  0  0  0  0  0  0  0
  2  1  1  0
  2  3  1  0
  3  4  1  1
  5  3  1  0
  5  6  1  6
  7  8  2  0
  7  5  1  0
 10 11  1  0
 10  9  1  0
 11 12  1  0
 13 12  1  1
 13 14  1  0
 14  7  1  0
 15 13  1  0
 16 15  2  0
 18 17  1  0
 19 20  1  0
 19 18  1  0
 21 20  1  1
 21 22  1  0
 22 15  1  0
 23 21  1  0
 24 23  1  0
 25 23  2  0
M  END
$$$$
