IMM.pdb
     RDKit          3D

 25 24  0  0  1  0  0  0  0  0999 V2000
    7.9033  -20.1465   19.1751 C   0  0  0  0  0  0  0  0  0  0  0  0
    7.6755  -18.6632   19.0099 C   0  0  0  0  0  0  0  0  0  0  0  0
    8.2038  -17.9492   20.2279 C   0  0  2  0  0  0  0  0  0  0  0  0
    7.4592  -18.5171   21.4222 C   0  0  0  0  0  0  0  0  0  0  0  0
    8.0378  -16.4589   20.1718 C   0  0  2  0  0  0  0  0  0  0  0  0
    8.6787  -15.8677   19.0432 N   0  0  0  0  0  0  0  0  0  0  0  0
    8.5251  -15.8905   21.4532 C   0  0  0  0  0  0  0  0  0  0  0  0
    9.7606  -15.8770   21.6828 O   0  0  0  0  0  0  0  0  0  0  0  0
    7.0458  -11.7480   27.9622 C   0  0  0  0  0  0  0  0  0  0  0  0
    6.4172  -12.4568   26.4090 S   0  0  0  0  0  0  0  0  0  0  0  0
    7.7189  -13.5265   25.6796 C   0  0  0  0  0  0  0  0  0  0  0  0
    7.1952  -13.9841   24.3489 C   0  0  0  0  0  0  0  0  0  0  0  0
    8.2531  -14.8005   23.6458 C   0  0  2  0  0  0  0  0  0  0  0  0
    7.6736  -15.3538   22.4507 N   0  0  0  0  0  0  0  0  0  0  0  0
    8.7163  -15.8346   24.5978 C   0  0  0  0  0  0  0  0  0  0  0  0
    7.8750  -16.7455   24.8678 O   0  0  0  0  0  0  0  0  0  0  0  0
   14.4625  -18.3983   23.9331 C   0  0  0  0  0  0  0  0  0  0  0  0
   14.0153  -19.1088   25.5290 S   0  0  0  0  0  0  0  0  0  0  0  0
   12.3884  -18.6328   26.0937 C   0  0  0  0  0  0  0  0  0  0  0  0
   11.8045  -17.4840   25.3526 C   0  0  0  0  0  0  0  0  0  0  0  0
   10.4372  -17.0710   25.8548 C   0  0  2  0  0  0  0  0  0  0  0  0
    9.9771  -15.8668   25.1945 N   0  0  0  0  0  0  0  0  0  0  0  0
   10.3707  -16.9068   27.3050 C   0  0  0  0  0  0  0  0  0  0  0  0
   10.5406  -17.9958   28.1438 O   0  0  0  0  0  0  0  0  0  0  0  0
   10.1598  -15.7856   27.8268 O   0  0  0  0  0  0  0  0  0  0  0  0
  2  1  1  0
  2  3  1  0
  3  4  1  1
  5  3  1  0
  5  6  1  6
  7  8  2  0
  7  5  1  0
 10 11  1  0
 10  9  1  0
 11 12  1  0
 13 12  1  1
 13 14  1  0
 14  7  1  0
 15 13  1  0
 16 15  2  0
 18 17  1  0
 19 20  1  0
 19 18  1  0
 21 20  1  1
 21 22  1  0
 22 15  1  0
 23 21  1  0
 24 23  1  0
 25 23  2  0
M  END
$$$$
