IMM.pdb
     RDKit          3D

 25 24  0  0  1  0  0  0  0  0999 V2000
    8.0962  -12.0397   19.2856 C   0  0  0  0  0  0  0  0  0  0  0  0
    7.7441  -13.1781   20.2125 C   0  0  0  0  0  0  0  0  0  0  0  0
    8.5249  -14.4007   19.8032 C   0  0  2  0  0  0  0  0  0  0  0  0
    8.1579  -14.6881   18.3589 C   0  0  0  0  0  0  0  0  0  0  0  0
    8.2529  -15.6035   20.6583 C   0  0  2  0  0  0  0  0  0  0  0  0
    6.9014  -16.0519   20.5776 N   0  0  0  0  0  0  0  0  0  0  0  0
    8.6533  -15.2815   22.0506 C   0  0  0  0  0  0  0  0  0  0  0  0
    9.8761  -15.2263   22.3355 O   0  0  0  0  0  0  0  0  0  0  0  0
    6.4931  -10.8559   26.3918 C   0  0  0  0  0  0  0  0  0  0  0  0
    6.5689  -12.4780   27.2121 S   0  0  0  0  0  0  0  0  0  0  0  0
    7.8609  -13.4932   26.3930 C   0  0  0  0  0  0  0  0  0  0  0  0
    7.1764  -14.2327   25.2798 C   0  0  0  0  0  0  0  0  0  0  0  0
    8.2073  -14.9627   24.4525 C   0  0  2  0  0  0  0  0  0  0  0  0
    7.7311  -15.0284   23.0964 N   0  0  0  0  0  0  0  0  0  0  0  0
    8.3992  -16.2964   25.0647 C   0  0  0  0  0  0  0  0  0  0  0  0
    7.9810  -17.2785   24.3782 O   0  0  0  0  0  0  0  0  0  0  0  0
   12.9347  -18.9992   21.9458 C   0  0  0  0  0  0  0  0  0  0  0  0
   12.7583  -17.7894   23.2713 S   0  0  0  0  0  0  0  0  0  0  0  0
   11.4117  -18.1451   24.3904 C   0  0  0  0  0  0  0  0  0  0  0  0
   11.2008  -17.1046   25.4310 C   0  0  0  0  0  0  0  0  0  0  0  0
   10.1056  -17.4483   26.4181 C   0  0  2  0  0  0  0  0  0  0  0  0
    8.9910  -16.5301   26.3064 N   0  0  0  0  0  0  0  0  0  0  0  0
   10.5652  -17.5157   27.8033 C   0  0  0  0  0  0  0  0  0  0  0  0
   10.6981  -18.7382   28.4406 O   0  0  0  0  0  0  0  0  0  0  0  0
   10.8500  -16.4783   28.4487 O   0  0  0  0  0  0  0  0  0  0  0  0
  2  1  1  0
  2  3  1  0
  3  4  1  6
  5  3  1  0
  5  6  1  1
  7  8  2  0
  7  5  1  0
 10 11  1  0
 10  9  1  0
 11 12  1  0
 13 12  1  1
 13 14  1  0
 14  7  1  0
 15 13  1  0
 16 15  2  0
 18 17  1  0
 19 20  1  0
 19 18  1  0
 21 20  1  6
 21 22  1  0
 22 15  1  0
 23 21  1  0
 24 23  1  0
 25 23  2  0
M  END
$$$$
