IMM.pdb
     RDKit          3D

 25 24  0  0  1  0  0  0  0  0999 V2000
    7.2792  -21.2893   21.0508 C   0  0  0  0  0  0  0  0  0  0  0  0
    6.7995  -19.9562   20.5292 C   0  0  0  0  0  0  0  0  0  0  0  0
    7.5812  -18.8579   21.2036 C   0  0  2  0  0  0  0  0  0  0  0  0
    7.4235  -19.0664   22.6986 C   0  0  0  0  0  0  0  0  0  0  0  0
    7.1338  -17.4776   20.8208 C   0  0  2  0  0  0  0  0  0  0  0  0
    7.1544  -17.2545   19.4123 N   0  0  0  0  0  0  0  0  0  0  0  0
    7.9740  -16.4988   21.5546 C   0  0  0  0  0  0  0  0  0  0  0  0
    9.1799  -16.3649   21.2273 O   0  0  0  0  0  0  0  0  0  0  0  0
    7.2009  -11.5630   26.4241 C   0  0  0  0  0  0  0  0  0  0  0  0
    6.0115  -12.8460   25.9249 S   0  0  0  0  0  0  0  0  0  0  0  0
    6.9330  -14.2418   25.1678 C   0  0  0  0  0  0  0  0  0  0  0  0
    7.5847  -13.6976   23.9294 C   0  0  0  0  0  0  0  0  0  0  0  0
    8.4010  -14.7843   23.2715 C   0  0  2  0  0  0  0  0  0  0  0  0
    7.4966  -15.6925   22.6177 N   0  0  0  0  0  0  0  0  0  0  0  0
    9.2076  -15.4313   24.3302 C   0  0  0  0  0  0  0  0  0  0  0  0
    8.6007  -16.3039   25.0236 O   0  0  0  0  0  0  0  0  0  0  0  0
    9.7334  -13.8020   29.3289 C   0  0  0  0  0  0  0  0  0  0  0  0
   10.5678  -15.3680   29.6503 S   0  0  0  0  0  0  0  0  0  0  0  0
   10.8687  -16.3339   28.1777 C   0  0  0  0  0  0  0  0  0  0  0  0
   10.2513  -15.7692   26.9489 C   0  0  0  0  0  0  0  0  0  0  0  0
   11.1903  -15.7311   25.7618 C   0  0  2  0  0  0  0  0  0  0  0  0
   10.5467  -15.1495   24.6019 N   0  0  0  0  0  0  0  0  0  0  0  0
   11.7585  -17.0334   25.4221 C   0  0  0  0  0  0  0  0  0  0  0  0
   12.9961  -17.4105   25.9167 O   0  0  0  0  0  0  0  0  0  0  0  0
   11.1477  -17.8396   24.6799 O   0  0  0  0  0  0  0  0  0  0  0  0
  2  1  1  0
  2  3  1  0
  3  4  1  1
  5  3  1  0
  5  6  1  6
  7  8  2  0
  7  5  1  0
 10 11  1  0
 10  9  1  0
 11 12  1  0
 13 12  1  1
 13 14  1  0
 14  7  1  0
 15 13  1  0
 16 15  2  0
 18 17  1  0
 19 20  1  0
 19 18  1  0
 21 20  1  1
 21 22  1  0
 22 15  1  0
 23 21  1  0
 24 23  1  0
 25 23  2  0
M  END
$$$$
