NHC.pdb
     RDKit          3D

 25 25  0  0  1  0  0  0  0  0999 V2000
   16.4167  -14.4130   16.6470 N   0  0  0  0  0  0  0  0  0  0  0  0
   15.2204  -14.6260   15.9166 C   0  0  0  0  0  0  0  0  0  0  0  0
   15.2369  -14.8811   14.7003 O   0  0  0  0  0  0  0  0  0  0  0  0
   13.9259  -14.5422   16.6181 C   0  0  0  0  0  0  0  0  0  0  0  0
   13.9656  -15.2610   17.9396 C   0  0  2  0  0  0  0  0  0  0  0  0
   13.8426  -16.6827   17.8422 N   0  0  0  0  0  0  0  0  0  0  0  0
   12.8988  -14.7388   18.8073 C   0  0  0  0  0  0  0  0  0  0  0  0
   12.9271  -13.5429   19.1434 O   0  0  0  0  0  0  0  0  0  0  0  0
   11.8576  -15.5560   19.2608 N   0  0  0  0  0  0  0  0  0  0  0  0
   10.8155  -15.0317   20.1691 C   0  0  1  0  0  0  0  0  0  0  0  0
    9.4684  -15.4490   19.6787 C   0  0  0  0  0  0  0  0  0  0  0  0
    8.9777  -14.7403   18.5016 C   0  0  0  0  0  0  0  0  0  0  0  0
    8.9664  -13.4202   18.1593 C   0  0  0  0  0  0  0  0  0  0  0  0
    8.4393  -13.3193   16.9063 N   0  0  0  0  0  0  0  0  0  0  0  0
    8.1356  -14.5329   16.4854 C   0  0  0  0  0  0  0  0  0  0  0  0
    8.4546  -15.4126   17.4390 N   0  0  0  0  0  0  0  0  0  0  0  0
   11.1121  -15.7231   21.4844 C   0  0  0  0  0  0  0  0  0  0  0  0
   12.1571  -16.3552   21.6923 O   0  0  0  0  0  0  0  0  0  0  0  0
   10.1700  -15.6622   22.5439 N   0  0  0  0  0  0  0  0  0  0  0  0
   10.4309  -16.4208   23.7623 C   0  0  1  0  0  0  0  0  0  0  0  0
    9.3916  -16.0277   24.7863 C   0  0  0  0  0  0  0  0  0  0  0  0
    9.3238  -14.2510   25.0216 S   0  0  0  0  0  0  0  0  0  0  0  0
   10.3603  -17.8836   23.5051 C   0  0  0  0  0  0  0  0  0  0  0  0
   10.6633  -18.7471   24.3728 O   0  0  0  0  0  0  0  0  0  0  0  0
    9.9498  -18.3254   22.2766 O   0  0  0  0  0  0  0  0  0  0  0  0
  1  2  1  0
  2  3  2  0
  4  2  1  0
  5  4  1  0
  5  6  1  6
  7  9  1  0
  7  5  1  0
  8  7  2  0
 10  9  1  0
 11 12  1  0
 10 11  1  6
 12 16  1  0
 12 13  2  0
 13 14  1  0
 15 14  1  0
 16 15  2  0
 17 19  1  0
 17 10  1  0
 18 17  2  0
 20 19  1  0
 20 23  1  0
 20 21  1  1
 21 22  1  0
 23 25  1  0
 24 23  2  0
M  END
$$$$
