NHC.pdb
     RDKit          3D

 25 25  0  0  1  0  0  0  0  0999 V2000
   15.5399  -19.5446   19.9274 N   0  0  0  0  0  0  0  0  0  0  0  0
   15.4531  -18.3725   20.7201 C   0  0  0  0  0  0  0  0  0  0  0  0
   16.4070  -17.9855   21.4167 O   0  0  0  0  0  0  0  0  0  0  0  0
   14.2002  -17.5947   20.7176 C   0  0  0  0  0  0  0  0  0  0  0  0
   13.4561  -17.7408   22.0176 C   0  0  2  0  0  0  0  0  0  0  0  0
   13.0014  -19.0690   22.2914 N   0  0  0  0  0  0  0  0  0  0  0  0
   12.3072  -16.8223   22.0239 C   0  0  0  0  0  0  0  0  0  0  0  0
   12.5154  -15.5973   22.0173 O   0  0  0  0  0  0  0  0  0  0  0  0
   10.9908  -17.2960   22.0376 N   0  0  0  0  0  0  0  0  0  0  0  0
    9.8437  -16.3633   22.0398 C   0  0  1  0  0  0  0  0  0  0  0  0
    8.6741  -17.0072   21.3713 C   0  0  0  0  0  0  0  0  0  0  0  0
    7.4677  -16.1912   21.2860 C   0  0  0  0  0  0  0  0  0  0  0  0
    7.2386  -14.8619   21.4875 C   0  0  0  0  0  0  0  0  0  0  0  0
    5.9266  -14.6185   21.2086 N   0  0  0  0  0  0  0  0  0  0  0  0
    5.3621  -15.7552   20.8459 C   0  0  0  0  0  0  0  0  0  0  0  0
    6.2804  -16.7248   20.8855 N   0  0  0  0  0  0  0  0  0  0  0  0
    9.5440  -16.1744   23.5131 C   0  0  0  0  0  0  0  0  0  0  0  0
    9.9605  -16.9449   24.3892 O   0  0  0  0  0  0  0  0  0  0  0  0
    8.7532  -15.0757   23.9390 N   0  0  0  0  0  0  0  0  0  0  0  0
    8.3820  -14.9794   25.3465 C   0  0  1  0  0  0  0  0  0  0  0  0
    7.8860  -13.5750   25.6014 C   0  0  0  0  0  0  0  0  0  0  0  0
    6.2768  -13.2902   24.8627 S   0  0  0  0  0  0  0  0  0  0  0  0
    7.3184  -15.9614   25.6859 C   0  0  0  0  0  0  0  0  0  0  0  0
    6.6121  -16.5353   24.8128 O   0  0  0  0  0  0  0  0  0  0  0  0
    7.0858  -16.2648   27.0000 O   0  0  0  0  0  0  0  0  0  0  0  0
  1  2  1  0
  2  3  2  0
  4  2  1  0
  5  4  1  0
  5  6  1  6
  7  9  1  0
  7  5  1  0
  8  7  2  0
 10  9  1  0
 11 12  1  0
 10 11  1  6
 12 16  1  0
 12 13  2  0
 13 14  1  0
 15 14  1  0
 16 15  2  0
 17 19  1  0
 17 10  1  0
 18 17  2  0
 20 19  1  0
 20 23  1  0
 20 21  1  6
 21 22  1  0
 23 25  1  0
 24 23  2  0
M  END
$$$$
