NHC.pdb
     RDKit          3D

 25 25  0  0  1  0  0  0  0  0999 V2000
   13.9142  -15.4876   17.1774 N   0  0  0  0  0  0  0  0  0  0  0  0
   14.1115  -15.3710   18.5765 C   0  0  0  0  0  0  0  0  0  0  0  0
   15.1112  -15.8536   19.1355 O   0  0  0  0  0  0  0  0  0  0  0  0
   13.1053  -14.6601   19.3870 C   0  0  0  0  0  0  0  0  0  0  0  0
   12.5015  -15.5591   20.4320 C   0  0  2  0  0  0  0  0  0  0  0  0
   11.9471  -16.7731   19.9175 N   0  0  0  0  0  0  0  0  0  0  0  0
   11.4607  -14.8206   21.1635 C   0  0  0  0  0  0  0  0  0  0  0  0
   11.7572  -13.7454   21.7111 O   0  0  0  0  0  0  0  0  0  0  0  0
   10.1498  -15.3009   21.2560 N   0  0  0  0  0  0  0  0  0  0  0  0
    9.0688  -14.4658   21.8216 C   0  0  1  0  0  0  0  0  0  0  0  0
    7.8370  -14.6116   20.9904 C   0  0  0  0  0  0  0  0  0  0  0  0
    7.9459  -14.1427   19.6131 C   0  0  0  0  0  0  0  0  0  0  0  0
    8.1644  -12.9089   19.0746 C   0  0  0  0  0  0  0  0  0  0  0  0
    8.2355  -13.0521   17.7208 N   0  0  0  0  0  0  0  0  0  0  0  0
    8.0686  -14.3286   17.4296 C   0  0  0  0  0  0  0  0  0  0  0  0
    7.8910  -15.0104   18.5648 N   0  0  0  0  0  0  0  0  0  0  0  0
    8.8315  -15.0731   23.1894 C   0  0  0  0  0  0  0  0  0  0  0  0
    9.2631  -16.1876   23.5156 O   0  0  0  0  0  0  0  0  0  0  0  0
    8.0847  -14.3577   24.1612 N   0  0  0  0  0  0  0  0  0  0  0  0
    7.8744  -14.9618   25.4722 C   0  0  1  0  0  0  0  0  0  0  0  0
    7.2179  -13.9300   26.3598 C   0  0  0  0  0  0  0  0  0  0  0  0
    5.6455  -13.3801   25.6952 S   0  0  0  0  0  0  0  0  0  0  0  0
    7.0095  -16.1671   25.3715 C   0  0  0  0  0  0  0  0  0  0  0  0
    6.4319  -16.5085   24.3037 O   0  0  0  0  0  0  0  0  0  0  0  0
    6.8239  -16.9489   26.4793 O   0  0  0  0  0  0  0  0  0  0  0  0
  1  2  1  0
  2  3  2  0
  4  2  1  0
  5  4  1  0
  5  6  1  6
  7  9  1  0
  7  5  1  0
  8  7  2  0
 10  9  1  0
 11 12  1  0
 10 11  1  6
 12 16  1  0
 12 13  2  0
 13 14  1  0
 15 14  1  0
 16 15  2  0
 17 19  1  0
 17 10  1  0
 18 17  2  0
 20 19  1  0
 20 23  1  0
 20 21  1  1
 21 22  1  0
 23 25  1  0
 24 23  2  0
M  END
$$$$
