NHC.pdb
     RDKit          3D

 25 25  0  0  1  0  0  0  0  0999 V2000
   12.2033  -19.4952   15.5590 N   0  0  0  0  0  0  0  0  0  0  0  0
   11.8186  -18.1396   15.7151 C   0  0  0  0  0  0  0  0  0  0  0  0
   12.2786  -17.2443   14.9860 O   0  0  0  0  0  0  0  0  0  0  0  0
   10.8494  -17.7847   16.7683 C   0  0  0  0  0  0  0  0  0  0  0  0
   11.3988  -18.0623   18.1416 C   0  0  2  0  0  0  0  0  0  0  0  0
   11.4786  -19.4507   18.4759 N   0  0  0  0  0  0  0  0  0  0  0  0
   10.5747  -17.3675   19.1425 C   0  0  0  0  0  0  0  0  0  0  0  0
   10.5060  -16.1273   19.1103 O   0  0  0  0  0  0  0  0  0  0  0  0
    9.8699  -18.0699   20.1262 N   0  0  0  0  0  0  0  0  0  0  0  0
    8.9423  -17.3749   21.0440 C   0  0  1  0  0  0  0  0  0  0  0  0
    7.9555  -18.3521   21.5925 C   0  0  0  0  0  0  0  0  0  0  0  0
    6.9322  -18.8079   20.6579 C   0  0  0  0  0  0  0  0  0  0  0  0
    6.6517  -18.4759   19.3651 C   0  0  0  0  0  0  0  0  0  0  0  0
    5.6167  -19.2594   18.9492 N   0  0  0  0  0  0  0  0  0  0  0  0
    5.2681  -20.0500   19.9470 C   0  0  0  0  0  0  0  0  0  0  0  0
    6.0546  -19.7930   20.9959 N   0  0  0  0  0  0  0  0  0  0  0  0
    9.8459  -16.8880   22.1585 C   0  0  0  0  0  0  0  0  0  0  0  0
   10.8172  -16.1445   21.9619 O   0  0  0  0  0  0  0  0  0  0  0  0
    9.5943  -17.2847   23.4977 N   0  0  0  0  0  0  0  0  0  0  0  0
   10.4016  -16.7067   24.5665 C   0  0  1  0  0  0  0  0  0  0  0  0
   10.1041  -15.2263   24.6251 C   0  0  0  0  0  0  0  0  0  0  0  0
    8.3570  -14.9050   24.8720 S   0  0  0  0  0  0  0  0  0  0  0  0
   10.0857  -17.3388   25.8747 C   0  0  0  0  0  0  0  0  0  0  0  0
    9.1489  -18.1696   26.0257 O   0  0  0  0  0  0  0  0  0  0  0  0
   10.8373  -17.0134   26.9711 O   0  0  0  0  0  0  0  0  0  0  0  0
  1  2  1  0
  2  3  2  0
  4  2  1  0
  5  4  1  0
  5  6  1  1
  7  9  1  0
  7  5  1  0
  8  7  2  0
 10  9  1  0
 11 12  1  0
 10 11  1  1
 12 16  1  0
 12 13  2  0
 13 14  1  0
 15 14  1  0
 16 15  2  0
 17 19  1  0
 17 10  1  0
 18 17  2  0
 20 19  1  0
 20 23  1  0
 20 21  1  1
 21 22  1  0
 23 25  1  0
 24 23  2  0
M  END
$$$$
