NHC.pdb
     RDKit          3D

 25 25  0  0  1  0  0  0  0  0999 V2000
   15.3716  -16.0786   18.3649 N   0  0  0  0  0  0  0  0  0  0  0  0
   14.6714  -14.9555   17.8567 C   0  0  0  0  0  0  0  0  0  0  0  0
   15.1006  -14.3039   16.8892 O   0  0  0  0  0  0  0  0  0  0  0  0
   13.4035  -14.5515   18.4923 C   0  0  0  0  0  0  0  0  0  0  0  0
   13.0868  -15.4086   19.6881 C   0  0  2  0  0  0  0  0  0  0  0  0
   12.6381  -16.7281   19.3665 N   0  0  0  0  0  0  0  0  0  0  0  0
   12.0697  -14.7358   20.5105 C   0  0  0  0  0  0  0  0  0  0  0  0
   12.3385  -13.6346   21.0193 O   0  0  0  0  0  0  0  0  0  0  0  0
   10.8116  -15.3068   20.7317 N   0  0  0  0  0  0  0  0  0  0  0  0
    9.7867  -14.6081   21.5363 C   0  0  1  0  0  0  0  0  0  0  0  0
    8.4434  -14.8042   20.9146 C   0  0  0  0  0  0  0  0  0  0  0  0
    8.2682  -14.2151   19.5913 C   0  0  0  0  0  0  0  0  0  0  0  0
    8.2459  -12.9237   19.1535 C   0  0  0  0  0  0  0  0  0  0  0  0
    8.1112  -12.9461   17.7972 N   0  0  0  0  0  0  0  0  0  0  0  0
    8.0533  -14.2057   17.4071 C   0  0  0  0  0  0  0  0  0  0  0  0
    8.1470  -14.9947   18.4812 N   0  0  0  0  0  0  0  0  0  0  0  0
    9.8363  -15.3237   22.8710 C   0  0  0  0  0  0  0  0  0  0  0  0
   10.4910  -16.3591   23.0562 O   0  0  0  0  0  0  0  0  0  0  0  0
    9.1106  -14.8095   23.9768 N   0  0  0  0  0  0  0  0  0  0  0  0
    9.1654  -15.5232   25.2479 C   0  0  1  0  0  0  0  0  0  0  0  0
    8.4149  -14.7051   26.2731 C   0  0  0  0  0  0  0  0  0  0  0  0
    9.0799  -13.0461   26.4212 S   0  0  0  0  0  0  0  0  0  0  0  0
    8.5517  -16.8723   25.1288 C   0  0  0  0  0  0  0  0  0  0  0  0
    7.9940  -17.2805   24.0739 O   0  0  0  0  0  0  0  0  0  0  0  0
    8.5871  -17.7180   26.2042 O   0  0  0  0  0  0  0  0  0  0  0  0
  1  2  1  0
  2  3  2  0
  4  2  1  0
  5  4  1  0
  5  6  1  6
  7  9  1  0
  7  5  1  0
  8  7  2  0
 10  9  1  0
 11 12  1  0
 10 11  1  6
 12 16  1  0
 12 13  2  0
 13 14  1  0
 15 14  1  0
 16 15  2  0
 17 19  1  0
 17 10  1  0
 18 17  2  0
 20 19  1  0
 20 23  1  0
 20 21  1  1
 21 22  1  0
 23 25  1  0
 24 23  2  0
M  END
$$$$
