NHC.pdb
     RDKit          3D

 25 25  0  0  1  0  0  0  0  0999 V2000
   14.8851  -17.0883   18.9009 N   0  0  0  0  0  0  0  0  0  0  0  0
   13.5529  -17.4704   19.1996 C   0  0  0  0  0  0  0  0  0  0  0  0
   13.0444  -18.4942   18.7118 O   0  0  0  0  0  0  0  0  0  0  0  0
   12.7522  -16.6317   20.1108 C   0  0  0  0  0  0  0  0  0  0  0  0
   12.4584  -17.3443   21.4033 C   0  0  2  0  0  0  0  0  0  0  0  0
   11.6666  -18.5267   21.2587 N   0  0  0  0  0  0  0  0  0  0  0  0
   11.7844  -16.4172   22.3252 C   0  0  0  0  0  0  0  0  0  0  0  0
   12.2817  -15.2956   22.5218 O   0  0  0  0  0  0  0  0  0  0  0  0
   10.6009  -16.7696   22.9830 N   0  0  0  0  0  0  0  0  0  0  0  0
    9.8723  -15.7924   23.8198 C   0  0  1  0  0  0  0  0  0  0  0  0
    8.4095  -16.0886   23.7759 C   0  0  0  0  0  0  0  0  0  0  0  0
    7.7131  -15.6526   22.5703 C   0  0  0  0  0  0  0  0  0  0  0  0
    8.1311  -14.9915   21.4531 C   0  0  0  0  0  0  0  0  0  0  0  0
    7.0692  -14.8962   20.6037 N   0  0  0  0  0  0  0  0  0  0  0  0
    6.0300  -15.4781   21.1725 C   0  0  0  0  0  0  0  0  0  0  0  0
    6.3984  -15.9454   22.3687 N   0  0  0  0  0  0  0  0  0  0  0  0
   10.4010  -16.0574   25.2148 C   0  0  0  0  0  0  0  0  0  0  0  0
   11.0903  -17.0475   25.4970 O   0  0  0  0  0  0  0  0  0  0  0  0
   10.1100  -15.1496   26.2660 N   0  0  0  0  0  0  0  0  0  0  0  0
   10.7619  -15.3360   27.5577 C   0  0  1  0  0  0  0  0  0  0  0  0
   10.6911  -14.0260   28.3075 C   0  0  0  0  0  0  0  0  0  0  0  0
    9.0786  -13.2557   28.1563 S   0  0  0  0  0  0  0  0  0  0  0  0
   10.0923  -16.4061   28.3435 C   0  0  0  0  0  0  0  0  0  0  0  0
    9.0178  -16.9550   27.9766 O   0  0  0  0  0  0  0  0  0  0  0  0
   10.6568  -16.8227   29.5185 O   0  0  0  0  0  0  0  0  0  0  0  0
  1  2  1  0
  2  3  2  0
  4  2  1  0
  5  4  1  0
  5  6  1  6
  7  9  1  0
  7  5  1  0
  8  7  2  0
 10  9  1  0
 11 12  1  0
 10 11  1  1
 12 16  1  0
 12 13  2  0
 13 14  1  0
 15 14  1  0
 16 15  2  0
 17 19  1  0
 17 10  1  0
 18 17  2  0
 20 19  1  0
 20 23  1  0
 20 21  1  1
 21 22  1  0
 23 25  1  0
 24 23  2  0
M  END
$$$$
