NHC.pdb
     RDKit          3D

 25 25  0  0  1  0  0  0  0  0999 V2000
   13.7929  -19.5092   21.4832 N   0  0  0  0  0  0  0  0  0  0  0  0
   12.4717  -19.3632   20.9900 C   0  0  0  0  0  0  0  0  0  0  0  0
   12.1451  -19.7871   19.8682 O   0  0  0  0  0  0  0  0  0  0  0  0
   11.4618  -18.6919   21.8290 C   0  0  0  0  0  0  0  0  0  0  0  0
   10.7552  -17.5978   21.0750 C   0  0  2  0  0  0  0  0  0  0  0  0
   11.4727  -17.1044   19.9403 N   0  0  0  0  0  0  0  0  0  0  0  0
   10.4697  -16.4839   21.9921 C   0  0  0  0  0  0  0  0  0  0  0  0
   11.2935  -15.5590   22.0914 O   0  0  0  0  0  0  0  0  0  0  0  0
    9.2956  -16.4435   22.7522 N   0  0  0  0  0  0  0  0  0  0  0  0
    9.0013  -15.3004   23.6425 C   0  0  1  0  0  0  0  0  0  0  0  0
    7.5277  -15.2047   23.8632 C   0  0  0  0  0  0  0  0  0  0  0  0
    7.0872  -14.1057   24.7157 C   0  0  0  0  0  0  0  0  0  0  0  0
    7.7201  -12.9919   25.1834 C   0  0  0  0  0  0  0  0  0  0  0  0
    6.8123  -12.2646   25.8941 N   0  0  0  0  0  0  0  0  0  0  0  0
    5.6575  -12.9031   25.8675 C   0  0  0  0  0  0  0  0  0  0  0  0
    5.8011  -14.0250   25.1565 N   0  0  0  0  0  0  0  0  0  0  0  0
    9.6843  -15.6784   24.9412 C   0  0  0  0  0  0  0  0  0  0  0  0
   10.0536  -16.8330   25.1967 O   0  0  0  0  0  0  0  0  0  0  0  0
    9.9250  -14.6877   25.9284 N   0  0  0  0  0  0  0  0  0  0  0  0
   10.6463  -15.0619   27.1399 C   0  0  1  0  0  0  0  0  0  0  0  0
   10.5939  -13.8903   28.0928 C   0  0  0  0  0  0  0  0  0  0  0  0
   11.3023  -14.2955   29.6898 S   0  0  0  0  0  0  0  0  0  0  0  0
   10.0357  -16.2593   27.7757 C   0  0  0  0  0  0  0  0  0  0  0  0
    8.7908  -16.4585   27.8071 O   0  0  0  0  0  0  0  0  0  0  0  0
   10.8497  -17.1942   28.3557 O   0  0  0  0  0  0  0  0  0  0  0  0
  1  2  1  0
  2  3  2  0
  4  2  1  0
  5  4  1  0
  5  6  1  6
  7  9  1  0
  7  5  1  0
  8  7  2  0
 10  9  1  0
 11 12  1  0
 10 11  1  1
 12 16  1  0
 12 13  2  0
 13 14  1  0
 15 14  1  0
 16 15  2  0
 17 19  1  0
 17 10  1  0
 18 17  2  0
 20 19  1  0
 20 23  1  0
 20 21  1  1
 21 22  1  0
 23 25  1  0
 24 23  2  0
M  END
$$$$
