NHC.pdb
     RDKit          3D

 25 25  0  0  1  0  0  0  0  0999 V2000
    7.7896  -12.9118   16.8266 N   0  0  0  0  0  0  0  0  0  0  0  0
    7.7910  -13.2765   18.1966 C   0  0  0  0  0  0  0  0  0  0  0  0
    6.8817  -12.9212   18.9658 O   0  0  0  0  0  0  0  0  0  0  0  0
    8.8988  -14.0970   18.7204 C   0  0  0  0  0  0  0  0  0  0  0  0
    9.9323  -14.3714   17.6615 C   0  0  2  0  0  0  0  0  0  0  0  0
    9.4378  -15.0852   16.5249 N   0  0  0  0  0  0  0  0  0  0  0  0
   11.0496  -15.1197   18.2576 C   0  0  0  0  0  0  0  0  0  0  0  0
   11.0753  -16.3567   18.1430 O   0  0  0  0  0  0  0  0  0  0  0  0
   12.0794  -14.4716   18.9482 N   0  0  0  0  0  0  0  0  0  0  0  0
   13.2457  -15.2221   19.4603 C   0  0  1  0  0  0  0  0  0  0  0  0
   14.5007  -14.4856   19.1257 C   0  0  0  0  0  0  0  0  0  0  0  0
   15.2043  -14.9465   17.9335 C   0  0  0  0  0  0  0  0  0  0  0  0
   15.3056  -16.1696   17.3388 C   0  0  0  0  0  0  0  0  0  0  0  0
   16.0441  -16.0203   16.2028 N   0  0  0  0  0  0  0  0  0  0  0  0
   16.3877  -14.7505   16.0955 C   0  0  0  0  0  0  0  0  0  0  0  0
   15.8879  -14.0789   17.1367 N   0  0  0  0  0  0  0  0  0  0  0  0
   13.0396  -15.2154   20.9614 C   0  0  0  0  0  0  0  0  0  0  0  0
   12.7401  -14.1940   21.5955 O   0  0  0  0  0  0  0  0  0  0  0  0
   13.1898  -16.4168   21.7017 N   0  0  0  0  0  0  0  0  0  0  0  0
   12.6433  -16.4843   23.0525 C   0  0  1  0  0  0  0  0  0  0  0  0
   11.1649  -16.1822   22.9715 C   0  0  0  0  0  0  0  0  0  0  0  0
   10.3605  -16.3480   24.5658 S   0  0  0  0  0  0  0  0  0  0  0  0
   12.8530  -17.8314   23.6460 C   0  0  0  0  0  0  0  0  0  0  0  0
   12.6459  -18.9002   23.0094 O   0  0  0  0  0  0  0  0  0  0  0  0
   13.2901  -17.9294   24.9391 O   0  0  0  0  0  0  0  0  0  0  0  0
  1  2  1  0
  2  3  2  0
  4  2  1  0
  5  4  1  0
  5  6  1  6
  7  9  1  0
  7  5  1  0
  8  7  2  0
 10  9  1  0
 11 12  1  0
 10 11  1  1
 12 16  1  0
 12 13  2  0
 13 14  1  0
 15 14  1  0
 16 15  2  0
 17 19  1  0
 17 10  1  0
 18 17  2  0
 20 19  1  0
 20 23  1  0
 20 21  1  6
 21 22  1  0
 23 25  1  0
 24 23  2  0
M  END
$$$$
