NHC.pdb
     RDKit          3D

 25 25  0  0  1  0  0  0  0  0999 V2000
   17.8229  -13.9214   17.1060 N   0  0  0  0  0  0  0  0  0  0  0  0
   17.3821  -13.5670   18.4060 C   0  0  0  0  0  0  0  0  0  0  0  0
   18.1637  -13.1058   19.2552 O   0  0  0  0  0  0  0  0  0  0  0  0
   15.9619  -13.7509   18.7580 C   0  0  0  0  0  0  0  0  0  0  0  0
   15.2289  -14.5381   17.7055 C   0  0  2  0  0  0  0  0  0  0  0  0
   15.0687  -13.8528   16.4603 N   0  0  0  0  0  0  0  0  0  0  0  0
   13.9068  -14.9237   18.2221 C   0  0  0  0  0  0  0  0  0  0  0  0
   12.9313  -14.1906   17.9879 O   0  0  0  0  0  0  0  0  0  0  0  0
   13.7247  -16.0929   18.9688 N   0  0  0  0  0  0  0  0  0  0  0  0
   12.3979  -16.4524   19.5132 C   0  0  1  0  0  0  0  0  0  0  0  0
   12.1288  -17.8992   19.2602 C   0  0  0  0  0  0  0  0  0  0  0  0
   11.6801  -18.2314   17.9123 C   0  0  0  0  0  0  0  0  0  0  0  0
   11.2929  -17.4625   16.8545 C   0  0  0  0  0  0  0  0  0  0  0  0
   11.0321  -18.2955   15.8075 N   0  0  0  0  0  0  0  0  0  0  0  0
   11.2507  -19.5364   16.2006 C   0  0  0  0  0  0  0  0  0  0  0  0
   11.6456  -19.5214   17.4768 N   0  0  0  0  0  0  0  0  0  0  0  0
   12.5513  -16.2187   21.0024 C   0  0  0  0  0  0  0  0  0  0  0  0
   13.6500  -16.2204   21.5748 O   0  0  0  0  0  0  0  0  0  0  0  0
   11.4036  -15.9853   21.8038 N   0  0  0  0  0  0  0  0  0  0  0  0
   11.5657  -15.8706   23.2490 C   0  0  1  0  0  0  0  0  0  0  0  0
   10.2345  -15.4610   23.8351 C   0  0  0  0  0  0  0  0  0  0  0  0
   10.2861  -15.3911   25.6264 S   0  0  0  0  0  0  0  0  0  0  0  0
   12.0036  -17.1624   23.8407 C   0  0  0  0  0  0  0  0  0  0  0  0
   11.5000  -18.2714   23.5135 O   0  0  0  0  0  0  0  0  0  0  0  0
   12.9961  -17.1617   24.7830 O   0  0  0  0  0  0  0  0  0  0  0  0
  1  2  1  0
  2  3  2  0
  4  2  1  0
  5  4  1  0
  5  6  1  6
  7  9  1  0
  7  5  1  0
  8  7  2  0
 10  9  1  0
 11 12  1  0
 10 11  1  1
 12 16  1  0
 12 13  2  0
 13 14  1  0
 15 14  1  0
 16 15  2  0
 17 19  1  0
 17 10  1  0
 18 17  2  0
 20 19  1  0
 20 23  1  0
 20 21  1  1
 21 22  1  0
 23 25  1  0
 24 23  2  0
M  END
$$$$
