VFH.pdb
     RDKit          3D

 29 30  0  0  1  0  0  0  0  0999 V2000
    7.7733  -14.1596   17.3597 C   0  0  0  0  0  0  0  0  0  0  0  0
    7.7449  -13.8992   18.8469 C   0  0  2  0  0  0  0  0  0  0  0  0
    8.3973  -12.5630   19.0950 C   0  0  0  0  0  0  0  0  0  0  0  0
    8.5329  -14.9366   19.6152 C   0  0  2  0  0  0  0  0  0  0  0  0
    7.8130  -16.1692   19.5608 N   0  0  0  0  0  0  0  0  0  0  0  0
    8.8263  -14.5000   21.0039 C   0  0  0  0  0  0  0  0  0  0  0  0
    9.7138  -13.6967   21.3129 O   0  0  0  0  0  0  0  0  0  0  0  0
    8.0322  -15.0447   22.0388 N   0  0  0  0  0  0  0  0  0  0  0  0
    8.1490  -14.6773   23.4398 C   0  0  1  0  0  0  0  0  0  0  0  0
    6.9508  -13.9977   23.9742 C   0  0  0  0  0  0  0  0  0  0  0  0
    7.1526  -13.4828   25.3475 C   0  0  0  0  0  0  0  0  0  0  0  0
    7.9782  -12.4026   25.5917 C   0  0  0  0  0  0  0  0  0  0  0  0
    8.1766  -11.9112   26.8625 C   0  0  0  0  0  0  0  0  0  0  0  0
    7.5421  -12.5053   27.9087 C   0  0  0  0  0  0  0  0  0  0  0  0
    6.7062  -13.5864   27.7277 C   0  0  0  0  0  0  0  0  0  0  0  0
    6.5256  -14.0570   26.4497 C   0  0  0  0  0  0  0  0  0  0  0  0
    8.6277  -15.8561   24.1599 C   0  0  0  0  0  0  0  0  0  0  0  0
    7.9321  -16.9306   24.1331 O   0  0  0  0  0  0  0  0  0  0  0  0
    9.8190  -15.9197   24.9021 N   0  0  0  0  0  0  0  0  0  0  0  0
   10.2201  -17.1728   25.5809 C   0  0  1  0  0  0  0  0  0  0  0  0
   11.6509  -17.3835   25.2410 C   0  0  0  0  0  0  0  0  0  0  0  0
   11.8715  -17.6706   23.8068 C   0  0  0  0  0  0  0  0  0  0  0  0
   10.9921  -17.6537   22.7711 C   0  0  0  0  0  0  0  0  0  0  0  0
   11.6739  -17.9178   21.6241 N   0  0  0  0  0  0  0  0  0  0  0  0
   12.9529  -18.0953   21.9327 C   0  0  0  0  0  0  0  0  0  0  0  0
   13.0835  -17.9469   23.2561 N   0  0  0  0  0  0  0  0  0  0  0  0
   10.0978  -16.8447   27.0427 C   0  0  0  0  0  0  0  0  0  0  0  0
   10.0349  -15.5818   27.5520 O   0  0  0  0  0  0  0  0  0  0  0  0
   10.0475  -17.8100   27.8648 O   0  0  0  0  0  0  0  0  0  0  0  0
  2  1  1  6
  2  3  1  0
  4  2  1  0
  4  5  1  1
  6  7  2  0
  6  4  1  0
  8  6  1  0
  9  8  1  0
  9 10  1  1
 10 11  1  0
 11 16  1  0
 11 12  2  0
 12 13  1  0
 13 14  2  0
 15 14  1  0
 16 15  2  0
 17  9  1  0
 18 17  2  0
 19 17  1  0
 20 21  1  1
 20 19  1  0
 22 21  1  0
 22 26  1  0
 23 24  1  0
 23 22  2  0
 24 25  1  0
 25 26  2  0
 27 28  1  0
 27 20  1  0
 29 27  2  0
M  END
$$$$
