VFH.pdb
     RDKit          3D

 29 30  0  0  1  0  0  0  0  0999 V2000
    7.3265  -18.1284   21.0185 C   0  0  0  0  0  0  0  0  0  0  0  0
    8.5851  -17.9748   20.1984 C   0  0  2  0  0  0  0  0  0  0  0  0
    9.6512  -18.8399   20.8209 C   0  0  0  0  0  0  0  0  0  0  0  0
    9.0945  -16.5508   20.2103 C   0  0  2  0  0  0  0  0  0  0  0  0
   10.3166  -16.5115   19.4718 N   0  0  0  0  0  0  0  0  0  0  0  0
    9.2360  -16.0194   21.5897 C   0  0  0  0  0  0  0  0  0  0  0  0
   10.2078  -16.2285   22.3246 O   0  0  0  0  0  0  0  0  0  0  0  0
    8.1830  -15.2201   22.0904 N   0  0  0  0  0  0  0  0  0  0  0  0
    8.1460  -14.6613   23.4311 C   0  0  1  0  0  0  0  0  0  0  0  0
    7.1834  -13.5504   23.5818 C   0  0  0  0  0  0  0  0  0  0  0  0
    7.1127  -13.0420   24.9704 C   0  0  0  0  0  0  0  0  0  0  0  0
    8.0546  -12.1559   25.4559 C   0  0  0  0  0  0  0  0  0  0  0  0
    8.0033  -11.6733   26.7444 C   0  0  0  0  0  0  0  0  0  0  0  0
    6.9970  -12.0798   27.5642 C   0  0  0  0  0  0  0  0  0  0  0  0
    6.0281  -12.9622   27.1367 C   0  0  0  0  0  0  0  0  0  0  0  0
    6.1025  -13.4285   25.8465 C   0  0  0  0  0  0  0  0  0  0  0  0
    8.0297  -15.7798   24.3653 C   0  0  0  0  0  0  0  0  0  0  0  0
    6.9961  -16.5335   24.3129 O   0  0  0  0  0  0  0  0  0  0  0  0
    8.9784  -16.1139   25.3463 N   0  0  0  0  0  0  0  0  0  0  0  0
    8.7072  -17.1929   26.3230 C   0  0  1  0  0  0  0  0  0  0  0  0
    8.5870  -18.4433   25.5300 C   0  0  0  0  0  0  0  0  0  0  0  0
    9.8434  -18.8213   24.8468 C   0  0  0  0  0  0  0  0  0  0  0  0
   11.0661  -18.2298   24.8848 C   0  0  0  0  0  0  0  0  0  0  0  0
   11.9294  -18.9799   24.1484 N   0  0  0  0  0  0  0  0  0  0  0  0
   11.2640  -20.0198   23.6602 C   0  0  0  0  0  0  0  0  0  0  0  0
    9.9960  -19.9330   24.0789 N   0  0  0  0  0  0  0  0  0  0  0  0
    9.9584  -17.2479   27.1544 C   0  0  0  0  0  0  0  0  0  0  0  0
   11.0016  -16.3772   27.0453 O   0  0  0  0  0  0  0  0  0  0  0  0
   10.0533  -18.1686   28.0225 O   0  0  0  0  0  0  0  0  0  0  0  0
  2  1  1  1
  2  3  1  0
  4  2  1  0
  4  5  1  1
  6  7  2  0
  6  4  1  0
  8  6  1  0
  9  8  1  0
  9 10  1  6
 10 11  1  0
 11 16  1  0
 11 12  2  0
 12 13  1  0
 13 14  2  0
 15 14  1  0
 16 15  2  0
 17  9  1  0
 18 17  2  0
 19 17  1  0
 20 21  1  6
 20 19  1  0
 22 21  1  0
 22 26  1  0
 23 24  1  0
 23 22  2  0
 24 25  1  0
 25 26  2  0
 27 28  1  0
 27 20  1  0
 29 27  2  0
M  END
$$$$
