VFH.pdb
     RDKit          3D

 29 30  0  0  1  0  0  0  0  0999 V2000
    8.0357  -18.1385   18.3623 C   0  0  0  0  0  0  0  0  0  0  0  0
    8.3264  -17.7211   19.7841 C   0  0  2  0  0  0  0  0  0  0  0  0
    7.0391  -17.8074   20.5639 C   0  0  0  0  0  0  0  0  0  0  0  0
    8.8078  -16.2895   19.8633 C   0  0  2  0  0  0  0  0  0  0  0  0
    9.9945  -16.1772   19.0762 N   0  0  0  0  0  0  0  0  0  0  0  0
    9.0006  -15.8415   21.2659 C   0  0  0  0  0  0  0  0  0  0  0  0
    9.9339  -16.1992   21.9935 O   0  0  0  0  0  0  0  0  0  0  0  0
    8.0474  -14.9442   21.7993 N   0  0  0  0  0  0  0  0  0  0  0  0
    8.0737  -14.4359   23.1603 C   0  0  1  0  0  0  0  0  0  0  0  0
    7.1245  -13.3283   23.3958 C   0  0  0  0  0  0  0  0  0  0  0  0
    7.0911  -12.8977   24.8119 C   0  0  0  0  0  0  0  0  0  0  0  0
    8.0872  -12.0996   25.3400 C   0  0  0  0  0  0  0  0  0  0  0  0
    8.0711  -11.6903   26.6544 C   0  0  0  0  0  0  0  0  0  0  0  0
    7.0456  -12.0820   27.4575 C   0  0  0  0  0  0  0  0  0  0  0  0
    6.0230  -12.8782   26.9877 C   0  0  0  0  0  0  0  0  0  0  0  0
    6.0632  -13.2727   25.6723 C   0  0  0  0  0  0  0  0  0  0  0  0
    7.9941  -15.5883   24.0564 C   0  0  0  0  0  0  0  0  0  0  0  0
    7.1192  -16.4957   23.8320 O   0  0  0  0  0  0  0  0  0  0  0  0
    8.8158  -15.7977   25.1766 N   0  0  0  0  0  0  0  0  0  0  0  0
    9.0178  -17.1595   25.7213 C   0  0  1  0  0  0  0  0  0  0  0  0
    9.7513  -17.9156   24.6737 C   0  0  0  0  0  0  0  0  0  0  0  0
   10.1927  -19.2535   25.1242 C   0  0  0  0  0  0  0  0  0  0  0  0
   10.0285  -19.8644   26.3268 C   0  0  0  0  0  0  0  0  0  0  0  0
   10.5447  -21.1202   26.2450 N   0  0  0  0  0  0  0  0  0  0  0  0
   11.0210  -21.2944   25.0180 C   0  0  0  0  0  0  0  0  0  0  0  0
   10.8118  -20.1665   24.3292 N   0  0  0  0  0  0  0  0  0  0  0  0
    9.9199  -16.9433   26.9041 C   0  0  0  0  0  0  0  0  0  0  0  0
   10.6696  -15.8244   27.1142 O   0  0  0  0  0  0  0  0  0  0  0  0
    9.9900  -17.8659   27.7727 O   0  0  0  0  0  0  0  0  0  0  0  0
  2  1  1  6
  2  3  1  0
  4  2  1  0
  4  5  1  6
  6  7  2  0
  6  4  1  0
  8  6  1  0
  9  8  1  0
  9 10  1  6
 10 11  1  0
 11 16  1  0
 11 12  2  0
 12 13  1  0
 13 14  2  0
 15 14  1  0
 16 15  2  0
 17  9  1  0
 18 17  2  0
 19 17  1  0
 20 21  1  6
 20 19  1  0
 22 21  1  0
 22 26  1  0
 23 24  1  0
 23 22  2  0
 24 25  1  0
 25 26  2  0
 27 28  1  0
 27 20  1  0
 29 27  2  0
M  END
$$$$
