VFH.pdb
     RDKit          3D

 29 30  0  0  1  0  0  0  0  0999 V2000
    7.5170  -13.1885   19.1321 C   0  0  0  0  0  0  0  0  0  0  0  0
    8.7040  -14.0156   18.6994 C   0  0  2  0  0  0  0  0  0  0  0  0
    8.3594  -14.6664   17.3841 C   0  0  0  0  0  0  0  0  0  0  0  0
    9.0087  -15.1216   19.6849 C   0  0  2  0  0  0  0  0  0  0  0  0
    7.9876  -16.1135   19.5669 N   0  0  0  0  0  0  0  0  0  0  0  0
    9.1589  -14.6096   21.0708 C   0  0  0  0  0  0  0  0  0  0  0  0
   10.0380  -13.8201   21.4345 O   0  0  0  0  0  0  0  0  0  0  0  0
    8.2290  -15.0604   22.0354 N   0  0  0  0  0  0  0  0  0  0  0  0
    8.1051  -14.5078   23.3736 C   0  0  1  0  0  0  0  0  0  0  0  0
    6.7263  -14.1069   23.7220 C   0  0  0  0  0  0  0  0  0  0  0  0
    6.6675  -13.2663   24.9392 C   0  0  0  0  0  0  0  0  0  0  0  0
    6.0802  -13.7297   26.1003 C   0  0  0  0  0  0  0  0  0  0  0  0
    6.0175  -12.9610   27.2408 C   0  0  0  0  0  0  0  0  0  0  0  0
    6.5486  -11.7089   27.2255 C   0  0  0  0  0  0  0  0  0  0  0  0
    7.1476  -11.1914   26.0969 C   0  0  0  0  0  0  0  0  0  0  0  0
    7.1969  -11.9793   24.9724 C   0  0  0  0  0  0  0  0  0  0  0  0
    8.7876  -15.4231   24.2867 C   0  0  0  0  0  0  0  0  0  0  0  0
    8.7651  -16.6801   24.0448 O   0  0  0  0  0  0  0  0  0  0  0  0
    9.4880  -15.0372   25.4419 N   0  0  0  0  0  0  0  0  0  0  0  0
   10.2672  -16.0276   26.2190 C   0  0  1  0  0  0  0  0  0  0  0  0
   10.8686  -15.2784   27.3522 C   0  0  0  0  0  0  0  0  0  0  0  0
   11.5207  -16.1561   28.3485 C   0  0  0  0  0  0  0  0  0  0  0  0
   12.4301  -17.1496   28.1693 C   0  0  0  0  0  0  0  0  0  0  0  0
   12.7921  -17.6263   29.3908 N   0  0  0  0  0  0  0  0  0  0  0  0
   12.1259  -16.9463   30.3161 C   0  0  0  0  0  0  0  0  0  0  0  0
   11.3511  -16.0505   29.6934 N   0  0  0  0  0  0  0  0  0  0  0  0
    9.2238  -16.9736   26.7444 C   0  0  0  0  0  0  0  0  0  0  0  0
    9.4137  -18.3097   26.9366 O   0  0  0  0  0  0  0  0  0  0  0  0
    8.0833  -16.4975   27.0324 O   0  0  0  0  0  0  0  0  0  0  0  0
  2  1  1  1
  2  3  1  0
  4  2  1  0
  4  5  1  1
  6  7  2  0
  6  4  1  0
  8  6  1  0
  9  8  1  0
  9 10  1  1
 10 11  1  0
 11 16  1  0
 11 12  2  0
 12 13  1  0
 13 14  2  0
 15 14  1  0
 16 15  2  0
 17  9  1  0
 18 17  2  0
 19 17  1  0
 20 21  1  1
 20 19  1  0
 22 21  1  0
 22 26  1  0
 23 24  1  0
 23 22  2  0
 24 25  1  0
 25 26  2  0
 27 28  1  0
 27 20  1  0
 29 27  2  0
M  END
$$$$
