VFH.pdb
     RDKit          3D

 29 30  0  0  1  0  0  0  0  0999 V2000
    9.6262  -19.1327   20.8636 C   0  0  0  0  0  0  0  0  0  0  0  0
    8.4787  -18.3515   20.2690 C   0  0  2  0  0  0  0  0  0  0  0  0
    8.1325  -18.9765   18.9416 C   0  0  0  0  0  0  0  0  0  0  0  0
    8.8553  -16.9106   20.0057 C   0  0  2  0  0  0  0  0  0  0  0  0
    9.9425  -16.8992   19.0792 N   0  0  0  0  0  0  0  0  0  0  0  0
    9.1571  -16.1738   21.2592 C   0  0  0  0  0  0  0  0  0  0  0  0
   10.2930  -16.0078   21.7180 O   0  0  0  0  0  0  0  0  0  0  0  0
    8.0653  -15.6273   21.9718 N   0  0  0  0  0  0  0  0  0  0  0  0
    8.1843  -14.9205   23.2357 C   0  0  1  0  0  0  0  0  0  0  0  0
    7.0746  -13.9795   23.4932 C   0  0  0  0  0  0  0  0  0  0  0  0
    7.1593  -13.3508   24.8309 C   0  0  0  0  0  0  0  0  0  0  0  0
    6.3311  -13.7496   25.8618 C   0  0  0  0  0  0  0  0  0  0  0  0
    6.3970  -13.1756   27.1115 C   0  0  0  0  0  0  0  0  0  0  0  0
    7.3032  -12.1871   27.3393 C   0  0  0  0  0  0  0  0  0  0  0  0
    8.1564  -11.7466   26.3501 C   0  0  0  0  0  0  0  0  0  0  0  0
    8.0698  -12.3362   25.1122 C   0  0  0  0  0  0  0  0  0  0  0  0
    8.4700  -15.9174   24.2661 C   0  0  0  0  0  0  0  0  0  0  0  0
    7.6236  -16.8534   24.4825 O   0  0  0  0  0  0  0  0  0  0  0  0
    9.6249  -15.9433   25.0659 N   0  0  0  0  0  0  0  0  0  0  0  0
    9.8476  -17.0393   26.0359 C   0  0  1  0  0  0  0  0  0  0  0  0
   11.2304  -17.5259   25.7945 C   0  0  0  0  0  0  0  0  0  0  0  0
   11.3154  -18.5148   24.6977 C   0  0  0  0  0  0  0  0  0  0  0  0
   10.3276  -19.0644   23.9437 C   0  0  0  0  0  0  0  0  0  0  0  0
   10.8987  -19.8718   23.0097 N   0  0  0  0  0  0  0  0  0  0  0  0
   12.2155  -19.8290   23.1729 C   0  0  0  0  0  0  0  0  0  0  0  0
   12.4790  -19.0072   24.1955 N   0  0  0  0  0  0  0  0  0  0  0  0
    9.7863  -16.3543   27.3725 C   0  0  0  0  0  0  0  0  0  0  0  0
    9.4700  -16.9704   28.5466 O   0  0  0  0  0  0  0  0  0  0  0  0
   10.0489  -15.1135   27.4153 O   0  0  0  0  0  0  0  0  0  0  0  0
  2  1  1  6
  2  3  1  0
  4  2  1  0
  4  5  1  6
  6  7  2  0
  6  4  1  0
  8  6  1  0
  9  8  1  0
  9 10  1  1
 10 11  1  0
 11 16  1  0
 11 12  2  0
 12 13  1  0
 13 14  2  0
 15 14  1  0
 16 15  2  0
 17  9  1  0
 18 17  2  0
 19 17  1  0
 20 21  1  6
 20 19  1  0
 22 21  1  0
 22 26  1  0
 23 24  1  0
 23 22  2  0
 24 25  1  0
 25 26  2  0
 27 28  1  0
 27 20  1  0
 29 27  2  0
M  END
$$$$
