VFH.pdb
     RDKit          3D

 29 30  0  0  1  0  0  0  0  0999 V2000
    9.3191  -19.1460   19.1660 C   0  0  0  0  0  0  0  0  0  0  0  0
    9.5446  -18.4061   20.4630 C   0  0  2  0  0  0  0  0  0  0  0  0
    8.5056  -18.8748   21.4495 C   0  0  0  0  0  0  0  0  0  0  0  0
    9.3695  -16.9131   20.2971 C   0  0  2  0  0  0  0  0  0  0  0  0
   10.2391  -16.4788   19.2504 N   0  0  0  0  0  0  0  0  0  0  0  0
    9.5872  -16.1800   21.5701 C   0  0  0  0  0  0  0  0  0  0  0  0
   10.6887  -16.0250   22.1096 O   0  0  0  0  0  0  0  0  0  0  0  0
    8.4522  -15.6239   22.2031 N   0  0  0  0  0  0  0  0  0  0  0  0
    8.4872  -14.9159   23.4716 C   0  0  1  0  0  0  0  0  0  0  0  0
    7.3390  -14.0080   23.6733 C   0  0  0  0  0  0  0  0  0  0  0  0
    7.3668  -13.3387   24.9935 C   0  0  0  0  0  0  0  0  0  0  0  0
    6.2012  -12.9345   25.6146 C   0  0  0  0  0  0  0  0  0  0  0  0
    6.2094  -12.3111   26.8422 C   0  0  0  0  0  0  0  0  0  0  0  0
    7.3987  -12.0860   27.4627 C   0  0  0  0  0  0  0  0  0  0  0  0
    8.5948  -12.4666   26.8927 C   0  0  0  0  0  0  0  0  0  0  0  0
    8.5585  -13.0867   25.6673 C   0  0  0  0  0  0  0  0  0  0  0  0
    8.7498  -15.9058   24.5148 C   0  0  0  0  0  0  0  0  0  0  0  0
    7.9055  -16.8486   24.7092 O   0  0  0  0  0  0  0  0  0  0  0  0
    9.8795  -15.9177   25.3500 N   0  0  0  0  0  0  0  0  0  0  0  0
   10.2182  -17.1194   26.1456 C   0  0  1  0  0  0  0  0  0  0  0  0
   11.5961  -17.5026   25.7435 C   0  0  0  0  0  0  0  0  0  0  0  0
   11.6431  -18.7431   24.9392 C   0  0  0  0  0  0  0  0  0  0  0  0
   10.6302  -19.5425   24.5134 C   0  0  0  0  0  0  0  0  0  0  0  0
   11.1581  -20.5314   23.7428 N   0  0  0  0  0  0  0  0  0  0  0  0
   12.4728  -20.3559   23.6850 C   0  0  0  0  0  0  0  0  0  0  0  0
   12.7775  -19.2720   24.4082 N   0  0  0  0  0  0  0  0  0  0  0  0
   10.2332  -16.6195   27.5632 C   0  0  0  0  0  0  0  0  0  0  0  0
   10.0603  -17.4038   28.6646 O   0  0  0  0  0  0  0  0  0  0  0  0
   10.4218  -15.3789   27.7523 O   0  0  0  0  0  0  0  0  0  0  0  0
  2  1  1  6
  2  3  1  0
  4  2  1  0
  4  5  1  6
  6  7  2  0
  6  4  1  0
  8  6  1  0
  9  8  1  0
  9 10  1  1
 10 11  1  0
 11 16  1  0
 11 12  2  0
 12 13  1  0
 13 14  2  0
 15 14  1  0
 16 15  2  0
 17  9  1  0
 18 17  2  0
 19 17  1  0
 20 21  1  6
 20 19  1  0
 22 21  1  0
 22 26  1  0
 23 24  1  0
 23 22  2  0
 24 25  1  0
 25 26  2  0
 27 28  1  0
 27 20  1  0
 29 27  2  0
M  END
$$$$
