VFH.pdb
     RDKit          3D

 29 30  0  0  1  0  0  0  0  0999 V2000
    7.5592  -14.4250   17.4415 C   0  0  0  0  0  0  0  0  0  0  0  0
    7.5261  -14.0350   18.9000 C   0  0  2  0  0  0  0  0  0  0  0  0
    8.2539  -12.7228   19.0444 C   0  0  0  0  0  0  0  0  0  0  0  0
    8.2400  -15.0460   19.7693 C   0  0  2  0  0  0  0  0  0  0  0  0
    7.4729  -16.2509   19.7684 N   0  0  0  0  0  0  0  0  0  0  0  0
    8.4963  -14.5256   21.1363 C   0  0  0  0  0  0  0  0  0  0  0  0
    9.3135  -13.6381   21.4063 O   0  0  0  0  0  0  0  0  0  0  0  0
    7.7506  -15.0885   22.1973 N   0  0  0  0  0  0  0  0  0  0  0  0
    7.8842  -14.6961   23.5899 C   0  0  1  0  0  0  0  0  0  0  0  0
    6.5966  -14.3734   24.2389 C   0  0  0  0  0  0  0  0  0  0  0  0
    6.7659  -13.8615   25.6177 C   0  0  0  0  0  0  0  0  0  0  0  0
    6.9196  -12.5113   25.8650 C   0  0  0  0  0  0  0  0  0  0  0  0
    7.0779  -12.0188   27.1409 C   0  0  0  0  0  0  0  0  0  0  0  0
    7.0833  -12.8853   28.1893 C   0  0  0  0  0  0  0  0  0  0  0  0
    6.9343  -14.2434   28.0055 C   0  0  0  0  0  0  0  0  0  0  0  0
    6.7781  -14.7086   26.7222 C   0  0  0  0  0  0  0  0  0  0  0  0
    8.7325  -15.6918   24.2427 C   0  0  0  0  0  0  0  0  0  0  0  0
    8.4132  -16.9295   24.1703 O   0  0  0  0  0  0  0  0  0  0  0  0
    9.9032  -15.4058   24.9651 N   0  0  0  0  0  0  0  0  0  0  0  0
   10.7194  -16.4970   25.5437 C   0  0  1  0  0  0  0  0  0  0  0  0
   12.1364  -16.1204   25.3041 C   0  0  0  0  0  0  0  0  0  0  0  0
   12.5709  -16.3500   23.9089 C   0  0  0  0  0  0  0  0  0  0  0  0
   11.8891  -16.8852   22.8625 C   0  0  0  0  0  0  0  0  0  0  0  0
   12.6812  -16.8263   21.7583 N   0  0  0  0  0  0  0  0  0  0  0  0
   13.8339  -16.2654   22.1034 C   0  0  0  0  0  0  0  0  0  0  0  0
   13.7770  -15.9720   23.4077 N   0  0  0  0  0  0  0  0  0  0  0  0
   10.4260  -16.4234   27.0161 C   0  0  0  0  0  0  0  0  0  0  0  0
   10.7146  -17.4066   27.9151 O   0  0  0  0  0  0  0  0  0  0  0  0
    9.8713  -15.3711   27.4582 O   0  0  0  0  0  0  0  0  0  0  0  0
  2  1  1  6
  2  3  1  0
  4  2  1  0
  4  5  1  1
  6  7  2  0
  6  4  1  0
  8  6  1  0
  9  8  1  0
  9 10  1  1
 10 11  1  0
 11 16  1  0
 11 12  2  0
 12 13  1  0
 13 14  2  0
 15 14  1  0
 16 15  2  0
 17  9  1  0
 18 17  2  0
 19 17  1  0
 20 21  1  1
 20 19  1  0
 22 21  1  0
 22 26  1  0
 23 24  1  0
 23 22  2  0
 24 25  1  0
 25 26  2  0
 27 28  1  0
 27 20  1  0
 29 27  2  0
M  END
$$$$
