VFH.pdb
     RDKit          3D

 29 30  0  0  1  0  0  0  0  0999 V2000
    7.4319  -13.3326   19.4629 C   0  0  0  0  0  0  0  0  0  0  0  0
    8.6812  -14.0778   19.0575 C   0  0  2  0  0  0  0  0  0  0  0  0
    8.4450  -14.6671   17.6902 C   0  0  0  0  0  0  0  0  0  0  0  0
    8.9831  -15.2235   19.9975 C   0  0  2  0  0  0  0  0  0  0  0  0
    7.9347  -16.1858   19.8739 N   0  0  0  0  0  0  0  0  0  0  0  0
    9.1817  -14.7624   21.3950 C   0  0  0  0  0  0  0  0  0  0  0  0
   10.0650  -13.9754   21.7542 O   0  0  0  0  0  0  0  0  0  0  0  0
    8.2961  -15.2618   22.3772 N   0  0  0  0  0  0  0  0  0  0  0  0
    8.2769  -14.8213   23.7618 C   0  0  1  0  0  0  0  0  0  0  0  0
    7.0156  -14.1588   24.1535 C   0  0  0  0  0  0  0  0  0  0  0  0
    7.1243  -13.4450   25.4460 C   0  0  0  0  0  0  0  0  0  0  0  0
    7.9832  -12.3745   25.6012 C   0  0  0  0  0  0  0  0  0  0  0  0
    8.0962  -11.6998   26.7961 C   0  0  0  0  0  0  0  0  0  0  0  0
    7.3410  -12.0974   27.8551 C   0  0  0  0  0  0  0  0  0  0  0  0
    6.4661  -13.1586   27.7612 C   0  0  0  0  0  0  0  0  0  0  0  0
    6.3726  -13.8146   26.5577 C   0  0  0  0  0  0  0  0  0  0  0  0
    8.7259  -15.9452   24.5818 C   0  0  0  0  0  0  0  0  0  0  0  0
    7.9904  -16.9896   24.6681 O   0  0  0  0  0  0  0  0  0  0  0  0
    9.9288  -15.9854   25.3067 N   0  0  0  0  0  0  0  0  0  0  0  0
   10.2659  -17.1571   26.1466 C   0  0  1  0  0  0  0  0  0  0  0  0
   11.7041  -17.4373   25.9014 C   0  0  0  0  0  0  0  0  0  0  0  0
   11.9771  -17.9173   24.5292 C   0  0  0  0  0  0  0  0  0  0  0  0
   11.1249  -18.1041   23.4874 C   0  0  0  0  0  0  0  0  0  0  0  0
   11.8496  -18.4921   22.4037 N   0  0  0  0  0  0  0  0  0  0  0  0
   13.1282  -18.5463   22.7567 C   0  0  0  0  0  0  0  0  0  0  0  0
   13.2164  -18.1986   24.0458 N   0  0  0  0  0  0  0  0  0  0  0  0
   10.0882  -16.6549   27.5522 C   0  0  0  0  0  0  0  0  0  0  0  0
    9.7114  -15.3868   27.8814 O   0  0  0  0  0  0  0  0  0  0  0  0
   10.3016  -17.4672   28.5034 O   0  0  0  0  0  0  0  0  0  0  0  0
  2  1  1  1
  2  3  1  0
  4  2  1  0
  4  5  1  1
  6  7  2  0
  6  4  1  0
  8  6  1  0
  9  8  1  0
  9 10  1  1
 10 11  1  0
 11 16  1  0
 11 12  2  0
 12 13  1  0
 13 14  2  0
 15 14  1  0
 16 15  2  0
 17  9  1  0
 18 17  2  0
 19 17  1  0
 20 21  1  1
 20 19  1  0
 22 21  1  0
 22 26  1  0
 23 24  1  0
 23 22  2  0
 24 25  1  0
 25 26  2  0
 27 28  1  0
 27 20  1  0
 29 27  2  0
M  END
$$$$
