VFH.pdb
     RDKit          3D

 29 30  0  0  1  0  0  0  0  0999 V2000
    9.0431  -19.3598   19.1123 C   0  0  0  0  0  0  0  0  0  0  0  0
    9.3089  -18.5014   20.3259 C   0  0  2  0  0  0  0  0  0  0  0  0
    8.4429  -19.0095   21.4503 C   0  0  0  0  0  0  0  0  0  0  0  0
    8.9355  -17.0557   20.0855 C   0  0  2  0  0  0  0  0  0  0  0  0
    9.6123  -16.6135   18.9078 N   0  0  0  0  0  0  0  0  0  0  0  0
    9.2162  -16.2020   21.2677 C   0  0  0  0  0  0  0  0  0  0  0  0
   10.3473  -15.8652   21.6359 O   0  0  0  0  0  0  0  0  0  0  0  0
    8.1088  -15.7467   22.0193 N   0  0  0  0  0  0  0  0  0  0  0  0
    8.2136  -14.9599   23.2364 C   0  0  1  0  0  0  0  0  0  0  0  0
    7.0654  -14.0564   23.4565 C   0  0  0  0  0  0  0  0  0  0  0  0
    7.1533  -13.3255   24.7409 C   0  0  0  0  0  0  0  0  0  0  0  0
    7.9912  -12.2373   24.8882 C   0  0  0  0  0  0  0  0  0  0  0  0
    8.0847  -11.5465   26.0755 C   0  0  0  0  0  0  0  0  0  0  0  0
    7.3310  -11.9458   27.1351 C   0  0  0  0  0  0  0  0  0  0  0  0
    6.4766  -13.0243   27.0490 C   0  0  0  0  0  0  0  0  0  0  0  0
    6.4023  -13.6961   25.8528 C   0  0  0  0  0  0  0  0  0  0  0  0
    8.5602  -15.8787   24.3195 C   0  0  0  0  0  0  0  0  0  0  0  0
    7.7203  -16.7801   24.6677 O   0  0  0  0  0  0  0  0  0  0  0  0
    9.7688  -15.8626   25.0357 N   0  0  0  0  0  0  0  0  0  0  0  0
   10.0747  -16.9205   26.0252 C   0  0  1  0  0  0  0  0  0  0  0  0
   11.5464  -17.1166   25.9741 C   0  0  0  0  0  0  0  0  0  0  0  0
   11.9926  -17.8596   24.7753 C   0  0  0  0  0  0  0  0  0  0  0  0
   11.2602  -18.4948   23.8233 C   0  0  0  0  0  0  0  0  0  0  0  0
   12.1105  -18.9756   22.8766 N   0  0  0  0  0  0  0  0  0  0  0  0
   13.3488  -18.6482   23.2259 C   0  0  0  0  0  0  0  0  0  0  0  0
   13.2881  -17.9698   24.3776 N   0  0  0  0  0  0  0  0  0  0  0  0
    9.6997  -16.3002   27.3420 C   0  0  0  0  0  0  0  0  0  0  0  0
    9.4529  -14.9732   27.5326 O   0  0  0  0  0  0  0  0  0  0  0  0
    9.6031  -17.0639   28.3510 O   0  0  0  0  0  0  0  0  0  0  0  0
  2  1  1  6
  2  3  1  0
  4  2  1  0
  4  5  1  6
  6  7  2  0
  6  4  1  0
  8  6  1  0
  9  8  1  0
  9 10  1  1
 10 11  1  0
 11 16  1  0
 11 12  2  0
 12 13  1  0
 13 14  2  0
 15 14  1  0
 16 15  2  0
 17  9  1  0
 18 17  2  0
 19 17  1  0
 20 21  1  1
 20 19  1  0
 22 21  1  0
 22 26  1  0
 23 24  1  0
 23 22  2  0
 24 25  1  0
 25 26  2  0
 27 28  1  0
 27 20  1  0
 29 27  2  0
M  END
$$$$
