VFH.pdb
     RDKit          3D

 29 30  0  0  1  0  0  0  0  0999 V2000
    7.2930  -14.5751   18.0824 C   0  0  0  0  0  0  0  0  0  0  0  0
    7.9327  -14.8969   19.4119 C   0  0  2  0  0  0  0  0  0  0  0  0
    7.3310  -16.1842   19.9152 C   0  0  0  0  0  0  0  0  0  0  0  0
    7.6487  -13.8305   20.4461 C   0  0  2  0  0  0  0  0  0  0  0  0
    8.1000  -12.5787   19.9267 N   0  0  0  0  0  0  0  0  0  0  0  0
    8.2468  -14.1578   21.7652 C   0  0  0  0  0  0  0  0  0  0  0  0
    9.4520  -14.0744   22.0281 O   0  0  0  0  0  0  0  0  0  0  0  0
    7.3719  -14.5943   22.7862 N   0  0  0  0  0  0  0  0  0  0  0  0
    7.7972  -14.9660   24.1250 C   0  0  1  0  0  0  0  0  0  0  0  0
    6.7490  -14.7826   25.1501 C   0  0  0  0  0  0  0  0  0  0  0  0
    6.8015  -13.4468   25.7862 C   0  0  0  0  0  0  0  0  0  0  0  0
    7.9882  -12.9319   26.2707 C   0  0  0  0  0  0  0  0  0  0  0  0
    8.0543  -11.6916   26.8646 C   0  0  0  0  0  0  0  0  0  0  0  0
    6.9195  -10.9504   26.9783 C   0  0  0  0  0  0  0  0  0  0  0  0
    5.7059  -11.4106   26.5138 C   0  0  0  0  0  0  0  0  0  0  0  0
    5.6676  -12.6515   25.9254 C   0  0  0  0  0  0  0  0  0  0  0  0
    8.4202  -16.2853   24.0325 C   0  0  0  0  0  0  0  0  0  0  0  0
    8.0333  -17.0972   23.1213 O   0  0  0  0  0  0  0  0  0  0  0  0
    9.4369  -16.7588   24.8789 N   0  0  0  0  0  0  0  0  0  0  0  0
   10.4282  -17.7442   24.3909 C   0  0  1  0  0  0  0  0  0  0  0  0
   11.1550  -17.0786   23.2792 C   0  0  0  0  0  0  0  0  0  0  0  0
   12.2576  -17.8990   22.7322 C   0  0  0  0  0  0  0  0  0  0  0  0
   12.6486  -19.1589   23.0579 C   0  0  0  0  0  0  0  0  0  0  0  0
   13.6689  -19.5188   22.2335 N   0  0  0  0  0  0  0  0  0  0  0  0
   13.9120  -18.5081   21.4077 C   0  0  0  0  0  0  0  0  0  0  0  0
   13.0599  -17.5194   21.7022 N   0  0  0  0  0  0  0  0  0  0  0  0
   11.3589  -17.9254   25.5574 C   0  0  0  0  0  0  0  0  0  0  0  0
   11.2609  -17.2545   26.7400 O   0  0  0  0  0  0  0  0  0  0  0  0
   12.3041  -18.7635   25.4369 O   0  0  0  0  0  0  0  0  0  0  0  0
  2  1  1  6
  2  3  1  0
  4  2  1  0
  4  5  1  6
  6  7  2  0
  6  4  1  0
  8  6  1  0
  9  8  1  0
  9 10  1  1
 10 11  1  0
 11 16  1  0
 11 12  2  0
 12 13  1  0
 13 14  2  0
 15 14  1  0
 16 15  2  0
 17  9  1  0
 18 17  2  0
 19 17  1  0
 20 21  1  6
 20 19  1  0
 22 21  1  0
 22 26  1  0
 23 24  1  0
 23 22  2  0
 24 25  1  0
 25 26  2  0
 27 28  1  0
 27 20  1  0
 29 27  2  0
M  END
$$$$
