VFH.pdb
     RDKit          3D

 29 30  0  0  1  0  0  0  0  0999 V2000
    8.8170  -15.8371   19.2852 C   0  0  0  0  0  0  0  0  0  0  0  0
    7.4736  -15.2572   19.6588 C   0  0  2  0  0  0  0  0  0  0  0  0
    6.7481  -14.9119   18.3833 C   0  0  0  0  0  0  0  0  0  0  0  0
    7.6140  -13.9814   20.4587 C   0  0  2  0  0  0  0  0  0  0  0  0
    8.2763  -13.0161   19.6401 N   0  0  0  0  0  0  0  0  0  0  0  0
    8.3012  -14.2076   21.7556 C   0  0  0  0  0  0  0  0  0  0  0  0
    9.4964  -13.9711   21.9657 O   0  0  0  0  0  0  0  0  0  0  0  0
    7.5294  -14.7295   22.8187 N   0  0  0  0  0  0  0  0  0  0  0  0
    8.0301  -14.9422   24.1661 C   0  0  1  0  0  0  0  0  0  0  0  0
    6.9838  -14.8553   25.2058 C   0  0  0  0  0  0  0  0  0  0  0  0
    6.8942  -13.5080   25.8129 C   0  0  0  0  0  0  0  0  0  0  0  0
    8.0213  -12.7317   25.9996 C   0  0  0  0  0  0  0  0  0  0  0  0
    7.9554  -11.4769   26.5623 C   0  0  0  0  0  0  0  0  0  0  0  0
    6.7464  -10.9859   26.9461 C   0  0  0  0  0  0  0  0  0  0  0  0
    5.5866  -11.7135   26.7854 C   0  0  0  0  0  0  0  0  0  0  0  0
    5.6803  -12.9627   26.2213 C   0  0  0  0  0  0  0  0  0  0  0  0
    8.8491  -16.1529   24.1395 C   0  0  0  0  0  0  0  0  0  0  0  0
    8.4442  -17.1672   23.4712 O   0  0  0  0  0  0  0  0  0  0  0  0
   10.0786  -16.3102   24.8010 N   0  0  0  0  0  0  0  0  0  0  0  0
   10.8254  -17.5856   24.7141 C   0  0  1  0  0  0  0  0  0  0  0  0
   12.2235  -17.2195   24.3700 C   0  0  0  0  0  0  0  0  0  0  0  0
   13.1608  -18.3607   24.4547 C   0  0  0  0  0  0  0  0  0  0  0  0
   12.9857  -19.5911   25.0041 C   0  0  0  0  0  0  0  0  0  0  0  0
   14.1070  -20.3267   24.7767 N   0  0  0  0  0  0  0  0  0  0  0  0
   14.9662  -19.5755   24.0984 C   0  0  0  0  0  0  0  0  0  0  0  0
   14.4009  -18.3795   23.8975 N   0  0  0  0  0  0  0  0  0  0  0  0
   10.7816  -18.1240   26.1168 C   0  0  0  0  0  0  0  0  0  0  0  0
   11.2869  -19.3303   26.5013 O   0  0  0  0  0  0  0  0  0  0  0  0
   10.2375  -17.4061   27.0107 O   0  0  0  0  0  0  0  0  0  0  0  0
  2  1  1  6
  2  3  1  0
  4  2  1  0
  4  5  1  6
  6  7  2  0
  6  4  1  0
  8  6  1  0
  9  8  1  0
  9 10  1  1
 10 11  1  0
 11 16  1  0
 11 12  2  0
 12 13  1  0
 13 14  2  0
 15 14  1  0
 16 15  2  0
 17  9  1  0
 18 17  2  0
 19 17  1  0
 20 21  1  1
 20 19  1  0
 22 21  1  0
 22 26  1  0
 23 24  1  0
 23 22  2  0
 24 25  1  0
 25 26  2  0
 27 28  1  0
 27 20  1  0
 29 27  2  0
M  END
$$$$
