VFH.pdb
     RDKit          3D

 29 30  0  0  1  0  0  0  0  0999 V2000
    9.9646  -18.8955   20.6217 C   0  0  0  0  0  0  0  0  0  0  0  0
    8.8088  -18.0867   20.0829 C   0  0  2  0  0  0  0  0  0  0  0  0
    8.4278  -18.6610   18.7422 C   0  0  0  0  0  0  0  0  0  0  0  0
    9.1886  -16.6393   19.8633 C   0  0  2  0  0  0  0  0  0  0  0  0
   10.3219  -16.6058   18.9944 N   0  0  0  0  0  0  0  0  0  0  0  0
    9.4206  -15.9220   21.1427 C   0  0  0  0  0  0  0  0  0  0  0  0
   10.5355  -15.6943   21.6260 O   0  0  0  0  0  0  0  0  0  0  0  0
    8.2836  -15.4715   21.8516 N   0  0  0  0  0  0  0  0  0  0  0  0
    8.3339  -14.8125   23.1456 C   0  0  1  0  0  0  0  0  0  0  0  0
    7.1729  -13.9373   23.4086 C   0  0  0  0  0  0  0  0  0  0  0  0
    7.2186  -13.3182   24.7526 C   0  0  0  0  0  0  0  0  0  0  0  0
    6.3274  -13.6885   25.7408 C   0  0  0  0  0  0  0  0  0  0  0  0
    6.3565  -13.1230   26.9958 C   0  0  0  0  0  0  0  0  0  0  0  0
    7.2890  -12.1721   27.2722 C   0  0  0  0  0  0  0  0  0  0  0  0
    8.2047  -11.7614   26.3272 C   0  0  0  0  0  0  0  0  0  0  0  0
    8.1539  -12.3417   25.0829 C   0  0  0  0  0  0  0  0  0  0  0  0
    8.6405  -15.8363   24.1432 C   0  0  0  0  0  0  0  0  0  0  0  0
    7.8005  -16.7804   24.3490 O   0  0  0  0  0  0  0  0  0  0  0  0
    9.8096  -15.8804   24.9213 N   0  0  0  0  0  0  0  0  0  0  0  0
   10.0209  -16.9652   25.9064 C   0  0  1  0  0  0  0  0  0  0  0  0
   11.4411  -17.3775   25.7641 C   0  0  0  0  0  0  0  0  0  0  0  0
   11.6659  -18.3085   24.6368 C   0  0  0  0  0  0  0  0  0  0  0  0
   10.7779  -18.8360   23.7540 C   0  0  0  0  0  0  0  0  0  0  0  0
   11.4642  -19.5857   22.8501 N   0  0  0  0  0  0  0  0  0  0  0  0
   12.7545  -19.5289   23.1577 C   0  0  0  0  0  0  0  0  0  0  0  0
   12.8877  -18.7553   24.2413 N   0  0  0  0  0  0  0  0  0  0  0  0
    9.8290  -16.2873   27.2342 C   0  0  0  0  0  0  0  0  0  0  0  0
   10.1615  -14.9922   27.4996 O   0  0  0  0  0  0  0  0  0  0  0  0
    9.3195  -16.9656   28.1780 O   0  0  0  0  0  0  0  0  0  0  0  0
  2  1  1  6
  2  3  1  0
  4  2  1  0
  4  5  1  6
  6  7  2  0
  6  4  1  0
  8  6  1  0
  9  8  1  0
  9 10  1  1
 10 11  1  0
 11 16  1  0
 11 12  2  0
 12 13  1  0
 13 14  2  0
 15 14  1  0
 16 15  2  0
 17  9  1  0
 18 17  2  0
 19 17  1  0
 20 21  1  1
 20 19  1  0
 22 21  1  0
 22 26  1  0
 23 24  1  0
 23 22  2  0
 24 25  1  0
 25 26  2  0
 27 28  1  0
 27 20  1  0
 29 27  2  0
M  END
$$$$
