VFH.pdb
     RDKit          3D

 29 30  0  0  1  0  0  0  0  0999 V2000
   10.0938  -18.9473   20.2984 C   0  0  0  0  0  0  0  0  0  0  0  0
    8.7661  -18.2571   20.0961 C   0  0  2  0  0  0  0  0  0  0  0  0
    8.1305  -18.8315   18.8556 C   0  0  0  0  0  0  0  0  0  0  0  0
    8.9327  -16.7707   19.8717 C   0  0  2  0  0  0  0  0  0  0  0  0
    9.9539  -16.5827   18.8907 N   0  0  0  0  0  0  0  0  0  0  0  0
    9.2058  -16.0418   21.1364 C   0  0  0  0  0  0  0  0  0  0  0  0
   10.3344  -15.7438   21.5436 O   0  0  0  0  0  0  0  0  0  0  0  0
    8.0936  -15.6659   21.9239 N   0  0  0  0  0  0  0  0  0  0  0  0
    8.1866  -14.9271   23.1717 C   0  0  1  0  0  0  0  0  0  0  0  0
    6.9887  -14.1144   23.4678 C   0  0  0  0  0  0  0  0  0  0  0  0
    7.0686  -13.4399   24.7833 C   0  0  0  0  0  0  0  0  0  0  0  0
    6.3093  -13.8697   25.8541 C   0  0  0  0  0  0  0  0  0  0  0  0
    6.3718  -13.2539   27.0840 C   0  0  0  0  0  0  0  0  0  0  0  0
    7.2047  -12.1916   27.2511 C   0  0  0  0  0  0  0  0  0  0  0  0
    7.9870  -11.7171   26.2200 C   0  0  0  0  0  0  0  0  0  0  0  0
    7.9056  -12.3496   25.0031 C   0  0  0  0  0  0  0  0  0  0  0  0
    8.6302  -15.8661   24.2008 C   0  0  0  0  0  0  0  0  0  0  0  0
    7.8881  -16.8666   24.4962 O   0  0  0  0  0  0  0  0  0  0  0  0
    9.8345  -15.7678   24.9178 N   0  0  0  0  0  0  0  0  0  0  0  0
   10.2149  -16.8068   25.9014 C   0  0  1  0  0  0  0  0  0  0  0  0
   11.7003  -16.8332   25.9163 C   0  0  0  0  0  0  0  0  0  0  0  0
   12.2815  -17.5058   24.7340 C   0  0  0  0  0  0  0  0  0  0  0  0
   11.6670  -18.1825   23.7287 C   0  0  0  0  0  0  0  0  0  0  0  0
   12.6115  -18.5633   22.8269 N   0  0  0  0  0  0  0  0  0  0  0  0
   13.7923  -18.1341   23.2558 C   0  0  0  0  0  0  0  0  0  0  0  0
   13.6027  -17.4901   24.4134 N   0  0  0  0  0  0  0  0  0  0  0  0
    9.7126  -16.2639   27.2101 C   0  0  0  0  0  0  0  0  0  0  0  0
    9.3568  -14.9659   27.4265 O   0  0  0  0  0  0  0  0  0  0  0  0
    9.6094  -17.0691   28.1855 O   0  0  0  0  0  0  0  0  0  0  0  0
  2  1  1  6
  2  3  1  0
  4  2  1  0
  4  5  1  6
  6  7  2  0
  6  4  1  0
  8  6  1  0
  9  8  1  0
  9 10  1  1
 10 11  1  0
 11 16  1  0
 11 12  2  0
 12 13  1  0
 13 14  2  0
 15 14  1  0
 16 15  2  0
 17  9  1  0
 18 17  2  0
 19 17  1  0
 20 21  1  1
 20 19  1  0
 22 21  1  0
 22 26  1  0
 23 24  1  0
 23 22  2  0
 24 25  1  0
 25 26  2  0
 27 28  1  0
 27 20  1  0
 29 27  2  0
M  END
$$$$
