VFH.pdb
     RDKit          3D

 29 30  0  0  1  0  0  0  0  0999 V2000
    9.2952  -18.9659   18.9117 C   0  0  0  0  0  0  0  0  0  0  0  0
    9.5406  -18.1487   20.1576 C   0  0  2  0  0  0  0  0  0  0  0  0
    8.8163  -18.8165   21.2987 C   0  0  0  0  0  0  0  0  0  0  0  0
    8.9873  -16.7470   20.0295 C   0  0  2  0  0  0  0  0  0  0  0  0
    9.5330  -16.1620   18.8461 N   0  0  0  0  0  0  0  0  0  0  0  0
    9.2403  -15.9330   21.2455 C   0  0  0  0  0  0  0  0  0  0  0  0
   10.3522  -15.5185   21.5922 O   0  0  0  0  0  0  0  0  0  0  0  0
    8.1283  -15.6138   22.0579 N   0  0  0  0  0  0  0  0  0  0  0  0
    8.2113  -14.8708   23.3038 C   0  0  1  0  0  0  0  0  0  0  0  0
    6.9910  -14.0970   23.6127 C   0  0  0  0  0  0  0  0  0  0  0  0
    7.0541  -13.4380   24.9369 C   0  0  0  0  0  0  0  0  0  0  0  0
    7.7899  -12.2846   25.1270 C   0  0  0  0  0  0  0  0  0  0  0  0
    7.8589  -11.6592   26.3516 C   0  0  0  0  0  0  0  0  0  0  0  0
    7.1837  -12.1910   27.4058 C   0  0  0  0  0  0  0  0  0  0  0  0
    6.4327  -13.3399   27.2778 C   0  0  0  0  0  0  0  0  0  0  0  0
    6.3807  -13.9441   26.0450 C   0  0  0  0  0  0  0  0  0  0  0  0
    8.6968  -15.7935   24.3287 C   0  0  0  0  0  0  0  0  0  0  0  0
    8.0329  -16.8601   24.5750 O   0  0  0  0  0  0  0  0  0  0  0  0
    9.8621  -15.6111   25.0920 N   0  0  0  0  0  0  0  0  0  0  0  0
   10.3224  -16.6597   26.0303 C   0  0  1  0  0  0  0  0  0  0  0  0
   11.7949  -16.7492   25.8551 C   0  0  0  0  0  0  0  0  0  0  0  0
   12.1919  -17.5218   24.6578 C   0  0  0  0  0  0  0  0  0  0  0  0
   11.5176  -18.4908   23.9850 C   0  0  0  0  0  0  0  0  0  0  0  0
   12.2574  -18.8576   22.9040 N   0  0  0  0  0  0  0  0  0  0  0  0
   13.3705  -18.1342   22.8976 C   0  0  0  0  0  0  0  0  0  0  0  0
   13.3403  -17.3194   23.9586 N   0  0  0  0  0  0  0  0  0  0  0  0
   10.0154  -16.0884   27.3864 C   0  0  0  0  0  0  0  0  0  0  0  0
   10.0776  -16.7873   28.5552 O   0  0  0  0  0  0  0  0  0  0  0  0
    9.6750  -14.8677   27.4522 O   0  0  0  0  0  0  0  0  0  0  0  0
  2  1  1  6
  2  3  1  0
  4  2  1  0
  4  5  1  6
  6  7  2  0
  6  4  1  0
  8  6  1  0
  9  8  1  0
  9 10  1  1
 10 11  1  0
 11 16  1  0
 11 12  2  0
 12 13  1  0
 13 14  2  0
 15 14  1  0
 16 15  2  0
 17  9  1  0
 18 17  2  0
 19 17  1  0
 20 21  1  1
 20 19  1  0
 22 21  1  0
 22 26  1  0
 23 24  1  0
 23 22  2  0
 24 25  1  0
 25 26  2  0
 27 28  1  0
 27 20  1  0
 29 27  2  0
M  END
$$$$
