VFH.pdb
     RDKit          3D

 29 30  0  0  1  0  0  0  0  0999 V2000
    9.7171  -18.9936   21.0132 C   0  0  0  0  0  0  0  0  0  0  0  0
    8.7414  -18.1200   20.2615 C   0  0  2  0  0  0  0  0  0  0  0  0
    8.5763  -18.6956   18.8780 C   0  0  0  0  0  0  0  0  0  0  0  0
    9.2564  -16.7067   20.1046 C   0  0  2  0  0  0  0  0  0  0  0  0
   10.4688  -16.7583   19.3510 N   0  0  0  0  0  0  0  0  0  0  0  0
    9.4183  -16.0225   21.4126 C   0  0  0  0  0  0  0  0  0  0  0  0
   10.4788  -15.9623   22.0452 O   0  0  0  0  0  0  0  0  0  0  0  0
    8.2769  -15.3992   21.9667 N   0  0  0  0  0  0  0  0  0  0  0  0
    8.2542  -14.7317   23.2572 C   0  0  1  0  0  0  0  0  0  0  0  0
    7.1453  -13.7662   23.4035 C   0  0  0  0  0  0  0  0  0  0  0  0
    7.1050  -13.1439   24.7462 C   0  0  0  0  0  0  0  0  0  0  0  0
    8.0058  -12.1603   25.1055 C   0  0  0  0  0  0  0  0  0  0  0  0
    7.9819  -11.5712   26.3497 C   0  0  0  0  0  0  0  0  0  0  0  0
    7.0449  -11.9680   27.2523 C   0  0  0  0  0  0  0  0  0  0  0  0
    6.1195  -12.9446   26.9518 C   0  0  0  0  0  0  0  0  0  0  0  0
    6.1653  -13.5162   25.7033 C   0  0  0  0  0  0  0  0  0  0  0  0
    8.3825  -15.7650   24.2834 C   0  0  0  0  0  0  0  0  0  0  0  0
    7.6009  -16.7787   24.2514 O   0  0  0  0  0  0  0  0  0  0  0  0
    9.3144  -15.7470   25.3347 N   0  0  0  0  0  0  0  0  0  0  0  0
    9.8179  -17.0104   25.9196 C   0  0  1  0  0  0  0  0  0  0  0  0
   11.1056  -17.2945   25.2352 C   0  0  0  0  0  0  0  0  0  0  0  0
   11.8515  -18.4178   25.8434 C   0  0  0  0  0  0  0  0  0  0  0  0
   11.5075  -19.2336   26.8741 C   0  0  0  0  0  0  0  0  0  0  0  0
   12.4854  -20.1663   27.0289 N   0  0  0  0  0  0  0  0  0  0  0  0
   13.4218  -19.9419   26.1148 C   0  0  0  0  0  0  0  0  0  0  0  0
   13.0461  -18.8822   25.3894 N   0  0  0  0  0  0  0  0  0  0  0  0
   10.0838  -16.6601   27.3570 C   0  0  0  0  0  0  0  0  0  0  0  0
    9.8174  -15.4488   27.9227 O   0  0  0  0  0  0  0  0  0  0  0  0
   10.5910  -17.5543   28.1010 O   0  0  0  0  0  0  0  0  0  0  0  0
  2  1  1  1
  2  3  1  0
  4  2  1  0
  4  5  1  1
  6  7  2  0
  6  4  1  0
  8  6  1  0
  9  8  1  0
  9 10  1  1
 10 11  1  0
 11 16  1  0
 11 12  2  0
 12 13  1  0
 13 14  2  0
 15 14  1  0
 16 15  2  0
 17  9  1  0
 18 17  2  0
 19 17  1  0
 20 21  1  6
 20 19  1  0
 22 21  1  0
 22 26  1  0
 23 24  1  0
 23 22  2  0
 24 25  1  0
 25 26  2  0
 27 28  1  0
 27 20  1  0
 29 27  2  0
M  END
$$$$
