VNC.pdb
     RDKit          3D

 22 21  0  0  1  0  0  0  0  0999 V2000
   13.5244   -8.8797  -16.1636 C   0  0  0  0  0  0  0  0  0  0  0  0
   14.9575   -8.8321  -15.6886 C   0  0  2  0  0  0  0  0  0  0  0  0
   15.5525   -7.5442  -16.2403 C   0  0  0  0  0  0  0  0  0  0  0  0
   15.7821   -9.9659  -16.2405 C   0  0  2  0  0  0  0  0  0  0  0  0
   15.2514  -11.1960  -15.6544 N   0  0  0  0  0  0  0  0  0  0  0  0
   17.2098   -9.8741  -15.8465 C   0  0  0  0  0  0  0  0  0  0  0  0
   17.6135  -10.0918  -14.6676 O   0  0  0  0  0  0  0  0  0  0  0  0
   22.2454   -9.4664  -15.8129 N   0  0  0  0  0  0  0  0  0  0  0  0
   21.9335   -9.8489  -17.1476 C   0  0  0  0  0  0  0  0  0  0  0  0
   22.8779  -10.1626  -17.9084 O   0  0  0  0  0  0  0  0  0  0  0  0
   20.5081   -9.8468  -17.5372 C   0  0  0  0  0  0  0  0  0  0  0  0
   19.6072   -9.3507  -16.4367 C   0  0  2  0  0  0  0  0  0  0  0  0
   18.2113   -9.5287  -16.8005 N   0  0  0  0  0  0  0  0  0  0  0  0
   19.8884   -7.9116  -16.1145 C   0  0  0  0  0  0  0  0  0  0  0  0
   19.4218   -6.9672  -16.8064 O   0  0  0  0  0  0  0  0  0  0  0  0
   20.6994   -7.5527  -15.0066 N   0  0  0  0  0  0  0  0  0  0  0  0
   20.9687   -6.2133  -14.5966 C   0  0  1  0  0  0  0  0  0  0  0  0
   21.9122   -6.2905  -13.3940 C   0  0  0  0  0  0  0  0  0  0  0  0
   22.2887   -4.6452  -12.7527 S   0  0  0  0  0  0  0  0  0  0  0  0
   21.6858   -5.4942  -15.6611 C   0  0  0  0  0  0  0  0  0  0  0  0
   21.4132   -4.3023  -15.9056 O   0  0  0  0  0  0  0  0  0  0  0  0
   22.6594   -6.1321  -16.3912 O   0  0  0  0  0  0  0  0  0  0  0  0
  2  1  1  6
  2  4  1  0
  2  3  1  0
  4  6  1  0
  4  5  1  1
  6 13  1  0
  6  7  2  0
  9  8  1  0
  9 11  1  0
 10  9  2  0
 12 11  1  6
 12 14  1  0
 13 12  1  0
 14 15  2  0
 16 17  1  0
 16 14  1  0
 17 20  1  0
 17 18  1  1
 18 19  1  0
 20 22  1  0
 21 20  2  0
M  END
$$$$
