VNC.pdb
     RDKit          3D

 22 21  0  0  1  0  0  0  0  0999 V2000
   13.5154  -13.2341  -14.9558 C   0  0  0  0  0  0  0  0  0  0  0  0
   14.3003  -12.2679  -14.1002 C   0  0  2  0  0  0  0  0  0  0  0  0
   13.8751  -10.8699  -14.5268 C   0  0  0  0  0  0  0  0  0  0  0  0
   15.7846  -12.3654  -14.3400 C   0  0  2  0  0  0  0  0  0  0  0  0
   16.1994  -13.6886  -13.8761 N   0  0  0  0  0  0  0  0  0  0  0  0
   16.5532  -11.3665  -13.5569 C   0  0  0  0  0  0  0  0  0  0  0  0
   16.6977  -11.4392  -12.3023 O   0  0  0  0  0  0  0  0  0  0  0  0
   20.6074   -8.0792  -12.5542 N   0  0  0  0  0  0  0  0  0  0  0  0
   19.8175   -7.6416  -13.6540 C   0  0  0  0  0  0  0  0  0  0  0  0
   19.8560   -6.4284  -13.9636 O   0  0  0  0  0  0  0  0  0  0  0  0
   19.0059   -8.6600  -14.3525 C   0  0  0  0  0  0  0  0  0  0  0  0
   17.9478   -9.2649  -13.4673 C   0  0  2  0  0  0  0  0  0  0  0  0
   17.1763  -10.2562  -14.1984 N   0  0  0  0  0  0  0  0  0  0  0  0
   17.0453   -8.2067  -12.9021 C   0  0  0  0  0  0  0  0  0  0  0  0
   16.1425   -7.6594  -13.5904 O   0  0  0  0  0  0  0  0  0  0  0  0
   17.1735   -7.7753  -11.5562 N   0  0  0  0  0  0  0  0  0  0  0  0
   16.4352   -6.7036  -10.9724 C   0  0  1  0  0  0  0  0  0  0  0  0
   16.6743   -6.7610   -9.4618 C   0  0  0  0  0  0  0  0  0  0  0  0
   15.5890   -7.9700   -8.6743 S   0  0  0  0  0  0  0  0  0  0  0  0
   16.9617   -5.4129  -11.4430 C   0  0  0  0  0  0  0  0  0  0  0  0
   17.9713   -5.3770  -12.1738 O   0  0  0  0  0  0  0  0  0  0  0  0
   16.3439   -4.2407  -11.0797 O   0  0  0  0  0  0  0  0  0  0  0  0
  2  1  1  6
  2  4  1  0
  2  3  1  0
  4  6  1  0
  4  5  1  1
  6 13  1  0
  6  7  2  0
  9  8  1  0
  9 11  1  0
 10  9  2  0
 12 11  1  6
 12 14  1  0
 13 12  1  0
 14 15  2  0
 16 17  1  0
 16 14  1  0
 17 20  1  0
 17 18  1  1
 18 19  1  0
 20 22  1  0
 21 20  2  0
M  END
$$$$
