VNC.pdb
     RDKit          3D

 22 21  0  0  1  0  0  0  0  0999 V2000
   18.0761  -12.7401  -18.4291 C   0  0  0  0  0  0  0  0  0  0  0  0
   19.5819  -12.6928  -18.3207 C   0  0  2  0  0  0  0  0  0  0  0  0
   20.0554  -14.1380  -18.2536 C   0  0  0  0  0  0  0  0  0  0  0  0
   20.0445  -12.0222  -17.0533 C   0  0  2  0  0  0  0  0  0  0  0  0
   19.4891  -12.7939  -15.9424 N   0  0  0  0  0  0  0  0  0  0  0  0
   19.5300  -10.6364  -16.9236 C   0  0  0  0  0  0  0  0  0  0  0  0
   19.9254   -9.6843  -17.6567 O   0  0  0  0  0  0  0  0  0  0  0  0
   16.7808   -6.5582  -15.6614 N   0  0  0  0  0  0  0  0  0  0  0  0
   16.0324   -7.6450  -15.1288 C   0  0  0  0  0  0  0  0  0  0  0  0
   14.9023   -7.4037  -14.6454 O   0  0  0  0  0  0  0  0  0  0  0  0
   16.6505   -8.9860  -15.1873 C   0  0  0  0  0  0  0  0  0  0  0  0
   18.0402   -8.9589  -15.7678 C   0  0  2  0  0  0  0  0  0  0  0  0
   18.5456  -10.3100  -15.9455 N   0  0  0  0  0  0  0  0  0  0  0  0
   18.9713   -8.1570  -14.9053 C   0  0  0  0  0  0  0  0  0  0  0  0
   19.6691   -8.6878  -14.0000 O   0  0  0  0  0  0  0  0  0  0  0  0
   19.1048   -6.7545  -15.0762 N   0  0  0  0  0  0  0  0  0  0  0  0
   20.0413   -5.9362  -14.3778 C   0  0  1  0  0  0  0  0  0  0  0  0
   21.4407   -6.4024  -14.7863 C   0  0  0  0  0  0  0  0  0  0  0  0
   22.7066   -5.2508  -14.2108 S   0  0  0  0  0  0  0  0  0  0  0  0
   19.9102   -4.5365  -14.8113 C   0  0  0  0  0  0  0  0  0  0  0  0
   19.5914   -4.2721  -15.9874 O   0  0  0  0  0  0  0  0  0  0  0  0
   20.1383   -3.5135  -13.9228 O   0  0  0  0  0  0  0  0  0  0  0  0
  2  1  1  1
  2  4  1  0
  2  3  1  0
  4  6  1  0
  4  5  1  1
  6 13  1  0
  6  7  2  0
  9  8  1  0
  9 11  1  0
 10  9  2  0
 12 11  1  1
 12 14  1  0
 13 12  1  0
 14 15  2  0
 16 17  1  0
 16 14  1  0
 17 20  1  0
 17 18  1  6
 18 19  1  0
 20 22  1  0
 21 20  2  0
M  END
$$$$
