VNC.pdb
     RDKit          3D

 22 21  0  0  1  0  0  0  0  0999 V2000
   27.4817  -17.7203  -16.9514 C   0  0  0  0  0  0  0  0  0  0  0  0
   27.0195  -17.9891  -15.5387 C   0  0  2  0  0  0  0  0  0  0  0  0
   28.2387  -18.4820  -14.7721 C   0  0  0  0  0  0  0  0  0  0  0  0
   25.9886  -19.0861  -15.4721 C   0  0  2  0  0  0  0  0  0  0  0  0
   24.9244  -18.7202  -16.4057 N   0  0  0  0  0  0  0  0  0  0  0  0
   25.3704  -19.2035  -14.1282 C   0  0  0  0  0  0  0  0  0  0  0  0
   24.8947  -18.2134  -13.5009 O   0  0  0  0  0  0  0  0  0  0  0  0
   22.4021  -20.0865  -13.4214 N   0  0  0  0  0  0  0  0  0  0  0  0
   22.4588  -21.3631  -12.7952 C   0  0  0  0  0  0  0  0  0  0  0  0
   21.4502  -22.1023  -12.8680 O   0  0  0  0  0  0  0  0  0  0  0  0
   23.7133  -21.7219  -12.1015 C   0  0  0  0  0  0  0  0  0  0  0  0
   24.7315  -20.6125  -12.1342 C   0  0  2  0  0  0  0  0  0  0  0  0
   25.2836  -20.4654  -13.4706 N   0  0  0  0  0  0  0  0  0  0  0  0
   25.8261  -20.8531  -11.1353 C   0  0  0  0  0  0  0  0  0  0  0  0
   26.5673  -21.8711  -11.1868 O   0  0  0  0  0  0  0  0  0  0  0  0
   26.0731  -19.9348  -10.0819 N   0  0  0  0  0  0  0  0  0  0  0  0
   26.4900  -20.2989   -8.7673 C   0  0  1  0  0  0  0  0  0  0  0  0
   26.8219  -19.0029   -8.0239 C   0  0  0  0  0  0  0  0  0  0  0  0
   27.3647  -19.3395   -6.3351 S   0  0  0  0  0  0  0  0  0  0  0  0
   25.3791  -20.9375   -8.0444 C   0  0  0  0  0  0  0  0  0  0  0  0
   25.6126  -21.7308   -7.1111 O   0  0  0  0  0  0  0  0  0  0  0  0
   24.0789  -20.6633   -8.3938 O   0  0  0  0  0  0  0  0  0  0  0  0
  2  1  1  6
  2  4  1  0
  2  3  1  0
  4  6  1  0
  4  5  1  6
  6 13  1  0
  6  7  2  0
  9  8  1  0
  9 11  1  0
 10  9  2  0
 12 11  1  6
 12 14  1  0
 13 12  1  0
 14 15  2  0
 16 17  1  0
 16 14  1  0
 17 20  1  0
 17 18  1  1
 18 19  1  0
 20 22  1  0
 21 20  2  0
M  END
$$$$
