VNC.pdb
     RDKit          3D

 22 21  0  0  1  0  0  0  0  0999 V2000
   13.3525  -13.5362  -11.6879 C   0  0  0  0  0  0  0  0  0  0  0  0
   14.0005  -12.3424  -11.0272 C   0  0  2  0  0  0  0  0  0  0  0  0
   13.0825  -11.9300   -9.8851 C   0  0  0  0  0  0  0  0  0  0  0  0
   14.1024  -11.1594  -11.9548 C   0  0  2  0  0  0  0  0  0  0  0  0
   14.6759  -11.6540  -13.2056 N   0  0  0  0  0  0  0  0  0  0  0  0
   15.0165  -10.1104  -11.4390 C   0  0  0  0  0  0  0  0  0  0  0  0
   15.2798   -9.9712  -10.2096 O   0  0  0  0  0  0  0  0  0  0  0  0
   18.2208   -8.7607  -14.9127 N   0  0  0  0  0  0  0  0  0  0  0  0
   18.2922   -8.4472  -13.5265 C   0  0  0  0  0  0  0  0  0  0  0  0
   19.2009   -8.9776  -12.8468 O   0  0  0  0  0  0  0  0  0  0  0  0
   17.2809   -7.5124  -12.9907 C   0  0  0  0  0  0  0  0  0  0  0  0
   16.4900   -8.1037  -11.8532 C   0  0  2  0  0  0  0  0  0  0  0  0
   15.6523   -9.1932  -12.3261 N   0  0  0  0  0  0  0  0  0  0  0  0
   15.6579   -7.0568  -11.1711 C   0  0  0  0  0  0  0  0  0  0  0  0
   14.5352   -6.6984  -11.6176 O   0  0  0  0  0  0  0  0  0  0  0  0
   16.1062   -6.4219   -9.9837 N   0  0  0  0  0  0  0  0  0  0  0  0
   15.3582   -5.4574   -9.2456 C   0  0  1  0  0  0  0  0  0  0  0  0
   15.6179   -5.7246   -7.7612 C   0  0  0  0  0  0  0  0  0  0  0  0
   14.9943   -7.3465   -7.2707 S   0  0  0  0  0  0  0  0  0  0  0  0
   15.8575   -4.1038   -9.5333 C   0  0  0  0  0  0  0  0  0  0  0  0
   16.8604   -3.9465  -10.2573 O   0  0  0  0  0  0  0  0  0  0  0  0
   15.2215   -3.0060   -9.0058 O   0  0  0  0  0  0  0  0  0  0  0  0
  2  1  1  6
  2  4  1  0
  2  3  1  0
  4  6  1  0
  4  5  1  6
  6 13  1  0
  6  7  2  0
  9  8  1  0
  9 11  1  0
 10  9  2  0
 12 11  1  6
 12 14  1  0
 13 12  1  0
 14 15  2  0
 16 17  1  0
 16 14  1  0
 17 20  1  0
 17 18  1  1
 18 19  1  0
 20 22  1  0
 21 20  2  0
M  END
$$$$
