VNC.pdb
     RDKit          3D

 22 21  0  0  1  0  0  0  0  0999 V2000
   18.0803  -16.0497  -16.6994 C   0  0  0  0  0  0  0  0  0  0  0  0
   17.9007  -14.5748  -16.9714 C   0  0  2  0  0  0  0  0  0  0  0  0
   19.2852  -14.0205  -17.2765 C   0  0  0  0  0  0  0  0  0  0  0  0
   17.3869  -13.8285  -15.7674 C   0  0  2  0  0  0  0  0  0  0  0  0
   16.0690  -14.3825  -15.4603 N   0  0  0  0  0  0  0  0  0  0  0  0
   17.2016  -12.3804  -16.0334 C   0  0  0  0  0  0  0  0  0  0  0  0
   16.3142  -11.9328  -16.8159 O   0  0  0  0  0  0  0  0  0  0  0  0
   15.7591   -7.2568  -14.6026 N   0  0  0  0  0  0  0  0  0  0  0  0
   16.4016   -8.0320  -15.6083 C   0  0  0  0  0  0  0  0  0  0  0  0
   16.7991   -7.4465  -16.6418 O   0  0  0  0  0  0  0  0  0  0  0  0
   16.5519   -9.4800  -15.3543 C   0  0  0  0  0  0  0  0  0  0  0  0
   17.9291   -9.9879  -15.6925 C   0  0  2  0  0  0  0  0  0  0  0  0
   18.0340  -11.4087  -15.4047 N   0  0  0  0  0  0  0  0  0  0  0  0
   18.9857   -9.2207  -14.9518 C   0  0  0  0  0  0  0  0  0  0  0  0
   19.0623   -9.2309  -13.6939 O   0  0  0  0  0  0  0  0  0  0  0  0
   19.9510   -8.4450  -15.6451 N   0  0  0  0  0  0  0  0  0  0  0  0
   20.9747   -7.6731  -15.0198 C   0  0  1  0  0  0  0  0  0  0  0  0
   22.2450   -7.8470  -15.8556 C   0  0  0  0  0  0  0  0  0  0  0  0
   22.9816   -9.4745  -15.5933 S   0  0  0  0  0  0  0  0  0  0  0  0
   20.6251   -6.2446  -15.0598 C   0  0  0  0  0  0  0  0  0  0  0  0
   19.6630   -5.8540  -15.7500 O   0  0  0  0  0  0  0  0  0  0  0  0
   21.3568   -5.3337  -14.3369 O   0  0  0  0  0  0  0  0  0  0  0  0
  2  1  1  1
  2  4  1  0
  2  3  1  0
  4  6  1  0
  4  5  1  6
  6 13  1  0
  6  7  2  0
  9  8  1  0
  9 11  1  0
 10  9  2  0
 12 11  1  1
 12 14  1  0
 13 12  1  0
 14 15  2  0
 16 17  1  0
 16 14  1  0
 17 20  1  0
 17 18  1  6
 18 19  1  0
 20 22  1  0
 21 20  2  0
M  END
$$$$
