VNC.pdb
     RDKit          3D

 22 21  0  0  1  0  0  0  0  0999 V2000
   21.5511  -12.9581  -17.8284 C   0  0  0  0  0  0  0  0  0  0  0  0
   21.1313  -11.5168  -17.6615 C   0  0  2  0  0  0  0  0  0  0  0  0
   22.3623  -10.7616  -17.1804 C   0  0  0  0  0  0  0  0  0  0  0  0
   20.0731  -11.3471  -16.6025 C   0  0  2  0  0  0  0  0  0  0  0  0
   18.9509  -12.2012  -16.9887 N   0  0  0  0  0  0  0  0  0  0  0  0
   19.5598   -9.9566  -16.5302 C   0  0  0  0  0  0  0  0  0  0  0  0
   19.2342   -9.2893  -17.5544 O   0  0  0  0  0  0  0  0  0  0  0  0
   15.9414   -7.5783  -16.4643 N   0  0  0  0  0  0  0  0  0  0  0  0
   16.5607   -8.4491  -15.5245 C   0  0  0  0  0  0  0  0  0  0  0  0
   16.2241   -9.6557  -15.5260 O   0  0  0  0  0  0  0  0  0  0  0  0
   17.5614   -7.8587  -14.6116 C   0  0  0  0  0  0  0  0  0  0  0  0
   18.9600   -7.9186  -15.1676 C   0  0  2  0  0  0  0  0  0  0  0  0
   19.4078   -9.2971  -15.2754 N   0  0  0  0  0  0  0  0  0  0  0  0
   19.9118   -7.1196  -14.3254 C   0  0  0  0  0  0  0  0  0  0  0  0
   20.1371   -7.4027  -13.1182 O   0  0  0  0  0  0  0  0  0  0  0  0
   20.6036   -6.0016  -14.8600 N   0  0  0  0  0  0  0  0  0  0  0  0
   21.5708   -5.2294  -14.1510 C   0  0  1  0  0  0  0  0  0  0  0  0
   22.8292   -5.1736  -15.0203 C   0  0  0  0  0  0  0  0  0  0  0  0
   23.5730   -6.8092  -15.1983 S   0  0  0  0  0  0  0  0  0  0  0  0
   21.0949   -3.8463  -13.9931 C   0  0  0  0  0  0  0  0  0  0  0  0
   20.1217   -3.4388  -14.6575 O   0  0  0  0  0  0  0  0  0  0  0  0
   21.7202   -2.9966  -13.1128 O   0  0  0  0  0  0  0  0  0  0  0  0
  2  1  1  1
  2  4  1  0
  2  3  1  0
  4  6  1  0
  4  5  1  6
  6 13  1  0
  6  7  2  0
  9  8  1  0
  9 11  1  0
 10  9  2  0
 12 11  1  1
 12 14  1  0
 13 12  1  0
 14 15  2  0
 16 17  1  0
 16 14  1  0
 17 20  1  0
 17 18  1  6
 18 19  1  0
 20 22  1  0
 21 20  2  0
M  END
$$$$
