VNC.pdb
     RDKit          3D

 22 21  0  0  1  0  0  0  0  0999 V2000
   25.8992  -17.6875  -16.0675 C   0  0  0  0  0  0  0  0  0  0  0  0
   26.1207  -16.2001  -16.2090 C   0  0  2  0  0  0  0  0  0  0  0  0
   27.3061  -15.8536  -15.3191 C   0  0  0  0  0  0  0  0  0  0  0  0
   24.9489  -15.3960  -15.7084 C   0  0  2  0  0  0  0  0  0  0  0  0
   23.7978  -15.7769  -16.5257 N   0  0  0  0  0  0  0  0  0  0  0  0
   25.1458  -13.9357  -15.8836 C   0  0  0  0  0  0  0  0  0  0  0  0
   25.9979  -13.2725  -15.2246 O   0  0  0  0  0  0  0  0  0  0  0  0
   24.1057   -9.3725  -19.2987 N   0  0  0  0  0  0  0  0  0  0  0  0
   25.1991  -10.0467  -18.6863 C   0  0  0  0  0  0  0  0  0  0  0  0
   26.2246   -9.3817  -18.4121 O   0  0  0  0  0  0  0  0  0  0  0  0
   25.0399  -11.4912  -18.4187 C   0  0  0  0  0  0  0  0  0  0  0  0
   24.5343  -11.7707  -17.0276 C   0  0  2  0  0  0  0  0  0  0  0  0
   24.3660  -13.1999  -16.8232 N   0  0  0  0  0  0  0  0  0  0  0  0
   23.2466  -11.0454  -16.7639 C   0  0  0  0  0  0  0  0  0  0  0  0
   22.1752  -11.3471  -17.3550 O   0  0  0  0  0  0  0  0  0  0  0  0
   23.1830   -9.9796  -15.8290 N   0  0  0  0  0  0  0  0  0  0  0  0
   22.0058   -9.2333  -15.5262 C   0  0  1  0  0  0  0  0  0  0  0  0
   21.9444   -9.0849  -14.0041 C   0  0  0  0  0  0  0  0  0  0  0  0
   20.5428   -8.0628  -13.5036 S   0  0  0  0  0  0  0  0  0  0  0  0
   22.1097   -7.8773  -16.0872 C   0  0  0  0  0  0  0  0  0  0  0  0
   21.1051   -7.1403  -16.1352 O   0  0  0  0  0  0  0  0  0  0  0  0
   23.3141   -7.4159  -16.5609 O   0  0  0  0  0  0  0  0  0  0  0  0
  2  1  1  1
  2  4  1  0
  2  3  1  0
  4  6  1  0
  4  5  1  6
  6 13  1  0
  6  7  2  0
  9  8  1  0
  9 11  1  0
 10  9  2  0
 12 11  1  6
 12 14  1  0
 13 12  1  0
 14 15  2  0
 16 17  1  0
 16 14  1  0
 17 20  1  0
 17 18  1  1
 18 19  1  0
 20 22  1  0
 21 20  2  0
M  END
$$$$
