VNC.pdb
     RDKit          3D

 22 21  0  0  1  0  0  0  0  0999 V2000
   25.9001  -17.1937  -17.2927 C   0  0  0  0  0  0  0  0  0  0  0  0
   26.9683  -16.8627  -16.2773 C   0  0  2  0  0  0  0  0  0  0  0  0
   27.9006  -15.8603  -16.9428 C   0  0  0  0  0  0  0  0  0  0  0  0
   27.8044  -18.0622  -15.9135 C   0  0  2  0  0  0  0  0  0  0  0  0
   28.2561  -18.6569  -17.1706 N   0  0  0  0  0  0  0  0  0  0  0  0
   27.0256  -19.1001  -15.1935 C   0  0  0  0  0  0  0  0  0  0  0  0
   26.4116  -20.0339  -15.7860 O   0  0  0  0  0  0  0  0  0  0  0  0
   24.9819  -21.9772  -11.5049 N   0  0  0  0  0  0  0  0  0  0  0  0
   25.7688  -21.0376  -10.7819 C   0  0  0  0  0  0  0  0  0  0  0  0
   25.8540  -21.1702   -9.5393 O   0  0  0  0  0  0  0  0  0  0  0  0
   26.4306  -19.9687  -11.5586 C   0  0  0  0  0  0  0  0  0  0  0  0
   26.1390  -20.0585  -13.0336 C   0  0  2  0  0  0  0  0  0  0  0  0
   26.9333  -19.0900  -13.7709 N   0  0  0  0  0  0  0  0  0  0  0  0
   24.6767  -19.8600  -13.3091 C   0  0  0  0  0  0  0  0  0  0  0  0
   24.0875  -18.7768  -13.0488 O   0  0  0  0  0  0  0  0  0  0  0  0
   23.8905  -20.8946  -13.8797 N   0  0  0  0  0  0  0  0  0  0  0  0
   22.5039  -20.7819  -14.1948 C   0  0  1  0  0  0  0  0  0  0  0  0
   22.2158  -21.7735  -15.3244 C   0  0  0  0  0  0  0  0  0  0  0  0
   20.4507  -21.8423  -15.6987 S   0  0  0  0  0  0  0  0  0  0  0  0
   21.6892  -21.1945  -13.0414 C   0  0  0  0  0  0  0  0  0  0  0  0
   22.0792  -22.1147  -12.2958 O   0  0  0  0  0  0  0  0  0  0  0  0
   20.4945  -20.5682  -12.7797 O   0  0  0  0  0  0  0  0  0  0  0  0
  2  1  1  6
  2  4  1  0
  2  3  1  0
  4  6  1  0
  4  5  1  6
  6 13  1  0
  6  7  2  0
  9  8  1  0
  9 11  1  0
 10  9  2  0
 12 11  1  1
 12 14  1  0
 13 12  1  0
 14 15  2  0
 16 17  1  0
 16 14  1  0
 17 20  1  0
 17 18  1  6
 18 19  1  0
 20 22  1  0
 21 20  2  0
M  END
$$$$
