VNC.pdb
     RDKit          3D

 22 21  0  0  1  0  0  0  0  0999 V2000
   24.5916  -16.2347  -16.8217 C   0  0  0  0  0  0  0  0  0  0  0  0
   24.4073  -14.7879  -16.4290 C   0  0  2  0  0  0  0  0  0  0  0  0
   23.5385  -14.1554  -17.5070 C   0  0  0  0  0  0  0  0  0  0  0  0
   25.7083  -14.0278  -16.4146 C   0  0  2  0  0  0  0  0  0  0  0  0
   26.5666  -14.6821  -15.4281 N   0  0  0  0  0  0  0  0  0  0  0  0
   25.5381  -12.6190  -15.9807 C   0  0  0  0  0  0  0  0  0  0  0  0
   25.1331  -12.2991  -14.8258 O   0  0  0  0  0  0  0  0  0  0  0  0
   28.2082  -10.1693  -15.6822 N   0  0  0  0  0  0  0  0  0  0  0  0
   27.9383   -9.3027  -16.7782 C   0  0  0  0  0  0  0  0  0  0  0  0
   28.8878   -8.6387  -17.2543 O   0  0  0  0  0  0  0  0  0  0  0  0
   26.5474   -9.2519  -17.2748 C   0  0  0  0  0  0  0  0  0  0  0  0
   25.6212  -10.1501  -16.4975 C   0  0  2  0  0  0  0  0  0  0  0  0
   25.8302  -11.5404  -16.8659 N   0  0  0  0  0  0  0  0  0  0  0  0
   24.1869   -9.7593  -16.7066 C   0  0  0  0  0  0  0  0  0  0  0  0
   23.6234   -9.8568  -17.8296 O   0  0  0  0  0  0  0  0  0  0  0  0
   23.3992   -9.2593  -15.6371 N   0  0  0  0  0  0  0  0  0  0  0  0
   22.0360   -8.8555  -15.7514 C   0  0  1  0  0  0  0  0  0  0  0  0
   21.2186   -9.7584  -14.8246 C   0  0  0  0  0  0  0  0  0  0  0  0
   19.5551   -9.1025  -14.5743 S   0  0  0  0  0  0  0  0  0  0  0  0
   21.8752   -7.4775  -15.2619 C   0  0  0  0  0  0  0  0  0  0  0  0
   20.8113   -6.8601  -15.4662 O   0  0  0  0  0  0  0  0  0  0  0  0
   22.8961   -6.8638  -14.5771 O   0  0  0  0  0  0  0  0  0  0  0  0
  2  1  1  6
  2  4  1  0
  2  3  1  0
  4  6  1  0
  4  5  1  1
  6 13  1  0
  6  7  2  0
  9  8  1  0
  9 11  1  0
 10  9  2  0
 12 11  1  6
 12 14  1  0
 13 12  1  0
 14 15  2  0
 16 17  1  0
 16 14  1  0
 17 20  1  0
 17 18  1  1
 18 19  1  0
 20 22  1  0
 21 20  2  0
M  END
$$$$
