VNC.pdb
     RDKit          3D

 22 21  0  0  1  0  0  0  0  0999 V2000
   13.2891  -11.1311   -9.7928 C   0  0  0  0  0  0  0  0  0  0  0  0
   13.3985  -10.8487  -11.2726 C   0  0  2  0  0  0  0  0  0  0  0  0
   12.6878  -11.9916  -11.9838 C   0  0  0  0  0  0  0  0  0  0  0  0
   14.8265  -10.8557  -11.7533 C   0  0  2  0  0  0  0  0  0  0  0  0
   15.4065  -12.1294  -11.3298 N   0  0  0  0  0  0  0  0  0  0  0  0
   15.6388   -9.7782  -11.1358 C   0  0  0  0  0  0  0  0  0  0  0  0
   16.2638   -9.9265  -10.0460 O   0  0  0  0  0  0  0  0  0  0  0  0
   18.6150   -8.7649  -11.8786 N   0  0  0  0  0  0  0  0  0  0  0  0
   18.4872   -7.4801  -12.4769 C   0  0  0  0  0  0  0  0  0  0  0  0
   19.3675   -7.1170  -13.2907 O   0  0  0  0  0  0  0  0  0  0  0  0
   17.3164   -6.6661  -12.0893 C   0  0  0  0  0  0  0  0  0  0  0  0
   16.4135   -7.3763  -11.1150 C   0  0  2  0  0  0  0  0  0  0  0  0
   15.7529   -8.5004  -11.7575 N   0  0  0  0  0  0  0  0  0  0  0  0
   15.4013   -6.4345  -10.5299 C   0  0  0  0  0  0  0  0  0  0  0  0
   14.2949   -6.2088  -11.0896 O   0  0  0  0  0  0  0  0  0  0  0  0
   15.6519   -5.7532   -9.3104 N   0  0  0  0  0  0  0  0  0  0  0  0
   14.7585   -4.8237   -8.7003 C   0  0  1  0  0  0  0  0  0  0  0  0
   14.5639   -5.2705   -7.2495 C   0  0  0  0  0  0  0  0  0  0  0  0
   13.5560   -4.0868   -6.3312 S   0  0  0  0  0  0  0  0  0  0  0  0
   15.3709   -3.4867   -8.6607 C   0  0  0  0  0  0  0  0  0  0  0  0
   16.5948   -3.3639   -8.4561 O   0  0  0  0  0  0  0  0  0  0  0  0
   14.5978   -2.3665   -8.8489 O   0  0  0  0  0  0  0  0  0  0  0  0
  2  1  1  1
  2  4  1  0
  2  3  1  0
  4  6  1  0
  4  5  1  1
  6 13  1  0
  6  7  2  0
  9  8  1  0
  9 11  1  0
 10  9  2  0
 12 11  1  6
 12 14  1  0
 13 12  1  0
 14 15  2  0
 16 17  1  0
 16 14  1  0
 17 20  1  0
 17 18  1  1
 18 19  1  0
 20 22  1  0
 21 20  2  0
M  END
$$$$
