VNC.pdb
     RDKit          3D

 22 21  0  0  1  0  0  0  0  0999 V2000
   21.0655  -15.5557  -18.5999 C   0  0  0  0  0  0  0  0  0  0  0  0
   19.7539  -15.4558  -17.8575 C   0  0  2  0  0  0  0  0  0  0  0  0
   18.8258  -16.4895  -18.4798 C   0  0  0  0  0  0  0  0  0  0  0  0
   19.0948  -14.1127  -18.0366 C   0  0  2  0  0  0  0  0  0  0  0  0
   18.9064  -13.9253  -19.4745 N   0  0  0  0  0  0  0  0  0  0  0  0
   19.9445  -12.9947  -17.5573 C   0  0  0  0  0  0  0  0  0  0  0  0
   20.2938  -12.8654  -16.3484 O   0  0  0  0  0  0  0  0  0  0  0  0
   23.5707  -12.0714  -18.6324 N   0  0  0  0  0  0  0  0  0  0  0  0
   23.2017  -11.0091  -19.5044 C   0  0  0  0  0  0  0  0  0  0  0  0
   23.9398  -10.7680  -20.4873 O   0  0  0  0  0  0  0  0  0  0  0  0
   21.9662  -10.2657  -19.1811 C   0  0  0  0  0  0  0  0  0  0  0  0
   21.2165  -10.8645  -18.0200 C   0  0  2  0  0  0  0  0  0  0  0  0
   20.4150  -11.9949  -18.4582 N   0  0  0  0  0  0  0  0  0  0  0  0
   20.3544   -9.8373  -17.3450 C   0  0  0  0  0  0  0  0  0  0  0  0
   19.2949   -9.4025  -17.8711 O   0  0  0  0  0  0  0  0  0  0  0  0
   20.7011   -9.3089  -16.0743 N   0  0  0  0  0  0  0  0  0  0  0  0
   19.9765   -8.2855  -15.3945 C   0  0  1  0  0  0  0  0  0  0  0  0
   19.4129   -8.9061  -14.1140 C   0  0  0  0  0  0  0  0  0  0  0  0
   18.6985   -7.6453  -13.0369 S   0  0  0  0  0  0  0  0  0  0  0  0
   20.8900   -7.2075  -14.9847 C   0  0  0  0  0  0  0  0  0  0  0  0
   22.1229   -7.3930  -14.9959 O   0  0  0  0  0  0  0  0  0  0  0  0
   20.3895   -5.9911  -14.5877 O   0  0  0  0  0  0  0  0  0  0  0  0
  2  1  1  6
  2  4  1  0
  2  3  1  0
  4  6  1  0
  4  5  1  6
  6 13  1  0
  6  7  2  0
  9  8  1  0
  9 11  1  0
 10  9  2  0
 12 11  1  6
 12 14  1  0
 13 12  1  0
 14 15  2  0
 16 17  1  0
 16 14  1  0
 17 20  1  0
 17 18  1  1
 18 19  1  0
 20 22  1  0
 21 20  2  0
M  END
$$$$
