KQP.pdb
     RDKit          3D

 26 26  0  0  1  0  0  0  0  0999 V2000
   17.3242  -10.5192  -11.2580 N   0  0  0  0  0  0  0  0  0  0  0  0
   16.8710   -9.8209  -12.4165 C   0  0  1  0  0  0  0  0  0  0  0  0
   16.0132  -10.7586  -13.2313 C   0  0  0  0  0  0  0  0  0  0  0  0
   16.8115  -12.0135  -13.5009 C   0  0  0  0  0  0  0  0  0  0  0  0
   16.0017  -13.0302  -14.2769 C   0  0  0  0  0  0  0  0  0  0  0  0
   16.8601  -14.2641  -14.5271 C   0  0  0  0  0  0  0  0  0  0  0  0
   16.1308  -15.2895  -15.2075 N   0  0  0  0  0  0  0  0  0  0  0  0
   16.2393   -8.5325  -12.1503 C   0  0  0  0  0  0  0  0  0  0  0  0
   15.6992   -7.8911  -13.0864 O   0  0  0  0  0  0  0  0  0  0  0  0
   14.5098   -6.2168   -6.5941 N   0  0  0  0  0  0  0  0  0  0  0  0
   13.7377   -7.1988   -7.2961 C   0  0  0  0  0  0  0  0  0  0  0  0
   12.8458   -7.8323   -6.6792 O   0  0  0  0  0  0  0  0  0  0  0  0
   14.0204   -7.4345   -8.7356 C   0  0  0  0  0  0  0  0  0  0  0  0
   15.1230   -6.4924   -9.1491 C   0  0  0  0  0  0  0  0  0  0  0  0
   15.5125   -6.6829  -10.6044 C   0  0  2  0  0  0  0  0  0  0  0  0
   16.1843   -7.9132  -10.8446 N   0  0  0  0  0  0  0  0  0  0  0  0
   16.2773   -5.5361  -11.0872 C   0  0  0  0  0  0  0  0  0  0  0  0
   17.5634   -5.7322  -11.0467 O   0  0  0  0  0  0  0  0  0  0  0  0
   15.8563   -4.2941  -11.5732 N   0  0  0  0  0  0  0  0  0  0  0  0
   14.4295   -3.9225  -11.6758 C   0  0  0  0  0  0  0  0  0  0  0  0
   14.3435   -2.9813  -12.8363 C   0  0  0  0  0  0  0  0  0  0  0  0
   15.7472   -2.8531  -13.3431 C   0  0  0  0  0  0  0  0  0  0  0  0
   16.5391   -3.1280  -12.0458 C   0  0  1  0  0  0  0  0  0  0  0  0
   16.3912   -1.9693  -11.1146 C   0  0  0  0  0  0  0  0  0  0  0  0
   17.2199   -0.8629  -11.2378 O   0  0  0  0  0  0  0  0  0  0  0  0
   15.5369   -1.9261  -10.1939 O   0  0  0  0  0  0  0  0  0  0  0  0
  2  1  1  1
  3  2  1  0
  4  3  1  0
  4  5  1  0
  5  6  1  0
  6  7  1  0
  8  2  1  0
  8  9  2  0
 10 11  1  0
 11 12  2  0
 11 13  1  0
 13 14  1  0
 15 14  1  1
 15 16  1  0
 16  8  1  0
 17 15  1  0
 18 17  2  0
 19 17  1  0
 19 23  1  0
 20 19  1  0
 20 21  1  0
 21 22  1  0
 23 22  1  0
 24 25  1  0
 23 24  1  1
 26 24  2  0
M  END
$$$$
