KQP.pdb
     RDKit          3D

 26 26  0  0  1  0  0  0  0  0999 V2000
   25.3058  -21.3056   -8.2778 N   0  0  0  0  0  0  0  0  0  0  0  0
   26.2845  -20.4880   -8.9172 C   0  0  1  0  0  0  0  0  0  0  0  0
   27.5100  -20.4376   -8.0372 C   0  0  0  0  0  0  0  0  0  0  0  0
   27.1335  -19.7532   -6.7432 C   0  0  0  0  0  0  0  0  0  0  0  0
   28.3255  -19.6176   -5.8199 C   0  0  0  0  0  0  0  0  0  0  0  0
   27.8819  -18.9365   -4.5310 C   0  0  0  0  0  0  0  0  0  0  0  0
   28.1284  -19.7564   -3.3850 N   0  0  0  0  0  0  0  0  0  0  0  0
   26.5733  -20.8439  -10.3027 C   0  0  0  0  0  0  0  0  0  0  0  0
   27.3007  -21.8362  -10.5590 O   0  0  0  0  0  0  0  0  0  0  0  0
   25.1099  -24.0695  -14.3160 N   0  0  0  0  0  0  0  0  0  0  0  0
   24.0863  -23.2713  -13.7090 C   0  0  0  0  0  0  0  0  0  0  0  0
   22.9064  -23.7011  -13.6877 O   0  0  0  0  0  0  0  0  0  0  0  0
   24.4582  -21.9573  -13.1236 C   0  0  0  0  0  0  0  0  0  0  0  0
   25.9582  -21.8245  -13.2045 C   0  0  0  0  0  0  0  0  0  0  0  0
   26.4263  -20.4425  -12.7839 C   0  0  2  0  0  0  0  0  0  0  0  0
   26.0690  -20.1166  -11.4464 N   0  0  0  0  0  0  0  0  0  0  0  0
   25.9709  -19.4326  -13.7358 C   0  0  0  0  0  0  0  0  0  0  0  0
   24.8726  -18.8430  -13.3611 O   0  0  0  0  0  0  0  0  0  0  0  0
   26.5146  -19.0111  -14.9533 N   0  0  0  0  0  0  0  0  0  0  0  0
   27.5683  -19.7703  -15.6590 C   0  0  0  0  0  0  0  0  0  0  0  0
   28.3716  -18.7470  -16.3988 C   0  0  0  0  0  0  0  0  0  0  0  0
   27.7239  -17.4343  -16.0814 C   0  0  0  0  0  0  0  0  0  0  0  0
   26.2735  -17.8949  -15.8166 C   0  0  1  0  0  0  0  0  0  0  0  0
   25.6354  -18.3028  -17.1042 C   0  0  0  0  0  0  0  0  0  0  0  0
   25.3798  -19.6418  -17.3647 O   0  0  0  0  0  0  0  0  0  0  0  0
   25.3021  -17.4870  -18.0003 O   0  0  0  0  0  0  0  0  0  0  0  0
  2  1  1  1
  3  2  1  0
  4  3  1  0
  4  5  1  0
  5  6  1  0
  6  7  1  0
  8  2  1  0
  8  9  2  0
 10 11  1  0
 11 12  2  0
 11 13  1  0
 13 14  1  0
 15 14  1  6
 15 16  1  0
 16  8  1  0
 17 15  1  0
 18 17  2  0
 19 17  1  0
 19 23  1  0
 20 19  1  0
 20 21  1  0
 21 22  1  0
 23 22  1  0
 24 25  1  0
 23 24  1  6
 26 24  2  0
M  END
$$$$
