KQP.pdb
     RDKit          3D

 26 26  0  0  1  0  0  0  0  0999 V2000
   25.6173  -33.7226  -15.2326 N   0  0  0  0  0  0  0  0  0  0  0  0
   24.9839  -34.5022  -14.2195 C   0  0  1  0  0  0  0  0  0  0  0  0
   25.6428  -35.8599  -14.1832 C   0  0  0  0  0  0  0  0  0  0  0  0
   24.8026  -36.8137  -15.0012 C   0  0  0  0  0  0  0  0  0  0  0  0
   25.3551  -38.2223  -14.9515 C   0  0  0  0  0  0  0  0  0  0  0  0
   24.5374  -39.1107  -15.8810 C   0  0  0  0  0  0  0  0  0  0  0  0
   24.9959  -40.4655  -15.8602 N   0  0  0  0  0  0  0  0  0  0  0  0
   24.8971  -33.8588  -12.9124 C   0  0  0  0  0  0  0  0  0  0  0  0
   25.9423  -33.4773  -12.3281 O   0  0  0  0  0  0  0  0  0  0  0  0
   20.2570  -33.3969   -9.1704 N   0  0  0  0  0  0  0  0  0  0  0  0
   21.0547  -32.4200   -8.4903 C   0  0  0  0  0  0  0  0  0  0  0  0
   20.7399  -32.0766   -7.3240 O   0  0  0  0  0  0  0  0  0  0  0  0
   22.2315  -31.8449   -9.1917 C   0  0  0  0  0  0  0  0  0  0  0  0
   22.2623  -32.4177  -10.5864 C   0  0  0  0  0  0  0  0  0  0  0  0
   23.6063  -33.0464  -10.9092 C   0  0  2  0  0  0  0  0  0  0  0  0
   23.6558  -33.6171  -12.2110 N   0  0  0  0  0  0  0  0  0  0  0  0
   23.9888  -34.0039   -9.8748 C   0  0  0  0  0  0  0  0  0  0  0  0
   23.5983  -35.2171  -10.1389 O   0  0  0  0  0  0  0  0  0  0  0  0
   24.6897  -33.8269   -8.6776 N   0  0  0  0  0  0  0  0  0  0  0  0
   25.0324  -32.4907   -8.1470 C   0  0  0  0  0  0  0  0  0  0  0  0
   26.3100  -32.6763   -7.3899 C   0  0  0  0  0  0  0  0  0  0  0  0
   26.6361  -34.1324   -7.5203 C   0  0  0  0  0  0  0  0  0  0  0  0
   25.2190  -34.7219   -7.6937 C   0  0  1  0  0  0  0  0  0  0  0  0
   24.4808  -34.6387   -6.3976 C   0  0  0  0  0  0  0  0  0  0  0  0
   24.7599  -35.5344   -5.3750 O   0  0  0  0  0  0  0  0  0  0  0  0
   23.5921  -33.7820   -6.1612 O   0  0  0  0  0  0  0  0  0  0  0  0
  2  1  1  6
  3  2  1  0
  4  3  1  0
  4  5  1  0
  5  6  1  0
  6  7  1  0
  8  2  1  0
  8  9  2  0
 10 11  1  0
 11 12  2  0
 11 13  1  0
 13 14  1  0
 15 14  1  1
 15 16  1  0
 16  8  1  0
 17 15  1  0
 18 17  2  0
 19 17  1  0
 19 23  1  0
 20 19  1  0
 20 21  1  0
 21 22  1  0
 23 22  1  0
 24 25  1  0
 23 24  1  1
 26 24  2  0
M  END
$$$$
