KQP.pdb
     RDKit          3D

 26 26  0  0  1  0  0  0  0  0999 V2000
   27.4561  -24.4436  -18.3453 N   0  0  0  0  0  0  0  0  0  0  0  0
   26.3705  -24.7113  -17.4593 C   0  0  1  0  0  0  0  0  0  0  0  0
   26.8592  -25.6434  -16.3770 C   0  0  0  0  0  0  0  0  0  0  0  0
   26.9984  -27.0256  -16.9727 C   0  0  0  0  0  0  0  0  0  0  0  0
   26.1653  -28.0408  -16.2196 C   0  0  0  0  0  0  0  0  0  0  0  0
   26.3558  -29.4119  -16.8565 C   0  0  0  0  0  0  0  0  0  0  0  0
   25.6735  -30.4359  -16.1271 N   0  0  0  0  0  0  0  0  0  0  0  0
   25.6879  -23.5273  -16.9473 C   0  0  0  0  0  0  0  0  0  0  0  0
   26.3514  -22.5138  -16.6127 O   0  0  0  0  0  0  0  0  0  0  0  0
   22.8453  -18.8550  -17.8884 N   0  0  0  0  0  0  0  0  0  0  0  0
   23.7169  -19.6330  -18.7180 C   0  0  0  0  0  0  0  0  0  0  0  0
   24.3479  -19.0664  -19.6443 O   0  0  0  0  0  0  0  0  0  0  0  0
   23.8442  -21.0894  -18.4524 C   0  0  0  0  0  0  0  0  0  0  0  0
   22.9220  -21.4318  -17.3094 C   0  0  0  0  0  0  0  0  0  0  0  0
   23.6192  -22.2712  -16.2533 C   0  0  2  0  0  0  0  0  0  0  0  0
   24.2540  -23.4256  -16.7892 N   0  0  0  0  0  0  0  0  0  0  0  0
   22.6985  -22.6040  -15.1694 C   0  0  0  0  0  0  0  0  0  0  0  0
   22.2646  -23.8295  -15.2324 O   0  0  0  0  0  0  0  0  0  0  0  0
   22.2228  -21.8337  -14.1035 N   0  0  0  0  0  0  0  0  0  0  0  0
   22.5720  -20.4075  -13.9350 C   0  0  0  0  0  0  0  0  0  0  0  0
   22.5569  -20.1635  -12.4585 C   0  0  0  0  0  0  0  0  0  0  0  0
   22.1871  -21.4796  -11.8464 C   0  0  0  0  0  0  0  0  0  0  0  0
   21.3583  -22.0984  -12.9936 C   0  0  1  0  0  0  0  0  0  0  0  0
   20.0525  -21.3821  -13.1099 C   0  0  0  0  0  0  0  0  0  0  0  0
   19.0107  -21.6821  -12.2436 O   0  0  0  0  0  0  0  0  0  0  0  0
   19.8245  -20.4942  -13.9696 O   0  0  0  0  0  0  0  0  0  0  0  0
  2  1  1  1
  3  2  1  0
  4  3  1  0
  4  5  1  0
  5  6  1  0
  6  7  1  0
  8  2  1  0
  8  9  2  0
 10 11  1  0
 11 12  2  0
 11 13  1  0
 13 14  1  0
 15 14  1  6
 15 16  1  0
 16  8  1  0
 17 15  1  0
 18 17  2  0
 19 17  1  0
 19 23  1  0
 20 19  1  0
 20 21  1  0
 21 22  1  0
 23 22  1  0
 24 25  1  0
 23 24  1  6
 26 24  2  0
M  END
$$$$
