KQP.pdb
     RDKit          3D

 26 26  0  0  1  0  0  0  0  0999 V2000
   19.7732  -19.1062  -14.8442 N   0  0  0  0  0  0  0  0  0  0  0  0
   20.6125  -18.5075  -15.8303 C   0  0  1  0  0  0  0  0  0  0  0  0
   19.8915  -17.3127  -16.4061 C   0  0  0  0  0  0  0  0  0  0  0  0
   18.7407  -17.8166  -17.2467 C   0  0  0  0  0  0  0  0  0  0  0  0
   19.2295  -18.6333  -18.4240 C   0  0  0  0  0  0  0  0  0  0  0  0
   18.0408  -18.9977  -19.3048 C   0  0  0  0  0  0  0  0  0  0  0  0
   18.4392  -19.7665  -20.4434 N   0  0  0  0  0  0  0  0  0  0  0  0
   21.9707  -18.2125  -15.3851 C   0  0  0  0  0  0  0  0  0  0  0  0
   22.4378  -17.0531  -15.5154 O   0  0  0  0  0  0  0  0  0  0  0  0
   25.8849  -21.6312  -11.8159 N   0  0  0  0  0  0  0  0  0  0  0  0
   26.8220  -20.7335  -12.4233 C   0  0  0  0  0  0  0  0  0  0  0  0
   28.0394  -20.8277  -12.1294 O   0  0  0  0  0  0  0  0  0  0  0  0
   26.3186  -19.7178  -13.3840 C   0  0  0  0  0  0  0  0  0  0  0  0
   24.8295  -19.9121  -13.5221 C   0  0  0  0  0  0  0  0  0  0  0  0
   24.2154  -18.9076  -14.4812 C   0  0  2  0  0  0  0  0  0  0  0  0
   22.8540  -19.1867  -14.7834 N   0  0  0  0  0  0  0  0  0  0  0  0
   25.0308  -18.7813  -15.6864 C   0  0  0  0  0  0  0  0  0  0  0  0
   24.6733  -19.6057  -16.6280 O   0  0  0  0  0  0  0  0  0  0  0  0
   26.1061  -17.9365  -15.9797 N   0  0  0  0  0  0  0  0  0  0  0  0
   26.8317  -17.1815  -14.9366 C   0  0  0  0  0  0  0  0  0  0  0  0
   27.3134  -15.9336  -15.6077 C   0  0  0  0  0  0  0  0  0  0  0  0
   26.8391  -16.0412  -17.0244 C   0  0  0  0  0  0  0  0  0  0  0  0
   26.7873  -17.5764  -17.1861 C   0  0  1  0  0  0  0  0  0  0  0  0
   28.1774  -18.1212  -17.2353 C   0  0  0  0  0  0  0  0  0  0  0  0
   28.9876  -17.8722  -18.3342 O   0  0  0  0  0  0  0  0  0  0  0  0
   28.6817  -18.8148  -16.3166 O   0  0  0  0  0  0  0  0  0  0  0  0
  2  1  1  1
  3  2  1  0
  4  3  1  0
  4  5  1  0
  5  6  1  0
  6  7  1  0
  8  2  1  0
  8  9  2  0
 10 11  1  0
 11 12  2  0
 11 13  1  0
 13 14  1  0
 15 14  1  1
 15 16  1  0
 16  8  1  0
 17 15  1  0
 18 17  2  0
 19 17  1  0
 19 23  1  0
 20 19  1  0
 20 21  1  0
 21 22  1  0
 23 22  1  0
 24 25  1  0
 23 24  1  1
 26 24  2  0
M  END
$$$$
