KQP.pdb
     RDKit          3D

 26 26  0  0  1  0  0  0  0  0999 V2000
   26.5983  -22.5300  -11.5232 N   0  0  0  0  0  0  0  0  0  0  0  0
   25.7817  -21.3875  -11.7745 C   0  0  1  0  0  0  0  0  0  0  0  0
   26.0237  -20.3797  -10.6770 C   0  0  0  0  0  0  0  0  0  0  0  0
   24.9322  -20.5371   -9.6432 C   0  0  0  0  0  0  0  0  0  0  0  0
   23.5692  -20.6619  -10.2902 C   0  0  0  0  0  0  0  0  0  0  0  0
   22.4947  -20.5067   -9.2210 C   0  0  0  0  0  0  0  0  0  0  0  0
   21.1880  -20.7732   -9.7385 N   0  0  0  0  0  0  0  0  0  0  0  0
   25.9009  -20.8295  -13.1178 C   0  0  0  0  0  0  0  0  0  0  0  0
   27.0351  -20.5711  -13.5935 O   0  0  0  0  0  0  0  0  0  0  0  0
   21.4687  -20.7591  -17.5779 N   0  0  0  0  0  0  0  0  0  0  0  0
   22.5783  -20.2307  -18.3146 C   0  0  0  0  0  0  0  0  0  0  0  0
   22.4482  -20.0111  -19.5443 O   0  0  0  0  0  0  0  0  0  0  0  0
   23.8497  -19.9598  -17.5949 C   0  0  0  0  0  0  0  0  0  0  0  0
   23.6555  -20.3532  -16.1521 C   0  0  0  0  0  0  0  0  0  0  0  0
   24.9220  -20.1566  -15.3377 C   0  0  2  0  0  0  0  0  0  0  0  0
   24.7736  -20.5400  -13.9762 N   0  0  0  0  0  0  0  0  0  0  0  0
   25.4136  -18.7878  -15.4724 C   0  0  0  0  0  0  0  0  0  0  0  0
   24.8260  -17.9569  -14.6609 O   0  0  0  0  0  0  0  0  0  0  0  0
   26.3900  -18.2445  -16.3133 N   0  0  0  0  0  0  0  0  0  0  0  0
   27.1569  -19.0642  -17.2748 C   0  0  0  0  0  0  0  0  0  0  0  0
   28.4895  -18.3943  -17.3983 C   0  0  0  0  0  0  0  0  0  0  0  0
   28.4156  -17.2027  -16.4938 C   0  0  0  0  0  0  0  0  0  0  0  0
   26.8969  -16.9224  -16.5240 C   0  0  1  0  0  0  0  0  0  0  0  0
   26.5157  -16.3766  -17.8613 C   0  0  0  0  0  0  0  0  0  0  0  0
   26.7437  -15.0412  -18.1625 O   0  0  0  0  0  0  0  0  0  0  0  0
   25.9833  -17.0688  -18.7651 O   0  0  0  0  0  0  0  0  0  0  0  0
  2  1  1  6
  3  2  1  0
  4  3  1  0
  4  5  1  0
  5  6  1  0
  6  7  1  0
  8  2  1  0
  8  9  2  0
 10 11  1  0
 11 12  2  0
 11 13  1  0
 13 14  1  0
 15 14  1  6
 15 16  1  0
 16  8  1  0
 17 15  1  0
 18 17  2  0
 19 17  1  0
 19 23  1  0
 20 19  1  0
 20 21  1  0
 21 22  1  0
 23 22  1  0
 24 25  1  0
 23 24  1  6
 26 24  2  0
M  END
$$$$
