KQP.pdb
     RDKit          3D

 26 26  0  0  1  0  0  0  0  0999 V2000
   21.9922  -21.7791  -15.5499 N   0  0  0  0  0  0  0  0  0  0  0  0
   22.1994  -20.4116  -15.2003 C   0  0  1  0  0  0  0  0  0  0  0  0
   23.5864  -20.2744  -14.6203 C   0  0  0  0  0  0  0  0  0  0  0  0
   23.9032  -21.5371  -13.8522 C   0  0  0  0  0  0  0  0  0  0  0  0
   24.5016  -22.5980  -14.7512 C   0  0  0  0  0  0  0  0  0  0  0  0
   24.8267  -23.8314  -13.9175 C   0  0  0  0  0  0  0  0  0  0  0  0
   25.4113  -24.8691  -14.7097 N   0  0  0  0  0  0  0  0  0  0  0  0
   21.9128  -19.4544  -16.2640 C   0  0  0  0  0  0  0  0  0  0  0  0
   22.4739  -19.5700  -17.3826 O   0  0  0  0  0  0  0  0  0  0  0  0
   17.5657  -15.5356  -15.4879 N   0  0  0  0  0  0  0  0  0  0  0  0
   17.2333  -16.8266  -16.0131 C   0  0  0  0  0  0  0  0  0  0  0  0
   16.0988  -17.3106  -15.7765 O   0  0  0  0  0  0  0  0  0  0  0  0
   18.2468  -17.5509  -16.8230 C   0  0  0  0  0  0  0  0  0  0  0  0
   19.4438  -16.6469  -16.9791 C   0  0  0  0  0  0  0  0  0  0  0  0
   20.7242  -17.4362  -17.1878 C   0  0  2  0  0  0  0  0  0  0  0  0
   20.9994  -18.3418  -16.1261 N   0  0  0  0  0  0  0  0  0  0  0  0
   21.8462  -16.5381  -17.4483 C   0  0  0  0  0  0  0  0  0  0  0  0
   22.5962  -16.3484  -16.4016 O   0  0  0  0  0  0  0  0  0  0  0  0
   22.2309  -15.8683  -18.6142 N   0  0  0  0  0  0  0  0  0  0  0  0
   21.5085  -16.0217  -19.8945 C   0  0  0  0  0  0  0  0  0  0  0  0
   22.5403  -15.8305  -20.9616 C   0  0  0  0  0  0  0  0  0  0  0  0
   23.8195  -15.5659  -20.2285 C   0  0  0  0  0  0  0  0  0  0  0  0
   23.2717  -14.9370  -18.9284 C   0  0  1  0  0  0  0  0  0  0  0  0
   22.7404  -13.5714  -19.2187 C   0  0  0  0  0  0  0  0  0  0  0  0
   23.5887  -12.4731  -19.2036 O   0  0  0  0  0  0  0  0  0  0  0  0
   21.5342  -13.3403  -19.4854 O   0  0  0  0  0  0  0  0  0  0  0  0
  2  1  1  6
  3  2  1  0
  4  3  1  0
  4  5  1  0
  5  6  1  0
  6  7  1  0
  8  2  1  0
  8  9  2  0
 10 11  1  0
 11 12  2  0
 11 13  1  0
 13 14  1  0
 15 14  1  1
 15 16  1  0
 16  8  1  0
 17 15  1  0
 18 17  2  0
 19 17  1  0
 19 23  1  0
 20 19  1  0
 20 21  1  0
 21 22  1  0
 23 22  1  0
 24 25  1  0
 23 24  1  6
 26 24  2  0
M  END
$$$$
