KQP.pdb
     RDKit          3D

 26 26  0  0  1  0  0  0  0  0999 V2000
   28.9964  -32.1597  -14.7416 N   0  0  0  0  0  0  0  0  0  0  0  0
   29.8796  -33.0709  -15.3935 C   0  0  1  0  0  0  0  0  0  0  0  0
   30.1622  -32.5480  -16.7812 C   0  0  0  0  0  0  0  0  0  0  0  0
   28.8469  -32.4259  -17.5159 C   0  0  0  0  0  0  0  0  0  0  0  0
   29.0538  -32.0260  -18.9613 C   0  0  0  0  0  0  0  0  0  0  0  0
   27.6988  -31.9406  -19.6530 C   0  0  0  0  0  0  0  0  0  0  0  0
   27.8302  -31.6219  -21.0413 N   0  0  0  0  0  0  0  0  0  0  0  0
   31.0825  -33.4080  -14.6391 C   0  0  0  0  0  0  0  0  0  0  0  0
   31.6176  -32.5508  -13.8919 O   0  0  0  0  0  0  0  0  0  0  0  0
   33.4878  -39.0801  -13.3899 N   0  0  0  0  0  0  0  0  0  0  0  0
   34.5265  -38.2475  -12.8596 C   0  0  0  0  0  0  0  0  0  0  0  0
   35.5202  -38.7834  -12.3095 O   0  0  0  0  0  0  0  0  0  0  0  0
   34.3910  -36.7727  -12.9796 C   0  0  0  0  0  0  0  0  0  0  0  0
   33.1187  -36.4868  -13.7370 C   0  0  0  0  0  0  0  0  0  0  0  0
   32.9074  -34.9973  -13.9443 C   0  0  2  0  0  0  0  0  0  0  0  0
   31.7309  -34.6998  -14.6860 N   0  0  0  0  0  0  0  0  0  0  0  0
   34.0964  -34.3853  -14.5315 C   0  0  0  0  0  0  0  0  0  0  0  0
   34.0238  -34.2794  -15.8267 O   0  0  0  0  0  0  0  0  0  0  0  0
   35.2688  -33.9080  -13.9369 N   0  0  0  0  0  0  0  0  0  0  0  0
   35.5658  -34.0962  -12.5013 C   0  0  0  0  0  0  0  0  0  0  0  0
   36.3920  -32.9129  -12.1051 C   0  0  0  0  0  0  0  0  0  0  0  0
   36.5354  -32.0979  -13.3536 C   0  0  0  0  0  0  0  0  0  0  0  0
   36.4158  -33.2041  -14.4249 C   0  0  1  0  0  0  0  0  0  0  0  0
   37.6472  -34.0496  -14.4102 C   0  0  0  0  0  0  0  0  0  0  0  0
   37.6068  -35.3351  -13.8886 O   0  0  0  0  0  0  0  0  0  0  0  0
   38.7576  -33.6628  -14.8539 O   0  0  0  0  0  0  0  0  0  0  0  0
  2  1  1  1
  3  2  1  0
  4  3  1  0
  4  5  1  0
  5  6  1  0
  6  7  1  0
  8  2  1  0
  8  9  2  0
 10 11  1  0
 11 12  2  0
 11 13  1  0
 13 14  1  0
 15 14  1  6
 15 16  1  0
 16  8  1  0
 17 15  1  0
 18 17  2  0
 19 17  1  0
 19 23  1  0
 20 19  1  0
 20 21  1  0
 21 22  1  0
 23 22  1  0
 24 25  1  0
 23 24  1  1
 26 24  2  0
M  END
$$$$
