KQP.pdb
     RDKit          3D

 26 26  0  0  1  0  0  0  0  0999 V2000
   15.8774  -21.1444    1.0565 N   0  0  0  0  0  0  0  0  0  0  0  0
   15.8620  -21.2544    2.4787 C   0  0  1  0  0  0  0  0  0  0  0  0
   15.9098  -22.7186    2.8426 C   0  0  0  0  0  0  0  0  0  0  0  0
   14.6803  -23.3869    2.2712 C   0  0  0  0  0  0  0  0  0  0  0  0
   14.6250  -24.8544    2.6386 C   0  0  0  0  0  0  0  0  0  0  0  0
   13.4992  -25.5210    1.8574 C   0  0  0  0  0  0  0  0  0  0  0  0
   13.3277  -26.8897    2.2364 N   0  0  0  0  0  0  0  0  0  0  0  0
   16.8628  -20.4470    3.1690 C   0  0  0  0  0  0  0  0  0  0  0  0
   18.0326  -20.3720    2.7158 O   0  0  0  0  0  0  0  0  0  0  0  0
   16.0616  -15.4513    6.6984 N   0  0  0  0  0  0  0  0  0  0  0  0
   16.1543  -15.4502    5.2685 C   0  0  0  0  0  0  0  0  0  0  0  0
   15.7384  -14.4528    4.6285 O   0  0  0  0  0  0  0  0  0  0  0  0
   16.7418  -16.6343    4.5898 C   0  0  0  0  0  0  0  0  0  0  0  0
   17.0772  -17.6536    5.6493 C   0  0  0  0  0  0  0  0  0  0  0  0
   17.6069  -18.9424    5.0456 C   0  0  2  0  0  0  0  0  0  0  0  0
   16.6036  -19.6986    4.3791 N   0  0  0  0  0  0  0  0  0  0  0  0
   18.3113  -19.7315    6.0528 C   0  0  0  0  0  0  0  0  0  0  0  0
   17.6598  -20.8025    6.4031 O   0  0  0  0  0  0  0  0  0  0  0  0
   19.5423  -19.5229    6.6827 N   0  0  0  0  0  0  0  0  0  0  0  0
   20.3936  -18.3493    6.3959 C   0  0  0  0  0  0  0  0  0  0  0  0
   21.8003  -18.8136    6.6087 C   0  0  0  0  0  0  0  0  0  0  0  0
   21.6824  -20.2490    7.0201 C   0  0  0  0  0  0  0  0  0  0  0  0
   20.2843  -20.2377    7.6766 C   0  0  1  0  0  0  0  0  0  0  0  0
   20.3473  -19.5009    8.9746 C   0  0  0  0  0  0  0  0  0  0  0  0
   20.7083  -20.1646   10.1387 O   0  0  0  0  0  0  0  0  0  0  0  0
   20.0863  -18.2768    9.0888 O   0  0  0  0  0  0  0  0  0  0  0  0
  2  1  1  6
  3  2  1  0
  4  3  1  0
  4  5  1  0
  5  6  1  0
  6  7  1  0
  8  2  1  0
  8  9  2  0
 10 11  1  0
 11 12  2  0
 11 13  1  0
 13 14  1  0
 15 14  1  1
 15 16  1  0
 16  8  1  0
 17 15  1  0
 18 17  2  0
 19 17  1  0
 19 23  1  0
 20 19  1  0
 20 21  1  0
 21 22  1  0
 23 22  1  0
 24 25  1  0
 23 24  1  1
 26 24  2  0
M  END
$$$$
