KQP.pdb
     RDKit          3D

 26 26  0  0  1  0  0  0  0  0999 V2000
   18.4819  -23.6791  -10.8223 N   0  0  0  0  0  0  0  0  0  0  0  0
   17.4449  -24.5442  -10.3625 C   0  0  1  0  0  0  0  0  0  0  0  0
   17.5824  -25.8696  -11.0719 C   0  0  0  0  0  0  0  0  0  0  0  0
   19.0294  -26.2994  -10.9917 C   0  0  0  0  0  0  0  0  0  0  0  0
   19.2696  -27.5845  -11.7550 C   0  0  0  0  0  0  0  0  0  0  0  0
   20.7392  -27.9685  -11.6331 C   0  0  0  0  0  0  0  0  0  0  0  0
   21.0345  -29.1726  -12.3467 N   0  0  0  0  0  0  0  0  0  0  0  0
   17.3426  -24.6650   -8.9117 C   0  0  0  0  0  0  0  0  0  0  0  0
   18.3793  -24.6261   -8.2023 O   0  0  0  0  0  0  0  0  0  0  0  0
   12.3876  -23.6446   -5.1812 N   0  0  0  0  0  0  0  0  0  0  0  0
   13.0221  -22.7048   -6.0572 C   0  0  0  0  0  0  0  0  0  0  0  0
   12.4314  -21.6322   -6.3362 O   0  0  0  0  0  0  0  0  0  0  0  0
   14.3626  -23.0336   -6.6073 C   0  0  0  0  0  0  0  0  0  0  0  0
   14.6779  -24.4597   -6.2320 C   0  0  0  0  0  0  0  0  0  0  0  0
   16.0218  -24.9045   -6.7816 C   0  0  2  0  0  0  0  0  0  0  0  0
   16.0948  -24.8323   -8.2002 N   0  0  0  0  0  0  0  0  0  0  0  0
   16.3695  -26.2316   -6.2805 C   0  0  0  0  0  0  0  0  0  0  0  0
   16.2577  -27.1597   -7.1861 O   0  0  0  0  0  0  0  0  0  0  0  0
   16.7922  -26.6504   -5.0149 N   0  0  0  0  0  0  0  0  0  0  0  0
   16.8442  -25.7394   -3.8521 C   0  0  0  0  0  0  0  0  0  0  0  0
   17.9615  -26.2471   -2.9956 C   0  0  0  0  0  0  0  0  0  0  0  0
   18.4967  -27.4455   -3.7174 C   0  0  0  0  0  0  0  0  0  0  0  0
   17.2318  -27.9022   -4.4773 C   0  0  1  0  0  0  0  0  0  0  0  0
   16.2493  -28.4796   -3.5114 C   0  0  0  0  0  0  0  0  0  0  0  0
   16.3287  -29.8167   -3.1484 O   0  0  0  0  0  0  0  0  0  0  0  0
   15.3222  -27.8134   -2.9860 O   0  0  0  0  0  0  0  0  0  0  0  0
  2  1  1  1
  3  2  1  0
  4  3  1  0
  4  5  1  0
  5  6  1  0
  6  7  1  0
  8  2  1  0
  8  9  2  0
 10 11  1  0
 11 12  2  0
 11 13  1  0
 13 14  1  0
 15 14  1  6
 15 16  1  0
 16  8  1  0
 17 15  1  0
 18 17  2  0
 19 17  1  0
 19 23  1  0
 20 19  1  0
 20 21  1  0
 21 22  1  0
 23 22  1  0
 24 25  1  0
 23 24  1  1
 26 24  2  0
M  END
$$$$
