KQP.pdb
     RDKit          3D

 26 26  0  0  1  0  0  0  0  0999 V2000
   28.7682  -23.7103  -16.6838 N   0  0  0  0  0  0  0  0  0  0  0  0
   28.3169  -22.4295  -16.2465 C   0  0  1  0  0  0  0  0  0  0  0  0
   28.3221  -21.4939  -17.4311 C   0  0  0  0  0  0  0  0  0  0  0  0
   29.6939  -21.5424  -18.0641 C   0  0  0  0  0  0  0  0  0  0  0  0
   29.7780  -20.6388  -19.2758 C   0  0  0  0  0  0  0  0  0  0  0  0
   31.1703  -20.7513  -19.8848 C   0  0  0  0  0  0  0  0  0  0  0  0
   31.3090  -19.9308  -21.0484 N   0  0  0  0  0  0  0  0  0  0  0  0
   27.0546  -22.4391  -15.5141 C   0  0  0  0  0  0  0  0  0  0  0  0
   26.1015  -23.1551  -15.9121 O   0  0  0  0  0  0  0  0  0  0  0  0
   25.9322  -20.7745   -9.5888 N   0  0  0  0  0  0  0  0  0  0  0  0
   24.5987  -21.0764  -10.0177 C   0  0  0  0  0  0  0  0  0  0  0  0
   23.6702  -21.0837   -9.1721 O   0  0  0  0  0  0  0  0  0  0  0  0
   24.3600  -21.3715  -11.4542 C   0  0  0  0  0  0  0  0  0  0  0  0
   25.6906  -21.3223  -12.1622 C   0  0  0  0  0  0  0  0  0  0  0  0
   25.5626  -21.6860  -13.6311 C   0  0  2  0  0  0  0  0  0  0  0  0
   26.8057  -21.6598  -14.3215 N   0  0  0  0  0  0  0  0  0  0  0  0
   24.5551  -20.8527  -14.2820 C   0  0  0  0  0  0  0  0  0  0  0  0
   25.0322  -19.7169  -14.7021 O   0  0  0  0  0  0  0  0  0  0  0  0
   23.1951  -21.0774  -14.5187 N   0  0  0  0  0  0  0  0  0  0  0  0
   22.4544  -22.1962  -13.8988 C   0  0  0  0  0  0  0  0  0  0  0  0
   21.3845  -22.5601  -14.8799 C   0  0  0  0  0  0  0  0  0  0  0  0
   21.5637  -21.6128  -16.0262 C   0  0  0  0  0  0  0  0  0  0  0  0
   22.1974  -20.4078  -15.2967 C   0  0  1  0  0  0  0  0  0  0  0  0
   21.1676  -19.7415  -14.4439 C   0  0  0  0  0  0  0  0  0  0  0  0
   20.1947  -18.9380  -15.0216 O   0  0  0  0  0  0  0  0  0  0  0  0
   21.1202  -19.8632  -13.1940 O   0  0  0  0  0  0  0  0  0  0  0  0
  2  1  1  6
  3  2  1  0
  4  3  1  0
  4  5  1  0
  5  6  1  0
  6  7  1  0
  8  2  1  0
  8  9  2  0
 10 11  1  0
 11 12  2  0
 11 13  1  0
 13 14  1  0
 15 14  1  1
 15 16  1  0
 16  8  1  0
 17 15  1  0
 18 17  2  0
 19 17  1  0
 19 23  1  0
 20 19  1  0
 20 21  1  0
 21 22  1  0
 23 22  1  0
 24 25  1  0
 23 24  1  1
 26 24  2  0
M  END
$$$$
