KQP.pdb
     RDKit          3D

 26 26  0  0  1  0  0  0  0  0999 V2000
   20.0240  -18.6952  -15.8812 N   0  0  0  0  0  0  0  0  0  0  0  0
   20.8878  -19.7685  -15.5109 C   0  0  1  0  0  0  0  0  0  0  0  0
   20.9764  -20.7294  -16.6717 C   0  0  0  0  0  0  0  0  0  0  0  0
   20.1592  -20.1673  -17.8124 C   0  0  0  0  0  0  0  0  0  0  0  0
   20.2406  -21.0488  -19.0404 C   0  0  0  0  0  0  0  0  0  0  0  0
   19.4424  -20.4063  -20.1682 C   0  0  0  0  0  0  0  0  0  0  0  0
   19.5529  -21.1478  -21.3866 N   0  0  0  0  0  0  0  0  0  0  0  0
   22.1880  -19.3598  -14.9892 C   0  0  0  0  0  0  0  0  0  0  0  0
   22.8357  -18.4459  -15.5590 O   0  0  0  0  0  0  0  0  0  0  0  0
   25.1015  -20.8246   -9.5864 N   0  0  0  0  0  0  0  0  0  0  0  0
   26.2355  -20.5349  -10.4131 C   0  0  0  0  0  0  0  0  0  0  0  0
   27.3885  -20.6186   -9.9224 O   0  0  0  0  0  0  0  0  0  0  0  0
   26.0067  -20.1438  -11.8281 C   0  0  0  0  0  0  0  0  0  0  0  0
   24.5185  -20.1457  -12.0720 C   0  0  0  0  0  0  0  0  0  0  0  0
   24.1784  -19.7294  -13.4923 C   0  0  2  0  0  0  0  0  0  0  0  0
   22.8126  -19.9463  -13.8241 N   0  0  0  0  0  0  0  0  0  0  0  0
   25.0832  -20.3656  -14.4461 C   0  0  0  0  0  0  0  0  0  0  0  0
   24.5606  -21.4108  -15.0195 O   0  0  0  0  0  0  0  0  0  0  0  0
   26.3873  -20.0373  -14.8298 N   0  0  0  0  0  0  0  0  0  0  0  0
   27.2819  -19.2175  -13.9859 C   0  0  0  0  0  0  0  0  0  0  0  0
   28.1736  -18.4866  -14.9401 C   0  0  0  0  0  0  0  0  0  0  0  0
   27.7439  -18.9365  -16.3026 C   0  0  0  0  0  0  0  0  0  0  0  0
   27.1940  -20.3417  -15.9726 C   0  0  1  0  0  0  0  0  0  0  0  0
   28.3269  -21.2561  -15.6382 C   0  0  0  0  0  0  0  0  0  0  0  0
   28.5519  -21.6391  -14.3234 O   0  0  0  0  0  0  0  0  0  0  0  0
   29.1189  -21.7193  -16.4971 O   0  0  0  0  0  0  0  0  0  0  0  0
  2  1  1  6
  3  2  1  0
  4  3  1  0
  4  5  1  0
  5  6  1  0
  6  7  1  0
  8  2  1  0
  8  9  2  0
 10 11  1  0
 11 12  2  0
 11 13  1  0
 13 14  1  0
 15 14  1  1
 15 16  1  0
 16  8  1  0
 17 15  1  0
 18 17  2  0
 19 17  1  0
 19 23  1  0
 20 19  1  0
 20 21  1  0
 21 22  1  0
 23 22  1  0
 24 25  1  0
 23 24  1  1
 26 24  2  0
M  END
$$$$
