TWE.pdb
     RDKit          3D

 31 32  0  0  1  0  0  0  0  0999 V2000
   17.6644  -13.0733  -20.8084 C   0  0  0  0  0  0  0  0  0  0  0  0
   17.6128  -12.0203  -19.7246 C   0  0  1  0  0  0  0  0  0  0  0  0
   16.3173  -11.5745  -19.5357 O   0  0  0  0  0  0  0  0  0  0  0  0
   18.1527  -12.6226  -18.4523 C   0  0  2  0  0  0  0  0  0  0  0  0
   17.2413  -13.7150  -18.0955 N   0  0  0  0  0  0  0  0  0  0  0  0
   18.0944  -11.5968  -17.3838 C   0  0  0  0  0  0  0  0  0  0  0  0
   17.0215  -11.4621  -16.7026 O   0  0  0  0  0  0  0  0  0  0  0  0
   19.2107  -10.7793  -17.1203 N   0  0  0  0  0  0  0  0  0  0  0  0
   19.0914   -9.7136  -16.1285 C   0  0  1  0  0  0  0  0  0  0  0  0
   20.2186   -9.8844  -15.1847 C   0  0  0  0  0  0  0  0  0  0  0  0
   20.4035   -8.8411  -14.1719 C   0  0  0  0  0  0  0  0  0  0  0  0
   19.8543   -8.7955  -12.8949 C   0  0  0  0  0  0  0  0  0  0  0  0
   20.2279   -7.6708  -12.2649 N   0  0  0  0  0  0  0  0  0  0  0  0
   21.0191   -6.9688  -13.1077 C   0  0  0  0  0  0  0  0  0  0  0  0
   21.6745   -5.7676  -12.9676 C   0  0  0  0  0  0  0  0  0  0  0  0
   22.4579   -5.2379  -13.9774 C   0  0  0  0  0  0  0  0  0  0  0  0
   22.5823   -5.9425  -15.1629 C   0  0  0  0  0  0  0  0  0  0  0  0
   21.9241   -7.1370  -15.2900 C   0  0  0  0  0  0  0  0  0  0  0  0
   21.1341   -7.6816  -14.2863 C   0  0  0  0  0  0  0  0  0  0  0  0
   18.8532   -8.4141  -16.7210 C   0  0  0  0  0  0  0  0  0  0  0  0
   19.4202   -8.1804  -17.8470 O   0  0  0  0  0  0  0  0  0  0  0  0
   18.0560   -7.4223  -16.1438 N   0  0  0  0  0  0  0  0  0  0  0  0
   17.9322   -6.1193  -16.7891 C   0  0  1  0  0  0  0  0  0  0  0  0
   16.4794   -5.8112  -17.0003 C   0  0  0  0  0  0  0  0  0  0  0  0
   16.1882   -4.5104  -17.6616 C   0  0  0  0  0  0  0  0  0  0  0  0
   14.7518   -4.5059  -18.0968 C   0  0  0  0  0  0  0  0  0  0  0  0
   14.1896   -5.5991  -18.3428 O   0  0  0  0  0  0  0  0  0  0  0  0
   18.6774   -5.0828  -16.0503 C   0  0  0  0  0  0  0  0  0  0  0  0
   18.7399   -5.0629  -14.7792 O   0  0  0  0  0  0  0  0  0  0  0  0
   14.0252   -3.3386  -18.2364 O   0  0  0  0  0  0  0  0  0  0  0  0
   19.3554   -4.0682  -16.7013 O   0  0  0  0  0  0  0  0  0  0  0  0
  2  3  1  0
  2  1  1  6
  4  6  1  0
  4  2  1  0
  4  5  1  1
  6  7  2  0
  8  6  1  0
  8  9  1  0
  9 10  1  6
 11 10  1  0
 11 12  2  0
 13 12  1  0
 14 19  2  0
 14 13  1  0
 15 14  1  0
 16 15  2  0
 17 16  1  0
 17 18  2  0
 18 19  1  0
 19 11  1  0
 20 21  2  0
 20  9  1  0
 22 20  1  0
 23 22  1  0
 23 24  1  1
 25 24  1  0
 26 25  1  0
 27 26  2  0
 28 31  1  0
 28 23  1  0
 29 28  2  0
 30 26  1  0
M  END
$$$$
