TWE.pdb
     RDKit          3D

 31 32  0  0  1  0  0  0  0  0999 V2000
   28.7271  -18.7730  -16.0940 C   0  0  0  0  0  0  0  0  0  0  0  0
   27.6035  -19.7624  -15.8825 C   0  0  1  0  0  0  0  0  0  0  0  0
   26.9777  -20.0569  -17.0801 O   0  0  0  0  0  0  0  0  0  0  0  0
   28.1818  -21.0126  -15.2695 C   0  0  2  0  0  0  0  0  0  0  0  0
   27.9970  -22.0790  -16.2594 N   0  0  0  0  0  0  0  0  0  0  0  0
   27.3928  -21.3535  -14.0619 C   0  0  0  0  0  0  0  0  0  0  0  0
   26.2996  -22.0028  -14.1904 O   0  0  0  0  0  0  0  0  0  0  0  0
   27.8439  -20.9672  -12.7846 N   0  0  0  0  0  0  0  0  0  0  0  0
   26.9205  -21.0372  -11.6549 C   0  0  1  0  0  0  0  0  0  0  0  0
   27.7234  -20.7955  -10.4353 C   0  0  0  0  0  0  0  0  0  0  0  0
   26.9881  -20.5325   -9.1948 C   0  0  0  0  0  0  0  0  0  0  0  0
   25.6129  -20.3940   -9.0403 C   0  0  0  0  0  0  0  0  0  0  0  0
   25.3101  -20.1320   -7.7592 N   0  0  0  0  0  0  0  0  0  0  0  0
   26.4677  -20.0954   -7.0606 C   0  0  0  0  0  0  0  0  0  0  0  0
   26.7307  -19.8823   -5.7274 C   0  0  0  0  0  0  0  0  0  0  0  0
   28.0182  -19.9061   -5.2214 C   0  0  0  0  0  0  0  0  0  0  0  0
   29.0698  -20.1524   -6.0879 C   0  0  0  0  0  0  0  0  0  0  0  0
   28.7944  -20.3625   -7.4131 C   0  0  0  0  0  0  0  0  0  0  0  0
   27.5084  -20.3412   -7.9362 C   0  0  0  0  0  0  0  0  0  0  0  0
   25.7077  -20.2756  -11.8681 C   0  0  0  0  0  0  0  0  0  0  0  0
   25.7869  -19.2758  -12.6671 O   0  0  0  0  0  0  0  0  0  0  0  0
   24.4822  -20.5651  -11.2628 N   0  0  0  0  0  0  0  0  0  0  0  0
   23.2461  -20.4569  -12.0308 C   0  0  1  0  0  0  0  0  0  0  0  0
   23.3591  -21.3003  -13.2661 C   0  0  0  0  0  0  0  0  0  0  0  0
   23.2671  -20.5652  -14.5565 C   0  0  0  0  0  0  0  0  0  0  0  0
   21.8267  -20.5110  -14.9748 C   0  0  0  0  0  0  0  0  0  0  0  0
   21.2280  -19.4100  -14.9450 O   0  0  0  0  0  0  0  0  0  0  0  0
   22.0679  -20.7510  -11.1936 C   0  0  0  0  0  0  0  0  0  0  0  0
   21.6501  -21.9369  -10.9963 O   0  0  0  0  0  0  0  0  0  0  0  0
   21.1352  -21.6325  -15.3921 O   0  0  0  0  0  0  0  0  0  0  0  0
   21.3467  -19.7483  -10.5710 O   0  0  0  0  0  0  0  0  0  0  0  0
  2  3  1  0
  2  1  1  6
  4  6  1  0
  4  2  1  0
  4  5  1  6
  6  7  2  0
  8  6  1  0
  8  9  1  0
  9 10  1  1
 11 10  1  0
 11 12  2  0
 13 12  1  0
 14 19  2  0
 14 13  1  0
 15 14  1  0
 16 15  2  0
 17 16  1  0
 17 18  2  0
 18 19  1  0
 19 11  1  0
 20 21  2  0
 20  9  1  0
 22 20  1  0
 23 22  1  0
 23 24  1  6
 25 24  1  0
 26 25  1  0
 27 26  2  0
 28 31  1  0
 28 23  1  0
 29 28  2  0
 30 26  1  0
M  END
$$$$
