TWE.pdb
     RDKit          3D

 31 32  0  0  1  0  0  0  0  0999 V2000
   28.8716  -18.1107  -14.8219 C   0  0  0  0  0  0  0  0  0  0  0  0
   27.7487  -18.7778  -14.0602 C   0  0  1  0  0  0  0  0  0  0  0  0
   26.7576  -19.2071  -14.9242 O   0  0  0  0  0  0  0  0  0  0  0  0
   28.3216  -19.9442  -13.2958 C   0  0  2  0  0  0  0  0  0  0  0  0
   28.7207  -20.9370  -14.2990 N   0  0  0  0  0  0  0  0  0  0  0  0
   27.2489  -20.5309  -12.4579 C   0  0  0  0  0  0  0  0  0  0  0  0
   26.5958  -21.5400  -12.8923 O   0  0  0  0  0  0  0  0  0  0  0  0
   26.9527  -19.9831  -11.1945 N   0  0  0  0  0  0  0  0  0  0  0  0
   25.8523  -20.5473  -10.4168 C   0  0  1  0  0  0  0  0  0  0  0  0
   26.0906  -20.1664   -9.0066 C   0  0  0  0  0  0  0  0  0  0  0  0
   27.3162  -20.6686   -8.3788 C   0  0  0  0  0  0  0  0  0  0  0  0
   28.2189  -21.5880   -8.9024 C   0  0  0  0  0  0  0  0  0  0  0  0
   29.2076  -21.8240   -8.0260 N   0  0  0  0  0  0  0  0  0  0  0  0
   28.9731  -21.0720   -6.9266 C   0  0  0  0  0  0  0  0  0  0  0  0
   29.6686  -20.9223   -5.7494 C   0  0  0  0  0  0  0  0  0  0  0  0
   29.2412  -20.0673   -4.7492 C   0  0  0  0  0  0  0  0  0  0  0  0
   28.0774  -19.3430   -4.9445 C   0  0  0  0  0  0  0  0  0  0  0  0
   27.3939  -19.5015   -6.1209 C   0  0  0  0  0  0  0  0  0  0  0  0
   27.8094  -20.3557   -7.1337 C   0  0  0  0  0  0  0  0  0  0  0  0
   24.5551  -20.2977  -11.0094 C   0  0  0  0  0  0  0  0  0  0  0  0
   24.3474  -19.1185  -11.4684 O   0  0  0  0  0  0  0  0  0  0  0  0
   23.5390  -21.2519  -11.1055 N   0  0  0  0  0  0  0  0  0  0  0  0
   22.3243  -20.9504  -11.8559 C   0  0  1  0  0  0  0  0  0  0  0  0
   22.2888  -21.7956  -13.0946 C   0  0  0  0  0  0  0  0  0  0  0  0
   21.0736  -21.6455  -13.9401 C   0  0  0  0  0  0  0  0  0  0  0  0
   21.4057  -22.0823  -15.3371 C   0  0  0  0  0  0  0  0  0  0  0  0
   22.0308  -23.1561  -15.5038 O   0  0  0  0  0  0  0  0  0  0  0  0
   21.1262  -21.0626  -11.0029 C   0  0  0  0  0  0  0  0  0  0  0  0
   21.1586  -21.5963   -9.8479 O   0  0  0  0  0  0  0  0  0  0  0  0
   21.0469  -21.3426  -16.4480 O   0  0  0  0  0  0  0  0  0  0  0  0
   19.8924  -20.5902  -11.4124 O   0  0  0  0  0  0  0  0  0  0  0  0
  2  3  1  0
  2  1  1  6
  4  6  1  0
  4  2  1  0
  4  5  1  6
  6  7  2  0
  8  6  1  0
  8  9  1  0
  9 10  1  1
 11 10  1  0
 11 12  2  0
 13 12  1  0
 14 19  2  0
 14 13  1  0
 15 14  1  0
 16 15  2  0
 17 16  1  0
 17 18  2  0
 18 19  1  0
 19 11  1  0
 20 21  2  0
 20  9  1  0
 22 20  1  0
 23 22  1  0
 23 24  1  6
 25 24  1  0
 26 25  1  0
 27 26  2  0
 28 31  1  0
 28 23  1  0
 29 28  2  0
 30 26  1  0
M  END
$$$$
