TWE.pdb
     RDKit          3D

 31 32  0  0  1  0  0  0  0  0999 V2000
   23.9787  -34.6144   -9.7279 C   0  0  0  0  0  0  0  0  0  0  0  0
   24.3658  -34.5206   -8.2693 C   0  0  1  0  0  0  0  0  0  0  0  0
   25.6034  -35.0986   -8.0524 O   0  0  0  0  0  0  0  0  0  0  0  0
   24.3889  -33.0649   -7.8775 C   0  0  2  0  0  0  0  0  0  0  0  0
   25.5684  -32.4832   -8.5268 N   0  0  0  0  0  0  0  0  0  0  0  0
   24.5712  -32.9751   -6.4092 C   0  0  0  0  0  0  0  0  0  0  0  0
   25.7258  -32.6974   -5.9371 O   0  0  0  0  0  0  0  0  0  0  0  0
   23.4824  -33.1921   -5.5423 N   0  0  0  0  0  0  0  0  0  0  0  0
   23.6954  -33.1038   -4.0999 C   0  0  1  0  0  0  0  0  0  0  0  0
   22.4378  -32.5856   -3.5164 C   0  0  0  0  0  0  0  0  0  0  0  0
   22.2412  -31.1333   -3.5399 C   0  0  0  0  0  0  0  0  0  0  0  0
   22.7119  -30.2316   -4.4885 C   0  0  0  0  0  0  0  0  0  0  0  0
   22.3549  -28.9798   -4.1616 N   0  0  0  0  0  0  0  0  0  0  0  0
   21.6521  -29.0389   -3.0075 C   0  0  0  0  0  0  0  0  0  0  0  0
   21.0481  -28.0643   -2.2477 C   0  0  0  0  0  0  0  0  0  0  0  0
   20.3552  -28.3632   -1.0881 C   0  0  0  0  0  0  0  0  0  0  0  0
   20.2706  -29.6852   -0.6850 C   0  0  0  0  0  0  0  0  0  0  0  0
   20.8768  -30.6461   -1.4501 C   0  0  0  0  0  0  0  0  0  0  0  0
   21.5760  -30.3622   -2.6157 C   0  0  0  0  0  0  0  0  0  0  0  0
   24.2966  -34.2975   -3.5431 C   0  0  0  0  0  0  0  0  0  0  0  0
   23.8358  -35.4213   -3.9541 O   0  0  0  0  0  0  0  0  0  0  0  0
   25.3292  -34.2908   -2.6019 N   0  0  0  0  0  0  0  0  0  0  0  0
   25.8627  -35.5513   -2.0960 C   0  0  1  0  0  0  0  0  0  0  0  0
   27.3192  -35.3782   -1.7819 C   0  0  0  0  0  0  0  0  0  0  0  0
   28.0162  -36.5921   -1.2771 C   0  0  0  0  0  0  0  0  0  0  0  0
   29.4233  -36.2188   -0.9118 C   0  0  0  0  0  0  0  0  0  0  0  0
   29.7549  -35.0101   -0.9346 O   0  0  0  0  0  0  0  0  0  0  0  0
   25.0513  -36.0655   -0.9767 C   0  0  0  0  0  0  0  0  0  0  0  0
   24.6636  -35.3236   -0.0180 O   0  0  0  0  0  0  0  0  0  0  0  0
   30.3681  -37.1606   -0.5507 O   0  0  0  0  0  0  0  0  0  0  0  0
   24.6627  -37.3910   -0.9061 O   0  0  0  0  0  0  0  0  0  0  0  0
  2  3  1  0
  2  1  1  6
  4  6  1  0
  4  2  1  0
  4  5  1  6
  6  7  2  0
  8  6  1  0
  8  9  1  0
  9 10  1  1
 11 10  1  0
 11 12  2  0
 13 12  1  0
 14 19  2  0
 14 13  1  0
 15 14  1  0
 16 15  2  0
 17 16  1  0
 17 18  2  0
 18 19  1  0
 19 11  1  0
 20 21  2  0
 20  9  1  0
 22 20  1  0
 23 22  1  0
 23 24  1  1
 25 24  1  0
 26 25  1  0
 27 26  2  0
 28 31  1  0
 28 23  1  0
 29 28  2  0
 30 26  1  0
M  END
$$$$
