TWE.pdb
     RDKit          3D

 31 32  0  0  1  0  0  0  0  0999 V2000
   13.3542  -24.7935    0.0196 C   0  0  0  0  0  0  0  0  0  0  0  0
   14.3048  -23.8909    0.7732 C   0  0  1  0  0  0  0  0  0  0  0  0
   15.5125  -24.5272    0.9955 O   0  0  0  0  0  0  0  0  0  0  0  0
   14.5121  -22.6373   -0.0384 C   0  0  2  0  0  0  0  0  0  0  0  0
   15.1734  -23.0555   -1.2790 N   0  0  0  0  0  0  0  0  0  0  0  0
   15.4321  -21.7426    0.7035 C   0  0  0  0  0  0  0  0  0  0  0  0
   16.5221  -21.3678    0.1515 O   0  0  0  0  0  0  0  0  0  0  0  0
   15.1080  -21.3082    2.0036 N   0  0  0  0  0  0  0  0  0  0  0  0
   15.9423  -20.2926    2.6409 C   0  0  1  0  0  0  0  0  0  0  0  0
   15.8615  -19.0832    1.7916 C   0  0  0  0  0  0  0  0  0  0  0  0
   16.7913  -17.9918    2.0961 C   0  0  0  0  0  0  0  0  0  0  0  0
   18.1813  -18.0316    2.0642 C   0  0  0  0  0  0  0  0  0  0  0  0
   18.6917  -16.8457    2.4311 N   0  0  0  0  0  0  0  0  0  0  0  0
   17.6576  -16.0183    2.7057 C   0  0  0  0  0  0  0  0  0  0  0  0
   17.6136  -14.7034    3.1073 C   0  0  0  0  0  0  0  0  0  0  0  0
   16.4173  -14.0409    3.3175 C   0  0  0  0  0  0  0  0  0  0  0  0
   15.2316  -14.7272    3.1161 C   0  0  0  0  0  0  0  0  0  0  0  0
   15.2893  -16.0362    2.7168 C   0  0  0  0  0  0  0  0  0  0  0  0
   16.4814  -16.7150    2.5022 C   0  0  0  0  0  0  0  0  0  0  0  0
   15.7038  -20.1768    4.0643 C   0  0  0  0  0  0  0  0  0  0  0  0
   14.4795  -20.1260    4.4421 O   0  0  0  0  0  0  0  0  0  0  0  0
   16.7142  -20.1184    5.0275 N   0  0  0  0  0  0  0  0  0  0  0  0
   16.3766  -19.8594    6.4234 C   0  0  1  0  0  0  0  0  0  0  0  0
   17.3938  -18.9264    7.0106 C   0  0  0  0  0  0  0  0  0  0  0  0
   17.1476  -18.5108    8.4179 C   0  0  0  0  0  0  0  0  0  0  0  0
   18.2818  -19.0042    9.2680 C   0  0  0  0  0  0  0  0  0  0  0  0
   19.3909  -18.4245    9.1947 O   0  0  0  0  0  0  0  0  0  0  0  0
   14.9792  -19.4081    6.5616 C   0  0  0  0  0  0  0  0  0  0  0  0
   14.4603  -18.5463    5.7819 O   0  0  0  0  0  0  0  0  0  0  0  0
   18.1478  -20.0762   10.1301 O   0  0  0  0  0  0  0  0  0  0  0  0
   14.1483  -19.8999    7.5520 O   0  0  0  0  0  0  0  0  0  0  0  0
  2  3  1  0
  2  1  1  6
  4  6  1  0
  4  2  1  0
  4  5  1  6
  6  7  2  0
  8  6  1  0
  8  9  1  0
  9 10  1  6
 11 10  1  0
 11 12  2  0
 13 12  1  0
 14 19  2  0
 14 13  1  0
 15 14  1  0
 16 15  2  0
 17 16  1  0
 17 18  2  0
 18 19  1  0
 19 11  1  0
 20 21  2  0
 20  9  1  0
 22 20  1  0
 23 22  1  0
 23 24  1  6
 25 24  1  0
 26 25  1  0
 27 26  2  0
 28 31  1  0
 28 23  1  0
 29 28  2  0
 30 26  1  0
M  END
$$$$
