TWE.pdb
     RDKit          3D

 31 32  0  0  1  0  0  0  0  0999 V2000
   28.3781  -18.7595  -15.8279 C   0  0  0  0  0  0  0  0  0  0  0  0
   27.5015  -19.2286  -14.6887 C   0  0  1  0  0  0  0  0  0  0  0  0
   26.1821  -19.3237  -15.0925 O   0  0  0  0  0  0  0  0  0  0  0  0
   28.0072  -20.5704  -14.2228 C   0  0  2  0  0  0  0  0  0  0  0  0
   27.6736  -21.5264  -15.2840 N   0  0  0  0  0  0  0  0  0  0  0  0
   27.2658  -20.9538  -12.9979 C   0  0  0  0  0  0  0  0  0  0  0  0
   26.2896  -21.7738  -13.0872 O   0  0  0  0  0  0  0  0  0  0  0  0
   27.6340  -20.4209  -11.7471 N   0  0  0  0  0  0  0  0  0  0  0  0
   26.8185  -20.7316  -10.5757 C   0  0  1  0  0  0  0  0  0  0  0  0
   27.6358  -20.3951   -9.3885 C   0  0  0  0  0  0  0  0  0  0  0  0
   26.9870  -20.5082   -8.0791 C   0  0  0  0  0  0  0  0  0  0  0  0
   25.7180  -21.0070   -7.8045 C   0  0  0  0  0  0  0  0  0  0  0  0
   25.4580  -20.9263   -6.4902 N   0  0  0  0  0  0  0  0  0  0  0  0
   26.5392  -20.3805   -5.8882 C   0  0  0  0  0  0  0  0  0  0  0  0
   26.8091  -20.0890   -4.5713 C   0  0  0  0  0  0  0  0  0  0  0  0
   28.0138  -19.5360   -4.1750 C   0  0  0  0  0  0  0  0  0  0  0  0
   28.9732  -19.2702   -5.1374 C   0  0  0  0  0  0  0  0  0  0  0  0
   28.6918  -19.5647   -6.4452 C   0  0  0  0  0  0  0  0  0  0  0  0
   27.4878  -20.1191   -6.8588 C   0  0  0  0  0  0  0  0  0  0  0  0
   25.4678  -20.2196  -10.6751 C   0  0  0  0  0  0  0  0  0  0  0  0
   25.3409  -18.9543  -10.8396 O   0  0  0  0  0  0  0  0  0  0  0  0
   24.3200  -21.0131  -10.6027 N   0  0  0  0  0  0  0  0  0  0  0  0
   23.0181  -20.4437  -10.9349 C   0  0  1  0  0  0  0  0  0  0  0  0
   22.5662  -20.9882  -12.2575 C   0  0  0  0  0  0  0  0  0  0  0  0
   22.4268  -19.9879  -13.3502 C   0  0  0  0  0  0  0  0  0  0  0  0
   21.9274  -20.6888  -14.5798 C   0  0  0  0  0  0  0  0  0  0  0  0
   21.8572  -20.0490  -15.6557 O   0  0  0  0  0  0  0  0  0  0  0  0
   22.0549  -20.6311   -9.8336 C   0  0  0  0  0  0  0  0  0  0  0  0
   22.2733  -21.4264   -8.8642 O   0  0  0  0  0  0  0  0  0  0  0  0
   21.5415  -22.0158  -14.5692 O   0  0  0  0  0  0  0  0  0  0  0  0
   20.8530  -19.9480   -9.7916 O   0  0  0  0  0  0  0  0  0  0  0  0
  2  3  1  0
  2  1  1  6
  4  6  1  0
  4  2  1  0
  4  5  1  6
  6  7  2  0
  8  6  1  0
  8  9  1  0
  9 10  1  1
 11 10  1  0
 11 12  2  0
 13 12  1  0
 14 19  2  0
 14 13  1  0
 15 14  1  0
 16 15  2  0
 17 16  1  0
 17 18  2  0
 18 19  1  0
 19 11  1  0
 20 21  2  0
 20  9  1  0
 22 20  1  0
 23 22  1  0
 23 24  1  6
 25 24  1  0
 26 25  1  0
 27 26  2  0
 28 31  1  0
 28 23  1  0
 29 28  2  0
 30 26  1  0
M  END
$$$$
