TWE.pdb
     RDKit          3D

 31 32  0  0  1  0  0  0  0  0999 V2000
   27.9749  -22.4670  -18.4509 C   0  0  0  0  0  0  0  0  0  0  0  0
   26.9285  -22.3065  -17.3714 C   0  0  1  0  0  0  0  0  0  0  0  0
   25.7901  -23.0283  -17.6810 O   0  0  0  0  0  0  0  0  0  0  0  0
   27.5157  -22.7838  -16.0673 C   0  0  2  0  0  0  0  0  0  0  0  0
   27.6600  -24.2383  -16.1894 N   0  0  0  0  0  0  0  0  0  0  0  0
   26.5466  -22.4993  -14.9823 C   0  0  0  0  0  0  0  0  0  0  0  0
   25.8617  -23.4577  -14.4869 O   0  0  0  0  0  0  0  0  0  0  0  0
   26.3831  -21.1858  -14.5005 N   0  0  0  0  0  0  0  0  0  0  0  0
   25.4702  -20.9477  -13.3853 C   0  0  1  0  0  0  0  0  0  0  0  0
   26.0846  -19.8895  -12.5528 C   0  0  0  0  0  0  0  0  0  0  0  0
   27.1918  -20.2879  -11.6789 C   0  0  0  0  0  0  0  0  0  0  0  0
   28.4861  -20.6297  -12.0565 C   0  0  0  0  0  0  0  0  0  0  0  0
   29.2143  -20.9650  -10.9801 N   0  0  0  0  0  0  0  0  0  0  0  0
   28.4196  -20.8496   -9.8918 C   0  0  0  0  0  0  0  0  0  0  0  0
   28.6584  -21.0552   -8.5528 C   0  0  0  0  0  0  0  0  0  0  0  0
   27.6803  -20.8561   -7.5948 C   0  0  0  0  0  0  0  0  0  0  0  0
   26.4248  -20.4372   -8.0019 C   0  0  0  0  0  0  0  0  0  0  0  0
   26.1999  -20.2366   -9.3381 C   0  0  0  0  0  0  0  0  0  0  0  0
   27.1705  -20.4325  -10.3115 C   0  0  0  0  0  0  0  0  0  0  0  0
   24.0908  -20.8099  -13.8034 C   0  0  0  0  0  0  0  0  0  0  0  0
   23.8593  -20.0022  -14.7720 O   0  0  0  0  0  0  0  0  0  0  0  0
   23.0215  -21.4946  -13.2203 N   0  0  0  0  0  0  0  0  0  0  0  0
   21.6648  -21.2847  -13.7151 C   0  0  1  0  0  0  0  0  0  0  0  0
   20.8471  -22.5128  -13.4443 C   0  0  0  0  0  0  0  0  0  0  0  0
   20.1329  -22.5340  -12.1391 C   0  0  0  0  0  0  0  0  0  0  0  0
   18.9280  -23.4197  -12.2673 C   0  0  0  0  0  0  0  0  0  0  0  0
   18.7140  -23.9975  -13.3591 O   0  0  0  0  0  0  0  0  0  0  0  0
   21.0884  -20.0352  -13.1840 C   0  0  0  0  0  0  0  0  0  0  0  0
   21.4953  -19.5019  -12.1024 O   0  0  0  0  0  0  0  0  0  0  0  0
   18.0444  -23.6218  -11.2240 O   0  0  0  0  0  0  0  0  0  0  0  0
   20.0673  -19.3680  -13.8361 O   0  0  0  0  0  0  0  0  0  0  0  0
  2  3  1  0
  2  1  1  6
  4  6  1  0
  4  2  1  0
  4  5  1  6
  6  7  2  0
  8  6  1  0
  8  9  1  0
  9 10  1  6
 11 10  1  0
 11 12  2  0
 13 12  1  0
 14 19  2  0
 14 13  1  0
 15 14  1  0
 16 15  2  0
 17 16  1  0
 17 18  2  0
 18 19  1  0
 19 11  1  0
 20 21  2  0
 20  9  1  0
 22 20  1  0
 23 22  1  0
 23 24  1  1
 25 24  1  0
 26 25  1  0
 27 26  2  0
 28 31  1  0
 28 23  1  0
 29 28  2  0
 30 26  1  0
M  END
$$$$
