LGW.pdb
     RDKit          3D

 27 28  0  0  1  0  0  0  0  0999 V2000
   26.7449  -18.4015  -20.0245 C   0  0  0  0  0  0  0  0  0  0  0  0
   27.0625  -19.4413  -18.9978 C   0  0  1  0  0  0  0  0  0  0  0  0
   28.5307  -19.8563  -19.1117 C   0  0  0  0  0  0  0  0  0  0  0  0
   26.8021  -19.0549  -17.5961 C   0  0  0  0  0  0  0  0  0  0  0  0
   27.1579  -20.0742  -16.5852 C   0  0  2  0  0  0  0  0  0  0  0  0
   26.4364  -21.3278  -16.8280 N   0  0  0  0  0  0  0  0  0  0  0  0
   26.9520  -19.6473  -15.2078 C   0  0  0  0  0  0  0  0  0  0  0  0
   25.8956  -19.0885  -14.7987 O   0  0  0  0  0  0  0  0  0  0  0  0
   27.9880  -19.8644  -14.2441 N   0  0  0  0  0  0  0  0  0  0  0  0
   27.8260  -19.3481  -12.9218 C   0  0  0  0  0  0  0  0  0  0  0  0
   27.1158  -20.3549  -12.0693 C   0  0  0  0  0  0  0  0  0  0  0  0
   26.6979  -21.4241  -12.5804 O   0  0  0  0  0  0  0  0  0  0  0  0
   26.8916  -20.1391  -10.6749 N   0  0  0  0  0  0  0  0  0  0  0  0
   26.2806  -21.1832   -9.9094 C   0  0  1  0  0  0  0  0  0  0  0  0
   26.9915  -21.4712   -8.6508 C   0  0  0  0  0  0  0  0  0  0  0  0
   27.2149  -20.3464   -7.7439 C   0  0  0  0  0  0  0  0  0  0  0  0
   26.7897  -19.0372   -7.7422 C   0  0  0  0  0  0  0  0  0  0  0  0
   27.2722  -18.3921   -6.6457 N   0  0  0  0  0  0  0  0  0  0  0  0
   28.0171  -19.2549   -5.9111 C   0  0  0  0  0  0  0  0  0  0  0  0
   28.7019  -19.0705   -4.7278 C   0  0  0  0  0  0  0  0  0  0  0  0
   29.3885  -20.1249   -4.1798 C   0  0  0  0  0  0  0  0  0  0  0  0
   29.3795  -21.3426   -4.8218 C   0  0  0  0  0  0  0  0  0  0  0  0
   28.6824  -21.5118   -6.0177 C   0  0  0  0  0  0  0  0  0  0  0  0
   27.9894  -20.4578   -6.5754 C   0  0  0  0  0  0  0  0  0  0  0  0
   24.8296  -20.9325   -9.6742 C   0  0  0  0  0  0  0  0  0  0  0  0
   24.2596  -19.7330  -10.0251 O   0  0  0  0  0  0  0  0  0  0  0  0
   24.1445  -21.8268   -9.1575 O   0  0  0  0  0  0  0  0  0  0  0  0
  2  4  1  0
  2  1  1  6
  2  3  1  0
  5  4  1  0
  5  6  1  6
  7  5  1  0
  8  7  2  0
  9  7  1  0
 10  9  1  0
 11 10  1  0
 11 13  1  0
 12 11  2  0
 14 15  1  1
 14 25  1  0
 14 13  1  0
 16 15  1  0
 16 17  2  0
 18 17  1  0
 19 24  2  0
 19 18  1  0
 20 19  1  0
 21 22  1  0
 21 20  2  0
 22 23  2  0
 23 24  1  0
 24 16  1  0
 25 26  1  0
 27 25  2  0
M  END
$$$$
