LGW.pdb
     RDKit          3D

 27 28  0  0  1  0  0  0  0  0999 V2000
   22.9265  -19.2587  -16.2860 C   0  0  0  0  0  0  0  0  0  0  0  0
   24.2186  -20.0114  -16.2706 C   0  0  1  0  0  0  0  0  0  0  0  0
   24.0870  -21.2918  -17.0975 C   0  0  0  0  0  0  0  0  0  0  0  0
   25.3968  -19.2674  -16.7609 C   0  0  0  0  0  0  0  0  0  0  0  0
   26.6973  -19.9413  -16.5561 C   0  0  2  0  0  0  0  0  0  0  0  0
   26.5869  -21.3818  -16.8083 N   0  0  0  0  0  0  0  0  0  0  0  0
   27.2872  -19.7157  -15.2435 C   0  0  0  0  0  0  0  0  0  0  0  0
   27.4526  -18.5698  -14.7381 O   0  0  0  0  0  0  0  0  0  0  0  0
   27.7084  -20.8383  -14.4616 N   0  0  0  0  0  0  0  0  0  0  0  0
   28.1835  -20.6199  -13.1321 C   0  0  0  0  0  0  0  0  0  0  0  0
   27.1532  -21.0779  -12.1453 C   0  0  0  0  0  0  0  0  0  0  0  0
   26.0946  -21.6194  -12.5518 O   0  0  0  0  0  0  0  0  0  0  0  0
   27.3330  -20.9171  -10.7371 N   0  0  0  0  0  0  0  0  0  0  0  0
   26.3615  -21.4862   -9.8528 C   0  0  1  0  0  0  0  0  0  0  0  0
   26.8436  -21.6121   -8.4658 C   0  0  0  0  0  0  0  0  0  0  0  0
   27.1785  -20.3730   -7.7658 C   0  0  0  0  0  0  0  0  0  0  0  0
   26.8370  -19.0546   -7.9661 C   0  0  0  0  0  0  0  0  0  0  0  0
   27.4085  -18.2748   -7.0088 N   0  0  0  0  0  0  0  0  0  0  0  0
   28.1303  -19.0562   -6.1677 C   0  0  0  0  0  0  0  0  0  0  0  0
   28.8785  -18.7297   -5.0556 C   0  0  0  0  0  0  0  0  0  0  0  0
   29.5215  -19.7260   -4.3647 C   0  0  0  0  0  0  0  0  0  0  0  0
   29.4067  -21.0283   -4.7956 C   0  0  0  0  0  0  0  0  0  0  0  0
   28.6466  -21.3410   -5.9222 C   0  0  0  0  0  0  0  0  0  0  0  0
   27.9967  -20.3463   -6.6224 C   0  0  0  0  0  0  0  0  0  0  0  0
   25.0555  -20.7692   -9.9161 C   0  0  0  0  0  0  0  0  0  0  0  0
   23.9180  -21.3377   -9.3969 O   0  0  0  0  0  0  0  0  0  0  0  0
   25.0137  -19.6489  -10.4442 O   0  0  0  0  0  0  0  0  0  0  0  0
  2  4  1  0
  2  1  1  6
  2  3  1  0
  5  4  1  0
  5  6  1  1
  7  5  1  0
  8  7  2  0
  9  7  1  0
 10  9  1  0
 11 10  1  0
 11 13  1  0
 12 11  2  0
 14 15  1  1
 14 25  1  0
 14 13  1  0
 16 15  1  0
 16 17  2  0
 18 17  1  0
 19 24  2  0
 19 18  1  0
 20 19  1  0
 21 22  1  0
 21 20  2  0
 22 23  2  0
 23 24  1  0
 24 16  1  0
 25 26  1  0
 27 25  2  0
M  END
$$$$
