LGW.pdb
     RDKit          3D

 27 28  0  0  1  0  0  0  0  0999 V2000
   21.4324  -22.3320  -18.3254 C   0  0  0  0  0  0  0  0  0  0  0  0
   21.4248  -21.0946  -17.4858 C   0  0  1  0  0  0  0  0  0  0  0  0
   20.4522  -20.0705  -18.0739 C   0  0  0  0  0  0  0  0  0  0  0  0
   21.0801  -21.2906  -16.0628 C   0  0  0  0  0  0  0  0  0  0  0  0
   21.1879  -20.0826  -15.2165 C   0  0  2  0  0  0  0  0  0  0  0  0
   22.2480  -19.1939  -15.7035 N   0  0  0  0  0  0  0  0  0  0  0  0
   21.3910  -20.3606  -13.8010 C   0  0  0  0  0  0  0  0  0  0  0  0
   20.6817  -21.1684  -13.1377 O   0  0  0  0  0  0  0  0  0  0  0  0
   22.4483  -19.6968  -13.1007 N   0  0  0  0  0  0  0  0  0  0  0  0
   22.6483  -19.9797  -11.7146 C   0  0  0  0  0  0  0  0  0  0  0  0
   24.1049  -20.2113  -11.4508 C   0  0  0  0  0  0  0  0  0  0  0  0
   24.9383  -20.0786  -12.3818 O   0  0  0  0  0  0  0  0  0  0  0  0
   24.5877  -20.5849  -10.1591 N   0  0  0  0  0  0  0  0  0  0  0  0
   25.9971  -20.5327   -9.9128 C   0  0  1  0  0  0  0  0  0  0  0  0
   26.3348  -20.5198   -8.4782 C   0  0  0  0  0  0  0  0  0  0  0  0
   27.7360  -20.2909   -8.1295 C   0  0  0  0  0  0  0  0  0  0  0  0
   28.9129  -20.3945   -8.8358 C   0  0  0  0  0  0  0  0  0  0  0  0
   29.9636  -20.0483   -8.0438 N   0  0  0  0  0  0  0  0  0  0  0  0
   29.5041  -19.7132   -6.8127 C   0  0  0  0  0  0  0  0  0  0  0  0
   30.1781  -19.2973   -5.6831 C   0  0  0  0  0  0  0  0  0  0  0  0
   29.4661  -19.0128   -4.5449 C   0  0  0  0  0  0  0  0  0  0  0  0
   28.0963  -19.1485   -4.5543 C   0  0  0  0  0  0  0  0  0  0  0  0
   27.4306  -19.5706   -5.7047 C   0  0  0  0  0  0  0  0  0  0  0  0
   28.1380  -19.8583   -6.8532 C   0  0  0  0  0  0  0  0  0  0  0  0
   26.7350  -21.6054  -10.6398 C   0  0  0  0  0  0  0  0  0  0  0  0
   27.9594  -21.3522  -11.2084 O   0  0  0  0  0  0  0  0  0  0  0  0
   26.2251  -22.7320  -10.7210 O   0  0  0  0  0  0  0  0  0  0  0  0
  2  4  1  0
  2  1  1  6
  2  3  1  0
  5  4  1  0
  5  6  1  6
  7  5  1  0
  8  7  2  0
  9  7  1  0
 10  9  1  0
 11 10  1  0
 11 13  1  0
 12 11  2  0
 14 15  1  1
 14 25  1  0
 14 13  1  0
 16 15  1  0
 16 17  2  0
 18 17  1  0
 19 24  2  0
 19 18  1  0
 20 19  1  0
 21 22  1  0
 21 20  2  0
 22 23  2  0
 23 24  1  0
 24 16  1  0
 25 26  1  0
 27 25  2  0
M  END
$$$$
