LGW.pdb
     RDKit          3D

 27 28  0  0  1  0  0  0  0  0999 V2000
   22.0512  -25.4314  -17.1153 C   0  0  0  0  0  0  0  0  0  0  0  0
   23.1668  -24.9689  -16.2333 C   0  0  1  0  0  0  0  0  0  0  0  0
   24.3475  -24.5013  -17.0866 C   0  0  0  0  0  0  0  0  0  0  0  0
   22.8264  -23.8861  -15.2880 C   0  0  0  0  0  0  0  0  0  0  0  0
   23.9709  -23.3163  -14.5444 C   0  0  2  0  0  0  0  0  0  0  0  0
   24.6073  -24.3335  -13.7012 N   0  0  0  0  0  0  0  0  0  0  0  0
   23.6389  -22.1482  -13.7398 C   0  0  0  0  0  0  0  0  0  0  0  0
   23.2294  -21.0567  -14.2263 O   0  0  0  0  0  0  0  0  0  0  0  0
   23.7727  -22.2162  -12.3163 N   0  0  0  0  0  0  0  0  0  0  0  0
   23.4728  -21.0588  -11.5342 C   0  0  0  0  0  0  0  0  0  0  0  0
   24.7367  -20.4949  -10.9602 C   0  0  0  0  0  0  0  0  0  0  0  0
   24.7197  -19.3762  -10.3882 O   0  0  0  0  0  0  0  0  0  0  0  0
   25.9803  -21.1934  -11.0426 N   0  0  0  0  0  0  0  0  0  0  0  0
   27.1905  -20.4699  -10.7941 C   0  0  1  0  0  0  0  0  0  0  0  0
   27.8589  -20.8707   -9.5432 C   0  0  0  0  0  0  0  0  0  0  0  0
   27.2474  -20.4239   -8.2927 C   0  0  0  0  0  0  0  0  0  0  0  0
   25.9474  -20.1758   -7.9143 C   0  0  0  0  0  0  0  0  0  0  0  0
   25.9075  -19.7881   -6.6107 N   0  0  0  0  0  0  0  0  0  0  0  0
   27.1676  -19.7734   -6.1100 C   0  0  0  0  0  0  0  0  0  0  0  0
   27.6318  -19.4540   -4.8507 C   0  0  0  0  0  0  0  0  0  0  0  0
   28.9785  -19.5233   -4.5957 C   0  0  0  0  0  0  0  0  0  0  0  0
   29.8366  -19.9092   -5.6005 C   0  0  0  0  0  0  0  0  0  0  0  0
   29.3507  -20.2283   -6.8681 C   0  0  0  0  0  0  0  0  0  0  0  0
   27.9988  -20.1619   -7.1333 C   0  0  0  0  0  0  0  0  0  0  0  0
   28.1246  -20.5211  -11.9553 C   0  0  0  0  0  0  0  0  0  0  0  0
   29.1183  -19.5835  -12.0975 O   0  0  0  0  0  0  0  0  0  0  0  0
   27.9906  -21.4267  -12.7908 O   0  0  0  0  0  0  0  0  0  0  0  0
  2  4  1  0
  2  1  1  6
  2  3  1  0
  5  4  1  0
  5  6  1  1
  7  5  1  0
  8  7  2  0
  9  7  1  0
 10  9  1  0
 11 10  1  0
 11 13  1  0
 12 11  2  0
 14 15  1  1
 14 25  1  0
 14 13  1  0
 16 15  1  0
 16 17  2  0
 18 17  1  0
 19 24  2  0
 19 18  1  0
 20 19  1  0
 21 22  1  0
 21 20  2  0
 22 23  2  0
 23 24  1  0
 24 16  1  0
 25 26  1  0
 27 25  2  0
M  END
$$$$
