LGW.pdb
     RDKit          3D

 27 28  0  0  1  0  0  0  0  0999 V2000
   22.2911  -17.9875  -15.8412 C   0  0  0  0  0  0  0  0  0  0  0  0
   22.9477  -19.3310  -15.8272 C   0  0  1  0  0  0  0  0  0  0  0  0
   21.9073  -20.4177  -15.5490 C   0  0  0  0  0  0  0  0  0  0  0  0
   23.6770  -19.6980  -17.0582 C   0  0  0  0  0  0  0  0  0  0  0  0
   24.5379  -20.8955  -16.9469 C   0  0  2  0  0  0  0  0  0  0  0  0
   23.7581  -22.0649  -16.5282 N   0  0  0  0  0  0  0  0  0  0  0  0
   25.6845  -20.7274  -16.0643 C   0  0  0  0  0  0  0  0  0  0  0  0
   26.5266  -19.7931  -16.1812 O   0  0  0  0  0  0  0  0  0  0  0  0
   25.8890  -21.6574  -14.9955 N   0  0  0  0  0  0  0  0  0  0  0  0
   26.9662  -21.4404  -14.0825 C   0  0  0  0  0  0  0  0  0  0  0  0
   26.4694  -21.5684  -12.6747 C   0  0  0  0  0  0  0  0  0  0  0  0
   25.4861  -22.3090  -12.4230 O   0  0  0  0  0  0  0  0  0  0  0  0
   27.0820  -20.8663  -11.5916 N   0  0  0  0  0  0  0  0  0  0  0  0
   26.5499  -21.0403  -10.2739 C   0  0  1  0  0  0  0  0  0  0  0  0
   27.3715  -20.4046   -9.2284 C   0  0  0  0  0  0  0  0  0  0  0  0
   26.8776  -20.4891   -7.8550 C   0  0  0  0  0  0  0  0  0  0  0  0
   25.7719  -21.0783   -7.2848 C   0  0  0  0  0  0  0  0  0  0  0  0
   25.7795  -20.8785   -5.9390 N   0  0  0  0  0  0  0  0  0  0  0  0
   26.8790  -20.1611   -5.5997 C   0  0  0  0  0  0  0  0  0  0  0  0
   27.3198  -19.7172   -4.3701 C   0  0  0  0  0  0  0  0  0  0  0  0
   28.4874  -18.9997   -4.2960 C   0  0  0  0  0  0  0  0  0  0  0  0
   29.1929  -18.7382   -5.4488 C   0  0  0  0  0  0  0  0  0  0  0  0
   28.7330  -19.1939   -6.6839 C   0  0  0  0  0  0  0  0  0  0  0  0
   27.5608  -19.9160   -6.7677 C   0  0  0  0  0  0  0  0  0  0  0  0
   25.1232  -20.6161  -10.1833 C   0  0  0  0  0  0  0  0  0  0  0  0
   24.6227  -19.6552  -11.0276 O   0  0  0  0  0  0  0  0  0  0  0  0
   24.3945  -21.1472   -9.3331 O   0  0  0  0  0  0  0  0  0  0  0  0
  2  4  1  0
  2  1  1  6
  2  3  1  0
  5  4  1  0
  5  6  1  1
  7  5  1  0
  8  7  2  0
  9  7  1  0
 10  9  1  0
 11 10  1  0
 11 13  1  0
 12 11  2  0
 14 15  1  1
 14 25  1  0
 14 13  1  0
 16 15  1  0
 16 17  2  0
 18 17  1  0
 19 24  2  0
 19 18  1  0
 20 19  1  0
 21 22  1  0
 21 20  2  0
 22 23  2  0
 23 24  1  0
 24 16  1  0
 25 26  1  0
 27 25  2  0
M  END
$$$$
