LGW.pdb
     RDKit          3D

 27 28  0  0  1  0  0  0  0  0999 V2000
   22.2265  -20.2713  -15.8959 C   0  0  0  0  0  0  0  0  0  0  0  0
   23.5918  -20.8616  -16.0502 C   0  0  1  0  0  0  0  0  0  0  0  0
   23.6510  -21.7161  -17.3179 C   0  0  0  0  0  0  0  0  0  0  0  0
   24.7050  -19.8918  -16.0979 C   0  0  0  0  0  0  0  0  0  0  0  0
   26.0506  -20.4664  -15.8825 C   0  0  2  0  0  0  0  0  0  0  0  0
   26.0451  -21.9150  -16.1116 N   0  0  0  0  0  0  0  0  0  0  0  0
   26.6213  -20.1778  -14.5737 C   0  0  0  0  0  0  0  0  0  0  0  0
   26.6354  -19.0262  -14.0549 O   0  0  0  0  0  0  0  0  0  0  0  0
   27.2017  -21.2416  -13.8117 N   0  0  0  0  0  0  0  0  0  0  0  0
   27.6953  -20.9671  -12.4994 C   0  0  0  0  0  0  0  0  0  0  0  0
   26.6682  -21.3581  -11.4809 C   0  0  0  0  0  0  0  0  0  0  0  0
   25.6713  -22.0399  -11.8274 O   0  0  0  0  0  0  0  0  0  0  0  0
   26.7826  -20.9762  -10.1089 N   0  0  0  0  0  0  0  0  0  0  0  0
   25.7751  -21.4122   -9.1900 C   0  0  1  0  0  0  0  0  0  0  0  0
   26.2393  -21.4404   -7.7914 C   0  0  0  0  0  0  0  0  0  0  0  0
   26.8617  -20.2223   -7.2753 C   0  0  0  0  0  0  0  0  0  0  0  0
   26.8017  -18.8998   -7.6523 C   0  0  0  0  0  0  0  0  0  0  0  0
   27.5680  -18.1432   -6.8207 N   0  0  0  0  0  0  0  0  0  0  0  0
   28.1418  -18.9443   -5.8891 C   0  0  0  0  0  0  0  0  0  0  0  0
   28.9904  -18.6439   -4.8436 C   0  0  0  0  0  0  0  0  0  0  0  0
   29.4349  -19.6556   -4.0298 C   0  0  0  0  0  0  0  0  0  0  0  0
   29.0255  -20.9471   -4.2737 C   0  0  0  0  0  0  0  0  0  0  0  0
   28.1677  -21.2335   -5.3353 C   0  0  0  0  0  0  0  0  0  0  0  0
   27.7157  -20.2230   -6.1581 C   0  0  0  0  0  0  0  0  0  0  0  0
   24.5104  -20.6350   -9.3320 C   0  0  0  0  0  0  0  0  0  0  0  0
   23.3478  -21.0752   -8.7477 O   0  0  0  0  0  0  0  0  0  0  0  0
   24.5260  -19.5821   -9.9855 O   0  0  0  0  0  0  0  0  0  0  0  0
  2  4  1  0
  2  1  1  6
  2  3  1  0
  5  4  1  0
  5  6  1  1
  7  5  1  0
  8  7  2  0
  9  7  1  0
 10  9  1  0
 11 10  1  0
 11 13  1  0
 12 11  2  0
 14 15  1  1
 14 25  1  0
 14 13  1  0
 16 15  1  0
 16 17  2  0
 18 17  1  0
 19 24  2  0
 19 18  1  0
 20 19  1  0
 21 22  1  0
 21 20  2  0
 22 23  2  0
 23 24  1  0
 24 16  1  0
 25 26  1  0
 27 25  2  0
M  END
$$$$
