LGW.pdb
     RDKit          3D

 27 28  0  0  1  0  0  0  0  0999 V2000
   25.2519  -17.5191  -19.8802 C   0  0  0  0  0  0  0  0  0  0  0  0
   25.6134  -18.7308  -19.0818 C   0  0  1  0  0  0  0  0  0  0  0  0
   26.3524  -19.7372  -19.9658 C   0  0  0  0  0  0  0  0  0  0  0  0
   26.4376  -18.4819  -17.8815 C   0  0  0  0  0  0  0  0  0  0  0  0
   26.7817  -19.6850  -17.0932 C   0  0  2  0  0  0  0  0  0  0  0  0
   25.6010  -20.5290  -16.8820 N   0  0  0  0  0  0  0  0  0  0  0  0
   27.4174  -19.3997  -15.8139 C   0  0  0  0  0  0  0  0  0  0  0  0
   28.2646  -18.4784  -15.6435 O   0  0  0  0  0  0  0  0  0  0  0  0
   27.0780  -20.1910  -14.6704 N   0  0  0  0  0  0  0  0  0  0  0  0
   27.5375  -19.7814  -13.3811 C   0  0  0  0  0  0  0  0  0  0  0  0
   26.9042  -20.6340  -12.3242 C   0  0  0  0  0  0  0  0  0  0  0  0
   25.9903  -21.4388  -12.6339 O   0  0  0  0  0  0  0  0  0  0  0  0
   27.3072  -20.5626  -10.9553 N   0  0  0  0  0  0  0  0  0  0  0  0
   26.6148  -21.3668   -9.9943 C   0  0  1  0  0  0  0  0  0  0  0  0
   27.3445  -21.5056   -8.7213 C   0  0  0  0  0  0  0  0  0  0  0  0
   27.3613  -20.3415   -7.8370 C   0  0  0  0  0  0  0  0  0  0  0  0
   26.7516  -19.1085   -7.8891 C   0  0  0  0  0  0  0  0  0  0  0  0
   27.0851  -18.3772   -6.7913 N   0  0  0  0  0  0  0  0  0  0  0  0
   27.9126  -19.1067   -6.0026 C   0  0  0  0  0  0  0  0  0  0  0  0
   28.5088  -18.7997   -4.7969 C   0  0  0  0  0  0  0  0  0  0  0  0
   29.3148  -19.7311   -4.1918 C   0  0  0  0  0  0  0  0  0  0  0  0
   29.5113  -20.9503   -4.8000 C   0  0  0  0  0  0  0  0  0  0  0  0
   28.9014  -21.2443   -6.0191 C   0  0  0  0  0  0  0  0  0  0  0  0
   28.0895  -20.3144   -6.6343 C   0  0  0  0  0  0  0  0  0  0  0  0
   25.2151  -20.9012   -9.7757 C   0  0  0  0  0  0  0  0  0  0  0  0
   24.2939  -21.7140   -9.1613 O   0  0  0  0  0  0  0  0  0  0  0  0
   24.8966  -19.7656  -10.1564 O   0  0  0  0  0  0  0  0  0  0  0  0
  2  4  1  0
  2  1  1  6
  2  3  1  0
  5  4  1  0
  5  6  1  1
  7  5  1  0
  8  7  2  0
  9  7  1  0
 10  9  1  0
 11 10  1  0
 11 13  1  0
 12 11  2  0
 14 15  1  1
 14 25  1  0
 14 13  1  0
 16 15  1  0
 16 17  2  0
 18 17  1  0
 19 24  2  0
 19 18  1  0
 20 19  1  0
 21 22  1  0
 21 20  2  0
 22 23  2  0
 23 24  1  0
 24 16  1  0
 25 26  1  0
 27 25  2  0
M  END
$$$$
