LGW.pdb
     RDKit          3D

 27 28  0  0  1  0  0  0  0  0999 V2000
   23.5807  -16.0687  -18.3846 C   0  0  0  0  0  0  0  0  0  0  0  0
   23.3564  -17.3390  -17.6281 C   0  0  1  0  0  0  0  0  0  0  0  0
   23.1550  -18.4996  -18.6043 C   0  0  0  0  0  0  0  0  0  0  0  0
   24.4261  -17.7156  -16.6816 C   0  0  0  0  0  0  0  0  0  0  0  0
   24.1952  -18.9730  -15.9380 C   0  0  2  0  0  0  0  0  0  0  0  0
   22.9570  -18.8998  -15.1555 N   0  0  0  0  0  0  0  0  0  0  0  0
   25.2998  -19.3683  -15.0745 C   0  0  0  0  0  0  0  0  0  0  0  0
   26.4193  -19.7629  -15.5066 O   0  0  0  0  0  0  0  0  0  0  0  0
   25.1340  -19.3125  -13.6538 N   0  0  0  0  0  0  0  0  0  0  0  0
   26.2453  -19.6247  -12.8119 C   0  0  0  0  0  0  0  0  0  0  0  0
   25.7789  -20.4276  -11.6359 C   0  0  0  0  0  0  0  0  0  0  0  0
   24.6327  -20.9426  -11.6448 O   0  0  0  0  0  0  0  0  0  0  0  0
   26.6025  -20.6305  -10.4863 N   0  0  0  0  0  0  0  0  0  0  0  0
   26.0754  -21.3858   -9.3903 C   0  0  1  0  0  0  0  0  0  0  0  0
   27.0296  -21.5348   -8.2769 C   0  0  0  0  0  0  0  0  0  0  0  0
   27.3598  -20.3275   -7.5213 C   0  0  0  0  0  0  0  0  0  0  0  0
   26.9955  -19.0062   -7.6482 C   0  0  0  0  0  0  0  0  0  0  0  0
   27.5739  -18.2669   -6.6632 N   0  0  0  0  0  0  0  0  0  0  0  0
   28.3228  -19.0785   -5.8762 C   0  0  0  0  0  0  0  0  0  0  0  0
   29.0872  -18.7970   -4.7628 C   0  0  0  0  0  0  0  0  0  0  0  0
   29.7576  -19.8168   -4.1352 C   0  0  0  0  0  0  0  0  0  0  0  0
   29.6535  -21.0974   -4.6294 C   0  0  0  0  0  0  0  0  0  0  0  0
   28.8767  -21.3646   -5.7563 C   0  0  0  0  0  0  0  0  0  0  0  0
   28.1992  -20.3459   -6.3932 C   0  0  0  0  0  0  0  0  0  0  0  0
   24.7638  -20.8540   -8.9204 C   0  0  0  0  0  0  0  0  0  0  0  0
   23.9298  -21.6267   -8.1496 O   0  0  0  0  0  0  0  0  0  0  0  0
   24.4389  -19.7004   -9.2358 O   0  0  0  0  0  0  0  0  0  0  0  0
  2  4  1  0
  2  1  1  6
  2  3  1  0
  5  4  1  0
  5  6  1  1
  7  5  1  0
  8  7  2  0
  9  7  1  0
 10  9  1  0
 11 10  1  0
 11 13  1  0
 12 11  2  0
 14 15  1  1
 14 25  1  0
 14 13  1  0
 16 15  1  0
 16 17  2  0
 18 17  1  0
 19 24  2  0
 19 18  1  0
 20 19  1  0
 21 22  1  0
 21 20  2  0
 22 23  2  0
 23 24  1  0
 24 16  1  0
 25 26  1  0
 27 25  2  0
M  END
$$$$
