LGW.pdb
     RDKit          3D

 27 28  0  0  1  0  0  0  0  0999 V2000
   26.4320  -14.3117  -17.3143 C   0  0  0  0  0  0  0  0  0  0  0  0
   25.9605  -15.6852  -16.9573 C   0  0  1  0  0  0  0  0  0  0  0  0
   26.0103  -16.5911  -18.1891 C   0  0  0  0  0  0  0  0  0  0  0  0
   26.7021  -16.3515  -15.8672 C   0  0  0  0  0  0  0  0  0  0  0  0
   26.2188  -17.7032  -15.5111 C   0  0  2  0  0  0  0  0  0  0  0  0
   24.7948  -17.6757  -15.1612 N   0  0  0  0  0  0  0  0  0  0  0  0
   26.9747  -18.3466  -14.4450 C   0  0  0  0  0  0  0  0  0  0  0  0
   28.1739  -18.7243  -14.5671 O   0  0  0  0  0  0  0  0  0  0  0  0
   26.3476  -18.5719  -13.1782 N   0  0  0  0  0  0  0  0  0  0  0  0
   27.1510  -18.9731  -12.0669 C   0  0  0  0  0  0  0  0  0  0  0  0
   26.4338  -20.0263  -11.2785 C   0  0  0  0  0  0  0  0  0  0  0  0
   25.9615  -21.0330  -11.8637 O   0  0  0  0  0  0  0  0  0  0  0  0
   26.2635  -19.9247   -9.8637 N   0  0  0  0  0  0  0  0  0  0  0  0
   25.6241  -21.0024   -9.1713 C   0  0  1  0  0  0  0  0  0  0  0  0
   26.1645  -21.2237   -7.8181 C   0  0  0  0  0  0  0  0  0  0  0  0
   27.0381  -20.1845   -7.2755 C   0  0  0  0  0  0  0  0  0  0  0  0
   27.2922  -18.8814   -7.6388 C   0  0  0  0  0  0  0  0  0  0  0  0
   28.1926  -18.3263   -6.7830 N   0  0  0  0  0  0  0  0  0  0  0  0
   28.5457  -19.2435   -5.8488 C   0  0  0  0  0  0  0  0  0  0  0  0
   29.4164  -19.1527   -4.7825 C   0  0  0  0  0  0  0  0  0  0  0  0
   29.5980  -20.2445   -3.9710 C   0  0  0  0  0  0  0  0  0  0  0  0
   28.9085  -21.4056   -4.2379 C   0  0  0  0  0  0  0  0  0  0  0  0
   28.0324  -21.4807   -5.3202 C   0  0  0  0  0  0  0  0  0  0  0  0
   27.8435  -20.3883   -6.1409 C   0  0  0  0  0  0  0  0  0  0  0  0
   24.1402  -20.8561   -9.1516 C   0  0  0  0  0  0  0  0  0  0  0  0
   23.3427  -21.8652   -8.6695 O   0  0  0  0  0  0  0  0  0  0  0  0
   23.6374  -19.8060   -9.5764 O   0  0  0  0  0  0  0  0  0  0  0  0
  2  4  1  0
  2  1  1  6
  2  3  1  0
  5  4  1  0
  5  6  1  1
  7  5  1  0
  8  7  2  0
  9  7  1  0
 10  9  1  0
 11 10  1  0
 11 13  1  0
 12 11  2  0
 14 15  1  1
 14 25  1  0
 14 13  1  0
 16 15  1  0
 16 17  2  0
 18 17  1  0
 19 24  2  0
 19 18  1  0
 20 19  1  0
 21 22  1  0
 21 20  2  0
 22 23  2  0
 23 24  1  0
 24 16  1  0
 25 26  1  0
 27 25  2  0
M  END
$$$$
