LGW.pdb
     RDKit          3D

 27 28  0  0  1  0  0  0  0  0999 V2000
   21.2970  -17.4189  -16.9775 C   0  0  0  0  0  0  0  0  0  0  0  0
   22.7811  -17.5443  -16.8434 C   0  0  1  0  0  0  0  0  0  0  0  0
   23.2863  -16.6122  -15.7404 C   0  0  0  0  0  0  0  0  0  0  0  0
   23.2840  -18.9042  -16.5614 C   0  0  0  0  0  0  0  0  0  0  0  0
   24.7392  -18.9990  -16.3147 C   0  0  2  0  0  0  0  0  0  0  0  0
   25.4999  -18.5621  -17.4899 N   0  0  0  0  0  0  0  0  0  0  0  0
   25.1903  -20.3207  -15.9005 C   0  0  0  0  0  0  0  0  0  0  0  0
   24.8359  -21.3914  -16.4695 O   0  0  0  0  0  0  0  0  0  0  0  0
   26.0878  -20.4398  -14.7917 N   0  0  0  0  0  0  0  0  0  0  0  0
   26.4417  -21.7415  -14.3211 C   0  0  0  0  0  0  0  0  0  0  0  0
   25.9981  -21.9029  -12.8991 C   0  0  0  0  0  0  0  0  0  0  0  0
   26.1682  -23.0004  -12.3112 O   0  0  0  0  0  0  0  0  0  0  0  0
   25.3774  -20.8379  -12.1767 N   0  0  0  0  0  0  0  0  0  0  0  0
   24.8287  -21.1153  -10.8838 C   0  0  1  0  0  0  0  0  0  0  0  0
   25.4972  -20.3742   -9.7993 C   0  0  0  0  0  0  0  0  0  0  0  0
   26.8706  -20.7613   -9.4809 C   0  0  0  0  0  0  0  0  0  0  0  0
   27.7987  -21.5541  -10.1172 C   0  0  0  0  0  0  0  0  0  0  0  0
   28.9563  -21.5812   -9.4027 N   0  0  0  0  0  0  0  0  0  0  0  0
   28.8148  -20.8146   -8.2931 C   0  0  0  0  0  0  0  0  0  0  0  0
   29.7021  -20.5328   -7.2750 C   0  0  0  0  0  0  0  0  0  0  0  0
   29.3061  -19.7109   -6.2497 C   0  0  0  0  0  0  0  0  0  0  0  0
   28.0336  -19.1859   -6.2588 C   0  0  0  0  0  0  0  0  0  0  0  0
   27.1490  -19.4814   -7.2956 C   0  0  0  0  0  0  0  0  0  0  0  0
   27.5385  -20.3061   -8.3302 C   0  0  0  0  0  0  0  0  0  0  0  0
   23.3502  -20.9242  -10.8477 C   0  0  0  0  0  0  0  0  0  0  0  0
   22.6334  -21.2144   -9.7125 O   0  0  0  0  0  0  0  0  0  0  0  0
   22.7780  -20.4964  -11.8604 O   0  0  0  0  0  0  0  0  0  0  0  0
  2  4  1  0
  2  1  1  1
  2  3  1  0
  5  4  1  0
  5  6  1  6
  7  5  1  0
  8  7  2  0
  9  7  1  0
 10  9  1  0
 11 10  1  0
 11 13  1  0
 12 11  2  0
 14 15  1  1
 14 25  1  0
 14 13  1  0
 16 15  1  0
 16 17  2  0
 18 17  1  0
 19 24  2  0
 19 18  1  0
 20 19  1  0
 21 22  1  0
 21 20  2  0
 22 23  2  0
 23 24  1  0
 24 16  1  0
 25 26  1  0
 27 25  2  0
M  END
$$$$
