LGW.pdb
     RDKit          3D

 27 28  0  0  1  0  0  0  0  0999 V2000
   22.0982  -18.3539  -17.4323 C   0  0  0  0  0  0  0  0  0  0  0  0
   23.0421  -19.4782  -17.1477 C   0  0  1  0  0  0  0  0  0  0  0  0
   22.4302  -20.8029  -17.6077 C   0  0  0  0  0  0  0  0  0  0  0  0
   24.3826  -19.3560  -17.7561 C   0  0  0  0  0  0  0  0  0  0  0  0
   25.3606  -20.3833  -17.3370 C   0  0  2  0  0  0  0  0  0  0  0  0
   24.6822  -21.6189  -16.9319 N   0  0  0  0  0  0  0  0  0  0  0  0
   26.2663  -19.9509  -16.2813 C   0  0  0  0  0  0  0  0  0  0  0  0
   26.9279  -18.8756  -16.3237 O   0  0  0  0  0  0  0  0  0  0  0  0
   26.4313  -20.7705  -15.1195 N   0  0  0  0  0  0  0  0  0  0  0  0
   27.2562  -20.3030  -14.0508 C   0  0  0  0  0  0  0  0  0  0  0  0
   26.7086  -20.7839  -12.7417 C   0  0  0  0  0  0  0  0  0  0  0  0
   26.1535  -21.9089  -12.6710 O   0  0  0  0  0  0  0  0  0  0  0  0
   26.7948  -19.9964  -11.5527 N   0  0  0  0  0  0  0  0  0  0  0  0
   26.4891  -20.6142  -10.2979 C   0  0  1  0  0  0  0  0  0  0  0  0
   27.2465  -20.0422   -9.1704 C   0  0  0  0  0  0  0  0  0  0  0  0
   26.8258  -20.4300   -7.8250 C   0  0  0  0  0  0  0  0  0  0  0  0
   25.8401  -21.2647   -7.3488 C   0  0  0  0  0  0  0  0  0  0  0  0
   25.8733  -21.2963   -5.9890 N   0  0  0  0  0  0  0  0  0  0  0  0
   26.8712  -20.4913   -5.5473 C   0  0  0  0  0  0  0  0  0  0  0  0
   27.2930  -20.2012   -4.2662 C   0  0  0  0  0  0  0  0  0  0  0  0
   28.3474  -19.3413   -4.0867 C   0  0  0  0  0  0  0  0  0  0  0  0
   28.9609  -18.7869   -5.1872 C   0  0  0  0  0  0  0  0  0  0  0  0
   28.5216  -19.0905   -6.4755 C   0  0  0  0  0  0  0  0  0  0  0  0
   27.4630  -19.9539   -6.6653 C   0  0  0  0  0  0  0  0  0  0  0  0
   25.0238  -20.6306  -10.0216 C   0  0  0  0  0  0  0  0  0  0  0  0
   24.2182  -19.6039  -10.4502 O   0  0  0  0  0  0  0  0  0  0  0  0
   24.5435  -21.5887   -9.3993 O   0  0  0  0  0  0  0  0  0  0  0  0
  2  4  1  0
  2  1  1  6
  2  3  1  0
  5  4  1  0
  5  6  1  1
  7  5  1  0
  8  7  2  0
  9  7  1  0
 10  9  1  0
 11 10  1  0
 11 13  1  0
 12 11  2  0
 14 15  1  1
 14 25  1  0
 14 13  1  0
 16 15  1  0
 16 17  2  0
 18 17  1  0
 19 24  2  0
 19 18  1  0
 20 19  1  0
 21 22  1  0
 21 20  2  0
 22 23  2  0
 23 24  1  0
 24 16  1  0
 25 26  1  0
 27 25  2  0
M  END
$$$$
