LGW.pdb
     RDKit          3D

 27 28  0  0  1  0  0  0  0  0999 V2000
   24.6715  -20.6348  -20.3634 C   0  0  0  0  0  0  0  0  0  0  0  0
   25.2892  -21.5156  -19.3247 C   0  0  1  0  0  0  0  0  0  0  0  0
   25.7225  -22.8409  -19.9543 C   0  0  0  0  0  0  0  0  0  0  0  0
   26.4503  -20.9446  -18.6120 C   0  0  0  0  0  0  0  0  0  0  0  0
   26.9330  -21.7356  -17.4593 C   0  0  2  0  0  0  0  0  0  0  0  0
   25.8855  -22.6351  -16.9649 N   0  0  0  0  0  0  0  0  0  0  0  0
   27.4519  -20.9337  -16.3594 C   0  0  0  0  0  0  0  0  0  0  0  0
   28.2793  -19.9911  -16.5100 O   0  0  0  0  0  0  0  0  0  0  0  0
   27.0131  -21.2068  -15.0245 N   0  0  0  0  0  0  0  0  0  0  0  0
   27.4966  -20.3933  -13.9542 C   0  0  0  0  0  0  0  0  0  0  0  0
   26.8350  -20.7985  -12.6724 C   0  0  0  0  0  0  0  0  0  0  0  0
   26.2926  -21.9280  -12.5779 O   0  0  0  0  0  0  0  0  0  0  0  0
   26.7966  -19.9328  -11.5365 N   0  0  0  0  0  0  0  0  0  0  0  0
   26.4562  -20.4892  -10.2620 C   0  0  1  0  0  0  0  0  0  0  0  0
   27.2620  -19.9409   -9.1564 C   0  0  0  0  0  0  0  0  0  0  0  0
   26.8171  -20.2465   -7.7976 C   0  0  0  0  0  0  0  0  0  0  0  0
   25.7065  -20.8809   -7.2889 C   0  0  0  0  0  0  0  0  0  0  0  0
   25.7751  -20.9227   -5.9307 N   0  0  0  0  0  0  0  0  0  0  0  0
   26.9205  -20.3226   -5.5222 C   0  0  0  0  0  0  0  0  0  0  0  0
   27.4289  -20.1217   -4.2555 C   0  0  0  0  0  0  0  0  0  0  0  0
   28.6321  -19.4776   -4.1110 C   0  0  0  0  0  0  0  0  0  0  0  0
   29.3052  -19.0458   -5.2315 C   0  0  0  0  0  0  0  0  0  0  0  0
   28.7768  -19.2566   -6.5047 C   0  0  0  0  0  0  0  0  0  0  0  0
   27.5685  -19.9034   -6.6595 C   0  0  0  0  0  0  0  0  0  0  0  0
   24.9958  -20.3901   -9.9773 C   0  0  0  0  0  0  0  0  0  0  0  0
   24.3873  -21.2738   -9.1197 O   0  0  0  0  0  0  0  0  0  0  0  0
   24.3391  -19.4942  -10.5268 O   0  0  0  0  0  0  0  0  0  0  0  0
  2  4  1  0
  2  1  1  6
  2  3  1  0
  5  4  1  0
  5  6  1  1
  7  5  1  0
  8  7  2  0
  9  7  1  0
 10  9  1  0
 11 10  1  0
 11 13  1  0
 12 11  2  0
 14 15  1  1
 14 25  1  0
 14 13  1  0
 16 15  1  0
 16 17  2  0
 18 17  1  0
 19 24  2  0
 19 18  1  0
 20 19  1  0
 21 22  1  0
 21 20  2  0
 22 23  2  0
 23 24  1  0
 24 16  1  0
 25 26  1  0
 27 25  2  0
M  END
$$$$
