LGW.pdb
     RDKit          3D

 27 28  0  0  1  0  0  0  0  0999 V2000
   26.4012  -15.2476  -18.8001 C   0  0  0  0  0  0  0  0  0  0  0  0
   26.7950  -16.6836  -18.9378 C   0  0  1  0  0  0  0  0  0  0  0  0
   26.2060  -17.2655  -20.2244 C   0  0  0  0  0  0  0  0  0  0  0  0
   28.2479  -16.9502  -18.9365 C   0  0  0  0  0  0  0  0  0  0  0  0
   28.6700  -18.1354  -18.1590 C   0  0  2  0  0  0  0  0  0  0  0  0
   27.9474  -19.3343  -18.5965 N   0  0  0  0  0  0  0  0  0  0  0  0
   28.5392  -17.9816  -16.7164 C   0  0  0  0  0  0  0  0  0  0  0  0
   29.1086  -17.0679  -16.0555 O   0  0  0  0  0  0  0  0  0  0  0  0
   27.7234  -18.9020  -15.9841 N   0  0  0  0  0  0  0  0  0  0  0  0
   27.5779  -18.7309  -14.5732 C   0  0  0  0  0  0  0  0  0  0  0  0
   26.7649  -19.8558  -14.0086 C   0  0  0  0  0  0  0  0  0  0  0  0
   26.0609  -20.5635  -14.7718 O   0  0  0  0  0  0  0  0  0  0  0  0
   26.7599  -20.1563  -12.6119 N   0  0  0  0  0  0  0  0  0  0  0  0
   26.0063  -21.2851  -12.1565 C   0  0  1  0  0  0  0  0  0  0  0  0
   26.4911  -21.8267  -10.8743 C   0  0  0  0  0  0  0  0  0  0  0  0
   26.4196  -20.9424   -9.7122 C   0  0  0  0  0  0  0  0  0  0  0  0
   25.4434  -20.1038   -9.2237 C   0  0  0  0  0  0  0  0  0  0  0  0
   25.8739  -19.5037   -8.0811 N   0  0  0  0  0  0  0  0  0  0  0  0
   27.1293  -19.9307   -7.7974 C   0  0  0  0  0  0  0  0  0  0  0  0
   27.9740  -19.6121   -6.7542 C   0  0  0  0  0  0  0  0  0  0  0  0
   29.2149  -20.1953   -6.6950 C   0  0  0  0  0  0  0  0  0  0  0  0
   29.5901  -21.0845   -7.6765 C   0  0  0  0  0  0  0  0  0  0  0  0
   28.7240  -21.3953   -8.7245 C   0  0  0  0  0  0  0  0  0  0  0  0
   27.4750  -20.8142   -8.7918 C   0  0  0  0  0  0  0  0  0  0  0  0
   24.5425  -21.0036  -12.1139 C   0  0  0  0  0  0  0  0  0  0  0  0
   23.6297  -22.0287  -12.1674 O   0  0  0  0  0  0  0  0  0  0  0  0
   24.1623  -19.8273  -12.0274 O   0  0  0  0  0  0  0  0  0  0  0  0
  2  4  1  0
  2  1  1  6
  2  3  1  0
  5  4  1  0
  5  6  1  6
  7  5  1  0
  8  7  2  0
  9  7  1  0
 10  9  1  0
 11 10  1  0
 11 13  1  0
 12 11  2  0
 14 15  1  1
 14 25  1  0
 14 13  1  0
 16 15  1  0
 16 17  2  0
 18 17  1  0
 19 24  2  0
 19 18  1  0
 20 19  1  0
 21 22  1  0
 21 20  2  0
 22 23  2  0
 23 24  1  0
 24 16  1  0
 25 26  1  0
 27 25  2  0
M  END
$$$$
