LGW.pdb
     RDKit          3D

 27 28  0  0  1  0  0  0  0  0999 V2000
   24.5081  -16.9862  -19.3519 C   0  0  0  0  0  0  0  0  0  0  0  0
   25.2546  -18.0638  -18.6325 C   0  0  1  0  0  0  0  0  0  0  0  0
   26.7205  -18.0654  -19.0707 C   0  0  0  0  0  0  0  0  0  0  0  0
   25.2165  -17.9916  -17.1576 C   0  0  0  0  0  0  0  0  0  0  0  0
   25.9502  -19.0667  -16.4552 C   0  0  2  0  0  0  0  0  0  0  0  0
   25.3402  -20.3747  -16.7159 N   0  0  0  0  0  0  0  0  0  0  0  0
   26.0797  -18.8620  -15.0188 C   0  0  0  0  0  0  0  0  0  0  0  0
   25.0948  -18.7218  -14.2403 O   0  0  0  0  0  0  0  0  0  0  0  0
   27.3844  -18.8165  -14.4317 N   0  0  0  0  0  0  0  0  0  0  0  0
   27.5065  -18.5862  -13.0270 C   0  0  0  0  0  0  0  0  0  0  0  0
   27.0687  -19.8057  -12.2747 C   0  0  0  0  0  0  0  0  0  0  0  0
   26.5591  -20.7733  -12.8935 O   0  0  0  0  0  0  0  0  0  0  0  0
   27.2106  -19.9090  -10.8568 N   0  0  0  0  0  0  0  0  0  0  0  0
   26.8020  -21.1211  -10.2137 C   0  0  1  0  0  0  0  0  0  0  0  0
   27.5722  -21.4175   -8.9926 C   0  0  0  0  0  0  0  0  0  0  0  0
   27.5351  -20.4172   -7.9269 C   0  0  0  0  0  0  0  0  0  0  0  0
   26.7805  -19.2843   -7.7225 C   0  0  0  0  0  0  0  0  0  0  0  0
   27.1286  -18.6991   -6.5445 N   0  0  0  0  0  0  0  0  0  0  0  0
   28.1093  -19.4276   -5.9559 C   0  0  0  0  0  0  0  0  0  0  0  0
   28.7779  -19.2395   -4.7639 C   0  0  0  0  0  0  0  0  0  0  0  0
   29.7438  -20.1393   -4.3885 C   0  0  0  0  0  0  0  0  0  0  0  0
   30.0248  -21.2088   -5.2082 C   0  0  0  0  0  0  0  0  0  0  0  0
   29.3398  -21.3839   -6.4102 C   0  0  0  0  0  0  0  0  0  0  0  0
   28.3673  -20.4848   -6.7953 C   0  0  0  0  0  0  0  0  0  0  0  0
   25.3334  -21.1538   -9.9568 C   0  0  0  0  0  0  0  0  0  0  0  0
   24.7209  -22.3092   -9.5368 O   0  0  0  0  0  0  0  0  0  0  0  0
   24.6737  -20.1185  -10.1269 O   0  0  0  0  0  0  0  0  0  0  0  0
  2  4  1  0
  2  1  1  6
  2  3  1  0
  5  4  1  0
  5  6  1  1
  7  5  1  0
  8  7  2  0
  9  7  1  0
 10  9  1  0
 11 10  1  0
 11 13  1  0
 12 11  2  0
 14 15  1  1
 14 25  1  0
 14 13  1  0
 16 15  1  0
 16 17  2  0
 18 17  1  0
 19 24  2  0
 19 18  1  0
 20 19  1  0
 21 22  1  0
 21 20  2  0
 22 23  2  0
 23 24  1  0
 24 16  1  0
 25 26  1  0
 27 25  2  0
M  END
$$$$
