LGW.pdb
     RDKit          3D

 27 28  0  0  1  0  0  0  0  0999 V2000
   24.8494  -15.5681  -22.3126 C   0  0  0  0  0  0  0  0  0  0  0  0
   24.3643  -16.2659  -21.0821 C   0  0  1  0  0  0  0  0  0  0  0  0
   23.0867  -17.0474  -21.3944 C   0  0  0  0  0  0  0  0  0  0  0  0
   25.3269  -17.1924  -20.4522 C   0  0  0  0  0  0  0  0  0  0  0  0
   24.9682  -17.6431  -19.0900 C   0  0  2  0  0  0  0  0  0  0  0  0
   24.5269  -16.5148  -18.2635 N   0  0  0  0  0  0  0  0  0  0  0  0
   26.0265  -18.3714  -18.4033 C   0  0  0  0  0  0  0  0  0  0  0  0
   26.6018  -19.3882  -18.8837 O   0  0  0  0  0  0  0  0  0  0  0  0
   26.4589  -17.9286  -17.1126 N   0  0  0  0  0  0  0  0  0  0  0  0
   27.5316  -18.6158  -16.4657 C   0  0  0  0  0  0  0  0  0  0  0  0
   27.0604  -19.1693  -15.1556 C   0  0  0  0  0  0  0  0  0  0  0  0
   26.3102  -18.4812  -14.4190 O   0  0  0  0  0  0  0  0  0  0  0  0
   27.4406  -20.4710  -14.7059 N   0  0  0  0  0  0  0  0  0  0  0  0
   27.0032  -20.9044  -13.4134 C   0  0  1  0  0  0  0  0  0  0  0  0
   26.9567  -19.8150  -12.4218 C   0  0  0  0  0  0  0  0  0  0  0  0
   26.6398  -20.1866  -11.0437 C   0  0  0  0  0  0  0  0  0  0  0  0
   25.4572  -20.3999  -10.3725 C   0  0  0  0  0  0  0  0  0  0  0  0
   25.7104  -20.7479   -9.0817 N   0  0  0  0  0  0  0  0  0  0  0  0
   27.0511  -20.7705   -8.8796 C   0  0  0  0  0  0  0  0  0  0  0  0
   27.7859  -21.0647   -7.7496 C   0  0  0  0  0  0  0  0  0  0  0  0
   29.1561  -21.0169   -7.8104 C   0  0  0  0  0  0  0  0  0  0  0  0
   29.7675  -20.6766   -8.9958 C   0  0  0  0  0  0  0  0  0  0  0  0
   29.0097  -20.3816  -10.1287 C   0  0  0  0  0  0  0  0  0  0  0  0
   27.6321  -20.4275  -10.0769 C   0  0  0  0  0  0  0  0  0  0  0  0
   25.7096  -21.6437  -13.4764 C   0  0  0  0  0  0  0  0  0  0  0  0
   25.4742  -22.7159  -12.6507 O   0  0  0  0  0  0  0  0  0  0  0  0
   24.8480  -21.2727  -14.2862 O   0  0  0  0  0  0  0  0  0  0  0  0
  2  4  1  0
  2  1  1  6
  2  3  1  0
  5  4  1  0
  5  6  1  1
  7  5  1  0
  8  7  2  0
  9  7  1  0
 10  9  1  0
 11 10  1  0
 11 13  1  0
 12 11  2  0
 14 15  1  1
 14 25  1  0
 14 13  1  0
 16 15  1  0
 16 17  2  0
 18 17  1  0
 19 24  2  0
 19 18  1  0
 20 19  1  0
 21 22  1  0
 21 20  2  0
 22 23  2  0
 23 24  1  0
 24 16  1  0
 25 26  1  0
 27 25  2  0
M  END
$$$$
