LGW.pdb
     RDKit          3D

 27 28  0  0  1  0  0  0  0  0999 V2000
   28.4439  -16.7599  -18.0823 C   0  0  0  0  0  0  0  0  0  0  0  0
   27.6615  -16.5978  -16.8182 C   0  0  1  0  0  0  0  0  0  0  0  0
   27.4933  -15.1119  -16.4951 C   0  0  0  0  0  0  0  0  0  0  0  0
   26.3234  -17.2235  -16.8109 C   0  0  0  0  0  0  0  0  0  0  0  0
   25.9135  -17.8187  -15.5205 C   0  0  2  0  0  0  0  0  0  0  0  0
   26.1099  -16.8700  -14.4195 N   0  0  0  0  0  0  0  0  0  0  0  0
   26.5733  -19.0791  -15.2072 C   0  0  0  0  0  0  0  0  0  0  0  0
   26.4625  -20.1213  -15.9123 O   0  0  0  0  0  0  0  0  0  0  0  0
   27.4013  -19.1666  -14.0427 N   0  0  0  0  0  0  0  0  0  0  0  0
   28.0330  -20.4096  -13.7313 C   0  0  0  0  0  0  0  0  0  0  0  0
   27.6004  -20.8703  -12.3728 C   0  0  0  0  0  0  0  0  0  0  0  0
   27.9862  -21.9841  -11.9375 O   0  0  0  0  0  0  0  0  0  0  0  0
   26.7505  -20.0772  -11.5423 N   0  0  0  0  0  0  0  0  0  0  0  0
   26.3847  -20.5837  -10.2541 C   0  0  1  0  0  0  0  0  0  0  0  0
   27.1741  -19.9984   -9.1556 C   0  0  0  0  0  0  0  0  0  0  0  0
   26.7654  -20.3361   -7.7931 C   0  0  0  0  0  0  0  0  0  0  0  0
   25.6866  -21.0145   -7.2727 C   0  0  0  0  0  0  0  0  0  0  0  0
   25.7820  -21.0711   -5.9166 N   0  0  0  0  0  0  0  0  0  0  0  0
   26.9139  -20.4376   -5.5213 C   0  0  0  0  0  0  0  0  0  0  0  0
   27.4390  -20.2356   -4.2615 C   0  0  0  0  0  0  0  0  0  0  0  0
   28.6222  -19.5527   -4.1305 C   0  0  0  0  0  0  0  0  0  0  0  0
   29.2591  -19.0841   -5.2573 C   0  0  0  0  0  0  0  0  0  0  0  0
   28.7144  -19.2966   -6.5233 C   0  0  0  0  0  0  0  0  0  0  0  0
   27.5259  -19.9821   -6.6645 C   0  0  0  0  0  0  0  0  0  0  0  0
   24.9201  -20.4667   -9.9992 C   0  0  0  0  0  0  0  0  0  0  0  0
   24.2957  -21.3002   -9.1036 O   0  0  0  0  0  0  0  0  0  0  0  0
   24.2745  -19.6019  -10.6085 O   0  0  0  0  0  0  0  0  0  0  0  0
  2  4  1  0
  2  1  1  6
  2  3  1  0
  5  4  1  0
  5  6  1  1
  7  5  1  0
  8  7  2  0
  9  7  1  0
 10  9  1  0
 11 10  1  0
 11 13  1  0
 12 11  2  0
 14 15  1  1
 14 25  1  0
 14 13  1  0
 16 15  1  0
 16 17  2  0
 18 17  1  0
 19 24  2  0
 19 18  1  0
 20 19  1  0
 21 22  1  0
 21 20  2  0
 22 23  2  0
 23 24  1  0
 24 16  1  0
 25 26  1  0
 27 25  2  0
M  END
$$$$
