TIM.pdb
     RDKit          3D

 24 23  0  0  1  0  0  0  0  0999 V2000
    9.6272  -19.7469   22.0843 C   0  0  0  0  0  0  0  0  0  0  0  0
   10.3561  -19.7398   20.7687 C   0  0  1  0  0  0  0  0  0  0  0  0
   10.3057  -21.0022   20.1721 O   0  0  0  0  0  0  0  0  0  0  0  0
    9.7968  -18.6888   19.8642 C   0  0  2  0  0  0  0  0  0  0  0  0
   10.3303  -18.7321   18.5311 N   0  0  0  0  0  0  0  0  0  0  0  0
    9.9734  -17.3410   20.4881 C   0  0  0  0  0  0  0  0  0  0  0  0
   11.0631  -16.7000   20.3701 O   0  0  0  0  0  0  0  0  0  0  0  0
    7.1029  -12.2659   20.7218 C   0  0  0  0  0  0  0  0  0  0  0  0
    8.1079  -13.0819   21.4966 C   0  0  0  0  0  0  0  0  0  0  0  0
    8.1377  -14.5154   21.1480 C   0  0  2  0  0  0  0  0  0  0  0  0
    6.7391  -15.0805   21.4372 C   0  0  0  0  0  0  0  0  0  0  0  0
    9.1351  -15.3824   21.8242 C   0  0  2  0  0  0  0  0  0  0  0  0
    8.9366  -16.7273   21.2329 N   0  0  0  0  0  0  0  0  0  0  0  0
    8.9866  -15.5278   23.2657 C   0  0  0  0  0  0  0  0  0  0  0  0
    7.9369  -16.0764   23.7343 O   0  0  0  0  0  0  0  0  0  0  0  0
    6.8373  -10.7249   26.2778 C   0  0  0  0  0  0  0  0  0  0  0  0
    7.4837  -12.2897   26.8667 S   0  0  0  0  0  0  0  0  0  0  0  0
    7.9924  -13.3735   25.5308 C   0  0  0  0  0  0  0  0  0  0  0  0
    8.3157  -14.7633   26.0040 C   0  0  0  0  0  0  0  0  0  0  0  0
    9.7136  -15.2039   25.6299 C   0  0  2  0  0  0  0  0  0  0  0  0
    9.9385  -15.1002   24.2010 N   0  0  0  0  0  0  0  0  0  0  0  0
    9.8403  -16.6147   26.0319 C   0  0  0  0  0  0  0  0  0  0  0  0
    9.9619  -16.9294   27.3720 O   0  0  0  0  0  0  0  0  0  0  0  0
    9.8450  -17.5741   25.2157 O   0  0  0  0  0  0  0  0  0  0  0  0
  2  3  1  0
  2  1  1  1
  4  2  1  0
  4  5  1  6
  6 13  1  0
  6  4  1  0
  7  6  2  0
  8  9  1  0
  9 10  1  0
 10 12  1  0
 10 11  1  1
 12 13  1  6
 14 15  2  0
 14 12  1  0
 16 17  1  0
 18 17  1  0
 18 19  1  0
 20 19  1  6
 20 21  1  0
 21 14  1  0
 22 20  1  0
 23 22  1  0
 24 22  2  0
M  END
$$$$
