TIM.pdb
     RDKit          3D

 24 23  0  0  1  0  0  0  0  0999 V2000
    7.5456  -17.9102   19.6572 C   0  0  0  0  0  0  0  0  0  0  0  0
    8.1474  -17.3494   20.9163 C   0  0  1  0  0  0  0  0  0  0  0  0
    9.3521  -17.9917   21.2136 O   0  0  0  0  0  0  0  0  0  0  0  0
    8.3355  -15.8711   20.7953 C   0  0  2  0  0  0  0  0  0  0  0  0
    9.1240  -15.4814   19.6595 N   0  0  0  0  0  0  0  0  0  0  0  0
    8.8959  -15.3283   22.0713 C   0  0  0  0  0  0  0  0  0  0  0  0
   10.0985  -14.9273   22.1427 O   0  0  0  0  0  0  0  0  0  0  0  0
    5.7686  -12.3168   25.4239 C   0  0  0  0  0  0  0  0  0  0  0  0
    6.9821  -12.8227   24.6840 C   0  0  0  0  0  0  0  0  0  0  0  0
    7.5484  -14.0777   25.2146 C   0  0  2  0  0  0  0  0  0  0  0  0
    7.9854  -13.8009   26.6608 C   0  0  0  0  0  0  0  0  0  0  0  0
    8.6930  -14.6915   24.4956 C   0  0  2  0  0  0  0  0  0  0  0  0
    8.1111  -15.2398   23.2471 N   0  0  0  0  0  0  0  0  0  0  0  0
    9.3585  -15.7957   25.1729 C   0  0  0  0  0  0  0  0  0  0  0  0
    9.1544  -16.9883   24.7746 O   0  0  0  0  0  0  0  0  0  0  0  0
    9.7579  -13.7748   28.7393 C   0  0  0  0  0  0  0  0  0  0  0  0
   10.7563  -14.7686   29.8477 S   0  0  0  0  0  0  0  0  0  0  0  0
   11.1533  -16.3786   29.1636 C   0  0  0  0  0  0  0  0  0  0  0  0
   11.9422  -16.2868   27.8872 C   0  0  0  0  0  0  0  0  0  0  0  0
   11.1425  -16.6917   26.6687 C   0  0  2  0  0  0  0  0  0  0  0  0
   10.2322  -15.6404   26.2576 N   0  0  0  0  0  0  0  0  0  0  0  0
   10.3598  -17.8807   27.0454 C   0  0  0  0  0  0  0  0  0  0  0  0
   11.0089  -19.0841   27.2454 O   0  0  0  0  0  0  0  0  0  0  0  0
    9.1098  -17.8715   27.2006 O   0  0  0  0  0  0  0  0  0  0  0  0
  2  3  1  0
  2  1  1  6
  4  2  1  0
  4  5  1  6
  6 13  1  0
  6  4  1  0
  7  6  2  0
  8  9  1  0
  9 10  1  0
 10 12  1  0
 10 11  1  1
 12 13  1  6
 14 15  2  0
 14 12  1  0
 16 17  1  0
 18 17  1  0
 18 19  1  0
 20 19  1  1
 20 21  1  0
 21 14  1  0
 22 20  1  0
 23 22  1  0
 24 22  2  0
M  END
$$$$
