TIM.pdb
     RDKit          3D

 24 23  0  0  1  0  0  0  0  0999 V2000
    6.3323  -16.7772   20.1011 C   0  0  0  0  0  0  0  0  0  0  0  0
    6.9695  -16.4847   21.4316 C   0  0  1  0  0  0  0  0  0  0  0  0
    7.8962  -17.4770   21.7615 O   0  0  0  0  0  0  0  0  0  0  0  0
    7.6032  -15.1306   21.4241 C   0  0  2  0  0  0  0  0  0  0  0  0
    8.5659  -14.9504   20.3731 N   0  0  0  0  0  0  0  0  0  0  0  0
    8.1905  -14.8415   22.7689 C   0  0  0  0  0  0  0  0  0  0  0  0
    9.4470  -14.7599   22.9334 O   0  0  0  0  0  0  0  0  0  0  0  0
    6.0251  -11.1721   25.9135 C   0  0  0  0  0  0  0  0  0  0  0  0
    6.9921  -12.1134   25.2389 C   0  0  0  0  0  0  0  0  0  0  0  0
    7.1444  -13.4215   25.9045 C   0  0  2  0  0  0  0  0  0  0  0  0
    7.7250  -13.1535   27.3010 C   0  0  0  0  0  0  0  0  0  0  0  0
    7.9850  -14.4520   25.2448 C   0  0  2  0  0  0  0  0  0  0  0  0
    7.3726  -14.6476   23.9089 N   0  0  0  0  0  0  0  0  0  0  0  0
    8.0224  -15.7579   25.8885 C   0  0  0  0  0  0  0  0  0  0  0  0
    7.1880  -16.6534   25.5359 O   0  0  0  0  0  0  0  0  0  0  0  0
   12.3707  -16.9478   23.0576 C   0  0  0  0  0  0  0  0  0  0  0  0
   12.6368  -18.4088   24.0615 S   0  0  0  0  0  0  0  0  0  0  0  0
   11.5869  -18.4482   25.5156 C   0  0  0  0  0  0  0  0  0  0  0  0
   10.6637  -17.2644   25.5955 C   0  0  0  0  0  0  0  0  0  0  0  0
    9.7506  -17.3084   26.8007 C   0  0  2  0  0  0  0  0  0  0  0  0
    8.9337  -16.1137   26.8919 N   0  0  0  0  0  0  0  0  0  0  0  0
   10.6147  -17.3878   27.9903 C   0  0  0  0  0  0  0  0  0  0  0  0
   11.5266  -16.3787   28.2343 O   0  0  0  0  0  0  0  0  0  0  0  0
   10.5755  -18.3367   28.8179 O   0  0  0  0  0  0  0  0  0  0  0  0
  2  3  1  0
  2  1  1  6
  4  2  1  0
  4  5  1  6
  6 13  1  0
  6  4  1  0
  7  6  2  0
  8  9  1  0
  9 10  1  0
 10 12  1  0
 10 11  1  1
 12 13  1  6
 14 15  2  0
 14 12  1  0
 16 17  1  0
 18 17  1  0
 18 19  1  0
 20 19  1  6
 20 21  1  0
 21 14  1  0
 22 20  1  0
 23 22  1  0
 24 22  2  0
M  END
$$$$
