TIM.pdb
     RDKit          3D

 24 23  0  0  1  0  0  0  0  0999 V2000
    7.8952  -18.5998   23.0317 C   0  0  0  0  0  0  0  0  0  0  0  0
    8.1588  -18.1379   21.6249 C   0  0  1  0  0  0  0  0  0  0  0  0
    7.7758  -19.1182   20.7059 O   0  0  0  0  0  0  0  0  0  0  0  0
    7.4626  -16.8419   21.3585 C   0  0  2  0  0  0  0  0  0  0  0  0
    7.3682  -16.5145   19.9629 N   0  0  0  0  0  0  0  0  0  0  0  0
    8.1169  -15.7482   22.1411 C   0  0  0  0  0  0  0  0  0  0  0  0
    9.0822  -15.0804   21.6567 O   0  0  0  0  0  0  0  0  0  0  0  0
    6.2302  -11.9544   26.5218 C   0  0  0  0  0  0  0  0  0  0  0  0
    7.4259  -12.4808   25.7674 C   0  0  0  0  0  0  0  0  0  0  0  0
    7.1554  -13.6691   24.9356 C   0  0  2  0  0  0  0  0  0  0  0  0
    6.6069  -14.7590   25.8685 C   0  0  0  0  0  0  0  0  0  0  0  0
    8.2764  -14.2505   24.1550 C   0  0  2  0  0  0  0  0  0  0  0  0
    7.6883  -15.4140   23.4491 N   0  0  0  0  0  0  0  0  0  0  0  0
    9.4050  -14.7505   24.9278 C   0  0  0  0  0  0  0  0  0  0  0  0
   10.0222  -13.9625   25.7155 O   0  0  0  0  0  0  0  0  0  0  0  0
   10.7746  -13.7696   29.9466 C   0  0  0  0  0  0  0  0  0  0  0  0
   10.1725  -14.4378   28.3961 S   0  0  0  0  0  0  0  0  0  0  0  0
    9.9464  -16.2165   28.4520 C   0  0  0  0  0  0  0  0  0  0  0  0
    9.3960  -16.7709   27.1676 C   0  0  0  0  0  0  0  0  0  0  0  0
   10.4011  -16.7504   26.0373 C   0  0  2  0  0  0  0  0  0  0  0  0
    9.8740  -16.0698   24.8703 N   0  0  0  0  0  0  0  0  0  0  0  0
   10.6801  -18.1530   25.6865 C   0  0  0  0  0  0  0  0  0  0  0  0
   11.4366  -18.9287   26.5442 O   0  0  0  0  0  0  0  0  0  0  0  0
   10.2649  -18.7034   24.6323 O   0  0  0  0  0  0  0  0  0  0  0  0
  2  3  1  0
  2  1  1  1
  4  2  1  0
  4  5  1  6
  6 13  1  0
  6  4  1  0
  7  6  2  0
  8  9  1  0
  9 10  1  0
 10 12  1  0
 10 11  1  1
 12 13  1  1
 14 15  2  0
 14 12  1  0
 16 17  1  0
 18 17  1  0
 18 19  1  0
 20 19  1  1
 20 21  1  0
 21 14  1  0
 22 20  1  0
 23 22  1  0
 24 22  2  0
M  END
$$$$
