TIM.pdb
     RDKit          3D

 24 23  0  0  1  0  0  0  0  0999 V2000
    6.2136  -17.6176   20.4520 C   0  0  0  0  0  0  0  0  0  0  0  0
    5.4476  -17.6172   21.7463 C   0  0  1  0  0  0  0  0  0  0  0  0
    4.3948  -18.5344   21.6945 O   0  0  0  0  0  0  0  0  0  0  0  0
    6.3595  -17.9014   22.8964 C   0  0  2  0  0  0  0  0  0  0  0  0
    5.6690  -18.1646   24.1283 N   0  0  0  0  0  0  0  0  0  0  0  0
    7.3484  -16.7888   23.0423 C   0  0  0  0  0  0  0  0  0  0  0  0
    8.0985  -16.4456   22.0770 O   0  0  0  0  0  0  0  0  0  0  0  0
    5.6778  -12.7779   26.1556 C   0  0  0  0  0  0  0  0  0  0  0  0
    6.3964  -13.4166   24.9930 C   0  0  0  0  0  0  0  0  0  0  0  0
    7.7153  -13.9896   25.3235 C   0  0  2  0  0  0  0  0  0  0  0  0
    8.6634  -12.8132   25.5997 C   0  0  0  0  0  0  0  0  0  0  0  0
    8.3633  -14.8813   24.3290 C   0  0  2  0  0  0  0  0  0  0  0  0
    7.4877  -16.0756   24.2581 N   0  0  0  0  0  0  0  0  0  0  0  0
    9.6986  -15.3549   24.6659 C   0  0  0  0  0  0  0  0  0  0  0  0
   10.6998  -14.5904   24.4771 O   0  0  0  0  0  0  0  0  0  0  0  0
   10.2176  -13.5077   29.5084 C   0  0  0  0  0  0  0  0  0  0  0  0
   10.9134  -15.0668   30.0544 S   0  0  0  0  0  0  0  0  0  0  0  0
   11.3739  -16.1340   28.6880 C   0  0  0  0  0  0  0  0  0  0  0  0
   10.4003  -16.0634   27.5447 C   0  0  0  0  0  0  0  0  0  0  0  0
   10.8770  -16.8071   26.3168 C   0  0  2  0  0  0  0  0  0  0  0  0
    9.9720  -16.6218   25.1990 N   0  0  0  0  0  0  0  0  0  0  0  0
   10.9143  -18.2364   26.6690 C   0  0  0  0  0  0  0  0  0  0  0  0
   10.0588  -19.1142   26.0310 O   0  0  0  0  0  0  0  0  0  0  0  0
   11.6925  -18.7210   27.5329 O   0  0  0  0  0  0  0  0  0  0  0  0
  2  3  1  0
  2  1  1  6
  4  2  1  0
  4  5  1  1
  6 13  1  0
  6  4  1  0
  7  6  2  0
  8  9  1  0
  9 10  1  0
 10 12  1  0
 10 11  1  6
 12 13  1  1
 14 15  2  0
 14 12  1  0
 16 17  1  0
 18 17  1  0
 18 19  1  0
 20 19  1  1
 20 21  1  0
 21 14  1  0
 22 20  1  0
 23 22  1  0
 24 22  2  0
M  END
$$$$
