TIM.pdb
     RDKit          3D

 24 23  0  0  1  0  0  0  0  0999 V2000
    4.8876  -19.9661   22.5428 C   0  0  0  0  0  0  0  0  0  0  0  0
    6.0532  -19.0161   22.5112 C   0  0  1  0  0  0  0  0  0  0  0  0
    7.1916  -19.6168   23.0547 O   0  0  0  0  0  0  0  0  0  0  0  0
    6.3041  -18.5388   21.1168 C   0  0  2  0  0  0  0  0  0  0  0  0
    6.5162  -19.6011   20.1732 N   0  0  0  0  0  0  0  0  0  0  0  0
    7.4363  -17.5616   21.1146 C   0  0  0  0  0  0  0  0  0  0  0  0
    8.5607  -17.8598   20.6055 O   0  0  0  0  0  0  0  0  0  0  0  0
    6.6078  -12.6724   19.3175 C   0  0  0  0  0  0  0  0  0  0  0  0
    7.4009  -13.9066   19.6695 C   0  0  0  0  0  0  0  0  0  0  0  0
    7.7440  -14.0315   21.0992 C   0  0  2  0  0  0  0  0  0  0  0  0
    8.6646  -12.8526   21.4482 C   0  0  0  0  0  0  0  0  0  0  0  0
    8.4003  -15.2816   21.5578 C   0  0  2  0  0  0  0  0  0  0  0  0
    7.3011  -16.2691   21.6780 N   0  0  0  0  0  0  0  0  0  0  0  0
    9.0591  -15.2217   22.8552 C   0  0  0  0  0  0  0  0  0  0  0  0
   10.1610  -14.5929   22.9690 O   0  0  0  0  0  0  0  0  0  0  0  0
    6.5690  -11.6207   26.6387 C   0  0  0  0  0  0  0  0  0  0  0  0
    7.9143  -12.3210   27.5940 S   0  0  0  0  0  0  0  0  0  0  0  0
    8.0769  -14.0924   27.3625 C   0  0  0  0  0  0  0  0  0  0  0  0
    7.7899  -14.5205   25.9502 C   0  0  0  0  0  0  0  0  0  0  0  0
    8.9083  -15.3379   25.3425 C   0  0  2  0  0  0  0  0  0  0  0  0
    8.5571  -15.8178   24.0199 N   0  0  0  0  0  0  0  0  0  0  0  0
    9.1241  -16.4943   26.2282 C   0  0  0  0  0  0  0  0  0  0  0  0
    8.9294  -17.7708   25.7360 O   0  0  0  0  0  0  0  0  0  0  0  0
    9.4823  -16.3930   27.4316 O   0  0  0  0  0  0  0  0  0  0  0  0
  2  3  1  0
  2  1  1  6
  4  2  1  0
  4  5  1  6
  6 13  1  0
  6  4  1  0
  7  6  2  0
  8  9  1  0
  9 10  1  0
 10 12  1  0
 10 11  1  6
 12 13  1  1
 14 15  2  0
 14 12  1  0
 16 17  1  0
 18 17  1  0
 18 19  1  0
 20 19  1  1
 20 21  1  0
 21 14  1  0
 22 20  1  0
 23 22  1  0
 24 22  2  0
M  END
$$$$
