TIM.pdb
     RDKit          3D

 24 23  0  0  1  0  0  0  0  0999 V2000
    9.7668  -20.6449   19.4207 C   0  0  0  0  0  0  0  0  0  0  0  0
    9.9724  -19.4050   20.2469 C   0  0  1  0  0  0  0  0  0  0  0  0
   11.1513  -19.5000   20.9908 O   0  0  0  0  0  0  0  0  0  0  0  0
    9.9754  -18.1889   19.3771 C   0  0  2  0  0  0  0  0  0  0  0  0
   10.9595  -18.2305   18.3314 N   0  0  0  0  0  0  0  0  0  0  0  0
   10.1180  -16.9642   20.2237 C   0  0  0  0  0  0  0  0  0  0  0  0
   11.1765  -16.2634   20.1924 O   0  0  0  0  0  0  0  0  0  0  0  0
    6.6291  -13.0295   20.2591 C   0  0  0  0  0  0  0  0  0  0  0  0
    7.9366  -13.7584   20.4470 C   0  0  0  0  0  0  0  0  0  0  0  0
    8.0426  -14.5187   21.7071 C   0  0  2  0  0  0  0  0  0  0  0  0
    7.9201  -13.5080   22.8570 C   0  0  0  0  0  0  0  0  0  0  0  0
    9.2626  -15.3331   21.9359 C   0  0  2  0  0  0  0  0  0  0  0  0
    9.0826  -16.5380   21.0911 N   0  0  0  0  0  0  0  0  0  0  0  0
    9.4761  -15.7999   23.2988 C   0  0  0  0  0  0  0  0  0  0  0  0
    8.6694  -16.6464   23.8039 O   0  0  0  0  0  0  0  0  0  0  0  0
    9.3480  -12.5040   28.2867 C   0  0  0  0  0  0  0  0  0  0  0  0
    9.9273  -14.0461   28.9933 S   0  0  0  0  0  0  0  0  0  0  0  0
    9.8173  -15.4176   27.8423 C   0  0  0  0  0  0  0  0  0  0  0  0
    9.7706  -14.9679   26.4086 C   0  0  0  0  0  0  0  0  0  0  0  0
   10.6493  -15.7994   25.5003 C   0  0  2  0  0  0  0  0  0  0  0  0
   10.5325  -15.3784   24.1175 N   0  0  0  0  0  0  0  0  0  0  0  0
   10.1876  -17.1929   25.6157 C   0  0  0  0  0  0  0  0  0  0  0  0
   11.1103  -18.1959   25.8442 O   0  0  0  0  0  0  0  0  0  0  0  0
    8.9800  -17.5372   25.5174 O   0  0  0  0  0  0  0  0  0  0  0  0
  2  3  1  0
  2  1  1  6
  4  2  1  0
  4  5  1  6
  6 13  1  0
  6  4  1  0
  7  6  2  0
  8  9  1  0
  9 10  1  0
 10 12  1  0
 10 11  1  1
 12 13  1  6
 14 15  2  0
 14 12  1  0
 16 17  1  0
 18 17  1  0
 18 19  1  0
 20 19  1  1
 20 21  1  0
 21 14  1  0
 22 20  1  0
 23 22  1  0
 24 22  2  0
M  END
$$$$
