TIM.pdb
     RDKit          3D

 24 23  0  0  1  0  0  0  0  0999 V2000
    5.8379  -20.2983   25.2366 C   0  0  0  0  0  0  0  0  0  0  0  0
    6.7358  -19.1257   24.9525 C   0  0  1  0  0  0  0  0  0  0  0  0
    7.9835  -19.5608   24.4985 O   0  0  0  0  0  0  0  0  0  0  0  0
    6.0938  -18.1983   23.9712 C   0  0  2  0  0  0  0  0  0  0  0  0
    5.7380  -18.8284   22.7302 N   0  0  0  0  0  0  0  0  0  0  0  0
    6.9712  -17.0064   23.7558 C   0  0  0  0  0  0  0  0  0  0  0  0
    7.5663  -16.8198   22.6497 O   0  0  0  0  0  0  0  0  0  0  0  0
    5.5647  -12.4888   26.4881 C   0  0  0  0  0  0  0  0  0  0  0  0
    6.0714  -13.2967   25.3191 C   0  0  0  0  0  0  0  0  0  0  0  0
    7.4452  -13.8117   25.4754 C   0  0  2  0  0  0  0  0  0  0  0  0
    8.3885  -12.5999   25.4481 C   0  0  0  0  0  0  0  0  0  0  0  0
    7.9400  -14.8044   24.4887 C   0  0  2  0  0  0  0  0  0  0  0  0
    7.1732  -16.0411   24.7726 N   0  0  0  0  0  0  0  0  0  0  0  0
    9.3515  -15.1513   24.5801 C   0  0  0  0  0  0  0  0  0  0  0  0
   10.2305  -14.2842   24.2670 O   0  0  0  0  0  0  0  0  0  0  0  0
    9.7145  -13.7700   29.6359 C   0  0  0  0  0  0  0  0  0  0  0  0
   11.1513  -14.8411   29.5986 S   0  0  0  0  0  0  0  0  0  0  0  0
   10.8747  -16.3348   28.6444 C   0  0  0  0  0  0  0  0  0  0  0  0
   10.0344  -16.0933   27.4214 C   0  0  0  0  0  0  0  0  0  0  0  0
   10.7087  -16.5425   26.1440 C   0  0  2  0  0  0  0  0  0  0  0  0
    9.8283  -16.4003   25.0005 N   0  0  0  0  0  0  0  0  0  0  0  0
   11.0441  -17.9661   26.3141 C   0  0  0  0  0  0  0  0  0  0  0  0
   12.1485  -18.3170   27.0669 O   0  0  0  0  0  0  0  0  0  0  0  0
   10.3749  -18.9050   25.8069 O   0  0  0  0  0  0  0  0  0  0  0  0
  2  3  1  0
  2  1  1  6
  4  2  1  0
  4  5  1  6
  6 13  1  0
  6  4  1  0
  7  6  2  0
  8  9  1  0
  9 10  1  0
 10 12  1  0
 10 11  1  6
 12 13  1  1
 14 15  2  0
 14 12  1  0
 16 17  1  0
 18 17  1  0
 18 19  1  0
 20 19  1  1
 20 21  1  0
 21 14  1  0
 22 20  1  0
 23 22  1  0
 24 22  2  0
M  END
$$$$
