TIM.pdb
     RDKit          3D

 24 23  0  0  1  0  0  0  0  0999 V2000
    5.9827  -19.0614   21.8036 C   0  0  0  0  0  0  0  0  0  0  0  0
    6.9794  -18.1574   22.4754 C   0  0  1  0  0  0  0  0  0  0  0  0
    8.2601  -18.7135   22.4238 O   0  0  0  0  0  0  0  0  0  0  0  0
    6.9531  -16.7960   21.8581 C   0  0  2  0  0  0  0  0  0  0  0  0
    7.2578  -16.7935   20.4542 N   0  0  0  0  0  0  0  0  0  0  0  0
    7.8540  -15.8787   22.6221 C   0  0  0  0  0  0  0  0  0  0  0  0
    8.9455  -15.4638   22.1232 O   0  0  0  0  0  0  0  0  0  0  0  0
    5.3010  -12.6516   26.1774 C   0  0  0  0  0  0  0  0  0  0  0  0
    6.2789  -13.0638   25.1052 C   0  0  0  0  0  0  0  0  0  0  0  0
    7.4690  -13.7822   25.5999 C   0  0  2  0  0  0  0  0  0  0  0  0
    8.2964  -12.7784   26.4166 C   0  0  0  0  0  0  0  0  0  0  0  0
    8.3678  -14.4211   24.6060 C   0  0  2  0  0  0  0  0  0  0  0  0
    7.5278  -15.4372   23.9278 N   0  0  0  0  0  0  0  0  0  0  0  0
    9.5261  -15.1206   25.1446 C   0  0  0  0  0  0  0  0  0  0  0  0
   10.6426  -14.5128   25.2249 O   0  0  0  0  0  0  0  0  0  0  0  0
   10.7070  -13.0454   29.1843 C   0  0  0  0  0  0  0  0  0  0  0  0
   11.1539  -14.7479   29.5231 S   0  0  0  0  0  0  0  0  0  0  0  0
   11.6444  -15.6402   28.0463 C   0  0  0  0  0  0  0  0  0  0  0  0
   10.7024  -16.7619   27.7078 C   0  0  0  0  0  0  0  0  0  0  0  0
   10.6536  -17.0650   26.2266 C   0  0  2  0  0  0  0  0  0  0  0  0
    9.5033  -16.4472   25.5957 N   0  0  0  0  0  0  0  0  0  0  0  0
   10.5441  -18.5272   26.0918 C   0  0  0  0  0  0  0  0  0  0  0  0
    9.4530  -19.0678   25.4384 O   0  0  0  0  0  0  0  0  0  0  0  0
   11.3991  -19.3345   26.5433 O   0  0  0  0  0  0  0  0  0  0  0  0
  2  3  1  0
  2  1  1  6
  4  2  1  0
  4  5  1  6
  6 13  1  0
  6  4  1  0
  7  6  2  0
  8  9  1  0
  9 10  1  0
 10 12  1  0
 10 11  1  6
 12 13  1  1
 14 15  2  0
 14 12  1  0
 16 17  1  0
 18 17  1  0
 18 19  1  0
 20 19  1  1
 20 21  1  0
 21 14  1  0
 22 20  1  0
 23 22  1  0
 24 22  2  0
M  END
$$$$
