TIM.pdb
     RDKit          3D

 24 23  0  0  1  0  0  0  0  0999 V2000
   11.8452  -20.0171   19.1711 C   0  0  0  0  0  0  0  0  0  0  0  0
   11.5122  -18.9512   20.1786 C   0  0  1  0  0  0  0  0  0  0  0  0
   12.4253  -18.9721   21.2360 O   0  0  0  0  0  0  0  0  0  0  0  0
   11.4678  -17.6069   19.5258 C   0  0  2  0  0  0  0  0  0  0  0  0
   12.6853  -17.2538   18.8499 N   0  0  0  0  0  0  0  0  0  0  0  0
   11.0713  -16.5719   20.5299 C   0  0  0  0  0  0  0  0  0  0  0  0
   11.9069  -15.7164   20.9568 O   0  0  0  0  0  0  0  0  0  0  0  0
    6.9132  -13.4863   19.7246 C   0  0  0  0  0  0  0  0  0  0  0  0
    8.2343  -13.9746   20.2653 C   0  0  0  0  0  0  0  0  0  0  0  0
    8.1301  -14.8487   21.4495 C   0  0  2  0  0  0  0  0  0  0  0  0
    7.4569  -14.0281   22.5596 C   0  0  0  0  0  0  0  0  0  0  0  0
    9.3769  -15.4364   22.0009 C   0  0  2  0  0  0  0  0  0  0  0  0
    9.7529  -16.5039   21.0433 N   0  0  0  0  0  0  0  0  0  0  0  0
    9.2661  -16.0628   23.3110 C   0  0  0  0  0  0  0  0  0  0  0  0
    9.1704  -17.3304   23.3923 O   0  0  0  0  0  0  0  0  0  0  0  0
   10.3805  -12.5248   28.7528 C   0  0  0  0  0  0  0  0  0  0  0  0
   10.5386  -14.1846   29.4107 S   0  0  0  0  0  0  0  0  0  0  0  0
   10.3003  -15.4487   28.1604 C   0  0  0  0  0  0  0  0  0  0  0  0
   10.0051  -14.8727   26.8036 C   0  0  0  0  0  0  0  0  0  0  0  0
    9.7697  -15.9331   25.7507 C   0  0  2  0  0  0  0  0  0  0  0  0
    9.2594  -15.3570   24.5216 N   0  0  0  0  0  0  0  0  0  0  0  0
    8.7655  -16.8622   26.2954 C   0  0  0  0  0  0  0  0  0  0  0  0
    7.4430  -16.7283   25.9180 O   0  0  0  0  0  0  0  0  0  0  0  0
    9.0401  -17.7913   27.1004 O   0  0  0  0  0  0  0  0  0  0  0  0
  2  3  1  0
  2  1  1  6
  4  2  1  0
  4  5  1  1
  6 13  1  0
  6  4  1  0
  7  6  2  0
  8  9  1  0
  9 10  1  0
 10 12  1  0
 10 11  1  1
 12 13  1  6
 14 15  2  0
 14 12  1  0
 16 17  1  0
 18 17  1  0
 18 19  1  0
 20 19  1  1
 20 21  1  0
 21 14  1  0
 22 20  1  0
 23 22  1  0
 24 22  2  0
M  END
$$$$
