TIM.pdb
     RDKit          3D

 24 23  0  0  1  0  0  0  0  0999 V2000
    6.4662  -18.9475   21.2760 C   0  0  0  0  0  0  0  0  0  0  0  0
    7.3354  -18.0098   22.0679 C   0  0  1  0  0  0  0  0  0  0  0  0
    8.6282  -18.5249   22.1921 O   0  0  0  0  0  0  0  0  0  0  0  0
    7.3494  -16.6520   21.4422 C   0  0  2  0  0  0  0  0  0  0  0  0
    7.7489  -16.6573   20.0623 N   0  0  0  0  0  0  0  0  0  0  0  0
    8.1952  -15.7288   22.2602 C   0  0  0  0  0  0  0  0  0  0  0  0
    9.3047  -15.2930   21.8227 O   0  0  0  0  0  0  0  0  0  0  0  0
    5.5582  -12.6578   26.0499 C   0  0  0  0  0  0  0  0  0  0  0  0
    6.4814  -13.0516   24.9235 C   0  0  0  0  0  0  0  0  0  0  0  0
    7.6898  -13.7858   25.3454 C   0  0  2  0  0  0  0  0  0  0  0  0
    8.4966  -12.8455   26.2532 C   0  0  0  0  0  0  0  0  0  0  0  0
    8.5995  -14.3053   24.2936 C   0  0  2  0  0  0  0  0  0  0  0  0
    7.7947  -15.3047   23.5510 N   0  0  0  0  0  0  0  0  0  0  0  0
    9.7970  -14.9895   24.7615 C   0  0  0  0  0  0  0  0  0  0  0  0
   10.8957  -14.3491   24.8336 O   0  0  0  0  0  0  0  0  0  0  0  0
   10.5814  -13.8030   29.6993 C   0  0  0  0  0  0  0  0  0  0  0  0
   11.4533  -15.3592   29.5224 S   0  0  0  0  0  0  0  0  0  0  0  0
   10.4060  -16.6691   28.8858 C   0  0  0  0  0  0  0  0  0  0  0  0
    9.7275  -16.2937   27.5979 C   0  0  0  0  0  0  0  0  0  0  0  0
   10.4817  -16.7652   26.3743 C   0  0  2  0  0  0  0  0  0  0  0  0
    9.8317  -16.3351   25.1514 N   0  0  0  0  0  0  0  0  0  0  0  0
   10.4915  -18.2370   26.4176 C   0  0  0  0  0  0  0  0  0  0  0  0
    9.7960  -18.9480   25.4582 O   0  0  0  0  0  0  0  0  0  0  0  0
   11.1061  -18.9043   27.2915 O   0  0  0  0  0  0  0  0  0  0  0  0
  2  3  1  0
  2  1  1  6
  4  2  1  0
  4  5  1  6
  6 13  1  0
  6  4  1  0
  7  6  2  0
  8  9  1  0
  9 10  1  0
 10 12  1  0
 10 11  1  1
 12 13  1  6
 14 15  2  0
 14 12  1  0
 16 17  1  0
 18 17  1  0
 18 19  1  0
 20 19  1  1
 20 21  1  0
 21 14  1  0
 22 20  1  0
 23 22  1  0
 24 22  2  0
M  END
$$$$
