FIY.pdb
     RDKit          3D

 32 33  0  0  1  0  0  0  0  0999 V2000
    6.2609  -19.4608   24.0291 N   0  0  0  0  0  0  0  0  0  0  0  0
    6.7337  -18.4763   24.9798 C   0  0  1  0  0  0  0  0  0  0  0  0
    8.0084  -19.0183   25.5856 C   0  0  0  0  0  0  0  0  0  0  0  0
    7.6485  -20.0522   26.5895 C   0  0  0  0  0  0  0  0  0  0  0  0
    6.3286  -20.4152   26.8281 C   0  0  0  0  0  0  0  0  0  0  0  0
    6.0284  -21.3801   27.7684 C   0  0  0  0  0  0  0  0  0  0  0  0
    7.0164  -22.0137   28.4988 C   0  0  0  0  0  0  0  0  0  0  0  0
    8.3288  -21.6573   28.2660 C   0  0  0  0  0  0  0  0  0  0  0  0
    8.6211  -20.6945   27.3271 C   0  0  0  0  0  0  0  0  0  0  0  0
    6.9186  -17.1856   24.3123 C   0  0  0  0  0  0  0  0  0  0  0  0
    7.0755  -17.1802   23.0487 O   0  0  0  0  0  0  0  0  0  0  0  0
    5.4174  -12.2948   26.7284 C   0  0  0  0  0  0  0  0  0  0  0  0
    5.5313  -13.3116   25.6124 C   0  0  0  0  0  0  0  0  0  0  0  0
    6.9964  -13.5382   25.2517 C   0  0  2  0  0  0  0  0  0  0  0  0
    7.5820  -12.2606   24.7096 C   0  0  0  0  0  0  0  0  0  0  0  0
    7.1353  -14.6507   24.2375 C   0  0  2  0  0  0  0  0  0  0  0  0
    6.9386  -15.9373   24.9498 N   0  0  0  0  0  0  0  0  0  0  0  0
    8.5065  -14.6259   23.6856 C   0  0  0  0  0  0  0  0  0  0  0  0
    8.8405  -13.6561   22.9061 O   0  0  0  0  0  0  0  0  0  0  0  0
   12.2692  -15.3748   31.1380 O   0  0  0  0  0  0  0  0  0  0  0  0
   11.5814  -15.4429   29.9361 C   0  0  0  0  0  0  0  0  0  0  0  0
   11.1499  -14.2697   29.3689 C   0  0  0  0  0  0  0  0  0  0  0  0
   10.4622  -14.2993   28.1731 C   0  0  0  0  0  0  0  0  0  0  0  0
   10.2130  -15.5076   27.5560 C   0  0  0  0  0  0  0  0  0  0  0  0
    9.4868  -15.5906   26.2951 C   0  0  0  0  0  0  0  0  0  0  0  0
   10.3924  -15.4802   25.1079 C   0  0  2  0  0  0  0  0  0  0  0  0
    9.5283  -15.5628   23.9210 N   0  0  0  0  0  0  0  0  0  0  0  0
   11.3768  -16.5710   25.1246 C   0  0  0  0  0  0  0  0  0  0  0  0
   12.5613  -16.4373   25.5775 O   0  0  0  0  0  0  0  0  0  0  0  0
   10.6613  -16.6871   28.1510 C   0  0  0  0  0  0  0  0  0  0  0  0
   11.3433  -16.6544   29.3374 C   0  0  0  0  0  0  0  0  0  0  0  0
   11.0374  -17.8126   24.6378 O   0  0  0  0  0  0  0  0  0  0  0  0
  2  1  1  6
  3  2  1  0
  4  3  1  0
  4  5  2  0
  6  5  1  0
  7  6  2  0
  8  9  2  0
  8  7  1  0
  9  4  1  0
 10  2  1  0
 10 17  1  0
 11 10  2  0
 13 12  1  0
 13 14  1  0
 14 15  1  6
 16 14  1  0
 16 17  1  1
 18 16  1  0
 19 18  2  0
 20 21  1  0
 21 22  2  0
 21 31  1  0
 22 23  1  0
 23 24  2  0
 24 25  1  0
 26 25  1  1
 26 28  1  0
 26 27  1  0
 27 18  1  0
 28 32  1  0
 29 28  2  0
 30 24  1  0
 31 30  2  0
M  END
$$$$
