FIY.pdb
     RDKit          3D

 32 33  0  0  1  0  0  0  0  0999 V2000
    7.2775  -16.5706   25.7169 N   0  0  0  0  0  0  0  0  0  0  0  0
    6.4748  -16.8190   24.5375 C   0  0  1  0  0  0  0  0  0  0  0  0
    5.3198  -15.8441   24.5715 C   0  0  0  0  0  0  0  0  0  0  0  0
    5.8109  -14.5531   25.1178 C   0  0  0  0  0  0  0  0  0  0  0  0
    5.9174  -13.4150   24.3277 C   0  0  0  0  0  0  0  0  0  0  0  0
    6.3777  -12.2307   24.8669 C   0  0  0  0  0  0  0  0  0  0  0  0
    6.7455  -12.1330   26.1959 C   0  0  0  0  0  0  0  0  0  0  0  0
    6.6419  -13.2599   26.9852 C   0  0  0  0  0  0  0  0  0  0  0  0
    6.1822  -14.4375   26.4412 C   0  0  0  0  0  0  0  0  0  0  0  0
    7.3007  -16.6892   23.3347 C   0  0  0  0  0  0  0  0  0  0  0  0
    7.3014  -17.6510   22.5003 O   0  0  0  0  0  0  0  0  0  0  0  0
    6.9597  -12.5144   20.2826 C   0  0  0  0  0  0  0  0  0  0  0  0
    7.2481  -13.9563   20.6432 C   0  0  0  0  0  0  0  0  0  0  0  0
    8.6628  -14.0890   21.1988 C   0  0  2  0  0  0  0  0  0  0  0  0
    9.6590  -13.7993   20.1067 C   0  0  0  0  0  0  0  0  0  0  0  0
    8.8916  -15.4724   21.7641 C   0  0  2  0  0  0  0  0  0  0  0  0
    8.1022  -15.5843   23.0154 N   0  0  0  0  0  0  0  0  0  0  0  0
   10.3237  -15.6211   22.0990 C   0  0  0  0  0  0  0  0  0  0  0  0
   11.1455  -14.7065   21.7146 O   0  0  0  0  0  0  0  0  0  0  0  0
   11.1115  -15.3570   30.4188 O   0  0  0  0  0  0  0  0  0  0  0  0
   10.8627  -15.5562   29.0695 C   0  0  0  0  0  0  0  0  0  0  0  0
   10.7193  -14.4518   28.2670 C   0  0  0  0  0  0  0  0  0  0  0  0
   10.4709  -14.6119   26.9193 C   0  0  0  0  0  0  0  0  0  0  0  0
   10.3684  -15.8807   26.3877 C   0  0  0  0  0  0  0  0  0  0  0  0
   10.1023  -16.1011   24.9718 C   0  0  0  0  0  0  0  0  0  0  0  0
   11.3284  -16.5169   24.2198 C   0  0  2  0  0  0  0  0  0  0  0  0
   10.9179  -16.6743   22.8165 N   0  0  0  0  0  0  0  0  0  0  0  0
   11.8479  -17.7785   24.7655 C   0  0  0  0  0  0  0  0  0  0  0  0
   11.2747  -18.9043   24.5919 O   0  0  0  0  0  0  0  0  0  0  0  0
   10.5179  -16.9884   27.2226 C   0  0  0  0  0  0  0  0  0  0  0  0
   10.7643  -16.8262   28.5593 C   0  0  0  0  0  0  0  0  0  0  0  0
   13.0095  -17.7833   25.5031 O   0  0  0  0  0  0  0  0  0  0  0  0
  2  1  1  1
  3  2  1  0
  4  3  1  0
  4  5  2  0
  6  5  1  0
  7  6  2  0
  8  9  2  0
  8  7  1  0
  9  4  1  0
 10  2  1  0
 10 17  1  0
 11 10  2  0
 13 12  1  0
 13 14  1  0
 14 15  1  6
 16 14  1  0
 16 17  1  1
 18 16  1  0
 19 18  2  0
 20 21  1  0
 21 22  2  0
 21 31  1  0
 22 23  1  0
 23 24  2  0
 24 25  1  0
 26 25  1  1
 26 28  1  0
 26 27  1  0
 27 18  1  0
 28 32  1  0
 29 28  2  0
 30 24  1  0
 31 30  2  0
M  END
$$$$
