FIY.pdb
     RDKit          3D

 32 33  0  0  1  0  0  0  0  0999 V2000
    5.5366  -17.7663   24.7811 N   0  0  0  0  0  0  0  0  0  0  0  0
    6.2818  -16.5272   24.8584 C   0  0  1  0  0  0  0  0  0  0  0  0
    6.7949  -16.4037   26.2751 C   0  0  0  0  0  0  0  0  0  0  0  0
    7.1229  -14.9782   26.5331 C   0  0  0  0  0  0  0  0  0  0  0  0
    6.1416  -14.0432   26.8394 C   0  0  0  0  0  0  0  0  0  0  0  0
    6.4805  -12.7258   27.0737 C   0  0  0  0  0  0  0  0  0  0  0  0
    7.7917  -12.2921   27.0133 C   0  0  0  0  0  0  0  0  0  0  0  0
    8.7703  -13.2162   26.7095 C   0  0  0  0  0  0  0  0  0  0  0  0
    8.4255  -14.5280   26.4771 C   0  0  0  0  0  0  0  0  0  0  0  0
    7.3517  -16.5243   23.8578 C   0  0  0  0  0  0  0  0  0  0  0  0
    7.8676  -17.6405   23.5273 O   0  0  0  0  0  0  0  0  0  0  0  0
    8.1856  -12.3951   19.3455 C   0  0  0  0  0  0  0  0  0  0  0  0
    8.4432  -13.8053   19.8326 C   0  0  0  0  0  0  0  0  0  0  0  0
    7.9311  -13.9729   21.2600 C   0  0  2  0  0  0  0  0  0  0  0  0
    8.5387  -12.9104   22.1380 C   0  0  0  0  0  0  0  0  0  0  0  0
    8.2641  -15.3477   21.7934 C   0  0  2  0  0  0  0  0  0  0  0  0
    7.8658  -15.3855   23.2223 N   0  0  0  0  0  0  0  0  0  0  0  0
    9.7258  -15.5521   21.7093 C   0  0  0  0  0  0  0  0  0  0  0  0
   10.1772  -16.4591   20.9135 O   0  0  0  0  0  0  0  0  0  0  0  0
   11.3053  -15.4860   30.0516 O   0  0  0  0  0  0  0  0  0  0  0  0
   10.9754  -15.4526   28.7053 C   0  0  0  0  0  0  0  0  0  0  0  0
   10.9732  -14.2367   28.0684 C   0  0  0  0  0  0  0  0  0  0  0  0
   10.6499  -14.1655   26.7290 C   0  0  0  0  0  0  0  0  0  0  0  0
   10.3310  -15.3169   26.0393 C   0  0  0  0  0  0  0  0  0  0  0  0
    9.9782  -15.2923   24.6254 C   0  0  0  0  0  0  0  0  0  0  0  0
   11.1838  -15.2866   23.7374 C   0  0  2  0  0  0  0  0  0  0  0  0
   10.7186  -14.8479   22.4133 N   0  0  0  0  0  0  0  0  0  0  0  0
   11.7675  -16.6336   23.6754 C   0  0  0  0  0  0  0  0  0  0  0  0
   12.9047  -16.9267   24.1726 O   0  0  0  0  0  0  0  0  0  0  0  0
   10.3400  -16.5415   26.7074 C   0  0  0  0  0  0  0  0  0  0  0  0
   10.6612  -16.6088   28.0362 C   0  0  0  0  0  0  0  0  0  0  0  0
   11.0800  -17.6547   23.0604 O   0  0  0  0  0  0  0  0  0  0  0  0
  2  1  1  1
  3  2  1  0
  4  3  1  0
  4  5  2  0
  6  5  1  0
  7  6  2  0
  8  9  2  0
  8  7  1  0
  9  4  1  0
 10  2  1  0
 10 17  1  0
 11 10  2  0
 13 12  1  0
 13 14  1  0
 14 15  1  1
 16 14  1  0
 16 17  1  1
 18 16  1  0
 19 18  2  0
 20 21  1  0
 21 22  2  0
 21 31  1  0
 22 23  1  0
 23 24  2  0
 24 25  1  0
 26 25  1  1
 26 28  1  0
 26 27  1  0
 27 18  1  0
 28 32  1  0
 29 28  2  0
 30 24  1  0
 31 30  2  0
M  END
$$$$
