FIY.pdb
     RDKit          3D

 32 33  0  0  1  0  0  0  0  0999 V2000
    6.3977  -17.0023   25.9970 N   0  0  0  0  0  0  0  0  0  0  0  0
    6.8838  -15.7988   25.3552 C   0  0  1  0  0  0  0  0  0  0  0  0
    7.6204  -14.9999   26.4064 C   0  0  0  0  0  0  0  0  0  0  0  0
    6.9652  -13.6729   26.5323 C   0  0  0  0  0  0  0  0  0  0  0  0
    5.6058  -13.5008   26.3012 C   0  0  0  0  0  0  0  0  0  0  0  0
    5.0281  -12.2535   26.4269 C   0  0  0  0  0  0  0  0  0  0  0  0
    5.7700  -11.1428   26.7827 C   0  0  0  0  0  0  0  0  0  0  0  0
    7.1204  -11.3076   27.0134 C   0  0  0  0  0  0  0  0  0  0  0  0
    7.6899  -12.5539   26.8863 C   0  0  0  0  0  0  0  0  0  0  0  0
    7.7235  -16.1490   24.2071 C   0  0  0  0  0  0  0  0  0  0  0  0
    8.1006  -17.3591   24.0859 O   0  0  0  0  0  0  0  0  0  0  0  0
    6.9391  -13.2752   19.6854 C   0  0  0  0  0  0  0  0  0  0  0  0
    7.1527  -14.4353   20.6346 C   0  0  0  0  0  0  0  0  0  0  0  0
    8.6386  -14.6035   20.9372 C   0  0  2  0  0  0  0  0  0  0  0  0
    9.3723  -14.9481   19.6675 C   0  0  0  0  0  0  0  0  0  0  0  0
    8.8578  -15.6781   21.9777 C   0  0  2  0  0  0  0  0  0  0  0  0
    8.1552  -15.2575   23.2151 N   0  0  0  0  0  0  0  0  0  0  0  0
   10.3039  -15.7730   22.2697 C   0  0  0  0  0  0  0  0  0  0  0  0
   11.0802  -16.2896   21.3807 O   0  0  0  0  0  0  0  0  0  0  0  0
    9.7980  -15.1646   29.6365 O   0  0  0  0  0  0  0  0  0  0  0  0
   10.2995  -15.6285   28.4300 C   0  0  0  0  0  0  0  0  0  0  0  0
   10.8022  -16.9050   28.3849 C   0  0  0  0  0  0  0  0  0  0  0  0
   11.3095  -17.3999   27.2011 C   0  0  0  0  0  0  0  0  0  0  0  0
   11.3082  -16.6085   26.0713 C   0  0  0  0  0  0  0  0  0  0  0  0
   11.8373  -17.0845   24.7994 C   0  0  0  0  0  0  0  0  0  0  0  0
   12.2182  -15.9619   23.8849 C   0  0  2  0  0  0  0  0  0  0  0  0
   10.9588  -15.3477   23.4390 N   0  0  0  0  0  0  0  0  0  0  0  0
   12.9877  -16.4816   22.7461 C   0  0  0  0  0  0  0  0  0  0  0  0
   14.1647  -16.0844   22.4576 O   0  0  0  0  0  0  0  0  0  0  0  0
   10.7920  -15.3142   26.1410 C   0  0  0  0  0  0  0  0  0  0  0  0
   10.2893  -14.8262   27.3168 C   0  0  0  0  0  0  0  0  0  0  0  0
   12.4438  -17.4473   21.9306 O   0  0  0  0  0  0  0  0  0  0  0  0
  2  1  1  1
  3  2  1  0
  4  3  1  0
  4  5  2  0
  6  5  1  0
  7  6  2  0
  8  9  2  0
  8  7  1  0
  9  4  1  0
 10  2  1  0
 10 17  1  0
 11 10  2  0
 13 12  1  0
 13 14  1  0
 14 15  1  6
 16 14  1  0
 16 17  1  1
 18 16  1  0
 19 18  2  0
 20 21  1  0
 21 22  2  0
 21 31  1  0
 22 23  1  0
 23 24  2  0
 24 25  1  0
 26 25  1  1
 26 28  1  0
 26 27  1  0
 27 18  1  0
 28 32  1  0
 29 28  2  0
 30 24  1  0
 31 30  2  0
M  END
$$$$
