FIY.pdb
     RDKit          3D

 32 33  0  0  1  0  0  0  0  0999 V2000
    9.9426  -14.5113   19.8815 N   0  0  0  0  0  0  0  0  0  0  0  0
    8.7421  -14.3481   20.6747 C   0  0  1  0  0  0  0  0  0  0  0  0
    7.6865  -15.2493   20.0754 C   0  0  0  0  0  0  0  0  0  0  0  0
    7.2798  -14.6873   18.7620 C   0  0  0  0  0  0  0  0  0  0  0  0
    6.5613  -13.5022   18.6618 C   0  0  0  0  0  0  0  0  0  0  0  0
    6.1990  -13.0071   17.4253 C   0  0  0  0  0  0  0  0  0  0  0  0
    6.5328  -13.6629   16.2550 C   0  0  0  0  0  0  0  0  0  0  0  0
    7.2463  -14.8401   16.3484 C   0  0  0  0  0  0  0  0  0  0  0  0
    7.6043  -15.3280   17.5844 C   0  0  0  0  0  0  0  0  0  0  0  0
    9.0263  -14.6515   22.0793 C   0  0  0  0  0  0  0  0  0  0  0  0
   10.1142  -15.2527   22.3555 O   0  0  0  0  0  0  0  0  0  0  0  0
    5.8618  -12.1528   25.8882 C   0  0  0  0  0  0  0  0  0  0  0  0
    7.1097  -12.5730   25.1408 C   0  0  0  0  0  0  0  0  0  0  0  0
    7.4381  -14.0326   25.4400 C   0  0  2  0  0  0  0  0  0  0  0  0
    7.7784  -14.1804   26.9000 C   0  0  0  0  0  0  0  0  0  0  0  0
    8.5871  -14.5126   24.5825 C   0  0  2  0  0  0  0  0  0  0  0  0
    8.1951  -14.3344   23.1626 N   0  0  0  0  0  0  0  0  0  0  0  0
    8.8002  -15.9540   24.8320 C   0  0  0  0  0  0  0  0  0  0  0  0
    7.8273  -16.6472   25.3142 O   0  0  0  0  0  0  0  0  0  0  0  0
   10.8280  -15.8278   31.8391 O   0  0  0  0  0  0  0  0  0  0  0  0
   10.9250  -15.7694   30.4572 C   0  0  0  0  0  0  0  0  0  0  0  0
   10.7142  -14.5599   29.8433 C   0  0  0  0  0  0  0  0  0  0  0  0
   10.8026  -14.4644   28.4697 C   0  0  0  0  0  0  0  0  0  0  0  0
   11.1020  -15.5850   27.7230 C   0  0  0  0  0  0  0  0  0  0  0  0
   11.2015  -15.5356   26.2698 C   0  0  0  0  0  0  0  0  0  0  0  0
   10.9926  -16.8771   25.6386 C   0  0  2  0  0  0  0  0  0  0  0  0
    9.9760  -16.6872   24.5933 N   0  0  0  0  0  0  0  0  0  0  0  0
   10.5403  -17.8424   26.6498 C   0  0  0  0  0  0  0  0  0  0  0  0
   11.2511  -18.8237   27.0475 O   0  0  0  0  0  0  0  0  0  0  0  0
   11.3123  -16.8036   28.3689 C   0  0  0  0  0  0  0  0  0  0  0  0
   11.2240  -16.8951   29.7317 C   0  0  0  0  0  0  0  0  0  0  0  0
    9.2947  -17.7105   27.2194 O   0  0  0  0  0  0  0  0  0  0  0  0
  2  1  1  6
  3  2  1  0
  4  3  1  0
  4  5  2  0
  6  5  1  0
  7  6  2  0
  8  9  2  0
  8  7  1  0
  9  4  1  0
 10  2  1  0
 10 17  1  0
 11 10  2  0
 13 12  1  0
 13 14  1  0
 14 15  1  1
 16 14  1  0
 16 17  1  6
 18 16  1  0
 19 18  2  0
 20 21  1  0
 21 22  2  0
 21 31  1  0
 22 23  1  0
 23 24  2  0
 24 25  1  0
 26 25  1  1
 26 28  1  0
 26 27  1  0
 27 18  1  0
 28 32  1  0
 29 28  2  0
 30 24  1  0
 31 30  2  0
M  END
$$$$
