FIY.pdb
     RDKit          3D

 32 33  0  0  1  0  0  0  0  0999 V2000
    5.6973  -17.9003   25.3485 N   0  0  0  0  0  0  0  0  0  0  0  0
    6.1747  -16.5377   25.2373 C   0  0  1  0  0  0  0  0  0  0  0  0
    6.5645  -16.0876   26.6270 C   0  0  0  0  0  0  0  0  0  0  0  0
    6.7153  -14.6099   26.6168 C   0  0  0  0  0  0  0  0  0  0  0  0
    5.6176  -13.7599   26.6737 C   0  0  0  0  0  0  0  0  0  0  0  0
    5.7928  -12.3907   26.6624 C   0  0  0  0  0  0  0  0  0  0  0  0
    7.0503  -11.8207   26.5949 C   0  0  0  0  0  0  0  0  0  0  0  0
    8.1440  -12.6599   26.5382 C   0  0  0  0  0  0  0  0  0  0  0  0
    7.9622  -14.0240   26.5499 C   0  0  0  0  0  0  0  0  0  0  0  0
    7.2823  -16.4728   24.2809 C   0  0  0  0  0  0  0  0  0  0  0  0
    8.1378  -17.4158   24.2880 O   0  0  0  0  0  0  0  0  0  0  0  0
    6.8034  -13.1491   19.8602 C   0  0  0  0  0  0  0  0  0  0  0  0
    7.0493  -14.3847   20.7000 C   0  0  0  0  0  0  0  0  0  0  0  0
    8.3823  -14.2682   21.4331 C   0  0  2  0  0  0  0  0  0  0  0  0
    9.5010  -14.1839   20.4280 C   0  0  0  0  0  0  0  0  0  0  0  0
    8.5939  -15.4470   22.3558 C   0  0  2  0  0  0  0  0  0  0  0  0
    7.4875  -15.4500   23.3444 N   0  0  0  0  0  0  0  0  0  0  0  0
    9.8691  -15.2636   23.0809 C   0  0  0  0  0  0  0  0  0  0  0  0
    9.9145  -14.4075   24.0425 O   0  0  0  0  0  0  0  0  0  0  0  0
   10.0864  -14.4951   29.6928 O   0  0  0  0  0  0  0  0  0  0  0  0
   10.4051  -15.1416   28.5084 C   0  0  0  0  0  0  0  0  0  0  0  0
   11.4986  -14.7025   27.8042 C   0  0  0  0  0  0  0  0  0  0  0  0
   11.8455  -15.3222   26.6213 C   0  0  0  0  0  0  0  0  0  0  0  0
   11.0911  -16.3785   26.1545 C   0  0  0  0  0  0  0  0  0  0  0  0
   11.4145  -17.0618   24.9084 C   0  0  0  0  0  0  0  0  0  0  0  0
   12.0660  -16.1529   23.9128 C   0  0  2  0  0  0  0  0  0  0  0  0
   11.0798  -15.9380   22.8435 N   0  0  0  0  0  0  0  0  0  0  0  0
   13.2891  -16.7766   23.3893 C   0  0  0  0  0  0  0  0  0  0  0  0
   13.2813  -17.7171   22.5282 O   0  0  0  0  0  0  0  0  0  0  0  0
    9.9840  -16.8075   26.8871 C   0  0  0  0  0  0  0  0  0  0  0  0
    9.6425  -16.1907   28.0604 C   0  0  0  0  0  0  0  0  0  0  0  0
   14.5218  -16.3480   23.8256 O   0  0  0  0  0  0  0  0  0  0  0  0
  2  1  1  1
  3  2  1  0
  4  3  1  0
  4  5  2  0
  6  5  1  0
  7  6  2  0
  8  9  2  0
  8  7  1  0
  9  4  1  0
 10  2  1  0
 10 17  1  0
 11 10  2  0
 13 12  1  0
 13 14  1  0
 14 15  1  6
 16 14  1  0
 16 17  1  1
 18 16  1  0
 19 18  2  0
 20 21  1  0
 21 22  2  0
 21 31  1  0
 22 23  1  0
 23 24  2  0
 24 25  1  0
 26 25  1  1
 26 28  1  0
 26 27  1  0
 27 18  1  0
 28 32  1  0
 29 28  2  0
 30 24  1  0
 31 30  2  0
M  END
$$$$
