FIY.pdb
     RDKit          3D

 32 33  0  0  1  0  0  0  0  0999 V2000
    6.6726  -17.4255   26.6665 N   0  0  0  0  0  0  0  0  0  0  0  0
    6.1249  -16.9899   25.3989 C   0  0  1  0  0  0  0  0  0  0  0  0
    5.1646  -15.8600   25.6933 C   0  0  0  0  0  0  0  0  0  0  0  0
    5.9519  -14.6711   26.1091 C   0  0  0  0  0  0  0  0  0  0  0  0
    7.0152  -14.7695   26.9982 C   0  0  0  0  0  0  0  0  0  0  0  0
    7.7265  -13.6445   27.3641 C   0  0  0  0  0  0  0  0  0  0  0  0
    7.4122  -12.3937   26.8665 C   0  0  0  0  0  0  0  0  0  0  0  0
    6.3573  -12.2900   25.9832 C   0  0  0  0  0  0  0  0  0  0  0  0
    5.6524  -13.4156   25.6227 C   0  0  0  0  0  0  0  0  0  0  0  0
    7.2087  -16.6013   24.4933 C   0  0  0  0  0  0  0  0  0  0  0  0
    8.3221  -17.2110   24.5931 O   0  0  0  0  0  0  0  0  0  0  0  0
    8.3551  -12.7004   19.7467 C   0  0  0  0  0  0  0  0  0  0  0  0
    8.6712  -14.0043   20.4483 C   0  0  0  0  0  0  0  0  0  0  0  0
    7.7996  -14.1602   21.6908 C   0  0  2  0  0  0  0  0  0  0  0  0
    8.0367  -12.9970   22.6181 C   0  0  0  0  0  0  0  0  0  0  0  0
    8.0974  -15.4633   22.3972 C   0  0  2  0  0  0  0  0  0  0  0  0
    7.1284  -15.6034   23.5121 N   0  0  0  0  0  0  0  0  0  0  0  0
    9.4600  -15.3978   22.9667 C   0  0  0  0  0  0  0  0  0  0  0  0
    9.8517  -14.2946   23.5045 O   0  0  0  0  0  0  0  0  0  0  0  0
   10.4300  -14.8679   29.4634 O   0  0  0  0  0  0  0  0  0  0  0  0
   10.8271  -15.4174   28.2540 C   0  0  0  0  0  0  0  0  0  0  0  0
   10.5372  -16.7378   28.0157 C   0  0  0  0  0  0  0  0  0  0  0  0
   10.9171  -17.3180   26.8229 C   0  0  0  0  0  0  0  0  0  0  0  0
   11.5858  -16.5673   25.8784 C   0  0  0  0  0  0  0  0  0  0  0  0
   12.0118  -17.1364   24.6060 C   0  0  0  0  0  0  0  0  0  0  0  0
   11.7890  -16.1992   23.4598 C   0  0  2  0  0  0  0  0  0  0  0  0
   10.4122  -16.4319   22.9986 N   0  0  0  0  0  0  0  0  0  0  0  0
   12.7600  -16.4733   22.3916 C   0  0  0  0  0  0  0  0  0  0  0  0
   14.0129  -16.2716   22.5166 O   0  0  0  0  0  0  0  0  0  0  0  0
   11.8695  -15.2271   26.1425 C   0  0  0  0  0  0  0  0  0  0  0  0
   11.4912  -14.6544   27.3268 C   0  0  0  0  0  0  0  0  0  0  0  0
   12.3322  -16.9756   21.1840 O   0  0  0  0  0  0  0  0  0  0  0  0
  2  1  1  1
  3  2  1  0
  4  3  1  0
  4  5  2  0
  6  5  1  0
  7  6  2  0
  8  9  2  0
  8  7  1  0
  9  4  1  0
 10  2  1  0
 10 17  1  0
 11 10  2  0
 13 12  1  0
 13 14  1  0
 14 15  1  1
 16 14  1  0
 16 17  1  1
 18 16  1  0
 19 18  2  0
 20 21  1  0
 21 22  2  0
 21 31  1  0
 22 23  1  0
 23 24  2  0
 24 25  1  0
 26 25  1  1
 26 28  1  0
 26 27  1  0
 27 18  1  0
 28 32  1  0
 29 28  2  0
 30 24  1  0
 31 30  2  0
M  END
$$$$
