FIY.pdb
     RDKit          3D

 32 33  0  0  1  0  0  0  0  0999 V2000
   13.0261  -14.8710   18.0456 N   0  0  0  0  0  0  0  0  0  0  0  0
   12.2433  -15.8198   18.8097 C   0  0  1  0  0  0  0  0  0  0  0  0
   13.2041  -16.8494   19.3594 C   0  0  0  0  0  0  0  0  0  0  0  0
   13.6666  -17.7062   18.2377 C   0  0  0  0  0  0  0  0  0  0  0  0
   14.9474  -17.5962   17.7102 C   0  0  0  0  0  0  0  0  0  0  0  0
   15.3456  -18.4081   16.6672 C   0  0  0  0  0  0  0  0  0  0  0  0
   14.4966  -19.3489   16.1151 C   0  0  0  0  0  0  0  0  0  0  0  0
   13.2235  -19.4625   16.6349 C   0  0  0  0  0  0  0  0  0  0  0  0
   12.8330  -18.6500   17.6747 C   0  0  0  0  0  0  0  0  0  0  0  0
   11.4912  -15.1206   19.8543 C   0  0  0  0  0  0  0  0  0  0  0  0
   12.1458  -14.4800   20.7388 O   0  0  0  0  0  0  0  0  0  0  0  0
    8.2395  -13.5950   18.2744 C   0  0  0  0  0  0  0  0  0  0  0  0
    7.6007  -13.2421   19.6010 C   0  0  0  0  0  0  0  0  0  0  0  0
    7.9010  -14.3222   20.6358 C   0  0  2  0  0  0  0  0  0  0  0  0
    7.0529  -14.0930   21.8595 C   0  0  0  0  0  0  0  0  0  0  0  0
    9.3668  -14.3207   21.0058 C   0  0  2  0  0  0  0  0  0  0  0  0
   10.0943  -15.0935   19.9688 N   0  0  0  0  0  0  0  0  0  0  0  0
    9.5329  -15.0076   22.3042 C   0  0  0  0  0  0  0  0  0  0  0  0
    9.3199  -16.2769   22.3624 O   0  0  0  0  0  0  0  0  0  0  0  0
   10.8422  -16.6678   30.8652 O   0  0  0  0  0  0  0  0  0  0  0  0
   10.7490  -16.0656   29.6198 C   0  0  0  0  0  0  0  0  0  0  0  0
   11.3365  -16.6943   28.5503 C   0  0  0  0  0  0  0  0  0  0  0  0
   11.2637  -16.1240   27.2960 C   0  0  0  0  0  0  0  0  0  0  0  0
   10.6012  -14.9261   27.1255 C   0  0  0  0  0  0  0  0  0  0  0  0
   10.5015  -14.2823   25.8218 C   0  0  0  0  0  0  0  0  0  0  0  0
    9.9674  -15.2047   24.7703 C   0  0  2  0  0  0  0  0  0  0  0  0
    9.9140  -14.4240   23.5253 N   0  0  0  0  0  0  0  0  0  0  0  0
    8.6324  -15.6836   25.1542 C   0  0  0  0  0  0  0  0  0  0  0  0
    7.5592  -15.0449   24.8961 O   0  0  0  0  0  0  0  0  0  0  0  0
   10.0116  -14.3055   28.2271 C   0  0  0  0  0  0  0  0  0  0  0  0
   10.0855  -14.8739   29.4702 C   0  0  0  0  0  0  0  0  0  0  0  0
    8.4952  -16.8777   25.8242 O   0  0  0  0  0  0  0  0  0  0  0  0
  2  1  1  1
  3  2  1  0
  4  3  1  0
  4  5  2  0
  6  5  1  0
  7  6  2  0
  8  9  2  0
  8  7  1  0
  9  4  1  0
 10  2  1  0
 10 17  1  0
 11 10  2  0
 13 12  1  0
 13 14  1  0
 14 15  1  1
 16 14  1  0
 16 17  1  6
 18 16  1  0
 19 18  2  0
 20 21  1  0
 21 22  2  0
 21 31  1  0
 22 23  1  0
 23 24  2  0
 24 25  1  0
 26 25  1  1
 26 28  1  0
 26 27  1  0
 27 18  1  0
 28 32  1  0
 29 28  2  0
 30 24  1  0
 31 30  2  0
M  END
$$$$
