FIY.pdb
     RDKit          3D

 32 33  0  0  1  0  0  0  0  0999 V2000
    9.0745  -16.1391   20.4733 N   0  0  0  0  0  0  0  0  0  0  0  0
    8.5603  -16.5860   21.7511 C   0  0  1  0  0  0  0  0  0  0  0  0
    9.0676  -17.9935   21.9677 C   0  0  0  0  0  0  0  0  0  0  0  0
    8.2880  -18.9125   21.0994 C   0  0  0  0  0  0  0  0  0  0  0  0
    7.0732  -19.4513   21.5052 C   0  0  0  0  0  0  0  0  0  0  0  0
    6.3737  -20.3025   20.6736 C   0  0  0  0  0  0  0  0  0  0  0  0
    6.8489  -20.6468   19.4220 C   0  0  0  0  0  0  0  0  0  0  0  0
    8.0548  -20.1147   19.0138 C   0  0  0  0  0  0  0  0  0  0  0  0
    8.7469  -19.2668   19.8478 C   0  0  0  0  0  0  0  0  0  0  0  0
    8.9717  -15.6582   22.8073 C   0  0  0  0  0  0  0  0  0  0  0  0
   10.1850  -15.2725   22.8285 O   0  0  0  0  0  0  0  0  0  0  0  0
    6.6299  -11.5573   26.8012 C   0  0  0  0  0  0  0  0  0  0  0  0
    7.8200  -12.4015   26.3970 C   0  0  0  0  0  0  0  0  0  0  0  0
    7.4079  -13.4255   25.3438 C   0  0  2  0  0  0  0  0  0  0  0  0
    6.3494  -14.3328   25.9145 C   0  0  0  0  0  0  0  0  0  0  0  0
    8.5995  -14.2342   24.8839 C   0  0  2  0  0  0  0  0  0  0  0  0
    8.1366  -15.1495   23.8118 N   0  0  0  0  0  0  0  0  0  0  0  0
    9.0899  -15.0490   26.0157 C   0  0  0  0  0  0  0  0  0  0  0  0
    8.4246  -16.0992   26.3538 O   0  0  0  0  0  0  0  0  0  0  0  0
   13.3160  -19.0048   23.1359 O   0  0  0  0  0  0  0  0  0  0  0  0
   13.0200  -18.2581   24.2660 C   0  0  0  0  0  0  0  0  0  0  0  0
   13.0320  -16.8896   24.1601 C   0  0  0  0  0  0  0  0  0  0  0  0
   12.7422  -16.1145   25.2642 C   0  0  0  0  0  0  0  0  0  0  0  0
   12.4427  -16.7203   26.4668 C   0  0  0  0  0  0  0  0  0  0  0  0
   12.1349  -15.9448   27.6618 C   0  0  0  0  0  0  0  0  0  0  0  0
   10.6627  -15.7438   27.8468 C   0  0  2  0  0  0  0  0  0  0  0  0
   10.2380  -14.8115   26.7919 N   0  0  0  0  0  0  0  0  0  0  0  0
   10.3957  -15.1917   29.1821 C   0  0  0  0  0  0  0  0  0  0  0  0
    9.9768  -14.0031   29.3766 O   0  0  0  0  0  0  0  0  0  0  0  0
   12.4365  -18.1129   26.5507 C   0  0  0  0  0  0  0  0  0  0  0  0
   12.7243  -18.8790   25.4535 C   0  0  0  0  0  0  0  0  0  0  0  0
   10.5939  -15.9682   30.3007 O   0  0  0  0  0  0  0  0  0  0  0  0
  2  1  1  6
  3  2  1  0
  4  3  1  0
  4  5  2  0
  6  5  1  0
  7  6  2  0
  8  9  2  0
  8  7  1  0
  9  4  1  0
 10  2  1  0
 10 17  1  0
 11 10  2  0
 13 12  1  0
 13 14  1  0
 14 15  1  1
 16 14  1  0
 16 17  1  6
 18 16  1  0
 19 18  2  0
 20 21  1  0
 21 22  2  0
 21 31  1  0
 22 23  1  0
 23 24  2  0
 24 25  1  0
 26 25  1  1
 26 28  1  0
 26 27  1  0
 27 18  1  0
 28 32  1  0
 29 28  2  0
 30 24  1  0
 31 30  2  0
M  END
$$$$
