FIY.pdb
     RDKit          3D

 32 33  0  0  1  0  0  0  0  0999 V2000
    5.5478  -17.6965   24.7158 N   0  0  0  0  0  0  0  0  0  0  0  0
    6.1993  -16.4129   24.5590 C   0  0  1  0  0  0  0  0  0  0  0  0
    6.7405  -16.0196   25.9147 C   0  0  0  0  0  0  0  0  0  0  0  0
    6.6277  -14.5453   26.0556 C   0  0  0  0  0  0  0  0  0  0  0  0
    5.4187  -13.9266   26.3494 C   0  0  0  0  0  0  0  0  0  0  0  0
    5.3484  -12.5536   26.4736 C   0  0  0  0  0  0  0  0  0  0  0  0
    6.4633  -11.7525   26.3125 C   0  0  0  0  0  0  0  0  0  0  0  0
    7.6666  -12.3614   26.0207 C   0  0  0  0  0  0  0  0  0  0  0  0
    7.7296  -13.7306   25.8983 C   0  0  0  0  0  0  0  0  0  0  0  0
    7.2379  -16.5021   23.5299 C   0  0  0  0  0  0  0  0  0  0  0  0
    7.7911  -17.6316   23.3315 O   0  0  0  0  0  0  0  0  0  0  0  0
    7.9326  -12.0854   20.2016 C   0  0  0  0  0  0  0  0  0  0  0  0
    8.3623  -13.1427   21.1965 C   0  0  0  0  0  0  0  0  0  0  0  0
    8.2664  -14.5295   20.5679 C   0  0  2  0  0  0  0  0  0  0  0  0
    6.8767  -14.7386   20.0256 C   0  0  0  0  0  0  0  0  0  0  0  0
    8.6021  -15.6029   21.5782 C   0  0  2  0  0  0  0  0  0  0  0  0
    7.6837  -15.4391   22.7320 N   0  0  0  0  0  0  0  0  0  0  0  0
    9.9880  -15.3985   22.0503 C   0  0  0  0  0  0  0  0  0  0  0  0
   10.5174  -14.2309   21.9226 O   0  0  0  0  0  0  0  0  0  0  0  0
   11.4060  -14.7181   30.1570 O   0  0  0  0  0  0  0  0  0  0  0  0
   11.0809  -15.0300   28.8458 C   0  0  0  0  0  0  0  0  0  0  0  0
   10.8600  -16.3472   28.5286 C   0  0  0  0  0  0  0  0  0  0  0  0
   10.5345  -16.6945   27.2336 C   0  0  0  0  0  0  0  0  0  0  0  0
   10.4334  -15.7159   26.2667 C   0  0  0  0  0  0  0  0  0  0  0  0
   10.0971  -16.0335   24.8846 C   0  0  0  0  0  0  0  0  0  0  0  0
   11.3127  -16.2029   24.0271 C   0  0  2  0  0  0  0  0  0  0  0  0
   10.8263  -16.3563   22.6478 N   0  0  0  0  0  0  0  0  0  0  0  0
   12.0694  -17.3866   24.4577 C   0  0  0  0  0  0  0  0  0  0  0  0
   11.6234  -18.5769   24.3563 O   0  0  0  0  0  0  0  0  0  0  0  0
   10.6622  -14.3838   26.6124 C   0  0  0  0  0  0  0  0  0  0  0  0
   10.9850  -14.0424   27.8981 C   0  0  0  0  0  0  0  0  0  0  0  0
   13.3260  -17.2412   24.9993 O   0  0  0  0  0  0  0  0  0  0  0  0
  2  1  1  1
  3  2  1  0
  4  3  1  0
  4  5  2  0
  6  5  1  0
  7  6  2  0
  8  9  2  0
  8  7  1  0
  9  4  1  0
 10  2  1  0
 10 17  1  0
 11 10  2  0
 13 12  1  0
 13 14  1  0
 14 15  1  1
 16 14  1  0
 16 17  1  1
 18 16  1  0
 19 18  2  0
 20 21  1  0
 21 22  2  0
 21 31  1  0
 22 23  1  0
 23 24  2  0
 24 25  1  0
 26 25  1  1
 26 28  1  0
 26 27  1  0
 27 18  1  0
 28 32  1  0
 29 28  2  0
 30 24  1  0
 31 30  2  0
M  END
$$$$
