FIY.pdb
     RDKit          3D

 32 33  0  0  1  0  0  0  0  0999 V2000
    6.1791  -18.7354   24.9526 N   0  0  0  0  0  0  0  0  0  0  0  0
    6.3614  -18.4517   23.5444 C   0  0  1  0  0  0  0  0  0  0  0  0
    5.0275  -18.6753   22.8688 C   0  0  0  0  0  0  0  0  0  0  0  0
    4.7419  -20.1329   22.8644 C   0  0  0  0  0  0  0  0  0  0  0  0
    3.8323  -20.7050   23.7454 C   0  0  0  0  0  0  0  0  0  0  0  0
    3.5899  -22.0636   23.7149 C   0  0  0  0  0  0  0  0  0  0  0  0
    4.2343  -22.8957   22.8186 C   0  0  0  0  0  0  0  0  0  0  0  0
    5.1386  -22.3330   21.9414 C   0  0  0  0  0  0  0  0  0  0  0  0
    5.3755  -20.9779   21.9772 C   0  0  0  0  0  0  0  0  0  0  0  0
    6.8719  -17.0897   23.3711 C   0  0  0  0  0  0  0  0  0  0  0  0
    7.1650  -16.7037   22.1936 O   0  0  0  0  0  0  0  0  0  0  0  0
    5.1591  -13.1335   26.5221 C   0  0  0  0  0  0  0  0  0  0  0  0
    5.6896  -13.6906   25.2180 C   0  0  0  0  0  0  0  0  0  0  0  0
    7.1941  -13.9243   25.3167 C   0  0  2  0  0  0  0  0  0  0  0  0
    7.9106  -12.6000   25.2702 C   0  0  0  0  0  0  0  0  0  0  0  0
    7.6743  -14.8200   24.1974 C   0  0  2  0  0  0  0  0  0  0  0  0
    7.0694  -16.1595   24.4010 N   0  0  0  0  0  0  0  0  0  0  0  0
    9.1440  -14.9514   24.2874 C   0  0  0  0  0  0  0  0  0  0  0  0
    9.8772  -13.9785   23.8681 O   0  0  0  0  0  0  0  0  0  0  0  0
    9.7906  -16.4985   31.0235 O   0  0  0  0  0  0  0  0  0  0  0  0
   10.2475  -16.1309   29.7671 C   0  0  0  0  0  0  0  0  0  0  0  0
   10.3085  -14.7932   29.4654 C   0  0  0  0  0  0  0  0  0  0  0  0
   10.7583  -14.3907   28.2246 C   0  0  0  0  0  0  0  0  0  0  0  0
   11.1432  -15.3354   27.2960 C   0  0  0  0  0  0  0  0  0  0  0  0
   11.6204  -14.9600   25.9711 C   0  0  0  0  0  0  0  0  0  0  0  0
   11.3270  -16.0074   24.9421 C   0  0  2  0  0  0  0  0  0  0  0  0
    9.8641  -16.0457   24.7982 N   0  0  0  0  0  0  0  0  0  0  0  0
   11.8509  -17.3067   25.3852 C   0  0  0  0  0  0  0  0  0  0  0  0
   13.0848  -17.5169   25.6294 O   0  0  0  0  0  0  0  0  0  0  0  0
   11.0727  -16.6893   27.6251 C   0  0  0  0  0  0  0  0  0  0  0  0
   10.6262  -17.0854   28.8569 C   0  0  0  0  0  0  0  0  0  0  0  0
   10.9963  -18.3712   25.5585 O   0  0  0  0  0  0  0  0  0  0  0  0
  2  1  1  1
  3  2  1  0
  4  3  1  0
  4  5  2  0
  6  5  1  0
  7  6  2  0
  8  9  2  0
  8  7  1  0
  9  4  1  0
 10  2  1  0
 10 17  1  0
 11 10  2  0
 13 12  1  0
 13 14  1  0
 14 15  1  6
 16 14  1  0
 16 17  1  1
 18 16  1  0
 19 18  2  0
 20 21  1  0
 21 22  2  0
 21 31  1  0
 22 23  1  0
 23 24  2  0
 24 25  1  0
 26 25  1  1
 26 28  1  0
 26 27  1  0
 27 18  1  0
 28 32  1  0
 29 28  2  0
 30 24  1  0
 31 30  2  0
M  END
$$$$
