FIY.pdb
     RDKit          3D

 32 33  0  0  1  0  0  0  0  0999 V2000
    6.2578  -17.7684   25.7410 N   0  0  0  0  0  0  0  0  0  0  0  0
    6.6955  -16.4583   25.3065 C   0  0  1  0  0  0  0  0  0  0  0  0
    7.0072  -15.6576   26.5505 C   0  0  0  0  0  0  0  0  0  0  0  0
    6.6453  -14.2392   26.2988 C   0  0  0  0  0  0  0  0  0  0  0  0
    7.6058  -13.2762   26.0145 C   0  0  0  0  0  0  0  0  0  0  0  0
    7.2356  -11.9662   25.7855 C   0  0  0  0  0  0  0  0  0  0  0  0
    5.9126  -11.5679   25.8297 C   0  0  0  0  0  0  0  0  0  0  0  0
    4.9545  -12.5199   26.1115 C   0  0  0  0  0  0  0  0  0  0  0  0
    5.3305  -13.8240   26.3388 C   0  0  0  0  0  0  0  0  0  0  0  0
    7.8425  -16.5883   24.4047 C   0  0  0  0  0  0  0  0  0  0  0  0
    8.4043  -17.7268   24.3082 O   0  0  0  0  0  0  0  0  0  0  0  0
    6.8375  -13.4240   20.2038 C   0  0  0  0  0  0  0  0  0  0  0  0
    7.1923  -14.6304   21.0470 C   0  0  0  0  0  0  0  0  0  0  0  0
    8.6697  -14.5937   21.4261 C   0  0  2  0  0  0  0  0  0  0  0  0
    9.5083  -14.6035   20.1748 C   0  0  0  0  0  0  0  0  0  0  0  0
    9.0287  -15.7686   22.3072 C   0  0  2  0  0  0  0  0  0  0  0  0
    8.3849  -15.5558   23.6270 N   0  0  0  0  0  0  0  0  0  0  0  0
   10.4943  -15.7917   22.4996 C   0  0  0  0  0  0  0  0  0  0  0  0
   11.2262  -16.3494   21.5979 O   0  0  0  0  0  0  0  0  0  0  0  0
   10.1849  -14.9783   30.1492 O   0  0  0  0  0  0  0  0  0  0  0  0
   10.5296  -15.4971   28.9104 C   0  0  0  0  0  0  0  0  0  0  0  0
   10.9249  -14.6228   27.9288 C   0  0  0  0  0  0  0  0  0  0  0  0
   11.2752  -15.1036   26.6838 C   0  0  0  0  0  0  0  0  0  0  0  0
   11.2254  -16.4594   26.4343 C   0  0  0  0  0  0  0  0  0  0  0  0
   11.5809  -17.0146   25.1345 C   0  0  0  0  0  0  0  0  0  0  0  0
   12.2731  -16.0166   24.2588 C   0  0  2  0  0  0  0  0  0  0  0  0
   11.2121  -15.2551   23.5830 N   0  0  0  0  0  0  0  0  0  0  0  0
   13.1295  -16.7105   23.2871 C   0  0  0  0  0  0  0  0  0  0  0  0
   14.3640  -16.4369   23.1221 O   0  0  0  0  0  0  0  0  0  0  0  0
   10.8206  -17.3290   27.4473 C   0  0  0  0  0  0  0  0  0  0  0  0
   10.4739  -16.8489   28.6814 C   0  0  0  0  0  0  0  0  0  0  0  0
   12.6079  -17.7125   22.5013 O   0  0  0  0  0  0  0  0  0  0  0  0
  2  1  1  1
  3  2  1  0
  4  3  1  0
  4  5  2  0
  6  5  1  0
  7  6  2  0
  8  9  2  0
  8  7  1  0
  9  4  1  0
 10  2  1  0
 10 17  1  0
 11 10  2  0
 13 12  1  0
 13 14  1  0
 14 15  1  6
 16 14  1  0
 16 17  1  1
 18 16  1  0
 19 18  2  0
 20 21  1  0
 21 22  2  0
 21 31  1  0
 22 23  1  0
 23 24  2  0
 24 25  1  0
 26 25  1  1
 26 28  1  0
 26 27  1  0
 27 18  1  0
 28 32  1  0
 29 28  2  0
 30 24  1  0
 31 30  2  0
M  END
$$$$
