FIY.pdb
     RDKit          3D

 32 33  0  0  1  0  0  0  0  0999 V2000
    9.1377  -19.2585   18.7106 N   0  0  0  0  0  0  0  0  0  0  0  0
    8.4620  -18.7927   19.9036 C   0  0  1  0  0  0  0  0  0  0  0  0
    8.5873  -19.8848   20.9415 C   0  0  0  0  0  0  0  0  0  0  0  0
    7.6166  -20.9596   20.6116 C   0  0  0  0  0  0  0  0  0  0  0  0
    7.9997  -22.1127   19.9374 C   0  0  0  0  0  0  0  0  0  0  0  0
    7.0722  -23.0926   19.6462 C   0  0  0  0  0  0  0  0  0  0  0  0
    5.7444  -22.9658   20.0093 C   0  0  0  0  0  0  0  0  0  0  0  0
    5.3583  -21.8229   20.6790 C   0  0  0  0  0  0  0  0  0  0  0  0
    6.2881  -20.8499   20.9662 C   0  0  0  0  0  0  0  0  0  0  0  0
    9.0381  -17.5181   20.3387 C   0  0  0  0  0  0  0  0  0  0  0  0
   10.2704  -17.3037   20.1006 O   0  0  0  0  0  0  0  0  0  0  0  0
    6.4253  -12.7990   19.8426 C   0  0  0  0  0  0  0  0  0  0  0  0
    7.4916  -13.8724   19.8976 C   0  0  0  0  0  0  0  0  0  0  0  0
    7.8909  -14.1466   21.3444 C   0  0  2  0  0  0  0  0  0  0  0  0
    8.3815  -12.8715   21.9788 C   0  0  0  0  0  0  0  0  0  0  0  0
    8.9604  -15.2128   21.4149 C   0  0  2  0  0  0  0  0  0  0  0  0
    8.3434  -16.4981   21.0037 N   0  0  0  0  0  0  0  0  0  0  0  0
    9.4174  -15.3397   22.8151 C   0  0  0  0  0  0  0  0  0  0  0  0
   10.4128  -14.6217   23.2067 O   0  0  0  0  0  0  0  0  0  0  0  0
    6.3695  -10.9487   26.5371 O   0  0  0  0  0  0  0  0  0  0  0  0
    6.8685  -12.2383   26.4351 C   0  0  0  0  0  0  0  0  0  0  0  0
    5.9929  -13.2496   26.1271 C   0  0  0  0  0  0  0  0  0  0  0  0
    6.4542  -14.5453   26.0175 C   0  0  0  0  0  0  0  0  0  0  0  0
    7.7920  -14.8154   26.2182 C   0  0  0  0  0  0  0  0  0  0  0  0
    8.3259  -16.1678   26.1182 C   0  0  0  0  0  0  0  0  0  0  0  0
    9.4657  -16.2603   25.1517 C   0  0  2  0  0  0  0  0  0  0  0  0
    8.8747  -16.1745   23.8079 N   0  0  0  0  0  0  0  0  0  0  0  0
   10.1793  -17.5312   25.3376 C   0  0  0  0  0  0  0  0  0  0  0  0
   10.7609  -17.8542   26.4255 O   0  0  0  0  0  0  0  0  0  0  0  0
    8.6633  -13.7714   26.5302 C   0  0  0  0  0  0  0  0  0  0  0  0
    8.2026  -12.4870   26.6382 C   0  0  0  0  0  0  0  0  0  0  0  0
   10.2412  -18.4432   24.3090 O   0  0  0  0  0  0  0  0  0  0  0  0
  2  1  1  6
  3  2  1  0
  4  3  1  0
  4  5  2  0
  6  5  1  0
  7  6  2  0
  8  9  2  0
  8  7  1  0
  9  4  1  0
 10  2  1  0
 10 17  1  0
 11 10  2  0
 13 12  1  0
 13 14  1  0
 14 15  1  6
 16 14  1  0
 16 17  1  1
 18 16  1  0
 19 18  2  0
 20 21  1  0
 21 22  2  0
 21 31  1  0
 22 23  1  0
 23 24  2  0
 24 25  1  0
 26 25  1  1
 26 28  1  0
 26 27  1  0
 27 18  1  0
 28 32  1  0
 29 28  2  0
 30 24  1  0
 31 30  2  0
M  END
$$$$
