FIY.pdb
     RDKit          3D

 32 33  0  0  1  0  0  0  0  0999 V2000
    6.0257  -18.2363   24.8121 N   0  0  0  0  0  0  0  0  0  0  0  0
    6.2635  -16.8168   24.6538 C   0  0  1  0  0  0  0  0  0  0  0  0
    6.5986  -16.2661   26.0213 C   0  0  0  0  0  0  0  0  0  0  0  0
    6.4741  -14.7867   25.9751 C   0  0  0  0  0  0  0  0  0  0  0  0
    5.2368  -14.1545   25.9604 C   0  0  0  0  0  0  0  0  0  0  0  0
    5.1563  -12.7772   25.9173 C   0  0  0  0  0  0  0  0  0  0  0  0
    6.2886  -11.9848   25.8875 C   0  0  0  0  0  0  0  0  0  0  0  0
    7.5200  -12.6071   25.9019 C   0  0  0  0  0  0  0  0  0  0  0  0
    7.5930  -13.9806   25.9450 C   0  0  0  0  0  0  0  0  0  0  0  0
    7.3252  -16.5947   23.6693 C   0  0  0  0  0  0  0  0  0  0  0  0
    8.2624  -17.4532   23.5931 O   0  0  0  0  0  0  0  0  0  0  0  0
    8.4517  -12.9356   18.7384 C   0  0  0  0  0  0  0  0  0  0  0  0
    8.9233  -14.0541   19.6433 C   0  0  0  0  0  0  0  0  0  0  0  0
    7.9178  -14.2834   20.7677 C   0  0  2  0  0  0  0  0  0  0  0  0
    7.7764  -13.0216   21.5782 C   0  0  0  0  0  0  0  0  0  0  0  0
    8.3522  -15.4294   21.6529 C   0  0  2  0  0  0  0  0  0  0  0  0
    7.4026  -15.5053   22.7905 N   0  0  0  0  0  0  0  0  0  0  0  0
    9.6995  -15.1374   22.1864 C   0  0  0  0  0  0  0  0  0  0  0  0
   10.0826  -13.9093   22.2565 O   0  0  0  0  0  0  0  0  0  0  0  0
   11.5389  -15.4351   30.2913 O   0  0  0  0  0  0  0  0  0  0  0  0
   11.1655  -15.5913   28.9652 C   0  0  0  0  0  0  0  0  0  0  0  0
   10.9868  -14.4625   28.2049 C   0  0  0  0  0  0  0  0  0  0  0  0
   10.6151  -14.5800   26.8813 C   0  0  0  0  0  0  0  0  0  0  0  0
   10.4255  -15.8308   26.3315 C   0  0  0  0  0  0  0  0  0  0  0  0
   10.0282  -16.0060   24.9402 C   0  0  0  0  0  0  0  0  0  0  0  0
   11.1998  -15.9979   24.0080 C   0  0  2  0  0  0  0  0  0  0  0  0
   10.6451  -16.0700   22.6480 N   0  0  0  0  0  0  0  0  0  0  0  0
   12.0713  -17.1474   24.2874 C   0  0  0  0  0  0  0  0  0  0  0  0
   13.1526  -17.0588   24.9577 O   0  0  0  0  0  0  0  0  0  0  0  0
   10.6130  -16.9639   27.1235 C   0  0  0  0  0  0  0  0  0  0  0  0
   10.9818  -16.8441   28.4363 C   0  0  0  0  0  0  0  0  0  0  0  0
   11.7340  -18.3971   23.8204 O   0  0  0  0  0  0  0  0  0  0  0  0
  2  1  1  1
  3  2  1  0
  4  3  1  0
  4  5  2  0
  6  5  1  0
  7  6  2  0
  8  9  2  0
  8  7  1  0
  9  4  1  0
 10  2  1  0
 10 17  1  0
 11 10  2  0
 13 12  1  0
 13 14  1  0
 14 15  1  1
 16 14  1  0
 16 17  1  1
 18 16  1  0
 19 18  2  0
 20 21  1  0
 21 22  2  0
 21 31  1  0
 22 23  1  0
 23 24  2  0
 24 25  1  0
 26 25  1  1
 26 28  1  0
 26 27  1  0
 27 18  1  0
 28 32  1  0
 29 28  2  0
 30 24  1  0
 31 30  2  0
M  END
$$$$
