NNP.pdb
     RDKit          3D

 24 24  0  0  1  0  0  0  0  0999 V2000
    9.4406  -13.6987   17.4031 N   0  0  0  0  0  0  0  0  0  0  0  0
    8.0941  -13.2886   17.6956 C   0  0  0  0  0  0  0  0  0  0  0  0
    7.4019  -12.8764   16.7623 O   0  0  0  0  0  0  0  0  0  0  0  0
    7.6382  -13.3846   19.0574 C   0  0  0  0  0  0  0  0  0  0  0  0
    8.6132  -13.8694   20.0921 C   0  0  2  0  0  0  0  0  0  0  0  0
    8.9409  -15.2601   19.5416 N   0  0  0  0  0  0  0  0  0  0  0  0
    7.9408  -14.1507   21.3763 C   0  0  0  0  0  0  0  0  0  0  0  0
    7.4840  -13.1498   22.0715 O   0  0  0  0  0  0  0  0  0  0  0  0
    6.3829  -16.0451   25.7732 N   0  0  0  0  0  0  0  0  0  0  0  0
    6.3833  -17.1955   24.9149 C   0  0  0  0  0  0  0  0  0  0  0  0
    5.9662  -18.3139   25.3155 O   0  0  0  0  0  0  0  0  0  0  0  0
    6.8988  -16.9999   23.5356 C   0  0  0  0  0  0  0  0  0  0  0  0
    7.2686  -15.5052   23.3646 C   0  0  2  0  0  0  0  0  0  0  0  0
    7.6867  -15.3908   22.0069 N   0  0  0  0  0  0  0  0  0  0  0  0
    8.1023  -15.0653   24.4557 C   0  0  0  0  0  0  0  0  0  0  0  0
    9.3999  -15.2643   24.3070 O   0  0  0  0  0  0  0  0  0  0  0  0
    7.7914  -14.4503   25.6769 N   0  0  0  0  0  0  0  0  0  0  0  0
    6.4765  -14.2247   26.2358 C   0  0  0  0  0  0  0  0  0  0  0  0
    6.6143  -12.9111   26.9483 C   0  0  0  0  0  0  0  0  0  0  0  0
    8.0646  -12.5325   26.9100 C   0  0  0  0  0  0  0  0  0  0  0  0
    8.7212  -13.8923   26.6139 C   0  0  1  0  0  0  0  0  0  0  0  0
    8.7545  -14.6176   27.8943 C   0  0  0  0  0  0  0  0  0  0  0  0
    8.0479  -15.6242   28.1089 O   0  0  0  0  0  0  0  0  0  0  0  0
    9.5867  -14.2171   28.9533 O   0  0  0  0  0  0  0  0  0  0  0  0
  1  2  1  0
  2  3  2  0
  4  2  1  0
  5  4  1  0
  5  6  1  6
  7  8  2  0
  7  5  1  0
  9 10  1  0
 10 11  2  0
 10 12  1  0
 13 12  1  1
 13 15  1  0
 13 14  1  0
 14  7  1  0
 15 17  1  0
 16 15  2  0
 17 18  1  0
 19 18  1  0
 20 21  1  0
 20 19  1  0
 21 17  1  0
 21 22  1  1
 22 23  2  0
 22 24  1  0
M  END
$$$$
