NNP.pdb
     RDKit          3D

 24 24  0  0  1  0  0  0  0  0999 V2000
    8.5081  -12.2612   18.0938 N   0  0  0  0  0  0  0  0  0  0  0  0
    7.7897  -13.4871   18.3124 C   0  0  0  0  0  0  0  0  0  0  0  0
    7.4849  -14.1600   17.3253 O   0  0  0  0  0  0  0  0  0  0  0  0
    7.4713  -13.8524   19.6676 C   0  0  0  0  0  0  0  0  0  0  0  0
    8.4555  -14.7065   20.4147 C   0  0  2  0  0  0  0  0  0  0  0  0
    8.1641  -16.0777   19.7987 N   0  0  0  0  0  0  0  0  0  0  0  0
    8.0642  -14.8679   21.8294 C   0  0  0  0  0  0  0  0  0  0  0  0
    6.7997  -14.8242   22.1339 O   0  0  0  0  0  0  0  0  0  0  0  0
    7.2119  -18.4486   25.6221 N   0  0  0  0  0  0  0  0  0  0  0  0
    6.9321  -17.0679   25.3474 C   0  0  0  0  0  0  0  0  0  0  0  0
    6.3505  -16.3353   26.1902 O   0  0  0  0  0  0  0  0  0  0  0  0
    7.3622  -16.5497   24.0234 C   0  0  0  0  0  0  0  0  0  0  0  0
    8.3446  -15.3752   24.2592 C   0  0  2  0  0  0  0  0  0  0  0  0
    8.8741  -15.0840   22.9685 N   0  0  0  0  0  0  0  0  0  0  0  0
    9.2002  -15.6536   25.3860 C   0  0  0  0  0  0  0  0  0  0  0  0
   10.1258  -16.5764   25.1936 O   0  0  0  0  0  0  0  0  0  0  0  0
    9.2389  -15.1182   26.6814 N   0  0  0  0  0  0  0  0  0  0  0  0
    8.1570  -14.4818   27.4003 C   0  0  0  0  0  0  0  0  0  0  0  0
    8.8426  -13.4133   28.2004 C   0  0  0  0  0  0  0  0  0  0  0  0
   10.3198  -13.6085   28.0325 C   0  0  0  0  0  0  0  0  0  0  0  0
   10.3759  -15.0693   27.5523 C   0  0  1  0  0  0  0  0  0  0  0  0
   10.2164  -15.9016   28.7558 C   0  0  0  0  0  0  0  0  0  0  0  0
   10.9698  -15.7941   29.7454 O   0  0  0  0  0  0  0  0  0  0  0  0
    9.2032  -16.8696   28.8604 O   0  0  0  0  0  0  0  0  0  0  0  0
  1  2  1  0
  2  3  2  0
  4  2  1  0
  5  4  1  0
  5  6  1  6
  7  8  2  0
  7  5  1  0
  9 10  1  0
 10 11  2  0
 10 12  1  0
 13 12  1  6
 13 15  1  0
 13 14  1  0
 14  7  1  0
 15 17  1  0
 16 15  2  0
 17 18  1  0
 19 18  1  0
 20 21  1  0
 20 19  1  0
 21 17  1  0
 21 22  1  1
 22 23  2  0
 22 24  1  0
M  END
$$$$
