NNP.pdb
     RDKit          3D

 24 24  0  0  1  0  0  0  0  0999 V2000
    9.2900  -13.9924   17.3416 N   0  0  0  0  0  0  0  0  0  0  0  0
    7.9570  -13.5491   17.6477 C   0  0  0  0  0  0  0  0  0  0  0  0
    7.2142  -13.2644   16.7058 O   0  0  0  0  0  0  0  0  0  0  0  0
    7.5730  -13.4654   19.0322 C   0  0  0  0  0  0  0  0  0  0  0  0
    8.6110  -13.7853   20.0698 C   0  0  2  0  0  0  0  0  0  0  0  0
    9.1050  -15.1440   19.5654 N   0  0  0  0  0  0  0  0  0  0  0  0
    7.9916  -14.0996   21.3729 C   0  0  0  0  0  0  0  0  0  0  0  0
    7.4017  -13.1423   22.0281 O   0  0  0  0  0  0  0  0  0  0  0  0
    6.3563  -15.9649   25.7282 N   0  0  0  0  0  0  0  0  0  0  0  0
    6.4372  -17.1263   24.8887 C   0  0  0  0  0  0  0  0  0  0  0  0
    6.0215  -18.2488   25.2789 O   0  0  0  0  0  0  0  0  0  0  0  0
    7.0339  -16.9368   23.5417 C   0  0  0  0  0  0  0  0  0  0  0  0
    7.4543  -15.4522   23.4031 C   0  0  2  0  0  0  0  0  0  0  0  0
    7.9181  -15.3331   22.0607 N   0  0  0  0  0  0  0  0  0  0  0  0
    8.2664  -15.0524   24.5255 C   0  0  0  0  0  0  0  0  0  0  0  0
    9.5522  -15.3438   24.4402 O   0  0  0  0  0  0  0  0  0  0  0  0
    7.9443  -14.3963   25.7221 N   0  0  0  0  0  0  0  0  0  0  0  0
    6.6250  -14.0590   26.2100 C   0  0  0  0  0  0  0  0  0  0  0  0
    6.8308  -12.7498   26.9139 C   0  0  0  0  0  0  0  0  0  0  0  0
    8.3067  -12.4874   26.9460 C   0  0  0  0  0  0  0  0  0  0  0  0
    8.8671  -13.8990   26.6993 C   0  0  1  0  0  0  0  0  0  0  0  0
    8.7781  -14.6051   27.9878 C   0  0  0  0  0  0  0  0  0  0  0  0
    9.3933  -14.2194   29.0033 O   0  0  0  0  0  0  0  0  0  0  0  0
    7.9928  -15.7591   28.1497 O   0  0  0  0  0  0  0  0  0  0  0  0
  1  2  1  0
  2  3  2  0
  4  2  1  0
  5  4  1  0
  5  6  1  6
  7  8  2  0
  7  5  1  0
  9 10  1  0
 10 11  2  0
 10 12  1  0
 13 12  1  1
 13 15  1  0
 13 14  1  0
 14  7  1  0
 15 17  1  0
 16 15  2  0
 17 18  1  0
 19 18  1  0
 20 21  1  0
 20 19  1  0
 21 17  1  0
 21 22  1  1
 22 23  2  0
 22 24  1  0
M  END
$$$$
