NNP.pdb
     RDKit          3D

 24 24  0  0  1  0  0  0  0  0999 V2000
    9.9601  -16.5492   17.7681 N   0  0  0  0  0  0  0  0  0  0  0  0
    8.5430  -16.3227   17.8550 C   0  0  0  0  0  0  0  0  0  0  0  0
    7.8884  -16.3611   16.8109 O   0  0  0  0  0  0  0  0  0  0  0  0
    7.9772  -16.0655   19.1532 C   0  0  0  0  0  0  0  0  0  0  0  0
    8.9076  -16.0382   20.3321 C   0  0  2  0  0  0  0  0  0  0  0  0
    9.2490  -17.5256   20.4569 N   0  0  0  0  0  0  0  0  0  0  0  0
    8.1832  -15.7390   21.5836 C   0  0  0  0  0  0  0  0  0  0  0  0
    7.5607  -14.6006   21.6849 O   0  0  0  0  0  0  0  0  0  0  0  0
    5.7537  -17.4637   22.6134 N   0  0  0  0  0  0  0  0  0  0  0  0
    6.0521  -18.0263   23.8997 C   0  0  0  0  0  0  0  0  0  0  0  0
    5.5061  -19.0900   24.2940 O   0  0  0  0  0  0  0  0  0  0  0  0
    7.0341  -17.2923   24.7384 C   0  0  0  0  0  0  0  0  0  0  0  0
    7.4824  -16.0277   23.9638 C   0  0  2  0  0  0  0  0  0  0  0  0
    8.0351  -16.5268   22.7487 N   0  0  0  0  0  0  0  0  0  0  0  0
    8.2242  -15.1444   24.8291 C   0  0  0  0  0  0  0  0  0  0  0  0
    9.5224  -15.0654   24.5972 O   0  0  0  0  0  0  0  0  0  0  0  0
    7.8208  -14.3316   25.8981 N   0  0  0  0  0  0  0  0  0  0  0  0
    6.4773  -14.1465   26.4011 C   0  0  0  0  0  0  0  0  0  0  0  0
    6.4530  -12.7079   26.8276 C   0  0  0  0  0  0  0  0  0  0  0  0
    7.8528  -12.1836   26.7094 C   0  0  0  0  0  0  0  0  0  0  0  0
    8.6625  -13.4920   26.6983 C   0  0  1  0  0  0  0  0  0  0  0  0
    8.7488  -13.9312   28.1006 C   0  0  0  0  0  0  0  0  0  0  0  0
    8.1152  -14.9172   28.5305 O   0  0  0  0  0  0  0  0  0  0  0  0
    9.5523  -13.2631   29.0400 O   0  0  0  0  0  0  0  0  0  0  0  0
  1  2  1  0
  2  3  2  0
  4  2  1  0
  5  4  1  0
  5  6  1  1
  7  8  2  0
  7  5  1  0
  9 10  1  0
 10 11  2  0
 10 12  1  0
 13 12  1  1
 13 15  1  0
 13 14  1  0
 14  7  1  0
 15 17  1  0
 16 15  2  0
 17 18  1  0
 19 18  1  0
 20 21  1  0
 20 19  1  0
 21 17  1  0
 21 22  1  1
 22 23  2  0
 22 24  1  0
M  END
$$$$
