NNP.pdb
     RDKit          3D

 24 24  0  0  1  0  0  0  0  0999 V2000
    8.9593  -16.2967   18.1301 N   0  0  0  0  0  0  0  0  0  0  0  0
    7.9842  -15.2818   18.4237 C   0  0  0  0  0  0  0  0  0  0  0  0
    7.2752  -14.8796   17.4988 O   0  0  0  0  0  0  0  0  0  0  0  0
    7.8963  -14.7992   19.7767 C   0  0  0  0  0  0  0  0  0  0  0  0
    8.9165  -15.2882   20.7648 C   0  0  2  0  0  0  0  0  0  0  0  0
    8.7467  -16.8029   20.6198 N   0  0  0  0  0  0  0  0  0  0  0  0
    8.4936  -15.0197   22.1539 C   0  0  0  0  0  0  0  0  0  0  0  0
    8.3740  -13.7825   22.5395 O   0  0  0  0  0  0  0  0  0  0  0  0
    8.2916  -18.1497   24.7076 N   0  0  0  0  0  0  0  0  0  0  0  0
    7.0096  -17.6938   25.1643 C   0  0  0  0  0  0  0  0  0  0  0  0
    6.1680  -18.4887   25.6595 O   0  0  0  0  0  0  0  0  0  0  0  0
    6.7277  -16.2421   25.0237 C   0  0  0  0  0  0  0  0  0  0  0  0
    8.0257  -15.5406   24.5517 C   0  0  2  0  0  0  0  0  0  0  0  0
    8.1691  -15.9284   23.1878 N   0  0  0  0  0  0  0  0  0  0  0  0
    9.0825  -15.7384   25.5126 C   0  0  0  0  0  0  0  0  0  0  0  0
   10.0895  -16.4956   25.1152 O   0  0  0  0  0  0  0  0  0  0  0  0
    9.2503  -15.2687   26.8231 N   0  0  0  0  0  0  0  0  0  0  0  0
    8.2522  -14.6507   27.6681 C   0  0  0  0  0  0  0  0  0  0  0  0
    9.0303  -13.6348   28.4520 C   0  0  0  0  0  0  0  0  0  0  0  0
   10.4816  -13.8461   28.1397 C   0  0  0  0  0  0  0  0  0  0  0  0
   10.4628  -15.2820   27.5870 C   0  0  1  0  0  0  0  0  0  0  0  0
   10.3960  -16.1703   28.7589 C   0  0  0  0  0  0  0  0  0  0  0  0
    9.3680  -16.8174   29.0472 O   0  0  0  0  0  0  0  0  0  0  0  0
   11.4896  -16.3414   29.6244 O   0  0  0  0  0  0  0  0  0  0  0  0
  1  2  1  0
  2  3  2  0
  4  2  1  0
  5  4  1  0
  5  6  1  1
  7  8  2  0
  7  5  1  0
  9 10  1  0
 10 11  2  0
 10 12  1  0
 13 12  1  1
 13 15  1  0
 13 14  1  0
 14  7  1  0
 15 17  1  0
 16 15  2  0
 17 18  1  0
 19 18  1  0
 20 21  1  0
 20 19  1  0
 21 17  1  0
 21 22  1  1
 22 23  2  0
 22 24  1  0
M  END
$$$$
