NNP.pdb
     RDKit          3D

 24 24  0  0  1  0  0  0  0  0999 V2000
    9.3931  -16.9791   14.7710 N   0  0  0  0  0  0  0  0  0  0  0  0
   10.0777  -15.8980   15.4263 C   0  0  0  0  0  0  0  0  0  0  0  0
   11.0652  -15.4176   14.8657 O   0  0  0  0  0  0  0  0  0  0  0  0
    9.5690  -15.4442   16.6938 C   0  0  0  0  0  0  0  0  0  0  0  0
    8.0827  -15.4810   16.9081 C   0  0  2  0  0  0  0  0  0  0  0  0
    7.6751  -14.1404   16.2909 N   0  0  0  0  0  0  0  0  0  0  0  0
    7.7400  -15.3276   18.3362 C   0  0  0  0  0  0  0  0  0  0  0  0
    7.9494  -14.1764   18.9059 O   0  0  0  0  0  0  0  0  0  0  0  0
    4.4741  -15.8735   20.0237 N   0  0  0  0  0  0  0  0  0  0  0  0
    4.8017  -17.0638   20.7556 C   0  0  0  0  0  0  0  0  0  0  0  0
    3.9249  -17.9207   21.0422 O   0  0  0  0  0  0  0  0  0  0  0  0
    6.2222  -17.2323   21.1560 C   0  0  0  0  0  0  0  0  0  0  0  0
    7.0215  -16.0149   20.6278 C   0  0  2  0  0  0  0  0  0  0  0  0
    7.1833  -16.2674   19.2345 N   0  0  0  0  0  0  0  0  0  0  0  0
    8.1477  -15.7419   21.4859 C   0  0  0  0  0  0  0  0  0  0  0  0
    9.3186  -16.1791   21.0580 O   0  0  0  0  0  0  0  0  0  0  0  0
    8.2406  -15.0837   22.7205 N   0  0  0  0  0  0  0  0  0  0  0  0
    7.1667  -14.4699   23.4704 C   0  0  0  0  0  0  0  0  0  0  0  0
    7.8166  -13.2784   24.1106 C   0  0  0  0  0  0  0  0  0  0  0  0
    9.2876  -13.3701   23.8344 C   0  0  0  0  0  0  0  0  0  0  0  0
    9.4336  -14.8610   23.4827 C   0  0  1  0  0  0  0  0  0  0  0  0
    9.4421  -15.5845   24.7645 C   0  0  0  0  0  0  0  0  0  0  0  0
   10.3704  -15.4662   25.5908 O   0  0  0  0  0  0  0  0  0  0  0  0
    8.4018  -16.4541   25.1335 O   0  0  0  0  0  0  0  0  0  0  0  0
  1  2  1  0
  2  3  2  0
  4  2  1  0
  5  4  1  0
  5  6  1  6
  7  8  2  0
  7  5  1  0
  9 10  1  0
 10 11  2  0
 10 12  1  0
 13 12  1  1
 13 15  1  0
 13 14  1  0
 14  7  1  0
 15 17  1  0
 16 15  2  0
 17 18  1  0
 19 18  1  0
 20 21  1  0
 20 19  1  0
 21 17  1  0
 21 22  1  1
 22 23  2  0
 22 24  1  0
M  END
$$$$
