NNP.pdb
     RDKit          3D

 24 24  0  0  1  0  0  0  0  0999 V2000
    9.1344  -14.8645   16.9940 N   0  0  0  0  0  0  0  0  0  0  0  0
    8.2742  -13.8386   17.5182 C   0  0  0  0  0  0  0  0  0  0  0  0
    7.9023  -12.9500   16.7487 O   0  0  0  0  0  0  0  0  0  0  0  0
    7.9011  -13.9124   18.9063 C   0  0  0  0  0  0  0  0  0  0  0  0
    8.4693  -15.0342   19.7278 C   0  0  2  0  0  0  0  0  0  0  0  0
    7.7977  -16.2391   19.0633 N   0  0  0  0  0  0  0  0  0  0  0  0
    7.9147  -15.0347   21.0963 C   0  0  0  0  0  0  0  0  0  0  0  0
    6.6436  -14.8028   21.2524 O   0  0  0  0  0  0  0  0  0  0  0  0
    7.4861  -17.8712   25.6803 N   0  0  0  0  0  0  0  0  0  0  0  0
    6.6657  -16.9530   24.9429 C   0  0  0  0  0  0  0  0  0  0  0  0
    5.6347  -16.4394   25.4513 O   0  0  0  0  0  0  0  0  0  0  0  0
    7.0936  -16.6408   23.5551 C   0  0  0  0  0  0  0  0  0  0  0  0
    7.8777  -15.3049   23.5794 C   0  0  2  0  0  0  0  0  0  0  0  0
    8.5641  -15.2676   22.3309 N   0  0  0  0  0  0  0  0  0  0  0  0
    8.5732  -15.1525   24.8332 C   0  0  0  0  0  0  0  0  0  0  0  0
    9.7638  -15.7206   24.9055 O   0  0  0  0  0  0  0  0  0  0  0  0
    8.2185  -14.4996   26.0223 N   0  0  0  0  0  0  0  0  0  0  0  0
    6.8955  -14.0842   26.4341 C   0  0  0  0  0  0  0  0  0  0  0  0
    7.1410  -12.8056   27.1802 C   0  0  0  0  0  0  0  0  0  0  0  0
    8.6258  -12.6433   27.3113 C   0  0  0  0  0  0  0  0  0  0  0  0
    9.1070  -14.0843   27.0672 C   0  0  1  0  0  0  0  0  0  0  0  0
    8.8891  -14.8077   28.3305 C   0  0  0  0  0  0  0  0  0  0  0  0
    8.0326  -15.7088   28.4436 O   0  0  0  0  0  0  0  0  0  0  0  0
    9.6353  -14.5242   29.4870 O   0  0  0  0  0  0  0  0  0  0  0  0
  1  2  1  0
  2  3  2  0
  4  2  1  0
  5  4  1  0
  5  6  1  6
  7  8  2  0
  7  5  1  0
  9 10  1  0
 10 11  2  0
 10 12  1  0
 13 12  1  1
 13 15  1  0
 13 14  1  0
 14  7  1  0
 15 17  1  0
 16 15  2  0
 17 18  1  0
 19 18  1  0
 20 21  1  0
 20 19  1  0
 21 17  1  0
 21 22  1  1
 22 23  2  0
 22 24  1  0
M  END
$$$$
