NNP.pdb
     RDKit          3D

 24 24  0  0  1  0  0  0  0  0999 V2000
    7.8561  -13.2603   13.8062 N   0  0  0  0  0  0  0  0  0  0  0  0
    8.3441  -14.5804   14.0995 C   0  0  0  0  0  0  0  0  0  0  0  0
    9.0744  -15.1227   13.2672 O   0  0  0  0  0  0  0  0  0  0  0  0
    7.9507  -15.1861   15.3444 C   0  0  0  0  0  0  0  0  0  0  0  0
    8.5528  -16.5155   15.7001 C   0  0  2  0  0  0  0  0  0  0  0  0
    7.5987  -17.4627   14.9675 N   0  0  0  0  0  0  0  0  0  0  0  0
    8.3417  -16.8389   17.1253 C   0  0  0  0  0  0  0  0  0  0  0  0
    7.1222  -16.9837   17.5561 O   0  0  0  0  0  0  0  0  0  0  0  0
    9.8700  -19.5238   21.9884 N   0  0  0  0  0  0  0  0  0  0  0  0
    8.7993  -19.1408   21.1126 C   0  0  0  0  0  0  0  0  0  0  0  0
    7.6063  -19.0993   21.5129 O   0  0  0  0  0  0  0  0  0  0  0  0
    9.1693  -18.7972   19.7156 C   0  0  0  0  0  0  0  0  0  0  0  0
    8.9335  -17.2797   19.5118 C   0  0  2  0  0  0  0  0  0  0  0  0
    9.2918  -17.0389   18.1536 N   0  0  0  0  0  0  0  0  0  0  0  0
    9.5179  -16.5297   20.5958 C   0  0  0  0  0  0  0  0  0  0  0  0
   10.8323  -16.4004   20.5653 O   0  0  0  0  0  0  0  0  0  0  0  0
    8.9430  -15.8945   21.7059 N   0  0  0  0  0  0  0  0  0  0  0  0
    7.5654  -15.9655   22.1412 C   0  0  0  0  0  0  0  0  0  0  0  0
    7.2955  -14.5952   22.6902 C   0  0  0  0  0  0  0  0  0  0  0  0
    8.5994  -13.8548   22.7032 C   0  0  0  0  0  0  0  0  0  0  0  0
    9.6045  -15.0174   22.6261 C   0  0  1  0  0  0  0  0  0  0  0  0
    9.6943  -15.5711   23.9870 C   0  0  0  0  0  0  0  0  0  0  0  0
    9.1062  -16.6208   24.3197 O   0  0  0  0  0  0  0  0  0  0  0  0
   10.4499  -14.9474   24.9942 O   0  0  0  0  0  0  0  0  0  0  0  0
  1  2  1  0
  2  3  2  0
  4  2  1  0
  5  4  1  0
  5  6  1  6
  7  8  2  0
  7  5  1  0
  9 10  1  0
 10 11  2  0
 10 12  1  0
 13 12  1  1
 13 15  1  0
 13 14  1  0
 14  7  1  0
 15 17  1  0
 16 15  2  0
 17 18  1  0
 19 18  1  0
 20 21  1  0
 20 19  1  0
 21 17  1  0
 21 22  1  1
 22 23  2  0
 22 24  1  0
M  END
$$$$
