NNP.pdb
     RDKit          3D

 24 24  0  0  1  0  0  0  0  0999 V2000
   11.2001  -17.9736   18.8977 N   0  0  0  0  0  0  0  0  0  0  0  0
    9.8698  -17.4967   18.6336 C   0  0  0  0  0  0  0  0  0  0  0  0
    9.4538  -17.5625   17.4748 O   0  0  0  0  0  0  0  0  0  0  0  0
    9.1073  -16.9731   19.7363 C   0  0  0  0  0  0  0  0  0  0  0  0
    9.7954  -16.8372   21.0645 C   0  0  2  0  0  0  0  0  0  0  0  0
    9.7929  -18.2945   21.5343 N   0  0  0  0  0  0  0  0  0  0  0  0
    8.9358  -16.1503   22.0492 C   0  0  0  0  0  0  0  0  0  0  0  0
    8.8050  -14.8581   21.9663 O   0  0  0  0  0  0  0  0  0  0  0  0
    6.4136  -18.0229   22.6130 N   0  0  0  0  0  0  0  0  0  0  0  0
    6.5087  -18.0969   24.0432 C   0  0  0  0  0  0  0  0  0  0  0  0
    6.5807  -19.2031   24.6402 O   0  0  0  0  0  0  0  0  0  0  0  0
    6.5178  -16.8070   24.7798 C   0  0  0  0  0  0  0  0  0  0  0  0
    7.5860  -15.8889   24.1348 C   0  0  2  0  0  0  0  0  0  0  0  0
    8.1820  -16.6895   23.1175 N   0  0  0  0  0  0  0  0  0  0  0  0
    8.3762  -15.2435   25.1537 C   0  0  0  0  0  0  0  0  0  0  0  0
    9.6710  -15.5053   25.1320 O   0  0  0  0  0  0  0  0  0  0  0  0
    8.0242  -14.3681   26.1910 N   0  0  0  0  0  0  0  0  0  0  0  0
    6.6908  -14.0024   26.6158 C   0  0  0  0  0  0  0  0  0  0  0  0
    6.8307  -12.5661   27.0273 C   0  0  0  0  0  0  0  0  0  0  0  0
    8.2913  -12.2295   26.9835 C   0  0  0  0  0  0  0  0  0  0  0  0
    8.9230  -13.6317   27.0298 C   0  0  1  0  0  0  0  0  0  0  0  0
    8.8746  -14.0557   28.4386 C   0  0  0  0  0  0  0  0  0  0  0  0
    8.0995  -14.9482   28.8399 O   0  0  0  0  0  0  0  0  0  0  0  0
    9.7010  -13.4775   29.4170 O   0  0  0  0  0  0  0  0  0  0  0  0
  1  2  1  0
  2  3  2  0
  4  2  1  0
  5  4  1  0
  5  6  1  1
  7  8  2  0
  7  5  1  0
  9 10  1  0
 10 11  2  0
 10 12  1  0
 13 12  1  1
 13 15  1  0
 13 14  1  0
 14  7  1  0
 15 17  1  0
 16 15  2  0
 17 18  1  0
 19 18  1  0
 20 21  1  0
 20 19  1  0
 21 17  1  0
 21 22  1  1
 22 23  2  0
 22 24  1  0
M  END
$$$$
