NNP.pdb
     RDKit          3D

 24 24  0  0  1  0  0  0  0  0999 V2000
    9.1316  -14.4781   17.3399 N   0  0  0  0  0  0  0  0  0  0  0  0
    8.3062  -13.4807   17.9651 C   0  0  0  0  0  0  0  0  0  0  0  0
    8.1225  -12.4227   17.3594 O   0  0  0  0  0  0  0  0  0  0  0  0
    7.7464  -13.7786   19.2571 C   0  0  0  0  0  0  0  0  0  0  0  0
    8.0624  -15.1136   19.8688 C   0  0  2  0  0  0  0  0  0  0  0  0
    7.0530  -16.0045   19.1395 N   0  0  0  0  0  0  0  0  0  0  0  0
    7.6298  -15.1763   21.2793 C   0  0  0  0  0  0  0  0  0  0  0  0
    6.4078  -14.8364   21.5707 O   0  0  0  0  0  0  0  0  0  0  0  0
    5.9152  -17.0003   25.9722 N   0  0  0  0  0  0  0  0  0  0  0  0
    7.1918  -17.3132   25.3958 C   0  0  0  0  0  0  0  0  0  0  0  0
    8.1338  -17.7703   26.0950 O   0  0  0  0  0  0  0  0  0  0  0  0
    7.3440  -17.0714   23.9381 C   0  0  0  0  0  0  0  0  0  0  0  0
    7.7913  -15.6021   23.7354 C   0  0  2  0  0  0  0  0  0  0  0  0
    8.3546  -15.5745   22.4265 N   0  0  0  0  0  0  0  0  0  0  0  0
    8.5230  -15.1355   24.8870 C   0  0  0  0  0  0  0  0  0  0  0  0
    9.8284  -15.3369   24.8617 O   0  0  0  0  0  0  0  0  0  0  0  0
    8.1031  -14.4920   26.0599 N   0  0  0  0  0  0  0  0  0  0  0  0
    6.7440  -14.2122   26.4686 C   0  0  0  0  0  0  0  0  0  0  0  0
    6.8508  -12.8938   27.1774 C   0  0  0  0  0  0  0  0  0  0  0  0
    8.3095  -12.5668   27.2944 C   0  0  0  0  0  0  0  0  0  0  0  0
    8.9445  -13.9529   27.0871 C   0  0  1  0  0  0  0  0  0  0  0  0
    8.8114  -14.6599   28.3713 C   0  0  0  0  0  0  0  0  0  0  0  0
    8.0678  -15.6528   28.5117 O   0  0  0  0  0  0  0  0  0  0  0  0
    9.5159  -14.2560   29.5180 O   0  0  0  0  0  0  0  0  0  0  0  0
  1  2  1  0
  2  3  2  0
  4  2  1  0
  5  4  1  0
  5  6  1  6
  7  8  2  0
  7  5  1  0
  9 10  1  0
 10 11  2  0
 10 12  1  0
 13 12  1  1
 13 15  1  0
 13 14  1  0
 14  7  1  0
 15 17  1  0
 16 15  2  0
 17 18  1  0
 19 18  1  0
 20 21  1  0
 20 19  1  0
 21 17  1  0
 21 22  1  1
 22 23  2  0
 22 24  1  0
M  END
$$$$
