NNP.pdb
     RDKit          3D

 24 24  0  0  1  0  0  0  0  0999 V2000
   11.7880  -17.7582   18.7056 N   0  0  0  0  0  0  0  0  0  0  0  0
   12.2839  -16.6915   19.5322 C   0  0  0  0  0  0  0  0  0  0  0  0
   13.3945  -16.2262   19.2672 O   0  0  0  0  0  0  0  0  0  0  0  0
   11.4547  -16.2337   20.6158 C   0  0  0  0  0  0  0  0  0  0  0  0
   10.1978  -17.0012   20.9113 C   0  0  2  0  0  0  0  0  0  0  0  0
    9.2274  -16.3442   19.9258 N   0  0  0  0  0  0  0  0  0  0  0  0
    9.6475  -16.6454   22.2345 C   0  0  0  0  0  0  0  0  0  0  0  0
    9.0446  -15.5000   22.3699 O   0  0  0  0  0  0  0  0  0  0  0  0
    6.4859  -16.8771   26.5414 N   0  0  0  0  0  0  0  0  0  0  0  0
    7.6030  -17.7727   26.4401 C   0  0  0  0  0  0  0  0  0  0  0  0
    8.1318  -18.2813   27.4632 O   0  0  0  0  0  0  0  0  0  0  0  0
    8.1010  -18.0675   25.0721 C   0  0  0  0  0  0  0  0  0  0  0  0
    9.0489  -16.9193   24.6443 C   0  0  2  0  0  0  0  0  0  0  0  0
    9.6561  -17.3831   23.4412 N   0  0  0  0  0  0  0  0  0  0  0  0
    9.8342  -16.4704   25.7672 C   0  0  0  0  0  0  0  0  0  0  0  0
   11.0748  -16.9214   25.8209 O   0  0  0  0  0  0  0  0  0  0  0  0
    9.5250  -15.6244   26.8418 N   0  0  0  0  0  0  0  0  0  0  0  0
    8.2287  -15.0839   27.1881 C   0  0  0  0  0  0  0  0  0  0  0  0
    8.5453  -13.7194   27.7264 C   0  0  0  0  0  0  0  0  0  0  0  0
   10.0377  -13.6143   27.8266 C   0  0  0  0  0  0  0  0  0  0  0  0
   10.4442  -15.0983   27.8072 C   0  0  1  0  0  0  0  0  0  0  0  0
   10.2041  -15.6057   29.1679 C   0  0  0  0  0  0  0  0  0  0  0  0
   10.7391  -15.0953   30.1738 O   0  0  0  0  0  0  0  0  0  0  0  0
    9.3560  -16.6987   29.4141 O   0  0  0  0  0  0  0  0  0  0  0  0
  1  2  1  0
  2  3  2  0
  4  2  1  0
  5  4  1  0
  5  6  1  6
  7  8  2  0
  7  5  1  0
  9 10  1  0
 10 11  2  0
 10 12  1  0
 13 12  1  1
 13 15  1  0
 13 14  1  0
 14  7  1  0
 15 17  1  0
 16 15  2  0
 17 18  1  0
 19 18  1  0
 20 21  1  0
 20 19  1  0
 21 17  1  0
 21 22  1  1
 22 23  2  0
 22 24  1  0
M  END
$$$$
