KER.pdb
     RDKit          3D

 30 29  0  0  1  0  0  0  0  0999 V2000
   29.5457  -30.9521  -20.4280 N   0  0  0  0  0  0  0  0  0  0  0  0
   29.1150  -30.9960  -19.0600 C   0  0  1  0  0  0  0  0  0  0  0  0
   29.9996  -30.0652  -18.2630 C   0  0  0  0  0  0  0  0  0  0  0  0
   30.9994  -29.3995  -19.1386 C   0  0  0  0  0  0  0  0  0  0  0  0
   31.0247  -27.9061  -19.1191 C   0  0  0  0  0  0  0  0  0  0  0  0
   32.1056  -27.2848  -19.9324 C   0  0  0  0  0  0  0  0  0  0  0  0
   32.1057  -25.8598  -19.9539 N   0  0  0  0  0  0  0  0  0  0  0  0
   27.6901  -30.6147  -18.9847 C   0  0  0  0  0  0  0  0  0  0  0  0
   27.1366  -29.8744  -19.8456 O   0  0  0  0  0  0  0  0  0  0  0  0
   26.9056  -31.0972  -17.9029 N   0  0  0  0  0  0  0  0  0  0  0  0
   25.4830  -30.8015  -17.7673 C   0  0  1  0  0  0  0  0  0  0  0  0
   24.9136  -31.7541  -16.7691 C   0  0  0  0  0  0  0  0  0  0  0  0
   23.4754  -31.5908  -16.4384 C   0  0  0  0  0  0  0  0  0  0  0  0
   22.9047  -32.5303  -15.4705 C   0  0  0  0  0  0  0  0  0  0  0  0
   23.0068  -33.7939  -15.6342 O   0  0  0  0  0  0  0  0  0  0  0  0
   25.2168  -29.3777  -17.5436 C   0  0  0  0  0  0  0  0  0  0  0  0
   26.0524  -28.6967  -16.8556 O   0  0  0  0  0  0  0  0  0  0  0  0
   22.2177  -32.1670  -14.3126 O   0  0  0  0  0  0  0  0  0  0  0  0
   27.1056  -23.0549  -21.9373 N   0  0  0  0  0  0  0  0  0  0  0  0
   26.3893  -24.0145  -22.7157 C   0  0  0  0  0  0  0  0  0  0  0  0
   26.3541  -23.8256  -23.9768 N   0  0  0  0  0  0  0  0  0  0  0  0
   25.7774  -25.0921  -22.0566 N   0  0  0  0  0  0  0  0  0  0  0  0
   25.8506  -25.1383  -20.5902 C   0  0  0  0  0  0  0  0  0  0  0  0
   25.1948  -26.3872  -20.0701 C   0  0  0  0  0  0  0  0  0  0  0  0
   25.1613  -26.5674  -18.6109 C   0  0  0  0  0  0  0  0  0  0  0  0
   24.0009  -27.2485  -17.9834 C   0  0  2  0  0  0  0  0  0  0  0  0
   24.0844  -28.6910  -18.0471 N   0  0  0  0  0  0  0  0  0  0  0  0
   22.7130  -26.8243  -18.5518 C   0  0  0  0  0  0  0  0  0  0  0  0
   22.2681  -25.6604  -18.3526 O   0  0  0  0  0  0  0  0  0  0  0  0
   21.9245  -27.6619  -19.3242 O   0  0  0  0  0  0  0  0  0  0  0  0
  2  1  1  6
  2  3  1  0
  3  4  1  0
  4  5  1  0
  6  5  1  0
  7  6  1  0
  8  2  1  0
  8  9  2  0
 10  8  1  0
 11 16  1  0
 11 10  1  0
 11 12  1  1
 13 12  1  0
 14 18  1  0
 14 13  1  0
 15 14  2  0
 16 27  1  0
 17 16  2  0
 20 22  1  0
 20 19  1  0
 21 20  2  0
 23 22  1  0
 23 24  1  0
 25 24  1  0
 26 25  1  6
 26 28  1  0
 27 26  1  0
 28 29  2  0
 28 30  1  0
M  END
$$$$
