KER.pdb
     RDKit          3D

 30 29  0  0  1  0  0  0  0  0999 V2000
   25.1954  -16.9397  -17.7931 N   0  0  0  0  0  0  0  0  0  0  0  0
   23.9850  -17.7053  -17.8804 C   0  0  1  0  0  0  0  0  0  0  0  0
   23.7917  -18.1081  -19.3242 C   0  0  0  0  0  0  0  0  0  0  0  0
   23.4423  -16.9322  -20.1638 C   0  0  0  0  0  0  0  0  0  0  0  0
   24.5183  -15.9209  -20.3889 C   0  0  0  0  0  0  0  0  0  0  0  0
   24.1205  -14.7549  -21.2243 C   0  0  0  0  0  0  0  0  0  0  0  0
   25.1400  -13.7806  -21.4308 N   0  0  0  0  0  0  0  0  0  0  0  0
   24.0807  -18.8734  -16.9817 C   0  0  0  0  0  0  0  0  0  0  0  0
   23.2128  -19.7910  -16.9625 O   0  0  0  0  0  0  0  0  0  0  0  0
   25.1913  -18.9744  -16.1013 N   0  0  0  0  0  0  0  0  0  0  0  0
   25.4074  -20.1279  -15.2340 C   0  0  1  0  0  0  0  0  0  0  0  0
   26.7565  -20.6853  -15.5463 C   0  0  0  0  0  0  0  0  0  0  0  0
   26.8330  -21.6533  -16.6694 C   0  0  0  0  0  0  0  0  0  0  0  0
   28.1703  -22.0509  -17.1148 C   0  0  0  0  0  0  0  0  0  0  0  0
   29.2192  -21.4945  -16.6413 O   0  0  0  0  0  0  0  0  0  0  0  0
   25.1248  -19.8408  -13.8248 C   0  0  0  0  0  0  0  0  0  0  0  0
   25.7158  -18.8528  -13.2681 O   0  0  0  0  0  0  0  0  0  0  0  0
   28.4370  -23.0386  -18.0626 O   0  0  0  0  0  0  0  0  0  0  0  0
   19.0467  -21.7543   -8.0713 N   0  0  0  0  0  0  0  0  0  0  0  0
   19.4431  -22.1207   -9.3936 C   0  0  0  0  0  0  0  0  0  0  0  0
   18.5358  -22.5828  -10.1619 N   0  0  0  0  0  0  0  0  0  0  0  0
   20.7866  -21.9517   -9.7631 N   0  0  0  0  0  0  0  0  0  0  0  0
   21.6957  -21.3193   -8.7979 C   0  0  0  0  0  0  0  0  0  0  0  0
   23.0291  -21.0425   -9.4350 C   0  0  0  0  0  0  0  0  0  0  0  0
   23.0596  -20.9296  -10.9010 C   0  0  0  0  0  0  0  0  0  0  0  0
   24.3318  -20.5813  -11.5825 C   0  0  2  0  0  0  0  0  0  0  0  0
   24.2260  -20.5890  -13.0249 N   0  0  0  0  0  0  0  0  0  0  0  0
   25.4493  -21.4506  -11.1861 C   0  0  0  0  0  0  0  0  0  0  0  0
   26.3450  -21.0373  -10.3991 O   0  0  0  0  0  0  0  0  0  0  0  0
   25.5846  -22.7508  -11.6457 O   0  0  0  0  0  0  0  0  0  0  0  0
  2  1  1  6
  2  3  1  0
  3  4  1  0
  4  5  1  0
  6  5  1  0
  7  6  1  0
  8  2  1  0
  8  9  2  0
 10  8  1  0
 11 16  1  0
 11 10  1  0
 11 12  1  1
 13 12  1  0
 14 18  1  0
 14 13  1  0
 15 14  2  0
 16 27  1  0
 17 16  2  0
 20 22  1  0
 20 19  1  0
 21 20  2  0
 23 22  1  0
 23 24  1  0
 25 24  1  0
 26 25  1  1
 26 28  1  0
 27 26  1  0
 28 29  2  0
 28 30  1  0
M  END
$$$$
