KER.pdb
     RDKit          3D

 30 29  0  0  1  0  0  0  0  0999 V2000
   26.2670  -21.5190  -14.1796 N   0  0  0  0  0  0  0  0  0  0  0  0
   25.3507  -21.1133  -15.2066 C   0  0  1  0  0  0  0  0  0  0  0  0
   25.1170  -22.2973  -16.1166 C   0  0  0  0  0  0  0  0  0  0  0  0
   24.4867  -23.4221  -15.3771 C   0  0  0  0  0  0  0  0  0  0  0  0
   24.1346  -24.6376  -16.1708 C   0  0  0  0  0  0  0  0  0  0  0  0
   23.3454  -25.6626  -15.4343 C   0  0  0  0  0  0  0  0  0  0  0  0
   22.9642  -26.8015  -16.2017 N   0  0  0  0  0  0  0  0  0  0  0  0
   24.1013  -20.6316  -14.5834 C   0  0  0  0  0  0  0  0  0  0  0  0
   23.8428  -20.7987  -13.3583 O   0  0  0  0  0  0  0  0  0  0  0  0
   23.1486  -19.9522  -15.3892 N   0  0  0  0  0  0  0  0  0  0  0  0
   21.9030  -19.4137  -14.8524 C   0  0  1  0  0  0  0  0  0  0  0  0
   21.7404  -18.0280  -15.3831 C   0  0  0  0  0  0  0  0  0  0  0  0
   20.4820  -17.3236  -15.0305 C   0  0  0  0  0  0  0  0  0  0  0  0
   20.2037  -16.0682  -15.7316 C   0  0  0  0  0  0  0  0  0  0  0  0
   19.0891  -15.4600  -15.5844 O   0  0  0  0  0  0  0  0  0  0  0  0
   20.7672  -20.3230  -15.0294 C   0  0  0  0  0  0  0  0  0  0  0  0
   20.6238  -20.9161  -16.1532 O   0  0  0  0  0  0  0  0  0  0  0  0
   21.0855  -15.4238  -16.5988 O   0  0  0  0  0  0  0  0  0  0  0  0
   18.2337  -24.6012   -9.4965 N   0  0  0  0  0  0  0  0  0  0  0  0
   18.8087  -25.6751  -10.2423 C   0  0  0  0  0  0  0  0  0  0  0  0
   19.3388  -26.6238   -9.5745 N   0  0  0  0  0  0  0  0  0  0  0  0
   18.7558  -25.6233  -11.6439 N   0  0  0  0  0  0  0  0  0  0  0  0
   17.9812  -24.5424  -12.2679 C   0  0  0  0  0  0  0  0  0  0  0  0
   18.8245  -23.3060  -12.4109 C   0  0  0  0  0  0  0  0  0  0  0  0
   18.1847  -22.1254  -13.0106 C   0  0  0  0  0  0  0  0  0  0  0  0
   18.7388  -21.5478  -14.2610 C   0  0  2  0  0  0  0  0  0  0  0  0
   19.8050  -20.5990  -14.0268 N   0  0  0  0  0  0  0  0  0  0  0  0
   17.7135  -20.9090  -15.0991 C   0  0  0  0  0  0  0  0  0  0  0  0
   17.6453  -19.6526  -15.1958 O   0  0  0  0  0  0  0  0  0  0  0  0
   16.7770  -21.6344  -15.8180 O   0  0  0  0  0  0  0  0  0  0  0  0
  2  1  1  1
  2  3  1  0
  3  4  1  0
  4  5  1  0
  6  5  1  0
  7  6  1  0
  8  2  1  0
  8  9  2  0
 10  8  1  0
 11 16  1  0
 11 10  1  0
 11 12  1  6
 13 12  1  0
 14 18  1  0
 14 13  1  0
 15 14  2  0
 16 27  1  0
 17 16  2  0
 20 22  1  0
 20 19  1  0
 21 20  2  0
 23 22  1  0
 23 24  1  0
 25 24  1  0
 26 25  1  1
 26 28  1  0
 27 26  1  0
 28 29  2  0
 28 30  1  0
M  END
$$$$
