KER.pdb
     RDKit          3D

 30 29  0  0  1  0  0  0  0  0999 V2000
   21.6409  -13.2148  -18.7580 N   0  0  0  0  0  0  0  0  0  0  0  0
   22.9481  -13.8064  -18.7621 C   0  0  1  0  0  0  0  0  0  0  0  0
   22.8510  -15.1464  -19.4543 C   0  0  0  0  0  0  0  0  0  0  0  0
   21.6982  -15.9307  -18.9389 C   0  0  0  0  0  0  0  0  0  0  0  0
   21.5018  -17.2963  -19.5114 C   0  0  0  0  0  0  0  0  0  0  0  0
   20.2700  -17.9976  -19.0568 C   0  0  0  0  0  0  0  0  0  0  0  0
   20.0204  -19.2530  -19.6835 N   0  0  0  0  0  0  0  0  0  0  0  0
   23.8940  -12.8951  -19.4375 C   0  0  0  0  0  0  0  0  0  0  0  0
   25.1132  -13.1800  -19.6041 O   0  0  0  0  0  0  0  0  0  0  0  0
   23.4190  -11.6465  -19.9213 N   0  0  0  0  0  0  0  0  0  0  0  0
   24.2859  -10.6748  -20.5799 C   0  0  1  0  0  0  0  0  0  0  0  0
   23.4342   -9.8407  -21.4783 C   0  0  0  0  0  0  0  0  0  0  0  0
   23.0207  -10.4568  -22.7643 C   0  0  0  0  0  0  0  0  0  0  0  0
   22.2123   -9.6338  -23.6665 C   0  0  0  0  0  0  0  0  0  0  0  0
   22.6852   -8.5711  -24.1966 O   0  0  0  0  0  0  0  0  0  0  0  0
   25.1513   -9.9559  -19.6405 C   0  0  0  0  0  0  0  0  0  0  0  0
   24.6843   -9.6402  -18.4927 O   0  0  0  0  0  0  0  0  0  0  0  0
   20.8946   -9.9064  -24.0329 O   0  0  0  0  0  0  0  0  0  0  0  0
   33.6301   -9.9911  -17.3633 N   0  0  0  0  0  0  0  0  0  0  0  0
   33.0603   -9.0037  -16.5029 C   0  0  0  0  0  0  0  0  0  0  0  0
   33.8072   -8.5434  -15.5770 N   0  0  0  0  0  0  0  0  0  0  0  0
   31.7332   -8.6043  -16.7252 N   0  0  0  0  0  0  0  0  0  0  0  0
   30.9990   -9.2285  -17.8339 C   0  0  0  0  0  0  0  0  0  0  0  0
   29.6106   -8.6598  -17.9313 C   0  0  0  0  0  0  0  0  0  0  0  0
   28.6877   -9.3059  -18.8766 C   0  0  0  0  0  0  0  0  0  0  0  0
   27.2748   -8.8551  -18.9448 C   0  0  2  0  0  0  0  0  0  0  0  0
   26.4904   -9.5845  -19.9166 N   0  0  0  0  0  0  0  0  0  0  0  0
   27.1463   -7.4162  -19.2180 C   0  0  0  0  0  0  0  0  0  0  0  0
   27.3393   -6.5635  -18.3080 O   0  0  0  0  0  0  0  0  0  0  0  0
   26.8101   -6.9194  -20.4671 O   0  0  0  0  0  0  0  0  0  0  0  0
  2  1  1  6
  2  3  1  0
  3  4  1  0
  4  5  1  0
  6  5  1  0
  7  6  1  0
  8  2  1  0
  8  9  2  0
 10  8  1  0
 11 16  1  0
 11 10  1  0
 11 12  1  1
 13 12  1  0
 14 18  1  0
 14 13  1  0
 15 14  2  0
 16 27  1  0
 17 16  2  0
 20 22  1  0
 20 19  1  0
 21 20  2  0
 23 22  1  0
 23 24  1  0
 25 24  1  0
 26 25  1  6
 26 28  1  0
 27 26  1  0
 28 29  2  0
 28 30  1  0
M  END
$$$$
