KER.pdb
     RDKit          3D

 30 29  0  0  1  0  0  0  0  0999 V2000
   30.9631   -4.9888    6.0871 N   0  0  0  0  0  0  0  0  0  0  0  0
   29.7774   -4.6664    6.8282 C   0  0  1  0  0  0  0  0  0  0  0  0
   28.8508   -3.8987    5.9136 C   0  0  0  0  0  0  0  0  0  0  0  0
   28.7527   -2.4744    6.3273 C   0  0  0  0  0  0  0  0  0  0  0  0
   29.9110   -1.5932    5.9907 C   0  0  0  0  0  0  0  0  0  0  0  0
   29.7788   -0.1810    6.4423 C   0  0  0  0  0  0  0  0  0  0  0  0
   30.9470    0.6193    6.2813 N   0  0  0  0  0  0  0  0  0  0  0  0
   29.1624   -5.9117    7.3305 C   0  0  0  0  0  0  0  0  0  0  0  0
   29.2990   -7.0230    6.7458 O   0  0  0  0  0  0  0  0  0  0  0  0
   28.3850   -5.8637    8.5188 N   0  0  0  0  0  0  0  0  0  0  0  0
   27.7402   -7.0431    9.0872 C   0  0  1  0  0  0  0  0  0  0  0  0
   28.0414   -7.0661   10.5490 C   0  0  0  0  0  0  0  0  0  0  0  0
   27.4268   -8.1634   11.3380 C   0  0  0  0  0  0  0  0  0  0  0  0
   27.7115   -8.1898   12.7744 C   0  0  0  0  0  0  0  0  0  0  0  0
   28.4544   -7.3037   13.3191 O   0  0  0  0  0  0  0  0  0  0  0  0
   26.3303   -7.1605    8.7044 C   0  0  0  0  0  0  0  0  0  0  0  0
   25.6524   -6.0920    8.5194 O   0  0  0  0  0  0  0  0  0  0  0  0
   27.2240   -9.1422   13.6690 O   0  0  0  0  0  0  0  0  0  0  0  0
   20.3399  -13.4890    8.1129 N   0  0  0  0  0  0  0  0  0  0  0  0
   19.6865  -12.4353    7.4039 C   0  0  0  0  0  0  0  0  0  0  0  0
   18.4157  -12.4998    7.3148 N   0  0  0  0  0  0  0  0  0  0  0  0
   20.4699  -11.4070    6.8572 N   0  0  0  0  0  0  0  0  0  0  0  0
   21.9019  -11.3796    7.1836 C   0  0  0  0  0  0  0  0  0  0  0  0
   22.3300   -9.9870    7.5550 C   0  0  0  0  0  0  0  0  0  0  0  0
   23.7470   -9.7915    7.8970 C   0  0  0  0  0  0  0  0  0  0  0  0
   24.2436   -8.4277    8.2095 C   0  0  2  0  0  0  0  0  0  0  0  0
   25.6562   -8.3926    8.5177 N   0  0  0  0  0  0  0  0  0  0  0  0
   23.5044   -7.7878    9.3076 C   0  0  0  0  0  0  0  0  0  0  0  0
   23.8855   -7.9108   10.5043 O   0  0  0  0  0  0  0  0  0  0  0  0
   22.3654   -7.0269    9.0984 O   0  0  0  0  0  0  0  0  0  0  0  0
  2  1  1  6
  2  3  1  0
  3  4  1  0
  4  5  1  0
  6  5  1  0
  7  6  1  0
  8  2  1  0
  8  9  2  0
 10  8  1  0
 11 16  1  0
 11 10  1  0
 11 12  1  1
 13 12  1  0
 14 18  1  0
 14 13  1  0
 15 14  2  0
 16 27  1  0
 17 16  2  0
 20 22  1  0
 20 19  1  0
 21 20  2  0
 23 22  1  0
 23 24  1  0
 25 24  1  0
 26 25  1  1
 26 28  1  0
 27 26  1  0
 28 29  2  0
 28 30  1  0
M  END
$$$$
