KER.pdb
     RDKit          3D

 30 29  0  0  1  0  0  0  0  0999 V2000
   25.6271  -18.8506  -16.8772 N   0  0  0  0  0  0  0  0  0  0  0  0
   26.0486  -20.2184  -16.7751 C   0  0  1  0  0  0  0  0  0  0  0  0
   27.4298  -20.2356  -16.1616 C   0  0  0  0  0  0  0  0  0  0  0  0
   28.3008  -21.2333  -16.8367 C   0  0  0  0  0  0  0  0  0  0  0  0
   28.2562  -22.6314  -16.3126 C   0  0  0  0  0  0  0  0  0  0  0  0
   29.2558  -23.5589  -16.9096 C   0  0  0  0  0  0  0  0  0  0  0  0
   29.1988  -24.9008  -16.4329 N   0  0  0  0  0  0  0  0  0  0  0  0
   25.0683  -20.9720  -15.9675 C   0  0  0  0  0  0  0  0  0  0  0  0
   24.9837  -22.2319  -16.0002 O   0  0  0  0  0  0  0  0  0  0  0  0
   24.1823  -20.2565  -15.1180 N   0  0  0  0  0  0  0  0  0  0  0  0
   23.1834  -20.9175  -14.2845 C   0  0  1  0  0  0  0  0  0  0  0  0
   23.0548  -20.1339  -13.0206 C   0  0  0  0  0  0  0  0  0  0  0  0
   22.0188  -20.5874  -12.0587 C   0  0  0  0  0  0  0  0  0  0  0  0
   20.7676  -19.8271  -12.0214 C   0  0  0  0  0  0  0  0  0  0  0  0
   20.7339  -18.5902  -12.3421 O   0  0  0  0  0  0  0  0  0  0  0  0
   21.9418  -21.2080  -15.0072 C   0  0  0  0  0  0  0  0  0  0  0  0
   21.3679  -20.2620  -15.6484 O   0  0  0  0  0  0  0  0  0  0  0  0
   19.5274  -20.3454  -11.6496 O   0  0  0  0  0  0  0  0  0  0  0  0
   18.8207  -27.3433  -20.8307 N   0  0  0  0  0  0  0  0  0  0  0  0
   18.7238  -27.2320  -19.4101 C   0  0  0  0  0  0  0  0  0  0  0  0
   18.6992  -28.3204  -18.7454 N   0  0  0  0  0  0  0  0  0  0  0  0
   18.6634  -25.9512  -18.8393 N   0  0  0  0  0  0  0  0  0  0  0  0
   18.5002  -25.8493  -17.3830 C   0  0  0  0  0  0  0  0  0  0  0  0
   18.6416  -24.4206  -16.9367 C   0  0  0  0  0  0  0  0  0  0  0  0
   19.8242  -24.0860  -16.1289 C   0  0  0  0  0  0  0  0  0  0  0  0
   20.0637  -22.6761  -15.7300 C   0  0  2  0  0  0  0  0  0  0  0  0
   21.3255  -22.4830  -15.0500 N   0  0  0  0  0  0  0  0  0  0  0  0
   18.9868  -22.1281  -14.8924 C   0  0  0  0  0  0  0  0  0  0  0  0
   18.9602  -22.3410  -13.6489 O   0  0  0  0  0  0  0  0  0  0  0  0
   17.9549  -21.3609  -15.4088 O   0  0  0  0  0  0  0  0  0  0  0  0
  2  1  1  1
  2  3  1  0
  3  4  1  0
  4  5  1  0
  6  5  1  0
  7  6  1  0
  8  2  1  0
  8  9  2  0
 10  8  1  0
 11 16  1  0
 11 10  1  0
 11 12  1  1
 13 12  1  0
 14 18  1  0
 14 13  1  0
 15 14  2  0
 16 27  1  0
 17 16  2  0
 20 22  1  0
 20 19  1  0
 21 20  2  0
 23 22  1  0
 23 24  1  0
 25 24  1  0
 26 25  1  1
 26 28  1  0
 27 26  1  0
 28 29  2  0
 28 30  1  0
M  END
$$$$
