KER.pdb
     RDKit          3D

 30 29  0  0  1  0  0  0  0  0999 V2000
   28.4016  -21.9238  -16.5645 N   0  0  0  0  0  0  0  0  0  0  0  0
   28.1426  -20.9611  -15.5324 C   0  0  1  0  0  0  0  0  0  0  0  0
   27.8201  -19.6420  -16.1960 C   0  0  0  0  0  0  0  0  0  0  0  0
   26.9705  -19.8438  -17.3989 C   0  0  0  0  0  0  0  0  0  0  0  0
   25.6154  -19.2155  -17.3804 C   0  0  0  0  0  0  0  0  0  0  0  0
   24.8124  -19.4158  -18.6176 C   0  0  0  0  0  0  0  0  0  0  0  0
   23.5189  -18.8178  -18.6048 N   0  0  0  0  0  0  0  0  0  0  0  0
   27.0367  -21.4442  -14.6810 C   0  0  0  0  0  0  0  0  0  0  0  0
   26.2420  -22.3548  -15.0482 O   0  0  0  0  0  0  0  0  0  0  0  0
   26.8547  -20.8652  -13.3964 N   0  0  0  0  0  0  0  0  0  0  0  0
   25.7659  -21.2512  -12.5047 C   0  0  1  0  0  0  0  0  0  0  0  0
   26.1389  -20.8298  -11.1222 C   0  0  0  0  0  0  0  0  0  0  0  0
   25.1651  -21.1415  -10.0458 C   0  0  0  0  0  0  0  0  0  0  0  0
   25.5257  -20.7370   -8.6851 C   0  0  0  0  0  0  0  0  0  0  0  0
   26.5588  -21.2148   -8.1036 O   0  0  0  0  0  0  0  0  0  0  0  0
   24.4522  -20.8204  -12.9914 C   0  0  0  0  0  0  0  0  0  0  0  0
   24.3237  -19.6308  -13.4429 O   0  0  0  0  0  0  0  0  0  0  0  0
   24.8141  -19.8245   -7.9068 O   0  0  0  0  0  0  0  0  0  0  0  0
   18.6008  -23.8288  -18.5514 N   0  0  0  0  0  0  0  0  0  0  0  0
   17.8702  -22.7563  -17.9549 C   0  0  0  0  0  0  0  0  0  0  0  0
   16.7557  -22.4467  -18.4925 N   0  0  0  0  0  0  0  0  0  0  0  0
   18.4136  -22.1179  -16.8291 N   0  0  0  0  0  0  0  0  0  0  0  0
   19.7200  -22.5753  -16.3372 C   0  0  0  0  0  0  0  0  0  0  0  0
   20.1880  -21.7069  -15.2027 C   0  0  0  0  0  0  0  0  0  0  0  0
   21.5038  -22.0156  -14.6226 C   0  0  0  0  0  0  0  0  0  0  0  0
   22.0456  -21.1583  -13.5383 C   0  0  2  0  0  0  0  0  0  0  0  0
   23.2984  -21.6424  -13.0016 N   0  0  0  0  0  0  0  0  0  0  0  0
   21.0978  -20.9708  -12.4301 C   0  0  0  0  0  0  0  0  0  0  0  0
   21.3204  -21.4733  -11.2942 O   0  0  0  0  0  0  0  0  0  0  0  0
   19.9243  -20.2462  -12.5644 O   0  0  0  0  0  0  0  0  0  0  0  0
  2  1  1  6
  2  3  1  0
  3  4  1  0
  4  5  1  0
  6  5  1  0
  7  6  1  0
  8  2  1  0
  8  9  2  0
 10  8  1  0
 11 16  1  0
 11 10  1  0
 11 12  1  1
 13 12  1  0
 14 18  1  0
 14 13  1  0
 15 14  2  0
 16 27  1  0
 17 16  2  0
 20 22  1  0
 20 19  1  0
 21 20  2  0
 23 22  1  0
 23 24  1  0
 25 24  1  0
 26 25  1  6
 26 28  1  0
 27 26  1  0
 28 29  2  0
 28 30  1  0
M  END
$$$$
