KER.pdb
     RDKit          3D

 30 29  0  0  1  0  0  0  0  0999 V2000
   28.6173  -21.3060  -14.9790 N   0  0  0  0  0  0  0  0  0  0  0  0
   27.5276  -21.0316  -14.0867 C   0  0  1  0  0  0  0  0  0  0  0  0
   27.7871  -19.6942  -13.4320 C   0  0  0  0  0  0  0  0  0  0  0  0
   29.1713  -19.6229  -12.8950 C   0  0  0  0  0  0  0  0  0  0  0  0
   29.6426  -20.7887  -12.0887 C   0  0  0  0  0  0  0  0  0  0  0  0
   30.9700  -20.6088  -11.4395 C   0  0  0  0  0  0  0  0  0  0  0  0
   31.4026  -21.6996  -10.6307 N   0  0  0  0  0  0  0  0  0  0  0  0
   26.2603  -21.0467  -14.8450 C   0  0  0  0  0  0  0  0  0  0  0  0
   26.1280  -20.4721  -15.9621 O   0  0  0  0  0  0  0  0  0  0  0  0
   25.1419  -21.7338  -14.3012 N   0  0  0  0  0  0  0  0  0  0  0  0
   23.8891  -21.9017  -15.0303 C   0  0  1  0  0  0  0  0  0  0  0  0
   23.4578  -23.3220  -14.8725 C   0  0  0  0  0  0  0  0  0  0  0  0
   24.4832  -24.3624  -15.1380 C   0  0  0  0  0  0  0  0  0  0  0  0
   24.0592  -25.7593  -15.0206 C   0  0  0  0  0  0  0  0  0  0  0  0
   22.8846  -26.0638  -14.6186 O   0  0  0  0  0  0  0  0  0  0  0  0
   22.8977  -20.8733  -14.7022 C   0  0  0  0  0  0  0  0  0  0  0  0
   22.9417  -20.3227  -13.5488 O   0  0  0  0  0  0  0  0  0  0  0  0
   24.8542  -26.8646  -15.3225 O   0  0  0  0  0  0  0  0  0  0  0  0
   18.8903  -14.3628  -19.0356 N   0  0  0  0  0  0  0  0  0  0  0  0
   18.9720  -13.9910  -17.6590 C   0  0  0  0  0  0  0  0  0  0  0  0
   18.7405  -12.7691  -17.3755 N   0  0  0  0  0  0  0  0  0  0  0  0
   19.2962  -14.9779  -16.7149 N   0  0  0  0  0  0  0  0  0  0  0  0
   19.5708  -16.3368  -17.2005 C   0  0  0  0  0  0  0  0  0  0  0  0
   19.8120  -17.2690  -16.0458 C   0  0  0  0  0  0  0  0  0  0  0  0
   20.7854  -18.3519  -16.2522 C   0  0  0  0  0  0  0  0  0  0  0  0
   20.9619  -19.3879  -15.2037 C   0  0  2  0  0  0  0  0  0  0  0  0
   21.8816  -20.4361  -15.5875 N   0  0  0  0  0  0  0  0  0  0  0  0
   19.6925  -20.0021  -14.7875 C   0  0  0  0  0  0  0  0  0  0  0  0
   19.3989  -21.1805  -15.1307 O   0  0  0  0  0  0  0  0  0  0  0  0
   18.7592  -19.3359  -14.0096 O   0  0  0  0  0  0  0  0  0  0  0  0
  2  1  1  6
  2  3  1  0
  3  4  1  0
  4  5  1  0
  6  5  1  0
  7  6  1  0
  8  2  1  0
  8  9  2  0
 10  8  1  0
 11 16  1  0
 11 10  1  0
 11 12  1  1
 13 12  1  0
 14 18  1  0
 14 13  1  0
 15 14  2  0
 16 27  1  0
 17 16  2  0
 20 22  1  0
 20 19  1  0
 21 20  2  0
 23 22  1  0
 23 24  1  0
 25 24  1  0
 26 25  1  6
 26 28  1  0
 27 26  1  0
 28 29  2  0
 28 30  1  0
M  END
$$$$
