KER.pdb
     RDKit          3D

 30 29  0  0  1  0  0  0  0  0999 V2000
   26.8005  -19.8255  -18.2481 N   0  0  0  0  0  0  0  0  0  0  0  0
   27.3011  -19.9179  -16.9066 C   0  0  1  0  0  0  0  0  0  0  0  0
   28.5866  -19.1264  -16.8334 C   0  0  0  0  0  0  0  0  0  0  0  0
   28.7437  -18.2530  -18.0258 C   0  0  0  0  0  0  0  0  0  0  0  0
   28.9828  -18.9340  -19.3337 C   0  0  0  0  0  0  0  0  0  0  0  0
   29.1887  -18.0199  -20.4902 C   0  0  0  0  0  0  0  0  0  0  0  0
   29.3910  -18.6650  -21.7449 N   0  0  0  0  0  0  0  0  0  0  0  0
   26.2785  -19.4122  -15.9684 C   0  0  0  0  0  0  0  0  0  0  0  0
   26.4897  -19.2959  -14.7285 O   0  0  0  0  0  0  0  0  0  0  0  0
   25.0045  -19.0401  -16.4754 N   0  0  0  0  0  0  0  0  0  0  0  0
   23.9304  -18.5438  -15.6212 C   0  0  1  0  0  0  0  0  0  0  0  0
   23.5029  -17.2161  -16.1530 C   0  0  0  0  0  0  0  0  0  0  0  0
   23.8063  -16.9418  -17.5802 C   0  0  0  0  0  0  0  0  0  0  0  0
   23.4955  -15.6007  -18.0803 C   0  0  0  0  0  0  0  0  0  0  0  0
   22.6740  -14.8383  -17.4658 O   0  0  0  0  0  0  0  0  0  0  0  0
   22.8737  -19.5355  -15.4021 C   0  0  0  0  0  0  0  0  0  0  0  0
   22.5844  -20.3451  -16.3487 O   0  0  0  0  0  0  0  0  0  0  0  0
   24.0384  -15.0306  -19.2315 O   0  0  0  0  0  0  0  0  0  0  0  0
   19.2030  -23.7053   -8.4569 N   0  0  0  0  0  0  0  0  0  0  0  0
   18.5873  -24.3014   -9.5995 C   0  0  0  0  0  0  0  0  0  0  0  0
   17.8802  -25.3436   -9.3975 N   0  0  0  0  0  0  0  0  0  0  0  0
   18.7933  -23.7128  -10.8570 N   0  0  0  0  0  0  0  0  0  0  0  0
   19.8197  -22.6683  -10.9727 C   0  0  0  0  0  0  0  0  0  0  0  0
   19.9800  -22.2451  -12.4064 C   0  0  0  0  0  0  0  0  0  0  0  0
   20.9725  -21.1969  -12.6877 C   0  0  0  0  0  0  0  0  0  0  0  0
   21.0954  -20.6550  -14.0644 C   0  0  2  0  0  0  0  0  0  0  0  0
   22.1421  -19.6655  -14.1958 N   0  0  0  0  0  0  0  0  0  0  0  0
   19.8382  -20.0825  -14.5678 C   0  0  0  0  0  0  0  0  0  0  0  0
   19.6214  -18.8407  -14.5087 O   0  0  0  0  0  0  0  0  0  0  0  0
   18.8340  -20.8577  -15.1252 O   0  0  0  0  0  0  0  0  0  0  0  0
  2  1  1  6
  2  3  1  0
  3  4  1  0
  4  5  1  0
  6  5  1  0
  7  6  1  0
  8  2  1  0
  8  9  2  0
 10  8  1  0
 11 16  1  0
 11 10  1  0
 11 12  1  6
 13 12  1  0
 14 18  1  0
 14 13  1  0
 15 14  2  0
 16 27  1  0
 17 16  2  0
 20 22  1  0
 20 19  1  0
 21 20  2  0
 23 22  1  0
 23 24  1  0
 25 24  1  0
 26 25  1  1
 26 28  1  0
 27 26  1  0
 28 29  2  0
 28 30  1  0
M  END
$$$$
