KER.pdb
     RDKit          3D

 30 29  0  0  1  0  0  0  0  0999 V2000
   22.6467  -17.9846  -16.5401 N   0  0  0  0  0  0  0  0  0  0  0  0
   21.7910  -17.8642  -15.3946 C   0  0  1  0  0  0  0  0  0  0  0  0
   20.3592  -17.9384  -15.8729 C   0  0  0  0  0  0  0  0  0  0  0  0
   20.2690  -17.6639  -17.3310 C   0  0  0  0  0  0  0  0  0  0  0  0
   19.3810  -16.5389  -17.7517 C   0  0  0  0  0  0  0  0  0  0  0  0
   19.2613  -16.3487  -19.2232 C   0  0  0  0  0  0  0  0  0  0  0  0
   18.3417  -15.3395  -19.6316 N   0  0  0  0  0  0  0  0  0  0  0  0
   22.1146  -18.9341  -14.4293 C   0  0  0  0  0  0  0  0  0  0  0  0
   21.4490  -19.1220  -13.3723 O   0  0  0  0  0  0  0  0  0  0  0  0
   23.2175  -19.7894  -14.6952 N   0  0  0  0  0  0  0  0  0  0  0  0
   23.6786  -20.7989  -13.7476 C   0  0  1  0  0  0  0  0  0  0  0  0
   23.9589  -22.0484  -14.5147 C   0  0  0  0  0  0  0  0  0  0  0  0
   24.4878  -23.1999  -13.7410 C   0  0  0  0  0  0  0  0  0  0  0  0
   24.8291  -24.4078  -14.4957 C   0  0  0  0  0  0  0  0  0  0  0  0
   25.2547  -25.4592  -13.9065 O   0  0  0  0  0  0  0  0  0  0  0  0
   24.7480  -20.3110  -12.8722 C   0  0  0  0  0  0  0  0  0  0  0  0
   25.7531  -19.7216  -13.3992 O   0  0  0  0  0  0  0  0  0  0  0  0
   24.7309  -24.5401  -15.8806 O   0  0  0  0  0  0  0  0  0  0  0  0
   28.1897  -17.5677   -5.8590 N   0  0  0  0  0  0  0  0  0  0  0  0
   28.7340  -18.8791   -5.7040 C   0  0  0  0  0  0  0  0  0  0  0  0
   29.5038  -19.0711   -4.7052 N   0  0  0  0  0  0  0  0  0  0  0  0
   28.3933  -19.8632   -6.6451 N   0  0  0  0  0  0  0  0  0  0  0  0
   27.1173  -19.7255   -7.3596 C   0  0  0  0  0  0  0  0  0  0  0  0
   26.9718  -20.8106   -8.3900 C   0  0  0  0  0  0  0  0  0  0  0  0
   25.7977  -20.7418   -9.2730 C   0  0  0  0  0  0  0  0  0  0  0  0
   25.9798  -20.4140  -10.7095 C   0  0  2  0  0  0  0  0  0  0  0  0
   24.7448  -20.4441  -11.4617 N   0  0  0  0  0  0  0  0  0  0  0  0
   26.9596  -21.2851  -11.3750 C   0  0  0  0  0  0  0  0  0  0  0  0
   26.7071  -22.5036  -11.5849 O   0  0  0  0  0  0  0  0  0  0  0  0
   28.1966  -20.8295  -11.8020 O   0  0  0  0  0  0  0  0  0  0  0  0
  2  1  1  6
  2  3  1  0
  3  4  1  0
  4  5  1  0
  6  5  1  0
  7  6  1  0
  8  2  1  0
  8  9  2  0
 10  8  1  0
 11 16  1  0
 11 10  1  0
 11 12  1  6
 13 12  1  0
 14 18  1  0
 14 13  1  0
 15 14  2  0
 16 27  1  0
 17 16  2  0
 20 22  1  0
 20 19  1  0
 21 20  2  0
 23 22  1  0
 23 24  1  0
 25 24  1  0
 26 25  1  1
 26 28  1  0
 27 26  1  0
 28 29  2  0
 28 30  1  0
M  END
$$$$
