KER.pdb
     RDKit          3D

 30 29  0  0  1  0  0  0  0  0999 V2000
   28.3534  -20.3927  -16.3113 N   0  0  0  0  0  0  0  0  0  0  0  0
   27.1522  -19.6088  -16.3495 C   0  0  1  0  0  0  0  0  0  0  0  0
   26.7248  -19.4815  -17.7937 C   0  0  0  0  0  0  0  0  0  0  0  0
   27.6113  -18.5437  -18.5315 C   0  0  0  0  0  0  0  0  0  0  0  0
   29.0789  -18.8158  -18.4726 C   0  0  0  0  0  0  0  0  0  0  0  0
   29.9257  -17.8684  -19.2478 C   0  0  0  0  0  0  0  0  0  0  0  0
   31.3284  -18.1092  -19.1746 N   0  0  0  0  0  0  0  0  0  0  0  0
   26.1199  -20.2570  -15.5156 C   0  0  0  0  0  0  0  0  0  0  0  0
   25.0976  -20.8129  -16.0069 O   0  0  0  0  0  0  0  0  0  0  0  0
   26.2778  -20.2584  -14.1036 N   0  0  0  0  0  0  0  0  0  0  0  0
   25.3220  -20.8963  -13.2041 C   0  0  1  0  0  0  0  0  0  0  0  0
   25.8205  -20.7162  -11.8087 C   0  0  0  0  0  0  0  0  0  0  0  0
   24.9862  -21.2925  -10.7243 C   0  0  0  0  0  0  0  0  0  0  0  0
   25.4899  -21.1594   -9.3555 C   0  0  0  0  0  0  0  0  0  0  0  0
   26.7356  -21.2759   -9.0935 O   0  0  0  0  0  0  0  0  0  0  0  0
   23.9377  -20.4913  -13.4651 C   0  0  0  0  0  0  0  0  0  0  0  0
   23.6511  -19.2450  -13.4640 O   0  0  0  0  0  0  0  0  0  0  0  0
   24.7015  -20.9007   -8.2346 O   0  0  0  0  0  0  0  0  0  0  0  0
   16.4898  -20.5918  -16.2826 N   0  0  0  0  0  0  0  0  0  0  0  0
   17.1368  -19.6413  -17.1299 C   0  0  0  0  0  0  0  0  0  0  0  0
   16.4616  -18.6123  -17.4655 N   0  0  0  0  0  0  0  0  0  0  0  0
   18.4569  -19.8920  -17.5354 N   0  0  0  0  0  0  0  0  0  0  0  0
   19.1364  -21.0739  -16.9885 C   0  0  0  0  0  0  0  0  0  0  0  0
   19.6074  -20.8075  -15.5858 C   0  0  0  0  0  0  0  0  0  0  0  0
   21.0168  -21.1017  -15.2861 C   0  0  0  0  0  0  0  0  0  0  0  0
   21.5238  -20.9242  -13.9020 C   0  0  2  0  0  0  0  0  0  0  0  0
   22.8797  -21.3964  -13.7271 N   0  0  0  0  0  0  0  0  0  0  0  0
   20.6669  -21.5637  -12.8928 C   0  0  0  0  0  0  0  0  0  0  0  0
   20.9932  -22.6640  -12.3680 O   0  0  0  0  0  0  0  0  0  0  0  0
   19.4712  -21.0080  -12.4668 O   0  0  0  0  0  0  0  0  0  0  0  0
  2  1  1  6
  2  3  1  0
  3  4  1  0
  4  5  1  0
  6  5  1  0
  7  6  1  0
  8  2  1  0
  8  9  2  0
 10  8  1  0
 11 16  1  0
 11 10  1  0
 11 12  1  1
 13 12  1  0
 14 18  1  0
 14 13  1  0
 15 14  2  0
 16 27  1  0
 17 16  2  0
 20 22  1  0
 20 19  1  0
 21 20  2  0
 23 22  1  0
 23 24  1  0
 25 24  1  0
 26 25  1  6
 26 28  1  0
 27 26  1  0
 28 29  2  0
 28 30  1  0
M  END
$$$$
