KER.pdb
     RDKit          3D

 30 29  0  0  1  0  0  0  0  0999 V2000
   28.0322  -19.5584  -17.6333 N   0  0  0  0  0  0  0  0  0  0  0  0
   26.8057  -19.5475  -18.3779 C   0  0  1  0  0  0  0  0  0  0  0  0
   26.4082  -20.9815  -18.6420 C   0  0  0  0  0  0  0  0  0  0  0  0
   27.4692  -21.9205  -18.1924 C   0  0  0  0  0  0  0  0  0  0  0  0
   27.2420  -23.3725  -18.4597 C   0  0  0  0  0  0  0  0  0  0  0  0
   28.3831  -24.2622  -18.1102 C   0  0  0  0  0  0  0  0  0  0  0  0
   28.0212  -25.5181  -17.5418 N   0  0  0  0  0  0  0  0  0  0  0  0
   25.7772  -18.8135  -17.6131 C   0  0  0  0  0  0  0  0  0  0  0  0
   25.9281  -17.6146  -17.2453 O   0  0  0  0  0  0  0  0  0  0  0  0
   24.5676  -19.4777  -17.2749 N   0  0  0  0  0  0  0  0  0  0  0  0
   23.4476  -18.7973  -16.6329 C   0  0  1  0  0  0  0  0  0  0  0  0
   22.5023  -18.3663  -17.7047 C   0  0  0  0  0  0  0  0  0  0  0  0
   21.2140  -17.7781  -17.2590 C   0  0  0  0  0  0  0  0  0  0  0  0
   20.2385  -17.4472  -18.3000 C   0  0  0  0  0  0  0  0  0  0  0  0
   20.5928  -16.8552  -19.3761 O   0  0  0  0  0  0  0  0  0  0  0  0
   22.8767  -19.5648  -15.5224 C   0  0  0  0  0  0  0  0  0  0  0  0
   22.2211  -20.6310  -15.7849 O   0  0  0  0  0  0  0  0  0  0  0  0
   18.8742  -17.7298  -18.2368 O   0  0  0  0  0  0  0  0  0  0  0  0
   23.8470  -21.5087   -7.4422 N   0  0  0  0  0  0  0  0  0  0  0  0
   24.2014  -20.4776   -8.3648 C   0  0  0  0  0  0  0  0  0  0  0  0
   25.2128  -19.7592   -8.0682 N   0  0  0  0  0  0  0  0  0  0  0  0
   23.4280  -20.3200   -9.5255 N   0  0  0  0  0  0  0  0  0  0  0  0
   22.0801  -19.7527   -9.3873 C   0  0  0  0  0  0  0  0  0  0  0  0
   21.4063  -19.6653  -10.7285 C   0  0  0  0  0  0  0  0  0  0  0  0
   22.2062  -19.1416  -11.8461 C   0  0  0  0  0  0  0  0  0  0  0  0
   22.2286  -19.8743  -13.1371 C   0  0  2  0  0  0  0  0  0  0  0  0
   23.0057  -19.2063  -14.1578 N   0  0  0  0  0  0  0  0  0  0  0  0
   20.8832  -20.1410  -13.6667 C   0  0  0  0  0  0  0  0  0  0  0  0
   20.1812  -19.2116  -14.1521 O   0  0  0  0  0  0  0  0  0  0  0  0
   20.3153  -21.4050  -13.6628 O   0  0  0  0  0  0  0  0  0  0  0  0
  2  1  1  1
  2  3  1  0
  3  4  1  0
  4  5  1  0
  6  5  1  0
  7  6  1  0
  8  2  1  0
  8  9  2  0
 10  8  1  0
 11 16  1  0
 11 10  1  0
 11 12  1  6
 13 12  1  0
 14 18  1  0
 14 13  1  0
 15 14  2  0
 16 27  1  0
 17 16  2  0
 20 22  1  0
 20 19  1  0
 21 20  2  0
 23 22  1  0
 23 24  1  0
 25 24  1  0
 26 25  1  1
 26 28  1  0
 27 26  1  0
 28 29  2  0
 28 30  1  0
M  END
$$$$
