KER.pdb
     RDKit          3D

 30 29  0  0  1  0  0  0  0  0999 V2000
   23.0369  -20.2453  -18.3756 N   0  0  0  0  0  0  0  0  0  0  0  0
   22.8121  -21.4278  -17.5945 C   0  0  1  0  0  0  0  0  0  0  0  0
   22.8246  -22.6141  -18.5310 C   0  0  0  0  0  0  0  0  0  0  0  0
   22.9734  -22.1766  -19.9438 C   0  0  0  0  0  0  0  0  0  0  0  0
   21.7428  -21.6789  -20.6288 C   0  0  0  0  0  0  0  0  0  0  0  0
   21.8970  -21.4154  -22.0857 C   0  0  0  0  0  0  0  0  0  0  0  0
   20.7729  -20.8051  -22.7141 N   0  0  0  0  0  0  0  0  0  0  0  0
   23.8523  -21.5281  -16.5508 C   0  0  0  0  0  0  0  0  0  0  0  0
   23.9668  -22.5359  -15.7979 O   0  0  0  0  0  0  0  0  0  0  0  0
   24.7633  -20.4510  -16.3824 N   0  0  0  0  0  0  0  0  0  0  0  0
   25.8089  -20.4547  -15.3644 C   0  0  1  0  0  0  0  0  0  0  0  0
   26.9319  -19.6069  -15.8627 C   0  0  0  0  0  0  0  0  0  0  0  0
   27.5811  -20.0378  -17.1265 C   0  0  0  0  0  0  0  0  0  0  0  0
   28.6973  -19.2233  -17.6121 C   0  0  0  0  0  0  0  0  0  0  0  0
   29.8895  -19.6833  -17.6419 O   0  0  0  0  0  0  0  0  0  0  0  0
   25.2993  -20.1496  -14.0245 C   0  0  0  0  0  0  0  0  0  0  0  0
   24.5407  -19.1314  -13.8723 O   0  0  0  0  0  0  0  0  0  0  0  0
   28.5884  -17.9130  -18.0771 O   0  0  0  0  0  0  0  0  0  0  0  0
   18.3661  -20.9362  -11.9940 N   0  0  0  0  0  0  0  0  0  0  0  0
   18.7313  -20.9031  -10.6137 C   0  0  0  0  0  0  0  0  0  0  0  0
   17.7801  -20.8595   -9.7649 N   0  0  0  0  0  0  0  0  0  0  0  0
   20.0943  -20.9217  -10.2789 N   0  0  0  0  0  0  0  0  0  0  0  0
   21.0551  -21.3326  -11.3113 C   0  0  0  0  0  0  0  0  0  0  0  0
   22.4561  -21.3049  -10.7665 C   0  0  0  0  0  0  0  0  0  0  0  0
   23.5461  -21.6019  -11.7081 C   0  0  0  0  0  0  0  0  0  0  0  0
   24.7875  -20.7884  -11.6718 C   0  0  2  0  0  0  0  0  0  0  0  0
   25.5883  -20.9172  -12.8692 N   0  0  0  0  0  0  0  0  0  0  0  0
   25.6314  -21.0848  -10.5049 C   0  0  0  0  0  0  0  0  0  0  0  0
   26.6499  -21.8222  -10.6116 O   0  0  0  0  0  0  0  0  0  0  0  0
   25.3630  -20.5834   -9.2413 O   0  0  0  0  0  0  0  0  0  0  0  0
  2  1  1  6
  2  3  1  0
  3  4  1  0
  4  5  1  0
  6  5  1  0
  7  6  1  0
  8  2  1  0
  8  9  2  0
 10  8  1  0
 11 16  1  0
 11 10  1  0
 11 12  1  6
 13 12  1  0
 14 18  1  0
 14 13  1  0
 15 14  2  0
 16 27  1  0
 17 16  2  0
 20 22  1  0
 20 19  1  0
 21 20  2  0
 23 22  1  0
 23 24  1  0
 25 24  1  0
 26 25  1  6
 26 28  1  0
 27 26  1  0
 28 29  2  0
 28 30  1  0
M  END
$$$$
