KER.pdb
     RDKit          3D

 30 29  0  0  1  0  0  0  0  0999 V2000
   23.6416  -24.6987  -15.8550 N   0  0  0  0  0  0  0  0  0  0  0  0
   22.2944  -25.1033  -15.5721 C   0  0  1  0  0  0  0  0  0  0  0  0
   22.2782  -26.6088  -15.4393 C   0  0  0  0  0  0  0  0  0  0  0  0
   22.3127  -27.2623  -16.7740 C   0  0  0  0  0  0  0  0  0  0  0  0
   22.1409  -28.7459  -16.8030 C   0  0  0  0  0  0  0  0  0  0  0  0
   22.1338  -29.3516  -18.1627 C   0  0  0  0  0  0  0  0  0  0  0  0
   21.9573  -30.7654  -18.1960 N   0  0  0  0  0  0  0  0  0  0  0  0
   21.8301  -24.4283  -14.3432 C   0  0  0  0  0  0  0  0  0  0  0  0
   22.6015  -24.1633  -13.3787 O   0  0  0  0  0  0  0  0  0  0  0  0
   20.4621  -24.0599  -14.2361 N   0  0  0  0  0  0  0  0  0  0  0  0
   19.9036  -23.4416  -13.0380 C   0  0  1  0  0  0  0  0  0  0  0  0
   19.5643  -22.0270  -13.3723 C   0  0  0  0  0  0  0  0  0  0  0  0
   20.7047  -21.1117  -13.6289 C   0  0  0  0  0  0  0  0  0  0  0  0
   20.3872  -19.6992  -13.8500 C   0  0  0  0  0  0  0  0  0  0  0  0
   21.3064  -18.8417  -14.0819 O   0  0  0  0  0  0  0  0  0  0  0  0
   18.8421  -24.2453  -12.4253 C   0  0  0  0  0  0  0  0  0  0  0  0
   18.1146  -24.9796  -13.1783 O   0  0  0  0  0  0  0  0  0  0  0  0
   19.1027  -19.1561  -13.8343 O   0  0  0  0  0  0  0  0  0  0  0  0
   17.6224  -25.7735   -4.1794 N   0  0  0  0  0  0  0  0  0  0  0  0
   18.2224  -26.6305   -5.1517 C   0  0  0  0  0  0  0  0  0  0  0  0
   18.9917  -27.5498   -4.7158 N   0  0  0  0  0  0  0  0  0  0  0  0
   17.9329  -26.4138   -6.5080 N   0  0  0  0  0  0  0  0  0  0  0  0
   16.5416  -26.1268   -6.8815 C   0  0  0  0  0  0  0  0  0  0  0  0
   16.4218  -25.9540   -8.3702 C   0  0  0  0  0  0  0  0  0  0  0  0
   17.5097  -25.2347   -9.0499 C   0  0  0  0  0  0  0  0  0  0  0  0
   17.4396  -25.0174  -10.5169 C   0  0  2  0  0  0  0  0  0  0  0  0
   18.5636  -24.2700  -11.0364 N   0  0  0  0  0  0  0  0  0  0  0  0
   16.1965  -24.3550  -10.9381 C   0  0  0  0  0  0  0  0  0  0  0  0
   16.1797  -23.1244  -11.2171 O   0  0  0  0  0  0  0  0  0  0  0  0
   14.9910  -25.0290  -11.0500 O   0  0  0  0  0  0  0  0  0  0  0  0
  2  1  1  1
  2  3  1  0
  3  4  1  0
  4  5  1  0
  6  5  1  0
  7  6  1  0
  8  2  1  0
  8  9  2  0
 10  8  1  0
 11 16  1  0
 11 10  1  0
 11 12  1  6
 13 12  1  0
 14 18  1  0
 14 13  1  0
 15 14  2  0
 16 27  1  0
 17 16  2  0
 20 22  1  0
 20 19  1  0
 21 20  2  0
 23 22  1  0
 23 24  1  0
 25 24  1  0
 26 25  1  1
 26 28  1  0
 27 26  1  0
 28 29  2  0
 28 30  1  0
M  END
$$$$
