KER.pdb
     RDKit          3D

 30 29  0  0  1  0  0  0  0  0999 V2000
   29.8403  -25.4573  -16.2496 N   0  0  0  0  0  0  0  0  0  0  0  0
   29.7073  -24.3721  -17.1789 C   0  0  1  0  0  0  0  0  0  0  0  0
   29.1153  -24.9222  -18.4560 C   0  0  0  0  0  0  0  0  0  0  0  0
   27.7081  -25.3540  -18.2488 C   0  0  0  0  0  0  0  0  0  0  0  0
   27.0099  -25.9622  -19.4210 C   0  0  0  0  0  0  0  0  0  0  0  0
   26.7568  -25.0312  -20.5546 C   0  0  0  0  0  0  0  0  0  0  0  0
   26.0316  -25.5890  -21.6474 N   0  0  0  0  0  0  0  0  0  0  0  0
   28.8641  -23.3176  -16.5801 C   0  0  0  0  0  0  0  0  0  0  0  0
   28.3693  -23.4167  -15.4222 O   0  0  0  0  0  0  0  0  0  0  0  0
   28.5956  -22.1424  -17.3321 N   0  0  0  0  0  0  0  0  0  0  0  0
   27.9455  -20.9696  -16.7565 C   0  0  1  0  0  0  0  0  0  0  0  0
   28.4813  -19.7639  -17.4547 C   0  0  0  0  0  0  0  0  0  0  0  0
   27.8883  -18.4568  -17.0756 C   0  0  0  0  0  0  0  0  0  0  0  0
   28.4324  -17.2648  -17.7299 C   0  0  0  0  0  0  0  0  0  0  0  0
   28.7576  -17.2776  -18.9660 O   0  0  0  0  0  0  0  0  0  0  0  0
   26.4869  -21.1002  -16.6957 C   0  0  0  0  0  0  0  0  0  0  0  0
   25.8733  -21.6121  -17.6942 O   0  0  0  0  0  0  0  0  0  0  0  0
   28.6457  -16.0363  -17.1050 O   0  0  0  0  0  0  0  0  0  0  0  0
   19.2129  -21.3655  -13.9191 N   0  0  0  0  0  0  0  0  0  0  0  0
   19.7810  -22.1359  -12.8591 C   0  0  0  0  0  0  0  0  0  0  0  0
   19.1895  -23.2240  -12.5540 N   0  0  0  0  0  0  0  0  0  0  0  0
   20.9392  -21.6572  -12.2270 N   0  0  0  0  0  0  0  0  0  0  0  0
   21.5893  -20.4638  -12.7848 C   0  0  0  0  0  0  0  0  0  0  0  0
   22.1744  -20.7670  -14.1362 C   0  0  0  0  0  0  0  0  0  0  0  0
   23.6269  -20.5955  -14.2901 C   0  0  0  0  0  0  0  0  0  0  0  0
   24.2595  -20.8542  -15.6080 C   0  0  2  0  0  0  0  0  0  0  0  0
   25.6972  -20.6976  -15.5905 N   0  0  0  0  0  0  0  0  0  0  0  0
   23.7060  -20.0166  -16.6821 C   0  0  0  0  0  0  0  0  0  0  0  0
   24.1657  -18.8631  -16.9073 O   0  0  0  0  0  0  0  0  0  0  0  0
   22.6648  -20.4347  -17.4951 O   0  0  0  0  0  0  0  0  0  0  0  0
  2  1  1  1
  2  3  1  0
  3  4  1  0
  4  5  1  0
  6  5  1  0
  7  6  1  0
  8  2  1  0
  8  9  2  0
 10  8  1  0
 11 16  1  0
 11 10  1  0
 11 12  1  6
 13 12  1  0
 14 18  1  0
 14 13  1  0
 15 14  2  0
 16 27  1  0
 17 16  2  0
 20 22  1  0
 20 19  1  0
 21 20  2  0
 23 22  1  0
 23 24  1  0
 25 24  1  0
 26 25  1  1
 26 28  1  0
 27 26  1  0
 28 29  2  0
 28 30  1  0
M  END
$$$$
