PWI.pdb
     RDKit          3D

 30 32  0  0  1  0  0  0  0  0999 V2000
   30.1135  -22.2013  -18.0524 N   0  0  0  0  0  0  0  0  0  0  0  0
   31.1503  -23.2267  -17.9617 C   0  0  0  0  0  0  0  0  0  0  0  0
   30.4986  -24.4200  -17.2441 C   0  0  0  0  0  0  0  0  0  0  0  0
   29.4836  -23.6987  -16.3595 C   0  0  0  0  0  0  0  0  0  0  0  0
   28.9435  -22.6985  -17.3964 C   0  0  1  0  0  0  0  0  0  0  0  0
   28.0681  -21.6827  -16.7783 C   0  0  0  0  0  0  0  0  0  0  0  0
   28.6690  -20.7198  -16.2018 O   0  0  0  0  0  0  0  0  0  0  0  0
   26.6459  -21.7703  -16.8184 N   0  0  0  0  0  0  0  0  0  0  0  0
   25.8217  -20.7388  -16.1659 C   0  0  1  0  0  0  0  0  0  0  0  0
   24.6807  -20.4944  -17.0806 C   0  0  0  0  0  0  0  0  0  0  0  0
   23.6121  -19.5996  -16.6187 C   0  0  0  0  0  0  0  0  0  0  0  0
   23.8090  -18.2889  -16.1147 C   0  0  0  0  0  0  0  0  0  0  0  0
   22.6388  -17.7857  -15.7380 N   0  0  0  0  0  0  0  0  0  0  0  0
   21.6309  -18.6646  -15.9477 C   0  0  0  0  0  0  0  0  0  0  0  0
   20.2742  -18.5848  -15.7215 C   0  0  0  0  0  0  0  0  0  0  0  0
   19.4615  -19.6305  -16.0379 C   0  0  0  0  0  0  0  0  0  0  0  0
   20.0610  -20.7772  -16.6008 C   0  0  0  0  0  0  0  0  0  0  0  0
   21.3999  -20.8273  -16.8117 C   0  0  0  0  0  0  0  0  0  0  0  0
   22.2541  -19.7886  -16.4999 C   0  0  0  0  0  0  0  0  0  0  0  0
   25.3934  -21.3559  -14.8339 C   0  0  0  0  0  0  0  0  0  0  0  0
   25.3757  -22.5832  -14.7882 O   0  0  0  0  0  0  0  0  0  0  0  0
   26.1885  -20.8160   -8.9617 C   0  0  0  0  0  0  0  0  0  0  0  0
   25.1792  -21.2380  -10.0226 C   0  0  0  0  0  0  0  0  0  0  0  0
   25.5977  -20.5904  -11.3262 C   0  0  2  0  0  0  0  0  0  0  0  0
   25.7447  -19.1083  -11.1049 C   0  0  0  0  0  0  0  0  0  0  0  0
   24.6296  -20.9086  -12.4495 C   0  0  2  0  0  0  0  0  0  0  0  0
   25.0500  -20.5618  -13.7476 N   0  0  0  0  0  0  0  0  0  0  0  0
   23.2410  -20.6981  -12.0126 C   0  0  0  0  0  0  0  0  0  0  0  0
   22.6824  -21.7703  -11.2557 O   0  0  0  0  0  0  0  0  0  0  0  0
   22.5058  -19.7163  -12.2177 O   0  0  0  0  0  0  0  0  0  0  0  0
  1  2  1  0
  3  2  1  0
  4  3  1  0
  5  4  1  0
  5  1  1  0
  5  6  1  1
  7  6  2  0
  8  6  1  0
  9  8  1  0
 10 11  1  0
  9 10  1  6
 11 12  2  0
 13 12  1  0
 14 13  1  0
 15 14  2  0
 16 15  1  0
 17 18  1  0
 17 16  2  0
 18 19  2  0
 19 14  1  0
 19 11  1  0
 20  9  1  0
 20 27  1  0
 21 20  2  0
 23 22  1  0
 24 23  1  0
 24 26  1  0
 24 25  1  1
 26 28  1  0
 26 27  1  6
 28 29  1  0
 30 28  2  0
M  END
$$$$
