PWI.pdb
     RDKit          3D

 30 32  0  0  1  0  0  0  0  0999 V2000
   28.4530  -21.0784  -15.0731 N   0  0  0  0  0  0  0  0  0  0  0  0
   28.6492  -21.0186  -16.5196 C   0  0  0  0  0  0  0  0  0  0  0  0
   28.5755  -19.5287  -16.8918 C   0  0  0  0  0  0  0  0  0  0  0  0
   27.6194  -19.0152  -15.8169 C   0  0  0  0  0  0  0  0  0  0  0  0
   28.2209  -19.7469  -14.6045 C   0  0  1  0  0  0  0  0  0  0  0  0
   27.3666  -19.6230  -13.4065 C   0  0  0  0  0  0  0  0  0  0  0  0
   27.1154  -18.4320  -13.0340 O   0  0  0  0  0  0  0  0  0  0  0  0
   26.8574  -20.7565  -12.7082 N   0  0  0  0  0  0  0  0  0  0  0  0
   25.8506  -20.5821  -11.6476 C   0  0  1  0  0  0  0  0  0  0  0  0
   24.6856  -21.4028  -12.0569 C   0  0  0  0  0  0  0  0  0  0  0  0
   23.8567  -20.9111  -13.1646 C   0  0  0  0  0  0  0  0  0  0  0  0
   24.1024  -21.1613  -14.5386 C   0  0  0  0  0  0  0  0  0  0  0  0
   23.1934  -20.5238  -15.2678 N   0  0  0  0  0  0  0  0  0  0  0  0
   22.3230  -19.8407  -14.4881 C   0  0  0  0  0  0  0  0  0  0  0  0
   21.2328  -19.0545  -14.7909 C   0  0  0  0  0  0  0  0  0  0  0  0
   20.5037  -18.4772  -13.7963 C   0  0  0  0  0  0  0  0  0  0  0  0
   20.9063  -18.7191  -12.4658 C   0  0  0  0  0  0  0  0  0  0  0  0
   21.9843  -19.4975  -12.1979 C   0  0  0  0  0  0  0  0  0  0  0  0
   22.7485  -20.0953  -13.1801 C   0  0  0  0  0  0  0  0  0  0  0  0
   26.5216  -21.0972  -10.3736 C   0  0  0  0  0  0  0  0  0  0  0  0
   27.0609  -22.1978  -10.4545 O   0  0  0  0  0  0  0  0  0  0  0  0
   28.9354  -18.4670   -6.2116 C   0  0  0  0  0  0  0  0  0  0  0  0
   28.4277  -19.4797   -7.2309 C   0  0  0  0  0  0  0  0  0  0  0  0
   27.0220  -19.8666   -6.8206 C   0  0  2  0  0  0  0  0  0  0  0  0
   27.0770  -20.5267   -5.4684 C   0  0  0  0  0  0  0  0  0  0  0  0
   26.3535  -20.7454   -7.8603 C   0  0  2  0  0  0  0  0  0  0  0  0
   26.5153  -20.3515   -9.2022 N   0  0  0  0  0  0  0  0  0  0  0  0
   25.0662  -21.2520   -7.3609 C   0  0  0  0  0  0  0  0  0  0  0  0
   23.9243  -20.8089   -8.0918 O   0  0  0  0  0  0  0  0  0  0  0  0
   24.8537  -22.0072   -6.3961 O   0  0  0  0  0  0  0  0  0  0  0  0
  1  2  1  0
  3  2  1  0
  4  3  1  0
  5  4  1  0
  5  1  1  0
  5  6  1  1
  7  6  2  0
  8  6  1  0
  9  8  1  0
 10 11  1  0
  9 10  1  6
 11 12  2  0
 13 12  1  0
 14 13  1  0
 15 14  2  0
 16 15  1  0
 17 18  1  0
 17 16  2  0
 18 19  2  0
 19 14  1  0
 19 11  1  0
 20  9  1  0
 20 27  1  0
 21 20  2  0
 23 22  1  0
 24 23  1  0
 24 26  1  0
 24 25  1  1
 26 28  1  0
 26 27  1  6
 28 29  1  0
 30 28  2  0
M  END
$$$$
