PWI.pdb
     RDKit          3D

 30 32  0  0  1  0  0  0  0  0999 V2000
   29.5054  -19.9870  -11.1642 N   0  0  0  0  0  0  0  0  0  0  0  0
   30.9642  -19.9229  -11.1174 C   0  0  0  0  0  0  0  0  0  0  0  0
   31.4479  -21.3821  -11.1029 C   0  0  0  0  0  0  0  0  0  0  0  0
   30.2814  -22.0603  -10.3871 C   0  0  0  0  0  0  0  0  0  0  0  0
   29.1233  -21.3650  -11.1234 C   0  0  1  0  0  0  0  0  0  0  0  0
   27.8182  -21.6556  -10.4968 C   0  0  0  0  0  0  0  0  0  0  0  0
   27.4715  -22.8804  -10.4967 O   0  0  0  0  0  0  0  0  0  0  0  0
   26.9962  -20.6375   -9.9313 N   0  0  0  0  0  0  0  0  0  0  0  0
   25.6155  -20.9436   -9.5204 C   0  0  1  0  0  0  0  0  0  0  0  0
   25.5014  -20.4874   -8.1143 C   0  0  0  0  0  0  0  0  0  0  0  0
   26.7013  -19.9336   -7.4744 C   0  0  0  0  0  0  0  0  0  0  0  0
   27.6335  -19.0692   -8.1024 C   0  0  0  0  0  0  0  0  0  0  0  0
   28.6235  -18.8063   -7.2568 N   0  0  0  0  0  0  0  0  0  0  0  0
   28.4426  -19.4342   -6.0714 C   0  0  0  0  0  0  0  0  0  0  0  0
   29.1893  -19.4546   -4.9138 C   0  0  0  0  0  0  0  0  0  0  0  0
   28.7698  -20.1751   -3.8372 C   0  0  0  0  0  0  0  0  0  0  0  0
   27.5560  -20.8843   -3.9582 C   0  0  0  0  0  0  0  0  0  0  0  0
   26.8420  -20.8460   -5.1108 C   0  0  0  0  0  0  0  0  0  0  0  0
   27.2384  -20.1299   -6.2226 C   0  0  0  0  0  0  0  0  0  0  0  0
   24.7294  -20.1453  -10.4775 C   0  0  0  0  0  0  0  0  0  0  0  0
   25.0480  -18.9727  -10.6572 O   0  0  0  0  0  0  0  0  0  0  0  0
   23.0144  -19.5970  -15.8434 C   0  0  0  0  0  0  0  0  0  0  0  0
   22.3945  -19.4887  -14.4556 C   0  0  0  0  0  0  0  0  0  0  0  0
   23.2321  -20.3356  -13.5201 C   0  0  2  0  0  0  0  0  0  0  0  0
   23.2205  -21.7579  -14.0140 C   0  0  0  0  0  0  0  0  0  0  0  0
   22.7589  -20.2242  -12.0835 C   0  0  2  0  0  0  0  0  0  0  0  0
   23.6336  -20.7268  -11.1015 N   0  0  0  0  0  0  0  0  0  0  0  0
   21.3064  -20.4397  -11.9977 C   0  0  0  0  0  0  0  0  0  0  0  0
   20.9186  -21.6680  -11.3850 O   0  0  0  0  0  0  0  0  0  0  0  0
   20.3895  -19.6951  -12.3866 O   0  0  0  0  0  0  0  0  0  0  0  0
  1  2  1  0
  3  2  1  0
  4  3  1  0
  5  4  1  0
  5  1  1  0
  5  6  1  1
  7  6  2  0
  8  6  1  0
  9  8  1  0
 10 11  1  0
  9 10  1  1
 11 12  2  0
 13 12  1  0
 14 13  1  0
 15 14  2  0
 16 15  1  0
 17 18  1  0
 17 16  2  0
 18 19  2  0
 19 14  1  0
 19 11  1  0
 20  9  1  0
 20 27  1  0
 21 20  2  0
 23 22  1  0
 24 23  1  0
 24 26  1  0
 24 25  1  6
 26 28  1  0
 26 27  1  1
 28 29  1  0
 30 28  2  0
M  END
$$$$
