PWI.pdb
     RDKit          3D

 30 32  0  0  1  0  0  0  0  0999 V2000
   28.1694  -22.0578  -14.9138 N   0  0  0  0  0  0  0  0  0  0  0  0
   28.1125  -22.2420  -16.3620 C   0  0  0  0  0  0  0  0  0  0  0  0
   28.3635  -20.8533  -16.9718 C   0  0  0  0  0  0  0  0  0  0  0  0
   27.7821  -19.9557  -15.8812 C   0  0  0  0  0  0  0  0  0  0  0  0
   28.3794  -20.6667  -14.6545 C   0  0  1  0  0  0  0  0  0  0  0  0
   27.8153  -20.1524  -13.3905 C   0  0  0  0  0  0  0  0  0  0  0  0
   27.9039  -18.8936  -13.2235 O   0  0  0  0  0  0  0  0  0  0  0  0
   27.2139  -21.0033  -12.4178 N   0  0  0  0  0  0  0  0  0  0  0  0
   26.0814  -20.5199  -11.6099 C   0  0  1  0  0  0  0  0  0  0  0  0
   24.8641  -21.0820  -12.2427 C   0  0  0  0  0  0  0  0  0  0  0  0
   23.9749  -20.1579  -12.9578 C   0  0  0  0  0  0  0  0  0  0  0  0
   24.4058  -19.0797  -13.7717 C   0  0  0  0  0  0  0  0  0  0  0  0
   23.3439  -18.4183  -14.2182 N   0  0  0  0  0  0  0  0  0  0  0  0
   22.1921  -18.9677  -13.7670 C   0  0  0  0  0  0  0  0  0  0  0  0
   20.8701  -18.6351  -13.9666 C   0  0  0  0  0  0  0  0  0  0  0  0
   19.8807  -19.3743  -13.3932 C   0  0  0  0  0  0  0  0  0  0  0  0
   20.2643  -20.4781  -12.6023 C   0  0  0  0  0  0  0  0  0  0  0  0
   21.5741  -20.7814  -12.4232 C   0  0  0  0  0  0  0  0  0  0  0  0
   22.6030  -20.0527  -12.9855 C   0  0  0  0  0  0  0  0  0  0  0  0
   26.3299  -21.0726  -10.2058 C   0  0  0  0  0  0  0  0  0  0  0  0
   26.3629  -22.2963  -10.1052 O   0  0  0  0  0  0  0  0  0  0  0  0
   29.0016  -19.2320   -5.0139 C   0  0  0  0  0  0  0  0  0  0  0  0
   27.9714  -20.1683   -5.6338 C   0  0  0  0  0  0  0  0  0  0  0  0
   27.5750  -19.5801   -6.9721 C   0  0  2  0  0  0  0  0  0  0  0  0
   26.9489  -18.2304   -6.7410 C   0  0  0  0  0  0  0  0  0  0  0  0
   26.6619  -20.5099   -7.7478 C   0  0  2  0  0  0  0  0  0  0  0  0
   26.5086  -20.2275   -9.1186 N   0  0  0  0  0  0  0  0  0  0  0  0
   25.5200  -20.9257   -6.9193 C   0  0  0  0  0  0  0  0  0  0  0  0
   24.2469  -20.8062   -7.5512 O   0  0  0  0  0  0  0  0  0  0  0  0
   25.5272  -21.3622   -5.7549 O   0  0  0  0  0  0  0  0  0  0  0  0
  1  2  1  0
  3  2  1  0
  4  3  1  0
  5  4  1  0
  5  1  1  0
  5  6  1  1
  7  6  2  0
  8  6  1  0
  9  8  1  0
 10 11  1  0
  9 10  1  6
 11 12  2  0
 13 12  1  0
 14 13  1  0
 15 14  2  0
 16 15  1  0
 17 18  1  0
 17 16  2  0
 18 19  2  0
 19 14  1  0
 19 11  1  0
 20  9  1  0
 20 27  1  0
 21 20  2  0
 23 22  1  0
 24 23  1  0
 24 26  1  0
 24 25  1  1
 26 28  1  0
 26 27  1  6
 28 29  1  0
 30 28  2  0
M  END
$$$$
