PWI.pdb
     RDKit          3D

 30 32  0  0  1  0  0  0  0  0999 V2000
   28.6870  -23.1530  -16.7247 N   0  0  0  0  0  0  0  0  0  0  0  0
   28.8132  -23.6507  -18.0925 C   0  0  0  0  0  0  0  0  0  0  0  0
   29.3619  -22.4753  -18.9177 C   0  0  0  0  0  0  0  0  0  0  0  0
   28.7742  -21.2921  -18.1510 C   0  0  0  0  0  0  0  0  0  0  0  0
   29.0698  -21.7746  -16.7203 C   0  0  1  0  0  0  0  0  0  0  0  0
   28.4144  -20.9252  -15.7057 C   0  0  0  0  0  0  0  0  0  0  0  0
   28.7942  -19.7104  -15.6807 O   0  0  0  0  0  0  0  0  0  0  0  0
   27.4252  -21.4263  -14.8101 N   0  0  0  0  0  0  0  0  0  0  0  0
   26.3333  -20.5524  -14.3485 C   0  0  1  0  0  0  0  0  0  0  0  0
   25.3218  -20.5619  -15.4324 C   0  0  0  0  0  0  0  0  0  0  0  0
   24.1758  -19.6525  -15.3078 C   0  0  0  0  0  0  0  0  0  0  0  0
   24.2551  -18.2368  -15.3181 C   0  0  0  0  0  0  0  0  0  0  0  0
   23.0419  -17.7302  -15.1287 N   0  0  0  0  0  0  0  0  0  0  0  0
   22.1143  -18.7056  -14.9863 C   0  0  0  0  0  0  0  0  0  0  0  0
   20.7528  -18.6621  -14.7798 C   0  0  0  0  0  0  0  0  0  0  0  0
   20.0352  -19.8150  -14.6799 C   0  0  0  0  0  0  0  0  0  0  0  0
   20.7363  -21.0337  -14.7985 C   0  0  0  0  0  0  0  0  0  0  0  0
   22.0773  -21.0457  -15.0012 C   0  0  0  0  0  0  0  0  0  0  0  0
   22.8371  -19.8975  -15.1037 C   0  0  0  0  0  0  0  0  0  0  0  0
   25.8266  -21.1971  -13.0577 C   0  0  0  0  0  0  0  0  0  0  0  0
   25.6597  -22.4136  -13.0912 O   0  0  0  0  0  0  0  0  0  0  0  0
   27.7183  -19.4450   -8.3221 C   0  0  0  0  0  0  0  0  0  0  0  0
   27.1664  -20.3448   -9.4212 C   0  0  0  0  0  0  0  0  0  0  0  0
   25.6657  -20.1430   -9.4582 C   0  0  2  0  0  0  0  0  0  0  0  0
   25.0774  -20.6507   -8.1686 C   0  0  0  0  0  0  0  0  0  0  0  0
   25.0386  -20.8011  -10.6721 C   0  0  2  0  0  0  0  0  0  0  0  0
   25.5769  -20.4388  -11.9216 N   0  0  0  0  0  0  0  0  0  0  0  0
   23.5896  -20.9669  -10.4817 C   0  0  0  0  0  0  0  0  0  0  0  0
   22.7793  -20.0814  -11.2522 O   0  0  0  0  0  0  0  0  0  0  0  0
   22.9932  -21.7712   -9.7442 O   0  0  0  0  0  0  0  0  0  0  0  0
  1  2  1  0
  3  2  1  0
  4  3  1  0
  5  4  1  0
  5  1  1  0
  5  6  1  1
  7  6  2  0
  8  6  1  0
  9  8  1  0
 10 11  1  0
  9 10  1  6
 11 12  2  0
 13 12  1  0
 14 13  1  0
 15 14  2  0
 16 15  1  0
 17 18  1  0
 17 16  2  0
 18 19  2  0
 19 14  1  0
 19 11  1  0
 20  9  1  0
 20 27  1  0
 21 20  2  0
 23 22  1  0
 24 23  1  0
 24 26  1  0
 24 25  1  1
 26 28  1  0
 26 27  1  6
 28 29  1  0
 30 28  2  0
M  END
$$$$
