PWI.pdb
     RDKit          3D

 30 32  0  0  1  0  0  0  0  0999 V2000
   27.6234  -20.8384  -17.5817 N   0  0  0  0  0  0  0  0  0  0  0  0
   28.6962  -20.7924  -18.5724 C   0  0  0  0  0  0  0  0  0  0  0  0
   29.4160  -22.1473  -18.4746 C   0  0  0  0  0  0  0  0  0  0  0  0
   29.1966  -22.4789  -16.9998 C   0  0  0  0  0  0  0  0  0  0  0  0
   27.7118  -22.0899  -16.8943 C   0  0  1  0  0  0  0  0  0  0  0  0
   27.2392  -22.0937  -15.4953 C   0  0  0  0  0  0  0  0  0  0  0  0
   26.8367  -23.2188  -15.0565 O   0  0  0  0  0  0  0  0  0  0  0  0
   27.2288  -20.9197  -14.6870 N   0  0  0  0  0  0  0  0  0  0  0  0
   26.9132  -21.0117  -13.2514 C   0  0  1  0  0  0  0  0  0  0  0  0
   27.9632  -20.2299  -12.5554 C   0  0  0  0  0  0  0  0  0  0  0  0
   28.3885  -20.6856  -11.2260 C   0  0  0  0  0  0  0  0  0  0  0  0
   29.4747  -21.5618  -10.9747 C   0  0  0  0  0  0  0  0  0  0  0  0
   29.5445  -21.8081   -9.6713 N   0  0  0  0  0  0  0  0  0  0  0  0
   28.5721  -21.1568   -8.9913 C   0  0  0  0  0  0  0  0  0  0  0  0
   28.2585  -21.1058   -7.6507 C   0  0  0  0  0  0  0  0  0  0  0  0
   27.2125  -20.3493   -7.2173 C   0  0  0  0  0  0  0  0  0  0  0  0
   26.4800  -19.6307   -8.1858 C   0  0  0  0  0  0  0  0  0  0  0  0
   26.8118  -19.7004   -9.4991 C   0  0  0  0  0  0  0  0  0  0  0  0
   27.8625  -20.4594   -9.9746 C   0  0  0  0  0  0  0  0  0  0  0  0
   25.5212  -20.3945  -13.1099 C   0  0  0  0  0  0  0  0  0  0  0  0
   25.3826  -19.2640  -13.5698 O   0  0  0  0  0  0  0  0  0  0  0  0
   20.6190  -22.9591  -14.0017 C   0  0  0  0  0  0  0  0  0  0  0  0
   21.7794  -22.6425  -13.0660 C   0  0  0  0  0  0  0  0  0  0  0  0
   22.1198  -21.1781  -13.2491 C   0  0  2  0  0  0  0  0  0  0  0  0
   22.5717  -20.9602  -14.6687 C   0  0  0  0  0  0  0  0  0  0  0  0
   23.1516  -20.7093  -12.2412 C   0  0  2  0  0  0  0  0  0  0  0  0
   24.4841  -21.0852  -12.4971 N   0  0  0  0  0  0  0  0  0  0  0  0
   22.5963  -20.7368  -10.8795 C   0  0  0  0  0  0  0  0  0  0  0  0
   21.4489  -19.9123  -10.6841 O   0  0  0  0  0  0  0  0  0  0  0  0
   22.9968  -21.3801   -9.8935 O   0  0  0  0  0  0  0  0  0  0  0  0
  1  2  1  0
  3  2  1  0
  4  3  1  0
  5  4  1  0
  5  1  1  0
  5  6  1  1
  7  6  2  0
  8  6  1  0
  9  8  1  0
 10 11  1  0
  9 10  1  1
 11 12  2  0
 13 12  1  0
 14 13  1  0
 15 14  2  0
 16 15  1  0
 17 18  1  0
 17 16  2  0
 18 19  2  0
 19 14  1  0
 19 11  1  0
 20  9  1  0
 20 27  1  0
 21 20  2  0
 23 22  1  0
 24 23  1  0
 24 26  1  0
 24 25  1  6
 26 28  1  0
 26 27  1  1
 28 29  1  0
 30 28  2  0
M  END
$$$$
