PWI.pdb
     RDKit          3D

 30 32  0  0  1  0  0  0  0  0999 V2000
   27.5876  -19.8295  -16.6089 N   0  0  0  0  0  0  0  0  0  0  0  0
   28.8367  -19.8037  -17.3662 C   0  0  0  0  0  0  0  0  0  0  0  0
   29.2906  -21.2684  -17.4767 C   0  0  0  0  0  0  0  0  0  0  0  0
   28.7170  -21.8411  -16.1821 C   0  0  0  0  0  0  0  0  0  0  0  0
   27.3262  -21.1856  -16.2362 C   0  0  1  0  0  0  0  0  0  0  0  0
   26.5773  -21.3773  -14.9780 C   0  0  0  0  0  0  0  0  0  0  0  0
   25.9449  -22.4776  -14.8795 O   0  0  0  0  0  0  0  0  0  0  0  0
   26.5574  -20.3988  -13.9417 N   0  0  0  0  0  0  0  0  0  0  0  0
   25.8871  -20.6882  -12.6627 C   0  0  1  0  0  0  0  0  0  0  0  0
   26.7472  -20.0934  -11.6116 C   0  0  0  0  0  0  0  0  0  0  0  0
   26.5297  -20.5228  -10.2245 C   0  0  0  0  0  0  0  0  0  0  0  0
   26.1726  -21.8358   -9.8253 C   0  0  0  0  0  0  0  0  0  0  0  0
   26.0025  -21.8605   -8.5082 N   0  0  0  0  0  0  0  0  0  0  0  0
   26.2192  -20.6432   -7.9576 C   0  0  0  0  0  0  0  0  0  0  0  0
   26.1668  -20.1960   -6.6555 C   0  0  0  0  0  0  0  0  0  0  0  0
   26.4449  -18.8955   -6.3631 C   0  0  0  0  0  0  0  0  0  0  0  0
   26.7861  -18.0432   -7.4346 C   0  0  0  0  0  0  0  0  0  0  0  0
   26.8293  -18.5115   -8.7069 C   0  0  0  0  0  0  0  0  0  0  0  0
   26.5500  -19.8217   -9.0405 C   0  0  0  0  0  0  0  0  0  0  0  0
   24.5210  -20.0089  -12.7670 C   0  0  0  0  0  0  0  0  0  0  0  0
   24.5278  -18.8354  -13.1298 O   0  0  0  0  0  0  0  0  0  0  0  0
   21.1707  -19.7069  -16.3688 C   0  0  0  0  0  0  0  0  0  0  0  0
   21.5568  -19.3270  -14.9445 C   0  0  0  0  0  0  0  0  0  0  0  0
   21.4883  -20.5872  -14.1072 C   0  0  2  0  0  0  0  0  0  0  0  0
   20.0726  -21.0996  -14.1189 C   0  0  0  0  0  0  0  0  0  0  0  0
   22.0025  -20.3567  -12.6992 C   0  0  2  0  0  0  0  0  0  0  0  0
   23.3500  -20.6927  -12.4680 N   0  0  0  0  0  0  0  0  0  0  0  0
   20.9574  -20.6591  -11.7094 C   0  0  0  0  0  0  0  0  0  0  0  0
   21.3871  -21.4613  -10.6111 O   0  0  0  0  0  0  0  0  0  0  0  0
   19.7647  -20.3069  -11.7114 O   0  0  0  0  0  0  0  0  0  0  0  0
  1  2  1  0
  3  2  1  0
  4  3  1  0
  5  4  1  0
  5  1  1  0
  5  6  1  1
  7  6  2  0
  8  6  1  0
  9  8  1  0
 10 11  1  0
  9 10  1  1
 11 12  2  0
 13 12  1  0
 14 13  1  0
 15 14  2  0
 16 15  1  0
 17 18  1  0
 17 16  2  0
 18 19  2  0
 19 14  1  0
 19 11  1  0
 20  9  1  0
 20 27  1  0
 21 20  2  0
 23 22  1  0
 24 23  1  0
 24 26  1  0
 24 25  1  1
 26 28  1  0
 26 27  1  1
 28 29  1  0
 30 28  2  0
M  END
$$$$
