PWI.pdb
     RDKit          3D

 30 32  0  0  1  0  0  0  0  0999 V2000
   27.0013  -20.8156  -16.3833 N   0  0  0  0  0  0  0  0  0  0  0  0
   27.9909  -20.6294  -17.4418 C   0  0  0  0  0  0  0  0  0  0  0  0
   28.9600  -21.8171  -17.3237 C   0  0  0  0  0  0  0  0  0  0  0  0
   28.8872  -22.0940  -15.8233 C   0  0  0  0  0  0  0  0  0  0  0  0
   27.3633  -21.9844  -15.6422 C   0  0  1  0  0  0  0  0  0  0  0  0
   26.9757  -21.9921  -14.2174 C   0  0  0  0  0  0  0  0  0  0  0  0
   27.3054  -23.0349  -13.5659 O   0  0  0  0  0  0  0  0  0  0  0  0
   26.2768  -20.9097  -13.6077 N   0  0  0  0  0  0  0  0  0  0  0  0
   25.9737  -20.9417  -12.1669 C   0  0  1  0  0  0  0  0  0  0  0  0
   26.7002  -19.7927  -11.5750 C   0  0  0  0  0  0  0  0  0  0  0  0
   26.7237  -19.6776  -10.1115 C   0  0  0  0  0  0  0  0  0  0  0  0
   25.7783  -18.9595   -9.3361 C   0  0  0  0  0  0  0  0  0  0  0  0
   26.1295  -19.0168   -8.0564 N   0  0  0  0  0  0  0  0  0  0  0  0
   27.2654  -19.7328   -7.8859 C   0  0  0  0  0  0  0  0  0  0  0  0
   27.9907  -20.0601   -6.7611 C   0  0  0  0  0  0  0  0  0  0  0  0
   29.1171  -20.8179   -6.8654 C   0  0  0  0  0  0  0  0  0  0  0  0
   29.4989  -21.2475   -8.1540 C   0  0  0  0  0  0  0  0  0  0  0  0
   28.7653  -20.9094   -9.2437 C   0  0  0  0  0  0  0  0  0  0  0  0
   27.6209  -20.1401   -9.1760 C   0  0  0  0  0  0  0  0  0  0  0  0
   24.4543  -20.7937  -12.0767 C   0  0  0  0  0  0  0  0  0  0  0  0
   23.9164  -20.1783  -12.9936 O   0  0  0  0  0  0  0  0  0  0  0  0
   21.2905  -21.4392   -7.0600 C   0  0  0  0  0  0  0  0  0  0  0  0
   21.6747  -20.7671   -8.3725 C   0  0  0  0  0  0  0  0  0  0  0  0
   21.9499  -21.8656   -9.3782 C   0  0  2  0  0  0  0  0  0  0  0  0
   22.9888  -22.7944   -8.8080 C   0  0  0  0  0  0  0  0  0  0  0  0
   22.3606  -21.3053  -10.7263 C   0  0  2  0  0  0  0  0  0  0  0  0
   23.7383  -21.3314  -11.0153 N   0  0  0  0  0  0  0  0  0  0  0  0
   21.5251  -20.1487  -11.0836 C   0  0  0  0  0  0  0  0  0  0  0  0
   22.2497  -18.9608  -11.3972 O   0  0  0  0  0  0  0  0  0  0  0  0
   20.2850  -20.0798  -11.1457 O   0  0  0  0  0  0  0  0  0  0  0  0
  1  2  1  0
  3  2  1  0
  4  3  1  0
  5  4  1  0
  5  1  1  0
  5  6  1  1
  7  6  2  0
  8  6  1  0
  9  8  1  0
 10 11  1  0
  9 10  1  1
 11 12  2  0
 13 12  1  0
 14 13  1  0
 15 14  2  0
 16 15  1  0
 17 18  1  0
 17 16  2  0
 18 19  2  0
 19 14  1  0
 19 11  1  0
 20  9  1  0
 20 27  1  0
 21 20  2  0
 23 22  1  0
 24 23  1  0
 24 26  1  0
 24 25  1  1
 26 28  1  0
 26 27  1  1
 28 29  1  0
 30 28  2  0
M  END
$$$$
