PWI.pdb
     RDKit          3D

 30 32  0  0  1  0  0  0  0  0999 V2000
   28.1115  -21.2458  -14.1754 N   0  0  0  0  0  0  0  0  0  0  0  0
   28.1829  -21.3242  -15.6325 C   0  0  0  0  0  0  0  0  0  0  0  0
   27.9909  -19.8858  -16.1400 C   0  0  0  0  0  0  0  0  0  0  0  0
   27.0989  -19.3139  -15.0398 C   0  0  0  0  0  0  0  0  0  0  0  0
   27.8412  -19.8867  -13.8200 C   0  0  1  0  0  0  0  0  0  0  0  0
   27.0837  -19.6843  -12.5688 C   0  0  0  0  0  0  0  0  0  0  0  0
   26.8354  -18.4723  -12.2691 O   0  0  0  0  0  0  0  0  0  0  0  0
   26.6591  -20.7684  -11.7463 N   0  0  0  0  0  0  0  0  0  0  0  0
   25.7723  -20.5225  -10.5965 C   0  0  1  0  0  0  0  0  0  0  0  0
   24.5438  -21.3105  -10.8574 C   0  0  0  0  0  0  0  0  0  0  0  0
   23.5113  -20.7073  -11.7096 C   0  0  0  0  0  0  0  0  0  0  0  0
   23.4774  -20.7837  -13.1251 C   0  0  0  0  0  0  0  0  0  0  0  0
   22.4423  -20.0836  -13.5754 N   0  0  0  0  0  0  0  0  0  0  0  0
   21.7462  -19.5200  -12.5605 C   0  0  0  0  0  0  0  0  0  0  0  0
   20.6190  -18.7280  -12.5419 C   0  0  0  0  0  0  0  0  0  0  0  0
   20.1041  -18.2921  -11.3591 C   0  0  0  0  0  0  0  0  0  0  0  0
   20.7637  -18.6841  -10.1750 C   0  0  0  0  0  0  0  0  0  0  0  0
   21.8721  -19.4644  -10.2241 C   0  0  0  0  0  0  0  0  0  0  0  0
   22.4238  -19.9212  -11.4044 C   0  0  0  0  0  0  0  0  0  0  0  0
   26.5513  -21.0227   -9.3793 C   0  0  0  0  0  0  0  0  0  0  0  0
   26.7540  -22.2331   -9.3281 O   0  0  0  0  0  0  0  0  0  0  0  0
   29.9566  -18.6597   -4.7610 C   0  0  0  0  0  0  0  0  0  0  0  0
   29.0687  -19.7977   -5.2497 C   0  0  0  0  0  0  0  0  0  0  0  0
   28.3602  -19.3130   -6.4976 C   0  0  2  0  0  0  0  0  0  0  0  0
   27.5910  -18.0627   -6.1625 C   0  0  0  0  0  0  0  0  0  0  0  0
   27.4734  -20.3882   -7.0955 C   0  0  2  0  0  0  0  0  0  0  0  0
   26.9990  -20.1471   -8.3989 N   0  0  0  0  0  0  0  0  0  0  0  0
   26.6090  -20.9807   -6.0634 C   0  0  0  0  0  0  0  0  0  0  0  0
   25.2496  -20.5505   -6.1019 O   0  0  0  0  0  0  0  0  0  0  0  0
   26.9119  -21.7976   -5.1761 O   0  0  0  0  0  0  0  0  0  0  0  0
  1  2  1  0
  3  2  1  0
  4  3  1  0
  5  4  1  0
  5  1  1  0
  5  6  1  1
  7  6  2  0
  8  6  1  0
  9  8  1  0
 10 11  1  0
  9 10  1  6
 11 12  2  0
 13 12  1  0
 14 13  1  0
 15 14  2  0
 16 15  1  0
 17 18  1  0
 17 16  2  0
 18 19  2  0
 19 14  1  0
 19 11  1  0
 20  9  1  0
 20 27  1  0
 21 20  2  0
 23 22  1  0
 24 23  1  0
 24 26  1  0
 24 25  1  1
 26 28  1  0
 26 27  1  6
 28 29  1  0
 30 28  2  0
M  END
$$$$
