PWI.pdb
     RDKit          3D

 30 32  0  0  1  0  0  0  0  0999 V2000
   25.6195  -21.2654  -16.8218 N   0  0  0  0  0  0  0  0  0  0  0  0
   24.4794  -21.2623  -17.7354 C   0  0  0  0  0  0  0  0  0  0  0  0
   23.3559  -20.5120  -17.0017 C   0  0  0  0  0  0  0  0  0  0  0  0
   23.6930  -20.8464  -15.5499 C   0  0  0  0  0  0  0  0  0  0  0  0
   25.2142  -20.6238  -15.6092 C   0  0  1  0  0  0  0  0  0  0  0  0
   25.8870  -21.0844  -14.3781 C   0  0  0  0  0  0  0  0  0  0  0  0
   25.9866  -22.3468  -14.2482 O   0  0  0  0  0  0  0  0  0  0  0  0
   26.3903  -20.1816  -13.3965 N   0  0  0  0  0  0  0  0  0  0  0  0
   27.0134  -20.6977  -12.1660 C   0  0  1  0  0  0  0  0  0  0  0  0
   28.2367  -19.8855  -11.9607 C   0  0  0  0  0  0  0  0  0  0  0  0
   29.2079  -20.3502  -10.9623 C   0  0  0  0  0  0  0  0  0  0  0  0
   30.2658  -21.2594  -11.2173 C   0  0  0  0  0  0  0  0  0  0  0  0
   30.9142  -21.5036  -10.0840 N   0  0  0  0  0  0  0  0  0  0  0  0
   30.3753  -20.8198   -9.0476 C   0  0  0  0  0  0  0  0  0  0  0  0
   30.7073  -20.7546   -7.7120 C   0  0  0  0  0  0  0  0  0  0  0  0
   29.9936  -19.9640   -6.8636 C   0  0  0  0  0  0  0  0  0  0  0  0
   28.9202  -19.2258   -7.4055 C   0  0  0  0  0  0  0  0  0  0  0  0
   28.6162  -19.3102   -8.7247 C   0  0  0  0  0  0  0  0  0  0  0  0
   29.3150  -20.1034   -9.6127 C   0  0  0  0  0  0  0  0  0  0  0  0
   25.9679  -20.4838  -11.0707 C   0  0  0  0  0  0  0  0  0  0  0  0
   24.9810  -19.8247  -11.3876 O   0  0  0  0  0  0  0  0  0  0  0  0
   25.8282  -20.7522   -4.9058 C   0  0  0  0  0  0  0  0  0  0  0  0
   25.0417  -21.0360   -6.1798 C   0  0  0  0  0  0  0  0  0  0  0  0
   25.9261  -20.6577   -7.3496 C   0  0  2  0  0  0  0  0  0  0  0  0
   26.2608  -19.1931   -7.2493 C   0  0  0  0  0  0  0  0  0  0  0  0
   25.2839  -21.0088   -8.6779 C   0  0  2  0  0  0  0  0  0  0  0  0
   26.1372  -21.0123   -9.7978 N   0  0  0  0  0  0  0  0  0  0  0  0
   23.9208  -20.4619   -8.7557 C   0  0  0  0  0  0  0  0  0  0  0  0
   23.8025  -19.2527   -9.5030 O   0  0  0  0  0  0  0  0  0  0  0  0
   22.8753  -20.9165   -8.2590 O   0  0  0  0  0  0  0  0  0  0  0  0
  1  2  1  0
  3  2  1  0
  4  3  1  0
  5  4  1  0
  5  1  1  0
  5  6  1  1
  7  6  2  0
  8  6  1  0
  9  8  1  0
 10 11  1  0
  9 10  1  1
 11 12  2  0
 13 12  1  0
 14 13  1  0
 15 14  2  0
 16 15  1  0
 17 18  1  0
 17 16  2  0
 18 19  2  0
 19 14  1  0
 19 11  1  0
 20  9  1  0
 20 27  1  0
 21 20  2  0
 23 22  1  0
 24 23  1  0
 24 26  1  0
 24 25  1  6
 26 28  1  0
 26 27  1  6
 28 29  1  0
 30 28  2  0
M  END
$$$$
