PWI.pdb
     RDKit          3D

 30 32  0  0  1  0  0  0  0  0999 V2000
   27.7952  -19.4322  -14.9021 N   0  0  0  0  0  0  0  0  0  0  0  0
   29.0022  -19.2969  -15.7141 C   0  0  0  0  0  0  0  0  0  0  0  0
   29.5364  -20.7248  -15.9126 C   0  0  0  0  0  0  0  0  0  0  0  0
   29.0614  -21.3872  -14.6208 C   0  0  0  0  0  0  0  0  0  0  0  0
   27.6332  -20.8167  -14.5807 C   0  0  1  0  0  0  0  0  0  0  0  0
   26.9591  -21.1082  -13.2996 C   0  0  0  0  0  0  0  0  0  0  0  0
   26.1213  -22.0662  -13.3274 O   0  0  0  0  0  0  0  0  0  0  0  0
   27.2220  -20.3684  -12.1099 N   0  0  0  0  0  0  0  0  0  0  0  0
   26.5589  -20.7362  -10.8474 C   0  0  1  0  0  0  0  0  0  0  0  0
   27.4360  -20.2262   -9.7663 C   0  0  0  0  0  0  0  0  0  0  0  0
   27.0313  -20.4815   -8.3781 C   0  0  0  0  0  0  0  0  0  0  0  0
   25.8387  -21.1408   -7.9860 C   0  0  0  0  0  0  0  0  0  0  0  0
   25.7617  -21.1516   -6.6600 N   0  0  0  0  0  0  0  0  0  0  0  0
   26.8294  -20.5396   -6.0966 C   0  0  0  0  0  0  0  0  0  0  0  0
   27.1792  -20.3173   -4.7826 C   0  0  0  0  0  0  0  0  0  0  0  0
   28.3387  -19.6709   -4.4795 C   0  0  0  0  0  0  0  0  0  0  0  0
   29.1521  -19.2497   -5.5528 C   0  0  0  0  0  0  0  0  0  0  0  0
   28.7818  -19.4822   -6.8367 C   0  0  0  0  0  0  0  0  0  0  0  0
   27.6125  -20.1305   -7.1811 C   0  0  0  0  0  0  0  0  0  0  0  0
   25.2013  -20.0338  -10.8918 C   0  0  0  0  0  0  0  0  0  0  0  0
   25.2293  -18.8121  -11.0152 O   0  0  0  0  0  0  0  0  0  0  0  0
   21.3156  -22.2080  -14.1195 C   0  0  0  0  0  0  0  0  0  0  0  0
   21.8775  -22.0832  -12.7085 C   0  0  0  0  0  0  0  0  0  0  0  0
   22.1867  -20.6191  -12.4740 C   0  0  2  0  0  0  0  0  0  0  0  0
   23.1713  -20.1596  -13.5164 C   0  0  0  0  0  0  0  0  0  0  0  0
   22.6858  -20.3676  -11.0642 C   0  0  2  0  0  0  0  0  0  0  0  0
   24.0149  -20.7494  -10.7993 N   0  0  0  0  0  0  0  0  0  0  0  0
   21.6130  -20.5994  -10.0851 C   0  0  0  0  0  0  0  0  0  0  0  0
   20.4281  -19.8359  -10.3033 O   0  0  0  0  0  0  0  0  0  0  0  0
   21.6111  -21.3669   -9.1066 O   0  0  0  0  0  0  0  0  0  0  0  0
  1  2  1  0
  3  2  1  0
  4  3  1  0
  5  4  1  0
  5  1  1  0
  5  6  1  1
  7  6  2  0
  8  6  1  0
  9  8  1  0
 10 11  1  0
  9 10  1  1
 11 12  2  0
 13 12  1  0
 14 13  1  0
 15 14  2  0
 16 15  1  0
 17 18  1  0
 17 16  2  0
 18 19  2  0
 19 14  1  0
 19 11  1  0
 20  9  1  0
 20 27  1  0
 21 20  2  0
 23 22  1  0
 24 23  1  0
 24 26  1  0
 24 25  1  6
 26 28  1  0
 26 27  1  1
 28 29  1  0
 30 28  2  0
M  END
$$$$
