GGI.pdb
     RDKit          3D

 17 16  0  0  1  0  0  0  0  0999 V2000
   16.8168  -14.6394  -17.1898 N   0  0  0  0  0  0  0  0  0  0  0  0
   16.4672  -13.2854  -16.8495 C   0  0  0  0  0  0  0  0  0  0  0  0
   17.6094  -12.3887  -17.0586 C   0  0  0  0  0  0  0  0  0  0  0  0
   18.7736  -12.8587  -16.9494 O   0  0  0  0  0  0  0  0  0  0  0  0
   17.4077  -11.0369  -17.3732 N   0  0  0  0  0  0  0  0  0  0  0  0
   18.4938  -10.1205  -17.6424 C   0  0  0  0  0  0  0  0  0  0  0  0
   19.0943   -9.6451  -16.3651 C   0  0  0  0  0  0  0  0  0  0  0  0
   18.4458   -9.7645  -15.3106 O   0  0  0  0  0  0  0  0  0  0  0  0
   23.6626  -11.4287  -14.8464 C   0  0  0  0  0  0  0  0  0  0  0  0
   22.3120  -10.7905  -15.0357 C   0  0  0  0  0  0  0  0  0  0  0  0
   22.3625   -9.2896  -14.9259 C   0  0  2  0  0  0  0  0  0  0  0  0
   23.0509   -8.9257  -13.6640 C   0  0  0  0  0  0  0  0  0  0  0  0
   21.0376   -8.6534  -15.1417 C   0  0  2  0  0  0  0  0  0  0  0  0
   20.3942   -9.0624  -16.3574 N   0  0  0  0  0  0  0  0  0  0  0  0
   21.0051   -7.2001  -15.0019 C   0  0  0  0  0  0  0  0  0  0  0  0
   21.1243   -6.3851  -15.9529 O   0  0  0  0  0  0  0  0  0  0  0  0
   20.8341   -6.6561  -13.7432 O   0  0  0  0  0  0  0  0  0  0  0  0
  1  2  1  0
  3  5  1  0
  3  2  1  0
  4  3  2  0
  6  5  1  0
  7  6  1  0
  8  7  2  0
  9 10  1  0
 10 11  1  0
 11 13  1  0
 11 12  1  1
 13 14  1  6
 14  7  1  0
 15 13  1  0
 16 15  2  0
 17 15  1  0
M  END
$$$$
