GGI.pdb
     RDKit          3D

 17 16  0  0  1  0  0  0  0  0999 V2000
   27.4984  -21.6053  -17.3331 N   0  0  0  0  0  0  0  0  0  0  0  0
   28.2792  -20.5428  -16.7564 C   0  0  0  0  0  0  0  0  0  0  0  0
   27.5779  -19.9480  -15.6132 C   0  0  0  0  0  0  0  0  0  0  0  0
   26.3747  -19.6019  -15.7569 O   0  0  0  0  0  0  0  0  0  0  0  0
   28.2346  -19.7690  -14.3870 N   0  0  0  0  0  0  0  0  0  0  0  0
   27.6115  -19.1376  -13.2447 C   0  0  0  0  0  0  0  0  0  0  0  0
   26.8436  -20.1417  -12.4571 C   0  0  0  0  0  0  0  0  0  0  0  0
   26.8425  -21.3288  -12.8281 O   0  0  0  0  0  0  0  0  0  0  0  0
   27.0048  -19.5585   -7.2699 C   0  0  0  0  0  0  0  0  0  0  0  0
   26.9006  -20.2883   -8.5829 C   0  0  0  0  0  0  0  0  0  0  0  0
   25.4761  -20.4440   -9.0451 C   0  0  2  0  0  0  0  0  0  0  0  0
   24.8016  -21.4464   -8.1855 C   0  0  0  0  0  0  0  0  0  0  0  0
   25.3695  -20.6764  -10.5084 C   0  0  2  0  0  0  0  0  0  0  0  0
   26.1222  -19.7421  -11.2956 N   0  0  0  0  0  0  0  0  0  0  0  0
   24.0120  -20.8164  -11.0280 C   0  0  0  0  0  0  0  0  0  0  0  0
   23.3837  -21.9032  -11.1098 O   0  0  0  0  0  0  0  0  0  0  0  0
   23.3487  -19.6875  -11.4700 O   0  0  0  0  0  0  0  0  0  0  0  0
  1  2  1  0
  3  5  1  0
  3  2  1  0
  4  3  2  0
  6  5  1  0
  7  6  1  0
  8  7  2  0
  9 10  1  0
 10 11  1  0
 11 13  1  0
 11 12  1  1
 13 14  1  6
 14  7  1  0
 15 13  1  0
 16 15  2  0
 17 15  1  0
M  END
$$$$
