GGI.pdb
     RDKit          3D

 17 16  0  0  1  0  0  0  0  0999 V2000
   23.4569  -21.1905  -13.4900 N   0  0  0  0  0  0  0  0  0  0  0  0
   23.3969  -20.7612  -12.1176 C   0  0  0  0  0  0  0  0  0  0  0  0
   24.7194  -20.3273  -11.6537 C   0  0  0  0  0  0  0  0  0  0  0  0
   25.4654  -19.7034  -12.4551 O   0  0  0  0  0  0  0  0  0  0  0  0
   25.1427  -20.6021  -10.3452 N   0  0  0  0  0  0  0  0  0  0  0  0
   26.3120  -19.9924   -9.7513 C   0  0  0  0  0  0  0  0  0  0  0  0
   26.4653  -20.4410   -8.3394 C   0  0  0  0  0  0  0  0  0  0  0  0
   25.6926  -21.3072   -7.8928 O   0  0  0  0  0  0  0  0  0  0  0  0
   30.9246  -20.5480   -4.0226 C   0  0  0  0  0  0  0  0  0  0  0  0
   29.5402  -20.8865   -4.5085 C   0  0  0  0  0  0  0  0  0  0  0  0
   29.2129  -20.2284   -5.8227 C   0  0  2  0  0  0  0  0  0  0  0  0
   29.6899  -18.8249   -5.7862 C   0  0  0  0  0  0  0  0  0  0  0  0
   27.7938  -20.4147   -6.2203 C   0  0  2  0  0  0  0  0  0  0  0  0
   27.4848  -19.8820   -7.5164 N   0  0  0  0  0  0  0  0  0  0  0  0
   26.8017  -19.9910   -5.2360 C   0  0  0  0  0  0  0  0  0  0  0  0
   26.3602  -20.7137   -4.3057 O   0  0  0  0  0  0  0  0  0  0  0  0
   26.2944  -18.7079   -5.3121 O   0  0  0  0  0  0  0  0  0  0  0  0
  1  2  1  0
  3  5  1  0
  3  2  1  0
  4  3  2  0
  6  5  1  0
  7  6  1  0
  8  7  2  0
  9 10  1  0
 10 11  1  0
 11 13  1  0
 11 12  1  1
 13 14  1  6
 14  7  1  0
 15 13  1  0
 16 15  2  0
 17 15  1  0
M  END
$$$$
