GGI.pdb
     RDKit          3D

 17 16  0  0  1  0  0  0  0  0999 V2000
   19.7479  -13.8394  -19.2874 N   0  0  0  0  0  0  0  0  0  0  0  0
   20.2786  -12.9147  -20.2541 C   0  0  0  0  0  0  0  0  0  0  0  0
   20.6421  -11.6470  -19.6112 C   0  0  0  0  0  0  0  0  0  0  0  0
   21.7319  -11.5802  -18.9819 O   0  0  0  0  0  0  0  0  0  0  0  0
   19.7931  -10.5339  -19.6963 N   0  0  0  0  0  0  0  0  0  0  0  0
   20.1507   -9.2297  -19.1834 C   0  0  0  0  0  0  0  0  0  0  0  0
   20.0726   -9.2227  -17.6961 C   0  0  0  0  0  0  0  0  0  0  0  0
   19.1442   -9.8321  -17.1363 O   0  0  0  0  0  0  0  0  0  0  0  0
   23.6514  -11.0978  -14.6600 C   0  0  0  0  0  0  0  0  0  0  0  0
   22.4076  -10.5063  -15.2685 C   0  0  0  0  0  0  0  0  0  0  0  0
   22.1708   -9.0851  -14.8308 C   0  0  2  0  0  0  0  0  0  0  0  0
   22.1667   -9.0359  -13.3488 C   0  0  0  0  0  0  0  0  0  0  0  0
   20.9959   -8.4674  -15.4976 C   0  0  2  0  0  0  0  0  0  0  0  0
   21.0510   -8.5258  -16.9303 N   0  0  0  0  0  0  0  0  0  0  0  0
   20.6494   -7.1223  -15.0468 C   0  0  0  0  0  0  0  0  0  0  0  0
   20.0487   -6.8580  -13.9735 O   0  0  0  0  0  0  0  0  0  0  0  0
   20.9940   -6.0448  -15.8405 O   0  0  0  0  0  0  0  0  0  0  0  0
  1  2  1  0
  3  5  1  0
  3  2  1  0
  4  3  2  0
  6  5  1  0
  7  6  1  0
  8  7  2  0
  9 10  1  0
 10 11  1  0
 11 13  1  0
 11 12  1  1
 13 14  1  6
 14  7  1  0
 15 13  1  0
 16 15  2  0
 17 15  1  0
M  END
$$$$
