GGI.pdb
     RDKit          3D

 17 16  0  0  1  0  0  0  0  0999 V2000
   26.8066  -18.2594  -17.0465 N   0  0  0  0  0  0  0  0  0  0  0  0
   26.1524  -18.9347  -15.9569 C   0  0  0  0  0  0  0  0  0  0  0  0
   27.0022  -18.9296  -14.7610 C   0  0  0  0  0  0  0  0  0  0  0  0
   26.9408  -17.9416  -13.9812 O   0  0  0  0  0  0  0  0  0  0  0  0
   27.8643  -20.0029  -14.4929 N   0  0  0  0  0  0  0  0  0  0  0  0
   28.4282  -20.2522  -13.1846 C   0  0  0  0  0  0  0  0  0  0  0  0
   27.4264  -20.9258  -12.3124 C   0  0  0  0  0  0  0  0  0  0  0  0
   27.4515  -22.1648  -12.2078 O   0  0  0  0  0  0  0  0  0  0  0  0
   27.1504  -19.9769   -7.4563 C   0  0  0  0  0  0  0  0  0  0  0  0
   26.9153  -20.6873   -8.7630 C   0  0  0  0  0  0  0  0  0  0  0  0
   25.5602  -20.3876   -9.3471 C   0  0  2  0  0  0  0  0  0  0  0  0
   24.5197  -20.9555   -8.4563 C   0  0  0  0  0  0  0  0  0  0  0  0
   25.4562  -20.7662  -10.7797 C   0  0  2  0  0  0  0  0  0  0  0  0
   26.4550  -20.1562  -11.6100 N   0  0  0  0  0  0  0  0  0  0  0  0
   24.1303  -20.6245  -11.3752 C   0  0  0  0  0  0  0  0  0  0  0  0
   23.1144  -21.2804  -11.0284 O   0  0  0  0  0  0  0  0  0  0  0  0
   23.9538  -19.7114  -12.3973 O   0  0  0  0  0  0  0  0  0  0  0  0
  1  2  1  0
  3  5  1  0
  3  2  1  0
  4  3  2  0
  6  5  1  0
  7  6  1  0
  8  7  2  0
  9 10  1  0
 10 11  1  0
 11 13  1  0
 11 12  1  1
 13 14  1  6
 14  7  1  0
 15 13  1  0
 16 15  2  0
 17 15  1  0
M  END
$$$$
