GGI.pdb
     RDKit          3D

 17 16  0  0  1  0  0  0  0  0999 V2000
   18.8335   -8.9678  -20.8234 N   0  0  0  0  0  0  0  0  0  0  0  0
   18.3762   -9.2845  -19.4961 C   0  0  0  0  0  0  0  0  0  0  0  0
   19.4094  -10.0157  -18.7543 C   0  0  0  0  0  0  0  0  0  0  0  0
   20.5362  -10.1817  -19.2937 O   0  0  0  0  0  0  0  0  0  0  0  0
   19.1465  -10.5188  -17.4719 N   0  0  0  0  0  0  0  0  0  0  0  0
   20.1154  -11.2739  -16.7083 C   0  0  0  0  0  0  0  0  0  0  0  0
   20.9634  -10.3541  -15.9003 C   0  0  0  0  0  0  0  0  0  0  0  0
   20.6182  -10.0777  -14.7379 O   0  0  0  0  0  0  0  0  0  0  0  0
   25.9680  -11.4962  -15.3057 C   0  0  0  0  0  0  0  0  0  0  0  0
   24.5723  -10.9445  -15.1828 C   0  0  0  0  0  0  0  0  0  0  0  0
   24.4617   -9.5346  -15.6997 C   0  0  2  0  0  0  0  0  0  0  0  0
   25.4685   -8.6923  -15.0100 C   0  0  0  0  0  0  0  0  0  0  0  0
   23.0679   -9.0214  -15.6736 C   0  0  2  0  0  0  0  0  0  0  0  0
   22.1528   -9.8016  -16.4565 N   0  0  0  0  0  0  0  0  0  0  0  0
   22.9139   -7.5982  -15.9622 C   0  0  0  0  0  0  0  0  0  0  0  0
   22.5856   -7.1245  -17.0805 O   0  0  0  0  0  0  0  0  0  0  0  0
   23.1418   -6.6852  -14.9502 O   0  0  0  0  0  0  0  0  0  0  0  0
  1  2  1  0
  3  5  1  0
  3  2  1  0
  4  3  2  0
  6  5  1  0
  7  6  1  0
  8  7  2  0
  9 10  1  0
 10 11  1  0
 11 13  1  0
 11 12  1  1
 13 14  1  6
 14  7  1  0
 15 13  1  0
 16 15  2  0
 17 15  1  0
M  END
$$$$
