GGI.pdb
     RDKit          3D

 17 16  0  0  1  0  0  0  0  0999 V2000
   25.4144  -20.4364  -15.6359 N   0  0  0  0  0  0  0  0  0  0  0  0
   25.6268  -19.1698  -14.9866 C   0  0  0  0  0  0  0  0  0  0  0  0
   26.5856  -19.3082  -13.8848 C   0  0  0  0  0  0  0  0  0  0  0  0
   26.8016  -18.3119  -13.1440 O   0  0  0  0  0  0  0  0  0  0  0  0
   27.2470  -20.5247  -13.6623 N   0  0  0  0  0  0  0  0  0  0  0  0
   28.1866  -20.7240  -12.5809 C   0  0  0  0  0  0  0  0  0  0  0  0
   27.4817  -21.2430  -11.3760 C   0  0  0  0  0  0  0  0  0  0  0  0
   27.4003  -22.4723  -11.2056 O   0  0  0  0  0  0  0  0  0  0  0  0
   28.4227  -19.3520   -6.5773 C   0  0  0  0  0  0  0  0  0  0  0  0
   27.9981  -20.2494   -7.7094 C   0  0  0  0  0  0  0  0  0  0  0  0
   26.5326  -20.1200   -8.0299 C   0  0  2  0  0  0  0  0  0  0  0  0
   25.7457  -20.5175   -6.8376 C   0  0  0  0  0  0  0  0  0  0  0  0
   26.1608  -20.7954   -9.2996 C   0  0  2  0  0  0  0  0  0  0  0  0
   26.9105  -20.3390  -10.4349 N   0  0  0  0  0  0  0  0  0  0  0  0
   24.7325  -20.8295   -9.6016 C   0  0  0  0  0  0  0  0  0  0  0  0
   24.1762  -20.1657  -10.5142 O   0  0  0  0  0  0  0  0  0  0  0  0
   23.9107  -21.6407   -8.8426 O   0  0  0  0  0  0  0  0  0  0  0  0
  1  2  1  0
  3  5  1  0
  3  2  1  0
  4  3  2  0
  6  5  1  0
  7  6  1  0
  8  7  2  0
  9 10  1  0
 10 11  1  0
 11 13  1  0
 11 12  1  1
 13 14  1  6
 14  7  1  0
 15 13  1  0
 16 15  2  0
 17 15  1  0
M  END
$$$$
