GGI.pdb
     RDKit          3D

 17 16  0  0  1  0  0  0  0  0999 V2000
   26.9873  -16.3354  -16.1746 N   0  0  0  0  0  0  0  0  0  0  0  0
   25.9104  -17.2640  -15.9533 C   0  0  0  0  0  0  0  0  0  0  0  0
   26.4339  -18.5848  -15.5875 C   0  0  0  0  0  0  0  0  0  0  0  0
   25.9365  -19.6044  -16.1364 O   0  0  0  0  0  0  0  0  0  0  0  0
   27.4663  -18.7081  -14.6464 N   0  0  0  0  0  0  0  0  0  0  0  0
   28.0709  -19.9761  -14.3021 C   0  0  0  0  0  0  0  0  0  0  0  0
   27.1308  -20.7882  -13.4807 C   0  0  0  0  0  0  0  0  0  0  0  0
   27.3545  -22.0020  -13.3281 O   0  0  0  0  0  0  0  0  0  0  0  0
   26.5172  -20.5393   -8.5734 C   0  0  0  0  0  0  0  0  0  0  0  0
   26.3524  -21.0899   -9.9651 C   0  0  0  0  0  0  0  0  0  0  0  0
   25.1038  -20.5875  -10.6404 C   0  0  2  0  0  0  0  0  0  0  0  0
   23.9265  -21.0130   -9.8456 C   0  0  0  0  0  0  0  0  0  0  0  0
   25.0584  -20.9237  -12.0866 C   0  0  2  0  0  0  0  0  0  0  0  0
   25.9925  -20.1775  -12.8803 N   0  0  0  0  0  0  0  0  0  0  0  0
   23.7318  -20.9084  -12.6967 C   0  0  0  0  0  0  0  0  0  0  0  0
   22.7695  -21.6359  -12.3395 O   0  0  0  0  0  0  0  0  0  0  0  0
   23.4916  -20.0419  -13.7460 O   0  0  0  0  0  0  0  0  0  0  0  0
  1  2  1  0
  3  5  1  0
  3  2  1  0
  4  3  2  0
  6  5  1  0
  7  6  1  0
  8  7  2  0
  9 10  1  0
 10 11  1  0
 11 13  1  0
 11 12  1  1
 13 14  1  6
 14  7  1  0
 15 13  1  0
 16 15  2  0
 17 15  1  0
M  END
$$$$
