GGI.pdb
     RDKit          3D

 17 16  0  0  1  0  0  0  0  0999 V2000
   15.9320  -17.6894  -21.4975 N   0  0  0  0  0  0  0  0  0  0  0  0
   15.9580  -17.2983  -20.1128 C   0  0  0  0  0  0  0  0  0  0  0  0
   16.1538  -18.4679  -19.2491 C   0  0  0  0  0  0  0  0  0  0  0  0
   16.0850  -19.6163  -19.7634 O   0  0  0  0  0  0  0  0  0  0  0  0
   16.4122  -18.3092  -17.8798 N   0  0  0  0  0  0  0  0  0  0  0  0
   16.5588  -19.4252  -16.9715 C   0  0  0  0  0  0  0  0  0  0  0  0
   16.7689  -18.9331  -15.5816 C   0  0  0  0  0  0  0  0  0  0  0  0
   16.8620  -19.7581  -14.6556 O   0  0  0  0  0  0  0  0  0  0  0  0
   20.8943  -16.6008  -13.9022 C   0  0  0  0  0  0  0  0  0  0  0  0
   19.5626  -17.2990  -13.9823 C   0  0  0  0  0  0  0  0  0  0  0  0
   18.4033  -16.3481  -13.8435 C   0  0  2  0  0  0  0  0  0  0  0  0
   18.5761  -15.5626  -12.5977 C   0  0  0  0  0  0  0  0  0  0  0  0
   17.0879  -17.0196  -14.0026 C   0  0  2  0  0  0  0  0  0  0  0  0
   16.8612  -17.5354  -15.3223 N   0  0  0  0  0  0  0  0  0  0  0  0
   15.9309  -16.2595  -13.5376 C   0  0  0  0  0  0  0  0  0  0  0  0
   15.3288  -15.3851  -14.2126 O   0  0  0  0  0  0  0  0  0  0  0  0
   15.4445  -16.4985  -12.2665 O   0  0  0  0  0  0  0  0  0  0  0  0
  1  2  1  0
  3  5  1  0
  3  2  1  0
  4  3  2  0
  6  5  1  0
  7  6  1  0
  8  7  2  0
  9 10  1  0
 10 11  1  0
 11 13  1  0
 11 12  1  1
 13 14  1  6
 14  7  1  0
 15 13  1  0
 16 15  2  0
 17 15  1  0
M  END
$$$$
