GGI.pdb
     RDKit          3D

 17 16  0  0  1  0  0  0  0  0999 V2000
   27.8599  -10.8244  -18.0331 N   0  0  0  0  0  0  0  0  0  0  0  0
   28.3196   -9.4903  -18.3157 C   0  0  0  0  0  0  0  0  0  0  0  0
   29.7852   -9.4315  -18.2856 C   0  0  0  0  0  0  0  0  0  0  0  0
   30.4315  -10.5117  -18.2256 O   0  0  0  0  0  0  0  0  0  0  0  0
   30.4513   -8.1978  -18.3230 N   0  0  0  0  0  0  0  0  0  0  0  0
   31.8901   -8.0822  -18.4155 C   0  0  0  0  0  0  0  0  0  0  0  0
   32.4535   -7.6188  -17.1171 C   0  0  0  0  0  0  0  0  0  0  0  0
   31.6805   -7.2001  -16.2374 O   0  0  0  0  0  0  0  0  0  0  0  0
   35.7019  -10.8399  -14.6808 C   0  0  0  0  0  0  0  0  0  0  0  0
   34.7208   -9.7582  -15.0474 C   0  0  0  0  0  0  0  0  0  0  0  0
   35.3598   -8.3961  -15.1088 C   0  0  2  0  0  0  0  0  0  0  0  0
   36.0015   -8.1100  -13.8030 C   0  0  0  0  0  0  0  0  0  0  0  0
   34.4337   -7.3497  -15.6127 C   0  0  2  0  0  0  0  0  0  0  0  0
   33.8595   -7.6570  -16.8915 N   0  0  0  0  0  0  0  0  0  0  0  0
   34.9525   -5.9848  -15.5922 C   0  0  0  0  0  0  0  0  0  0  0  0
   34.7257   -5.1448  -14.6836 O   0  0  0  0  0  0  0  0  0  0  0  0
   35.7514   -5.5606  -16.6369 O   0  0  0  0  0  0  0  0  0  0  0  0
  1  2  1  0
  3  5  1  0
  3  2  1  0
  4  3  2  0
  6  5  1  0
  7  6  1  0
  8  7  2  0
  9 10  1  0
 10 11  1  0
 11 13  1  0
 11 12  1  1
 13 14  1  6
 14  7  1  0
 15 13  1  0
 16 15  2  0
 17 15  1  0
M  END
$$$$
