GGI.pdb
     RDKit          3D

 17 16  0  0  1  0  0  0  0  0999 V2000
   26.3941  -19.0974  -16.8561 N   0  0  0  0  0  0  0  0  0  0  0  0
   26.2840  -20.1221  -15.8515 C   0  0  0  0  0  0  0  0  0  0  0  0
   26.4194  -19.5463  -14.5090 C   0  0  0  0  0  0  0  0  0  0  0  0
   27.5713  -19.2486  -14.0933 O   0  0  0  0  0  0  0  0  0  0  0  0
   25.2893  -19.3323  -13.7064 N   0  0  0  0  0  0  0  0  0  0  0  0
   25.3564  -18.7144  -12.4004 C   0  0  0  0  0  0  0  0  0  0  0  0
   25.4901  -19.7563  -11.3446 C   0  0  0  0  0  0  0  0  0  0  0  0
   25.3849  -20.9546  -11.6607 O   0  0  0  0  0  0  0  0  0  0  0  0
   28.0562  -18.1073   -6.7900 C   0  0  0  0  0  0  0  0  0  0  0  0
   27.7357  -19.0620   -7.9095 C   0  0  0  0  0  0  0  0  0  0  0  0
   26.4391  -19.7952   -7.6892 C   0  0  2  0  0  0  0  0  0  0  0  0
   26.6208  -20.7659   -6.5832 C   0  0  0  0  0  0  0  0  0  0  0  0
   25.8732  -20.3506   -8.9453 C   0  0  2  0  0  0  0  0  0  0  0  0
   25.7351  -19.3796   -9.9929 N   0  0  0  0  0  0  0  0  0  0  0  0
   24.6465  -21.1286   -8.7950 C   0  0  0  0  0  0  0  0  0  0  0  0
   24.6047  -22.3592   -8.5372 O   0  0  0  0  0  0  0  0  0  0  0  0
   23.4304  -20.4895   -8.9443 O   0  0  0  0  0  0  0  0  0  0  0  0
  1  2  1  0
  3  5  1  0
  3  2  1  0
  4  3  2  0
  6  5  1  0
  7  6  1  0
  8  7  2  0
  9 10  1  0
 10 11  1  0
 11 13  1  0
 11 12  1  1
 13 14  1  6
 14  7  1  0
 15 13  1  0
 16 15  2  0
 17 15  1  0
M  END
$$$$
