GGI.pdb
     RDKit          3D

 17 16  0  0  1  0  0  0  0  0999 V2000
   21.8203  -13.8574  -20.5443 N   0  0  0  0  0  0  0  0  0  0  0  0
   22.4944  -12.8321  -19.7923 C   0  0  0  0  0  0  0  0  0  0  0  0
   22.0336  -12.8253  -18.3995 C   0  0  0  0  0  0  0  0  0  0  0  0
   22.5588  -13.6320  -17.5861 O   0  0  0  0  0  0  0  0  0  0  0  0
   21.0294  -11.9389  -17.9839 N   0  0  0  0  0  0  0  0  0  0  0  0
   20.4593  -11.9618  -16.6548 C   0  0  0  0  0  0  0  0  0  0  0  0
   21.2231  -11.0567  -15.7518 C   0  0  0  0  0  0  0  0  0  0  0  0
   20.8774  -10.9576  -14.5612 O   0  0  0  0  0  0  0  0  0  0  0  0
   26.3143  -11.7988  -15.4855 C   0  0  0  0  0  0  0  0  0  0  0  0
   24.8849  -11.3996  -15.2312 C   0  0  0  0  0  0  0  0  0  0  0  0
   24.6340   -9.9420  -15.5137 C   0  0  2  0  0  0  0  0  0  0  0  0
   25.5817   -9.1300  -14.7131 C   0  0  0  0  0  0  0  0  0  0  0  0
   23.2015   -9.5707  -15.3848 C   0  0  2  0  0  0  0  0  0  0  0  0
   22.3336  -10.3168  -16.2505 N   0  0  0  0  0  0  0  0  0  0  0  0
   22.9101   -8.1420  -15.4653 C   0  0  0  0  0  0  0  0  0  0  0  0
   23.1540   -7.3079  -14.5557 O   0  0  0  0  0  0  0  0  0  0  0  0
   22.3218   -7.6462  -16.6132 O   0  0  0  0  0  0  0  0  0  0  0  0
  1  2  1  0
  3  5  1  0
  3  2  1  0
  4  3  2  0
  6  5  1  0
  7  6  1  0
  8  7  2  0
  9 10  1  0
 10 11  1  0
 11 13  1  0
 11 12  1  1
 13 14  1  6
 14  7  1  0
 15 13  1  0
 16 15  2  0
 17 15  1  0
M  END
$$$$
