GGI.pdb
     RDKit          3D

 17 16  0  0  1  0  0  0  0  0999 V2000
   23.4524  -19.2689  -15.9059 N   0  0  0  0  0  0  0  0  0  0  0  0
   24.7221  -19.8359  -15.5351 C   0  0  0  0  0  0  0  0  0  0  0  0
   25.3696  -19.0211  -14.5011 C   0  0  0  0  0  0  0  0  0  0  0  0
   26.1281  -18.0811  -14.8605 O   0  0  0  0  0  0  0  0  0  0  0  0
   25.1480  -19.2845  -13.1415 N   0  0  0  0  0  0  0  0  0  0  0  0
   26.0078  -18.7837  -12.0919 C   0  0  0  0  0  0  0  0  0  0  0  0
   26.1747  -19.8131  -11.0286 C   0  0  0  0  0  0  0  0  0  0  0  0
   26.4023  -20.9907  -11.3572 O   0  0  0  0  0  0  0  0  0  0  0  0
   28.5129  -18.3080   -6.3423 C   0  0  0  0  0  0  0  0  0  0  0  0
   28.0933  -19.1038   -7.5498 C   0  0  0  0  0  0  0  0  0  0  0  0
   26.7822  -19.8152   -7.3448 C   0  0  2  0  0  0  0  0  0  0  0  0
   26.9203  -20.7526   -6.2042 C   0  0  0  0  0  0  0  0  0  0  0  0
   26.2463  -20.4037   -8.5990 C   0  0  2  0  0  0  0  0  0  0  0  0
   26.0739  -19.4478   -9.6553 N   0  0  0  0  0  0  0  0  0  0  0  0
   25.0518  -21.2303   -8.4483 C   0  0  0  0  0  0  0  0  0  0  0  0
   25.0598  -22.4691   -8.2293 O   0  0  0  0  0  0  0  0  0  0  0  0
   23.8107  -20.6317   -8.5516 O   0  0  0  0  0  0  0  0  0  0  0  0
  1  2  1  0
  3  5  1  0
  3  2  1  0
  4  3  2  0
  6  5  1  0
  7  6  1  0
  8  7  2  0
  9 10  1  0
 10 11  1  0
 11 13  1  0
 11 12  1  1
 13 14  1  6
 14  7  1  0
 15 13  1  0
 16 15  2  0
 17 15  1  0
M  END
$$$$
