QNT.pdb
     RDKit          3D

 25 24  0  0  1  0  0  0  0  0999 V2000
    8.2167  -12.8118   17.1096 N   0  0  0  0  0  0  0  0  0  0  0  0
    7.9032  -14.1838   17.2281 C   0  0  0  0  0  0  0  0  0  0  0  0
    8.2508  -14.9310   16.2877 O   0  0  0  0  0  0  0  0  0  0  0  0
    7.2019  -14.7395   18.3938 C   0  0  0  0  0  0  0  0  0  0  0  0
    6.9477  -13.7240   19.4694 C   0  0  0  0  0  0  0  0  0  0  0  0
    8.1761  -13.5337   20.2910 C   0  0  2  0  0  0  0  0  0  0  0  0
    9.3141  -13.6972   19.3740 N   0  0  0  0  0  0  0  0  0  0  0  0
    8.3147  -14.5892   21.3428 C   0  0  0  0  0  0  0  0  0  0  0  0
    7.3388  -14.8255   22.0921 O   0  0  0  0  0  0  0  0  0  0  0  0
    9.2555  -19.1463   21.4477 N   0  0  0  0  0  0  0  0  0  0  0  0
   10.2799  -18.1881   21.2396 C   0  0  0  0  0  0  0  0  0  0  0  0
   10.8481  -18.1335   20.1232 O   0  0  0  0  0  0  0  0  0  0  0  0
   10.6570  -17.2861   22.3152 C   0  0  0  0  0  0  0  0  0  0  0  0
    9.6378  -16.2300   22.6436 C   0  0  2  0  0  0  0  0  0  0  0  0
    9.5092  -15.3275   21.5182 N   0  0  0  0  0  0  0  0  0  0  0  0
    9.9864  -15.5281   23.8875 C   0  0  0  0  0  0  0  0  0  0  0  0
   10.9947  -14.7853   23.9491 O   0  0  0  0  0  0  0  0  0  0  0  0
    7.1970  -14.1594   26.4732 C   0  0  0  0  0  0  0  0  0  0  0  0
    8.6363  -13.6912   26.4440 C   0  0  1  0  0  0  0  0  0  0  0  0
    8.9288  -12.9856   27.6045 O   0  0  0  0  0  0  0  0  0  0  0  0
    9.5247  -14.8976   26.2757 C   0  0  2  0  0  0  0  0  0  0  0  0
    9.2087  -15.6490   25.0801 N   0  0  0  0  0  0  0  0  0  0  0  0
    9.4476  -15.7805   27.4508 C   0  0  0  0  0  0  0  0  0  0  0  0
    9.8384  -15.3342   28.6915 O   0  0  0  0  0  0  0  0  0  0  0  0
    9.0257  -16.9676   27.3708 O   0  0  0  0  0  0  0  0  0  0  0  0
  2  4  1  0
  2  1  1  0
  3  2  2  0
  5  4  1  0
  6  5  1  0
  6  7  1  6
  8  6  1  0
  8 15  1  0
  9  8  2  0
 10 11  1  0
 11 12  2  0
 13 11  1  0
 14 13  1  6
 14 15  1  0
 16 14  1  0
 17 16  2  0
 19 18  1  1
 19 21  1  0
 20 19  1  0
 21 22  1  6
 21 23  1  0
 22 16  1  0
 23 24  1  0
 25 23  2  0
M  END
$$$$
