QNT.pdb
     RDKit          3D

 25 24  0  0  1  0  0  0  0  0999 V2000
    9.0114  -21.3332   19.3521 N   0  0  0  0  0  0  0  0  0  0  0  0
   10.3659  -20.9402   19.2779 C   0  0  0  0  0  0  0  0  0  0  0  0
   11.2083  -21.6952   19.8106 O   0  0  0  0  0  0  0  0  0  0  0  0
   10.7981  -19.7049   18.6095 C   0  0  0  0  0  0  0  0  0  0  0  0
    9.6593  -18.9175   18.0301 C   0  0  0  0  0  0  0  0  0  0  0  0
   10.1742  -17.6790   17.3813 C   0  0  2  0  0  0  0  0  0  0  0  0
   11.2809  -18.1007   16.5095 N   0  0  0  0  0  0  0  0  0  0  0  0
   10.7508  -16.7233   18.3783 C   0  0  0  0  0  0  0  0  0  0  0  0
   11.9965  -16.6280   18.4715 O   0  0  0  0  0  0  0  0  0  0  0  0
    8.4085  -12.8180   18.0961 N   0  0  0  0  0  0  0  0  0  0  0  0
    9.6667  -13.0369   18.7122 C   0  0  0  0  0  0  0  0  0  0  0  0
   10.7100  -12.6808   18.1148 O   0  0  0  0  0  0  0  0  0  0  0  0
    9.7326  -13.6669   20.0205 C   0  0  0  0  0  0  0  0  0  0  0  0
   10.5462  -14.9307   20.0752 C   0  0  2  0  0  0  0  0  0  0  0  0
    9.9367  -15.9257   19.2172 N   0  0  0  0  0  0  0  0  0  0  0  0
   10.6975  -15.4019   21.4596 C   0  0  0  0  0  0  0  0  0  0  0  0
    9.9570  -14.9685   22.3739 O   0  0  0  0  0  0  0  0  0  0  0  0
    9.9239  -18.1663   23.4758 C   0  0  0  0  0  0  0  0  0  0  0  0
   11.4370  -18.1401   23.5159 C   0  0  1  0  0  0  0  0  0  0  0  0
   11.9511  -19.0579   22.6083 O   0  0  0  0  0  0  0  0  0  0  0  0
   11.8955  -16.7346   23.2211 C   0  0  2  0  0  0  0  0  0  0  0  0
   11.6815  -16.3664   21.8381 N   0  0  0  0  0  0  0  0  0  0  0  0
   13.3151  -16.5566   23.5673 C   0  0  0  0  0  0  0  0  0  0  0  0
   13.7537  -16.7525   24.8559 O   0  0  0  0  0  0  0  0  0  0  0  0
   14.1775  -16.2215   22.7085 O   0  0  0  0  0  0  0  0  0  0  0  0
  2  4  1  0
  2  1  1  0
  3  2  2  0
  5  4  1  0
  6  5  1  0
  6  7  1  6
  8  6  1  0
  8 15  1  0
  9  8  2  0
 10 11  1  0
 11 12  2  0
 13 11  1  0
 14 13  1  1
 14 15  1  0
 16 14  1  0
 17 16  2  0
 19 18  1  6
 19 21  1  0
 20 19  1  0
 21 22  1  6
 21 23  1  0
 22 16  1  0
 23 24  1  0
 25 23  2  0
M  END
$$$$
