QNT.pdb
     RDKit          3D

 25 24  0  0  1  0  0  0  0  0999 V2000
    8.2972  -12.3862   18.9235 N   0  0  0  0  0  0  0  0  0  0  0  0
    7.8144  -13.5638   18.3113 C   0  0  0  0  0  0  0  0  0  0  0  0
    7.9271  -13.6473   17.0688 O   0  0  0  0  0  0  0  0  0  0  0  0
    7.2030  -14.6611   19.0739 C   0  0  0  0  0  0  0  0  0  0  0  0
    7.1372  -14.3902   20.5487 C   0  0  0  0  0  0  0  0  0  0  0  0
    8.2762  -15.0568   21.2405 C   0  0  2  0  0  0  0  0  0  0  0  0
    8.4475  -16.3628   20.5866 N   0  0  0  0  0  0  0  0  0  0  0  0
    7.9727  -15.3317   22.6800 C   0  0  0  0  0  0  0  0  0  0  0  0
    7.4650  -14.4205   23.3738 O   0  0  0  0  0  0  0  0  0  0  0  0
    5.3435  -18.4084   23.9956 N   0  0  0  0  0  0  0  0  0  0  0  0
    6.6959  -18.8347   23.9908 C   0  0  0  0  0  0  0  0  0  0  0  0
    7.0545  -19.7212   23.1798 O   0  0  0  0  0  0  0  0  0  0  0  0
    7.6449  -18.2432   24.9196 C   0  0  0  0  0  0  0  0  0  0  0  0
    7.9393  -16.7874   24.6837 C   0  0  2  0  0  0  0  0  0  0  0  0
    8.2400  -16.5845   23.2815 N   0  0  0  0  0  0  0  0  0  0  0  0
    9.0210  -16.3181   25.5620 C   0  0  0  0  0  0  0  0  0  0  0  0
   10.2212  -16.5660   25.2974 O   0  0  0  0  0  0  0  0  0  0  0  0
    9.7302  -12.7738   27.0013 C   0  0  0  0  0  0  0  0  0  0  0  0
    9.6317  -13.7469   28.1568 C   0  0  1  0  0  0  0  0  0  0  0  0
    8.4007  -13.6116   28.7865 O   0  0  0  0  0  0  0  0  0  0  0  0
    9.8448  -15.1407   27.6233 C   0  0  2  0  0  0  0  0  0  0  0  0
    8.7716  -15.5637   26.7496 N   0  0  0  0  0  0  0  0  0  0  0  0
   10.0021  -16.1097   28.7201 C   0  0  0  0  0  0  0  0  0  0  0  0
   11.0199  -15.9757   29.6351 O   0  0  0  0  0  0  0  0  0  0  0  0
    9.2207  -17.0905   28.8651 O   0  0  0  0  0  0  0  0  0  0  0  0
  2  4  1  0
  2  1  1  0
  3  2  2  0
  5  4  1  0
  6  5  1  0
  6  7  1  6
  8  6  1  0
  8 15  1  0
  9  8  2  0
 10 11  1  0
 11 12  2  0
 13 11  1  0
 14 13  1  6
 14 15  1  0
 16 14  1  0
 17 16  2  0
 19 18  1  6
 19 21  1  0
 20 19  1  0
 21 22  1  1
 21 23  1  0
 22 16  1  0
 23 24  1  0
 25 23  2  0
M  END
$$$$
