QNT.pdb
     RDKit          3D

 25 24  0  0  1  0  0  0  0  0999 V2000
    8.0555  -12.1911   18.9152 N   0  0  0  0  0  0  0  0  0  0  0  0
    8.2458  -13.3001   18.0618 C   0  0  0  0  0  0  0  0  0  0  0  0
    8.3668  -13.0646   16.8398 O   0  0  0  0  0  0  0  0  0  0  0  0
    8.3054  -14.6821   18.5581 C   0  0  0  0  0  0  0  0  0  0  0  0
    8.1613  -14.7809   20.0488 C   0  0  0  0  0  0  0  0  0  0  0  0
    8.2329  -16.2071   20.4741 C   0  0  2  0  0  0  0  0  0  0  0  0
    6.9995  -16.8438   19.9883 N   0  0  0  0  0  0  0  0  0  0  0  0
    8.2325  -16.3471   21.9641 C   0  0  0  0  0  0  0  0  0  0  0  0
    7.1341  -16.4095   22.5635 O   0  0  0  0  0  0  0  0  0  0  0  0
   11.5725  -19.0656   23.1434 N   0  0  0  0  0  0  0  0  0  0  0  0
   10.5743  -18.7190   24.0890 C   0  0  0  0  0  0  0  0  0  0  0  0
    9.7426  -19.5869   24.4458 O   0  0  0  0  0  0  0  0  0  0  0  0
   10.5266  -17.3709   24.6306 C   0  0  0  0  0  0  0  0  0  0  0  0
    9.3667  -16.5384   24.1577 C   0  0  2  0  0  0  0  0  0  0  0  0
    9.4295  -16.4113   22.7163 N   0  0  0  0  0  0  0  0  0  0  0  0
    9.3425  -15.2335   24.8345 C   0  0  0  0  0  0  0  0  0  0  0  0
   10.2811  -14.4144   24.6918 O   0  0  0  0  0  0  0  0  0  0  0  0
    6.7687  -12.3904   24.7968 C   0  0  0  0  0  0  0  0  0  0  0  0
    6.9396  -12.8385   26.2327 C   0  0  1  0  0  0  0  0  0  0  0  0
    5.8763  -13.6514   26.6052 O   0  0  0  0  0  0  0  0  0  0  0  0
    8.2644  -13.5477   26.3543 C   0  0  2  0  0  0  0  0  0  0  0  0
    8.2648  -14.8285   25.6808 N   0  0  0  0  0  0  0  0  0  0  0  0
    8.6404  -13.7298   27.7657 C   0  0  0  0  0  0  0  0  0  0  0  0
    8.9116  -14.9824   28.2643 O   0  0  0  0  0  0  0  0  0  0  0  0
    8.7286  -12.7580   28.5666 O   0  0  0  0  0  0  0  0  0  0  0  0
  2  4  1  0
  2  1  1  0
  3  2  2  0
  5  4  1  0
  6  5  1  0
  6  7  1  6
  8  6  1  0
  8 15  1  0
  9  8  2  0
 10 11  1  0
 11 12  2  0
 13 11  1  0
 14 13  1  1
 14 15  1  0
 16 14  1  0
 17 16  2  0
 19 18  1  6
 19 21  1  0
 20 19  1  0
 21 22  1  1
 21 23  1  0
 22 16  1  0
 23 24  1  0
 25 23  2  0
M  END
$$$$
