QNT.pdb
     RDKit          3D

 25 24  0  0  1  0  0  0  0  0999 V2000
   10.0014  -12.9943   18.3756 N   0  0  0  0  0  0  0  0  0  0  0  0
    8.7334  -13.1209   17.7666 C   0  0  0  0  0  0  0  0  0  0  0  0
    8.5121  -12.4142   16.7591 O   0  0  0  0  0  0  0  0  0  0  0  0
    7.6993  -14.0356   18.2701 C   0  0  0  0  0  0  0  0  0  0  0  0
    8.1074  -14.7568   19.5214 C   0  0  0  0  0  0  0  0  0  0  0  0
    9.0323  -15.8759   19.1860 C   0  0  2  0  0  0  0  0  0  0  0  0
    8.2475  -16.8352   18.3946 N   0  0  0  0  0  0  0  0  0  0  0  0
    9.4968  -16.6033   20.4086 C   0  0  0  0  0  0  0  0  0  0  0  0
    8.6801  -17.3232   21.0285 O   0  0  0  0  0  0  0  0  0  0  0  0
   13.8361  -17.9718   19.8235 N   0  0  0  0  0  0  0  0  0  0  0  0
   13.0473  -18.4559   20.8977 C   0  0  0  0  0  0  0  0  0  0  0  0
   12.6738  -19.6528   20.8910 O   0  0  0  0  0  0  0  0  0  0  0  0
   12.6831  -17.5654   21.9874 C   0  0  0  0  0  0  0  0  0  0  0  0
   11.2184  -17.2351   22.0735 C   0  0  2  0  0  0  0  0  0  0  0  0
   10.8254  -16.5049   20.8860 N   0  0  0  0  0  0  0  0  0  0  0  0
   10.9147  -16.4992   23.3096 C   0  0  0  0  0  0  0  0  0  0  0  0
   11.5670  -15.4773   23.6297 O   0  0  0  0  0  0  0  0  0  0  0  0
    8.0255  -14.5294   24.3609 C   0  0  0  0  0  0  0  0  0  0  0  0
    8.1367  -15.6352   25.3888 C   0  0  1  0  0  0  0  0  0  0  0  0
    7.2270  -16.6446   25.0994 O   0  0  0  0  0  0  0  0  0  0  0  0
    9.5579  -16.1380   25.3935 C   0  0  2  0  0  0  0  0  0  0  0  0
    9.8746  -16.8989   24.2041 N   0  0  0  0  0  0  0  0  0  0  0  0
    9.8280  -16.9525   26.5894 C   0  0  0  0  0  0  0  0  0  0  0  0
    9.6481  -16.4316   27.8493 O   0  0  0  0  0  0  0  0  0  0  0  0
   10.2305  -18.1464   26.5103 O   0  0  0  0  0  0  0  0  0  0  0  0
  2  4  1  0
  2  1  1  0
  3  2  2  0
  5  4  1  0
  6  5  1  0
  6  7  1  6
  8  6  1  0
  8 15  1  0
  9  8  2  0
 10 11  1  0
 11 12  2  0
 13 11  1  0
 14 13  1  6
 14 15  1  0
 16 14  1  0
 17 16  2  0
 19 18  1  6
 19 21  1  0
 20 19  1  0
 21 22  1  6
 21 23  1  0
 22 16  1  0
 23 24  1  0
 25 23  2  0
M  END
$$$$
