QNT.pdb
     RDKit          3D

 25 24  0  0  1  0  0  0  0  0999 V2000
    8.5724  -12.5071   17.7533 N   0  0  0  0  0  0  0  0  0  0  0  0
    7.9773  -13.4924   16.9350 C   0  0  0  0  0  0  0  0  0  0  0  0
    8.2547  -13.4644   15.7161 O   0  0  0  0  0  0  0  0  0  0  0  0
    7.0692  -14.5199   17.4634 C   0  0  0  0  0  0  0  0  0  0  0  0
    6.9917  -14.5251   18.9623 C   0  0  0  0  0  0  0  0  0  0  0  0
    8.3381  -14.7940   19.5412 C   0  0  2  0  0  0  0  0  0  0  0  0
    9.0097  -15.7140   18.6110 N   0  0  0  0  0  0  0  0  0  0  0  0
    8.2501  -15.4999   20.8578 C   0  0  0  0  0  0  0  0  0  0  0  0
    7.1288  -15.6206   21.4035 O   0  0  0  0  0  0  0  0  0  0  0  0
   11.3756  -19.0275   24.7456 N   0  0  0  0  0  0  0  0  0  0  0  0
   10.1833  -18.5550   24.1408 C   0  0  0  0  0  0  0  0  0  0  0  0
    9.0814  -18.8063   24.6838 O   0  0  0  0  0  0  0  0  0  0  0  0
   10.2512  -17.7898   22.9068 C   0  0  0  0  0  0  0  0  0  0  0  0
    9.2484  -16.6744   22.7966 C   0  0  2  0  0  0  0  0  0  0  0  0
    9.3895  -16.0345   21.5050 N   0  0  0  0  0  0  0  0  0  0  0  0
    9.3897  -15.7252   23.9104 C   0  0  0  0  0  0  0  0  0  0  0  0
   10.5151  -15.2850   24.2450 O   0  0  0  0  0  0  0  0  0  0  0  0
    6.9716  -12.5928   24.9881 C   0  0  0  0  0  0  0  0  0  0  0  0
    7.1832  -13.5930   26.1047 C   0  0  1  0  0  0  0  0  0  0  0  0
    6.0670  -14.4112   26.2257 O   0  0  0  0  0  0  0  0  0  0  0  0
    8.4332  -14.3809   25.8057 C   0  0  2  0  0  0  0  0  0  0  0  0
    8.2705  -15.2557   24.6646 N   0  0  0  0  0  0  0  0  0  0  0  0
    8.8569  -15.1667   26.9760 C   0  0  0  0  0  0  0  0  0  0  0  0
    9.1458  -14.5484   28.1700 O   0  0  0  0  0  0  0  0  0  0  0  0
    8.9715  -16.4231   26.9340 O   0  0  0  0  0  0  0  0  0  0  0  0
  2  4  1  0
  2  1  1  0
  3  2  2  0
  5  4  1  0
  6  5  1  0
  6  7  1  6
  8  6  1  0
  8 15  1  0
  9  8  2  0
 10 11  1  0
 11 12  2  0
 13 11  1  0
 14 13  1  1
 14 15  1  0
 16 14  1  0
 17 16  2  0
 19 18  1  6
 19 21  1  0
 20 19  1  0
 21 22  1  6
 21 23  1  0
 22 16  1  0
 23 24  1  0
 25 23  2  0
M  END
$$$$
