QNT.pdb
     RDKit          3D

 25 24  0  0  1  0  0  0  0  0999 V2000
    8.7332  -12.8292   17.2259 N   0  0  0  0  0  0  0  0  0  0  0  0
    8.0394  -13.6719   16.3298 C   0  0  0  0  0  0  0  0  0  0  0  0
    7.2504  -13.1252   15.5286 O   0  0  0  0  0  0  0  0  0  0  0  0
    8.2169  -15.1306   16.3139 C   0  0  0  0  0  0  0  0  0  0  0  0
    9.2193  -15.6145   17.3207 C   0  0  0  0  0  0  0  0  0  0  0  0
   10.5759  -15.6629   16.7063 C   0  0  2  0  0  0  0  0  0  0  0  0
   10.5586  -16.7875   15.7587 N   0  0  0  0  0  0  0  0  0  0  0  0
   11.6372  -15.9668   17.7168 C   0  0  0  0  0  0  0  0  0  0  0  0
   11.8238  -17.1585   18.0553 O   0  0  0  0  0  0  0  0  0  0  0  0
   15.5627  -13.4316   17.0866 N   0  0  0  0  0  0  0  0  0  0  0  0
   15.3101  -14.5761   17.8846 C   0  0  0  0  0  0  0  0  0  0  0  0
   15.6867  -15.7005   17.4773 O   0  0  0  0  0  0  0  0  0  0  0  0
   14.6223  -14.4341   19.1573 C   0  0  0  0  0  0  0  0  0  0  0  0
   13.4042  -15.3011   19.3197 C   0  0  2  0  0  0  0  0  0  0  0  0
   12.4349  -14.9543   18.3010 N   0  0  0  0  0  0  0  0  0  0  0  0
   12.8534  -15.1889   20.6783 C   0  0  0  0  0  0  0  0  0  0  0  0
   13.4291  -14.5002   21.5537 O   0  0  0  0  0  0  0  0  0  0  0  0
    9.5394  -13.9225   21.9111 C   0  0  0  0  0  0  0  0  0  0  0  0
    9.6609  -15.3426   22.4214 C   0  0  1  0  0  0  0  0  0  0  0  0
    8.8937  -16.1951   21.6373 O   0  0  0  0  0  0  0  0  0  0  0  0
   11.1189  -15.7261   22.4152 C   0  0  2  0  0  0  0  0  0  0  0  0
   11.6486  -15.8473   21.0740 N   0  0  0  0  0  0  0  0  0  0  0  0
   11.3396  -16.9820   23.1506 C   0  0  0  0  0  0  0  0  0  0  0  0
   10.9744  -17.0959   24.4715 O   0  0  0  0  0  0  0  0  0  0  0  0
   11.8658  -17.9929   22.6077 O   0  0  0  0  0  0  0  0  0  0  0  0
  2  4  1  0
  2  1  1  0
  3  2  2  0
  5  4  1  0
  6  5  1  0
  6  7  1  6
  8  6  1  0
  8 15  1  0
  9  8  2  0
 10 11  1  0
 11 12  2  0
 13 11  1  0
 14 13  1  1
 14 15  1  0
 16 14  1  0
 17 16  2  0
 19 18  1  6
 19 21  1  0
 20 19  1  0
 21 22  1  6
 21 23  1  0
 22 16  1  0
 23 24  1  0
 25 23  2  0
M  END
$$$$
