QNT.pdb
     RDKit          3D

 25 24  0  0  1  0  0  0  0  0999 V2000
    7.5505  -12.9900   17.0694 N   0  0  0  0  0  0  0  0  0  0  0  0
    8.0960  -13.7782   16.0323 C   0  0  0  0  0  0  0  0  0  0  0  0
    8.1004  -13.2846   14.8835 O   0  0  0  0  0  0  0  0  0  0  0  0
    8.6439  -15.1223   16.2617 C   0  0  0  0  0  0  0  0  0  0  0  0
    8.5771  -15.5499   17.6988 C   0  0  0  0  0  0  0  0  0  0  0  0
    9.0356  -16.9613   17.8324 C   0  0  2  0  0  0  0  0  0  0  0  0
    8.0270  -17.7878   17.1523 N   0  0  0  0  0  0  0  0  0  0  0  0
    9.0662  -17.4068   19.2608 C   0  0  0  0  0  0  0  0  0  0  0  0
    8.0566  -17.9758   19.7367 O   0  0  0  0  0  0  0  0  0  0  0  0
   12.5638  -19.2628   23.7849 N   0  0  0  0  0  0  0  0  0  0  0  0
   11.3144  -18.9879   23.1732 C   0  0  0  0  0  0  0  0  0  0  0  0
   10.2610  -19.1572   23.8319 O   0  0  0  0  0  0  0  0  0  0  0  0
   11.2691  -18.5160   21.7991 C   0  0  0  0  0  0  0  0  0  0  0  0
   10.1358  -17.5775   21.4883 C   0  0  2  0  0  0  0  0  0  0  0  0
   10.1958  -17.2067   20.0896 N   0  0  0  0  0  0  0  0  0  0  0  0
   10.1590  -16.4080   22.3792 C   0  0  0  0  0  0  0  0  0  0  0  0
   11.1765  -15.6801   22.4629 O   0  0  0  0  0  0  0  0  0  0  0  0
    7.9130  -13.2679   22.8563 C   0  0  0  0  0  0  0  0  0  0  0  0
    7.8938  -14.0846   24.1309 C   0  0  1  0  0  0  0  0  0  0  0  0
    6.7211  -14.8262   24.2008 O   0  0  0  0  0  0  0  0  0  0  0  0
    9.1202  -14.9611   24.1516 C   0  0  2  0  0  0  0  0  0  0  0  0
    9.0410  -16.0383   23.1885 N   0  0  0  0  0  0  0  0  0  0  0  0
    9.3538  -15.5141   25.4955 C   0  0  0  0  0  0  0  0  0  0  0  0
    9.5164  -14.6826   26.5787 O   0  0  0  0  0  0  0  0  0  0  0  0
    9.4138  -16.7571   25.7077 O   0  0  0  0  0  0  0  0  0  0  0  0
  2  4  1  0
  2  1  1  0
  3  2  2  0
  5  4  1  0
  6  5  1  0
  6  7  1  6
  8  6  1  0
  8 15  1  0
  9  8  2  0
 10 11  1  0
 11 12  2  0
 13 11  1  0
 14 13  1  1
 14 15  1  0
 16 14  1  0
 17 16  2  0
 19 18  1  6
 19 21  1  0
 20 19  1  0
 21 22  1  6
 21 23  1  0
 22 16  1  0
 23 24  1  0
 25 23  2  0
M  END
$$$$
