QNT.pdb
     RDKit          3D

 25 24  0  0  1  0  0  0  0  0999 V2000
    9.0394  -17.3084   16.5574 N   0  0  0  0  0  0  0  0  0  0  0  0
    9.7933  -16.1175   16.6460 C   0  0  0  0  0  0  0  0  0  0  0  0
   10.9081  -16.1054   16.0798 O   0  0  0  0  0  0  0  0  0  0  0  0
    9.3151  -14.9274   17.3632 C   0  0  0  0  0  0  0  0  0  0  0  0
    7.8952  -15.0521   17.8332 C   0  0  0  0  0  0  0  0  0  0  0  0
    7.5355  -13.8828   18.6839 C   0  0  2  0  0  0  0  0  0  0  0  0
    8.0161  -12.6907   17.9693 N   0  0  0  0  0  0  0  0  0  0  0  0
    8.2442  -13.9106   20.0017 C   0  0  0  0  0  0  0  0  0  0  0  0
    9.2035  -13.1264   20.1870 O   0  0  0  0  0  0  0  0  0  0  0  0
    9.1772  -14.0710   25.0850 N   0  0  0  0  0  0  0  0  0  0  0  0
    8.2026  -15.0456   24.7519 C   0  0  0  0  0  0  0  0  0  0  0  0
    7.8574  -15.8854   25.6166 O   0  0  0  0  0  0  0  0  0  0  0  0
    7.6183  -15.0599   23.4209 C   0  0  0  0  0  0  0  0  0  0  0  0
    8.5796  -14.7618   22.3034 C   0  0  2  0  0  0  0  0  0  0  0  0
    7.8670  -14.7917   21.0429 N   0  0  0  0  0  0  0  0  0  0  0  0
    9.7190  -15.6908   22.3249 C   0  0  0  0  0  0  0  0  0  0  0  0
   10.4768  -15.7605   23.3214 O   0  0  0  0  0  0  0  0  0  0  0  0
    9.7622  -19.5346   21.4138 C   0  0  0  0  0  0  0  0  0  0  0  0
   10.7932  -18.7954   20.5876 C   0  0  1  0  0  0  0  0  0  0  0  0
   10.3103  -18.5891   19.3014 O   0  0  0  0  0  0  0  0  0  0  0  0
   11.1196  -17.4992   21.2847 C   0  0  2  0  0  0  0  0  0  0  0  0
   10.0242  -16.5553   21.2289 N   0  0  0  0  0  0  0  0  0  0  0  0
   12.3324  -16.8849   20.7205 C   0  0  0  0  0  0  0  0  0  0  0  0
   13.5307  -17.5597   20.7291 O   0  0  0  0  0  0  0  0  0  0  0  0
   12.3242  -15.7294   20.2123 O   0  0  0  0  0  0  0  0  0  0  0  0
  2  4  1  0
  2  1  1  0
  3  2  2  0
  5  4  1  0
  6  5  1  0
  6  7  1  6
  8  6  1  0
  8 15  1  0
  9  8  2  0
 10 11  1  0
 11 12  2  0
 13 11  1  0
 14 13  1  1
 14 15  1  0
 16 14  1  0
 17 16  2  0
 19 18  1  1
 19 21  1  0
 20 19  1  0
 21 22  1  6
 21 23  1  0
 22 16  1  0
 23 24  1  0
 25 23  2  0
M  END
$$$$
