QNT.pdb
     RDKit          3D

 25 24  0  0  1  0  0  0  0  0999 V2000
    7.3308  -13.4797   17.4373 N   0  0  0  0  0  0  0  0  0  0  0  0
    8.3964  -13.6724   18.3439 C   0  0  0  0  0  0  0  0  0  0  0  0
    9.5036  -13.1808   18.0345 O   0  0  0  0  0  0  0  0  0  0  0  0
    8.2417  -14.4117   19.6044 C   0  0  0  0  0  0  0  0  0  0  0  0
    7.1984  -15.4884   19.5333 C   0  0  0  0  0  0  0  0  0  0  0  0
    6.7847  -15.8886   20.9076 C   0  0  2  0  0  0  0  0  0  0  0  0
    6.2364  -14.6799   21.5408 N   0  0  0  0  0  0  0  0  0  0  0  0
    7.9515  -16.3198   21.7397 C   0  0  0  0  0  0  0  0  0  0  0  0
    8.6895  -17.2381   21.3134 O   0  0  0  0  0  0  0  0  0  0  0  0
   12.2206  -17.5324   23.7999 N   0  0  0  0  0  0  0  0  0  0  0  0
   11.9255  -16.2001   23.4144 C   0  0  0  0  0  0  0  0  0  0  0  0
   12.7831  -15.3050   23.6033 O   0  0  0  0  0  0  0  0  0  0  0  0
   10.6413  -15.8890   22.8087 C   0  0  0  0  0  0  0  0  0  0  0  0
    9.4502  -16.1081   23.7004 C   0  0  2  0  0  0  0  0  0  0  0  0
    8.2477  -15.7256   22.9895 N   0  0  0  0  0  0  0  0  0  0  0  0
    9.6026  -15.3862   24.9721 C   0  0  0  0  0  0  0  0  0  0  0  0
   10.6075  -15.5656   25.7001 O   0  0  0  0  0  0  0  0  0  0  0  0
    7.5827  -11.7657   26.0879 C   0  0  0  0  0  0  0  0  0  0  0  0
    7.5701  -12.9319   27.0530 C   0  0  1  0  0  0  0  0  0  0  0  0
    6.3633  -13.6135   26.9569 O   0  0  0  0  0  0  0  0  0  0  0  0
    8.7481  -13.8194   26.7409 C   0  0  2  0  0  0  0  0  0  0  0  0
    8.6299  -14.4524   25.4451 N   0  0  0  0  0  0  0  0  0  0  0  0
    8.9277  -14.8466   27.7798 C   0  0  0  0  0  0  0  0  0  0  0  0
    9.1703  -14.4900   29.0856 O   0  0  0  0  0  0  0  0  0  0  0  0
    8.8677  -16.0804   27.5198 O   0  0  0  0  0  0  0  0  0  0  0  0
  2  4  1  0
  2  1  1  0
  3  2  2  0
  5  4  1  0
  6  5  1  0
  6  7  1  1
  8  6  1  0
  8 15  1  0
  9  8  2  0
 10 11  1  0
 11 12  2  0
 13 11  1  0
 14 13  1  6
 14 15  1  0
 16 14  1  0
 17 16  2  0
 19 18  1  6
 19 21  1  0
 20 19  1  0
 21 22  1  6
 21 23  1  0
 22 16  1  0
 23 24  1  0
 25 23  2  0
M  END
$$$$
