QNT.pdb
     RDKit          3D

 25 24  0  0  1  0  0  0  0  0999 V2000
   10.4671  -20.3111   15.5708 N   0  0  0  0  0  0  0  0  0  0  0  0
   10.9510  -19.3720   14.6335 C   0  0  0  0  0  0  0  0  0  0  0  0
   11.4208  -19.8227   13.5660 O   0  0  0  0  0  0  0  0  0  0  0  0
   10.9159  -17.9225   14.8724 C   0  0  0  0  0  0  0  0  0  0  0  0
   10.2741  -17.5546   16.1783 C   0  0  0  0  0  0  0  0  0  0  0  0
   10.2399  -16.0727   16.3296 C   0  0  2  0  0  0  0  0  0  0  0  0
   11.0473  -15.5278   15.2278 N   0  0  0  0  0  0  0  0  0  0  0  0
   10.8886  -15.6251   17.6019 C   0  0  0  0  0  0  0  0  0  0  0  0
   11.4302  -16.4832   18.3367 O   0  0  0  0  0  0  0  0  0  0  0  0
    7.3208  -12.2028   19.5788 N   0  0  0  0  0  0  0  0  0  0  0  0
    7.4072  -13.5112   19.0391 C   0  0  0  0  0  0  0  0  0  0  0  0
    6.4943  -14.3351   19.2842 O   0  0  0  0  0  0  0  0  0  0  0  0
    8.5450  -13.8802   18.2132 C   0  0  0  0  0  0  0  0  0  0  0  0
    9.8834  -13.7631   18.8892 C   0  0  2  0  0  0  0  0  0  0  0  0
   10.9102  -14.2676   18.0010 N   0  0  0  0  0  0  0  0  0  0  0  0
    9.8804  -14.4500   20.1892 C   0  0  0  0  0  0  0  0  0  0  0  0
    9.1357  -14.0647   21.1214 O   0  0  0  0  0  0  0  0  0  0  0  0
    9.0333  -18.0221   21.0791 C   0  0  0  0  0  0  0  0  0  0  0  0
   10.4577  -17.7743   21.5280 C   0  0  1  0  0  0  0  0  0  0  0  0
   11.3459  -18.2954   20.5953 O   0  0  0  0  0  0  0  0  0  0  0  0
   10.6438  -16.2907   21.7198 C   0  0  2  0  0  0  0  0  0  0  0  0
   10.7125  -15.5791   20.4617 N   0  0  0  0  0  0  0  0  0  0  0  0
   11.8484  -16.0063   22.5165 C   0  0  0  0  0  0  0  0  0  0  0  0
   11.9632  -16.4697   23.8061 O   0  0  0  0  0  0  0  0  0  0  0  0
   12.8132  -15.3347   22.0563 O   0  0  0  0  0  0  0  0  0  0  0  0
  2  4  1  0
  2  1  1  0
  3  2  2  0
  5  4  1  0
  6  5  1  0
  6  7  1  6
  8  6  1  0
  8 15  1  0
  9  8  2  0
 10 11  1  0
 11 12  2  0
 13 11  1  0
 14 13  1  6
 14 15  1  0
 16 14  1  0
 17 16  2  0
 19 18  1  6
 19 21  1  0
 20 19  1  0
 21 22  1  6
 21 23  1  0
 22 16  1  0
 23 24  1  0
 25 23  2  0
M  END
$$$$
