QNT.pdb
     RDKit          3D

 25 24  0  0  1  0  0  0  0  0999 V2000
    7.1357  -19.1793   12.4728 N   0  0  0  0  0  0  0  0  0  0  0  0
    8.1366  -18.2779   12.0483 C   0  0  0  0  0  0  0  0  0  0  0  0
    8.2860  -18.1316   10.8155 O   0  0  0  0  0  0  0  0  0  0  0  0
    8.9804  -17.5286   12.9895 C   0  0  0  0  0  0  0  0  0  0  0  0
    8.6119  -17.7600   14.4260 C   0  0  0  0  0  0  0  0  0  0  0  0
    9.2145  -16.7009   15.2836 C   0  0  2  0  0  0  0  0  0  0  0  0
   10.6607  -16.7301   15.0184 N   0  0  0  0  0  0  0  0  0  0  0  0
    9.0372  -16.9928   16.7406 C   0  0  0  0  0  0  0  0  0  0  0  0
    7.8819  -16.9666   17.2245 O   0  0  0  0  0  0  0  0  0  0  0  0
   10.1707  -19.9102   21.4341 N   0  0  0  0  0  0  0  0  0  0  0  0
   10.8800  -18.7952   20.9200 C   0  0  0  0  0  0  0  0  0  0  0  0
   11.4770  -18.0311   21.7149 O   0  0  0  0  0  0  0  0  0  0  0  0
   10.9072  -18.5523   19.4871 C   0  0  0  0  0  0  0  0  0  0  0  0
    9.8988  -17.5509   18.9948 C   0  0  2  0  0  0  0  0  0  0  0  0
   10.1293  -17.2969   17.5877 N   0  0  0  0  0  0  0  0  0  0  0  0
    9.9390  -16.3213   19.7998 C   0  0  0  0  0  0  0  0  0  0  0  0
   10.9266  -15.5503   19.7523 O   0  0  0  0  0  0  0  0  0  0  0  0
    7.6661  -13.2990   19.9473 C   0  0  0  0  0  0  0  0  0  0  0  0
    7.6927  -13.8937   21.3392 C   0  0  1  0  0  0  0  0  0  0  0  0
    6.5363  -14.6309   21.5617 O   0  0  0  0  0  0  0  0  0  0  0  0
    8.9357  -14.7364   21.4718 C   0  0  2  0  0  0  0  0  0  0  0  0
    8.8715  -15.9388   20.6693 N   0  0  0  0  0  0  0  0  0  0  0  0
    9.1876  -15.0918   22.8778 C   0  0  0  0  0  0  0  0  0  0  0  0
    9.3671  -14.1140   23.8281 O   0  0  0  0  0  0  0  0  0  0  0  0
    9.2486  -16.2917   23.2653 O   0  0  0  0  0  0  0  0  0  0  0  0
  2  4  1  0
  2  1  1  0
  3  2  2  0
  5  4  1  0
  6  5  1  0
  6  7  1  1
  8  6  1  0
  8 15  1  0
  9  8  2  0
 10 11  1  0
 11 12  2  0
 13 11  1  0
 14 13  1  1
 14 15  1  0
 16 14  1  0
 17 16  2  0
 19 18  1  6
 19 21  1  0
 20 19  1  0
 21 22  1  6
 21 23  1  0
 22 16  1  0
 23 24  1  0
 25 23  2  0
M  END
$$$$
