QNT.pdb
     RDKit          3D

 25 24  0  0  1  0  0  0  0  0999 V2000
   10.0884  -20.9331   13.2282 N   0  0  0  0  0  0  0  0  0  0  0  0
   10.4408  -19.5938   13.5051 C   0  0  0  0  0  0  0  0  0  0  0  0
   10.9312  -18.9281   12.5672 O   0  0  0  0  0  0  0  0  0  0  0  0
   10.2501  -18.9803   14.8267 C   0  0  0  0  0  0  0  0  0  0  0  0
   11.3598  -19.2920   15.7881 C   0  0  0  0  0  0  0  0  0  0  0  0
   11.0871  -18.6521   17.1058 C   0  0  2  0  0  0  0  0  0  0  0  0
   10.1970  -17.5135   16.8340 N   0  0  0  0  0  0  0  0  0  0  0  0
   12.3296  -18.0905   17.7227 C   0  0  0  0  0  0  0  0  0  0  0  0
   13.2441  -18.8775   18.0599 O   0  0  0  0  0  0  0  0  0  0  0  0
   15.7758  -13.1441   18.3561 N   0  0  0  0  0  0  0  0  0  0  0  0
   15.5192  -14.5358   18.2672 C   0  0  0  0  0  0  0  0  0  0  0  0
   16.4337  -15.3453   18.5508 O   0  0  0  0  0  0  0  0  0  0  0  0
   14.2078  -15.0052   17.8514 C   0  0  0  0  0  0  0  0  0  0  0  0
   13.7087  -16.2212   18.5823 C   0  0  2  0  0  0  0  0  0  0  0  0
   12.5048  -16.7026   17.9370 N   0  0  0  0  0  0  0  0  0  0  0  0
   13.5022  -15.9322   20.0090 C   0  0  0  0  0  0  0  0  0  0  0  0
   14.3929  -15.3704   20.6896 O   0  0  0  0  0  0  0  0  0  0  0  0
   10.9619  -13.8704   21.8333 C   0  0  0  0  0  0  0  0  0  0  0  0
   10.8413  -15.2693   22.3992 C   0  0  1  0  0  0  0  0  0  0  0  0
    9.7319  -15.9059   21.8568 O   0  0  0  0  0  0  0  0  0  0  0  0
   12.1201  -16.0119   22.1059 C   0  0  2  0  0  0  0  0  0  0  0  0
   12.2934  -16.2689   20.6925 N   0  0  0  0  0  0  0  0  0  0  0  0
   12.1793  -17.2800   22.8511 C   0  0  0  0  0  0  0  0  0  0  0  0
   12.0980  -17.2924   24.2238 O   0  0  0  0  0  0  0  0  0  0  0  0
   12.3055  -18.3935   22.2700 O   0  0  0  0  0  0  0  0  0  0  0  0
  2  4  1  0
  2  1  1  0
  3  2  2  0
  5  4  1  0
  6  5  1  0
  6  7  1  6
  8  6  1  0
  8 15  1  0
  9  8  2  0
 10 11  1  0
 11 12  2  0
 13 11  1  0
 14 13  1  6
 14 15  1  0
 16 14  1  0
 17 16  2  0
 19 18  1  6
 19 21  1  0
 20 19  1  0
 21 22  1  6
 21 23  1  0
 22 16  1  0
 23 24  1  0
 25 23  2  0
M  END
$$$$
