HID.pdb
     RDKit          3D

 27 27  0  0  1  0  0  0  0  0999 V2000
   10.1042  -17.3519   16.2450 N   0  0  0  0  0  0  0  0  0  0  0  0
    9.2755  -17.6507   17.3726 C   0  0  1  0  0  0  0  0  0  0  0  0
    9.3058  -19.1359   17.7064 C   0  0  0  0  0  0  0  0  0  0  0  0
    8.9575  -19.9681   16.5589 C   0  0  0  0  0  0  0  0  0  0  0  0
    7.9418  -19.7195   15.6673 C   0  0  0  0  0  0  0  0  0  0  0  0
    7.9165  -20.7068   14.7334 N   0  0  0  0  0  0  0  0  0  0  0  0
    8.9200  -21.5406   15.0747 C   0  0  0  0  0  0  0  0  0  0  0  0
    9.5562  -21.1022   16.1783 N   0  0  0  0  0  0  0  0  0  0  0  0
    9.6840  -16.8450   18.5823 C   0  0  0  0  0  0  0  0  0  0  0  0
   10.8888  -16.7343   18.8872 O   0  0  0  0  0  0  0  0  0  0  0  0
    6.6012  -12.3302   19.8850 C   0  0  0  0  0  0  0  0  0  0  0  0
    7.7658  -13.2883   19.6670 C   0  0  0  0  0  0  0  0  0  0  0  0
    7.8507  -14.3233   20.7342 C   0  0  2  0  0  0  0  0  0  0  0  0
    8.1357  -13.5513   22.0351 C   0  0  0  0  0  0  0  0  0  0  0  0
    8.8420  -15.4217   20.5096 C   0  0  2  0  0  0  0  0  0  0  0  0
    8.6666  -16.2324   19.3411 N   0  0  0  0  0  0  0  0  0  0  0  0
    9.3095  -16.1487   21.6782 C   0  0  0  0  0  0  0  0  0  0  0  0
    8.7609  -17.1997   22.0948 O   0  0  0  0  0  0  0  0  0  0  0  0
   10.4437  -15.7383   22.4716 N   0  0  0  0  0  0  0  0  0  0  0  0
   10.9145  -16.4484   23.6149 C   0  0  1  0  0  0  0  0  0  0  0  0
   12.2981  -16.1246   24.0478 C   0  0  0  0  0  0  0  0  0  0  0  0
   13.3281  -16.6067   23.1053 C   0  0  0  0  0  0  0  0  0  0  0  0
   14.5348  -16.2969   23.2066 O   0  0  0  0  0  0  0  0  0  0  0  0
    9.9742  -16.3793   24.7642 C   0  0  0  0  0  0  0  0  0  0  0  0
   10.1026  -17.3157   25.7678 O   0  0  0  0  0  0  0  0  0  0  0  0
   13.0113  -17.4485   22.0306 O   0  0  0  0  0  0  0  0  0  0  0  0
    9.0930  -15.5132   24.8378 O   0  0  0  0  0  0  0  0  0  0  0  0
  2  1  1  6
  2  3  1  0
  4  3  1  0
  5  4  2  0
  6  7  1  0
  6  5  1  0
  7  8  2  0
  8  4  1  0
  9 16  1  0
  9  2  1  0
 10  9  2  0
 12 11  1  0
 13 12  1  0
 13 14  1  1
 15 13  1  0
 15 16  1  6
 17 15  1  0
 18 17  2  0
 19 17  1  0
 20 19  1  0
 21 22  1  0
 20 21  1  1
 22 26  1  0
 23 22  2  0
 24 20  1  0
 24 25  1  0
 27 24  2  0
M  END
$$$$
