HID.pdb
     RDKit          3D

 27 27  0  0  1  0  0  0  0  0999 V2000
    8.3942  -17.1173   16.2633 N   0  0  0  0  0  0  0  0  0  0  0  0
    9.7700  -16.7244   16.2488 C   0  0  1  0  0  0  0  0  0  0  0  0
   10.0861  -15.8518   15.0418 C   0  0  0  0  0  0  0  0  0  0  0  0
    9.4207  -16.3212   13.8304 C   0  0  0  0  0  0  0  0  0  0  0  0
    8.1471  -15.9887   13.4354 C   0  0  0  0  0  0  0  0  0  0  0  0
    7.8676  -16.6121   12.2603 N   0  0  0  0  0  0  0  0  0  0  0  0
    8.9792  -17.3145   11.9608 C   0  0  0  0  0  0  0  0  0  0  0  0
    9.9251  -17.1451   12.9050 N   0  0  0  0  0  0  0  0  0  0  0  0
   10.1468  -15.9993   17.5184 C   0  0  0  0  0  0  0  0  0  0  0  0
   11.3245  -15.6335   17.7084 O   0  0  0  0  0  0  0  0  0  0  0  0
    6.7645  -12.1488   19.6392 C   0  0  0  0  0  0  0  0  0  0  0  0
    7.9776  -12.9744   19.2285 C   0  0  0  0  0  0  0  0  0  0  0  0
    8.1956  -14.1406   20.1284 C   0  0  2  0  0  0  0  0  0  0  0  0
    8.4472  -13.5426   21.5243 C   0  0  0  0  0  0  0  0  0  0  0  0
    9.2799  -15.0903   19.7254 C   0  0  2  0  0  0  0  0  0  0  0  0
    9.1317  -15.7557   18.4651 N   0  0  0  0  0  0  0  0  0  0  0  0
    9.8716  -15.9102   20.7695 C   0  0  0  0  0  0  0  0  0  0  0  0
    9.4517  -17.0590   21.0577 O   0  0  0  0  0  0  0  0  0  0  0  0
   10.9938  -15.4891   21.5744 N   0  0  0  0  0  0  0  0  0  0  0  0
   11.6452  -16.3223   22.5306 C   0  0  1  0  0  0  0  0  0  0  0  0
   13.0784  -16.0193   22.7766 C   0  0  0  0  0  0  0  0  0  0  0  0
   13.7047  -16.9329   23.7537 C   0  0  0  0  0  0  0  0  0  0  0  0
   13.0817  -17.8696   24.2986 O   0  0  0  0  0  0  0  0  0  0  0  0
   10.9004  -16.4194   23.8134 C   0  0  0  0  0  0  0  0  0  0  0  0
   10.1889  -15.3177   24.2383 O   0  0  0  0  0  0  0  0  0  0  0  0
   15.0478  -16.8033   24.1320 O   0  0  0  0  0  0  0  0  0  0  0  0
   10.9056  -17.4514   24.4967 O   0  0  0  0  0  0  0  0  0  0  0  0
  2  1  1  1
  2  3  1  0
  4  3  1  0
  5  4  2  0
  6  7  1  0
  6  5  1  0
  7  8  2  0
  8  4  1  0
  9 16  1  0
  9  2  1  0
 10  9  2  0
 12 11  1  0
 13 12  1  0
 13 14  1  1
 15 13  1  0
 15 16  1  6
 17 15  1  0
 18 17  2  0
 19 17  1  0
 20 19  1  0
 21 22  1  0
 20 21  1  1
 22 26  1  0
 23 22  2  0
 24 20  1  0
 24 25  1  0
 27 24  2  0
M  END
$$$$
