HID.pdb
     RDKit          3D

 27 27  0  0  1  0  0  0  0  0999 V2000
    9.9141  -18.0339   16.2392 N   0  0  0  0  0  0  0  0  0  0  0  0
    8.8321  -17.6094   17.0738 C   0  0  1  0  0  0  0  0  0  0  0  0
    7.9090  -18.7696   17.4200 C   0  0  0  0  0  0  0  0  0  0  0  0
    8.6407  -19.9262   17.9275 C   0  0  0  0  0  0  0  0  0  0  0  0
    9.9908  -19.9732   18.1794 C   0  0  0  0  0  0  0  0  0  0  0  0
   10.3155  -21.2094   18.6418 N   0  0  0  0  0  0  0  0  0  0  0  0
    9.1538  -21.8942   18.6629 C   0  0  0  0  0  0  0  0  0  0  0  0
    8.1341  -21.1262   18.2324 N   0  0  0  0  0  0  0  0  0  0  0  0
    9.3378  -16.9612   18.3401 C   0  0  0  0  0  0  0  0  0  0  0  0
   10.5254  -17.1103   18.6925 O   0  0  0  0  0  0  0  0  0  0  0  0
    6.6874  -12.2197   19.9287 C   0  0  0  0  0  0  0  0  0  0  0  0
    7.7686  -13.2468   19.6157 C   0  0  0  0  0  0  0  0  0  0  0  0
    7.8395  -14.3209   20.6446 C   0  0  2  0  0  0  0  0  0  0  0  0
    8.2877  -13.6212   21.9404 C   0  0  0  0  0  0  0  0  0  0  0  0
    8.7096  -15.4930   20.3147 C   0  0  2  0  0  0  0  0  0  0  0  0
    8.4298  -16.1931   19.0962 N   0  0  0  0  0  0  0  0  0  0  0  0
    9.1240  -16.3478   21.4148 C   0  0  0  0  0  0  0  0  0  0  0  0
    8.3211  -17.0623   22.0659 O   0  0  0  0  0  0  0  0  0  0  0  0
   10.4907  -16.4603   21.8662 N   0  0  0  0  0  0  0  0  0  0  0  0
   10.9227  -17.3657   22.8795 C   0  0  1  0  0  0  0  0  0  0  0  0
   11.7519  -18.5059   22.4115 C   0  0  0  0  0  0  0  0  0  0  0  0
   12.2560  -19.3476   23.5156 C   0  0  0  0  0  0  0  0  0  0  0  0
   13.3931  -19.1996   24.0132 O   0  0  0  0  0  0  0  0  0  0  0  0
   11.5719  -16.6796   24.0274 C   0  0  0  0  0  0  0  0  0  0  0  0
   11.8465  -15.3337   23.9109 O   0  0  0  0  0  0  0  0  0  0  0  0
   11.4824  -20.3724   24.0769 O   0  0  0  0  0  0  0  0  0  0  0  0
   11.8661  -17.2813   25.0682 O   0  0  0  0  0  0  0  0  0  0  0  0
  2  1  1  1
  2  3  1  0
  4  3  1  0
  5  4  2  0
  6  7  1  0
  6  5  1  0
  7  8  2  0
  8  4  1  0
  9 16  1  0
  9  2  1  0
 10  9  2  0
 12 11  1  0
 13 12  1  0
 13 14  1  1
 15 13  1  0
 15 16  1  6
 17 15  1  0
 18 17  2  0
 19 17  1  0
 20 19  1  0
 21 22  1  0
 20 21  1  6
 22 26  1  0
 23 22  2  0
 24 20  1  0
 24 25  1  0
 27 24  2  0
M  END
$$$$
