HID.pdb
     RDKit          3D

 27 27  0  0  1  0  0  0  0  0999 V2000
    7.1704  -17.6091   26.6296 N   0  0  0  0  0  0  0  0  0  0  0  0
    7.7737  -16.5046   25.9489 C   0  0  1  0  0  0  0  0  0  0  0  0
    9.2116  -16.2910   26.4015 C   0  0  0  0  0  0  0  0  0  0  0  0
    9.3361  -15.1831   27.3438 C   0  0  0  0  0  0  0  0  0  0  0  0
    8.3314  -14.3147   27.6972 C   0  0  0  0  0  0  0  0  0  0  0  0
    8.8143  -13.4158   28.5951 N   0  0  0  0  0  0  0  0  0  0  0  0
   10.1077  -13.7545   28.7723 C   0  0  0  0  0  0  0  0  0  0  0  0
   10.4332  -14.8230   28.0193 N   0  0  0  0  0  0  0  0  0  0  0  0
    7.7303  -16.6933   24.4515 C   0  0  0  0  0  0  0  0  0  0  0  0
    7.5179  -17.8226   23.9654 O   0  0  0  0  0  0  0  0  0  0  0  0
    7.6426  -12.1847   20.2410 C   0  0  0  0  0  0  0  0  0  0  0  0
    8.2270  -13.5204   20.6840 C   0  0  0  0  0  0  0  0  0  0  0  0
    7.3115  -14.2607   21.5956 C   0  0  2  0  0  0  0  0  0  0  0  0
    6.8809  -13.2405   22.6650 C   0  0  0  0  0  0  0  0  0  0  0  0
    7.8604  -15.5113   22.2076 C   0  0  2  0  0  0  0  0  0  0  0  0
    7.9359  -15.5613   23.6377 N   0  0  0  0  0  0  0  0  0  0  0  0
    8.9703  -16.1567   21.5264 C   0  0  0  0  0  0  0  0  0  0  0  0
    8.9573  -16.4238   20.2986 O   0  0  0  0  0  0  0  0  0  0  0  0
   10.1907  -16.5526   22.1885 N   0  0  0  0  0  0  0  0  0  0  0  0
   11.2821  -17.1924   21.5308 C   0  0  1  0  0  0  0  0  0  0  0  0
   12.3276  -16.2860   20.9906 C   0  0  0  0  0  0  0  0  0  0  0  0
   13.4294  -17.0062   20.3206 C   0  0  0  0  0  0  0  0  0  0  0  0
   13.2403  -17.8015   19.3749 O   0  0  0  0  0  0  0  0  0  0  0  0
   11.8940  -18.2734   22.3474 C   0  0  0  0  0  0  0  0  0  0  0  0
   11.3828  -18.5074   23.6062 O   0  0  0  0  0  0  0  0  0  0  0  0
   14.7656  -16.8397   20.7085 O   0  0  0  0  0  0  0  0  0  0  0  0
   12.8371  -18.9564   21.9279 O   0  0  0  0  0  0  0  0  0  0  0  0
  2  1  1  1
  2  3  1  0
  4  3  1  0
  5  4  2  0
  6  7  1  0
  6  5  1  0
  7  8  2  0
  8  4  1  0
  9 16  1  0
  9  2  1  0
 10  9  2  0
 12 11  1  0
 13 12  1  0
 13 14  1  1
 15 13  1  0
 15 16  1  1
 17 15  1  0
 18 17  2  0
 19 17  1  0
 20 19  1  0
 21 22  1  0
 20 21  1  1
 22 26  1  0
 23 22  2  0
 24 20  1  0
 24 25  1  0
 27 24  2  0
M  END
$$$$
