HID.pdb
     RDKit          3D

 27 27  0  0  1  0  0  0  0  0999 V2000
    7.5786  -16.0133   21.0378 N   0  0  0  0  0  0  0  0  0  0  0  0
    8.4499  -14.8786   21.0127 C   0  0  1  0  0  0  0  0  0  0  0  0
    7.7992  -13.6938   20.3120 C   0  0  0  0  0  0  0  0  0  0  0  0
    7.7081  -13.8868   18.8680 C   0  0  0  0  0  0  0  0  0  0  0  0
    8.2485  -13.0595   17.9131 C   0  0  0  0  0  0  0  0  0  0  0  0
    7.9627  -13.5551   16.6801 N   0  0  0  0  0  0  0  0  0  0  0  0
    7.2516  -14.6782   16.9078 C   0  0  0  0  0  0  0  0  0  0  0  0
    7.0921  -14.8877   18.2290 N   0  0  0  0  0  0  0  0  0  0  0  0
    8.8728  -14.4809   22.4064 C   0  0  0  0  0  0  0  0  0  0  0  0
    9.8298  -13.6981   22.5743 O   0  0  0  0  0  0  0  0  0  0  0  0
    7.2492  -12.2540   27.5366 C   0  0  0  0  0  0  0  0  0  0  0  0
    8.0687  -13.3993   26.9548 C   0  0  0  0  0  0  0  0  0  0  0  0
    7.5927  -13.8019   25.6026 C   0  0  2  0  0  0  0  0  0  0  0  0
    6.1467  -14.2904   25.8032 C   0  0  0  0  0  0  0  0  0  0  0  0
    8.4283  -14.8147   24.8843 C   0  0  2  0  0  0  0  0  0  0  0  0
    8.1551  -15.0201   23.4928 N   0  0  0  0  0  0  0  0  0  0  0  0
    8.7831  -16.0233   25.6096 C   0  0  0  0  0  0  0  0  0  0  0  0
    7.9745  -16.9646   25.8076 O   0  0  0  0  0  0  0  0  0  0  0  0
   10.0916  -16.2610   26.1714 N   0  0  0  0  0  0  0  0  0  0  0  0
   10.4750  -17.4766   26.8105 C   0  0  1  0  0  0  0  0  0  0  0  0
   11.8508  -17.9522   26.5145 C   0  0  0  0  0  0  0  0  0  0  0  0
   12.2051  -17.8477   25.0845 C   0  0  0  0  0  0  0  0  0  0  0  0
   11.5365  -18.3946   24.1809 O   0  0  0  0  0  0  0  0  0  0  0  0
   10.2281  -17.4603   28.2763 C   0  0  0  0  0  0  0  0  0  0  0  0
   10.3431  -18.6465   28.9693 O   0  0  0  0  0  0  0  0  0  0  0  0
   13.3229  -17.1224   24.6506 O   0  0  0  0  0  0  0  0  0  0  0  0
    9.9266  -16.4214   28.8777 O   0  0  0  0  0  0  0  0  0  0  0  0
  2  1  1  1
  2  3  1  0
  4  3  1  0
  5  4  2  0
  6  7  1  0
  6  5  1  0
  7  8  2  0
  8  4  1  0
  9 16  1  0
  9  2  1  0
 10  9  2  0
 12 11  1  0
 13 12  1  0
 13 14  1  1
 15 13  1  0
 15 16  1  6
 17 15  1  0
 18 17  2  0
 19 17  1  0
 20 19  1  0
 21 22  1  0
 20 21  1  1
 22 26  1  0
 23 22  2  0
 24 20  1  0
 24 25  1  0
 27 24  2  0
M  END
$$$$
