HID.pdb
     RDKit          3D

 27 27  0  0  1  0  0  0  0  0999 V2000
    6.5038  -14.5238   21.0151 N   0  0  0  0  0  0  0  0  0  0  0  0
    7.8840  -14.4422   21.3837 C   0  0  1  0  0  0  0  0  0  0  0  0
    8.6210  -13.4022   20.5510 C   0  0  0  0  0  0  0  0  0  0  0  0
    8.5391  -13.6798   19.1202 C   0  0  0  0  0  0  0  0  0  0  0  0
    7.9390  -12.8760   18.1809 C   0  0  0  0  0  0  0  0  0  0  0  0
    8.0581  -13.4550   16.9569 N   0  0  0  0  0  0  0  0  0  0  0  0
    8.7305  -14.6037   17.1743 C   0  0  0  0  0  0  0  0  0  0  0  0
    9.0261  -14.7489   18.4806 N   0  0  0  0  0  0  0  0  0  0  0  0
    8.0420  -14.1289   22.8521 C   0  0  0  0  0  0  0  0  0  0  0  0
    8.0993  -12.9445   23.2403 O   0  0  0  0  0  0  0  0  0  0  0  0
    6.3530  -11.8462   26.0491 C   0  0  0  0  0  0  0  0  0  0  0  0
    7.3252  -12.7609   25.3143 C   0  0  0  0  0  0  0  0  0  0  0  0
    7.3275  -14.1425   25.8698 C   0  0  2  0  0  0  0  0  0  0  0  0
    7.6890  -13.9877   27.3580 C   0  0  0  0  0  0  0  0  0  0  0  0
    8.2172  -15.1286   25.1800 C   0  0  2  0  0  0  0  0  0  0  0  0
    8.1208  -15.2100   23.7526 N   0  0  0  0  0  0  0  0  0  0  0  0
    8.4366  -16.4053   25.8391 C   0  0  0  0  0  0  0  0  0  0  0  0
    7.9978  -17.4928   25.3874 O   0  0  0  0  0  0  0  0  0  0  0  0
    9.1758  -16.5503   27.0708 N   0  0  0  0  0  0  0  0  0  0  0  0
    9.9735  -17.6877   27.3916 C   0  0  1  0  0  0  0  0  0  0  0  0
   11.0145  -18.0448   26.3938 C   0  0  0  0  0  0  0  0  0  0  0  0
   10.4732  -18.7665   25.2243 C   0  0  0  0  0  0  0  0  0  0  0  0
    9.9586  -19.9024   25.3101 O   0  0  0  0  0  0  0  0  0  0  0  0
   10.5564  -17.6168   28.7572 C   0  0  0  0  0  0  0  0  0  0  0  0
   10.8998  -18.7974   29.3808 O   0  0  0  0  0  0  0  0  0  0  0  0
   10.5044  -18.2159   23.9361 O   0  0  0  0  0  0  0  0  0  0  0  0
   10.7368  -16.5381   29.3366 O   0  0  0  0  0  0  0  0  0  0  0  0
  2  1  1  6
  2  3  1  0
  4  3  1  0
  5  4  2  0
  6  7  1  0
  6  5  1  0
  7  8  2  0
  8  4  1  0
  9 16  1  0
  9  2  1  0
 10  9  2  0
 12 11  1  0
 13 12  1  0
 13 14  1  1
 15 13  1  0
 15 16  1  6
 17 15  1  0
 18 17  2  0
 19 17  1  0
 20 19  1  0
 21 22  1  0
 20 21  1  6
 22 26  1  0
 23 22  2  0
 24 20  1  0
 24 25  1  0
 27 24  2  0
M  END
$$$$
