HID.pdb
     RDKit          3D

 27 27  0  0  1  0  0  0  0  0999 V2000
    9.9663  -17.7769   16.3553 N   0  0  0  0  0  0  0  0  0  0  0  0
    9.0175  -17.7557   17.4261 C   0  0  1  0  0  0  0  0  0  0  0  0
    8.6782  -19.1637   17.8960 C   0  0  0  0  0  0  0  0  0  0  0  0
    7.9849  -19.9371   16.8704 C   0  0  0  0  0  0  0  0  0  0  0  0
    8.5796  -20.7839   15.9661 C   0  0  0  0  0  0  0  0  0  0  0  0
    7.6228  -21.3281   15.1687 N   0  0  0  0  0  0  0  0  0  0  0  0
    6.4600  -20.8011   15.6035 C   0  0  0  0  0  0  0  0  0  0  0  0
    6.6685  -19.9579   16.6332 N   0  0  0  0  0  0  0  0  0  0  0  0
    9.5210  -16.9347   18.5889 C   0  0  0  0  0  0  0  0  0  0  0  0
   10.7463  -16.8190   18.7937 O   0  0  0  0  0  0  0  0  0  0  0  0
    6.8167  -12.2418   20.0412 C   0  0  0  0  0  0  0  0  0  0  0  0
    7.8550  -13.3175   19.7471 C   0  0  0  0  0  0  0  0  0  0  0  0
    7.9184  -14.3472   20.8209 C   0  0  2  0  0  0  0  0  0  0  0  0
    8.2959  -13.5831   22.1028 C   0  0  0  0  0  0  0  0  0  0  0  0
    8.8347  -15.5039   20.5715 C   0  0  2  0  0  0  0  0  0  0  0  0
    8.5672  -16.3140   19.4202 N   0  0  0  0  0  0  0  0  0  0  0  0
    9.3042  -16.2459   21.7298 C   0  0  0  0  0  0  0  0  0  0  0  0
    8.6292  -17.1503   22.2825 O   0  0  0  0  0  0  0  0  0  0  0  0
   10.5848  -16.0191   22.3567 N   0  0  0  0  0  0  0  0  0  0  0  0
   11.1220  -16.8410   23.3905 C   0  0  1  0  0  0  0  0  0  0  0  0
   12.6008  -16.9821   23.3963 C   0  0  0  0  0  0  0  0  0  0  0  0
   13.0989  -17.8186   24.5071 C   0  0  0  0  0  0  0  0  0  0  0  0
   12.5531  -18.8921   24.8420 O   0  0  0  0  0  0  0  0  0  0  0  0
   10.6240  -16.4687   24.7408 C   0  0  0  0  0  0  0  0  0  0  0  0
    9.9555  -15.2712   24.8809 O   0  0  0  0  0  0  0  0  0  0  0  0
   14.2241  -17.4555   25.2593 O   0  0  0  0  0  0  0  0  0  0  0  0
   10.7940  -17.1990   25.7254 O   0  0  0  0  0  0  0  0  0  0  0  0
  2  1  1  6
  2  3  1  0
  4  3  1  0
  5  4  2  0
  6  7  1  0
  6  5  1  0
  7  8  2  0
  8  4  1  0
  9 16  1  0
  9  2  1  0
 10  9  2  0
 12 11  1  0
 13 12  1  0
 13 14  1  1
 15 13  1  0
 15 16  1  6
 17 15  1  0
 18 17  2  0
 19 17  1  0
 20 19  1  0
 21 22  1  0
 20 21  1  1
 22 26  1  0
 23 22  2  0
 24 20  1  0
 24 25  1  0
 27 24  2  0
M  END
$$$$
