HID.pdb
     RDKit          3D

 27 27  0  0  1  0  0  0  0  0999 V2000
    7.3600  -15.6024   21.5064 N   0  0  0  0  0  0  0  0  0  0  0  0
    8.6562  -14.9967   21.5189 C   0  0  1  0  0  0  0  0  0  0  0  0
    8.7017  -13.7627   20.6281 C   0  0  0  0  0  0  0  0  0  0  0  0
    8.4819  -14.0871   19.2220 C   0  0  0  0  0  0  0  0  0  0  0  0
    8.3424  -15.3521   18.7035 C   0  0  0  0  0  0  0  0  0  0  0  0
    8.1528  -15.2652   17.3604 N   0  0  0  0  0  0  0  0  0  0  0  0
    8.1805  -13.9452   17.0852 C   0  0  0  0  0  0  0  0  0  0  0  0
    8.3792  -13.2237   18.2053 N   0  0  0  0  0  0  0  0  0  0  0  0
    9.0776  -14.6318   22.9220 C   0  0  0  0  0  0  0  0  0  0  0  0
   10.2395  -14.2368   23.1475 O   0  0  0  0  0  0  0  0  0  0  0  0
    6.0445  -11.5181   26.0339 C   0  0  0  0  0  0  0  0  0  0  0  0
    7.1326  -12.3279   25.3396 C   0  0  0  0  0  0  0  0  0  0  0  0
    7.4354  -13.5964   26.0583 C   0  0  2  0  0  0  0  0  0  0  0  0
    8.0022  -13.1708   27.4247 C   0  0  0  0  0  0  0  0  0  0  0  0
    8.3438  -14.5533   25.3519 C   0  0  2  0  0  0  0  0  0  0  0  0
    8.1218  -14.7529   23.9505 N   0  0  0  0  0  0  0  0  0  0  0  0
    8.7415  -15.7518   26.0718 C   0  0  0  0  0  0  0  0  0  0  0  0
    7.9583  -16.7098   26.2908 O   0  0  0  0  0  0  0  0  0  0  0  0
   10.0675  -15.9595   26.6036 N   0  0  0  0  0  0  0  0  0  0  0  0
   10.4589  -17.1179   27.3371 C   0  0  1  0  0  0  0  0  0  0  0  0
   11.6727  -17.8144   26.8388 C   0  0  0  0  0  0  0  0  0  0  0  0
   11.3657  -18.9220   25.9112 C   0  0  0  0  0  0  0  0  0  0  0  0
   10.7641  -19.9572   26.2703 O   0  0  0  0  0  0  0  0  0  0  0  0
   10.5587  -16.8684   28.7991 C   0  0  0  0  0  0  0  0  0  0  0  0
   10.6569  -17.9562   29.6402 O   0  0  0  0  0  0  0  0  0  0  0  0
   11.7340  -18.8785   24.5598 O   0  0  0  0  0  0  0  0  0  0  0  0
   10.5555  -15.7235   29.2694 O   0  0  0  0  0  0  0  0  0  0  0  0
  2  1  1  1
  2  3  1  0
  4  3  1  0
  5  4  2  0
  6  7  1  0
  6  5  1  0
  7  8  2  0
  8  4  1  0
  9 16  1  0
  9  2  1  0
 10  9  2  0
 12 11  1  0
 13 12  1  0
 13 14  1  1
 15 13  1  0
 15 16  1  6
 17 15  1  0
 18 17  2  0
 19 17  1  0
 20 19  1  0
 21 22  1  0
 20 21  1  6
 22 26  1  0
 23 22  2  0
 24 20  1  0
 24 25  1  0
 27 24  2  0
M  END
$$$$
