HID.pdb
     RDKit          3D

 27 27  0  0  1  0  0  0  0  0999 V2000
    7.1942  -15.5224   20.9935 N   0  0  0  0  0  0  0  0  0  0  0  0
    8.5417  -15.0599   21.1274 C   0  0  1  0  0  0  0  0  0  0  0  0
    8.7650  -13.7675   20.3541 C   0  0  0  0  0  0  0  0  0  0  0  0
    8.3346  -13.8736   18.9633 C   0  0  0  0  0  0  0  0  0  0  0  0
    7.3284  -13.1433   18.3777 C   0  0  0  0  0  0  0  0  0  0  0  0
    7.2108  -13.5111   17.0745 N   0  0  0  0  0  0  0  0  0  0  0  0
    8.1502  -14.4611   16.8902 C   0  0  0  0  0  0  0  0  0  0  0  0
    8.8357  -14.6877   18.0276 N   0  0  0  0  0  0  0  0  0  0  0  0
    8.9114  -14.8600   22.5775 C   0  0  0  0  0  0  0  0  0  0  0  0
   10.0405  -14.4272   22.8852 O   0  0  0  0  0  0  0  0  0  0  0  0
    6.0805  -11.8957   25.7932 C   0  0  0  0  0  0  0  0  0  0  0  0
    7.1377  -12.7509   25.1055 C   0  0  0  0  0  0  0  0  0  0  0  0
    7.2366  -14.1116   25.7023 C   0  0  2  0  0  0  0  0  0  0  0  0
    7.7072  -13.8928   27.1515 C   0  0  0  0  0  0  0  0  0  0  0  0
    8.1068  -15.0883   24.9753 C   0  0  2  0  0  0  0  0  0  0  0  0
    7.9460  -15.1764   23.5542 N   0  0  0  0  0  0  0  0  0  0  0  0
    8.3735  -16.3596   25.6276 C   0  0  0  0  0  0  0  0  0  0  0  0
    7.4636  -17.1105   26.0605 O   0  0  0  0  0  0  0  0  0  0  0  0
    9.7019  -16.8827   25.8418 N   0  0  0  0  0  0  0  0  0  0  0  0
    9.9757  -18.1096   26.5148 C   0  0  1  0  0  0  0  0  0  0  0  0
   10.9964  -18.9793   25.8757 C   0  0  0  0  0  0  0  0  0  0  0  0
   12.2011  -18.2403   25.4467 C   0  0  0  0  0  0  0  0  0  0  0  0
   13.1203  -17.9305   26.2352 O   0  0  0  0  0  0  0  0  0  0  0  0
   10.2749  -17.9213   27.9586 C   0  0  0  0  0  0  0  0  0  0  0  0
   10.3471  -19.0406   28.7601 O   0  0  0  0  0  0  0  0  0  0  0  0
   12.3878  -17.8382   24.1174 O   0  0  0  0  0  0  0  0  0  0  0  0
   10.4574  -16.7992   28.4482 O   0  0  0  0  0  0  0  0  0  0  0  0
  2  1  1  1
  2  3  1  0
  4  3  1  0
  5  4  2  0
  6  7  1  0
  6  5  1  0
  7  8  2  0
  8  4  1  0
  9 16  1  0
  9  2  1  0
 10  9  2  0
 12 11  1  0
 13 12  1  0
 13 14  1  1
 15 13  1  0
 15 16  1  6
 17 15  1  0
 18 17  2  0
 19 17  1  0
 20 19  1  0
 21 22  1  0
 20 21  1  6
 22 26  1  0
 23 22  2  0
 24 20  1  0
 24 25  1  0
 27 24  2  0
M  END
$$$$
