HID.pdb
     RDKit          3D

 27 27  0  0  1  0  0  0  0  0999 V2000
   10.1841  -14.3164   20.7035 N   0  0  0  0  0  0  0  0  0  0  0  0
    8.9832  -14.1172   21.4555 C   0  0  1  0  0  0  0  0  0  0  0  0
    7.7931  -14.7969   20.7923 C   0  0  0  0  0  0  0  0  0  0  0  0
    7.6348  -14.3978   19.3972 C   0  0  0  0  0  0  0  0  0  0  0  0
    7.6686  -13.1082   18.9236 C   0  0  0  0  0  0  0  0  0  0  0  0
    7.4854  -13.1228   17.5769 N   0  0  0  0  0  0  0  0  0  0  0  0
    7.3432  -14.4246   17.2545 C   0  0  0  0  0  0  0  0  0  0  0  0
    7.4320  -15.2044   18.3494 N   0  0  0  0  0  0  0  0  0  0  0  0
    9.1343  -14.6159   22.8725 C   0  0  0  0  0  0  0  0  0  0  0  0
   10.2306  -15.0594   23.2700 O   0  0  0  0  0  0  0  0  0  0  0  0
    5.8172  -11.4855   26.1344 C   0  0  0  0  0  0  0  0  0  0  0  0
    6.9898  -12.2296   25.5075 C   0  0  0  0  0  0  0  0  0  0  0  0
    6.9579  -13.6873   25.8100 C   0  0  2  0  0  0  0  0  0  0  0  0
    7.0268  -13.7914   27.3443 C   0  0  0  0  0  0  0  0  0  0  0  0
    8.0094  -14.5210   25.1473 C   0  0  2  0  0  0  0  0  0  0  0  0
    8.0058  -14.5613   23.7149 N   0  0  0  0  0  0  0  0  0  0  0  0
    8.3602  -15.7812   25.7809 C   0  0  0  0  0  0  0  0  0  0  0  0
    8.4087  -15.9297   27.0278 O   0  0  0  0  0  0  0  0  0  0  0  0
    8.6858  -16.9801   25.0455 N   0  0  0  0  0  0  0  0  0  0  0  0
    9.0728  -18.2088   25.6566 C   0  0  1  0  0  0  0  0  0  0  0  0
    9.4673  -19.2948   24.7230 C   0  0  0  0  0  0  0  0  0  0  0  0
   10.0936  -18.7939   23.4827 C   0  0  0  0  0  0  0  0  0  0  0  0
   11.3322  -18.7587   23.3176 O   0  0  0  0  0  0  0  0  0  0  0  0
   10.0993  -18.0277   26.7165 C   0  0  0  0  0  0  0  0  0  0  0  0
   10.4876  -19.1332   27.4428 O   0  0  0  0  0  0  0  0  0  0  0  0
    9.3296  -18.3234   22.4062 O   0  0  0  0  0  0  0  0  0  0  0  0
   10.6045  -16.9235   26.9565 O   0  0  0  0  0  0  0  0  0  0  0  0
  2  1  1  6
  2  3  1  0
  4  3  1  0
  5  4  2  0
  6  7  1  0
  6  5  1  0
  7  8  2  0
  8  4  1  0
  9 16  1  0
  9  2  1  0
 10  9  2  0
 12 11  1  0
 13 12  1  0
 13 14  1  1
 15 13  1  0
 15 16  1  6
 17 15  1  0
 18 17  2  0
 19 17  1  0
 20 19  1  0
 21 22  1  0
 20 21  1  6
 22 26  1  0
 23 22  2  0
 24 20  1  0
 24 25  1  0
 27 24  2  0
M  END
$$$$
