HID.pdb
     RDKit          3D

 27 27  0  0  1  0  0  0  0  0999 V2000
   10.0573  -15.1025   20.2987 N   0  0  0  0  0  0  0  0  0  0  0  0
    8.9590  -14.5169   21.0044 C   0  0  1  0  0  0  0  0  0  0  0  0
    7.6243  -14.9518   20.4149 C   0  0  0  0  0  0  0  0  0  0  0  0
    7.4959  -14.5866   19.0074 C   0  0  0  0  0  0  0  0  0  0  0  0
    7.5604  -13.3106   18.5013 C   0  0  0  0  0  0  0  0  0  0  0  0
    7.3991  -13.3571   17.1525 N   0  0  0  0  0  0  0  0  0  0  0  0
    7.2389  -14.6642   16.8615 C   0  0  0  0  0  0  0  0  0  0  0  0
    7.2959  -15.4166   17.9776 N   0  0  0  0  0  0  0  0  0  0  0  0
    9.0062  -14.8594   22.4741 C   0  0  0  0  0  0  0  0  0  0  0  0
    9.8144  -15.7112   22.8961 O   0  0  0  0  0  0  0  0  0  0  0  0
    6.8645  -11.7589   27.5140 C   0  0  0  0  0  0  0  0  0  0  0  0
    7.6130  -12.9479   26.9243 C   0  0  0  0  0  0  0  0  0  0  0  0
    7.3917  -13.0813   25.4578 C   0  0  2  0  0  0  0  0  0  0  0  0
    5.8750  -13.2809   25.2864 C   0  0  0  0  0  0  0  0  0  0  0  0
    8.1762  -14.1529   24.7677 C   0  0  2  0  0  0  0  0  0  0  0  0
    8.1155  -14.1895   23.3366 N   0  0  0  0  0  0  0  0  0  0  0  0
    8.2180  -15.4615   25.3990 C   0  0  0  0  0  0  0  0  0  0  0  0
    7.3804  -16.3659   25.1549 O   0  0  0  0  0  0  0  0  0  0  0  0
    9.2198  -15.8501   26.3632 N   0  0  0  0  0  0  0  0  0  0  0  0
    9.5719  -17.2028   26.6446 C   0  0  1  0  0  0  0  0  0  0  0  0
   10.6206  -17.7890   25.7711 C   0  0  0  0  0  0  0  0  0  0  0  0
   10.2193  -19.0757   25.1670 C   0  0  0  0  0  0  0  0  0  0  0  0
    9.0927  -19.5856   25.3493 O   0  0  0  0  0  0  0  0  0  0  0  0
    9.8947  -17.4286   28.0780 C   0  0  0  0  0  0  0  0  0  0  0  0
   10.3101  -16.3502   28.8296 O   0  0  0  0  0  0  0  0  0  0  0  0
   11.0857  -19.8092   24.3454 O   0  0  0  0  0  0  0  0  0  0  0  0
    9.8000  -18.5458   28.6021 O   0  0  0  0  0  0  0  0  0  0  0  0
  2  1  1  6
  2  3  1  0
  4  3  1  0
  5  4  2  0
  6  7  1  0
  6  5  1  0
  7  8  2  0
  8  4  1  0
  9 16  1  0
  9  2  1  0
 10  9  2  0
 12 11  1  0
 13 12  1  0
 13 14  1  1
 15 13  1  0
 15 16  1  6
 17 15  1  0
 18 17  2  0
 19 17  1  0
 20 19  1  0
 21 22  1  0
 20 21  1  6
 22 26  1  0
 23 22  2  0
 24 20  1  0
 24 25  1  0
 27 24  2  0
M  END
$$$$
