HID.pdb
     RDKit          3D

 27 27  0  0  1  0  0  0  0  0999 V2000
    9.8923  -15.4804   20.5042 N   0  0  0  0  0  0  0  0  0  0  0  0
    8.7949  -15.8507   21.3443 C   0  0  1  0  0  0  0  0  0  0  0  0
    8.3981  -17.3051   21.1316 C   0  0  0  0  0  0  0  0  0  0  0  0
    7.9122  -17.5537   19.7778 C   0  0  0  0  0  0  0  0  0  0  0  0
    8.6843  -17.5797   18.6413 C   0  0  0  0  0  0  0  0  0  0  0  0
    7.8906  -17.8399   17.5689 N   0  0  0  0  0  0  0  0  0  0  0  0
    6.6466  -17.9677   18.0737 C   0  0  0  0  0  0  0  0  0  0  0  0
    6.6491  -17.7962   19.4099 N   0  0  0  0  0  0  0  0  0  0  0  0
    9.1150  -15.6144   22.8008 C   0  0  0  0  0  0  0  0  0  0  0  0
   10.2887  -15.7166   23.2117 O   0  0  0  0  0  0  0  0  0  0  0  0
    6.1217  -11.7973   25.4999 C   0  0  0  0  0  0  0  0  0  0  0  0
    7.1828  -12.7321   24.9324 C   0  0  0  0  0  0  0  0  0  0  0  0
    7.2485  -14.0234   25.6709 C   0  0  2  0  0  0  0  0  0  0  0  0
    7.6724  -13.6572   27.1047 C   0  0  0  0  0  0  0  0  0  0  0  0
    8.1330  -15.0762   25.0800 C   0  0  2  0  0  0  0  0  0  0  0  0
    8.0526  -15.2790   23.6638 N   0  0  0  0  0  0  0  0  0  0  0  0
    8.3274  -16.2940   25.8493 C   0  0  0  0  0  0  0  0  0  0  0  0
    7.3823  -17.0549   26.1762 O   0  0  0  0  0  0  0  0  0  0  0  0
    9.6177  -16.7479   26.3115 N   0  0  0  0  0  0  0  0  0  0  0  0
    9.8328  -17.9888   26.9799 C   0  0  1  0  0  0  0  0  0  0  0  0
   10.7093  -18.9568   26.2717 C   0  0  0  0  0  0  0  0  0  0  0  0
   11.9299  -18.3361   25.7182 C   0  0  0  0  0  0  0  0  0  0  0  0
   11.9120  -17.5811   24.7221 O   0  0  0  0  0  0  0  0  0  0  0  0
   10.2713  -17.8162   28.3898 C   0  0  0  0  0  0  0  0  0  0  0  0
   10.4866  -16.5356   28.8526 O   0  0  0  0  0  0  0  0  0  0  0  0
   13.1935  -18.5585   26.2818 O   0  0  0  0  0  0  0  0  0  0  0  0
   10.4443  -18.7819   29.1443 O   0  0  0  0  0  0  0  0  0  0  0  0
  2  1  1  6
  2  3  1  0
  4  3  1  0
  5  4  2  0
  6  7  1  0
  6  5  1  0
  7  8  2  0
  8  4  1  0
  9 16  1  0
  9  2  1  0
 10  9  2  0
 12 11  1  0
 13 12  1  0
 13 14  1  1
 15 13  1  0
 15 16  1  6
 17 15  1  0
 18 17  2  0
 19 17  1  0
 20 19  1  0
 21 22  1  0
 20 21  1  6
 22 26  1  0
 23 22  2  0
 24 20  1  0
 24 25  1  0
 27 24  2  0
M  END
$$$$
