HID.pdb
     RDKit          3D

 27 27  0  0  1  0  0  0  0  0999 V2000
    8.6305  -15.2217   19.9397 N   0  0  0  0  0  0  0  0  0  0  0  0
    7.9115  -15.7105   21.0761 C   0  0  1  0  0  0  0  0  0  0  0  0
    7.7525  -17.2238   21.0243 C   0  0  0  0  0  0  0  0  0  0  0  0
    7.1220  -17.6718   19.7864 C   0  0  0  0  0  0  0  0  0  0  0  0
    5.7705  -17.6968   19.5386 C   0  0  0  0  0  0  0  0  0  0  0  0
    5.5559  -18.1733   18.2838 N   0  0  0  0  0  0  0  0  0  0  0  0
    6.7841  -18.4302   17.7895 C   0  0  0  0  0  0  0  0  0  0  0  0
    7.7388  -18.1300   18.6913 N   0  0  0  0  0  0  0  0  0  0  0  0
    8.5862  -15.3098   22.3659 C   0  0  0  0  0  0  0  0  0  0  0  0
    9.8188  -15.4485   22.5009 O   0  0  0  0  0  0  0  0  0  0  0  0
    7.2118  -11.7849   27.3573 C   0  0  0  0  0  0  0  0  0  0  0  0
    7.9602  -12.9765   26.7726 C   0  0  0  0  0  0  0  0  0  0  0  0
    7.4849  -13.3236   25.4048 C   0  0  2  0  0  0  0  0  0  0  0  0
    5.9798  -13.6107   25.5519 C   0  0  0  0  0  0  0  0  0  0  0  0
    8.2023  -14.4464   24.7231 C   0  0  2  0  0  0  0  0  0  0  0  0
    7.7814  -14.7810   23.3949 N   0  0  0  0  0  0  0  0  0  0  0  0
    8.5801  -15.5896   25.5374 C   0  0  0  0  0  0  0  0  0  0  0  0
    7.7745  -16.5007   25.8533 O   0  0  0  0  0  0  0  0  0  0  0  0
    9.9104  -15.7908   26.0610 N   0  0  0  0  0  0  0  0  0  0  0  0
   10.2926  -16.9117   26.8550 C   0  0  1  0  0  0  0  0  0  0  0  0
   11.5840  -17.5481   26.4892 C   0  0  0  0  0  0  0  0  0  0  0  0
   11.6310  -17.9975   25.0831 C   0  0  0  0  0  0  0  0  0  0  0  0
   10.6172  -18.3855   24.4634 O   0  0  0  0  0  0  0  0  0  0  0  0
   10.2396  -16.6302   28.3137 C   0  0  0  0  0  0  0  0  0  0  0  0
   10.4201  -17.6816   29.1869 O   0  0  0  0  0  0  0  0  0  0  0  0
   12.8266  -18.0161   24.3522 O   0  0  0  0  0  0  0  0  0  0  0  0
   10.0401  -15.4906   28.7535 O   0  0  0  0  0  0  0  0  0  0  0  0
  2  1  1  6
  2  3  1  0
  4  3  1  0
  5  4  2  0
  6  7  1  0
  6  5  1  0
  7  8  2  0
  8  4  1  0
  9 16  1  0
  9  2  1  0
 10  9  2  0
 12 11  1  0
 13 12  1  0
 13 14  1  1
 15 13  1  0
 15 16  1  6
 17 15  1  0
 18 17  2  0
 19 17  1  0
 20 19  1  0
 21 22  1  0
 20 21  1  6
 22 26  1  0
 23 22  2  0
 24 20  1  0
 24 25  1  0
 27 24  2  0
M  END
$$$$
