HID.pdb
     RDKit          3D

 27 27  0  0  1  0  0  0  0  0999 V2000
    9.1063  -14.2687   20.2897 N   0  0  0  0  0  0  0  0  0  0  0  0
    8.1690  -14.8314   21.2128 C   0  0  1  0  0  0  0  0  0  0  0  0
    7.7799  -16.2487   20.8152 C   0  0  0  0  0  0  0  0  0  0  0  0
    7.3063  -16.3261   19.4367 C   0  0  0  0  0  0  0  0  0  0  0  0
    6.6334  -15.3349   18.7634 C   0  0  0  0  0  0  0  0  0  0  0  0
    6.3536  -15.7621   17.5038 N   0  0  0  0  0  0  0  0  0  0  0  0
    6.8627  -17.0090   17.4332 C   0  0  0  0  0  0  0  0  0  0  0  0
    7.4414  -17.3596   18.5981 N   0  0  0  0  0  0  0  0  0  0  0  0
    8.7147  -14.8255   22.6206 C   0  0  0  0  0  0  0  0  0  0  0  0
    9.9356  -14.9836   22.8230 O   0  0  0  0  0  0  0  0  0  0  0  0
    6.1134  -11.5680   26.2531 C   0  0  0  0  0  0  0  0  0  0  0  0
    7.2082  -12.3263   25.5127 C   0  0  0  0  0  0  0  0  0  0  0  0
    7.3157  -13.7417   25.9627 C   0  0  2  0  0  0  0  0  0  0  0  0
    7.8938  -13.6781   27.3879 C   0  0  0  0  0  0  0  0  0  0  0  0
    8.1073  -14.6553   25.0805 C   0  0  2  0  0  0  0  0  0  0  0  0
    7.8047  -14.6371   23.6801 N   0  0  0  0  0  0  0  0  0  0  0  0
    8.4366  -15.9703   25.6049 C   0  0  0  0  0  0  0  0  0  0  0  0
    7.5790  -16.8724   25.7774 O   0  0  0  0  0  0  0  0  0  0  0  0
    9.7734  -16.3685   25.9775 N   0  0  0  0  0  0  0  0  0  0  0  0
   10.1013  -17.6442   26.5235 C   0  0  1  0  0  0  0  0  0  0  0  0
   11.3951  -18.2213   26.0766 C   0  0  0  0  0  0  0  0  0  0  0  0
   11.5046  -18.3303   24.6077 C   0  0  0  0  0  0  0  0  0  0  0  0
   10.5395  -18.6487   23.8799 O   0  0  0  0  0  0  0  0  0  0  0  0
    9.9923  -17.6825   28.0056 C   0  0  0  0  0  0  0  0  0  0  0  0
   10.0745  -18.9072   28.6331 O   0  0  0  0  0  0  0  0  0  0  0  0
   12.7086  -18.0811   23.9354 O   0  0  0  0  0  0  0  0  0  0  0  0
    9.8320  -16.6551   28.6768 O   0  0  0  0  0  0  0  0  0  0  0  0
  2  1  1  6
  2  3  1  0
  4  3  1  0
  5  4  2  0
  6  7  1  0
  6  5  1  0
  7  8  2  0
  8  4  1  0
  9 16  1  0
  9  2  1  0
 10  9  2  0
 12 11  1  0
 13 12  1  0
 13 14  1  1
 15 13  1  0
 15 16  1  6
 17 15  1  0
 18 17  2  0
 19 17  1  0
 20 19  1  0
 21 22  1  0
 20 21  1  1
 22 26  1  0
 23 22  2  0
 24 20  1  0
 24 25  1  0
 27 24  2  0
M  END
$$$$
