HID.pdb
     RDKit          3D

 27 27  0  0  1  0  0  0  0  0999 V2000
   10.0201  -17.5125   16.2493 N   0  0  0  0  0  0  0  0  0  0  0  0
    9.1882  -17.7327   17.3924 C   0  0  1  0  0  0  0  0  0  0  0  0
    9.1436  -19.2066   17.7716 C   0  0  0  0  0  0  0  0  0  0  0  0
    8.4243  -20.0095   16.7873 C   0  0  0  0  0  0  0  0  0  0  0  0
    7.8296  -19.5324   15.6440 C   0  0  0  0  0  0  0  0  0  0  0  0
    7.2568  -20.5671   14.9742 N   0  0  0  0  0  0  0  0  0  0  0  0
    7.5140  -21.6581   15.7241 C   0  0  0  0  0  0  0  0  0  0  0  0
    8.2202  -21.3311   16.8237 N   0  0  0  0  0  0  0  0  0  0  0  0
    9.6506  -16.9134   18.5733 C   0  0  0  0  0  0  0  0  0  0  0  0
   10.8689  -16.7663   18.7988 O   0  0  0  0  0  0  0  0  0  0  0  0
    6.5777  -12.4787   20.2124 C   0  0  0  0  0  0  0  0  0  0  0  0
    7.6990  -13.4467   19.8555 C   0  0  0  0  0  0  0  0  0  0  0  0
    7.8985  -14.4873   20.9018 C   0  0  2  0  0  0  0  0  0  0  0  0
    8.2741  -13.7184   22.1814 C   0  0  0  0  0  0  0  0  0  0  0  0
    8.8932  -15.5593   20.5837 C   0  0  2  0  0  0  0  0  0  0  0  0
    8.6671  -16.3305   19.3974 N   0  0  0  0  0  0  0  0  0  0  0  0
    9.4351  -16.3194   21.6979 C   0  0  0  0  0  0  0  0  0  0  0  0
    8.9130  -17.3818   22.1195 O   0  0  0  0  0  0  0  0  0  0  0  0
   10.6198  -15.9319   22.4264 N   0  0  0  0  0  0  0  0  0  0  0  0
   11.1369  -16.6491   23.5450 C   0  0  1  0  0  0  0  0  0  0  0  0
   12.5813  -16.4463   23.8265 C   0  0  0  0  0  0  0  0  0  0  0  0
   13.4439  -16.7253   22.6605 C   0  0  0  0  0  0  0  0  0  0  0  0
   13.3787  -17.7916   22.0114 O   0  0  0  0  0  0  0  0  0  0  0  0
   10.3287  -16.4561   24.7776 C   0  0  0  0  0  0  0  0  0  0  0  0
   10.6121  -17.2448   25.8722 O   0  0  0  0  0  0  0  0  0  0  0  0
   14.3964  -15.8026   22.2075 O   0  0  0  0  0  0  0  0  0  0  0  0
    9.4218  -15.6162   24.8408 O   0  0  0  0  0  0  0  0  0  0  0  0
  2  1  1  6
  2  3  1  0
  4  3  1  0
  5  4  2  0
  6  7  1  0
  6  5  1  0
  7  8  2  0
  8  4  1  0
  9 16  1  0
  9  2  1  0
 10  9  2  0
 12 11  1  0
 13 12  1  0
 13 14  1  1
 15 13  1  0
 15 16  1  6
 17 15  1  0
 18 17  2  0
 19 17  1  0
 20 19  1  0
 21 22  1  0
 20 21  1  1
 22 26  1  0
 23 22  2  0
 24 20  1  0
 24 25  1  0
 27 24  2  0
M  END
$$$$
