QRK.pdb
     RDKit          3D

 30 29  0  0  1  0  0  0  0  0999 V2000
    1.7177  -19.5000   20.1013 N   0  0  0  0  0  0  0  0  0  0  0  0
    2.2118  -19.2095   21.3990 C   0  0  0  0  0  0  0  0  0  0  0  0
    1.6716  -18.3144   22.0878 O   0  0  0  0  0  0  0  0  0  0  0  0
    3.3506  -19.9599   21.9219 C   0  0  0  0  0  0  0  0  0  0  0  0
    4.4956  -19.1258   22.4100 C   0  0  0  0  0  0  0  0  0  0  0  0
    5.4534  -18.6966   21.3343 C   0  0  2  0  0  0  0  0  0  0  0  0
    6.0965  -19.8212   20.6882 N   0  0  0  0  0  0  0  0  0  0  0  0
    6.5221  -17.8628   21.9598 C   0  0  0  0  0  0  0  0  0  0  0  0
    7.6416  -18.3304   22.2378 O   0  0  0  0  0  0  0  0  0  0  0  0
    9.8502  -14.2731   18.8661 N   0  0  0  0  0  0  0  0  0  0  0  0
    8.9053  -13.2108   18.9542 C   0  0  0  0  0  0  0  0  0  0  0  0
    9.2527  -11.9841   18.8979 N   0  0  0  0  0  0  0  0  0  0  0  0
    7.5272  -13.5251   19.1107 N   0  0  0  0  0  0  0  0  0  0  0  0
    7.0973  -14.1845   20.3048 C   0  0  0  0  0  0  0  0  0  0  0  0
    7.6212  -13.5191   21.5604 C   0  0  0  0  0  0  0  0  0  0  0  0
    7.0509  -14.1912   22.7907 C   0  0  0  0  0  0  0  0  0  0  0  0
    7.3068  -15.6515   22.7952 C   0  0  2  0  0  0  0  0  0  0  0  0
    6.3222  -16.5015   22.2700 N   0  0  0  0  0  0  0  0  0  0  0  0
    7.6330  -16.0680   24.1824 C   0  0  0  0  0  0  0  0  0  0  0  0
    6.7372  -16.0230   25.0579 O   0  0  0  0  0  0  0  0  0  0  0  0
    8.5533  -11.2205   18.9735 N   0  0  0  0  0  0  0  0  0  0  0  0
    8.9359  -16.5062   24.5000 C   0  0  1  0  0  0  0  0  0  0  0  0
    9.2483  -16.9363   25.9024 C   0  0  0  0  0  0  0  0  0  0  0  0
    8.9088  -18.3564   25.9445 C   0  0  0  0  0  0  0  0  0  0  0  0
    8.9894  -19.1961   27.1507 C   0  0  0  0  0  0  0  0  0  0  0  0
    8.6310  -20.6352   27.0160 C   0  0  0  0  0  0  0  0  0  0  0  0
    8.7828  -21.3551   28.3680 N   0  0  0  0  0  0  0  0  0  0  0  0
    8.3884  -22.7256   28.2718 C   0  0  0  0  0  0  0  0  0  0  0  0
   10.5448  -16.4144   26.2799 O   0  0  0  0  0  0  0  0  0  0  0  0
   11.3676  -15.8991   25.4838 O   0  0  0  0  0  0  0  0  0  0  0  0
  1  2  1  0
  2  3  2  0
  4  5  1  0
  4  2  1  0
  6  5  1  0
  6  7  1  1
  8  6  1  0
  9  8  2  0
 10 11  1  0
 11 13  1  0
 11 12  2  0
 13 14  1  0
 14 15  1  0
 17 16  1  1
 16 15  1  0
 17 18  1  0
 18  8  1  0
 19 17  1  0
 19 20  2  0
 21 19  1  0
 22 21  1  0
 22 23  1  1
 24 23  1  0
 25 24  1  0
 26 25  1  0
 27 26  1  0
 28 22  1  0
 29 28  2  0
 30 28  1  0
M  END
$$$$
