QRK.pdb
     RDKit          3D

 30 29  0  0  1  0  0  0  0  0999 V2000
   13.7454  -20.0048   19.7817 N   0  0  0  0  0  0  0  0  0  0  0  0
   14.4818  -18.9039   20.2900 C   0  0  0  0  0  0  0  0  0  0  0  0
   15.5465  -19.1007   20.9185 O   0  0  0  0  0  0  0  0  0  0  0  0
   13.9895  -17.5457   20.0747 C   0  0  0  0  0  0  0  0  0  0  0  0
   12.7375  -17.4419   19.2582 C   0  0  0  0  0  0  0  0  0  0  0  0
   12.2588  -16.0351   19.0326 C   0  0  2  0  0  0  0  0  0  0  0  0
   13.3514  -15.1062   18.8348 N   0  0  0  0  0  0  0  0  0  0  0  0
   11.5040  -15.5942   20.2427 C   0  0  0  0  0  0  0  0  0  0  0  0
   12.0167  -14.8557   21.1035 O   0  0  0  0  0  0  0  0  0  0  0  0
    7.9182  -13.4012   16.7303 N   0  0  0  0  0  0  0  0  0  0  0  0
    8.1034  -12.9827   18.0793 C   0  0  0  0  0  0  0  0  0  0  0  0
    8.7215  -11.9074   18.3797 N   0  0  0  0  0  0  0  0  0  0  0  0
    7.5832  -13.7889   19.1289 N   0  0  0  0  0  0  0  0  0  0  0  0
    7.9189  -13.4680   20.4817 C   0  0  0  0  0  0  0  0  0  0  0  0
    7.2462  -14.3833   21.4833 C   0  0  0  0  0  0  0  0  0  0  0  0
    7.9335  -15.7314   21.5106 C   0  0  0  0  0  0  0  0  0  0  0  0
    9.4084  -15.6017   21.5887 C   0  0  2  0  0  0  0  0  0  0  0  0
   10.1706  -15.9899   20.4769 N   0  0  0  0  0  0  0  0  0  0  0  0
    9.8817  -16.3294   22.7931 C   0  0  0  0  0  0  0  0  0  0  0  0
   10.2009  -17.5369   22.6883 O   0  0  0  0  0  0  0  0  0  0  0  0
    8.9269  -11.6601   19.3669 N   0  0  0  0  0  0  0  0  0  0  0  0
    9.9670  -15.6618   24.0331 C   0  0  1  0  0  0  0  0  0  0  0  0
   10.2833  -16.4451   25.2724 C   0  0  0  0  0  0  0  0  0  0  0  0
    9.8049  -15.6143   26.3746 C   0  0  0  0  0  0  0  0  0  0  0  0
    9.6717  -16.0740   27.7664 C   0  0  0  0  0  0  0  0  0  0  0  0
   10.4725  -15.3702   28.8061 C   0  0  0  0  0  0  0  0  0  0  0  0
   10.1828  -15.9605   30.1979 N   0  0  0  0  0  0  0  0  0  0  0  0
   10.9195  -15.2764   31.2139 C   0  0  0  0  0  0  0  0  0  0  0  0
    9.8802  -17.8219   25.0779 O   0  0  0  0  0  0  0  0  0  0  0  0
    8.7655  -18.1838   24.6276 O   0  0  0  0  0  0  0  0  0  0  0  0
  1  2  1  0
  2  3  2  0
  4  5  1  0
  4  2  1  0
  6  5  1  0
  6  7  1  1
  8  6  1  0
  9  8  2  0
 10 11  1  0
 11 13  1  0
 11 12  2  0
 13 14  1  0
 14 15  1  0
 17 16  1  6
 16 15  1  0
 17 18  1  0
 18  8  1  0
 19 17  1  0
 19 20  2  0
 21 19  1  0
 22 21  1  0
 22 23  1  6
 24 23  1  0
 25 24  1  0
 26 25  1  0
 27 26  1  0
 28 22  1  0
 29 28  2  0
 30 28  1  0
M  END
$$$$
