QRK.pdb
     RDKit          3D

 30 29  0  0  1  0  0  0  0  0999 V2000
    9.8765  -21.9711   20.2535 N   0  0  0  0  0  0  0  0  0  0  0  0
   11.2136  -21.6859   20.6317 C   0  0  0  0  0  0  0  0  0  0  0  0
   11.8822  -22.5398   21.2572 O   0  0  0  0  0  0  0  0  0  0  0  0
   11.8008  -20.3937   20.2867 C   0  0  0  0  0  0  0  0  0  0  0  0
   10.9348  -19.5012   19.4510 C   0  0  0  0  0  0  0  0  0  0  0  0
   11.5236  -18.1459   19.1759 C   0  0  2  0  0  0  0  0  0  0  0  0
   12.8945  -18.2234   18.7171 N   0  0  0  0  0  0  0  0  0  0  0  0
   11.5156  -17.3618   20.4462 C   0  0  0  0  0  0  0  0  0  0  0  0
   12.5053  -17.3227   21.2001 O   0  0  0  0  0  0  0  0  0  0  0  0
    8.1241  -14.7639   18.2960 N   0  0  0  0  0  0  0  0  0  0  0  0
    7.5942  -13.4512   18.4544 C   0  0  0  0  0  0  0  0  0  0  0  0
    7.5919  -12.5987   17.5047 N   0  0  0  0  0  0  0  0  0  0  0  0
    7.0488  -13.0750   19.7127 N   0  0  0  0  0  0  0  0  0  0  0  0
    7.8176  -13.3006   20.8974 C   0  0  0  0  0  0  0  0  0  0  0  0
    8.5228  -14.6409   20.8897 C   0  0  0  0  0  0  0  0  0  0  0  0
    9.2774  -14.8474   22.1852 C   0  0  0  0  0  0  0  0  0  0  0  0
   10.3011  -15.9136   22.0682 C   0  0  2  0  0  0  0  0  0  0  0  0
   10.3878  -16.6235   20.8615 N   0  0  0  0  0  0  0  0  0  0  0  0
   10.1191  -16.8662   23.1922 C   0  0  0  0  0  0  0  0  0  0  0  0
    9.1583  -17.6704   23.1589 O   0  0  0  0  0  0  0  0  0  0  0  0
    7.2956  -11.6161   17.6615 N   0  0  0  0  0  0  0  0  0  0  0  0
   11.0204  -16.8579   24.2776 C   0  0  1  0  0  0  0  0  0  0  0  0
   10.8734  -17.8788   25.3665 C   0  0  0  0  0  0  0  0  0  0  0  0
   11.9350  -18.8505   25.1166 C   0  0  0  0  0  0  0  0  0  0  0  0
   12.1936  -20.0341   25.9523 C   0  0  0  0  0  0  0  0  0  0  0  0
   13.3968  -20.8531   25.6370 C   0  0  0  0  0  0  0  0  0  0  0  0
   13.4594  -22.0895   26.5516 N   0  0  0  0  0  0  0  0  0  0  0  0
   14.4390  -23.0238   26.0928 C   0  0  0  0  0  0  0  0  0  0  0  0
   10.6960  -17.1987   26.6321 O   0  0  0  0  0  0  0  0  0  0  0  0
   10.7521  -15.9544   26.7893 O   0  0  0  0  0  0  0  0  0  0  0  0
  1  2  1  0
  2  3  2  0
  4  5  1  0
  4  2  1  0
  6  5  1  0
  6  7  1  1
  8  6  1  0
  9  8  2  0
 10 11  1  0
 11 13  1  0
 11 12  2  0
 13 14  1  0
 14 15  1  0
 17 16  1  6
 16 15  1  0
 17 18  1  0
 18  8  1  0
 19 17  1  0
 19 20  2  0
 21 19  1  0
 22 21  1  0
 22 23  1  1
 24 23  1  0
 25 24  1  0
 26 25  1  0
 27 26  1  0
 28 22  1  0
 29 28  2  0
 30 28  1  0
M  END
$$$$
