QRK.pdb
     RDKit          3D

 30 29  0  0  1  0  0  0  0  0999 V2000
    8.9609  -18.3019   29.8059 N   0  0  0  0  0  0  0  0  0  0  0  0
    8.9759  -19.2247   28.7285 C   0  0  0  0  0  0  0  0  0  0  0  0
   10.0607  -19.7135   28.3390 O   0  0  0  0  0  0  0  0  0  0  0  0
    7.7210  -19.5977   28.0808 C   0  0  0  0  0  0  0  0  0  0  0  0
    7.0571  -18.5062   27.2979 C   0  0  0  0  0  0  0  0  0  0  0  0
    6.4409  -18.9578   26.0035 C   0  0  2  0  0  0  0  0  0  0  0  0
    6.5276  -20.3916   25.8225 N   0  0  0  0  0  0  0  0  0  0  0  0
    7.1821  -18.3145   24.8787 C   0  0  0  0  0  0  0  0  0  0  0  0
    7.9438  -18.9629   24.1382 O   0  0  0  0  0  0  0  0  0  0  0  0
    9.5156  -13.8746   18.7756 N   0  0  0  0  0  0  0  0  0  0  0  0
    8.1938  -13.3444   18.8009 C   0  0  0  0  0  0  0  0  0  0  0  0
    7.8376  -12.3679   18.0606 N   0  0  0  0  0  0  0  0  0  0  0  0
    7.2364  -13.9210   19.6803 N   0  0  0  0  0  0  0  0  0  0  0  0
    7.6591  -14.9318   20.5996 C   0  0  0  0  0  0  0  0  0  0  0  0
    7.9876  -14.3753   21.9692 C   0  0  0  0  0  0  0  0  0  0  0  0
    7.1162  -15.0220   23.0243 C   0  0  0  0  0  0  0  0  0  0  0  0
    7.7035  -16.2850   23.5323 C   0  0  2  0  0  0  0  0  0  0  0  0
    7.0604  -16.9384   24.5940 N   0  0  0  0  0  0  0  0  0  0  0  0
    9.1221  -16.0338   23.8907 C   0  0  0  0  0  0  0  0  0  0  0  0
    9.3812  -15.2760   24.8548 O   0  0  0  0  0  0  0  0  0  0  0  0
    6.8730  -11.9858   18.0975 N   0  0  0  0  0  0  0  0  0  0  0  0
   10.1561  -16.6443   23.1500 C   0  0  2  0  0  0  0  0  0  0  0  0
   11.5801  -16.4665   23.5862 C   0  0  0  0  0  0  0  0  0  0  0  0
   11.9035  -17.6871   24.3206 C   0  0  0  0  0  0  0  0  0  0  0  0
   13.2548  -18.0509   24.7763 C   0  0  0  0  0  0  0  0  0  0  0  0
   13.4207  -19.3560   25.4741 C   0  0  0  0  0  0  0  0  0  0  0  0
   14.8802  -19.5411   25.9268 N   0  0  0  0  0  0  0  0  0  0  0  0
   15.0499  -20.7697   26.6374 C   0  0  0  0  0  0  0  0  0  0  0  0
   12.3598  -15.9776   22.4687 O   0  0  0  0  0  0  0  0  0  0  0  0
   11.9822  -15.9945   21.2714 O   0  0  0  0  0  0  0  0  0  0  0  0
  1  2  1  0
  2  3  2  0
  4  5  1  0
  4  2  1  0
  6  5  1  0
  6  7  1  6
  8  6  1  0
  9  8  2  0
 10 11  1  0
 11 13  1  0
 11 12  2  0
 13 14  1  0
 14 15  1  0
 17 16  1  1
 16 15  1  0
 17 18  1  0
 18  8  1  0
 19 17  1  0
 19 20  2  0
 21 19  1  0
 22 21  1  0
 22 23  1  6
 24 23  1  0
 25 24  1  0
 26 25  1  0
 27 26  1  0
 28 22  1  0
 29 28  2  0
 30 28  1  0
M  END
$$$$
