QRK.pdb
     RDKit          3D

 30 29  0  0  1  0  0  0  0  0999 V2000
   15.2209  -13.7078   17.8935 N   0  0  0  0  0  0  0  0  0  0  0  0
   14.5922  -14.9742   17.7768 C   0  0  0  0  0  0  0  0  0  0  0  0
   15.2133  -15.9363   17.2709 O   0  0  0  0  0  0  0  0  0  0  0  0
   13.2208  -15.1450   18.2496 C   0  0  0  0  0  0  0  0  0  0  0  0
   13.0541  -15.1472   19.7387 C   0  0  0  0  0  0  0  0  0  0  0  0
   12.1955  -16.2628   20.2652 C   0  0  2  0  0  0  0  0  0  0  0  0
   11.3177  -16.8082   19.2514 N   0  0  0  0  0  0  0  0  0  0  0  0
   11.3387  -15.7212   21.3612 C   0  0  0  0  0  0  0  0  0  0  0  0
   11.8232  -15.1197   22.3373 O   0  0  0  0  0  0  0  0  0  0  0  0
    9.2657  -14.4059   17.2330 N   0  0  0  0  0  0  0  0  0  0  0  0
    8.5452  -13.2560   17.6660 C   0  0  0  0  0  0  0  0  0  0  0  0
    8.5629  -12.1572   17.0172 N   0  0  0  0  0  0  0  0  0  0  0  0
    7.7795  -13.3320   18.8620 N   0  0  0  0  0  0  0  0  0  0  0  0
    8.1662  -14.2644   19.8752 C   0  0  0  0  0  0  0  0  0  0  0  0
    7.2517  -14.2283   21.0819 C   0  0  0  0  0  0  0  0  0  0  0  0
    7.6213  -15.3252   22.0569 C   0  0  0  0  0  0  0  0  0  0  0  0
    9.0770  -15.3524   22.3370 C   0  0  2  0  0  0  0  0  0  0  0  0
    9.9352  -15.8614   21.3511 N   0  0  0  0  0  0  0  0  0  0  0  0
    9.2976  -16.0817   23.6112 C   0  0  0  0  0  0  0  0  0  0  0  0
    9.7345  -17.2558   23.5727 O   0  0  0  0  0  0  0  0  0  0  0  0
    8.0229  -11.3310   17.3391 N   0  0  0  0  0  0  0  0  0  0  0  0
    9.0160  -15.4529   24.8424 C   0  0  2  0  0  0  0  0  0  0  0  0
    9.1749  -16.2249   26.1185 C   0  0  0  0  0  0  0  0  0  0  0  0
    9.4265  -15.2128   27.1413 C   0  0  0  0  0  0  0  0  0  0  0  0
    9.7659  -15.5115   28.5419 C   0  0  0  0  0  0  0  0  0  0  0  0
   10.0091  -14.3601   29.4546 C   0  0  0  0  0  0  0  0  0  0  0  0
   10.4653  -14.8583   30.8377 N   0  0  0  0  0  0  0  0  0  0  0  0
    9.3493  -15.2457   31.6424 C   0  0  0  0  0  0  0  0  0  0  0  0
    8.1161  -17.2077   26.2120 O   0  0  0  0  0  0  0  0  0  0  0  0
    7.0107  -17.1263   25.6224 O   0  0  0  0  0  0  0  0  0  0  0  0
  1  2  1  0
  2  3  2  0
  4  5  1  0
  4  2  1  0
  6  5  1  0
  6  7  1  6
  8  6  1  0
  9  8  2  0
 10 11  1  0
 11 13  1  0
 11 12  2  0
 13 14  1  0
 14 15  1  0
 17 16  1  6
 16 15  1  0
 17 18  1  0
 18  8  1  0
 19 17  1  0
 19 20  2  0
 21 19  1  0
 22 21  1  0
 22 23  1  6
 24 23  1  0
 25 24  1  0
 26 25  1  0
 27 26  1  0
 28 22  1  0
 29 28  2  0
 30 28  1  0
M  END
$$$$
