QRK.pdb
     RDKit          3D

 30 29  0  0  1  0  0  0  0  0999 V2000
    2.9293  -18.5863   21.9727 N   0  0  0  0  0  0  0  0  0  0  0  0
    2.5914  -19.9409   22.2242 C   0  0  0  0  0  0  0  0  0  0  0  0
    1.3901  -20.2933   22.2386 O   0  0  0  0  0  0  0  0  0  0  0  0
    3.6518  -20.9161   22.4651 C   0  0  0  0  0  0  0  0  0  0  0  0
    5.0472  -20.3779   22.3747 C   0  0  0  0  0  0  0  0  0  0  0  0
    5.5139  -20.0957   20.9742 C   0  0  2  0  0  0  0  0  0  0  0  0
    5.7150  -21.3061   20.2059 N   0  0  0  0  0  0  0  0  0  0  0  0
    6.8242  -19.3842   21.0483 C   0  0  0  0  0  0  0  0  0  0  0  0
    7.8838  -19.9846   21.3049 O   0  0  0  0  0  0  0  0  0  0  0  0
    8.0973  -12.5482   20.1914 N   0  0  0  0  0  0  0  0  0  0  0  0
    7.6712  -12.6498   18.8360 C   0  0  0  0  0  0  0  0  0  0  0  0
    6.9330  -11.7658   18.2863 N   0  0  0  0  0  0  0  0  0  0  0  0
    8.0806  -13.7738   18.0669 N   0  0  0  0  0  0  0  0  0  0  0  0
    9.2304  -14.5165   18.4818 C   0  0  0  0  0  0  0  0  0  0  0  0
    8.8917  -15.9325   18.8987 C   0  0  0  0  0  0  0  0  0  0  0  0
    8.1656  -15.9321   20.2266 C   0  0  0  0  0  0  0  0  0  0  0  0
    8.1394  -17.2788   20.8461 C   0  0  2  0  0  0  0  0  0  0  0  0
    6.9332  -17.9947   20.8321 N   0  0  0  0  0  0  0  0  0  0  0  0
    8.6321  -17.1645   22.2420 C   0  0  0  0  0  0  0  0  0  0  0  0
    7.8816  -16.6663   23.1134 O   0  0  0  0  0  0  0  0  0  0  0  0
    6.6139  -11.8638   17.3031 N   0  0  0  0  0  0  0  0  0  0  0  0
    9.9284  -17.6131   22.5720 C   0  0  1  0  0  0  0  0  0  0  0  0
   10.4336  -17.4420   23.9738 C   0  0  0  0  0  0  0  0  0  0  0  0
   10.4954  -18.7958   24.5189 C   0  0  0  0  0  0  0  0  0  0  0  0
   11.0131  -19.1322   25.8550 C   0  0  0  0  0  0  0  0  0  0  0  0
   11.1260  -20.5742   26.2093 C   0  0  0  0  0  0  0  0  0  0  0  0
   11.5691  -20.7340   27.6747 N   0  0  0  0  0  0  0  0  0  0  0  0
   11.6431  -22.1123   28.0459 C   0  0  0  0  0  0  0  0  0  0  0  0
   11.5612  -16.5341   23.9630 O   0  0  0  0  0  0  0  0  0  0  0  0
   12.2478  -16.2586   22.9486 O   0  0  0  0  0  0  0  0  0  0  0  0
  1  2  1  0
  2  3  2  0
  4  5  1  0
  4  2  1  0
  6  5  1  0
  6  7  1  6
  8  6  1  0
  9  8  2  0
 10 11  1  0
 11 13  1  0
 11 12  2  0
 13 14  1  0
 14 15  1  0
 17 16  1  1
 16 15  1  0
 17 18  1  0
 18  8  1  0
 19 17  1  0
 19 20  2  0
 21 19  1  0
 22 21  1  0
 22 23  1  1
 24 23  1  0
 25 24  1  0
 26 25  1  0
 27 26  1  0
 28 22  1  0
 29 28  2  0
 30 28  1  0
M  END
$$$$
