QRK.pdb
     RDKit          3D

 30 29  0  0  1  0  0  0  0  0999 V2000
   14.0057  -13.9281   16.9972 N   0  0  0  0  0  0  0  0  0  0  0  0
   14.7343  -14.2242   18.1778 C   0  0  0  0  0  0  0  0  0  0  0  0
   15.9770  -14.0737   18.2000 O   0  0  0  0  0  0  0  0  0  0  0  0
   14.0256  -14.7038   19.3615 C   0  0  0  0  0  0  0  0  0  0  0  0
   13.0751  -15.8370   19.1217 C   0  0  0  0  0  0  0  0  0  0  0  0
   12.7274  -16.6262   20.3526 C   0  0  2  0  0  0  0  0  0  0  0  0
   11.8349  -17.7295   20.0660 N   0  0  0  0  0  0  0  0  0  0  0  0
   12.0315  -15.7195   21.3129 C   0  0  0  0  0  0  0  0  0  0  0  0
   12.6193  -14.7709   21.8642 O   0  0  0  0  0  0  0  0  0  0  0  0
    7.8540  -15.2667   17.9959 N   0  0  0  0  0  0  0  0  0  0  0  0
    7.6283  -13.8742   17.7985 C   0  0  0  0  0  0  0  0  0  0  0  0
    7.7614  -13.3179   16.6578 N   0  0  0  0  0  0  0  0  0  0  0  0
    7.2417  -13.0742   18.9089 N   0  0  0  0  0  0  0  0  0  0  0  0
    7.2603  -13.6494   20.2182 C   0  0  0  0  0  0  0  0  0  0  0  0
    8.6637  -13.9330   20.7117 C   0  0  0  0  0  0  0  0  0  0  0  0
    8.6219  -14.5662   22.0858 C   0  0  0  0  0  0  0  0  0  0  0  0
    9.9559  -15.0498   22.5157 C   0  0  2  0  0  0  0  0  0  0  0  0
   10.6717  -15.8877   21.6479 N   0  0  0  0  0  0  0  0  0  0  0  0
    9.8135  -15.7102   23.8377 C   0  0  0  0  0  0  0  0  0  0  0  0
    9.0182  -15.2266   24.6771 O   0  0  0  0  0  0  0  0  0  0  0  0
    7.6010  -12.3000   16.5311 N   0  0  0  0  0  0  0  0  0  0  0  0
   10.5676  -16.8650   24.1348 C   0  0  1  0  0  0  0  0  0  0  0  0
   10.4241  -17.5141   25.4793 C   0  0  0  0  0  0  0  0  0  0  0  0
   10.5538  -18.9460   25.2212 C   0  0  0  0  0  0  0  0  0  0  0  0
   10.6555  -19.9746   26.2689 C   0  0  0  0  0  0  0  0  0  0  0  0
   10.8359  -21.3877   25.8347 C   0  0  0  0  0  0  0  0  0  0  0  0
   10.8895  -22.3222   27.0566 N   0  0  0  0  0  0  0  0  0  0  0  0
   11.0389  -23.6868   26.6585 C   0  0  0  0  0  0  0  0  0  0  0  0
   11.2388  -16.7994   26.4392 O   0  0  0  0  0  0  0  0  0  0  0  0
   12.2353  -16.0939   26.1466 O   0  0  0  0  0  0  0  0  0  0  0  0
  1  2  1  0
  2  3  2  0
  4  5  1  0
  4  2  1  0
  6  5  1  0
  6  7  1  6
  8  6  1  0
  9  8  2  0
 10 11  1  0
 11 13  1  0
 11 12  2  0
 13 14  1  0
 14 15  1  0
 17 16  1  6
 16 15  1  0
 17 18  1  0
 18  8  1  0
 19 17  1  0
 19 20  2  0
 21 19  1  0
 22 21  1  0
 22 23  1  1
 24 23  1  0
 25 24  1  0
 26 25  1  0
 27 26  1  0
 28 22  1  0
 29 28  2  0
 30 28  1  0
M  END
$$$$
