QRK.pdb
     RDKit          3D

 30 29  0  0  1  0  0  0  0  0999 V2000
    9.5701  -22.5509   15.0712 N   0  0  0  0  0  0  0  0  0  0  0  0
    8.8479  -21.6993   15.9463 C   0  0  0  0  0  0  0  0  0  0  0  0
    7.9058  -21.0029   15.5047 O   0  0  0  0  0  0  0  0  0  0  0  0
    9.2110  -21.6423   17.3599 C   0  0  0  0  0  0  0  0  0  0  0  0
   10.3441  -20.7198   17.6917 C   0  0  0  0  0  0  0  0  0  0  0  0
   10.6485  -20.6139   19.1598 C   0  0  2  0  0  0  0  0  0  0  0  0
    9.4514  -20.6340   19.9736 N   0  0  0  0  0  0  0  0  0  0  0  0
   11.3404  -19.3141   19.4052 C   0  0  0  0  0  0  0  0  0  0  0  0
   12.4838  -19.0862   18.9695 O   0  0  0  0  0  0  0  0  0  0  0  0
    6.9252  -12.7618   18.2670 N   0  0  0  0  0  0  0  0  0  0  0  0
    8.2544  -12.3897   18.6190 C   0  0  0  0  0  0  0  0  0  0  0  0
    8.5886  -11.1762   18.8294 N   0  0  0  0  0  0  0  0  0  0  0  0
    9.2447  -13.4030   18.7405 N   0  0  0  0  0  0  0  0  0  0  0  0
    8.8980  -14.7536   18.4225 C   0  0  0  0  0  0  0  0  0  0  0  0
   10.0586  -15.7110   18.5961 C   0  0  0  0  0  0  0  0  0  0  0  0
   10.4420  -15.8157   20.0564 C   0  0  0  0  0  0  0  0  0  0  0  0
   11.2938  -16.9995   20.3238 C   0  0  2  0  0  0  0  0  0  0  0  0
   10.7374  -18.2744   20.1434 N   0  0  0  0  0  0  0  0  0  0  0  0
   11.8385  -16.8861   21.7003 C   0  0  0  0  0  0  0  0  0  0  0  0
   11.0694  -17.0567   22.6751 O   0  0  0  0  0  0  0  0  0  0  0  0
    9.5767  -10.9108   19.0060 N   0  0  0  0  0  0  0  0  0  0  0  0
   13.2038  -16.5901   21.8970 C   0  0  1  0  0  0  0  0  0  0  0  0
   13.7409  -16.4790   23.2930 C   0  0  0  0  0  0  0  0  0  0  0  0
   13.7019  -17.8406   23.8204 C   0  0  0  0  0  0  0  0  0  0  0  0
   13.0920  -18.2182   25.1055 C   0  0  0  0  0  0  0  0  0  0  0  0
   13.2109  -19.6389   25.5358 C   0  0  0  0  0  0  0  0  0  0  0  0
   12.5704  -19.8356   26.9216 N   0  0  0  0  0  0  0  0  0  0  0  0
   12.5380  -21.2175   27.2855 C   0  0  0  0  0  0  0  0  0  0  0  0
   14.9372  -15.6638   23.2763 O   0  0  0  0  0  0  0  0  0  0  0  0
   15.5738  -15.3492   22.2409 O   0  0  0  0  0  0  0  0  0  0  0  0
  1  2  1  0
  2  3  2  0
  4  5  1  0
  4  2  1  0
  6  5  1  0
  6  7  1  1
  8  6  1  0
  9  8  2  0
 10 11  1  0
 11 13  1  0
 11 12  2  0
 13 14  1  0
 14 15  1  0
 17 16  1  1
 16 15  1  0
 17 18  1  0
 18  8  1  0
 19 17  1  0
 19 20  2  0
 21 19  1  0
 22 21  1  0
 22 23  1  1
 24 23  1  0
 25 24  1  0
 26 25  1  0
 27 26  1  0
 28 22  1  0
 29 28  2  0
 30 28  1  0
M  END
$$$$
