QRK.pdb
     RDKit          3D

 30 29  0  0  1  0  0  0  0  0999 V2000
   10.5831  -14.5523   27.7021 N   0  0  0  0  0  0  0  0  0  0  0  0
    9.7131  -14.8661   28.7778 C   0  0  0  0  0  0  0  0  0  0  0  0
    9.8319  -14.2699   29.8723 O   0  0  0  0  0  0  0  0  0  0  0  0
    8.6828  -15.8857   28.5984 C   0  0  0  0  0  0  0  0  0  0  0  0
    8.6414  -16.5204   27.2417 C   0  0  0  0  0  0  0  0  0  0  0  0
    7.4677  -17.4323   27.0188 C   0  0  2  0  0  0  0  0  0  0  0  0
    7.5348  -18.6264   27.8346 N   0  0  0  0  0  0  0  0  0  0  0  0
    7.4687  -17.8611   25.5889 C   0  0  0  0  0  0  0  0  0  0  0  0
    7.5168  -19.0614   25.2632 O   0  0  0  0  0  0  0  0  0  0  0  0
    7.7280  -13.2005   18.3557 N   0  0  0  0  0  0  0  0  0  0  0  0
    8.0036  -12.5632   19.5995 C   0  0  0  0  0  0  0  0  0  0  0  0
    8.1652  -11.3011   19.6968 N   0  0  0  0  0  0  0  0  0  0  0  0
    8.1027  -13.3582   20.7744 N   0  0  0  0  0  0  0  0  0  0  0  0
    6.9670  -14.1191   21.1951 C   0  0  0  0  0  0  0  0  0  0  0  0
    7.2272  -14.9038   22.4640 C   0  0  0  0  0  0  0  0  0  0  0  0
    7.6053  -16.3314   22.1332 C   0  0  0  0  0  0  0  0  0  0  0  0
    8.1128  -17.0612   23.3198 C   0  0  2  0  0  0  0  0  0  0  0  0
    7.4154  -16.9309   24.5299 N   0  0  0  0  0  0  0  0  0  0  0  0
    9.5363  -16.6930   23.5256 C   0  0  0  0  0  0  0  0  0  0  0  0
    9.8104  -15.6902   24.2257 O   0  0  0  0  0  0  0  0  0  0  0  0
    8.4585  -10.8613   20.5904 N   0  0  0  0  0  0  0  0  0  0  0  0
   10.5580  -17.4674   22.9367 C   0  0  1  0  0  0  0  0  0  0  0  0
   11.9920  -17.0876   23.1577 C   0  0  0  0  0  0  0  0  0  0  0  0
   12.5860  -18.2387   23.8330 C   0  0  0  0  0  0  0  0  0  0  0  0
   12.1404  -18.7611   25.1348 C   0  0  0  0  0  0  0  0  0  0  0  0
   12.8181  -19.9792   25.6591 C   0  0  0  0  0  0  0  0  0  0  0  0
   12.1837  -20.4148   26.9922 N   0  0  0  0  0  0  0  0  0  0  0  0
   12.7266  -21.6581   27.4420 C   0  0  0  0  0  0  0  0  0  0  0  0
   12.5236  -16.5161   21.9384 O   0  0  0  0  0  0  0  0  0  0  0  0
   13.6330  -15.9358   21.8451 O   0  0  0  0  0  0  0  0  0  0  0  0
  1  2  1  0
  2  3  2  0
  4  5  1  0
  4  2  1  0
  6  5  1  0
  6  7  1  1
  8  6  1  0
  9  8  2  0
 10 11  1  0
 11 13  1  0
 11 12  2  0
 13 14  1  0
 14 15  1  0
 17 16  1  6
 16 15  1  0
 17 18  1  0
 18  8  1  0
 19 17  1  0
 19 20  2  0
 21 19  1  0
 22 21  1  0
 22 23  1  6
 24 23  1  0
 25 24  1  0
 26 25  1  0
 27 26  1  0
 28 22  1  0
 29 28  2  0
 30 28  1  0
M  END
$$$$
