QRK.pdb
     RDKit          3D

 30 29  0  0  1  0  0  0  0  0999 V2000
    9.4530  -12.7595   18.3868 N   0  0  0  0  0  0  0  0  0  0  0  0
    8.6707  -13.4655   17.4370 C   0  0  0  0  0  0  0  0  0  0  0  0
    8.1741  -12.8586   16.4610 O   0  0  0  0  0  0  0  0  0  0  0  0
    8.4506  -14.8994   17.6067 C   0  0  0  0  0  0  0  0  0  0  0  0
    8.9959  -15.4839   18.8741 C   0  0  0  0  0  0  0  0  0  0  0  0
    8.6747  -16.9383   19.0751 C   0  0  2  0  0  0  0  0  0  0  0  0
    7.6873  -17.4200   18.1323 N   0  0  0  0  0  0  0  0  0  0  0  0
    8.1121  -17.1115   20.4470 C   0  0  0  0  0  0  0  0  0  0  0  0
    6.9065  -16.9217   20.6912 O   0  0  0  0  0  0  0  0  0  0  0  0
    6.5502  -20.4798   23.8752 N   0  0  0  0  0  0  0  0  0  0  0  0
    6.5735  -21.3004   25.0393 C   0  0  0  0  0  0  0  0  0  0  0  0
    5.5813  -22.0271   25.3800 N   0  0  0  0  0  0  0  0  0  0  0  0
    7.7407  -21.3119   25.8515 N   0  0  0  0  0  0  0  0  0  0  0  0
    8.7939  -20.3874   25.5657 C   0  0  0  0  0  0  0  0  0  0  0  0
    8.2949  -19.1204   24.9028 C   0  0  0  0  0  0  0  0  0  0  0  0
    8.7883  -19.0431   23.4741 C   0  0  0  0  0  0  0  0  0  0  0  0
    8.4310  -17.7554   22.8317 C   0  0  2  0  0  0  0  0  0  0  0  0
    8.9147  -17.4990   21.5402 N   0  0  0  0  0  0  0  0  0  0  0  0
    8.8297  -16.6502   23.7392 C   0  0  0  0  0  0  0  0  0  0  0  0
   10.0427  -16.3502   23.8366 O   0  0  0  0  0  0  0  0  0  0  0  0
    5.6215  -22.6375   26.2189 N   0  0  0  0  0  0  0  0  0  0  0  0
    7.8491  -15.9541   24.4772 C   0  0  2  0  0  0  0  0  0  0  0  0
    8.2713  -14.8831   25.4385 C   0  0  0  0  0  0  0  0  0  0  0  0
    7.1073  -14.0094   25.5629 C   0  0  0  0  0  0  0  0  0  0  0  0
    7.0647  -12.7924   26.3894 C   0  0  0  0  0  0  0  0  0  0  0  0
    5.8078  -11.9937   26.3791 C   0  0  0  0  0  0  0  0  0  0  0  0
    5.9315  -10.7856   27.3247 N   0  0  0  0  0  0  0  0  0  0  0  0
    4.7849   -9.9370   27.2332 C   0  0  0  0  0  0  0  0  0  0  0  0
    8.9327  -15.4971   26.5705 O   0  0  0  0  0  0  0  0  0  0  0  0
    8.7147  -16.6640   26.9794 O   0  0  0  0  0  0  0  0  0  0  0  0
  1  2  1  0
  2  3  2  0
  4  5  1  0
  4  2  1  0
  6  5  1  0
  6  7  1  6
  8  6  1  0
  9  8  2  0
 10 11  1  0
 11 13  1  0
 11 12  2  0
 13 14  1  0
 14 15  1  0
 17 16  1  1
 16 15  1  0
 17 18  1  0
 18  8  1  0
 19 17  1  0
 19 20  2  0
 21 19  1  0
 22 21  1  0
 22 23  1  6
 24 23  1  0
 25 24  1  0
 26 25  1  0
 27 26  1  0
 28 22  1  0
 29 28  2  0
 30 28  1  0
M  END
$$$$
