QRK.pdb
     RDKit          3D

 30 29  0  0  1  0  0  0  0  0999 V2000
   15.1229  -21.5918   20.8825 N   0  0  0  0  0  0  0  0  0  0  0  0
   14.7778  -20.7757   21.9903 C   0  0  0  0  0  0  0  0  0  0  0  0
   14.4571  -21.3031   23.0796 O   0  0  0  0  0  0  0  0  0  0  0  0
   14.7999  -19.3220   21.8500 C   0  0  0  0  0  0  0  0  0  0  0  0
   14.3114  -18.7998   20.5332 C   0  0  0  0  0  0  0  0  0  0  0  0
   14.3026  -17.3008   20.4249 C   0  0  2  0  0  0  0  0  0  0  0  0
   15.5368  -16.7071   20.8943 N   0  0  0  0  0  0  0  0  0  0  0  0
   13.1950  -16.7731   21.2754 C   0  0  0  0  0  0  0  0  0  0  0  0
   13.3885  -16.3942   22.4451 O   0  0  0  0  0  0  0  0  0  0  0  0
    6.7013  -11.9004   18.4603 N   0  0  0  0  0  0  0  0  0  0  0  0
    7.7014  -12.8238   18.0405 C   0  0  0  0  0  0  0  0  0  0  0  0
    7.8994  -13.1005   16.8106 N   0  0  0  0  0  0  0  0  0  0  0  0
    8.5079  -13.4607   19.0235 N   0  0  0  0  0  0  0  0  0  0  0  0
    7.9936  -13.6151   20.3491 C   0  0  0  0  0  0  0  0  0  0  0  0
    8.9794  -14.2844   21.2838 C   0  0  0  0  0  0  0  0  0  0  0  0
    9.8870  -15.2183   20.5125 C   0  0  0  0  0  0  0  0  0  0  0  0
   10.8673  -15.8952   21.3952 C   0  0  2  0  0  0  0  0  0  0  0  0
   11.8703  -16.6754   20.8010 N   0  0  0  0  0  0  0  0  0  0  0  0
   10.1227  -16.7142   22.3846 C   0  0  0  0  0  0  0  0  0  0  0  0
    9.7468  -17.8655   22.0620 O   0  0  0  0  0  0  0  0  0  0  0  0
    8.6062  -13.8042   16.5221 N   0  0  0  0  0  0  0  0  0  0  0  0
    9.8471  -16.1942   23.6669 C   0  0  1  0  0  0  0  0  0  0  0  0
    9.2077  -17.0752   24.6985 C   0  0  0  0  0  0  0  0  0  0  0  0
   10.0996  -17.0103   25.8535 C   0  0  0  0  0  0  0  0  0  0  0  0
   10.1517  -18.0204   26.9227 C   0  0  0  0  0  0  0  0  0  0  0  0
   11.0806  -17.7750   28.0604 C   0  0  0  0  0  0  0  0  0  0  0  0
   11.0940  -18.9839   29.0131 N   0  0  0  0  0  0  0  0  0  0  0  0
   11.9080  -18.7301   30.1602 C   0  0  0  0  0  0  0  0  0  0  0  0
    7.7928  -16.7758   24.7653 O   0  0  0  0  0  0  0  0  0  0  0  0
    7.2673  -15.7107   24.3584 O   0  0  0  0  0  0  0  0  0  0  0  0
  1  2  1  0
  2  3  2  0
  4  5  1  0
  4  2  1  0
  6  5  1  0
  6  7  1  1
  8  6  1  0
  9  8  2  0
 10 11  1  0
 11 13  1  0
 11 12  2  0
 13 14  1  0
 14 15  1  0
 17 16  1  6
 16 15  1  0
 17 18  1  0
 18  8  1  0
 19 17  1  0
 19 20  2  0
 21 19  1  0
 22 21  1  0
 22 23  1  6
 24 23  1  0
 25 24  1  0
 26 25  1  0
 27 26  1  0
 28 22  1  0
 29 28  2  0
 30 28  1  0
M  END
$$$$
