QRK.pdb
     RDKit          3D

 30 29  0  0  1  0  0  0  0  0999 V2000
   13.5188  -12.9100   19.6065 N   0  0  0  0  0  0  0  0  0  0  0  0
   13.4458  -13.7077   18.4357 C   0  0  0  0  0  0  0  0  0  0  0  0
   14.4964  -14.0676   17.8578 O   0  0  0  0  0  0  0  0  0  0  0  0
   12.1406  -14.1037   17.9131 C   0  0  0  0  0  0  0  0  0  0  0  0
   11.0830  -14.3403   18.9478 C   0  0  0  0  0  0  0  0  0  0  0  0
    9.7481  -14.7460   18.3891 C   0  0  2  0  0  0  0  0  0  0  0  0
    9.1405  -13.6975   17.5970 N   0  0  0  0  0  0  0  0  0  0  0  0
    8.8301  -15.0413   19.5287 C   0  0  0  0  0  0  0  0  0  0  0  0
    8.0347  -14.1910   19.9686 O   0  0  0  0  0  0  0  0  0  0  0  0
    9.9075  -20.8473   19.0993 N   0  0  0  0  0  0  0  0  0  0  0  0
   10.2572  -21.5369   20.2957 C   0  0  0  0  0  0  0  0  0  0  0  0
   11.2518  -22.3342   20.3561 N   0  0  0  0  0  0  0  0  0  0  0  0
    9.4727  -21.3320   21.4640 N   0  0  0  0  0  0  0  0  0  0  0  0
    8.3620  -20.4328   21.4050 C   0  0  0  0  0  0  0  0  0  0  0  0
    8.7876  -18.9796   21.3821 C   0  0  0  0  0  0  0  0  0  0  0  0
    7.5745  -18.0747   21.3719 C   0  0  0  0  0  0  0  0  0  0  0  0
    7.9466  -16.6482   21.2141 C   0  0  2  0  0  0  0  0  0  0  0  0
    8.8139  -16.2981   20.1687 N   0  0  0  0  0  0  0  0  0  0  0  0
    8.5005  -16.1610   22.5025 C   0  0  0  0  0  0  0  0  0  0  0  0
    9.7440  -16.0873   22.6412 O   0  0  0  0  0  0  0  0  0  0  0  0
   11.5278  -22.7870   21.2486 N   0  0  0  0  0  0  0  0  0  0  0  0
    7.6309  -15.7892   23.5493 C   0  0  2  0  0  0  0  0  0  0  0  0
    8.1984  -15.1945   24.8038 C   0  0  0  0  0  0  0  0  0  0  0  0
    7.1803  -14.2559   25.2689 C   0  0  0  0  0  0  0  0  0  0  0  0
    7.4481  -13.1053   26.1468 C   0  0  0  0  0  0  0  0  0  0  0  0
    6.2970  -12.2359   26.5168 C   0  0  0  0  0  0  0  0  0  0  0  0
    6.7315  -11.1804   27.5494 N   0  0  0  0  0  0  0  0  0  0  0  0
    5.6564  -10.2937   27.8671 C   0  0  0  0  0  0  0  0  0  0  0  0
    8.7414  -16.2548   25.6265 O   0  0  0  0  0  0  0  0  0  0  0  0
    8.4407  -17.4689   25.5186 O   0  0  0  0  0  0  0  0  0  0  0  0
  1  2  1  0
  2  3  2  0
  4  5  1  0
  4  2  1  0
  6  5  1  0
  6  7  1  1
  8  6  1  0
  9  8  2  0
 10 11  1  0
 11 13  1  0
 11 12  2  0
 13 14  1  0
 14 15  1  0
 17 16  1  1
 16 15  1  0
 17 18  1  0
 18  8  1  0
 19 17  1  0
 19 20  2  0
 21 19  1  0
 22 21  1  0
 22 23  1  1
 24 23  1  0
 25 24  1  0
 26 25  1  0
 27 26  1  0
 28 22  1  0
 29 28  2  0
 30 28  1  0
M  END
$$$$
