MWE.pdb
     RDKit          3D

 32 33  0  0  1  0  0  0  0  0999 V2000
    7.0429  -16.7201   15.2452 C   0  0  0  0  0  0  0  0  0  0  0  0
    8.1773  -16.4842   16.6066 S   0  0  0  0  0  0  0  0  0  0  0  0
    7.6024  -15.4340   17.9115 C   0  0  0  0  0  0  0  0  0  0  0  0
    8.4097  -15.4899   19.1690 C   0  0  0  0  0  0  0  0  0  0  0  0
    7.7354  -14.7360   20.2748 C   0  0  2  0  0  0  0  0  0  0  0  0
    7.6705  -13.3435   19.8629 N   0  0  0  0  0  0  0  0  0  0  0  0
    8.5449  -14.8128   21.5435 C   0  0  0  0  0  0  0  0  0  0  0  0
    9.5957  -14.1437   21.6516 O   0  0  0  0  0  0  0  0  0  0  0  0
    8.1427  -15.6211   22.6072 N   0  0  0  0  0  0  0  0  0  0  0  0
    8.8773  -15.7570   23.8807 C   0  0  1  0  0  0  0  0  0  0  0  0
    7.8629  -16.0772   24.8888 C   0  0  0  0  0  0  0  0  0  0  0  0
    6.9370  -15.0559   25.3359 C   0  0  0  0  0  0  0  0  0  0  0  0
    5.5757  -15.1588   25.3792 C   0  0  0  0  0  0  0  0  0  0  0  0
    5.0850  -14.0052   25.8363 N   0  0  0  0  0  0  0  0  0  0  0  0
    6.0825  -13.1342   26.0994 C   0  0  0  0  0  0  0  0  0  0  0  0
    6.0776  -11.8371   26.5802 C   0  0  0  0  0  0  0  0  0  0  0  0
    7.2713  -11.1474   26.7641 C   0  0  0  0  0  0  0  0  0  0  0  0
    8.4375  -11.7946   26.4543 C   0  0  0  0  0  0  0  0  0  0  0  0
    8.4329  -13.0841   25.9769 C   0  0  0  0  0  0  0  0  0  0  0  0
    7.2512  -13.7934   25.7851 C   0  0  0  0  0  0  0  0  0  0  0  0
    9.9769  -16.6515   23.6285 C   0  0  0  0  0  0  0  0  0  0  0  0
   10.1931  -17.0782   22.4580 O   0  0  0  0  0  0  0  0  0  0  0  0
   10.8548  -17.0928   24.6299 N   0  0  0  0  0  0  0  0  0  0  0  0
   12.0343  -17.9089   24.3542 C   0  0  1  0  0  0  0  0  0  0  0  0
   12.8711  -17.1261   23.3930 C   0  0  0  0  0  0  0  0  0  0  0  0
   14.1854  -17.7877   23.1779 C   0  0  0  0  0  0  0  0  0  0  0  0
   14.9678  -17.0149   22.1544 C   0  0  0  0  0  0  0  0  0  0  0  0
   15.7329  -17.6566   21.4055 O   0  0  0  0  0  0  0  0  0  0  0  0
   12.7720  -18.1431   25.6073 C   0  0  0  0  0  0  0  0  0  0  0  0
   12.5025  -17.3820   26.7612 O   0  0  0  0  0  0  0  0  0  0  0  0
   14.8406  -15.6568   22.0534 O   0  0  0  0  0  0  0  0  0  0  0  0
   13.6719  -19.0071   25.7554 O   0  0  0  0  0  0  0  0  0  0  0  0
  2  1  1  0
  3  2  1  0
  4  3  1  0
  5  4  1  0
  5  6  1  6
  7  5  1  0
  7  8  2  0
  9  7  1  0
 10  9  1  0
 10 11  1  1
 11 12  1  0
 12 13  2  0
 12 20  1  0
 13 14  1  0
 14 15  1  0
 15 16  2  0
 16 17  1  0
 18 17  2  0
 19 18  1  0
 20 19  2  0
 20 15  1  0
 21 10  1  0
 22 21  2  0
 23 21  1  0
 24 25  1  6
 24 23  1  0
 25 26  1  0
 26 27  1  0
 27 31  1  0
 27 28  2  0
 29 30  1  0
 29 24  1  0
 32 29  2  0
M  END
$$$$
