MWE.pdb
     RDKit          3D

 32 33  0  0  1  0  0  0  0  0999 V2000
    7.0620  -11.8153   19.9002 C   0  0  0  0  0  0  0  0  0  0  0  0
    6.6132  -13.2884   18.9920 S   0  0  0  0  0  0  0  0  0  0  0  0
    7.0852  -14.8236   19.7380 C   0  0  0  0  0  0  0  0  0  0  0  0
    8.4989  -14.8820   20.2220 C   0  0  0  0  0  0  0  0  0  0  0  0
    8.7774  -16.1823   20.9130 C   0  0  2  0  0  0  0  0  0  0  0  0
    7.4913  -16.7645   21.2590 N   0  0  0  0  0  0  0  0  0  0  0  0
    9.5476  -15.9545   22.1880 C   0  0  0  0  0  0  0  0  0  0  0  0
   10.5886  -15.2618   22.1697 O   0  0  0  0  0  0  0  0  0  0  0  0
    9.1199  -16.5047   23.3966 N   0  0  0  0  0  0  0  0  0  0  0  0
    9.7900  -16.2968   24.6957 C   0  0  1  0  0  0  0  0  0  0  0  0
    8.7241  -16.3398   25.7006 C   0  0  0  0  0  0  0  0  0  0  0  0
    7.6106  -15.4161   25.6166 C   0  0  0  0  0  0  0  0  0  0  0  0
    6.3368  -15.7154   25.2248 C   0  0  0  0  0  0  0  0  0  0  0  0
    5.6130  -14.5954   25.2697 N   0  0  0  0  0  0  0  0  0  0  0  0
    6.3695  -13.5556   25.6811 C   0  0  0  0  0  0  0  0  0  0  0  0
    6.0766  -12.2185   25.8822 C   0  0  0  0  0  0  0  0  0  0  0  0
    7.0605  -11.3379   26.3190 C   0  0  0  0  0  0  0  0  0  0  0  0
    8.3152  -11.8398   26.5398 C   0  0  0  0  0  0  0  0  0  0  0  0
    8.5973  -13.1702   26.3373 C   0  0  0  0  0  0  0  0  0  0  0  0
    7.6293  -14.0695   25.9006 C   0  0  0  0  0  0  0  0  0  0  0  0
   10.8900  -17.2245   24.7447 C   0  0  0  0  0  0  0  0  0  0  0  0
   10.6914  -18.4567   24.5421 O   0  0  0  0  0  0  0  0  0  0  0  0
   12.2122  -16.8367   25.0088 N   0  0  0  0  0  0  0  0  0  0  0  0
   13.3062  -17.7905   25.1715 C   0  0  1  0  0  0  0  0  0  0  0  0
   14.5498  -17.0806   24.7397 C   0  0  0  0  0  0  0  0  0  0  0  0
   14.4549  -16.6713   23.3132 C   0  0  0  0  0  0  0  0  0  0  0  0
   15.7279  -15.9836   22.9089 C   0  0  0  0  0  0  0  0  0  0  0  0
   16.6139  -15.8489   23.7777 O   0  0  0  0  0  0  0  0  0  0  0  0
   13.4043  -18.1870   26.5866 C   0  0  0  0  0  0  0  0  0  0  0  0
   14.2896  -19.2030   26.9959 O   0  0  0  0  0  0  0  0  0  0  0  0
   15.9018  -15.5243   21.6323 O   0  0  0  0  0  0  0  0  0  0  0  0
   12.7351  -17.6767   27.5191 O   0  0  0  0  0  0  0  0  0  0  0  0
  2  1  1  0
  3  2  1  0
  4  3  1  0
  5  4  1  0
  5  6  1  1
  7  5  1  0
  7  8  2  0
  9  7  1  0
 10  9  1  0
 10 11  1  1
 11 12  1  0
 12 13  2  0
 12 20  1  0
 13 14  1  0
 14 15  1  0
 15 16  2  0
 16 17  1  0
 18 17  2  0
 19 18  1  0
 20 19  2  0
 20 15  1  0
 21 10  1  0
 22 21  2  0
 23 21  1  0
 24 25  1  1
 24 23  1  0
 25 26  1  0
 26 27  1  0
 27 31  1  0
 27 28  2  0
 29 30  1  0
 29 24  1  0
 32 29  2  0
M  END
$$$$
