MWE.pdb
     RDKit          3D

 32 33  0  0  1  0  0  0  0  0999 V2000
    7.9078  -11.7780   20.4796 C   0  0  0  0  0  0  0  0  0  0  0  0
    8.4209  -13.4906   20.4754 S   0  0  0  0  0  0  0  0  0  0  0  0
    7.1751  -14.6638   20.0197 C   0  0  0  0  0  0  0  0  0  0  0  0
    7.6580  -16.0710   19.8689 C   0  0  0  0  0  0  0  0  0  0  0  0
    7.7537  -16.7522   21.2002 C   0  0  2  0  0  0  0  0  0  0  0  0
    6.5809  -16.3604   21.9643 N   0  0  0  0  0  0  0  0  0  0  0  0
    8.9774  -16.2903   21.9488 C   0  0  0  0  0  0  0  0  0  0  0  0
   10.0780  -16.2230   21.3591 O   0  0  0  0  0  0  0  0  0  0  0  0
    8.9064  -15.9340   23.2958 N   0  0  0  0  0  0  0  0  0  0  0  0
   10.0646  -15.5308   24.1180 C   0  0  1  0  0  0  0  0  0  0  0  0
    9.5169  -14.6879   25.1844 C   0  0  0  0  0  0  0  0  0  0  0  0
    8.0844  -14.6224   25.3935 C   0  0  0  0  0  0  0  0  0  0  0  0
    7.1973  -15.6521   25.2569 C   0  0  0  0  0  0  0  0  0  0  0  0
    5.9753  -15.1874   25.5233 N   0  0  0  0  0  0  0  0  0  0  0  0
    6.0223  -13.8745   25.8343 C   0  0  0  0  0  0  0  0  0  0  0  0
    5.0358  -12.9673   26.1774 C   0  0  0  0  0  0  0  0  0  0  0  0
    5.3594  -11.6436   26.4558 C   0  0  0  0  0  0  0  0  0  0  0  0
    6.6766  -11.2777   26.3780 C   0  0  0  0  0  0  0  0  0  0  0  0
    7.6505  -12.1861   26.0361 C   0  0  0  0  0  0  0  0  0  0  0  0
    7.3503  -13.5152   25.7534 C   0  0  0  0  0  0  0  0  0  0  0  0
   10.7896  -16.7358   24.4271 C   0  0  0  0  0  0  0  0  0  0  0  0
   10.1705  -17.8271   24.5843 O   0  0  0  0  0  0  0  0  0  0  0  0
   12.1848  -16.7796   24.5670 N   0  0  0  0  0  0  0  0  0  0  0  0
   12.9210  -18.0108   24.8417 C   0  0  1  0  0  0  0  0  0  0  0  0
   14.2494  -17.8643   24.1702 C   0  0  0  0  0  0  0  0  0  0  0  0
   14.7416  -16.4650   24.2751 C   0  0  0  0  0  0  0  0  0  0  0  0
   16.0791  -16.3579   23.5993 C   0  0  0  0  0  0  0  0  0  0  0  0
   16.9479  -17.2027   23.8986 O   0  0  0  0  0  0  0  0  0  0  0  0
   13.0932  -18.1647   26.2964 C   0  0  0  0  0  0  0  0  0  0  0  0
   13.6838  -19.3225   26.8388 O   0  0  0  0  0  0  0  0  0  0  0  0
   16.3278  -15.3671   22.6897 O   0  0  0  0  0  0  0  0  0  0  0  0
   12.7436  -17.3129   27.1508 O   0  0  0  0  0  0  0  0  0  0  0  0
  2  1  1  0
  3  2  1  0
  4  3  1  0
  5  4  1  0
  5  6  1  1
  7  5  1  0
  7  8  2  0
  9  7  1  0
 10  9  1  0
 10 11  1  1
 11 12  1  0
 12 13  2  0
 12 20  1  0
 13 14  1  0
 14 15  1  0
 15 16  2  0
 16 17  1  0
 18 17  2  0
 19 18  1  0
 20 19  2  0
 20 15  1  0
 21 10  1  0
 22 21  2  0
 23 21  1  0
 24 25  1  6
 24 23  1  0
 25 26  1  0
 26 27  1  0
 27 31  1  0
 27 28  2  0
 29 30  1  0
 29 24  1  0
 32 29  2  0
M  END
$$$$
