MWE.pdb
     RDKit          3D

 32 33  0  0  1  0  0  0  0  0999 V2000
   11.8544  -16.6125   15.4297 C   0  0  0  0  0  0  0  0  0  0  0  0
   10.2835  -17.4464   15.6113 S   0  0  0  0  0  0  0  0  0  0  0  0
    9.9830  -18.1807   17.1945 C   0  0  0  0  0  0  0  0  0  0  0  0
    9.9582  -17.2212   18.3411 C   0  0  0  0  0  0  0  0  0  0  0  0
    9.6681  -17.9299   19.6292 C   0  0  2  0  0  0  0  0  0  0  0  0
    8.2822  -18.3645   19.5733 N   0  0  0  0  0  0  0  0  0  0  0  0
    9.8192  -16.9926   20.7995 C   0  0  0  0  0  0  0  0  0  0  0  0
   10.9211  -16.4428   21.0169 O   0  0  0  0  0  0  0  0  0  0  0  0
    8.7472  -16.7241   21.6510 N   0  0  0  0  0  0  0  0  0  0  0  0
    8.8316  -15.8923   22.8678 C   0  0  1  0  0  0  0  0  0  0  0  0
    7.5280  -15.2332   22.9862 C   0  0  0  0  0  0  0  0  0  0  0  0
    7.3837  -14.0554   23.8181 C   0  0  0  0  0  0  0  0  0  0  0  0
    7.1026  -12.7894   23.3890 C   0  0  0  0  0  0  0  0  0  0  0  0
    7.0653  -11.9871   24.4544 N   0  0  0  0  0  0  0  0  0  0  0  0
    7.3142  -12.6833   25.5841 C   0  0  0  0  0  0  0  0  0  0  0  0
    7.3833  -12.3016   26.9120 C   0  0  0  0  0  0  0  0  0  0  0  0
    7.6625  -13.2374   27.9023 C   0  0  0  0  0  0  0  0  0  0  0  0
    7.8637  -14.5356   27.5163 C   0  0  0  0  0  0  0  0  0  0  0  0
    7.7931  -14.9061   26.1941 C   0  0  0  0  0  0  0  0  0  0  0  0
    7.5153  -13.9875   25.1864 C   0  0  0  0  0  0  0  0  0  0  0  0
    9.3263  -16.7457   23.9166 C   0  0  0  0  0  0  0  0  0  0  0  0
    8.7828  -17.8668   24.1329 O   0  0  0  0  0  0  0  0  0  0  0  0
   10.4100  -16.4041   24.7395 N   0  0  0  0  0  0  0  0  0  0  0  0
   11.0048  -17.3291   25.7008 C   0  0  1  0  0  0  0  0  0  0  0  0
   12.4627  -17.3947   25.3732 C   0  0  0  0  0  0  0  0  0  0  0  0
   13.1641  -18.3436   26.2782 C   0  0  0  0  0  0  0  0  0  0  0  0
   14.5665  -18.5562   25.7830 C   0  0  0  0  0  0  0  0  0  0  0  0
   14.7278  -18.7254   24.5569 O   0  0  0  0  0  0  0  0  0  0  0  0
   10.8062  -16.8123   27.0656 C   0  0  0  0  0  0  0  0  0  0  0  0
   11.0302  -17.6294   28.1907 O   0  0  0  0  0  0  0  0  0  0  0  0
   15.6233  -18.5625   26.6514 O   0  0  0  0  0  0  0  0  0  0  0  0
   10.4342  -15.6442   27.3398 O   0  0  0  0  0  0  0  0  0  0  0  0
  2  1  1  0
  3  2  1  0
  4  3  1  0
  5  4  1  0
  5  6  1  6
  7  5  1  0
  7  8  2  0
  9  7  1  0
 10  9  1  0
 10 11  1  1
 11 12  1  0
 12 13  2  0
 12 20  1  0
 13 14  1  0
 14 15  1  0
 15 16  2  0
 16 17  1  0
 18 17  2  0
 19 18  1  0
 20 19  2  0
 20 15  1  0
 21 10  1  0
 22 21  2  0
 23 21  1  0
 24 25  1  6
 24 23  1  0
 25 26  1  0
 26 27  1  0
 27 31  1  0
 27 28  2  0
 29 30  1  0
 29 24  1  0
 32 29  2  0
M  END
$$$$
