MWE.pdb
     RDKit          3D

 32 33  0  0  1  0  0  0  0  0999 V2000
   11.9464  -19.0591   18.0702 C   0  0  0  0  0  0  0  0  0  0  0  0
   10.3186  -18.8559   17.3595 S   0  0  0  0  0  0  0  0  0  0  0  0
    9.2009  -17.8368   18.2806 C   0  0  0  0  0  0  0  0  0  0  0  0
    9.5384  -17.6784   19.7288 C   0  0  0  0  0  0  0  0  0  0  0  0
    8.5162  -16.8364   20.4301 C   0  0  2  0  0  0  0  0  0  0  0  0
    8.3105  -15.6500   19.6157 N   0  0  0  0  0  0  0  0  0  0  0  0
    9.0222  -16.3972   21.7799 C   0  0  0  0  0  0  0  0  0  0  0  0
    9.8030  -15.4241   21.8642 O   0  0  0  0  0  0  0  0  0  0  0  0
    8.6344  -17.0590   22.9452 N   0  0  0  0  0  0  0  0  0  0  0  0
    9.0436  -16.6653   24.3081 C   0  0  1  0  0  0  0  0  0  0  0  0
    7.7968  -16.4423   25.0453 C   0  0  0  0  0  0  0  0  0  0  0  0
    7.0826  -15.1897   24.9000 C   0  0  0  0  0  0  0  0  0  0  0  0
    6.0504  -14.9400   24.0410 C   0  0  0  0  0  0  0  0  0  0  0  0
    5.6743  -13.6696   24.1997 N   0  0  0  0  0  0  0  0  0  0  0  0
    6.4279  -13.0639   25.1420 C   0  0  0  0  0  0  0  0  0  0  0  0
    6.4200  -11.7768   25.6490 C   0  0  0  0  0  0  0  0  0  0  0  0
    7.3233  -11.4016   26.6378 C   0  0  0  0  0  0  0  0  0  0  0  0
    8.2101  -12.3444   27.0844 C   0  0  0  0  0  0  0  0  0  0  0  0
    8.2108  -13.6215   26.5748 C   0  0  0  0  0  0  0  0  0  0  0  0
    7.3166  -14.0193   25.5855 C   0  0  0  0  0  0  0  0  0  0  0  0
    9.9987  -17.6475   24.7511 C   0  0  0  0  0  0  0  0  0  0  0  0
    9.6651  -18.8641   24.8377 O   0  0  0  0  0  0  0  0  0  0  0  0
   11.3199  -17.3321   25.1020 N   0  0  0  0  0  0  0  0  0  0  0  0
   12.2675  -18.3196   25.6122 C   0  0  1  0  0  0  0  0  0  0  0  0
   13.5985  -17.9642   25.0298 C   0  0  0  0  0  0  0  0  0  0  0  0
   13.6067  -16.5551   24.5546 C   0  0  0  0  0  0  0  0  0  0  0  0
   14.9844  -16.2035   24.0696 C   0  0  0  0  0  0  0  0  0  0  0  0
   15.9543  -16.5827   24.7575 O   0  0  0  0  0  0  0  0  0  0  0  0
   12.3113  -18.2428   27.0824 C   0  0  0  0  0  0  0  0  0  0  0  0
   11.4784  -17.3528   27.7877 O   0  0  0  0  0  0  0  0  0  0  0  0
   15.1608  -15.4929   22.9142 O   0  0  0  0  0  0  0  0  0  0  0  0
   13.0644  -18.9352   27.8114 O   0  0  0  0  0  0  0  0  0  0  0  0
  2  1  1  0
  3  2  1  0
  4  3  1  0
  5  4  1  0
  5  6  1  6
  7  5  1  0
  7  8  2  0
  9  7  1  0
 10  9  1  0
 10 11  1  1
 11 12  1  0
 12 13  2  0
 12 20  1  0
 13 14  1  0
 14 15  1  0
 15 16  2  0
 16 17  1  0
 18 17  2  0
 19 18  1  0
 20 19  2  0
 20 15  1  0
 21 10  1  0
 22 21  2  0
 23 21  1  0
 24 25  1  6
 24 23  1  0
 25 26  1  0
 26 27  1  0
 27 31  1  0
 27 28  2  0
 29 30  1  0
 29 24  1  0
 32 29  2  0
M  END
$$$$
