MWE.pdb
     RDKit          3D

 32 33  0  0  1  0  0  0  0  0999 V2000
    6.5201  -12.8339   17.5242 C   0  0  0  0  0  0  0  0  0  0  0  0
    6.7583  -13.9634   18.8894 S   0  0  0  0  0  0  0  0  0  0  0  0
    8.3414  -14.7532   18.9648 C   0  0  0  0  0  0  0  0  0  0  0  0
    8.5372  -15.6650   20.1338 C   0  0  0  0  0  0  0  0  0  0  0  0
    7.7676  -15.1834   21.3260 C   0  0  2  0  0  0  0  0  0  0  0  0
    7.4128  -13.7969   21.0721 N   0  0  0  0  0  0  0  0  0  0  0  0
    8.6220  -15.2296   22.5665 C   0  0  0  0  0  0  0  0  0  0  0  0
    9.4707  -14.3341   22.7701 O   0  0  0  0  0  0  0  0  0  0  0  0
    8.4843  -16.2585   23.4987 N   0  0  0  0  0  0  0  0  0  0  0  0
    9.2531  -16.3594   24.7551 C   0  0  1  0  0  0  0  0  0  0  0  0
    8.2554  -16.3653   25.8285 C   0  0  0  0  0  0  0  0  0  0  0  0
    7.2921  -15.2873   25.9292 C   0  0  0  0  0  0  0  0  0  0  0  0
    5.9520  -15.3717   25.6788 C   0  0  0  0  0  0  0  0  0  0  0  0
    5.4155  -14.1651   25.8706 N   0  0  0  0  0  0  0  0  0  0  0  0
    6.3617  -13.2768   26.2425 C   0  0  0  0  0  0  0  0  0  0  0  0
    6.2987  -11.9291   26.5486 C   0  0  0  0  0  0  0  0  0  0  0  0
    7.4470  -11.2324   26.9098 C   0  0  0  0  0  0  0  0  0  0  0  0
    8.6280  -11.9241   26.9502 C   0  0  0  0  0  0  0  0  0  0  0  0
    8.6813  -13.2636   26.6443 C   0  0  0  0  0  0  0  0  0  0  0  0
    7.5458  -13.9809   26.2804 C   0  0  0  0  0  0  0  0  0  0  0  0
   10.1684  -17.4585   24.5906 C   0  0  0  0  0  0  0  0  0  0  0  0
    9.7423  -18.5904   24.2217 O   0  0  0  0  0  0  0  0  0  0  0  0
   11.5486  -17.3508   24.8181 N   0  0  0  0  0  0  0  0  0  0  0  0
   12.4433  -18.5046   24.8576 C   0  0  1  0  0  0  0  0  0  0  0  0
   13.6869  -18.0965   24.1338 C   0  0  0  0  0  0  0  0  0  0  0  0
   14.2124  -16.8133   24.6709 C   0  0  0  0  0  0  0  0  0  0  0  0
   15.0206  -16.1248   23.6079 C   0  0  0  0  0  0  0  0  0  0  0  0
   15.1163  -16.6879   22.4981 O   0  0  0  0  0  0  0  0  0  0  0  0
   12.7493  -18.8397   26.2589 C   0  0  0  0  0  0  0  0  0  0  0  0
   13.5189  -19.9740   26.5824 O   0  0  0  0  0  0  0  0  0  0  0  0
   15.6265  -14.9238   23.8556 O   0  0  0  0  0  0  0  0  0  0  0  0
   12.3676  -18.1724   27.2523 O   0  0  0  0  0  0  0  0  0  0  0  0
  2  1  1  0
  3  2  1  0
  4  3  1  0
  5  4  1  0
  5  6  1  6
  7  5  1  0
  7  8  2  0
  9  7  1  0
 10  9  1  0
 10 11  1  1
 11 12  1  0
 12 13  2  0
 12 20  1  0
 13 14  1  0
 14 15  1  0
 15 16  2  0
 16 17  1  0
 18 17  2  0
 19 18  1  0
 20 19  2  0
 20 15  1  0
 21 10  1  0
 22 21  2  0
 23 21  1  0
 24 25  1  6
 24 23  1  0
 25 26  1  0
 26 27  1  0
 27 31  1  0
 27 28  2  0
 29 30  1  0
 29 24  1  0
 32 29  2  0
M  END
$$$$
