MWE.pdb
     RDKit          3D

 32 33  0  0  1  0  0  0  0  0999 V2000
   12.9244  -19.5395   18.2820 C   0  0  0  0  0  0  0  0  0  0  0  0
   11.7067  -19.3540   16.9862 S   0  0  0  0  0  0  0  0  0  0  0  0
   10.2736  -18.4038   17.4100 C   0  0  0  0  0  0  0  0  0  0  0  0
   10.4289  -17.5297   18.6133 C   0  0  0  0  0  0  0  0  0  0  0  0
    9.1449  -16.8284   18.9377 C   0  0  2  0  0  0  0  0  0  0  0  0
    8.8878  -15.8899   17.8579 N   0  0  0  0  0  0  0  0  0  0  0  0
    9.2737  -16.0457   20.2190 C   0  0  0  0  0  0  0  0  0  0  0  0
   10.1554  -15.1651   20.3233 O   0  0  0  0  0  0  0  0  0  0  0  0
    8.4232  -16.2855   21.2987 N   0  0  0  0  0  0  0  0  0  0  0  0
    8.5364  -15.6293   22.6163 C   0  0  1  0  0  0  0  0  0  0  0  0
    7.1630  -15.3140   23.0191 C   0  0  0  0  0  0  0  0  0  0  0  0
    6.8896  -14.8547   24.3662 C   0  0  0  0  0  0  0  0  0  0  0  0
    6.4974  -15.6273   25.4221 C   0  0  0  0  0  0  0  0  0  0  0  0
    6.3365  -14.8332   26.4822 N   0  0  0  0  0  0  0  0  0  0  0  0
    6.6107  -13.5505   26.1626 C   0  0  0  0  0  0  0  0  0  0  0  0
    6.5876  -12.3845   26.9067 C   0  0  0  0  0  0  0  0  0  0  0  0
    6.9212  -11.1671   26.3227 C   0  0  0  0  0  0  0  0  0  0  0  0
    7.2694  -11.1677   24.9985 C   0  0  0  0  0  0  0  0  0  0  0  0
    7.2896  -12.3315   24.2665 C   0  0  0  0  0  0  0  0  0  0  0  0
    6.9597  -13.5606   24.8294 C   0  0  0  0  0  0  0  0  0  0  0  0
    9.3687  -16.4778   23.4289 C   0  0  0  0  0  0  0  0  0  0  0  0
    9.2063  -17.7317   23.4114 O   0  0  0  0  0  0  0  0  0  0  0  0
   10.3835  -15.9877   24.2644 N   0  0  0  0  0  0  0  0  0  0  0  0
   11.1517  -16.8379   25.1701 C   0  0  1  0  0  0  0  0  0  0  0  0
   12.5867  -16.4586   24.9860 C   0  0  0  0  0  0  0  0  0  0  0  0
   13.0997  -16.9539   23.6810 C   0  0  0  0  0  0  0  0  0  0  0  0
   14.5649  -16.6402   23.5729 C   0  0  0  0  0  0  0  0  0  0  0  0
   15.3197  -17.0890   24.4598 O   0  0  0  0  0  0  0  0  0  0  0  0
   10.7263  -16.5862   26.5575 C   0  0  0  0  0  0  0  0  0  0  0  0
   11.2516  -17.3391   27.6256 O   0  0  0  0  0  0  0  0  0  0  0  0
   15.0464  -15.8889   22.5362 O   0  0  0  0  0  0  0  0  0  0  0  0
    9.8906  -15.7135   26.9010 O   0  0  0  0  0  0  0  0  0  0  0  0
  2  1  1  0
  3  2  1  0
  4  3  1  0
  5  4  1  0
  5  6  1  6
  7  5  1  0
  7  8  2  0
  9  7  1  0
 10  9  1  0
 10 11  1  1
 11 12  1  0
 12 13  2  0
 12 20  1  0
 13 14  1  0
 14 15  1  0
 15 16  2  0
 16 17  1  0
 18 17  2  0
 19 18  1  0
 20 19  2  0
 20 15  1  0
 21 10  1  0
 22 21  2  0
 23 21  1  0
 24 25  1  1
 24 23  1  0
 25 26  1  0
 26 27  1  0
 27 31  1  0
 27 28  2  0
 29 30  1  0
 29 24  1  0
 32 29  2  0
M  END
$$$$
