MWE.pdb
     RDKit          3D

 32 33  0  0  1  0  0  0  0  0999 V2000
    6.4894  -12.9771   16.6714 C   0  0  0  0  0  0  0  0  0  0  0  0
    7.1119  -12.8810   18.3446 S   0  0  0  0  0  0  0  0  0  0  0  0
    7.6823  -14.4065   19.0400 C   0  0  0  0  0  0  0  0  0  0  0  0
    8.2673  -14.2954   20.4117 C   0  0  0  0  0  0  0  0  0  0  0  0
    8.8362  -15.6067   20.8615 C   0  0  2  0  0  0  0  0  0  0  0  0
    7.7481  -16.5704   20.8466 N   0  0  0  0  0  0  0  0  0  0  0  0
    9.3553  -15.5070   22.2727 C   0  0  0  0  0  0  0  0  0  0  0  0
   10.2622  -14.6902   22.5448 O   0  0  0  0  0  0  0  0  0  0  0  0
    8.8411  -16.3132   23.2886 N   0  0  0  0  0  0  0  0  0  0  0  0
    9.3555  -16.3480   24.6721 C   0  0  1  0  0  0  0  0  0  0  0  0
    8.1957  -16.6469   25.5166 C   0  0  0  0  0  0  0  0  0  0  0  0
    7.1982  -15.6258   25.7667 C   0  0  0  0  0  0  0  0  0  0  0  0
    5.8438  -15.7755   25.6733 C   0  0  0  0  0  0  0  0  0  0  0  0
    5.2740  -14.6055   25.9678 N   0  0  0  0  0  0  0  0  0  0  0  0
    6.2119  -13.6779   26.2556 C   0  0  0  0  0  0  0  0  0  0  0  0
    6.1181  -12.3447   26.6126 C   0  0  0  0  0  0  0  0  0  0  0  0
    7.2648  -11.5972   26.8594 C   0  0  0  0  0  0  0  0  0  0  0  0
    8.4755  -12.2249   26.7367 C   0  0  0  0  0  0  0  0  0  0  0  0
    8.5592  -13.5505   26.3814 C   0  0  0  0  0  0  0  0  0  0  0  0
    7.4259  -14.3178   26.1297 C   0  0  0  0  0  0  0  0  0  0  0  0
   10.5055  -17.2142   24.6622 C   0  0  0  0  0  0  0  0  0  0  0  0
   10.3555  -18.4687   24.6109 O   0  0  0  0  0  0  0  0  0  0  0  0
   11.8255  -16.7409   24.7043 N   0  0  0  0  0  0  0  0  0  0  0  0
   12.9876  -17.6228   24.7762 C   0  0  1  0  0  0  0  0  0  0  0  0
   14.1862  -16.7568   24.5518 C   0  0  0  0  0  0  0  0  0  0  0  0
   15.2462  -17.5023   23.8224 C   0  0  0  0  0  0  0  0  0  0  0  0
   16.2122  -16.5246   23.2160 C   0  0  0  0  0  0  0  0  0  0  0  0
   16.0071  -15.3096   23.4147 O   0  0  0  0  0  0  0  0  0  0  0  0
   13.0462  -18.2484   26.1083 C   0  0  0  0  0  0  0  0  0  0  0  0
   13.8125  -19.4087   26.3320 O   0  0  0  0  0  0  0  0  0  0  0  0
   17.2762  -16.9587   22.4741 O   0  0  0  0  0  0  0  0  0  0  0  0
   12.4431  -17.8223   27.1245 O   0  0  0  0  0  0  0  0  0  0  0  0
  2  1  1  0
  3  2  1  0
  4  3  1  0
  5  4  1  0
  5  6  1  1
  7  5  1  0
  7  8  2  0
  9  7  1  0
 10  9  1  0
 10 11  1  1
 11 12  1  0
 12 13  2  0
 12 20  1  0
 13 14  1  0
 14 15  1  0
 15 16  2  0
 16 17  1  0
 18 17  2  0
 19 18  1  0
 20 19  2  0
 20 15  1  0
 21 10  1  0
 22 21  2  0
 23 21  1  0
 24 25  1  1
 24 23  1  0
 25 26  1  0
 26 27  1  0
 27 31  1  0
 27 28  2  0
 29 30  1  0
 29 24  1  0
 32 29  2  0
M  END
$$$$
