MWE.pdb
     RDKit          3D

 32 33  0  0  1  0  0  0  0  0999 V2000
    7.4516  -11.4347   19.5216 C   0  0  0  0  0  0  0  0  0  0  0  0
    6.8199  -12.8388   18.6129 S   0  0  0  0  0  0  0  0  0  0  0  0
    7.2341  -14.4292   19.2725 C   0  0  0  0  0  0  0  0  0  0  0  0
    8.0209  -14.4001   20.5438 C   0  0  0  0  0  0  0  0  0  0  0  0
    8.4711  -15.7764   20.9293 C   0  0  2  0  0  0  0  0  0  0  0  0
    7.2805  -16.5285   21.2894 N   0  0  0  0  0  0  0  0  0  0  0  0
    9.3753  -15.7241   22.1336 C   0  0  0  0  0  0  0  0  0  0  0  0
   10.4801  -15.1435   22.0564 O   0  0  0  0  0  0  0  0  0  0  0  0
    9.0021  -16.3145   23.3414 N   0  0  0  0  0  0  0  0  0  0  0  0
    9.7635  -16.1991   24.6010 C   0  0  1  0  0  0  0  0  0  0  0  0
    8.7859  -16.4059   25.6731 C   0  0  0  0  0  0  0  0  0  0  0  0
    7.6779  -15.4853   25.8317 C   0  0  0  0  0  0  0  0  0  0  0  0
    6.3503  -15.7892   25.7276 C   0  0  0  0  0  0  0  0  0  0  0  0
    5.6502  -14.6709   25.9265 N   0  0  0  0  0  0  0  0  0  0  0  0
    6.4748  -13.6279   26.1608 C   0  0  0  0  0  0  0  0  0  0  0  0
    6.2286  -12.2910   26.4178 C   0  0  0  0  0  0  0  0  0  0  0  0
    7.2812  -11.4066   26.6277 C   0  0  0  0  0  0  0  0  0  0  0  0
    8.5554  -11.9046   26.5709 C   0  0  0  0  0  0  0  0  0  0  0  0
    8.7908  -13.2349   26.3148 C   0  0  0  0  0  0  0  0  0  0  0  0
    7.7537  -14.1379   26.1017 C   0  0  0  0  0  0  0  0  0  0  0  0
   10.9098  -17.0604   24.4698 C   0  0  0  0  0  0  0  0  0  0  0  0
   10.7612  -18.2672   24.1228 O   0  0  0  0  0  0  0  0  0  0  0  0
   12.2247  -16.6325   24.7070 N   0  0  0  0  0  0  0  0  0  0  0  0
   13.3906  -17.4899   24.5101 C   0  0  1  0  0  0  0  0  0  0  0  0
   14.4605  -16.6176   23.9342 C   0  0  0  0  0  0  0  0  0  0  0  0
   15.7528  -17.3493   23.8575 C   0  0  0  0  0  0  0  0  0  0  0  0
   16.8072  -16.4363   23.2992 C   0  0  0  0  0  0  0  0  0  0  0  0
   17.9496  -16.4984   23.7982 O   0  0  0  0  0  0  0  0  0  0  0  0
   13.8182  -18.0413   25.8071 C   0  0  0  0  0  0  0  0  0  0  0  0
   14.5182  -19.2611   25.8818 O   0  0  0  0  0  0  0  0  0  0  0  0
   16.5173  -15.5709   22.2804 O   0  0  0  0  0  0  0  0  0  0  0  0
   13.6062  -17.4971   26.9192 O   0  0  0  0  0  0  0  0  0  0  0  0
  2  1  1  0
  3  2  1  0
  4  3  1  0
  5  4  1  0
  5  6  1  1
  7  5  1  0
  7  8  2  0
  9  7  1  0
 10  9  1  0
 10 11  1  1
 11 12  1  0
 12 13  2  0
 12 20  1  0
 13 14  1  0
 14 15  1  0
 15 16  2  0
 16 17  1  0
 18 17  2  0
 19 18  1  0
 20 19  2  0
 20 15  1  0
 21 10  1  0
 22 21  2  0
 23 21  1  0
 24 25  1  1
 24 23  1  0
 25 26  1  0
 26 27  1  0
 27 31  1  0
 27 28  2  0
 29 30  1  0
 29 24  1  0
 32 29  2  0
M  END
$$$$
