MWE.pdb
     RDKit          3D

 32 33  0  0  1  0  0  0  0  0999 V2000
    8.4210  -11.9288   19.1552 C   0  0  0  0  0  0  0  0  0  0  0  0
    7.9071  -13.6219   19.4111 S   0  0  0  0  0  0  0  0  0  0  0  0
    6.7733  -13.8864   20.7454 C   0  0  0  0  0  0  0  0  0  0  0  0
    6.5494  -15.3196   21.1090 C   0  0  0  0  0  0  0  0  0  0  0  0
    7.8481  -16.0627   21.1908 C   0  0  2  0  0  0  0  0  0  0  0  0
    7.5237  -17.4709   21.3483 N   0  0  0  0  0  0  0  0  0  0  0  0
    8.6378  -15.6253   22.3973 C   0  0  0  0  0  0  0  0  0  0  0  0
    9.1550  -14.4870   22.4222 O   0  0  0  0  0  0  0  0  0  0  0  0
    8.8049  -16.4705   23.4947 N   0  0  0  0  0  0  0  0  0  0  0  0
    9.7440  -16.2240   24.6069 C   0  0  1  0  0  0  0  0  0  0  0  0
    8.9291  -16.2515   25.8246 C   0  0  0  0  0  0  0  0  0  0  0  0
    7.7452  -15.4217   25.9238 C   0  0  0  0  0  0  0  0  0  0  0  0
    6.4503  -15.8386   25.8001 C   0  0  0  0  0  0  0  0  0  0  0  0
    5.6553  -14.7764   25.9418 N   0  0  0  0  0  0  0  0  0  0  0  0
    6.3846  -13.6608   26.1569 C   0  0  0  0  0  0  0  0  0  0  0  0
    6.0222  -12.3411   26.3592 C   0  0  0  0  0  0  0  0  0  0  0  0
    6.9924  -11.3652   26.5611 C   0  0  0  0  0  0  0  0  0  0  0  0
    8.3044  -11.7568   26.5520 C   0  0  0  0  0  0  0  0  0  0  0  0
    8.6555  -13.0709   26.3502 C   0  0  0  0  0  0  0  0  0  0  0  0
    7.7024  -14.0641   26.1462 C   0  0  0  0  0  0  0  0  0  0  0  0
   10.8407  -17.1402   24.4306 C   0  0  0  0  0  0  0  0  0  0  0  0
   10.6169  -18.3510   24.1431 O   0  0  0  0  0  0  0  0  0  0  0  0
   12.1860  -16.7634   24.5585 N   0  0  0  0  0  0  0  0  0  0  0  0
   13.2870  -17.7232   24.5587 C   0  0  1  0  0  0  0  0  0  0  0  0
   14.5155  -16.9528   24.1923 C   0  0  0  0  0  0  0  0  0  0  0  0
   14.3681  -16.3335   22.8484 C   0  0  0  0  0  0  0  0  0  0  0  0
   15.6435  -15.6273   22.4854 C   0  0  0  0  0  0  0  0  0  0  0  0
   16.2718  -16.0427   21.4900 O   0  0  0  0  0  0  0  0  0  0  0  0
   13.4273  -18.3076   25.9034 C   0  0  0  0  0  0  0  0  0  0  0  0
   14.2457  -19.4324   26.1239 O   0  0  0  0  0  0  0  0  0  0  0  0
   16.0930  -14.5677   23.2243 O   0  0  0  0  0  0  0  0  0  0  0  0
   12.8537  -17.8746   26.9336 O   0  0  0  0  0  0  0  0  0  0  0  0
  2  1  1  0
  3  2  1  0
  4  3  1  0
  5  4  1  0
  5  6  1  1
  7  5  1  0
  7  8  2  0
  9  7  1  0
 10  9  1  0
 10 11  1  1
 11 12  1  0
 12 13  2  0
 12 20  1  0
 13 14  1  0
 14 15  1  0
 15 16  2  0
 16 17  1  0
 18 17  2  0
 19 18  1  0
 20 19  2  0
 20 15  1  0
 21 10  1  0
 22 21  2  0
 23 21  1  0
 24 25  1  1
 24 23  1  0
 25 26  1  0
 26 27  1  0
 27 31  1  0
 27 28  2  0
 29 30  1  0
 29 24  1  0
 32 29  2  0
M  END
$$$$
