MWE.pdb
     RDKit          3D

 32 33  0  0  1  0  0  0  0  0999 V2000
    8.1378  -12.4066   18.2579 C   0  0  0  0  0  0  0  0  0  0  0  0
    6.6316  -12.7726   19.1488 S   0  0  0  0  0  0  0  0  0  0  0  0
    6.7166  -14.1401   20.2707 C   0  0  0  0  0  0  0  0  0  0  0  0
    7.9414  -14.9882   20.1408 C   0  0  0  0  0  0  0  0  0  0  0  0
    7.9138  -16.1255   21.1162 C   0  0  2  0  0  0  0  0  0  0  0  0
    6.5167  -16.4097   21.3995 N   0  0  0  0  0  0  0  0  0  0  0  0
    8.5849  -15.7365   22.4081 C   0  0  0  0  0  0  0  0  0  0  0  0
    8.9235  -14.5480   22.5991 O   0  0  0  0  0  0  0  0  0  0  0  0
    8.8379  -16.6822   23.4022 N   0  0  0  0  0  0  0  0  0  0  0  0
    9.5665  -16.4054   24.6561 C   0  0  1  0  0  0  0  0  0  0  0  0
    8.5795  -16.5608   25.7282 C   0  0  0  0  0  0  0  0  0  0  0  0
    7.4874  -15.6162   25.8511 C   0  0  0  0  0  0  0  0  0  0  0  0
    6.1621  -15.8786   25.6499 C   0  0  0  0  0  0  0  0  0  0  0  0
    5.4792  -14.7494   25.8470 N   0  0  0  0  0  0  0  0  0  0  0  0
    6.3131  -13.7394   26.1744 C   0  0  0  0  0  0  0  0  0  0  0  0
    6.0848  -12.4067   26.4671 C   0  0  0  0  0  0  0  0  0  0  0  0
    7.1436  -11.5605   26.7788 C   0  0  0  0  0  0  0  0  0  0  0  0
    8.4057  -12.0915   26.7846 C   0  0  0  0  0  0  0  0  0  0  0  0
    8.6234  -13.4173   26.4925 C   0  0  0  0  0  0  0  0  0  0  0  0
    7.5797  -14.2824   26.1779 C   0  0  0  0  0  0  0  0  0  0  0  0
   10.7587  -17.2121   24.6263 C   0  0  0  0  0  0  0  0  0  0  0  0
   10.6727  -18.4736   24.6417 O   0  0  0  0  0  0  0  0  0  0  0  0
   12.0524  -16.6715   24.5769 N   0  0  0  0  0  0  0  0  0  0  0  0
   13.2601  -17.4926   24.5538 C   0  0  1  0  0  0  0  0  0  0  0  0
   14.3772  -16.5847   24.1481 C   0  0  0  0  0  0  0  0  0  0  0  0
   15.6890  -17.2733   24.2756 C   0  0  0  0  0  0  0  0  0  0  0  0
   16.7803  -16.3512   23.8109 C   0  0  0  0  0  0  0  0  0  0  0  0
   16.4457  -15.2255   23.3883 O   0  0  0  0  0  0  0  0  0  0  0  0
   13.5050  -18.0419   25.8983 C   0  0  0  0  0  0  0  0  0  0  0  0
   12.8963  -17.4762   27.0353 O   0  0  0  0  0  0  0  0  0  0  0  0
   18.0913  -16.7392   23.8529 O   0  0  0  0  0  0  0  0  0  0  0  0
   14.2485  -19.0243   26.1437 O   0  0  0  0  0  0  0  0  0  0  0  0
  2  1  1  0
  3  2  1  0
  4  3  1  0
  5  4  1  0
  5  6  1  1
  7  5  1  0
  7  8  2  0
  9  7  1  0
 10  9  1  0
 10 11  1  1
 11 12  1  0
 12 13  2  0
 12 20  1  0
 13 14  1  0
 14 15  1  0
 15 16  2  0
 16 17  1  0
 18 17  2  0
 19 18  1  0
 20 19  2  0
 20 15  1  0
 21 10  1  0
 22 21  2  0
 23 21  1  0
 24 25  1  1
 24 23  1  0
 25 26  1  0
 26 27  1  0
 27 31  1  0
 27 28  2  0
 29 30  1  0
 29 24  1  0
 32 29  2  0
M  END
$$$$
