MWE.pdb
     RDKit          3D

 32 33  0  0  1  0  0  0  0  0999 V2000
    8.2768  -11.5358   19.3137 C   0  0  0  0  0  0  0  0  0  0  0  0
    7.6173  -12.9970   18.5223 S   0  0  0  0  0  0  0  0  0  0  0  0
    7.9927  -14.5350   19.3156 C   0  0  0  0  0  0  0  0  0  0  0  0
    8.7585  -14.4154   20.5945 C   0  0  0  0  0  0  0  0  0  0  0  0
    9.2168  -15.7590   21.0745 C   0  0  2  0  0  0  0  0  0  0  0  0
    8.0491  -16.6245   21.0958 N   0  0  0  0  0  0  0  0  0  0  0  0
    9.7589  -15.6677   22.4776 C   0  0  0  0  0  0  0  0  0  0  0  0
   10.7363  -14.9261   22.7190 O   0  0  0  0  0  0  0  0  0  0  0  0
    9.1884  -16.3991   23.5197 N   0  0  0  0  0  0  0  0  0  0  0  0
    9.6362  -16.3435   24.9255 C   0  0  1  0  0  0  0  0  0  0  0  0
    8.4486  -16.6446   25.7298 C   0  0  0  0  0  0  0  0  0  0  0  0
    7.4523  -15.6187   25.9641 C   0  0  0  0  0  0  0  0  0  0  0  0
    6.1089  -15.8130   26.1163 C   0  0  0  0  0  0  0  0  0  0  0  0
    5.5339  -14.6231   26.3001 N   0  0  0  0  0  0  0  0  0  0  0  0
    6.4576  -13.6388   26.2749 C   0  0  0  0  0  0  0  0  0  0  0  0
    6.3539  -12.2665   26.4157 C   0  0  0  0  0  0  0  0  0  0  0  0
    7.4862  -11.4618   26.3469 C   0  0  0  0  0  0  0  0  0  0  0  0
    8.6930  -12.0734   26.1369 C   0  0  0  0  0  0  0  0  0  0  0  0
    8.7868  -13.4381   25.9980 C   0  0  0  0  0  0  0  0  0  0  0  0
    7.6679  -14.2629   26.0632 C   0  0  0  0  0  0  0  0  0  0  0  0
   10.8164  -17.1634   25.0145 C   0  0  0  0  0  0  0  0  0  0  0  0
   11.4557  -17.2408   26.1027 O   0  0  0  0  0  0  0  0  0  0  0  0
   11.3182  -17.9089   23.9371 N   0  0  0  0  0  0  0  0  0  0  0  0
   12.4580  -18.8146   24.0554 C   0  0  1  0  0  0  0  0  0  0  0  0
   12.5581  -19.5362   22.7492 C   0  0  0  0  0  0  0  0  0  0  0  0
   12.9922  -18.6119   21.6682 C   0  0  0  0  0  0  0  0  0  0  0  0
   13.1871  -19.3908   20.3984 C   0  0  0  0  0  0  0  0  0  0  0  0
   12.7945  -20.5755   20.3802 O   0  0  0  0  0  0  0  0  0  0  0  0
   13.6807  -18.0331   24.3073 C   0  0  0  0  0  0  0  0  0  0  0  0
   13.6859  -16.6309   24.1753 O   0  0  0  0  0  0  0  0  0  0  0  0
   13.7746  -18.8148   19.3057 O   0  0  0  0  0  0  0  0  0  0  0  0
   14.7850  -18.5251   24.6484 O   0  0  0  0  0  0  0  0  0  0  0  0
  2  1  1  0
  3  2  1  0
  4  3  1  0
  5  4  1  0
  5  6  1  1
  7  5  1  0
  7  8  2  0
  9  7  1  0
 10  9  1  0
 10 11  1  1
 11 12  1  0
 12 13  2  0
 12 20  1  0
 13 14  1  0
 14 15  1  0
 15 16  2  0
 16 17  1  0
 18 17  2  0
 19 18  1  0
 20 19  2  0
 20 15  1  0
 21 10  1  0
 22 21  2  0
 23 21  1  0
 24 25  1  6
 24 23  1  0
 25 26  1  0
 26 27  1  0
 27 31  1  0
 27 28  2  0
 29 30  1  0
 29 24  1  0
 32 29  2  0
M  END
$$$$
