MWE.pdb
     RDKit          3D

 32 33  0  0  1  0  0  0  0  0999 V2000
    9.1518  -18.9581   16.7726 C   0  0  0  0  0  0  0  0  0  0  0  0
    9.6324  -17.7921   18.0398 S   0  0  0  0  0  0  0  0  0  0  0  0
    8.4461  -16.5311   18.4120 C   0  0  0  0  0  0  0  0  0  0  0  0
    8.7557  -15.7108   19.6234 C   0  0  0  0  0  0  0  0  0  0  0  0
    7.7461  -15.9472   20.7053 C   0  0  2  0  0  0  0  0  0  0  0  0
    6.6221  -15.0648   20.4390 N   0  0  0  0  0  0  0  0  0  0  0  0
    8.3154  -15.5883   22.0536 C   0  0  0  0  0  0  0  0  0  0  0  0
    8.6136  -14.4004   22.3059 O   0  0  0  0  0  0  0  0  0  0  0  0
    8.5179  -16.5613   23.0327 N   0  0  0  0  0  0  0  0  0  0  0  0
    9.1720  -16.3175   24.3337 C   0  0  1  0  0  0  0  0  0  0  0  0
    8.1125  -16.4464   25.3380 C   0  0  0  0  0  0  0  0  0  0  0  0
    7.1600  -15.3711   25.5295 C   0  0  0  0  0  0  0  0  0  0  0  0
    5.8206  -15.4179   25.2658 C   0  0  0  0  0  0  0  0  0  0  0  0
    5.2959  -14.2274   25.5616 N   0  0  0  0  0  0  0  0  0  0  0  0
    6.2491  -13.3862   26.0160 C   0  0  0  0  0  0  0  0  0  0  0  0
    6.1986  -12.0706   26.4407 C   0  0  0  0  0  0  0  0  0  0  0  0
    7.3520  -11.4216   26.8683 C   0  0  0  0  0  0  0  0  0  0  0  0
    8.5253  -12.1271   26.8529 C   0  0  0  0  0  0  0  0  0  0  0  0
    8.5663  -13.4346   26.4291 C   0  0  0  0  0  0  0  0  0  0  0  0
    7.4254  -14.1040   25.9970 C   0  0  0  0  0  0  0  0  0  0  0  0
   10.3360  -17.1639   24.3745 C   0  0  0  0  0  0  0  0  0  0  0  0
   10.2336  -18.3674   24.7488 O   0  0  0  0  0  0  0  0  0  0  0  0
   11.6184  -16.7263   24.0111 N   0  0  0  0  0  0  0  0  0  0  0  0
   12.8185  -17.5406   24.1847 C   0  0  1  0  0  0  0  0  0  0  0  0
   13.9683  -16.6937   23.7401 C   0  0  0  0  0  0  0  0  0  0  0  0
   13.7414  -16.1768   22.3644 C   0  0  0  0  0  0  0  0  0  0  0  0
   15.0660  -15.9842   21.6823 C   0  0  0  0  0  0  0  0  0  0  0  0
   15.4965  -14.8177   21.5733 O   0  0  0  0  0  0  0  0  0  0  0  0
   12.9640  -17.9024   25.6050 C   0  0  0  0  0  0  0  0  0  0  0  0
   12.4646  -17.0657   26.6218 O   0  0  0  0  0  0  0  0  0  0  0  0
   15.7689  -17.0543   21.2009 O   0  0  0  0  0  0  0  0  0  0  0  0
   13.5237  -18.9468   26.0220 O   0  0  0  0  0  0  0  0  0  0  0  0
  2  1  1  0
  3  2  1  0
  4  3  1  0
  5  4  1  0
  5  6  1  6
  7  5  1  0
  7  8  2  0
  9  7  1  0
 10  9  1  0
 10 11  1  1
 11 12  1  0
 12 13  2  0
 12 20  1  0
 13 14  1  0
 14 15  1  0
 15 16  2  0
 16 17  1  0
 18 17  2  0
 19 18  1  0
 20 19  2  0
 20 15  1  0
 21 10  1  0
 22 21  2  0
 23 21  1  0
 24 25  1  1
 24 23  1  0
 25 26  1  0
 26 27  1  0
 27 31  1  0
 27 28  2  0
 29 30  1  0
 29 24  1  0
 32 29  2  0
M  END
$$$$
