MWE.pdb
     RDKit          3D

 32 33  0  0  1  0  0  0  0  0999 V2000
    6.3876  -11.7961   20.0538 C   0  0  0  0  0  0  0  0  0  0  0  0
    7.6616  -12.8937   19.4470 S   0  0  0  0  0  0  0  0  0  0  0  0
    7.8412  -14.4208   20.3255 C   0  0  0  0  0  0  0  0  0  0  0  0
    8.9496  -15.3007   19.8422 C   0  0  0  0  0  0  0  0  0  0  0  0
    8.9790  -16.5935   20.5995 C   0  0  2  0  0  0  0  0  0  0  0  0
    7.6001  -17.0252   20.7586 N   0  0  0  0  0  0  0  0  0  0  0  0
    9.5697  -16.3946   21.9715 C   0  0  0  0  0  0  0  0  0  0  0  0
   10.7369  -15.9613   22.0886 O   0  0  0  0  0  0  0  0  0  0  0  0
    8.8357  -16.6862   23.1215 N   0  0  0  0  0  0  0  0  0  0  0  0
    9.3568  -16.5765   24.4985 C   0  0  1  0  0  0  0  0  0  0  0  0
    8.1983  -16.7691   25.3752 C   0  0  0  0  0  0  0  0  0  0  0  0
    7.2257  -15.7069   25.5356 C   0  0  0  0  0  0  0  0  0  0  0  0
    5.8707  -15.8221   25.4066 C   0  0  0  0  0  0  0  0  0  0  0  0
    5.3286  -14.6213   25.6170 N   0  0  0  0  0  0  0  0  0  0  0  0
    6.2853  -13.7066   25.8830 C   0  0  0  0  0  0  0  0  0  0  0  0
    6.2218  -12.3531   26.1621 C   0  0  0  0  0  0  0  0  0  0  0  0
    7.3828  -11.6266   26.4040 C   0  0  0  0  0  0  0  0  0  0  0  0
    8.5768  -12.2952   26.3559 C   0  0  0  0  0  0  0  0  0  0  0  0
    8.6305  -13.6407   26.0777 C   0  0  0  0  0  0  0  0  0  0  0  0
    7.4823  -14.3877   25.8325 C   0  0  0  0  0  0  0  0  0  0  0  0
   10.4975  -17.4514   24.5781 C   0  0  0  0  0  0  0  0  0  0  0  0
   10.9099  -18.0532   23.5452 O   0  0  0  0  0  0  0  0  0  0  0  0
   11.2064  -17.6851   25.7660 N   0  0  0  0  0  0  0  0  0  0  0  0
   12.4959  -18.3700   25.8042 C   0  0  1  0  0  0  0  0  0  0  0  0
   13.4698  -17.4702   25.1124 C   0  0  0  0  0  0  0  0  0  0  0  0
   13.9559  -18.0899   23.8510 C   0  0  0  0  0  0  0  0  0  0  0  0
   14.9909  -17.1976   23.2269 C   0  0  0  0  0  0  0  0  0  0  0  0
   16.1216  -17.1658   23.7546 O   0  0  0  0  0  0  0  0  0  0  0  0
   12.8965  -18.5826   27.2055 C   0  0  0  0  0  0  0  0  0  0  0  0
   12.1530  -18.0274   28.2651 O   0  0  0  0  0  0  0  0  0  0  0  0
   14.6966  -16.4500   22.1199 O   0  0  0  0  0  0  0  0  0  0  0  0
   13.8965  -19.2504   27.5689 O   0  0  0  0  0  0  0  0  0  0  0  0
  2  1  1  0
  3  2  1  0
  4  3  1  0
  5  4  1  0
  5  6  1  1
  7  5  1  0
  7  8  2  0
  9  7  1  0
 10  9  1  0
 10 11  1  1
 11 12  1  0
 12 13  2  0
 12 20  1  0
 13 14  1  0
 14 15  1  0
 15 16  2  0
 16 17  1  0
 18 17  2  0
 19 18  1  0
 20 19  2  0
 20 15  1  0
 21 10  1  0
 22 21  2  0
 23 21  1  0
 24 25  1  6
 24 23  1  0
 25 26  1  0
 26 27  1  0
 27 31  1  0
 27 28  2  0
 29 30  1  0
 29 24  1  0
 32 29  2  0
M  END
$$$$
