APR.pdb
     RDKit          3D

 24 24  0  0  1  0  0  0  0  0999 V2000
    4.5380  -16.9132   21.5856 C   0  0  0  0  0  0  0  0  0  0  0  0
    5.5652  -17.1677   20.4926 C   0  0  2  0  0  0  0  0  0  0  0  0
    5.6192  -18.5307   20.0769 N   0  0  0  0  0  0  0  0  0  0  0  0
    6.8617  -16.5554   20.8301 C   0  0  0  0  0  0  0  0  0  0  0  0
    7.6277  -17.2297   21.5496 O   0  0  0  0  0  0  0  0  0  0  0  0
    7.2773  -15.2493   20.3817 N   0  0  0  0  0  0  0  0  0  0  0  0
    6.5293  -14.5127   19.3793 C   0  0  0  0  0  0  0  0  0  0  0  0
    7.3134  -13.2430   19.1369 C   0  0  0  0  0  0  0  0  0  0  0  0
    8.1006  -13.0592   20.4147 C   0  0  0  0  0  0  0  0  0  0  0  0
    8.4102  -14.5097   20.7513 C   0  0  1  0  0  0  0  0  0  0  0  0
    8.8235  -14.5956   22.1838 C   0  0  0  0  0  0  0  0  0  0  0  0
    8.1534  -13.9966   23.0385 O   0  0  0  0  0  0  0  0  0  0  0  0
    7.0390  -19.6105   27.8057 N   0  0  0  0  0  0  0  0  0  0  0  0
    7.2341  -20.0558   26.4685 C   0  0  0  0  0  0  0  0  0  0  0  0
    6.7747  -21.1874   26.1055 N   0  0  0  0  0  0  0  0  0  0  0  0
    7.9459  -19.2353   25.5310 N   0  0  0  0  0  0  0  0  0  0  0  0
    8.1858  -17.8372   25.8565 C   0  0  0  0  0  0  0  0  0  0  0  0
    8.9285  -17.2544   24.6569 C   0  0  0  0  0  0  0  0  0  0  0  0
    9.2949  -15.8183   24.8779 C   0  0  0  0  0  0  0  0  0  0  0  0
   10.4112  -15.4258   23.9741 C   0  0  2  0  0  0  0  0  0  0  0  0
    9.9592  -15.3442   22.5821 N   0  0  0  0  0  0  0  0  0  0  0  0
   11.5814  -16.2637   24.1256 C   0  0  0  0  0  0  0  0  0  0  0  0
   12.3409  -16.3207   25.2673 O   0  0  0  0  0  0  0  0  0  0  0  0
   11.9282  -16.9861   23.1421 O   0  0  0  0  0  0  0  0  0  0  0  0
  2  1  1  1
  2  3  1  0
  4  2  1  0
  5  4  2  0
  6 10  1  0
  6  4  1  0
  7  6  1  0
  8  7  1  0
  8  9  1  0
  9 10  1  0
 10 11  1  1
 11 12  2  0
 13 14  1  0
 14 15  2  0
 16 17  1  0
 16 14  1  0
 18 17  1  0
 19 18  1  0
 20 21  1  0
 20 19  1  1
 21 11  1  0
 22 20  1  0
 23 22  1  0
 24 22  2  0
M  END
$$$$
