APR.pdb
     RDKit          3D

 24 24  0  0  1  0  0  0  0  0999 V2000
    6.7396  -17.8472   18.6276 C   0  0  0  0  0  0  0  0  0  0  0  0
    7.8937  -16.9369   18.2356 C   0  0  2  0  0  0  0  0  0  0  0  0
    8.8806  -17.5897   17.4397 N   0  0  0  0  0  0  0  0  0  0  0  0
    8.4064  -16.1980   19.4021 C   0  0  0  0  0  0  0  0  0  0  0  0
    9.1547  -16.8282   20.1780 O   0  0  0  0  0  0  0  0  0  0  0  0
    8.0934  -14.8187   19.6837 N   0  0  0  0  0  0  0  0  0  0  0  0
    7.4398  -13.9692   18.7049 C   0  0  0  0  0  0  0  0  0  0  0  0
    7.3520  -12.6024   19.3453 C   0  0  0  0  0  0  0  0  0  0  0  0
    7.4022  -12.8977   20.8274 C   0  0  0  0  0  0  0  0  0  0  0  0
    8.3724  -14.0690   20.8358 C   0  0  1  0  0  0  0  0  0  0  0  0
    8.2541  -14.7849   22.1412 C   0  0  0  0  0  0  0  0  0  0  0  0
    7.1259  -14.9814   22.6175 O   0  0  0  0  0  0  0  0  0  0  0  0
    7.3985  -22.2945   26.9176 N   0  0  0  0  0  0  0  0  0  0  0  0
    7.2845  -20.8764   26.8904 C   0  0  0  0  0  0  0  0  0  0  0  0
    6.1991  -20.3221   27.2619 N   0  0  0  0  0  0  0  0  0  0  0  0
    8.3864  -20.0720   26.4460 N   0  0  0  0  0  0  0  0  0  0  0  0
    8.3495  -19.5019   25.1074 C   0  0  0  0  0  0  0  0  0  0  0  0
    8.8123  -18.0554   25.2606 C   0  0  0  0  0  0  0  0  0  0  0  0
    8.8786  -17.3530   23.9386 C   0  0  0  0  0  0  0  0  0  0  0  0
    9.3206  -15.9435   24.1248 C   0  0  2  0  0  0  0  0  0  0  0  0
    9.3992  -15.2411   22.8407 N   0  0  0  0  0  0  0  0  0  0  0  0
   10.5438  -15.8319   24.8901 C   0  0  0  0  0  0  0  0  0  0  0  0
   10.6042  -15.9294   26.2578 O   0  0  0  0  0  0  0  0  0  0  0  0
   11.6251  -15.6277   24.2586 O   0  0  0  0  0  0  0  0  0  0  0  0
  2  1  1  1
  2  3  1  0
  4  2  1  0
  5  4  2  0
  6 10  1  0
  6  4  1  0
  7  6  1  0
  8  7  1  0
  8  9  1  0
  9 10  1  0
 10 11  1  1
 11 12  2  0
 13 14  1  0
 14 15  2  0
 16 17  1  0
 16 14  1  0
 18 17  1  0
 19 18  1  0
 20 21  1  0
 20 19  1  6
 21 11  1  0
 22 20  1  0
 23 22  1  0
 24 22  2  0
M  END
$$$$
