APR.pdb
     RDKit          3D

 24 24  0  0  1  0  0  0  0  0999 V2000
    6.8024  -17.1025   17.4317 C   0  0  0  0  0  0  0  0  0  0  0  0
    7.9508  -16.1753   17.0631 C   0  0  2  0  0  0  0  0  0  0  0  0
    8.7294  -16.6512   15.9673 N   0  0  0  0  0  0  0  0  0  0  0  0
    8.7143  -15.7758   18.2577 C   0  0  0  0  0  0  0  0  0  0  0  0
    9.6834  -16.4990   18.5692 O   0  0  0  0  0  0  0  0  0  0  0  0
    8.4042  -14.6207   19.0635 N   0  0  0  0  0  0  0  0  0  0  0  0
    7.4573  -13.6135   18.6211 C   0  0  0  0  0  0  0  0  0  0  0  0
    7.4618  -12.5498   19.6955 C   0  0  0  0  0  0  0  0  0  0  0  0
    7.9316  -13.2885   20.9283 C   0  0  0  0  0  0  0  0  0  0  0  0
    8.9387  -14.2418   20.3036 C   0  0  1  0  0  0  0  0  0  0  0  0
    9.2250  -15.3436   21.2702 C   0  0  0  0  0  0  0  0  0  0  0  0
    8.3077  -16.1151   21.5893 O   0  0  0  0  0  0  0  0  0  0  0  0
   15.4479  -21.4269   21.9719 N   0  0  0  0  0  0  0  0  0  0  0  0
   14.6110  -21.5376   23.1174 C   0  0  0  0  0  0  0  0  0  0  0  0
   14.6696  -22.5821   23.8447 N   0  0  0  0  0  0  0  0  0  0  0  0
   13.7034  -20.4783   23.4533 N   0  0  0  0  0  0  0  0  0  0  0  0
   13.5267  -19.3771   22.5183 C   0  0  0  0  0  0  0  0  0  0  0  0
   12.3508  -18.5641   23.0536 C   0  0  0  0  0  0  0  0  0  0  0  0
   12.0046  -17.4263   22.1420 C   0  0  0  0  0  0  0  0  0  0  0  0
   10.8597  -16.6519   22.6954 C   0  0  2  0  0  0  0  0  0  0  0  0
   10.5166  -15.5231   21.8255 N   0  0  0  0  0  0  0  0  0  0  0  0
   11.0637  -16.2468   24.0696 C   0  0  0  0  0  0  0  0  0  0  0  0
   10.8447  -17.0638   25.1504 O   0  0  0  0  0  0  0  0  0  0  0  0
   11.4657  -15.0635   24.2885 O   0  0  0  0  0  0  0  0  0  0  0  0
  2  1  1  1
  2  3  1  0
  4  2  1  0
  5  4  2  0
  6 10  1  0
  6  4  1  0
  7  6  1  0
  8  7  1  0
  8  9  1  0
  9 10  1  0
 10 11  1  1
 11 12  2  0
 13 14  1  0
 14 15  2  0
 16 17  1  0
 16 14  1  0
 18 17  1  0
 19 18  1  0
 20 21  1  0
 20 19  1  6
 21 11  1  0
 22 20  1  0
 23 22  1  0
 24 22  2  0
M  END
$$$$
