APR.pdb
     RDKit          3D

 24 24  0  0  1  0  0  0  0  0999 V2000
    7.0534  -17.4354   17.6829 C   0  0  0  0  0  0  0  0  0  0  0  0
    8.0860  -16.3821   17.3102 C   0  0  2  0  0  0  0  0  0  0  0  0
    8.9330  -16.7799   16.2342 N   0  0  0  0  0  0  0  0  0  0  0  0
    8.7771  -15.8704   18.5060 C   0  0  0  0  0  0  0  0  0  0  0  0
    9.7172  -16.5635   18.9476 O   0  0  0  0  0  0  0  0  0  0  0  0
    8.4290  -14.6404   19.1737 N   0  0  0  0  0  0  0  0  0  0  0  0
    7.5835  -13.6429   18.5437 C   0  0  0  0  0  0  0  0  0  0  0  0
    7.5133  -12.4917   19.5213 C   0  0  0  0  0  0  0  0  0  0  0  0
    7.8076  -13.1378   20.8564 C   0  0  0  0  0  0  0  0  0  0  0  0
    8.8359  -14.1752   20.4327 C   0  0  1  0  0  0  0  0  0  0  0  0
    8.9621  -15.1993   21.5124 C   0  0  0  0  0  0  0  0  0  0  0  0
    7.9823  -15.9103   21.7823 O   0  0  0  0  0  0  0  0  0  0  0  0
   11.2378  -22.0143   25.2003 N   0  0  0  0  0  0  0  0  0  0  0  0
   12.5766  -21.5766   24.9979 C   0  0  0  0  0  0  0  0  0  0  0  0
   13.5397  -22.3967   25.1502 N   0  0  0  0  0  0  0  0  0  0  0  0
   12.8429  -20.2171   24.6244 N   0  0  0  0  0  0  0  0  0  0  0  0
   12.2580  -19.6943   23.3986 C   0  0  0  0  0  0  0  0  0  0  0  0
   11.3224  -18.5692   23.8334 C   0  0  0  0  0  0  0  0  0  0  0  0
   11.2324  -17.4925   22.7950 C   0  0  0  0  0  0  0  0  0  0  0  0
   10.3444  -16.3942   23.2663 C   0  0  2  0  0  0  0  0  0  0  0  0
   10.1725  -15.3729   22.2290 N   0  0  0  0  0  0  0  0  0  0  0  0
   10.7661  -15.8305   24.5306 C   0  0  0  0  0  0  0  0  0  0  0  0
   10.5441  -16.4253   25.7475 O   0  0  0  0  0  0  0  0  0  0  0  0
   11.3744  -14.7173   24.5133 O   0  0  0  0  0  0  0  0  0  0  0  0
  2  1  1  1
  2  3  1  0
  4  2  1  0
  5  4  2  0
  6 10  1  0
  6  4  1  0
  7  6  1  0
  8  7  1  0
  8  9  1  0
  9 10  1  0
 10 11  1  1
 11 12  2  0
 13 14  1  0
 14 15  2  0
 16 17  1  0
 16 14  1  0
 18 17  1  0
 19 18  1  0
 20 21  1  0
 20 19  1  6
 21 11  1  0
 22 20  1  0
 23 22  1  0
 24 22  2  0
M  END
$$$$
