APR.pdb
     RDKit          3D

 24 24  0  0  1  0  0  0  0  0999 V2000
    6.9412  -17.7751   18.6324 C   0  0  0  0  0  0  0  0  0  0  0  0
    8.1706  -16.9072   18.4092 C   0  0  2  0  0  0  0  0  0  0  0  0
    9.1969  -17.5644   17.6686 N   0  0  0  0  0  0  0  0  0  0  0  0
    8.6035  -16.2679   19.6635 C   0  0  0  0  0  0  0  0  0  0  0  0
    9.2378  -16.9843   20.4659 O   0  0  0  0  0  0  0  0  0  0  0  0
    8.3365  -14.8914   20.0006 N   0  0  0  0  0  0  0  0  0  0  0  0
    7.8756  -13.9381   19.0079 C   0  0  0  0  0  0  0  0  0  0  0  0
    7.7809  -12.6125   19.7287 C   0  0  0  0  0  0  0  0  0  0  0  0
    7.6084  -13.0052   21.1786 C   0  0  0  0  0  0  0  0  0  0  0  0
    8.4974  -14.2381   21.2313 C   0  0  1  0  0  0  0  0  0  0  0  0
    8.1579  -15.0266   22.4534 C   0  0  0  0  0  0  0  0  0  0  0  0
    7.0036  -15.4607   22.5858 O   0  0  0  0  0  0  0  0  0  0  0  0
    6.3054  -21.2925   24.7755 N   0  0  0  0  0  0  0  0  0  0  0  0
    6.8601  -21.1936   26.0821 C   0  0  0  0  0  0  0  0  0  0  0  0
    6.2034  -21.6306   27.0826 N   0  0  0  0  0  0  0  0  0  0  0  0
    8.1539  -20.6035   26.2742 N   0  0  0  0  0  0  0  0  0  0  0  0
    8.7847  -19.9081   25.1622 C   0  0  0  0  0  0  0  0  0  0  0  0
    8.6560  -18.4202   25.4778 C   0  0  0  0  0  0  0  0  0  0  0  0
    8.9000  -17.5745   24.2650 C   0  0  0  0  0  0  0  0  0  0  0  0
    8.8517  -16.1305   24.6247 C   0  0  2  0  0  0  0  0  0  0  0  0
    9.1238  -15.2866   23.4575 N   0  0  0  0  0  0  0  0  0  0  0  0
    9.6970  -15.8011   25.7522 C   0  0  0  0  0  0  0  0  0  0  0  0
   10.7824  -14.9645   25.6782 O   0  0  0  0  0  0  0  0  0  0  0  0
    9.4200  -16.3203   26.8762 O   0  0  0  0  0  0  0  0  0  0  0  0
  2  1  1  1
  2  3  1  0
  4  2  1  0
  5  4  2  0
  6 10  1  0
  6  4  1  0
  7  6  1  0
  8  7  1  0
  8  9  1  0
  9 10  1  0
 10 11  1  1
 11 12  2  0
 13 14  1  0
 14 15  2  0
 16 17  1  0
 16 14  1  0
 18 17  1  0
 19 18  1  0
 20 21  1  0
 20 19  1  6
 21 11  1  0
 22 20  1  0
 23 22  1  0
 24 22  2  0
M  END
$$$$
