APR.pdb
     RDKit          3D

 24 24  0  0  1  0  0  0  0  0999 V2000
    5.9713  -17.4411   19.0734 C   0  0  0  0  0  0  0  0  0  0  0  0
    7.0891  -16.8295   18.2421 C   0  0  2  0  0  0  0  0  0  0  0  0
    7.5273  -17.6736   17.1796 N   0  0  0  0  0  0  0  0  0  0  0  0
    8.1547  -16.2878   19.1028 C   0  0  0  0  0  0  0  0  0  0  0  0
    9.0107  -17.1003   19.5106 O   0  0  0  0  0  0  0  0  0  0  0  0
    8.2537  -14.9014   19.4872 N   0  0  0  0  0  0  0  0  0  0  0  0
    7.4409  -13.8755   18.8596 C   0  0  0  0  0  0  0  0  0  0  0  0
    7.8827  -12.5693   19.4797 C   0  0  0  0  0  0  0  0  0  0  0  0
    8.4635  -12.9844   20.8126 C   0  0  0  0  0  0  0  0  0  0  0  0
    9.1095  -14.3057   20.4252 C   0  0  1  0  0  0  0  0  0  0  0  0
    9.3873  -15.0896   21.6656 C   0  0  0  0  0  0  0  0  0  0  0  0
    8.4635  -15.2888   22.4689 O   0  0  0  0  0  0  0  0  0  0  0  0
   11.7230  -23.0575   23.8156 N   0  0  0  0  0  0  0  0  0  0  0  0
   11.3172  -22.2412   24.9082 C   0  0  0  0  0  0  0  0  0  0  0  0
   10.7625  -22.7742   25.9238 N   0  0  0  0  0  0  0  0  0  0  0  0
   11.5305  -20.8228   24.8678 N   0  0  0  0  0  0  0  0  0  0  0  0
   11.1256  -20.0816   23.6826 C   0  0  0  0  0  0  0  0  0  0  0  0
   11.6870  -18.6736   23.8631 C   0  0  0  0  0  0  0  0  0  0  0  0
   11.4154  -17.8126   22.6671 C   0  0  0  0  0  0  0  0  0  0  0  0
   10.9647  -16.4601   23.0967 C   0  0  2  0  0  0  0  0  0  0  0  0
   10.6780  -15.6072   21.9397 N   0  0  0  0  0  0  0  0  0  0  0  0
   11.8736  -15.8330   24.0322 C   0  0  0  0  0  0  0  0  0  0  0  0
   12.9104  -15.0135   23.6616 O   0  0  0  0  0  0  0  0  0  0  0  0
   11.7041  -16.0576   25.2692 O   0  0  0  0  0  0  0  0  0  0  0  0
  2  1  1  1
  2  3  1  0
  4  2  1  0
  5  4  2  0
  6 10  1  0
  6  4  1  0
  7  6  1  0
  8  7  1  0
  8  9  1  0
  9 10  1  0
 10 11  1  1
 11 12  2  0
 13 14  1  0
 14 15  2  0
 16 17  1  0
 16 14  1  0
 18 17  1  0
 19 18  1  0
 20 21  1  0
 20 19  1  6
 21 11  1  0
 22 20  1  0
 23 22  1  0
 24 22  2  0
M  END
$$$$
