APR.pdb
     RDKit          3D

 24 24  0  0  1  0  0  0  0  0999 V2000
    7.7760  -17.7298   17.5204 C   0  0  0  0  0  0  0  0  0  0  0  0
    8.4388  -16.4246   17.1058 C   0  0  2  0  0  0  0  0  0  0  0  0
    9.2692  -16.5557   15.9540 N   0  0  0  0  0  0  0  0  0  0  0  0
    9.0581  -15.7537   18.2616 C   0  0  0  0  0  0  0  0  0  0  0  0
   10.1491  -16.2150   18.6568 O   0  0  0  0  0  0  0  0  0  0  0  0
    8.4802  -14.6204   18.9407 N   0  0  0  0  0  0  0  0  0  0  0  0
    7.3755  -13.8710   18.3706 C   0  0  0  0  0  0  0  0  0  0  0  0
    7.1093  -12.7389   19.3366 C   0  0  0  0  0  0  0  0  0  0  0  0
    7.6512  -13.2548   20.6506 C   0  0  0  0  0  0  0  0  0  0  0  0
    8.8608  -14.0329   20.1560 C   0  0  1  0  0  0  0  0  0  0  0  0
    9.3101  -14.9638   21.2340 C   0  0  0  0  0  0  0  0  0  0  0  0
    8.7199  -16.0452   21.3773 O   0  0  0  0  0  0  0  0  0  0  0  0
    8.9346  -13.6476   28.0696 N   0  0  0  0  0  0  0  0  0  0  0  0
    9.8222  -14.6636   28.5221 C   0  0  0  0  0  0  0  0  0  0  0  0
   10.5885  -14.4378   29.5146 N   0  0  0  0  0  0  0  0  0  0  0  0
    9.8559  -15.9382   27.8640 N   0  0  0  0  0  0  0  0  0  0  0  0
    9.1110  -16.1133   26.6259 C   0  0  0  0  0  0  0  0  0  0  0  0
   10.1581  -16.1620   25.5162 C   0  0  0  0  0  0  0  0  0  0  0  0
    9.7434  -15.3478   24.3286 C   0  0  0  0  0  0  0  0  0  0  0  0
   10.7639  -15.4525   23.2495 C   0  0  2  0  0  0  0  0  0  0  0  0
   10.3914  -14.6368   22.0900 N   0  0  0  0  0  0  0  0  0  0  0  0
   11.0641  -16.8211   22.8873 C   0  0  0  0  0  0  0  0  0  0  0  0
   10.9020  -17.3331   21.6242 O   0  0  0  0  0  0  0  0  0  0  0  0
   11.4995  -17.5953   23.7931 O   0  0  0  0  0  0  0  0  0  0  0  0
  2  1  1  1
  2  3  1  0
  4  2  1  0
  5  4  2  0
  6 10  1  0
  6  4  1  0
  7  6  1  0
  8  7  1  0
  8  9  1  0
  9 10  1  0
 10 11  1  1
 11 12  2  0
 13 14  1  0
 14 15  2  0
 16 17  1  0
 16 14  1  0
 18 17  1  0
 19 18  1  0
 20 21  1  0
 20 19  1  1
 21 11  1  0
 22 20  1  0
 23 22  1  0
 24 22  2  0
M  END
$$$$
