APR.pdb
     RDKit          3D

 24 24  0  0  1  0  0  0  0  0999 V2000
    6.0201  -14.2601   21.5463 C   0  0  0  0  0  0  0  0  0  0  0  0
    7.3246  -13.5410   21.8557 C   0  0  2  0  0  0  0  0  0  0  0  0
    8.2905  -13.6529   20.8125 N   0  0  0  0  0  0  0  0  0  0  0  0
    7.8077  -13.8762   23.2063 C   0  0  0  0  0  0  0  0  0  0  0  0
    8.6280  -14.8139   23.2896 O   0  0  0  0  0  0  0  0  0  0  0  0
    7.3894  -13.1919   24.4048 N   0  0  0  0  0  0  0  0  0  0  0  0
    6.7101  -11.9101   24.3542 C   0  0  0  0  0  0  0  0  0  0  0  0
    6.5055  -11.5001   25.7950 C   0  0  0  0  0  0  0  0  0  0  0  0
    6.5277  -12.8118   26.5469 C   0  0  0  0  0  0  0  0  0  0  0  0
    7.5770  -13.5648   25.7438 C   0  0  1  0  0  0  0  0  0  0  0  0
    7.4666  -15.0221   26.0511 C   0  0  0  0  0  0  0  0  0  0  0  0
    6.3656  -15.5796   25.9272 O   0  0  0  0  0  0  0  0  0  0  0  0
   10.8042  -19.4788   20.8502 N   0  0  0  0  0  0  0  0  0  0  0  0
   11.7882  -18.9042   21.7025 C   0  0  0  0  0  0  0  0  0  0  0  0
   12.9946  -18.8119   21.3031 N   0  0  0  0  0  0  0  0  0  0  0  0
   11.4253  -18.4307   23.0074 N   0  0  0  0  0  0  0  0  0  0  0  0
   10.0551  -18.6053   23.4659 C   0  0  0  0  0  0  0  0  0  0  0  0
    9.9712  -17.8790   24.8059 C   0  0  0  0  0  0  0  0  0  0  0  0
    8.5937  -17.9551   25.3908 C   0  0  0  0  0  0  0  0  0  0  0  0
    8.5426  -17.2249   26.6873 C   0  0  2  0  0  0  0  0  0  0  0  0
    8.5890  -15.7748   26.4783 N   0  0  0  0  0  0  0  0  0  0  0  0
    9.5425  -17.6783   27.6302 C   0  0  0  0  0  0  0  0  0  0  0  0
    9.5758  -18.9423   28.1638 O   0  0  0  0  0  0  0  0  0  0  0  0
   10.4400  -16.8562   27.9882 O   0  0  0  0  0  0  0  0  0  0  0  0
  2  1  1  6
  2  3  1  0
  4  2  1  0
  5  4  2  0
  6 10  1  0
  6  4  1  0
  7  6  1  0
  8  7  1  0
  8  9  1  0
  9 10  1  0
 10 11  1  6
 11 12  2  0
 13 14  1  0
 14 15  2  0
 16 17  1  0
 16 14  1  0
 18 17  1  0
 19 18  1  0
 20 21  1  0
 20 19  1  6
 21 11  1  0
 22 20  1  0
 23 22  1  0
 24 22  2  0
M  END
$$$$
