APR.pdb
     RDKit          3D

 24 24  0  0  1  0  0  0  0  0999 V2000
    6.4165  -14.1634   20.7868 C   0  0  0  0  0  0  0  0  0  0  0  0
    7.4731  -13.1867   21.2812 C   0  0  2  0  0  0  0  0  0  0  0  0
    8.4040  -12.8050   20.2707 N   0  0  0  0  0  0  0  0  0  0  0  0
    8.0657  -13.6438   22.5499 C   0  0  0  0  0  0  0  0  0  0  0  0
    9.1184  -14.3102   22.4668 O   0  0  0  0  0  0  0  0  0  0  0  0
    7.5032  -13.3663   23.8485 N   0  0  0  0  0  0  0  0  0  0  0  0
    6.4453  -12.3890   24.0289 C   0  0  0  0  0  0  0  0  0  0  0  0
    6.1840  -12.3411   25.5173 C   0  0  0  0  0  0  0  0  0  0  0  0
    6.6617  -13.6893   26.0079 C   0  0  0  0  0  0  0  0  0  0  0  0
    7.8608  -13.8983   25.0959 C   0  0  1  0  0  0  0  0  0  0  0  0
    8.2401  -15.3426   25.1202 C   0  0  0  0  0  0  0  0  0  0  0  0
    7.4271  -16.1834   24.7073 O   0  0  0  0  0  0  0  0  0  0  0  0
   13.0416  -21.9317   22.8351 N   0  0  0  0  0  0  0  0  0  0  0  0
   13.8038  -21.0377   23.6379 C   0  0  0  0  0  0  0  0  0  0  0  0
   14.9928  -20.7359   23.2937 N   0  0  0  0  0  0  0  0  0  0  0  0
   13.2374  -20.4777   24.8314 N   0  0  0  0  0  0  0  0  0  0  0  0
   13.0129  -19.0414   24.8996 C   0  0  0  0  0  0  0  0  0  0  0  0
   11.4995  -18.8550   24.8272 C   0  0  0  0  0  0  0  0  0  0  0  0
   11.1214  -17.4052   24.8048 C   0  0  0  0  0  0  0  0  0  0  0  0
    9.9096  -17.1752   25.6389 C   0  0  2  0  0  0  0  0  0  0  0  0
    9.5034  -15.7673   25.6023 N   0  0  0  0  0  0  0  0  0  0  0  0
   10.0517  -17.6731   26.9902 C   0  0  0  0  0  0  0  0  0  0  0  0
   10.1152  -16.8693   28.1009 O   0  0  0  0  0  0  0  0  0  0  0  0
   10.1259  -18.9285   27.1579 O   0  0  0  0  0  0  0  0  0  0  0  0
  2  1  1  6
  2  3  1  0
  4  2  1  0
  5  4  2  0
  6 10  1  0
  6  4  1  0
  7  6  1  0
  8  7  1  0
  8  9  1  0
  9 10  1  0
 10 11  1  6
 11 12  2  0
 13 14  1  0
 14 15  2  0
 16 17  1  0
 16 14  1  0
 18 17  1  0
 19 18  1  0
 20 21  1  0
 20 19  1  1
 21 11  1  0
 22 20  1  0
 23 22  1  0
 24 22  2  0
M  END
$$$$
