APR.pdb
     RDKit          3D

 24 24  0  0  1  0  0  0  0  0999 V2000
    6.9114  -17.3536   17.7476 C   0  0  0  0  0  0  0  0  0  0  0  0
    8.1079  -16.4700   17.4278 C   0  0  2  0  0  0  0  0  0  0  0  0
    9.0021  -17.0534   16.4826 N   0  0  0  0  0  0  0  0  0  0  0  0
    8.7324  -15.9567   18.6591 C   0  0  0  0  0  0  0  0  0  0  0  0
    9.5434  -16.7140   19.2319 O   0  0  0  0  0  0  0  0  0  0  0  0
    8.4590  -14.6567   19.2201 N   0  0  0  0  0  0  0  0  0  0  0  0
    7.7532  -13.6345   18.4692 C   0  0  0  0  0  0  0  0  0  0  0  0
    7.7285  -12.4157   19.3634 C   0  0  0  0  0  0  0  0  0  0  0  0
    7.8744  -12.9897   20.7547 C   0  0  0  0  0  0  0  0  0  0  0  0
    8.8259  -14.1420   20.4722 C   0  0  1  0  0  0  0  0  0  0  0  0
    8.7857  -15.0946   21.6217 C   0  0  0  0  0  0  0  0  0  0  0  0
    7.7085  -15.6343   21.9161 O   0  0  0  0  0  0  0  0  0  0  0  0
   14.4530  -21.1265   24.9462 N   0  0  0  0  0  0  0  0  0  0  0  0
   13.1962  -21.1873   25.6106 C   0  0  0  0  0  0  0  0  0  0  0  0
   12.8895  -22.2206   26.2900 N   0  0  0  0  0  0  0  0  0  0  0  0
   12.2761  -20.0902   25.5165 N   0  0  0  0  0  0  0  0  0  0  0  0
   12.4409  -19.1208   24.4436 C   0  0  0  0  0  0  0  0  0  0  0  0
   11.1970  -18.2371   24.4895 C   0  0  0  0  0  0  0  0  0  0  0  0
   11.2002  -17.2205   23.3886 C   0  0  0  0  0  0  0  0  0  0  0  0
    9.9663  -16.3894   23.4505 C   0  0  2  0  0  0  0  0  0  0  0  0
    9.9478  -15.3917   22.3767 N   0  0  0  0  0  0  0  0  0  0  0  0
    9.7472  -15.8004   24.7541 C   0  0  0  0  0  0  0  0  0  0  0  0
    9.0869  -16.4307   25.7790 O   0  0  0  0  0  0  0  0  0  0  0  0
   10.1888  -14.6291   24.9605 O   0  0  0  0  0  0  0  0  0  0  0  0
  2  1  1  1
  2  3  1  0
  4  2  1  0
  5  4  2  0
  6 10  1  0
  6  4  1  0
  7  6  1  0
  8  7  1  0
  8  9  1  0
  9 10  1  0
 10 11  1  1
 11 12  2  0
 13 14  1  0
 14 15  2  0
 16 17  1  0
 16 14  1  0
 18 17  1  0
 19 18  1  0
 20 21  1  0
 20 19  1  1
 21 11  1  0
 22 20  1  0
 23 22  1  0
 24 22  2  0
M  END
$$$$
