APR.pdb
     RDKit          3D

 24 24  0  0  1  0  0  0  0  0999 V2000
    6.5149  -14.1381   21.2841 C   0  0  0  0  0  0  0  0  0  0  0  0
    7.7911  -13.5098   21.8235 C   0  0  2  0  0  0  0  0  0  0  0  0
    8.8989  -13.6325   20.9340 N   0  0  0  0  0  0  0  0  0  0  0  0
    8.0432  -13.9300   23.2126 C   0  0  0  0  0  0  0  0  0  0  0  0
    8.8136  -14.8996   23.3720 O   0  0  0  0  0  0  0  0  0  0  0  0
    7.4580  -13.2927   24.3663 N   0  0  0  0  0  0  0  0  0  0  0  0
    6.8058  -11.9992   24.2749 C   0  0  0  0  0  0  0  0  0  0  0  0
    6.3934  -11.6499   25.6869 C   0  0  0  0  0  0  0  0  0  0  0  0
    6.2916  -12.9937   26.3727 C   0  0  0  0  0  0  0  0  0  0  0  0
    7.4414  -13.7273   25.6997 C   0  0  1  0  0  0  0  0  0  0  0  0
    7.2730  -15.1947   25.9200 C   0  0  0  0  0  0  0  0  0  0  0  0
    6.1787  -15.7184   25.6620 O   0  0  0  0  0  0  0  0  0  0  0  0
    4.9507  -21.9412   23.4545 N   0  0  0  0  0  0  0  0  0  0  0  0
    5.6430  -22.3545   24.6269 C   0  0  0  0  0  0  0  0  0  0  0  0
    5.3313  -23.4535   25.1911 N   0  0  0  0  0  0  0  0  0  0  0  0
    6.6883  -21.5375   25.1737 N   0  0  0  0  0  0  0  0  0  0  0  0
    6.8588  -20.1814   24.6738 C   0  0  0  0  0  0  0  0  0  0  0  0
    8.0570  -19.6100   25.4275 C   0  0  0  0  0  0  0  0  0  0  0  0
    8.1679  -18.1266   25.2464 C   0  0  0  0  0  0  0  0  0  0  0  0
    8.2285  -17.4483   26.5705 C   0  0  2  0  0  0  0  0  0  0  0  0
    8.3335  -15.9947   26.4144 N   0  0  0  0  0  0  0  0  0  0  0  0
    9.2583  -17.9860   27.4335 C   0  0  0  0  0  0  0  0  0  0  0  0
    9.0552  -19.0114   28.3228 O   0  0  0  0  0  0  0  0  0  0  0  0
   10.4179  -17.4758   27.3666 O   0  0  0  0  0  0  0  0  0  0  0  0
  2  1  1  6
  2  3  1  0
  4  2  1  0
  5  4  2  0
  6 10  1  0
  6  4  1  0
  7  6  1  0
  8  7  1  0
  8  9  1  0
  9 10  1  0
 10 11  1  6
 11 12  2  0
 13 14  1  0
 14 15  2  0
 16 17  1  0
 16 14  1  0
 18 17  1  0
 19 18  1  0
 20 21  1  0
 20 19  1  6
 21 11  1  0
 22 20  1  0
 23 22  1  0
 24 22  2  0
M  END
$$$$
