APR.pdb
     RDKit          3D

 24 24  0  0  1  0  0  0  0  0999 V2000
    9.8986  -14.5619   17.8052 C   0  0  0  0  0  0  0  0  0  0  0  0
    9.0543  -13.5715   18.5931 C   0  0  2  0  0  0  0  0  0  0  0  0
    9.5246  -12.2287   18.4965 N   0  0  0  0  0  0  0  0  0  0  0  0
    8.8025  -14.0589   19.9601 C   0  0  0  0  0  0  0  0  0  0  0  0
    9.7235  -13.9005   20.7883 O   0  0  0  0  0  0  0  0  0  0  0  0
    7.5764  -14.6936   20.3764 N   0  0  0  0  0  0  0  0  0  0  0  0
    6.4095  -14.7391   19.5143 C   0  0  0  0  0  0  0  0  0  0  0  0
    5.3287  -15.4159   20.3264 C   0  0  0  0  0  0  0  0  0  0  0  0
    6.1001  -16.2341   21.3373 C   0  0  0  0  0  0  0  0  0  0  0  0
    7.2701  -15.2995   21.6037 C   0  0  1  0  0  0  0  0  0  0  0  0
    8.3677  -16.0737   22.2566 C   0  0  0  0  0  0  0  0  0  0  0  0
    9.1784  -16.6834   21.5430 O   0  0  0  0  0  0  0  0  0  0  0  0
   11.3535  -15.4138   30.2969 N   0  0  0  0  0  0  0  0  0  0  0  0
   10.5650  -14.8460   29.2572 C   0  0  0  0  0  0  0  0  0  0  0  0
   10.0517  -13.6903   29.4123 N   0  0  0  0  0  0  0  0  0  0  0  0
   10.3473  -15.5712   28.0384 N   0  0  0  0  0  0  0  0  0  0  0  0
   10.9662  -16.8782   27.8745 C   0  0  0  0  0  0  0  0  0  0  0  0
   10.8549  -17.2053   26.3876 C   0  0  0  0  0  0  0  0  0  0  0  0
    9.7685  -16.4125   25.7268 C   0  0  0  0  0  0  0  0  0  0  0  0
    9.5363  -16.9093   24.3425 C   0  0  2  0  0  0  0  0  0  0  0  0
    8.4995  -16.1236   23.6670 N   0  0  0  0  0  0  0  0  0  0  0  0
    9.2725  -18.3312   24.2899 C   0  0  0  0  0  0  0  0  0  0  0  0
   10.2462  -19.2866   24.1384 O   0  0  0  0  0  0  0  0  0  0  0  0
    8.0679  -18.7176   24.3857 O   0  0  0  0  0  0  0  0  0  0  0  0
  2  1  1  1
  2  3  1  0
  4  2  1  0
  5  4  2  0
  6 10  1  0
  6  4  1  0
  7  6  1  0
  8  7  1  0
  8  9  1  0
  9 10  1  0
 10 11  1  6
 11 12  2  0
 13 14  1  0
 14 15  2  0
 16 17  1  0
 16 14  1  0
 18 17  1  0
 19 18  1  0
 20 21  1  0
 20 19  1  1
 21 11  1  0
 22 20  1  0
 23 22  1  0
 24 22  2  0
M  END
$$$$
