APR.pdb
     RDKit          3D

 24 24  0  0  1  0  0  0  0  0999 V2000
    9.6448  -17.8554   17.1540 C   0  0  0  0  0  0  0  0  0  0  0  0
    8.4893  -17.0559   17.7372 C   0  0  2  0  0  0  0  0  0  0  0  0
    7.7817  -16.2947   16.7607 N   0  0  0  0  0  0  0  0  0  0  0  0
    8.9105  -16.3133   18.9375 C   0  0  0  0  0  0  0  0  0  0  0  0
    9.7395  -16.8777   19.6814 O   0  0  0  0  0  0  0  0  0  0  0  0
    8.4239  -15.0012   19.2856 N   0  0  0  0  0  0  0  0  0  0  0  0
    7.6747  -14.1902   18.3434 C   0  0  0  0  0  0  0  0  0  0  0  0
    7.4108  -12.8810   19.0520 C   0  0  0  0  0  0  0  0  0  0  0  0
    7.4881  -13.2454   20.5174 C   0  0  0  0  0  0  0  0  0  0  0  0
    8.5984  -14.2841   20.4784 C   0  0  1  0  0  0  0  0  0  0  0  0
    8.5629  -15.0770   21.7435 C   0  0  0  0  0  0  0  0  0  0  0  0
    7.5486  -15.7401   22.0077 O   0  0  0  0  0  0  0  0  0  0  0  0
   14.2326  -20.3004   22.1111 N   0  0  0  0  0  0  0  0  0  0  0  0
   13.3536  -19.8736   21.0767 C   0  0  0  0  0  0  0  0  0  0  0  0
   13.4283  -20.4082   19.9226 N   0  0  0  0  0  0  0  0  0  0  0  0
   12.3863  -18.8445   21.3303 N   0  0  0  0  0  0  0  0  0  0  0  0
   12.2822  -18.2886   22.6713 C   0  0  0  0  0  0  0  0  0  0  0  0
   11.0941  -17.3311   22.6314 C   0  0  0  0  0  0  0  0  0  0  0  0
   10.7862  -16.7751   23.9885 C   0  0  0  0  0  0  0  0  0  0  0  0
    9.6449  -15.8222   23.9088 C   0  0  2  0  0  0  0  0  0  0  0  0
    9.6596  -15.0861   22.6413 N   0  0  0  0  0  0  0  0  0  0  0  0
    9.5621  -14.9435   25.0557 C   0  0  0  0  0  0  0  0  0  0  0  0
    9.2991  -15.3722   26.3327 O   0  0  0  0  0  0  0  0  0  0  0  0
    9.7395  -13.7013   24.8686 O   0  0  0  0  0  0  0  0  0  0  0  0
  2  1  1  6
  2  3  1  0
  4  2  1  0
  5  4  2  0
  6 10  1  0
  6  4  1  0
  7  6  1  0
  8  7  1  0
  8  9  1  0
  9 10  1  0
 10 11  1  1
 11 12  2  0
 13 14  1  0
 14 15  2  0
 16 17  1  0
 16 14  1  0
 18 17  1  0
 19 18  1  0
 20 21  1  0
 20 19  1  1
 21 11  1  0
 22 20  1  0
 23 22  1  0
 24 22  2  0
M  END
$$$$
