LNW.pdb
     RDKit          3D

 31 32  0  0  1  0  0  0  0  0999 V2000
   36.9515  -26.6963  -22.2400 C   0  0  0  0  0  0  0  0  0  0  0  0
   36.6842  -28.0796  -22.7726 C   0  0  1  0  0  0  0  0  0  0  0  0
   37.8436  -29.0156  -22.3880 C   0  0  0  0  0  0  0  0  0  0  0  0
   35.4415  -28.7110  -22.2192 C   0  0  0  0  0  0  0  0  0  0  0  0
   35.1725  -30.0999  -22.6847 C   0  0  2  0  0  0  0  0  0  0  0  0
   34.8030  -30.0726  -24.0933 N   0  0  0  0  0  0  0  0  0  0  0  0
   34.0516  -30.7713  -21.9313 C   0  0  0  0  0  0  0  0  0  0  0  0
   32.8658  -30.5437  -22.2474 O   0  0  0  0  0  0  0  0  0  0  0  0
   32.1725  -35.6483  -19.2057 N   0  0  0  0  0  0  0  0  0  0  0  0
   32.6534  -34.3468  -18.7784 C   0  0  0  0  0  0  0  0  0  0  0  0
   32.1061  -33.9035  -17.7507 O   0  0  0  0  0  0  0  0  0  0  0  0
   33.7134  -33.7273  -19.5980 C   0  0  0  0  0  0  0  0  0  0  0  0
   33.3767  -32.3248  -20.0616 C   0  0  2  0  0  0  0  0  0  0  0  0
   34.3229  -31.6573  -20.8680 N   0  0  0  0  0  0  0  0  0  0  0  0
   32.6812  -31.5025  -19.0520 C   0  0  0  0  0  0  0  0  0  0  0  0
   33.3252  -30.8499  -18.1576 O   0  0  0  0  0  0  0  0  0  0  0  0
   31.2742  -31.3593  -18.9738 N   0  0  0  0  0  0  0  0  0  0  0  0
   30.6173  -30.5133  -17.9732 C   0  0  1  0  0  0  0  0  0  0  0  0
   29.5845  -29.7019  -18.7018 C   0  0  0  0  0  0  0  0  0  0  0  0
   28.8240  -28.7443  -17.8790 C   0  0  0  0  0  0  0  0  0  0  0  0
   29.3949  -27.6174  -17.2791 C   0  0  0  0  0  0  0  0  0  0  0  0
   28.4083  -27.0197  -16.6024 N   0  0  0  0  0  0  0  0  0  0  0  0
   27.2561  -27.6942  -16.7363 C   0  0  0  0  0  0  0  0  0  0  0  0
   25.9934  -27.4551  -16.2427 C   0  0  0  0  0  0  0  0  0  0  0  0
   24.9598  -28.3222  -16.5589 C   0  0  0  0  0  0  0  0  0  0  0  0
   25.1599  -29.4241  -17.3579 C   0  0  0  0  0  0  0  0  0  0  0  0
   26.4395  -29.6419  -17.8420 C   0  0  0  0  0  0  0  0  0  0  0  0
   27.4889  -28.7893  -17.5393 C   0  0  0  0  0  0  0  0  0  0  0  0
   30.1481  -31.3735  -16.9022 C   0  0  0  0  0  0  0  0  0  0  0  0
   29.8830  -32.6144  -17.1128 O   0  0  0  0  0  0  0  0  0  0  0  0
   29.9409  -30.9849  -15.5750 O   0  0  0  0  0  0  0  0  0  0  0  0
  2  1  1  1
  2  3  1  0
  4  2  1  0
  5  4  1  0
  5  6  1  6
  7  8  2  0
  7  5  1  0
 10 12  1  0
 10  9  1  0
 11 10  2  0
 13 12  1  1
 13 14  1  0
 14  7  1  0
 15 13  1  0
 15 17  1  0
 16 15  2  0
 18 17  1  0
 18 29  1  0
 19 20  1  0
 18 19  1  6
 20 28  1  0
 21 22  1  0
 21 20  2  0
 22 23  1  0
 23 28  2  0
 23 24  1  0
 24 25  2  0
 25 26  1  0
 27 26  2  0
 28 27  1  0
 29 30  2  0
 29 31  1  0
M  END
$$$$
