LNW.pdb
     RDKit          3D

 31 32  0  0  1  0  0  0  0  0999 V2000
   25.7616  -13.8462  -16.2945 C   0  0  0  0  0  0  0  0  0  0  0  0
   25.2322  -14.8736  -15.3286 C   0  0  1  0  0  0  0  0  0  0  0  0
   23.7234  -15.0715  -15.5585 C   0  0  0  0  0  0  0  0  0  0  0  0
   25.8558  -16.2286  -15.4851 C   0  0  0  0  0  0  0  0  0  0  0  0
   25.3132  -17.2858  -14.5873 C   0  0  2  0  0  0  0  0  0  0  0  0
   25.4639  -16.8644  -13.2013 N   0  0  0  0  0  0  0  0  0  0  0  0
   26.0153  -18.6118  -14.7406 C   0  0  0  0  0  0  0  0  0  0  0  0
   26.0429  -19.1762  -15.8535 O   0  0  0  0  0  0  0  0  0  0  0  0
   28.1427  -22.6779  -15.0145 N   0  0  0  0  0  0  0  0  0  0  0  0
   29.1221  -21.6064  -15.0300 C   0  0  0  0  0  0  0  0  0  0  0  0
   30.1566  -21.8588  -15.6768 O   0  0  0  0  0  0  0  0  0  0  0  0
   28.7725  -20.3749  -14.2950 C   0  0  0  0  0  0  0  0  0  0  0  0
   27.3993  -20.4214  -13.6567 C   0  0  2  0  0  0  0  0  0  0  0  0
   26.6446  -19.2292  -13.6397 N   0  0  0  0  0  0  0  0  0  0  0  0
   27.3209  -21.2628  -12.4462 C   0  0  0  0  0  0  0  0  0  0  0  0
   28.2992  -22.0033  -12.0782 O   0  0  0  0  0  0  0  0  0  0  0  0
   26.1889  -21.3337  -11.5979 N   0  0  0  0  0  0  0  0  0  0  0  0
   26.2938  -21.3692  -10.1363 C   0  0  1  0  0  0  0  0  0  0  0  0
   27.3236  -20.3464   -9.7503 C   0  0  0  0  0  0  0  0  0  0  0  0
   27.3250  -19.9409   -8.3332 C   0  0  0  0  0  0  0  0  0  0  0  0
   26.3221  -19.1578   -7.7530 C   0  0  0  0  0  0  0  0  0  0  0  0
   26.6838  -18.9805   -6.4777 N   0  0  0  0  0  0  0  0  0  0  0  0
   27.8457  -19.5989   -6.2170 C   0  0  0  0  0  0  0  0  0  0  0  0
   28.5865  -19.7048   -5.0615 C   0  0  0  0  0  0  0  0  0  0  0  0
   29.7643  -20.4349   -5.0686 C   0  0  0  0  0  0  0  0  0  0  0  0
   30.2189  -21.0620   -6.2054 C   0  0  0  0  0  0  0  0  0  0  0  0
   29.4548  -20.9403   -7.3546 C   0  0  0  0  0  0  0  0  0  0  0  0
   28.2741  -20.2155   -7.3722 C   0  0  0  0  0  0  0  0  0  0  0  0
   24.9592  -21.2029   -9.5903 C   0  0  0  0  0  0  0  0  0  0  0  0
   24.0770  -20.4881  -10.1946 O   0  0  0  0  0  0  0  0  0  0  0  0
   24.4860  -21.7726   -8.4041 O   0  0  0  0  0  0  0  0  0  0  0  0
  2  1  1  6
  2  3  1  0
  4  2  1  0
  5  4  1  0
  5  6  1  1
  7  8  2  0
  7  5  1  0
 10 12  1  0
 10  9  1  0
 11 10  2  0
 13 12  1  1
 13 14  1  0
 14  7  1  0
 15 13  1  0
 15 17  1  0
 16 15  2  0
 18 17  1  0
 18 29  1  0
 19 20  1  0
 18 19  1  1
 20 28  1  0
 21 22  1  0
 21 20  2  0
 22 23  1  0
 23 28  2  0
 23 24  1  0
 24 25  2  0
 25 26  1  0
 27 26  2  0
 28 27  1  0
 29 30  2  0
 29 31  1  0
M  END
$$$$
