LNW.pdb
     RDKit          3D

 31 32  0  0  1  0  0  0  0  0999 V2000
   30.3497  -15.5694  -18.1689 C   0  0  0  0  0  0  0  0  0  0  0  0
   30.1052  -17.0464  -18.3343 C   0  0  1  0  0  0  0  0  0  0  0  0
   31.4504  -17.7830  -18.4615 C   0  0  0  0  0  0  0  0  0  0  0  0
   29.3969  -17.6760  -17.1717 C   0  0  0  0  0  0  0  0  0  0  0  0
   29.0381  -19.1108  -17.3470 C   0  0  2  0  0  0  0  0  0  0  0  0
   29.0926  -19.4513  -18.7621 N   0  0  0  0  0  0  0  0  0  0  0  0
   27.6525  -19.4405  -16.8508 C   0  0  0  0  0  0  0  0  0  0  0  0
   26.6537  -19.0012  -17.4569 O   0  0  0  0  0  0  0  0  0  0  0  0
   22.8200  -20.9956  -15.8452 N   0  0  0  0  0  0  0  0  0  0  0  0
   24.0048  -21.7889  -15.5721 C   0  0  0  0  0  0  0  0  0  0  0  0
   23.8098  -22.7766  -14.8382 O   0  0  0  0  0  0  0  0  0  0  0  0
   25.2660  -21.3355  -16.1909 C   0  0  0  0  0  0  0  0  0  0  0  0
   26.2386  -20.7248  -15.2027 C   0  0  2  0  0  0  0  0  0  0  0  0
   27.4654  -20.2416  -15.7052 N   0  0  0  0  0  0  0  0  0  0  0  0
   26.2918  -21.4144  -13.8985 C   0  0  0  0  0  0  0  0  0  0  0  0
   27.2487  -22.2113  -13.5985 O   0  0  0  0  0  0  0  0  0  0  0  0
   25.3178  -21.2686  -12.8805 N   0  0  0  0  0  0  0  0  0  0  0  0
   25.5835  -21.5931  -11.4760 C   0  0  1  0  0  0  0  0  0  0  0  0
   26.7762  -20.7801  -11.0611 C   0  0  0  0  0  0  0  0  0  0  0  0
   26.8213  -20.3861   -9.6414 C   0  0  0  0  0  0  0  0  0  0  0  0
   25.7068  -19.9290   -8.9310 C   0  0  0  0  0  0  0  0  0  0  0  0
   26.1444  -19.6481   -7.6989 N   0  0  0  0  0  0  0  0  0  0  0  0
   27.4580  -19.8978   -7.5865 C   0  0  0  0  0  0  0  0  0  0  0  0
   28.3246  -19.7770   -6.5236 C   0  0  0  0  0  0  0  0  0  0  0  0
   29.6551  -20.1298   -6.6825 C   0  0  0  0  0  0  0  0  0  0  0  0
   30.1398  -20.6010   -7.8806 C   0  0  0  0  0  0  0  0  0  0  0  0
   29.2472  -20.7133   -8.9342 C   0  0  0  0  0  0  0  0  0  0  0  0
   27.9126  -20.3665   -8.7998 C   0  0  0  0  0  0  0  0  0  0  0  0
   24.3536  -21.3906  -10.7322 C   0  0  0  0  0  0  0  0  0  0  0  0
   24.1512  -21.9804   -9.6072 O   0  0  0  0  0  0  0  0  0  0  0  0
   23.2913  -20.5681  -11.1203 O   0  0  0  0  0  0  0  0  0  0  0  0
  2  1  1  1
  2  3  1  0
  4  2  1  0
  5  4  1  0
  5  6  1  6
  7  8  2  0
  7  5  1  0
 10 12  1  0
 10  9  1  0
 11 10  2  0
 13 12  1  6
 13 14  1  0
 14  7  1  0
 15 13  1  0
 15 17  1  0
 16 15  2  0
 18 17  1  0
 18 29  1  0
 19 20  1  0
 18 19  1  1
 20 28  1  0
 21 22  1  0
 21 20  2  0
 22 23  1  0
 23 28  2  0
 23 24  1  0
 24 25  2  0
 25 26  1  0
 27 26  2  0
 28 27  1  0
 29 30  2  0
 29 31  1  0
M  END
$$$$
