LNW.pdb
     RDKit          3D

 31 32  0  0  1  0  0  0  0  0999 V2000
   21.4301  -19.1519  -17.4949 C   0  0  0  0  0  0  0  0  0  0  0  0
   22.0493  -18.5574  -16.2573 C   0  0  1  0  0  0  0  0  0  0  0  0
   21.1007  -17.5038  -15.6585 C   0  0  0  0  0  0  0  0  0  0  0  0
   22.2997  -19.5562  -15.1668 C   0  0  0  0  0  0  0  0  0  0  0  0
   23.2007  -19.0932  -14.0750 C   0  0  2  0  0  0  0  0  0  0  0  0
   23.9074  -17.8960  -14.5092 N   0  0  0  0  0  0  0  0  0  0  0  0
   24.2358  -20.1186  -13.6853 C   0  0  0  0  0  0  0  0  0  0  0  0
   23.8774  -21.2600  -13.3295 O   0  0  0  0  0  0  0  0  0  0  0  0
   27.1108  -22.9729  -14.7704 N   0  0  0  0  0  0  0  0  0  0  0  0
   28.1283  -21.9521  -14.9445 C   0  0  0  0  0  0  0  0  0  0  0  0
   29.0874  -22.2931  -15.6629 O   0  0  0  0  0  0  0  0  0  0  0  0
   27.8994  -20.6619  -14.2647 C   0  0  0  0  0  0  0  0  0  0  0  0
   26.6791  -20.6603  -13.3668 C   0  0  2  0  0  0  0  0  0  0  0  0
   25.6109  -19.8069  -13.7157 N   0  0  0  0  0  0  0  0  0  0  0  0
   26.9850  -20.7706  -11.9268 C   0  0  0  0  0  0  0  0  0  0  0  0
   27.9402  -20.1070  -11.3902 O   0  0  0  0  0  0  0  0  0  0  0  0
   26.2745  -21.5980  -11.0230 N   0  0  0  0  0  0  0  0  0  0  0  0
   26.2948  -21.3890   -9.5724 C   0  0  1  0  0  0  0  0  0  0  0  0
   27.5454  -20.6170   -9.2628 C   0  0  0  0  0  0  0  0  0  0  0  0
   27.6330  -20.0572   -7.9021 C   0  0  0  0  0  0  0  0  0  0  0  0
   26.8347  -19.0026   -7.4478 C   0  0  0  0  0  0  0  0  0  0  0  0
   27.2212  -18.7625   -6.1902 N   0  0  0  0  0  0  0  0  0  0  0  0
   28.2079  -19.5944   -5.8231 C   0  0  0  0  0  0  0  0  0  0  0  0
   28.8986  -19.7287   -4.6399 C   0  0  0  0  0  0  0  0  0  0  0  0
   29.8764  -20.7039   -4.5255 C   0  0  0  0  0  0  0  0  0  0  0  0
   30.1798  -21.5487   -5.5679 C   0  0  0  0  0  0  0  0  0  0  0  0
   29.4701  -21.3931   -6.7475 C   0  0  0  0  0  0  0  0  0  0  0  0
   28.4884  -20.4252   -6.8859 C   0  0  0  0  0  0  0  0  0  0  0  0
   25.0319  -20.7827   -9.1925 C   0  0  0  0  0  0  0  0  0  0  0  0
   24.4486  -19.9265   -9.9548 O   0  0  0  0  0  0  0  0  0  0  0  0
   24.3235  -21.0424   -8.0151 O   0  0  0  0  0  0  0  0  0  0  0  0
  2  1  1  6
  2  3  1  0
  4  2  1  0
  5  4  1  0
  5  6  1  6
  7  8  2  0
  7  5  1  0
 10 12  1  0
 10  9  1  0
 11 10  2  0
 13 12  1  6
 13 14  1  0
 14  7  1  0
 15 13  1  0
 15 17  1  0
 16 15  2  0
 18 17  1  0
 18 29  1  0
 19 20  1  0
 18 19  1  6
 20 28  1  0
 21 22  1  0
 21 20  2  0
 22 23  1  0
 23 28  2  0
 23 24  1  0
 24 25  2  0
 25 26  1  0
 27 26  2  0
 28 27  1  0
 29 30  2  0
 29 31  1  0
M  END
$$$$
