LNW.pdb
     RDKit          3D

 31 32  0  0  1  0  0  0  0  0999 V2000
   24.2812  -33.6516  -10.3146 C   0  0  0  0  0  0  0  0  0  0  0  0
   25.6446  -33.7583   -9.6836 C   0  0  1  0  0  0  0  0  0  0  0  0
   26.6337  -34.3745  -10.6888 C   0  0  0  0  0  0  0  0  0  0  0  0
   26.2308  -32.4371   -9.2832 C   0  0  0  0  0  0  0  0  0  0  0  0
   27.2430  -32.4949   -8.1923 C   0  0  2  0  0  0  0  0  0  0  0  0
   28.0970  -33.6582   -8.3890 N   0  0  0  0  0  0  0  0  0  0  0  0
   26.6292  -32.6058   -6.8190 C   0  0  0  0  0  0  0  0  0  0  0  0
   25.6778  -31.8631   -6.5011 O   0  0  0  0  0  0  0  0  0  0  0  0
   24.2846  -35.7775   -3.9981 N   0  0  0  0  0  0  0  0  0  0  0  0
   24.3662  -36.0548   -5.4208 C   0  0  0  0  0  0  0  0  0  0  0  0
   23.4913  -36.8317   -5.8487 O   0  0  0  0  0  0  0  0  0  0  0  0
   25.4526  -35.3897   -6.1670 C   0  0  0  0  0  0  0  0  0  0  0  0
   26.3926  -34.5942   -5.2845 C   0  0  2  0  0  0  0  0  0  0  0  0
   27.1163  -33.5403   -5.8817 N   0  0  0  0  0  0  0  0  0  0  0  0
   27.1195  -35.4040   -4.2868 C   0  0  0  0  0  0  0  0  0  0  0  0
   26.8631  -36.6472   -4.1150 O   0  0  0  0  0  0  0  0  0  0  0  0
   28.1410  -34.9008   -3.4445 N   0  0  0  0  0  0  0  0  0  0  0  0
   29.3550  -35.6594   -3.1296 C   0  0  1  0  0  0  0  0  0  0  0  0
   30.0717  -35.8901   -4.4292 C   0  0  0  0  0  0  0  0  0  0  0  0
   31.3123  -35.1182   -4.6232 C   0  0  0  0  0  0  0  0  0  0  0  0
   32.4712  -35.3156   -3.8657 C   0  0  0  0  0  0  0  0  0  0  0  0
   33.3600  -34.4211   -4.3111 N   0  0  0  0  0  0  0  0  0  0  0  0
   32.8387  -33.6751   -5.2971 C   0  0  0  0  0  0  0  0  0  0  0  0
   33.3738  -32.6588   -6.0561 C   0  0  0  0  0  0  0  0  0  0  0  0
   32.6029  -32.0618   -7.0408 C   0  0  0  0  0  0  0  0  0  0  0  0
   31.3081  -32.4577   -7.2842 C   0  0  0  0  0  0  0  0  0  0  0  0
   30.7936  -33.4825   -6.5068 C   0  0  0  0  0  0  0  0  0  0  0  0
   31.5447  -34.0945   -5.5163 C   0  0  0  0  0  0  0  0  0  0  0  0
   30.0750  -34.9378   -2.0962 C   0  0  0  0  0  0  0  0  0  0  0  0
   30.9850  -35.5139   -1.3929 O   0  0  0  0  0  0  0  0  0  0  0  0
   29.8851  -33.5949   -1.7554 O   0  0  0  0  0  0  0  0  0  0  0  0
  2  1  1  6
  2  3  1  0
  4  2  1  0
  5  4  1  0
  5  6  1  6
  7  8  2  0
  7  5  1  0
 10 12  1  0
 10  9  1  0
 11 10  2  0
 13 12  1  6
 13 14  1  0
 14  7  1  0
 15 13  1  0
 15 17  1  0
 16 15  2  0
 18 17  1  0
 18 29  1  0
 19 20  1  0
 18 19  1  6
 20 28  1  0
 21 22  1  0
 21 20  2  0
 22 23  1  0
 23 28  2  0
 23 24  1  0
 24 25  2  0
 25 26  1  0
 27 26  2  0
 28 27  1  0
 29 30  2  0
 29 31  1  0
M  END
$$$$
