LNW.pdb
     RDKit          3D

 31 32  0  0  1  0  0  0  0  0999 V2000
   28.4747  -19.7039  -18.4008 C   0  0  0  0  0  0  0  0  0  0  0  0
   28.1625  -21.1773  -18.3894 C   0  0  1  0  0  0  0  0  0  0  0  0
   28.7354  -21.8378  -19.6558 C   0  0  0  0  0  0  0  0  0  0  0  0
   28.7645  -21.9141  -17.2300 C   0  0  0  0  0  0  0  0  0  0  0  0
   28.8102  -23.3958  -17.3728 C   0  0  2  0  0  0  0  0  0  0  0  0
   28.1206  -24.0096  -16.2463 N   0  0  0  0  0  0  0  0  0  0  0  0
   30.2144  -23.9456  -17.4034 C   0  0  0  0  0  0  0  0  0  0  0  0
   31.0181  -23.5511  -18.2730 O   0  0  0  0  0  0  0  0  0  0  0  0
   34.9865  -25.6310  -14.8667 N   0  0  0  0  0  0  0  0  0  0  0  0
   33.8254  -26.4642  -15.1223 C   0  0  0  0  0  0  0  0  0  0  0  0
   34.0870  -27.6577  -15.3656 O   0  0  0  0  0  0  0  0  0  0  0  0
   32.5063  -25.8046  -15.0580 C   0  0  0  0  0  0  0  0  0  0  0  0
   31.8881  -25.5561  -16.4186 C   0  0  2  0  0  0  0  0  0  0  0  0
   30.6368  -24.9051  -16.4600 N   0  0  0  0  0  0  0  0  0  0  0  0
   32.0868  -26.6540  -17.3852 C   0  0  0  0  0  0  0  0  0  0  0  0
   31.4395  -27.7555  -17.2930 O   0  0  0  0  0  0  0  0  0  0  0  0
   32.9874  -26.6003  -18.4771 N   0  0  0  0  0  0  0  0  0  0  0  0
   33.2130  -27.7358  -19.3760 C   0  0  1  0  0  0  0  0  0  0  0  0
   32.5382  -27.4012  -20.6755 C   0  0  0  0  0  0  0  0  0  0  0  0
   32.6461  -28.4202  -21.7350 C   0  0  0  0  0  0  0  0  0  0  0  0
   32.0887  -29.6990  -21.6365 C   0  0  0  0  0  0  0  0  0  0  0  0
   32.4177  -30.3331  -22.7671 N   0  0  0  0  0  0  0  0  0  0  0  0
   33.1438  -29.5398  -23.5695 C   0  0  0  0  0  0  0  0  0  0  0  0
   33.6838  -29.7498  -24.8183 C   0  0  0  0  0  0  0  0  0  0  0  0
   34.3875  -28.7305  -25.4395 C   0  0  0  0  0  0  0  0  0  0  0  0
   34.5641  -27.5048  -24.8403 C   0  0  0  0  0  0  0  0  0  0  0  0
   34.0105  -27.3191  -23.5839 C   0  0  0  0  0  0  0  0  0  0  0  0
   33.3032  -28.3232  -22.9427 C   0  0  0  0  0  0  0  0  0  0  0  0
   34.6410  -27.9924  -19.4190 C   0  0  0  0  0  0  0  0  0  0  0  0
   35.1020  -29.1269  -19.8127 O   0  0  0  0  0  0  0  0  0  0  0  0
   35.6441  -27.0856  -19.0623 O   0  0  0  0  0  0  0  0  0  0  0  0
  2  1  1  1
  2  3  1  0
  4  2  1  0
  5  4  1  0
  5  6  1  1
  7  8  2  0
  7  5  1  0
 10 12  1  0
 10  9  1  0
 11 10  2  0
 13 12  1  1
 13 14  1  0
 14  7  1  0
 15 13  1  0
 15 17  1  0
 16 15  2  0
 18 17  1  0
 18 29  1  0
 19 20  1  0
 18 19  1  6
 20 28  1  0
 21 22  1  0
 21 20  2  0
 22 23  1  0
 23 28  2  0
 23 24  1  0
 24 25  2  0
 25 26  1  0
 27 26  2  0
 28 27  1  0
 29 30  2  0
 29 31  1  0
M  END
$$$$
