LNW.pdb
     RDKit          3D

 31 32  0  0  1  0  0  0  0  0999 V2000
   19.5444  -22.4945    3.1770 C   0  0  0  0  0  0  0  0  0  0  0  0
   18.0513  -22.3105    3.2502 C   0  0  1  0  0  0  0  0  0  0  0  0
   17.4000  -23.5828    3.8207 C   0  0  0  0  0  0  0  0  0  0  0  0
   17.6236  -21.1882    4.1485 C   0  0  0  0  0  0  0  0  0  0  0  0
   16.1529  -20.9710    4.2386 C   0  0  2  0  0  0  0  0  0  0  0  0
   15.6379  -20.6118    2.9244 N   0  0  0  0  0  0  0  0  0  0  0  0
   15.7737  -19.8681    5.1949 C   0  0  0  0  0  0  0  0  0  0  0  0
   15.5292  -18.7241    4.7598 O   0  0  0  0  0  0  0  0  0  0  0  0
   13.0415  -20.3950    7.7937 N   0  0  0  0  0  0  0  0  0  0  0  0
   13.8292  -20.3912    9.0132 C   0  0  0  0  0  0  0  0  0  0  0  0
   13.3216  -21.0217    9.9603 O   0  0  0  0  0  0  0  0  0  0  0  0
   15.1100  -19.6583    8.9755 C   0  0  0  0  0  0  0  0  0  0  0  0
   15.4756  -19.1513    7.5954 C   0  0  2  0  0  0  0  0  0  0  0  0
   15.6912  -20.1094    6.5821 N   0  0  0  0  0  0  0  0  0  0  0  0
   16.3815  -17.9858    7.5973 C   0  0  0  0  0  0  0  0  0  0  0  0
   17.6337  -18.1077    7.3564 O   0  0  0  0  0  0  0  0  0  0  0  0
   15.9683  -16.6566    7.8595 N   0  0  0  0  0  0  0  0  0  0  0  0
   16.8333  -15.4964    7.6269 C   0  0  1  0  0  0  0  0  0  0  0  0
   17.2674  -15.5600    6.1905 C   0  0  0  0  0  0  0  0  0  0  0  0
   17.9538  -14.3621    5.6743 C   0  0  0  0  0  0  0  0  0  0  0  0
   18.2192  -13.2294    6.4505 C   0  0  0  0  0  0  0  0  0  0  0  0
   18.8206  -12.3562    5.6354 N   0  0  0  0  0  0  0  0  0  0  0  0
   18.9513  -12.8630    4.3999 C   0  0  0  0  0  0  0  0  0  0  0  0
   19.5106  -12.3456    3.2533 C   0  0  0  0  0  0  0  0  0  0  0  0
   19.5280  -13.1082    2.0964 C   0  0  0  0  0  0  0  0  0  0  0  0
   18.9984  -14.3773    2.0594 C   0  0  0  0  0  0  0  0  0  0  0  0
   18.4418  -14.8746    3.2266 C   0  0  0  0  0  0  0  0  0  0  0  0
   18.4125  -14.1311    4.3953 C   0  0  0  0  0  0  0  0  0  0  0  0
   16.1096  -14.3104    8.0473 C   0  0  0  0  0  0  0  0  0  0  0  0
   14.8242  -14.2706    8.0206 O   0  0  0  0  0  0  0  0  0  0  0  0
   16.6864  -13.1256    8.5153 O   0  0  0  0  0  0  0  0  0  0  0  0
  2  1  1  1
  2  3  1  0
  4  2  1  0
  5  4  1  0
  5  6  1  6
  7  8  2  0
  7  5  1  0
 10 12  1  0
 10  9  1  0
 11 10  2  0
 13 12  1  1
 13 14  1  0
 14  7  1  0
 15 13  1  0
 15 17  1  0
 16 15  2  0
 18 17  1  0
 18 29  1  0
 19 20  1  0
 18 19  1  6
 20 28  1  0
 21 22  1  0
 21 20  2  0
 22 23  1  0
 23 28  2  0
 23 24  1  0
 24 25  2  0
 25 26  1  0
 27 26  2  0
 28 27  1  0
 29 30  2  0
 29 31  1  0
M  END
$$$$
