LNW.pdb
     RDKit          3D

 31 32  0  0  1  0  0  0  0  0999 V2000
   35.8381  -35.3823   -1.4422 C   0  0  0  0  0  0  0  0  0  0  0  0
   34.7175  -36.1305   -2.1154 C   0  0  1  0  0  0  0  0  0  0  0  0
   34.6359  -37.5595   -1.5499 C   0  0  0  0  0  0  0  0  0  0  0  0
   33.3651  -35.5205   -1.8954 C   0  0  0  0  0  0  0  0  0  0  0  0
   32.2328  -36.2306   -2.5523 C   0  0  2  0  0  0  0  0  0  0  0  0
   32.3538  -36.0964   -3.9975 N   0  0  0  0  0  0  0  0  0  0  0  0
   30.8824  -35.6890   -2.1548 C   0  0  0  0  0  0  0  0  0  0  0  0
   30.3180  -34.8376   -2.8718 O   0  0  0  0  0  0  0  0  0  0  0  0
   25.6617  -35.2539   -0.9425 N   0  0  0  0  0  0  0  0  0  0  0  0
   26.5317  -36.1562   -0.2099 C   0  0  0  0  0  0  0  0  0  0  0  0
   26.1106  -36.4821    0.9164 O   0  0  0  0  0  0  0  0  0  0  0  0
   27.7796  -36.5688   -0.8819 C   0  0  0  0  0  0  0  0  0  0  0  0
   28.9790  -35.7259   -0.4994 C   0  0  2  0  0  0  0  0  0  0  0  0
   30.2431  -36.1310   -0.9779 N   0  0  0  0  0  0  0  0  0  0  0  0
   28.9385  -35.2036    0.8808 C   0  0  0  0  0  0  0  0  0  0  0  0
   29.3917  -35.8811    1.8690 O   0  0  0  0  0  0  0  0  0  0  0  0
   28.4085  -33.9398    1.2387 N   0  0  0  0  0  0  0  0  0  0  0  0
   28.3614  -33.4627    2.6238 C   0  0  1  0  0  0  0  0  0  0  0  0
   28.5449  -31.9728    2.5759 C   0  0  0  0  0  0  0  0  0  0  0  0
   28.2627  -31.2513    3.8299 C   0  0  0  0  0  0  0  0  0  0  0  0
   29.1483  -31.2065    4.9113 C   0  0  0  0  0  0  0  0  0  0  0  0
   28.5357  -30.4906    5.8605 N   0  0  0  0  0  0  0  0  0  0  0  0
   27.3255  -30.0824    5.4491 C   0  0  0  0  0  0  0  0  0  0  0  0
   26.3579  -29.3220    6.0662 C   0  0  0  0  0  0  0  0  0  0  0  0
   25.1842  -29.0289    5.3905 C   0  0  0  0  0  0  0  0  0  0  0  0
   24.9552  -29.4790    4.1108 C   0  0  0  0  0  0  0  0  0  0  0  0
   25.9448  -30.2418    3.5123 C   0  0  0  0  0  0  0  0  0  0  0  0
   27.1264  -30.5483    4.1678 C   0  0  0  0  0  0  0  0  0  0  0  0
   27.1366  -33.9594    3.2240 C   0  0  0  0  0  0  0  0  0  0  0  0
   26.0807  -34.1563    2.5163 O   0  0  0  0  0  0  0  0  0  0  0  0
   26.9596  -34.2755    4.5746 O   0  0  0  0  0  0  0  0  0  0  0  0
  2  1  1  1
  2  3  1  0
  4  2  1  0
  5  4  1  0
  5  6  1  6
  7  8  2  0
  7  5  1  0
 10 12  1  0
 10  9  1  0
 11 10  2  0
 13 12  1  1
 13 14  1  0
 14  7  1  0
 15 13  1  0
 15 17  1  0
 16 15  2  0
 18 17  1  0
 18 29  1  0
 19 20  1  0
 18 19  1  6
 20 28  1  0
 21 22  1  0
 21 20  2  0
 22 23  1  0
 23 28  2  0
 23 24  1  0
 24 25  2  0
 25 26  1  0
 27 26  2  0
 28 27  1  0
 29 30  2  0
 29 31  1  0
M  END
$$$$
