LNW.pdb
     RDKit          3D

 31 32  0  0  1  0  0  0  0  0999 V2000
   29.7298  -17.4985  -18.5311 C   0  0  0  0  0  0  0  0  0  0  0  0
   30.0207  -18.2451  -17.2558 C   0  0  1  0  0  0  0  0  0  0  0  0
   29.5362  -17.4198  -16.0505 C   0  0  0  0  0  0  0  0  0  0  0  0
   29.3234  -19.5694  -17.1577 C   0  0  0  0  0  0  0  0  0  0  0  0
   29.2385  -20.1432  -15.7860 C   0  0  2  0  0  0  0  0  0  0  0  0
   28.6182  -21.4593  -15.8522 N   0  0  0  0  0  0  0  0  0  0  0  0
   28.4209  -19.2999  -14.8399 C   0  0  0  0  0  0  0  0  0  0  0  0
   28.3240  -18.0699  -15.0283 O   0  0  0  0  0  0  0  0  0  0  0  0
   23.2899  -20.3062  -13.2071 N   0  0  0  0  0  0  0  0  0  0  0  0
   24.0236  -19.2548  -13.8881 C   0  0  0  0  0  0  0  0  0  0  0  0
   23.4254  -18.1639  -13.9537 O   0  0  0  0  0  0  0  0  0  0  0  0
   25.3623  -19.6039  -14.4030 C   0  0  0  0  0  0  0  0  0  0  0  0
   26.4303  -19.6469  -13.3293 C   0  0  2  0  0  0  0  0  0  0  0  0
   27.7603  -19.8818  -13.7380 N   0  0  0  0  0  0  0  0  0  0  0  0
   26.0054  -20.3022  -12.0765 C   0  0  0  0  0  0  0  0  0  0  0  0
   24.8152  -20.1730  -11.6210 O   0  0  0  0  0  0  0  0  0  0  0  0
   26.8474  -21.1133  -11.2770 N   0  0  0  0  0  0  0  0  0  0  0  0
   26.4974  -21.5162   -9.9118 C   0  0  1  0  0  0  0  0  0  0  0  0
   27.7184  -21.2913   -9.0666 C   0  0  0  0  0  0  0  0  0  0  0  0
   27.5022  -20.5474   -7.8126 C   0  0  0  0  0  0  0  0  0  0  0  0
   26.3387  -19.8227   -7.5353 C   0  0  0  0  0  0  0  0  0  0  0  0
   26.5254  -19.2718   -6.3311 N   0  0  0  0  0  0  0  0  0  0  0  0
   27.7269  -19.6010   -5.8327 C   0  0  0  0  0  0  0  0  0  0  0  0
   28.3404  -19.2866   -4.6410 C   0  0  0  0  0  0  0  0  0  0  0  0
   29.6036  -19.7871   -4.3691 C   0  0  0  0  0  0  0  0  0  0  0  0
   30.2684  -20.5953   -5.2621 C   0  0  0  0  0  0  0  0  0  0  0  0
   29.6290  -20.8968   -6.4536 C   0  0  0  0  0  0  0  0  0  0  0  0
   28.3664  -20.4081   -6.7481 C   0  0  0  0  0  0  0  0  0  0  0  0
   25.2905  -20.8040   -9.5333 C   0  0  0  0  0  0  0  0  0  0  0  0
   25.0766  -19.5991   -9.9296 O   0  0  0  0  0  0  0  0  0  0  0  0
   24.2592  -21.3118   -8.7371 O   0  0  0  0  0  0  0  0  0  0  0  0
  2  1  1  6
  2  3  1  0
  4  2  1  0
  5  4  1  0
  5  6  1  6
  7  8  2  0
  7  5  1  0
 10 12  1  0
 10  9  1  0
 11 10  2  0
 13 12  1  6
 13 14  1  0
 14  7  1  0
 15 13  1  0
 15 17  1  0
 16 15  2  0
 18 17  1  0
 18 29  1  0
 19 20  1  0
 18 19  1  1
 20 28  1  0
 21 22  1  0
 21 20  2  0
 22 23  1  0
 23 28  2  0
 23 24  1  0
 24 25  2  0
 25 26  1  0
 27 26  2  0
 28 27  1  0
 29 30  2  0
 29 31  1  0
M  END
$$$$
