LNW.pdb
     RDKit          3D

 31 32  0  0  1  0  0  0  0  0999 V2000
   27.3307  -12.8222  -16.3223 C   0  0  0  0  0  0  0  0  0  0  0  0
   26.3371  -13.8677  -15.8883 C   0  0  1  0  0  0  0  0  0  0  0  0
   25.1281  -13.8601  -16.8404 C   0  0  0  0  0  0  0  0  0  0  0  0
   26.8787  -15.2660  -15.9182 C   0  0  0  0  0  0  0  0  0  0  0  0
   25.8827  -16.3396  -15.6473 C   0  0  2  0  0  0  0  0  0  0  0  0
   25.4622  -16.2661  -14.2548 N   0  0  0  0  0  0  0  0  0  0  0  0
   26.4249  -17.7262  -15.8883 C   0  0  0  0  0  0  0  0  0  0  0  0
   26.7535  -18.0741  -17.0410 O   0  0  0  0  0  0  0  0  0  0  0  0
   28.1350  -22.4294  -15.4192 N   0  0  0  0  0  0  0  0  0  0  0  0
   29.1329  -21.3847  -15.2767 C   0  0  0  0  0  0  0  0  0  0  0  0
   30.3039  -21.7538  -15.4881 O   0  0  0  0  0  0  0  0  0  0  0  0
   28.6421  -20.0414  -14.9107 C   0  0  0  0  0  0  0  0  0  0  0  0
   27.1310  -19.9344  -14.8931 C   0  0  2  0  0  0  0  0  0  0  0  0
   26.5670  -18.6426  -14.8257 N   0  0  0  0  0  0  0  0  0  0  0  0
   26.4573  -20.9844  -14.1039 C   0  0  0  0  0  0  0  0  0  0  0  0
   26.3032  -22.1719  -14.5587 O   0  0  0  0  0  0  0  0  0  0  0  0
   25.9287  -20.7881  -12.8045 N   0  0  0  0  0  0  0  0  0  0  0  0
   25.1486  -21.8113  -12.1025 C   0  0  1  0  0  0  0  0  0  0  0  0
   25.9575  -22.2302  -10.9083 C   0  0  0  0  0  0  0  0  0  0  0  0
   26.1691  -21.1939   -9.8817 C   0  0  0  0  0  0  0  0  0  0  0  0
   25.1657  -20.3235   -9.4445 C   0  0  0  0  0  0  0  0  0  0  0  0
   25.7405  -19.5214   -8.5417 N   0  0  0  0  0  0  0  0  0  0  0  0
   27.0368  -19.8286   -8.3818 C   0  0  0  0  0  0  0  0  0  0  0  0
   28.0091  -19.2965   -7.5653 C   0  0  0  0  0  0  0  0  0  0  0  0
   29.2883  -19.8286   -7.5886 C   0  0  0  0  0  0  0  0  0  0  0  0
   29.6183  -20.8814   -8.4103 C   0  0  0  0  0  0  0  0  0  0  0  0
   28.6217  -21.3988   -9.2217 C   0  0  0  0  0  0  0  0  0  0  0  0
   27.3356  -20.8835   -9.2163 C   0  0  0  0  0  0  0  0  0  0  0  0
   23.8272  -21.2668  -11.8485 C   0  0  0  0  0  0  0  0  0  0  0  0
   23.5752  -20.0187  -12.0307 O   0  0  0  0  0  0  0  0  0  0  0  0
   22.7177  -21.9919  -11.4025 O   0  0  0  0  0  0  0  0  0  0  0  0
  2  1  1  6
  2  3  1  0
  4  2  1  0
  5  4  1  0
  5  6  1  1
  7  8  2  0
  7  5  1  0
 10 12  1  0
 10  9  1  0
 11 10  2  0
 13 12  1  1
 13 14  1  0
 14  7  1  0
 15 13  1  0
 15 17  1  0
 16 15  2  0
 18 17  1  0
 18 29  1  0
 19 20  1  0
 18 19  1  1
 20 28  1  0
 21 22  1  0
 21 20  2  0
 22 23  1  0
 23 28  2  0
 23 24  1  0
 24 25  2  0
 25 26  1  0
 27 26  2  0
 28 27  1  0
 29 30  2  0
 29 31  1  0
M  END
$$$$
