LNW.pdb
     RDKit          3D

 31 32  0  0  1  0  0  0  0  0999 V2000
   29.0460  -22.0274  -18.2226 C   0  0  0  0  0  0  0  0  0  0  0  0
   28.3784  -22.9082  -17.1994 C   0  0  1  0  0  0  0  0  0  0  0  0
   28.9771  -22.6323  -15.8088 C   0  0  0  0  0  0  0  0  0  0  0  0
   26.9029  -22.6724  -17.0688 C   0  0  0  0  0  0  0  0  0  0  0  0
   26.2456  -23.3713  -15.9297 C   0  0  2  0  0  0  0  0  0  0  0  0
   26.3488  -24.8110  -16.1239 N   0  0  0  0  0  0  0  0  0  0  0  0
   24.7825  -23.0326  -15.7908 C   0  0  0  0  0  0  0  0  0  0  0  0
   24.0226  -23.1414  -16.7749 O   0  0  0  0  0  0  0  0  0  0  0  0
   20.1605  -23.7532  -13.4236 N   0  0  0  0  0  0  0  0  0  0  0  0
   20.9814  -22.8288  -12.6624 C   0  0  0  0  0  0  0  0  0  0  0  0
   20.3433  -22.0633  -11.9148 O   0  0  0  0  0  0  0  0  0  0  0  0
   22.4413  -22.9147  -12.8638 C   0  0  0  0  0  0  0  0  0  0  0  0
   22.8918  -22.4383  -14.2296 C   0  0  2  0  0  0  0  0  0  0  0  0
   24.2553  -22.5914  -14.5593 N   0  0  0  0  0  0  0  0  0  0  0  0
   22.2458  -21.1899  -14.6806 C   0  0  0  0  0  0  0  0  0  0  0  0
   21.0989  -20.8294  -14.2385 O   0  0  0  0  0  0  0  0  0  0  0  0
   22.8127  -20.2944  -15.6202 N   0  0  0  0  0  0  0  0  0  0  0  0
   23.1229  -18.8984  -15.2985 C   0  0  1  0  0  0  0  0  0  0  0  0
   23.6279  -18.8810  -13.8842 C   0  0  0  0  0  0  0  0  0  0  0  0
   25.0682  -19.1441  -13.7143 C   0  0  0  0  0  0  0  0  0  0  0  0
   26.0552  -18.6044  -14.5452 C   0  0  0  0  0  0  0  0  0  0  0  0
   27.2191  -19.0881  -14.0979 N   0  0  0  0  0  0  0  0  0  0  0  0
   27.0307  -19.8950  -13.0425 C   0  0  0  0  0  0  0  0  0  0  0  0
   27.9179  -20.5945  -12.2559 C   0  0  0  0  0  0  0  0  0  0  0  0
   27.4433  -21.3515  -11.1966 C   0  0  0  0  0  0  0  0  0  0  0  0
   26.1008  -21.4253  -10.9055 C   0  0  0  0  0  0  0  0  0  0  0  0
   25.2292  -20.7118  -11.7121 C   0  0  0  0  0  0  0  0  0  0  0  0
   25.6798  -19.9484  -12.7769 C   0  0  0  0  0  0  0  0  0  0  0  0
   24.0151  -18.3928  -16.3259 C   0  0  0  0  0  0  0  0  0  0  0  0
   24.2799  -17.1375  -16.4187 O   0  0  0  0  0  0  0  0  0  0  0  0
   24.6698  -19.1652  -17.2904 O   0  0  0  0  0  0  0  0  0  0  0  0
  2  1  1  6
  2  3  1  0
  4  2  1  0
  5  4  1  0
  5  6  1  6
  7  8  2  0
  7  5  1  0
 10 12  1  0
 10  9  1  0
 11 10  2  0
 13 12  1  1
 13 14  1  0
 14  7  1  0
 15 13  1  0
 15 17  1  0
 16 15  2  0
 18 17  1  0
 18 29  1  0
 19 20  1  0
 18 19  1  1
 20 28  1  0
 21 22  1  0
 21 20  2  0
 22 23  1  0
 23 28  2  0
 23 24  1  0
 24 25  2  0
 25 26  1  0
 27 26  2  0
 28 27  1  0
 29 30  2  0
 29 31  1  0
M  END
$$$$
