LNW.pdb
     RDKit          3D

 31 32  0  0  1  0  0  0  0  0999 V2000
   30.2339  -20.1884  -21.5869 C   0  0  0  0  0  0  0  0  0  0  0  0
   29.4216  -21.0733  -20.6782 C   0  0  1  0  0  0  0  0  0  0  0  0
   29.3850  -22.5035  -21.2452 C   0  0  0  0  0  0  0  0  0  0  0  0
   29.9807  -21.1919  -19.2916 C   0  0  0  0  0  0  0  0  0  0  0  0
   29.0875  -21.8536  -18.3003 C   0  0  2  0  0  0  0  0  0  0  0  0
   27.7966  -22.1218  -18.9191 N   0  0  0  0  0  0  0  0  0  0  0  0
   28.8399  -21.0140  -17.0721 C   0  0  0  0  0  0  0  0  0  0  0  0
   29.8012  -20.6433  -16.3677 O   0  0  0  0  0  0  0  0  0  0  0  0
   27.1132  -17.2152  -13.7305 N   0  0  0  0  0  0  0  0  0  0  0  0
   26.1029  -17.8714  -14.5408 C   0  0  0  0  0  0  0  0  0  0  0  0
   24.9463  -17.8033  -14.0828 O   0  0  0  0  0  0  0  0  0  0  0  0
   26.5651  -18.5199  -15.7837 C   0  0  0  0  0  0  0  0  0  0  0  0
   27.1535  -19.8984  -15.5632 C   0  0  2  0  0  0  0  0  0  0  0  0
   27.5312  -20.6390  -16.7034 N   0  0  0  0  0  0  0  0  0  0  0  0
   26.5212  -20.6602  -14.4681 C   0  0  0  0  0  0  0  0  0  0  0  0
   25.4513  -21.3398  -14.6531 O   0  0  0  0  0  0  0  0  0  0  0  0
   27.0194  -20.7121  -13.1432 N   0  0  0  0  0  0  0  0  0  0  0  0
   26.2977  -21.3690  -12.0495 C   0  0  1  0  0  0  0  0  0  0  0  0
   27.2633  -21.4936  -10.9059 C   0  0  0  0  0  0  0  0  0  0  0  0
   26.8253  -20.9009   -9.6294 C   0  0  0  0  0  0  0  0  0  0  0  0
   25.5184  -20.4656   -9.3881 C   0  0  0  0  0  0  0  0  0  0  0  0
   25.5179  -19.9701   -8.1459 N   0  0  0  0  0  0  0  0  0  0  0  0
   26.7355  -20.0645   -7.5900 C   0  0  0  0  0  0  0  0  0  0  0  0
   27.2035  -19.7063   -6.3459 C   0  0  0  0  0  0  0  0  0  0  0  0
   28.5304  -19.9388   -6.0212 C   0  0  0  0  0  0  0  0  0  0  0  0
   29.4011  -20.5216   -6.9127 C   0  0  0  0  0  0  0  0  0  0  0  0
   28.9051  -20.8729   -8.1576 C   0  0  0  0  0  0  0  0  0  0  0  0
   27.5825  -20.6502   -8.5054 C   0  0  0  0  0  0  0  0  0  0  0  0
   25.0786  -20.6193  -11.8074 C   0  0  0  0  0  0  0  0  0  0  0  0
   25.0461  -19.3403  -11.9406 O   0  0  0  0  0  0  0  0  0  0  0  0
   23.8486  -21.1632  -11.4244 O   0  0  0  0  0  0  0  0  0  0  0  0
  2  1  1  6
  2  3  1  0
  4  2  1  0
  5  4  1  0
  5  6  1  6
  7  8  2  0
  7  5  1  0
 10 12  1  0
 10  9  1  0
 11 10  2  0
 13 12  1  6
 13 14  1  0
 14  7  1  0
 15 13  1  0
 15 17  1  0
 16 15  2  0
 18 17  1  0
 18 29  1  0
 19 20  1  0
 18 19  1  1
 20 28  1  0
 21 22  1  0
 21 20  2  0
 22 23  1  0
 23 28  2  0
 23 24  1  0
 24 25  2  0
 25 26  1  0
 27 26  2  0
 28 27  1  0
 29 30  2  0
 29 31  1  0
M  END
$$$$
