LNW.pdb
     RDKit          3D

 31 32  0  0  1  0  0  0  0  0999 V2000
   19.3789  -14.7029    1.9906 C   0  0  0  0  0  0  0  0  0  0  0  0
   18.0755  -14.8451    2.7319 C   0  0  1  0  0  0  0  0  0  0  0  0
   16.9543  -15.2094    1.7427 C   0  0  0  0  0  0  0  0  0  0  0  0
   18.0835  -15.9310    3.7665 C   0  0  0  0  0  0  0  0  0  0  0  0
   16.8029  -16.1159    4.5041 C   0  0  2  0  0  0  0  0  0  0  0  0
   16.5130  -14.9142    5.2741 N   0  0  0  0  0  0  0  0  0  0  0  0
   16.8346  -17.2778    5.4652 C   0  0  0  0  0  0  0  0  0  0  0  0
   17.4612  -17.1791    6.5401 O   0  0  0  0  0  0  0  0  0  0  0  0
   16.5506  -21.8031    7.6049 N   0  0  0  0  0  0  0  0  0  0  0  0
   15.3001  -21.0855    7.7754 C   0  0  0  0  0  0  0  0  0  0  0  0
   14.5764  -21.5159    8.6936 O   0  0  0  0  0  0  0  0  0  0  0  0
   15.0516  -19.9551    6.8592 C   0  0  0  0  0  0  0  0  0  0  0  0
   16.2031  -19.6787    5.9143 C   0  0  2  0  0  0  0  0  0  0  0  0
   16.1641  -18.4823    5.1672 N   0  0  0  0  0  0  0  0  0  0  0  0
   16.7110  -20.8731    5.2109 C   0  0  0  0  0  0  0  0  0  0  0  0
   16.2823  -21.2016    4.0493 O   0  0  0  0  0  0  0  0  0  0  0  0
   17.6924  -21.7491    5.7359 N   0  0  0  0  0  0  0  0  0  0  0  0
   18.1897  -22.9155    5.0005 C   0  0  1  0  0  0  0  0  0  0  0  0
   18.7142  -22.4091    3.6874 C   0  0  0  0  0  0  0  0  0  0  0  0
   18.6114  -23.3439    2.5524 C   0  0  0  0  0  0  0  0  0  0  0  0
   17.3946  -23.7858    2.0236 C   0  0  0  0  0  0  0  0  0  0  0  0
   17.7069  -24.6329    1.0369 N   0  0  0  0  0  0  0  0  0  0  0  0
   19.0373  -24.7533    0.9096 C   0  0  0  0  0  0  0  0  0  0  0  0
   19.8102  -25.4865    0.0377 C   0  0  0  0  0  0  0  0  0  0  0  0
   21.1915  -25.4093    0.1174 C   0  0  0  0  0  0  0  0  0  0  0  0
   21.8183  -24.6153    1.0496 C   0  0  0  0  0  0  0  0  0  0  0  0
   21.0178  -23.8875    1.9149 C   0  0  0  0  0  0  0  0  0  0  0  0
   19.6349  -23.9485    1.8548 C   0  0  0  0  0  0  0  0  0  0  0  0
   19.1251  -23.6177    5.8601 C   0  0  0  0  0  0  0  0  0  0  0  0
   19.3607  -23.2133    7.0582 O   0  0  0  0  0  0  0  0  0  0  0  0
   19.8464  -24.7652    5.5157 O   0  0  0  0  0  0  0  0  0  0  0  0
  2  1  1  6
  2  3  1  0
  4  2  1  0
  5  4  1  0
  5  6  1  1
  7  8  2  0
  7  5  1  0
 10 12  1  0
 10  9  1  0
 11 10  2  0
 13 12  1  6
 13 14  1  0
 14  7  1  0
 15 13  1  0
 15 17  1  0
 16 15  2  0
 18 17  1  0
 18 29  1  0
 19 20  1  0
 18 19  1  6
 20 28  1  0
 21 22  1  0
 21 20  2  0
 22 23  1  0
 23 28  2  0
 23 24  1  0
 24 25  2  0
 25 26  1  0
 27 26  2  0
 28 27  1  0
 29 30  2  0
 29 31  1  0
M  END
$$$$
