LNW.pdb
     RDKit          3D

 31 32  0  0  1  0  0  0  0  0999 V2000
   27.4109  -17.6342  -20.0314 C   0  0  0  0  0  0  0  0  0  0  0  0
   27.5692  -18.6035  -18.8896 C   0  0  1  0  0  0  0  0  0  0  0  0
   28.0385  -17.8504  -17.6322 C   0  0  0  0  0  0  0  0  0  0  0  0
   26.2968  -19.2982  -18.5052 C   0  0  0  0  0  0  0  0  0  0  0  0
   26.3971  -20.2020  -17.3256 C   0  0  2  0  0  0  0  0  0  0  0  0
   27.5282  -21.1020  -17.5035 N   0  0  0  0  0  0  0  0  0  0  0  0
   25.1664  -21.0496  -17.1216 C   0  0  0  0  0  0  0  0  0  0  0  0
   24.0624  -20.5044  -16.9175 O   0  0  0  0  0  0  0  0  0  0  0  0
   23.3573  -26.8675  -16.3054 N   0  0  0  0  0  0  0  0  0  0  0  0
   23.2170  -25.6589  -17.0975 C   0  0  0  0  0  0  0  0  0  0  0  0
   22.0743  -25.4693  -17.5563 O   0  0  0  0  0  0  0  0  0  0  0  0
   24.4226  -24.8213  -17.2520 C   0  0  0  0  0  0  0  0  0  0  0  0
   24.1995  -23.3680  -16.8868 C   0  0  2  0  0  0  0  0  0  0  0  0
   25.2431  -22.4574  -17.1570 N   0  0  0  0  0  0  0  0  0  0  0  0
   23.4660  -23.1658  -15.6217 C   0  0  0  0  0  0  0  0  0  0  0  0
   22.2783  -23.6155  -15.4545 O   0  0  0  0  0  0  0  0  0  0  0  0
   23.9871  -22.4736  -14.5012 N   0  0  0  0  0  0  0  0  0  0  0  0
   23.2947  -22.4187  -13.2104 C   0  0  1  0  0  0  0  0  0  0  0  0
   24.3352  -22.6408  -12.1502 C   0  0  0  0  0  0  0  0  0  0  0  0
   25.1663  -21.4713  -11.8125 C   0  0  0  0  0  0  0  0  0  0  0  0
   24.8594  -20.5775  -10.7816 C   0  0  0  0  0  0  0  0  0  0  0  0
   25.8196  -19.6468  -10.8020 N   0  0  0  0  0  0  0  0  0  0  0  0
   26.7092  -19.8950  -11.7755 C   0  0  0  0  0  0  0  0  0  0  0  0
   27.8531  -19.2326  -12.1601 C   0  0  0  0  0  0  0  0  0  0  0  0
   28.6108  -19.7285  -13.2089 C   0  0  0  0  0  0  0  0  0  0  0  0
   28.2508  -20.8725  -13.8829 C   0  0  0  0  0  0  0  0  0  0  0  0
   27.0957  -21.5203  -13.4760 C   0  0  0  0  0  0  0  0  0  0  0  0
   26.3216  -21.0435  -12.4305 C   0  0  0  0  0  0  0  0  0  0  0  0
   22.5512  -21.1731  -13.1570 C   0  0  0  0  0  0  0  0  0  0  0  0
   21.6983  -20.9466  -12.2212 O   0  0  0  0  0  0  0  0  0  0  0  0
   22.6654  -20.1151  -14.0642 O   0  0  0  0  0  0  0  0  0  0  0  0
  2  1  1  6
  2  3  1  0
  4  2  1  0
  5  4  1  0
  5  6  1  6
  7  8  2  0
  7  5  1  0
 10 12  1  0
 10  9  1  0
 11 10  2  0
 13 12  1  1
 13 14  1  0
 14  7  1  0
 15 13  1  0
 15 17  1  0
 16 15  2  0
 18 17  1  0
 18 29  1  0
 19 20  1  0
 18 19  1  1
 20 28  1  0
 21 22  1  0
 21 20  2  0
 22 23  1  0
 23 28  2  0
 23 24  1  0
 24 25  2  0
 25 26  1  0
 27 26  2  0
 28 27  1  0
 29 30  2  0
 29 31  1  0
M  END
$$$$
