WNI.pdb
     RDKit          3D

 31 32  0  0  1  0  0  0  0  0999 V2000
   27.1869  -21.9124  -14.7494 N   0  0  0  0  0  0  0  0  0  0  0  0
   26.2956  -21.5002  -13.6990 C   0  0  1  0  0  0  0  0  0  0  0  0
   26.6839  -20.1612  -13.1598 C   0  0  0  0  0  0  0  0  0  0  0  0
   27.8156  -20.3643  -12.2143 C   0  0  0  0  0  0  0  0  0  0  0  0
   29.1753  -20.2633  -12.4442 C   0  0  0  0  0  0  0  0  0  0  0  0
   29.8441  -20.5306  -11.3053 N   0  0  0  0  0  0  0  0  0  0  0  0
   28.9841  -20.8085  -10.3146 C   0  0  0  0  0  0  0  0  0  0  0  0
   29.2053  -21.1368   -8.9896 C   0  0  0  0  0  0  0  0  0  0  0  0
   28.0893  -21.3712   -8.2021 C   0  0  0  0  0  0  0  0  0  0  0  0
   26.8175  -21.2752   -8.7401 C   0  0  0  0  0  0  0  0  0  0  0  0
   26.6277  -20.9450  -10.0681 C   0  0  0  0  0  0  0  0  0  0  0  0
   27.7190  -20.7100  -10.8611 C   0  0  0  0  0  0  0  0  0  0  0  0
   24.8866  -21.5611  -14.1689 C   0  0  0  0  0  0  0  0  0  0  0  0
   24.5509  -21.0481  -15.2707 O   0  0  0  0  0  0  0  0  0  0  0  0
   20.1506  -24.3006  -15.2572 N   0  0  0  0  0  0  0  0  0  0  0  0
   20.4773  -23.6750  -14.0239 C   0  0  0  0  0  0  0  0  0  0  0  0
   19.5299  -23.1816  -13.3668 O   0  0  0  0  0  0  0  0  0  0  0  0
   21.8465  -23.5787  -13.4885 C   0  0  0  0  0  0  0  0  0  0  0  0
   22.4753  -22.2946  -13.9136 C   0  0  2  0  0  0  0  0  0  0  0  0
   23.8537  -22.1850  -13.4257 N   0  0  0  0  0  0  0  0  0  0  0  0
   21.6598  -21.1644  -13.3953 C   0  0  0  0  0  0  0  0  0  0  0  0
   21.7386  -20.7238  -12.2211 O   0  0  0  0  0  0  0  0  0  0  0  0
   20.2778  -16.0862  -12.8923 C   0  0  0  0  0  0  0  0  0  0  0  0
   19.4453  -16.9426  -13.8395 C   0  0  0  0  0  0  0  0  0  0  0  0
   20.2625  -18.0728  -14.4137 C   0  0  2  0  0  0  0  0  0  0  0  0
   20.1255  -18.0852  -15.9065 C   0  0  0  0  0  0  0  0  0  0  0  0
   19.9481  -19.3408  -13.7225 C   0  0  2  0  0  0  0  0  0  0  0  0
   20.7064  -20.4775  -14.2013 N   0  0  0  0  0  0  0  0  0  0  0  0
   18.5239  -19.6817  -13.8765 C   0  0  0  0  0  0  0  0  0  0  0  0
   17.5148  -18.9721  -13.2018 O   0  0  0  0  0  0  0  0  0  0  0  0
   18.1188  -20.6089  -14.6044 O   0  0  0  0  0  0  0  0  0  0  0  0
  2  1  1  6
  2  3  1  0
  3  4  1  0
  4  5  2  0
  5  6  1  0
  7  6  1  0
  8  7  2  0
  9  8  1  0
 10 11  1  0
 10  9  2  0
 11 12  2  0
 12  4  1  0
 12  7  1  0
 13 14  2  0
 13  2  1  0
 15 16  1  0
 16 17  2  0
 18 16  1  0
 19 18  1  1
 19 20  1  0
 20 13  1  0
 21 28  1  0
 21 19  1  0
 22 21  2  0
 23 24  1  0
 24 25  1  0
 25 26  1  6
 25 27  1  0
 27 28  1  6
 27 29  1  0
 29 30  1  0
 31 29  2  0
M  END
$$$$
