WNI.pdb
     RDKit          3D

 31 32  0  0  1  0  0  0  0  0999 V2000
   26.1220  -18.8927  -10.7976 N   0  0  0  0  0  0  0  0  0  0  0  0
   26.4081  -20.2651  -11.1178 C   0  0  1  0  0  0  0  0  0  0  0  0
   25.8586  -21.1855  -10.0759 C   0  0  0  0  0  0  0  0  0  0  0  0
   26.3245  -20.6974   -8.7490 C   0  0  0  0  0  0  0  0  0  0  0  0
   25.6007  -20.0972   -7.7352 C   0  0  0  0  0  0  0  0  0  0  0  0
   26.4215  -19.8140   -6.7047 N   0  0  0  0  0  0  0  0  0  0  0  0
   27.6739  -20.2017   -6.9870 C   0  0  0  0  0  0  0  0  0  0  0  0
   28.8367  -20.1172   -6.2432 C   0  0  0  0  0  0  0  0  0  0  0  0
   29.9936  -20.6156   -6.8210 C   0  0  0  0  0  0  0  0  0  0  0  0
   29.9629  -21.1696   -8.0891 C   0  0  0  0  0  0  0  0  0  0  0  0
   28.7854  -21.2403   -8.8084 C   0  0  0  0  0  0  0  0  0  0  0  0
   27.6326  -20.7527   -8.2532 C   0  0  0  0  0  0  0  0  0  0  0  0
   25.9358  -20.5801  -12.4916 C   0  0  0  0  0  0  0  0  0  0  0  0
   24.8851  -20.0545  -12.9493 O   0  0  0  0  0  0  0  0  0  0  0  0
   27.7554  -20.2469  -16.6109 N   0  0  0  0  0  0  0  0  0  0  0  0
   28.0234  -21.6270  -16.4047 C   0  0  0  0  0  0  0  0  0  0  0  0
   28.9754  -22.1254  -17.0513 O   0  0  0  0  0  0  0  0  0  0  0  0
   27.2541  -22.4855  -15.4872 C   0  0  0  0  0  0  0  0  0  0  0  0
   26.2375  -21.6750  -14.7560 C   0  0  2  0  0  0  0  0  0  0  0  0
   26.6202  -21.4712  -13.3554 N   0  0  0  0  0  0  0  0  0  0  0  0
   24.9246  -22.3694  -14.8298 C   0  0  0  0  0  0  0  0  0  0  0  0
   24.7252  -23.5378  -14.4127 O   0  0  0  0  0  0  0  0  0  0  0  0
   19.1705  -21.6392  -13.5384 C   0  0  0  0  0  0  0  0  0  0  0  0
   20.1493  -22.3211  -14.4873 C   0  0  0  0  0  0  0  0  0  0  0  0
   21.5020  -21.6550  -14.4471 C   0  0  2  0  0  0  0  0  0  0  0  0
   21.3460  -20.1840  -14.6902 C   0  0  0  0  0  0  0  0  0  0  0  0
   22.4525  -22.3618  -15.3309 C   0  0  2  0  0  0  0  0  0  0  0  0
   23.7663  -21.7561  -15.3890 N   0  0  0  0  0  0  0  0  0  0  0  0
   21.9442  -22.4129  -16.7120 C   0  0  0  0  0  0  0  0  0  0  0  0
   20.7983  -23.1530  -17.0531 O   0  0  0  0  0  0  0  0  0  0  0  0
   22.4854  -21.8132  -17.6612 O   0  0  0  0  0  0  0  0  0  0  0  0
  2  1  1  1
  2  3  1  0
  3  4  1  0
  4  5  2  0
  5  6  1  0
  7  6  1  0
  8  7  2  0
  9  8  1  0
 10 11  1  0
 10  9  2  0
 11 12  2  0
 12  4  1  0
 12  7  1  0
 13 14  2  0
 13  2  1  0
 15 16  1  0
 16 17  2  0
 18 16  1  0
 19 18  1  1
 19 20  1  0
 20 13  1  0
 21 28  1  0
 21 19  1  0
 22 21  2  0
 23 24  1  0
 24 25  1  0
 25 26  1  6
 25 27  1  0
 27 28  1  6
 27 29  1  0
 29 30  1  0
 31 29  2  0
M  END
$$$$
