WNI.pdb
     RDKit          3D

 31 32  0  0  1  0  0  0  0  0999 V2000
   26.9184  -19.4156  -11.4435 N   0  0  0  0  0  0  0  0  0  0  0  0
   26.3895  -20.7463  -11.5757 C   0  0  1  0  0  0  0  0  0  0  0  0
   25.9116  -21.2676  -10.2588 C   0  0  0  0  0  0  0  0  0  0  0  0
   26.8614  -20.7972   -9.2136 C   0  0  0  0  0  0  0  0  0  0  0  0
   26.6198  -20.0064   -8.1053 C   0  0  0  0  0  0  0  0  0  0  0  0
   27.7687  -19.8237   -7.4253 N   0  0  0  0  0  0  0  0  0  0  0  0
   28.7775  -20.4631   -8.0352 C   0  0  0  0  0  0  0  0  0  0  0  0
   30.1177  -20.5590   -7.7080 C   0  0  0  0  0  0  0  0  0  0  0  0
   30.9222  -21.3068   -8.5531 C   0  0  0  0  0  0  0  0  0  0  0  0
   30.3857  -21.9223   -9.6708 C   0  0  0  0  0  0  0  0  0  0  0  0
   29.0422  -21.8085   -9.9721 C   0  0  0  0  0  0  0  0  0  0  0  0
   28.2323  -21.0735   -9.1483 C   0  0  0  0  0  0  0  0  0  0  0  0
   25.3492  -20.7813  -12.6369 C   0  0  0  0  0  0  0  0  0  0  0  0
   24.7851  -19.7219  -13.0230 O   0  0  0  0  0  0  0  0  0  0  0  0
   26.9755  -23.0595  -16.0501 N   0  0  0  0  0  0  0  0  0  0  0  0
   25.7617  -22.3213  -16.0194 C   0  0  0  0  0  0  0  0  0  0  0  0
   25.7975  -21.1475  -16.4594 O   0  0  0  0  0  0  0  0  0  0  0  0
   24.4879  -22.8552  -15.5066 C   0  0  0  0  0  0  0  0  0  0  0  0
   23.9874  -22.0049  -14.3879 C   0  0  2  0  0  0  0  0  0  0  0  0
   24.9337  -21.9803  -13.2682 N   0  0  0  0  0  0  0  0  0  0  0  0
   22.6734  -22.5320  -13.9332 C   0  0  0  0  0  0  0  0  0  0  0  0
   22.4598  -23.7392  -13.6576 O   0  0  0  0  0  0  0  0  0  0  0  0
   19.5865  -19.9630  -10.3115 C   0  0  0  0  0  0  0  0  0  0  0  0
   20.3453  -20.8995  -11.2447 C   0  0  0  0  0  0  0  0  0  0  0  0
   19.5094  -21.2688  -12.4447 C   0  0  2  0  0  0  0  0  0  0  0  0
   18.1546  -21.7249  -11.9933 C   0  0  0  0  0  0  0  0  0  0  0  0
   20.2487  -22.2002  -13.3223 C   0  0  2  0  0  0  0  0  0  0  0  0
   21.5303  -21.6970  -13.7705 N   0  0  0  0  0  0  0  0  0  0  0  0
   19.4666  -22.5135  -14.5301 C   0  0  0  0  0  0  0  0  0  0  0  0
   18.7274  -23.7039  -14.6463 O   0  0  0  0  0  0  0  0  0  0  0  0
   19.4059  -21.7573  -15.5191 O   0  0  0  0  0  0  0  0  0  0  0  0
  2  1  1  1
  2  3  1  0
  3  4  1  0
  4  5  2  0
  5  6  1  0
  7  6  1  0
  8  7  2  0
  9  8  1  0
 10 11  1  0
 10  9  2  0
 11 12  2  0
 12  4  1  0
 12  7  1  0
 13 14  2  0
 13  2  1  0
 15 16  1  0
 16 17  2  0
 18 16  1  0
 19 18  1  6
 19 20  1  0
 20 13  1  0
 21 28  1  0
 21 19  1  0
 22 21  2  0
 23 24  1  0
 24 25  1  0
 25 26  1  1
 25 27  1  0
 27 28  1  6
 27 29  1  0
 29 30  1  0
 31 29  2  0
M  END
$$$$
