WNI.pdb
     RDKit          3D

 31 32  0  0  1  0  0  0  0  0999 V2000
   27.0725  -20.4786  -16.7872 N   0  0  0  0  0  0  0  0  0  0  0  0
   27.0239  -19.9479  -15.4516 C   0  0  1  0  0  0  0  0  0  0  0  0
   26.5276  -18.5379  -15.4516 C   0  0  0  0  0  0  0  0  0  0  0  0
   27.3216  -17.7781  -16.4556 C   0  0  0  0  0  0  0  0  0  0  0  0
   26.8845  -17.0604  -17.5537 C   0  0  0  0  0  0  0  0  0  0  0  0
   27.9447  -16.5289  -18.1934 N   0  0  0  0  0  0  0  0  0  0  0  0
   29.0821  -16.8624  -17.5661 C   0  0  0  0  0  0  0  0  0  0  0  0
   30.3987  -16.5512  -17.8531 C   0  0  0  0  0  0  0  0  0  0  0  0
   31.3672  -17.0549  -16.9993 C   0  0  0  0  0  0  0  0  0  0  0  0
   31.0091  -17.8336  -15.9124 C   0  0  0  0  0  0  0  0  0  0  0  0
   29.6847  -18.1278  -15.6510 C   0  0  0  0  0  0  0  0  0  0  0  0
   28.7143  -17.6385  -16.4840 C   0  0  0  0  0  0  0  0  0  0  0  0
   26.2378  -20.8502  -14.5698 C   0  0  0  0  0  0  0  0  0  0  0  0
   25.4283  -21.6849  -15.0575 O   0  0  0  0  0  0  0  0  0  0  0  0
   26.5248  -19.2187  -10.0746 N   0  0  0  0  0  0  0  0  0  0  0  0
   25.5963  -20.2864  -10.2052 C   0  0  0  0  0  0  0  0  0  0  0  0
   24.4530  -20.1097   -9.7211 O   0  0  0  0  0  0  0  0  0  0  0  0
   25.9032  -21.5660  -10.8678 C   0  0  0  0  0  0  0  0  0  0  0  0
   25.4146  -21.5451  -12.2770 C   0  0  2  0  0  0  0  0  0  0  0  0
   26.3449  -20.8306  -13.1567 N   0  0  0  0  0  0  0  0  0  0  0  0
   24.0776  -20.8953  -12.3134 C   0  0  0  0  0  0  0  0  0  0  0  0
   23.8927  -19.6628  -12.1527 O   0  0  0  0  0  0  0  0  0  0  0  0
   20.0647  -19.5253  -16.0328 C   0  0  0  0  0  0  0  0  0  0  0  0
   20.1611  -20.0113  -14.5913 C   0  0  0  0  0  0  0  0  0  0  0  0
   21.5146  -20.6136  -14.3081 C   0  0  2  0  0  0  0  0  0  0  0  0
   21.8017  -21.6970  -15.3037 C   0  0  0  0  0  0  0  0  0  0  0  0
   21.6227  -20.9952  -12.8844 C   0  0  2  0  0  0  0  0  0  0  0  0
   22.8771  -21.6295  -12.5371 N   0  0  0  0  0  0  0  0  0  0  0  0
   20.5514  -21.9342  -12.5113 C   0  0  0  0  0  0  0  0  0  0  0  0
   19.2058  -21.5327  -12.4394 O   0  0  0  0  0  0  0  0  0  0  0  0
   20.7588  -23.1323  -12.2372 O   0  0  0  0  0  0  0  0  0  0  0  0
  2  1  1  6
  2  3  1  0
  3  4  1  0
  4  5  2  0
  5  6  1  0
  7  6  1  0
  8  7  2  0
  9  8  1  0
 10 11  1  0
 10  9  2  0
 11 12  2  0
 12  4  1  0
 12  7  1  0
 13 14  2  0
 13  2  1  0
 15 16  1  0
 16 17  2  0
 18 16  1  0
 19 18  1  1
 19 20  1  0
 20 13  1  0
 21 28  1  0
 21 19  1  0
 22 21  2  0
 23 24  1  0
 24 25  1  0
 25 26  1  6
 25 27  1  0
 27 28  1  6
 27 29  1  0
 29 30  1  0
 31 29  2  0
M  END
$$$$
