WNI.pdb
     RDKit          3D

 31 32  0  0  1  0  0  0  0  0999 V2000
   29.0573  -12.9127  -20.2091 N   0  0  0  0  0  0  0  0  0  0  0  0
   28.1655  -13.2428  -19.1305 C   0  0  1  0  0  0  0  0  0  0  0  0
   27.9019  -12.0509  -18.2676 C   0  0  0  0  0  0  0  0  0  0  0  0
   29.2044  -11.3739  -18.0201 C   0  0  0  0  0  0  0  0  0  0  0  0
   30.4600  -11.9287  -17.8537 C   0  0  0  0  0  0  0  0  0  0  0  0
   31.3609  -10.9474  -17.6511 N   0  0  0  0  0  0  0  0  0  0  0  0
   30.7581   -9.7497  -17.6748 C   0  0  0  0  0  0  0  0  0  0  0  0
   31.2710   -8.4752  -17.5165 C   0  0  0  0  0  0  0  0  0  0  0  0
   30.3759   -7.4200  -17.5954 C   0  0  0  0  0  0  0  0  0  0  0  0
   29.0311   -7.6554  -17.8236 C   0  0  0  0  0  0  0  0  0  0  0  0
   28.5479   -8.9405  -17.9779 C   0  0  0  0  0  0  0  0  0  0  0  0
   29.4179   -9.9953  -17.9029 C   0  0  0  0  0  0  0  0  0  0  0  0
   26.9279  -13.8711  -19.6626 C   0  0  0  0  0  0  0  0  0  0  0  0
   26.3800  -13.4321  -20.7099 O   0  0  0  0  0  0  0  0  0  0  0  0
   27.3413  -18.2680  -20.3071 N   0  0  0  0  0  0  0  0  0  0  0  0
   26.2184  -17.4524  -20.6125 C   0  0  0  0  0  0  0  0  0  0  0  0
   26.1176  -17.0403  -21.7926 O   0  0  0  0  0  0  0  0  0  0  0  0
   25.1865  -17.0739  -19.6314 C   0  0  0  0  0  0  0  0  0  0  0  0
   25.0688  -15.5888  -19.5565 C   0  0  2  0  0  0  0  0  0  0  0  0
   26.2985  -14.9786  -19.0412 N   0  0  0  0  0  0  0  0  0  0  0  0
   23.9203  -15.2406  -18.6785 C   0  0  0  0  0  0  0  0  0  0  0  0
   23.9896  -15.1786  -17.4253 O   0  0  0  0  0  0  0  0  0  0  0  0
   20.9286  -11.0277  -19.4660 C   0  0  0  0  0  0  0  0  0  0  0  0
   21.6315  -12.2131  -18.8146 C   0  0  0  0  0  0  0  0  0  0  0  0
   20.7389  -13.4285  -18.7867 C   0  0  2  0  0  0  0  0  0  0  0  0
   19.4928  -13.1202  -18.0122 C   0  0  0  0  0  0  0  0  0  0  0  0
   21.4986  -14.6176  -18.3473 C   0  0  2  0  0  0  0  0  0  0  0  0
   22.6260  -14.9440  -19.1952 N   0  0  0  0  0  0  0  0  0  0  0  0
   20.6327  -15.8080  -18.3108 C   0  0  0  0  0  0  0  0  0  0  0  0
   20.2446  -16.4785  -19.4842 O   0  0  0  0  0  0  0  0  0  0  0  0
   20.1895  -16.2976  -17.2537 O   0  0  0  0  0  0  0  0  0  0  0  0
  2  1  1  6
  2  3  1  0
  3  4  1  0
  4  5  2  0
  5  6  1  0
  7  6  1  0
  8  7  2  0
  9  8  1  0
 10 11  1  0
 10  9  2  0
 11 12  2  0
 12  4  1  0
 12  7  1  0
 13 14  2  0
 13  2  1  0
 15 16  1  0
 16 17  2  0
 18 16  1  0
 19 18  1  1
 19 20  1  0
 20 13  1  0
 21 28  1  0
 21 19  1  0
 22 21  2  0
 23 24  1  0
 24 25  1  0
 25 26  1  1
 25 27  1  0
 27 28  1  6
 27 29  1  0
 29 30  1  0
 31 29  2  0
M  END
$$$$
