WNI.pdb
     RDKit          3D

 31 32  0  0  1  0  0  0  0  0999 V2000
   24.3589  -16.2284  -17.6645 N   0  0  0  0  0  0  0  0  0  0  0  0
   24.5586  -17.1083  -16.5448 C   0  0  1  0  0  0  0  0  0  0  0  0
   25.0311  -16.3521  -15.3450 C   0  0  0  0  0  0  0  0  0  0  0  0
   26.3458  -15.7412  -15.6833 C   0  0  0  0  0  0  0  0  0  0  0  0
   26.7252  -14.4119  -15.6535 C   0  0  0  0  0  0  0  0  0  0  0  0
   28.0118  -14.3038  -16.0393 N   0  0  0  0  0  0  0  0  0  0  0  0
   28.5144  -15.5130  -16.3284 C   0  0  0  0  0  0  0  0  0  0  0  0
   29.7732  -15.8905  -16.7591 C   0  0  0  0  0  0  0  0  0  0  0  0
   29.9877  -17.2426  -16.9749 C   0  0  0  0  0  0  0  0  0  0  0  0
   28.9712  -18.1577  -16.7619 C   0  0  0  0  0  0  0  0  0  0  0  0
   27.7233  -17.7504  -16.3313 C   0  0  0  0  0  0  0  0  0  0  0  0
   27.4933  -16.4183  -16.1129 C   0  0  0  0  0  0  0  0  0  0  0  0
   23.3293  -17.9053  -16.2935 C   0  0  0  0  0  0  0  0  0  0  0  0
   22.2248  -17.3371  -16.0767 O   0  0  0  0  0  0  0  0  0  0  0  0
   20.6963  -18.8649  -18.0197 N   0  0  0  0  0  0  0  0  0  0  0  0
   20.9962  -20.2501  -18.1211 C   0  0  0  0  0  0  0  0  0  0  0  0
   20.5874  -20.8482  -19.1449 O   0  0  0  0  0  0  0  0  0  0  0  0
   21.7486  -21.0047  -17.1038 C   0  0  0  0  0  0  0  0  0  0  0  0
   22.1219  -20.1089  -15.9711 C   0  0  2  0  0  0  0  0  0  0  0  0
   23.3198  -19.3225  -16.2815 N   0  0  0  0  0  0  0  0  0  0  0  0
   22.3561  -20.9376  -14.7588 C   0  0  0  0  0  0  0  0  0  0  0  0
   23.0812  -21.9636  -14.7406 O   0  0  0  0  0  0  0  0  0  0  0  0
   24.0418  -20.9878   -9.1134 C   0  0  0  0  0  0  0  0  0  0  0  0
   23.0180  -21.5854  -10.0717 C   0  0  0  0  0  0  0  0  0  0  0  0
   22.8453  -20.7197  -11.2947 C   0  0  2  0  0  0  0  0  0  0  0  0
   22.3794  -19.3553  -10.8839 C   0  0  0  0  0  0  0  0  0  0  0  0
   22.0173  -21.4115  -12.3046 C   0  0  2  0  0  0  0  0  0  0  0  0
   21.7674  -20.6306  -13.4980 N   0  0  0  0  0  0  0  0  0  0  0  0
   20.7030  -21.7714  -11.7465 C   0  0  0  0  0  0  0  0  0  0  0  0
   19.5052  -21.2792  -12.2942 O   0  0  0  0  0  0  0  0  0  0  0  0
   20.5619  -22.5260  -10.7645 O   0  0  0  0  0  0  0  0  0  0  0  0
  2  1  1  6
  2  3  1  0
  3  4  1  0
  4  5  2  0
  5  6  1  0
  7  6  1  0
  8  7  2  0
  9  8  1  0
 10 11  1  0
 10  9  2  0
 11 12  2  0
 12  4  1  0
 12  7  1  0
 13 14  2  0
 13  2  1  0
 15 16  1  0
 16 17  2  0
 18 16  1  0
 19 18  1  6
 19 20  1  0
 20 13  1  0
 21 28  1  0
 21 19  1  0
 22 21  2  0
 23 24  1  0
 24 25  1  0
 25 26  1  1
 25 27  1  0
 27 28  1  6
 27 29  1  0
 29 30  1  0
 31 29  2  0
M  END
$$$$
