WNI.pdb
     RDKit          3D

 31 32  0  0  1  0  0  0  0  0999 V2000
   23.8864  -18.5478  -18.1596 N   0  0  0  0  0  0  0  0  0  0  0  0
   23.7962  -19.1823  -16.8723 C   0  0  1  0  0  0  0  0  0  0  0  0
   24.5020  -18.3796  -15.8273 C   0  0  0  0  0  0  0  0  0  0  0  0
   25.9548  -18.3908  -16.1518 C   0  0  0  0  0  0  0  0  0  0  0  0
   26.7931  -17.3308  -16.4444 C   0  0  0  0  0  0  0  0  0  0  0  0
   28.0368  -17.7936  -16.6781 N   0  0  0  0  0  0  0  0  0  0  0  0
   28.0680  -19.1285  -16.5537 C   0  0  0  0  0  0  0  0  0  0  0  0
   29.1093  -20.0268  -16.6989 C   0  0  0  0  0  0  0  0  0  0  0  0
   28.8188  -21.3675  -16.5017 C   0  0  0  0  0  0  0  0  0  0  0  0
   27.5347  -21.7671  -16.1741 C   0  0  0  0  0  0  0  0  0  0  0  0
   26.5143  -20.8460  -16.0358 C   0  0  0  0  0  0  0  0  0  0  0  0
   26.7831  -19.5170  -16.2270 C   0  0  0  0  0  0  0  0  0  0  0  0
   22.3756  -19.4657  -16.5390 C   0  0  0  0  0  0  0  0  0  0  0  0
   21.5554  -18.5256  -16.3565 O   0  0  0  0  0  0  0  0  0  0  0  0
   18.5056  -20.4322  -18.5781 N   0  0  0  0  0  0  0  0  0  0  0  0
   19.6146  -21.2782  -18.3067 C   0  0  0  0  0  0  0  0  0  0  0  0
   20.4556  -21.4274  -19.2250 O   0  0  0  0  0  0  0  0  0  0  0  0
   19.8223  -21.9754  -17.0256 C   0  0  0  0  0  0  0  0  0  0  0  0
   20.4714  -21.0610  -16.0420 C   0  0  2  0  0  0  0  0  0  0  0  0
   21.8633  -20.7807  -16.4079 N   0  0  0  0  0  0  0  0  0  0  0  0
   20.4146  -21.6856  -14.6937 C   0  0  0  0  0  0  0  0  0  0  0  0
   21.0944  -22.6870  -14.3560 O   0  0  0  0  0  0  0  0  0  0  0  0
   21.0636  -19.0160  -10.2507 C   0  0  0  0  0  0  0  0  0  0  0  0
   20.9076  -20.0195  -11.3874 C   0  0  0  0  0  0  0  0  0  0  0  0
   19.6443  -20.8287  -11.2312 C   0  0  2  0  0  0  0  0  0  0  0  0
   19.5832  -21.4044   -9.8483 C   0  0  0  0  0  0  0  0  0  0  0  0
   19.5079  -21.7934  -12.3424 C   0  0  2  0  0  0  0  0  0  0  0  0
   19.5706  -21.1912  -13.6577 N   0  0  0  0  0  0  0  0  0  0  0  0
   18.2230  -22.5080  -12.2605 C   0  0  0  0  0  0  0  0  0  0  0  0
   18.1069  -23.7526  -11.6167 O   0  0  0  0  0  0  0  0  0  0  0  0
   17.1643  -22.0669  -12.7485 O   0  0  0  0  0  0  0  0  0  0  0  0
  2  1  1  6
  2  3  1  0
  3  4  1  0
  4  5  2  0
  5  6  1  0
  7  6  1  0
  8  7  2  0
  9  8  1  0
 10 11  1  0
 10  9  2  0
 11 12  2  0
 12  4  1  0
 12  7  1  0
 13 14  2  0
 13  2  1  0
 15 16  1  0
 16 17  2  0
 18 16  1  0
 19 18  1  6
 19 20  1  0
 20 13  1  0
 21 28  1  0
 21 19  1  0
 22 21  2  0
 23 24  1  0
 24 25  1  0
 25 26  1  1
 25 27  1  0
 27 28  1  6
 27 29  1  0
 29 30  1  0
 31 29  2  0
M  END
$$$$
