WNI.pdb
     RDKit          3D

 31 32  0  0  1  0  0  0  0  0999 V2000
   28.0137  -21.9576  -13.8093 N   0  0  0  0  0  0  0  0  0  0  0  0
   26.8728  -21.6119  -13.0051 C   0  0  1  0  0  0  0  0  0  0  0  0
   27.0134  -20.2366  -12.4365 C   0  0  0  0  0  0  0  0  0  0  0  0
   27.9787  -20.3103  -11.3058 C   0  0  0  0  0  0  0  0  0  0  0  0
   29.3593  -20.3800  -11.3385 C   0  0  0  0  0  0  0  0  0  0  0  0
   29.8359  -20.4321  -10.0792 N   0  0  0  0  0  0  0  0  0  0  0  0
   28.8261  -20.4001   -9.1974 C   0  0  0  0  0  0  0  0  0  0  0  0
   28.8305  -20.4308   -7.8148 C   0  0  0  0  0  0  0  0  0  0  0  0
   27.6005  -20.3820   -7.1781 C   0  0  0  0  0  0  0  0  0  0  0  0
   26.4310  -20.3062   -7.9145 C   0  0  0  0  0  0  0  0  0  0  0  0
   26.4581  -20.2772   -9.2956 C   0  0  0  0  0  0  0  0  0  0  0  0
   27.6645  -20.3245   -9.9416 C   0  0  0  0  0  0  0  0  0  0  0  0
   25.6205  -21.8038  -13.7826 C   0  0  0  0  0  0  0  0  0  0  0  0
   25.4300  -21.1826  -14.8631 O   0  0  0  0  0  0  0  0  0  0  0  0
   21.1588  -23.5183  -15.7305 N   0  0  0  0  0  0  0  0  0  0  0  0
   21.4902  -24.3485  -14.6258 C   0  0  0  0  0  0  0  0  0  0  0  0
   20.7572  -25.3454  -14.4221 O   0  0  0  0  0  0  0  0  0  0  0  0
   22.6297  -24.1018  -13.7251 C   0  0  0  0  0  0  0  0  0  0  0  0
   23.3402  -22.8528  -14.1253 C   0  0  2  0  0  0  0  0  0  0  0  0
   24.5838  -22.6772  -13.3688 N   0  0  0  0  0  0  0  0  0  0  0  0
   22.4381  -21.6924  -13.8997 C   0  0  0  0  0  0  0  0  0  0  0  0
   22.2382  -21.1683  -12.7753 O   0  0  0  0  0  0  0  0  0  0  0  0
   21.3229  -16.2524  -15.9159 C   0  0  0  0  0  0  0  0  0  0  0  0
   20.6011  -17.4961  -15.4104 C   0  0  0  0  0  0  0  0  0  0  0  0
   21.4116  -18.7411  -15.6713 C   0  0  2  0  0  0  0  0  0  0  0  0
   21.4118  -19.0430  -17.1398 C   0  0  0  0  0  0  0  0  0  0  0  0
   20.9739  -19.8383  -14.7832 C   0  0  2  0  0  0  0  0  0  0  0  0
   21.7147  -21.0700  -14.9578 N   0  0  0  0  0  0  0  0  0  0  0  0
   19.5541  -20.1581  -15.0071 C   0  0  0  0  0  0  0  0  0  0  0  0
   19.1489  -21.3882  -15.5547 O   0  0  0  0  0  0  0  0  0  0  0  0
   18.6258  -19.3733  -14.7314 O   0  0  0  0  0  0  0  0  0  0  0  0
  2  1  1  6
  2  3  1  0
  3  4  1  0
  4  5  2  0
  5  6  1  0
  7  6  1  0
  8  7  2  0
  9  8  1  0
 10 11  1  0
 10  9  2  0
 11 12  2  0
 12  4  1  0
 12  7  1  0
 13 14  2  0
 13  2  1  0
 15 16  1  0
 16 17  2  0
 18 16  1  0
 19 18  1  1
 19 20  1  0
 20 13  1  0
 21 28  1  0
 21 19  1  0
 22 21  2  0
 23 24  1  0
 24 25  1  0
 25 26  1  6
 25 27  1  0
 27 28  1  6
 27 29  1  0
 29 30  1  0
 31 29  2  0
M  END
$$$$
