WNI.pdb
     RDKit          3D

 31 32  0  0  1  0  0  0  0  0999 V2000
   27.9237  -21.7510  -16.2477 N   0  0  0  0  0  0  0  0  0  0  0  0
   26.7288  -20.9733  -16.4361 C   0  0  1  0  0  0  0  0  0  0  0  0
   26.6554  -20.4297  -17.8266 C   0  0  0  0  0  0  0  0  0  0  0  0
   27.8354  -19.5451  -18.0301 C   0  0  0  0  0  0  0  0  0  0  0  0
   29.1770  -19.8759  -18.0808 C   0  0  0  0  0  0  0  0  0  0  0  0
   29.9066  -18.7611  -18.2827 N   0  0  0  0  0  0  0  0  0  0  0  0
   29.1051  -17.6895  -18.3701 C   0  0  0  0  0  0  0  0  0  0  0  0
   29.3993  -16.3533  -18.5712 C   0  0  0  0  0  0  0  0  0  0  0  0
   28.3314  -15.4710  -18.6143 C   0  0  0  0  0  0  0  0  0  0  0  0
   27.0346  -15.9300  -18.4604 C   0  0  0  0  0  0  0  0  0  0  0  0
   26.7716  -17.2715  -18.2608 C   0  0  0  0  0  0  0  0  0  0  0  0
   27.8145  -18.1577  -18.2154 C   0  0  0  0  0  0  0  0  0  0  0  0
   25.5337  -21.7682  -16.0495 C   0  0  0  0  0  0  0  0  0  0  0  0
   24.3712  -21.3111  -16.2213 O   0  0  0  0  0  0  0  0  0  0  0  0
   24.3923  -25.2438  -17.3747 N   0  0  0  0  0  0  0  0  0  0  0  0
   24.7626  -25.8983  -16.1689 C   0  0  0  0  0  0  0  0  0  0  0  0
   25.1239  -27.0958  -16.2584 O   0  0  0  0  0  0  0  0  0  0  0  0
   24.7437  -25.2533  -14.8444 C   0  0  0  0  0  0  0  0  0  0  0  0
   24.4523  -23.7972  -14.9859 C   0  0  2  0  0  0  0  0  0  0  0  0
   25.6219  -23.0612  -15.4759 N   0  0  0  0  0  0  0  0  0  0  0  0
   24.0287  -23.2605  -13.6655 C   0  0  0  0  0  0  0  0  0  0  0  0
   22.9389  -23.5470  -13.1093 O   0  0  0  0  0  0  0  0  0  0  0  0
   26.2667  -20.4751   -8.5595 C   0  0  0  0  0  0  0  0  0  0  0  0
   25.1158  -21.0048   -9.4071 C   0  0  0  0  0  0  0  0  0  0  0  0
   25.5799  -21.3563  -10.7985 C   0  0  2  0  0  0  0  0  0  0  0  0
   26.3373  -20.2022  -11.3831 C   0  0  0  0  0  0  0  0  0  0  0  0
   24.4524  -21.8681  -11.6054 C   0  0  2  0  0  0  0  0  0  0  0  0
   24.8375  -22.3625  -12.9106 N   0  0  0  0  0  0  0  0  0  0  0  0
   23.4469  -20.8154  -11.8268 C   0  0  0  0  0  0  0  0  0  0  0  0
   22.6268  -20.3432  -10.7868 O   0  0  0  0  0  0  0  0  0  0  0  0
   23.2547  -20.2772  -12.9345 O   0  0  0  0  0  0  0  0  0  0  0  0
  2  1  1  6
  2  3  1  0
  3  4  1  0
  4  5  2  0
  5  6  1  0
  7  6  1  0
  8  7  2  0
  9  8  1  0
 10 11  1  0
 10  9  2  0
 11 12  2  0
 12  4  1  0
 12  7  1  0
 13 14  2  0
 13  2  1  0
 15 16  1  0
 16 17  2  0
 18 16  1  0
 19 18  1  1
 19 20  1  0
 20 13  1  0
 21 28  1  0
 21 19  1  0
 22 21  2  0
 23 24  1  0
 24 25  1  0
 25 26  1  6
 25 27  1  0
 27 28  1  6
 27 29  1  0
 29 30  1  0
 31 29  2  0
M  END
$$$$
