WNI.pdb
     RDKit          3D

 31 32  0  0  1  0  0  0  0  0999 V2000
   29.9556  -21.3395  -16.0826 N   0  0  0  0  0  0  0  0  0  0  0  0
   29.5266  -21.5205  -14.7221 C   0  0  1  0  0  0  0  0  0  0  0  0
   30.5841  -21.0791  -13.7622 C   0  0  0  0  0  0  0  0  0  0  0  0
   31.4680  -22.2464  -13.4935 C   0  0  0  0  0  0  0  0  0  0  0  0
   32.0014  -22.6808  -12.2941 C   0  0  0  0  0  0  0  0  0  0  0  0
   32.7488  -23.7815  -12.5079 N   0  0  0  0  0  0  0  0  0  0  0  0
   32.7388  -24.1055  -13.8091 C   0  0  0  0  0  0  0  0  0  0  0  0
   33.3533  -25.1416  -14.4885 C   0  0  0  0  0  0  0  0  0  0  0  0
   33.1474  -25.2091  -15.8573 C   0  0  0  0  0  0  0  0  0  0  0  0
   32.3568  -24.2693  -16.4958 C   0  0  0  0  0  0  0  0  0  0  0  0
   31.7555  -23.2450  -15.7901 C   0  0  0  0  0  0  0  0  0  0  0  0
   31.9480  -23.1626  -14.4369 C   0  0  0  0  0  0  0  0  0  0  0  0
   28.2164  -20.8529  -14.5046 C   0  0  0  0  0  0  0  0  0  0  0  0
   28.1024  -19.6024  -14.6186 O   0  0  0  0  0  0  0  0  0  0  0  0
   22.1801  -21.0695  -13.9783 N   0  0  0  0  0  0  0  0  0  0  0  0
   23.4632  -20.4706  -14.0976 C   0  0  0  0  0  0  0  0  0  0  0  0
   23.5621  -19.2648  -13.7674 O   0  0  0  0  0  0  0  0  0  0  0  0
   24.6602  -21.1812  -14.5803 C   0  0  0  0  0  0  0  0  0  0  0  0
   25.8199  -20.9014  -13.6849 C   0  0  2  0  0  0  0  0  0  0  0  0
   27.0382  -21.5626  -14.1627 N   0  0  0  0  0  0  0  0  0  0  0  0
   25.4916  -21.3684  -12.3118 C   0  0  0  0  0  0  0  0  0  0  0  0
   25.4456  -22.5782  -11.9751 O   0  0  0  0  0  0  0  0  0  0  0  0
   27.8018  -19.6631   -7.9426 C   0  0  0  0  0  0  0  0  0  0  0  0
   27.0154  -20.5104   -8.9361 C   0  0  0  0  0  0  0  0  0  0  0  0
   25.5346  -20.2452   -8.8270 C   0  0  2  0  0  0  0  0  0  0  0  0
   25.0669  -20.5651   -7.4391 C   0  0  0  0  0  0  0  0  0  0  0  0
   24.8077  -20.9131   -9.9269 C   0  0  2  0  0  0  0  0  0  0  0  0
   25.1974  -20.4670  -11.2482 N   0  0  0  0  0  0  0  0  0  0  0  0
   23.3575  -20.6860   -9.8098 C   0  0  0  0  0  0  0  0  0  0  0  0
   22.6438  -19.9433  -10.7669 O   0  0  0  0  0  0  0  0  0  0  0  0
   22.6711  -21.1292   -8.8685 O   0  0  0  0  0  0  0  0  0  0  0  0
  2  1  1  6
  2  3  1  0
  3  4  1  0
  4  5  2  0
  5  6  1  0
  7  6  1  0
  8  7  2  0
  9  8  1  0
 10 11  1  0
 10  9  2  0
 11 12  2  0
 12  4  1  0
 12  7  1  0
 13 14  2  0
 13  2  1  0
 15 16  1  0
 16 17  2  0
 18 16  1  0
 19 18  1  6
 19 20  1  0
 20 13  1  0
 21 28  1  0
 21 19  1  0
 22 21  2  0
 23 24  1  0
 24 25  1  0
 25 26  1  1
 25 27  1  0
 27 28  1  6
 27 29  1  0
 29 30  1  0
 31 29  2  0
M  END
$$$$
