WNI.pdb
     RDKit          3D

 31 32  0  0  1  0  0  0  0  0999 V2000
   28.0812  -20.4820  -18.5239 N   0  0  0  0  0  0  0  0  0  0  0  0
   27.5002  -20.9574  -17.2975 C   0  0  1  0  0  0  0  0  0  0  0  0
   28.5537  -21.2172  -16.2693 C   0  0  0  0  0  0  0  0  0  0  0  0
   29.2314  -22.4933  -16.6275 C   0  0  0  0  0  0  0  0  0  0  0  0
   30.5045  -22.6963  -17.1273 C   0  0  0  0  0  0  0  0  0  0  0  0
   30.7098  -24.0155  -17.3100 N   0  0  0  0  0  0  0  0  0  0  0  0
   29.6204  -24.7103  -16.9512 C   0  0  0  0  0  0  0  0  0  0  0  0
   29.3697  -26.0703  -16.9637 C   0  0  0  0  0  0  0  0  0  0  0  0
   28.1234  -26.4867  -16.5231 C   0  0  0  0  0  0  0  0  0  0  0  0
   27.1858  -25.5635  -16.0937 C   0  0  0  0  0  0  0  0  0  0  0  0
   27.4652  -24.2105  -16.0926 C   0  0  0  0  0  0  0  0  0  0  0  0
   28.6915  -23.7809  -16.5246 C   0  0  0  0  0  0  0  0  0  0  0  0
   26.4423  -20.0212  -16.8348 C   0  0  0  0  0  0  0  0  0  0  0  0
   26.5174  -18.7878  -17.0852 O   0  0  0  0  0  0  0  0  0  0  0  0
   22.3411  -17.0905  -15.9775 N   0  0  0  0  0  0  0  0  0  0  0  0
   22.1216  -18.4882  -16.1105 C   0  0  0  0  0  0  0  0  0  0  0  0
   20.9895  -18.9204  -15.7879 O   0  0  0  0  0  0  0  0  0  0  0  0
   23.1376  -19.4368  -16.5990 C   0  0  0  0  0  0  0  0  0  0  0  0
   24.2699  -19.5204  -15.6317 C   0  0  2  0  0  0  0  0  0  0  0  0
   25.3075  -20.4450  -16.0991 N   0  0  0  0  0  0  0  0  0  0  0  0
   23.7453  -19.9670  -14.3139 C   0  0  0  0  0  0  0  0  0  0  0  0
   22.8776  -19.3399  -13.6559 O   0  0  0  0  0  0  0  0  0  0  0  0
   25.2727  -19.4911   -9.6226 C   0  0  0  0  0  0  0  0  0  0  0  0
   24.3690  -19.8439  -10.7983 C   0  0  0  0  0  0  0  0  0  0  0  0
   24.6046  -21.2598  -11.2617 C   0  0  2  0  0  0  0  0  0  0  0  0
   26.0683  -21.4725  -11.5060 C   0  0  0  0  0  0  0  0  0  0  0  0
   23.7040  -21.5923  -12.3854 C   0  0  2  0  0  0  0  0  0  0  0  0
   24.1913  -21.1622  -13.6792 N   0  0  0  0  0  0  0  0  0  0  0  0
   22.3822  -20.9707  -12.1984 C   0  0  0  0  0  0  0  0  0  0  0  0
   21.5455  -21.3176  -11.1230 O   0  0  0  0  0  0  0  0  0  0  0  0
   21.9191  -20.1068  -12.9684 O   0  0  0  0  0  0  0  0  0  0  0  0
  2  1  1  6
  2  3  1  0
  3  4  1  0
  4  5  2  0
  5  6  1  0
  7  6  1  0
  8  7  2  0
  9  8  1  0
 10 11  1  0
 10  9  2  0
 11 12  2  0
 12  4  1  0
 12  7  1  0
 13 14  2  0
 13  2  1  0
 15 16  1  0
 16 17  2  0
 18 16  1  0
 19 18  1  6
 19 20  1  0
 20 13  1  0
 21 28  1  0
 21 19  1  0
 22 21  2  0
 23 24  1  0
 24 25  1  0
 25 26  1  6
 25 27  1  0
 27 28  1  6
 27 29  1  0
 29 30  1  0
 31 29  2  0
M  END
$$$$
