LTQ.pdb
     RDKit          3D

 25 24  0  0  1  0  0  0  0  0999 V2000
   30.4750  -22.9797  -10.7898 C   0  0  0  0  0  0  0  0  0  0  0  0
   30.5640  -21.4807  -10.5373 C   0  0  2  0  0  0  0  0  0  0  0  0
   31.0357  -21.1706   -9.1451 C   0  0  0  0  0  0  0  0  0  0  0  0
   29.1898  -20.9137  -10.7714 C   0  0  0  0  0  0  0  0  0  0  0  0
   28.8473  -21.0228  -12.2503 C   0  0  2  0  0  0  0  0  0  0  0  0
   29.8862  -20.4408  -13.0729 N   0  0  0  0  0  0  0  0  0  0  0  0
   27.5449  -20.3581  -12.4479 C   0  0  0  0  0  0  0  0  0  0  0  0
   27.5156  -19.1036  -12.3724 O   0  0  0  0  0  0  0  0  0  0  0  0
   26.6448  -18.6082  -13.9807 C   0  0  0  0  0  0  0  0  0  0  0  0
   25.4405  -19.4674  -14.3058 C   0  0  1  0  0  0  0  0  0  0  0  0
   25.9530  -20.4376  -15.2086 O   0  0  0  0  0  0  0  0  0  0  0  0
   25.1279  -20.2881  -13.0426 C   0  0  2  0  0  0  0  0  0  0  0  0
   26.3434  -21.0651  -12.7154 N   0  0  0  0  0  0  0  0  0  0  0  0
   24.0343  -21.2148  -13.3728 C   0  0  0  0  0  0  0  0  0  0  0  0
   24.1086  -22.4293  -12.9449 O   0  0  0  0  0  0  0  0  0  0  0  0
   18.7757  -22.7890  -11.5816 N   0  0  0  0  0  0  0  0  0  0  0  0
   18.9875  -21.4444  -11.9622 C   0  0  0  0  0  0  0  0  0  0  0  0
   18.1461  -20.5726  -11.6568 O   0  0  0  0  0  0  0  0  0  0  0  0
   20.1869  -21.0751  -12.7107 C   0  0  0  0  0  0  0  0  0  0  0  0
   21.1154  -22.2196  -12.9723 C   0  0  0  0  0  0  0  0  0  0  0  0
   21.8104  -21.9425  -14.3052 C   0  0  2  0  0  0  0  0  0  0  0  0
   22.8707  -20.9492  -14.1172 N   0  0  0  0  0  0  0  0  0  0  0  0
   20.8254  -21.3590  -15.2441 C   0  0  0  0  0  0  0  0  0  0  0  0
   19.9191  -22.0763  -15.7113 O   0  0  0  0  0  0  0  0  0  0  0  0
   20.8733  -20.0193  -15.6311 O   0  0  0  0  0  0  0  0  0  0  0  0
  2  1  1  1
  2  3  1  0
  4  5  1  0
  4  2  1  0
  5  7  1  0
  5  6  1  6
  7  8  2  0
 10  9  1  1
 10 11  1  0
 10 12  1  0
 12 13  1  6
 13  7  1  0
 14 15  2  0
 14 12  1  0
 16 17  1  0
 17 18  2  0
 17 19  1  0
 19 20  1  0
 21 20  1  1
 21 22  1  0
 21 23  1  0
 22 14  1  0
 23 25  1  0
 24 23  2  0
M  END
$$$$
