LTQ.pdb
     RDKit          3D

 25 24  0  0  1  0  0  0  0  0999 V2000
   26.3957  -20.9090   -7.1040 C   0  0  0  0  0  0  0  0  0  0  0  0
   27.5755  -20.1088   -7.6394 C   0  0  2  0  0  0  0  0  0  0  0  0
   27.9307  -18.9586   -6.7405 C   0  0  0  0  0  0  0  0  0  0  0  0
   27.1865  -19.6144   -9.0064 C   0  0  0  0  0  0  0  0  0  0  0  0
   26.9806  -20.8058   -9.9309 C   0  0  2  0  0  0  0  0  0  0  0  0
   28.2324  -21.4782  -10.2055 N   0  0  0  0  0  0  0  0  0  0  0  0
   26.3406  -20.3000  -11.1604 C   0  0  0  0  0  0  0  0  0  0  0  0
   27.0353  -19.5829  -11.9242 O   0  0  0  0  0  0  0  0  0  0  0  0
   26.7144  -20.8218  -13.6896 C   0  0  0  0  0  0  0  0  0  0  0  0
   25.2285  -21.0420  -13.8841 C   0  0  1  0  0  0  0  0  0  0  0  0
   25.0177  -22.3618  -13.4018 O   0  0  0  0  0  0  0  0  0  0  0  0
   24.5108  -20.1649  -12.8438 C   0  0  2  0  0  0  0  0  0  0  0  0
   24.9948  -20.5851  -11.5106 N   0  0  0  0  0  0  0  0  0  0  0  0
   23.0697  -20.4420  -12.9458 C   0  0  0  0  0  0  0  0  0  0  0  0
   22.4425  -20.8288  -11.8873 O   0  0  0  0  0  0  0  0  0  0  0  0
   17.9727  -17.6088  -14.0914 N   0  0  0  0  0  0  0  0  0  0  0  0
   19.1751  -17.5110  -14.8278 C   0  0  0  0  0  0  0  0  0  0  0  0
   19.1583  -17.0388  -15.9844 O   0  0  0  0  0  0  0  0  0  0  0  0
   20.4340  -17.9609  -14.2378 C   0  0  0  0  0  0  0  0  0  0  0  0
   20.2831  -19.1055  -13.2853 C   0  0  0  0  0  0  0  0  0  0  0  0
   20.7843  -20.3592  -14.0018 C   0  0  2  0  0  0  0  0  0  0  0  0
   22.2470  -20.3362  -14.0819 N   0  0  0  0  0  0  0  0  0  0  0  0
   20.2697  -20.3526  -15.3901 C   0  0  0  0  0  0  0  0  0  0  0  0
   21.0418  -20.0884  -16.3326 O   0  0  0  0  0  0  0  0  0  0  0  0
   18.9361  -20.6346  -15.6879 O   0  0  0  0  0  0  0  0  0  0  0  0
  2  1  1  1
  2  3  1  0
  4  5  1  0
  4  2  1  0
  5  7  1  0
  5  6  1  6
  7  8  2  0
 10  9  1  1
 10 11  1  0
 10 12  1  0
 12 13  1  1
 13  7  1  0
 14 15  2  0
 14 12  1  0
 16 17  1  0
 17 18  2  0
 17 19  1  0
 19 20  1  0
 21 20  1  1
 21 22  1  0
 21 23  1  0
 22 14  1  0
 23 25  1  0
 24 23  2  0
M  END
$$$$
