LTQ.pdb
     RDKit          3D

 25 24  0  0  1  0  0  0  0  0999 V2000
   26.3736  -15.4677  -14.6356 C   0  0  0  0  0  0  0  0  0  0  0  0
   26.2947  -16.1405  -15.9994 C   0  0  2  0  0  0  0  0  0  0  0  0
   27.1579  -15.4522  -17.0183 C   0  0  0  0  0  0  0  0  0  0  0  0
   24.8502  -16.1118  -16.4202 C   0  0  0  0  0  0  0  0  0  0  0  0
   24.1394  -17.3344  -15.8575 C   0  0  2  0  0  0  0  0  0  0  0  0
   24.7878  -18.5576  -16.2793 N   0  0  0  0  0  0  0  0  0  0  0  0
   22.7347  -17.2679  -16.3043 C   0  0  0  0  0  0  0  0  0  0  0  0
   22.4965  -17.5236  -17.5118 O   0  0  0  0  0  0  0  0  0  0  0  0
   18.0043  -17.6837  -15.7459 C   0  0  0  0  0  0  0  0  0  0  0  0
   19.3889  -17.7388  -15.1343 C   0  0  1  0  0  0  0  0  0  0  0  0
   19.8325  -19.0574  -15.4234 O   0  0  0  0  0  0  0  0  0  0  0  0
   20.2961  -16.8588  -16.0114 C   0  0  2  0  0  0  0  0  0  0  0  0
   21.6589  -16.9326  -15.4410 N   0  0  0  0  0  0  0  0  0  0  0  0
   19.8040  -15.4759  -15.9140 C   0  0  0  0  0  0  0  0  0  0  0  0
   19.9831  -14.8371  -14.8080 O   0  0  0  0  0  0  0  0  0  0  0  0
   17.9891  -10.9809  -20.1901 N   0  0  0  0  0  0  0  0  0  0  0  0
   17.9366  -10.3914  -18.9066 C   0  0  0  0  0  0  0  0  0  0  0  0
   17.6183   -9.1890  -18.7880 O   0  0  0  0  0  0  0  0  0  0  0  0
   18.2537  -11.1860  -17.7220 C   0  0  0  0  0  0  0  0  0  0  0  0
   18.5831  -12.6153  -18.0203 C   0  0  0  0  0  0  0  0  0  0  0  0
   18.7131  -13.3386  -16.6800 C   0  0  2  0  0  0  0  0  0  0  0  0
   19.1419  -14.7221  -16.8999 N   0  0  0  0  0  0  0  0  0  0  0  0
   17.3813  -13.3903  -16.0351 C   0  0  0  0  0  0  0  0  0  0  0  0
   16.6109  -14.3376  -16.2866 O   0  0  0  0  0  0  0  0  0  0  0  0
   16.9498  -12.4064  -15.1449 O   0  0  0  0  0  0  0  0  0  0  0  0
  2  1  1  1
  2  3  1  0
  4  5  1  0
  4  2  1  0
  5  7  1  0
  5  6  1  6
  7  8  2  0
 10  9  1  6
 10 11  1  0
 10 12  1  0
 12 13  1  1
 13  7  1  0
 14 15  2  0
 14 12  1  0
 16 17  1  0
 17 18  2  0
 17 19  1  0
 19 20  1  0
 21 20  1  6
 21 22  1  0
 21 23  1  0
 22 14  1  0
 23 25  1  0
 24 23  2  0
M  END
$$$$
