LTQ.pdb
     RDKit          3D

 25 24  0  0  1  0  0  0  0  0999 V2000
   26.9774  -19.6082   -4.6367 C   0  0  0  0  0  0  0  0  0  0  0  0
   28.1054  -19.8644   -5.6270 C   0  0  2  0  0  0  0  0  0  0  0  0
   29.3755  -19.1688   -5.2268 C   0  0  0  0  0  0  0  0  0  0  0  0
   27.6314  -19.3749   -6.9687 C   0  0  0  0  0  0  0  0  0  0  0  0
   26.4217  -20.1907   -7.4017 C   0  0  2  0  0  0  0  0  0  0  0  0
   26.6445  -21.6061   -7.1984 N   0  0  0  0  0  0  0  0  0  0  0  0
   26.1600  -19.8674   -8.8174 C   0  0  0  0  0  0  0  0  0  0  0  0
   26.3437  -18.6796   -9.1856 O   0  0  0  0  0  0  0  0  0  0  0  0
   27.9628  -20.6349  -11.5275 C   0  0  0  0  0  0  0  0  0  0  0  0
   26.6152  -21.1406  -11.9992 C   0  0  1  0  0  0  0  0  0  0  0  0
   26.5584  -22.4678  -11.4950 O   0  0  0  0  0  0  0  0  0  0  0  0
   25.5499  -20.4006  -11.1719 C   0  0  2  0  0  0  0  0  0  0  0  0
   25.7166  -20.8267   -9.7651 N   0  0  0  0  0  0  0  0  0  0  0  0
   24.2300  -20.8332  -11.6563 C   0  0  0  0  0  0  0  0  0  0  0  0
   23.6055  -21.7507  -10.9994 O   0  0  0  0  0  0  0  0  0  0  0  0
   18.1475  -19.2483  -10.8698 N   0  0  0  0  0  0  0  0  0  0  0  0
   19.1324  -19.0773  -11.8690 C   0  0  0  0  0  0  0  0  0  0  0  0
   19.0616  -18.1054  -12.6509 O   0  0  0  0  0  0  0  0  0  0  0  0
   20.2302  -20.0344  -11.9869 C   0  0  0  0  0  0  0  0  0  0  0  0
   21.1784  -19.7357  -13.1058 C   0  0  0  0  0  0  0  0  0  0  0  0
   22.2005  -20.8714  -13.1478 C   0  0  2  0  0  0  0  0  0  0  0  0
   23.5245  -20.3641  -12.7792 N   0  0  0  0  0  0  0  0  0  0  0  0
   22.2960  -21.3757  -14.5366 C   0  0  0  0  0  0  0  0  0  0  0  0
   23.2610  -21.0383  -15.2501 O   0  0  0  0  0  0  0  0  0  0  0  0
   21.3344  -22.2252  -15.0847 O   0  0  0  0  0  0  0  0  0  0  0  0
  2  1  1  1
  2  3  1  0
  4  5  1  0
  4  2  1  0
  5  7  1  0
  5  6  1  6
  7  8  2  0
 10  9  1  1
 10 11  1  0
 10 12  1  0
 12 13  1  1
 13  7  1  0
 14 15  2  0
 14 12  1  0
 16 17  1  0
 17 18  2  0
 17 19  1  0
 19 20  1  0
 21 20  1  6
 21 22  1  0
 21 23  1  0
 22 14  1  0
 23 25  1  0
 24 23  2  0
M  END
$$$$
