LTQ.pdb
     RDKit          3D

 25 24  0  0  1  0  0  0  0  0999 V2000
   27.6277  -18.4681   -6.1352 C   0  0  0  0  0  0  0  0  0  0  0  0
   27.6532  -19.9872   -6.0340 C   0  0  2  0  0  0  0  0  0  0  0  0
   28.8762  -20.4839   -5.3166 C   0  0  0  0  0  0  0  0  0  0  0  0
   27.6080  -20.5217   -7.4399 C   0  0  0  0  0  0  0  0  0  0  0  0
   26.2794  -20.1424   -8.0784 C   0  0  2  0  0  0  0  0  0  0  0  0
   25.1644  -20.5700   -7.2609 N   0  0  0  0  0  0  0  0  0  0  0  0
   26.2495  -20.7527   -9.4215 C   0  0  0  0  0  0  0  0  0  0  0  0
   26.2165  -22.0075   -9.4888 O   0  0  0  0  0  0  0  0  0  0  0  0
   24.7232  -22.4249  -10.7801 C   0  0  0  0  0  0  0  0  0  0  0  0
   24.6633  -21.3540  -11.8496 C   0  0  1  0  0  0  0  0  0  0  0  0
   23.8515  -20.3430  -11.2686 O   0  0  0  0  0  0  0  0  0  0  0  0
   26.0564  -20.7033  -11.9035 C   0  0  2  0  0  0  0  0  0  0  0  0
   26.2562  -19.9937  -10.6210 N   0  0  0  0  0  0  0  0  0  0  0  0
   26.0490  -19.7256  -13.0026 C   0  0  0  0  0  0  0  0  0  0  0  0
   25.4916  -18.5800  -12.8013 O   0  0  0  0  0  0  0  0  0  0  0  0
   29.9639  -17.9584  -17.3075 N   0  0  0  0  0  0  0  0  0  0  0  0
   28.7395  -17.2659  -17.4459 C   0  0  0  0  0  0  0  0  0  0  0  0
   28.7415  -16.0264  -17.6032 O   0  0  0  0  0  0  0  0  0  0  0  0
   27.4754  -17.9977  -17.4053 C   0  0  0  0  0  0  0  0  0  0  0  0
   27.4778  -19.1616  -16.4642 C   0  0  0  0  0  0  0  0  0  0  0  0
   26.6028  -18.7797  -15.2705 C   0  0  2  0  0  0  0  0  0  0  0  0
   26.5901  -19.8707  -14.2929 N   0  0  0  0  0  0  0  0  0  0  0  0
   25.2105  -18.5958  -15.7395 C   0  0  0  0  0  0  0  0  0  0  0  0
   24.4484  -19.5799  -15.8093 O   0  0  0  0  0  0  0  0  0  0  0  0
   24.7123  -17.3467  -16.1114 O   0  0  0  0  0  0  0  0  0  0  0  0
  2  1  1  6
  2  3  1  0
  4  5  1  0
  4  2  1  0
  5  7  1  0
  5  6  1  1
  7  8  2  0
 10  9  1  1
 10 11  1  0
 10 12  1  0
 12 13  1  1
 13  7  1  0
 14 15  2  0
 14 12  1  0
 16 17  1  0
 17 18  2  0
 17 19  1  0
 19 20  1  0
 21 20  1  6
 21 22  1  0
 21 23  1  0
 22 14  1  0
 23 25  1  0
 24 23  2  0
M  END
$$$$
