LTQ.pdb
     RDKit          3D

 25 24  0  0  1  0  0  0  0  0999 V2000
   21.0527  -20.8762  -20.0877 C   0  0  0  0  0  0  0  0  0  0  0  0
   21.6687  -19.8649  -19.1304 C   0  0  2  0  0  0  0  0  0  0  0  0
   22.8377  -19.1478  -19.7437 C   0  0  0  0  0  0  0  0  0  0  0  0
   22.0954  -20.6248  -17.9037 C   0  0  0  0  0  0  0  0  0  0  0  0
   22.6498  -19.6484  -16.8762 C   0  0  2  0  0  0  0  0  0  0  0  0
   23.3497  -18.5555  -17.5167 N   0  0  0  0  0  0  0  0  0  0  0  0
   23.5276  -20.4162  -15.9723 C   0  0  0  0  0  0  0  0  0  0  0  0
   23.8953  -21.5573  -16.3503 O   0  0  0  0  0  0  0  0  0  0  0  0
   25.8979  -21.3198  -16.1394 C   0  0  0  0  0  0  0  0  0  0  0  0
   26.2536  -20.7415  -14.7854 C   0  0  1  0  0  0  0  0  0  0  0  0
   26.4880  -19.3668  -15.0574 O   0  0  0  0  0  0  0  0  0  0  0  0
   24.9574  -20.7235  -13.9569 C   0  0  2  0  0  0  0  0  0  0  0  0
   23.9669  -19.9273  -14.7141 N   0  0  0  0  0  0  0  0  0  0  0  0
   25.2517  -20.0477  -12.6840 C   0  0  0  0  0  0  0  0  0  0  0  0
   24.5414  -19.0228  -12.3545 O   0  0  0  0  0  0  0  0  0  0  0  0
   22.3438  -20.7950   -9.2096 N   0  0  0  0  0  0  0  0  0  0  0  0
   23.2971  -21.0154   -8.1896 C   0  0  0  0  0  0  0  0  0  0  0  0
   22.9831  -20.8274   -6.9949 O   0  0  0  0  0  0  0  0  0  0  0  0
   24.6458  -21.4619   -8.5315 C   0  0  0  0  0  0  0  0  0  0  0  0
   24.9175  -21.5008  -10.0029 C   0  0  0  0  0  0  0  0  0  0  0  0
   25.9644  -20.4269  -10.2980 C   0  0  2  0  0  0  0  0  0  0  0  0
   26.2372  -20.3790  -11.7365 N   0  0  0  0  0  0  0  0  0  0  0  0
   27.2299  -20.7972   -9.6244 C   0  0  0  0  0  0  0  0  0  0  0  0
   28.0108  -21.5971  -10.1762 O   0  0  0  0  0  0  0  0  0  0  0  0
   27.5866  -20.2782   -8.3794 O   0  0  0  0  0  0  0  0  0  0  0  0
  2  1  1  6
  2  3  1  0
  4  5  1  0
  4  2  1  0
  5  7  1  0
  5  6  1  6
  7  8  2  0
 10  9  1  6
 10 11  1  0
 10 12  1  0
 12 13  1  6
 13  7  1  0
 14 15  2  0
 14 12  1  0
 16 17  1  0
 17 18  2  0
 17 19  1  0
 19 20  1  0
 21 20  1  6
 21 22  1  0
 21 23  1  0
 22 14  1  0
 23 25  1  0
 24 23  2  0
M  END
$$$$
