LTQ.pdb
     RDKit          3D

 25 24  0  0  1  0  0  0  0  0999 V2000
   24.5680  -16.5458  -16.7752 C   0  0  0  0  0  0  0  0  0  0  0  0
   23.9893  -17.8198  -17.3758 C   0  0  2  0  0  0  0  0  0  0  0  0
   22.5712  -17.6328  -17.8353 C   0  0  0  0  0  0  0  0  0  0  0  0
   24.0677  -18.8816  -16.3124 C   0  0  0  0  0  0  0  0  0  0  0  0
   25.5065  -19.0046  -15.8314 C   0  0  2  0  0  0  0  0  0  0  0  0
   26.4065  -19.2682  -16.9336 N   0  0  0  0  0  0  0  0  0  0  0  0
   25.5391  -20.0775  -14.8190 C   0  0  0  0  0  0  0  0  0  0  0  0
   25.6430  -21.2610  -15.2299 O   0  0  0  0  0  0  0  0  0  0  0  0
   28.1153  -19.9663  -12.1705 C   0  0  0  0  0  0  0  0  0  0  0  0
   27.3742  -21.1592  -12.7379 C   0  0  1  0  0  0  0  0  0  0  0  0
   27.6809  -22.2088  -11.8306 O   0  0  0  0  0  0  0  0  0  0  0  0
   25.8762  -20.9066  -12.4953 C   0  0  2  0  0  0  0  0  0  0  0  0
   25.4592  -19.8325  -13.4230 N   0  0  0  0  0  0  0  0  0  0  0  0
   25.7223  -20.4372  -11.1097 C   0  0  0  0  0  0  0  0  0  0  0  0
   26.1263  -19.2481  -10.8160 O   0  0  0  0  0  0  0  0  0  0  0  0
   22.2973  -22.5655   -6.0461 N   0  0  0  0  0  0  0  0  0  0  0  0
   22.9454  -21.3786   -5.6353 C   0  0  0  0  0  0  0  0  0  0  0  0
   22.7167  -20.9067   -4.5012 O   0  0  0  0  0  0  0  0  0  0  0  0
   23.8802  -20.7055   -6.5344 C   0  0  0  0  0  0  0  0  0  0  0  0
   24.0728  -21.4044   -7.8438 C   0  0  0  0  0  0  0  0  0  0  0  0
   24.9471  -20.5017   -8.7140 C   0  0  2  0  0  0  0  0  0  0  0  0
   25.1707  -21.1314  -10.0177 N   0  0  0  0  0  0  0  0  0  0  0  0
   26.2704  -20.3527   -8.0669 C   0  0  0  0  0  0  0  0  0  0  0  0
   26.4956  -19.3615   -7.3451 O   0  0  0  0  0  0  0  0  0  0  0  0
   27.2886  -21.2915   -8.2363 O   0  0  0  0  0  0  0  0  0  0  0  0
  2  1  1  1
  2  3  1  0
  4  5  1  0
  4  2  1  0
  5  7  1  0
  5  6  1  6
  7  8  2  0
 10  9  1  1
 10 11  1  0
 10 12  1  0
 12 13  1  6
 13  7  1  0
 14 15  2  0
 14 12  1  0
 16 17  1  0
 17 18  2  0
 17 19  1  0
 19 20  1  0
 21 20  1  1
 21 22  1  0
 21 23  1  0
 22 14  1  0
 23 25  1  0
 24 23  2  0
M  END
$$$$
