LTQ.pdb
     RDKit          3D

 25 24  0  0  1  0  0  0  0  0999 V2000
   26.0883  -15.4964  -20.6676 C   0  0  0  0  0  0  0  0  0  0  0  0
   26.8717  -16.5118  -19.8467 C   0  0  2  0  0  0  0  0  0  0  0  0
   28.1618  -16.8994  -20.5118 C   0  0  0  0  0  0  0  0  0  0  0  0
   25.9829  -17.7132  -19.6701 C   0  0  0  0  0  0  0  0  0  0  0  0
   24.7103  -17.2940  -18.9481 C   0  0  2  0  0  0  0  0  0  0  0  0
   24.9811  -16.2718  -17.9601 N   0  0  0  0  0  0  0  0  0  0  0  0
   24.1289  -18.5088  -18.3453 C   0  0  0  0  0  0  0  0  0  0  0  0
   23.8915  -19.4793  -19.1082 O   0  0  0  0  0  0  0  0  0  0  0  0
   25.5286  -20.7751  -16.0893 C   0  0  0  0  0  0  0  0  0  0  0  0
   24.2309  -20.4305  -15.3883 C   0  0  1  0  0  0  0  0  0  0  0  0
   24.5523  -19.2680  -14.6372 O   0  0  0  0  0  0  0  0  0  0  0  0
   23.2710  -19.9016  -16.4679 C   0  0  2  0  0  0  0  0  0  0  0  0
   23.8315  -18.6249  -16.9622 N   0  0  0  0  0  0  0  0  0  0  0  0
   21.9740  -19.6444  -15.8235 C   0  0  0  0  0  0  0  0  0  0  0  0
   21.6424  -18.4226  -15.5771 O   0  0  0  0  0  0  0  0  0  0  0  0
   16.6471  -20.2725  -17.1040 N   0  0  0  0  0  0  0  0  0  0  0  0
   16.4729  -19.4363  -15.9779 C   0  0  0  0  0  0  0  0  0  0  0  0
   15.3227  -19.0915  -15.6325 O   0  0  0  0  0  0  0  0  0  0  0  0
   17.6346  -18.9766  -15.2202 C   0  0  0  0  0  0  0  0  0  0  0  0
   18.9468  -19.3223  -15.8518 C   0  0  0  0  0  0  0  0  0  0  0  0
   19.7139  -20.1906  -14.8548 C   0  0  2  0  0  0  0  0  0  0  0  0
   21.0047  -20.5830  -15.4257 N   0  0  0  0  0  0  0  0  0  0  0  0
   18.9453  -21.4332  -14.6150 C   0  0  0  0  0  0  0  0  0  0  0  0
   19.0580  -22.3902  -15.4060 O   0  0  0  0  0  0  0  0  0  0  0  0
   18.0883  -21.5760  -13.5233 O   0  0  0  0  0  0  0  0  0  0  0  0
  2  1  1  6
  2  3  1  0
  4  5  1  0
  4  2  1  0
  5  7  1  0
  5  6  1  1
  7  8  2  0
 10  9  1  6
 10 11  1  0
 10 12  1  0
 12 13  1  1
 13  7  1  0
 14 15  2  0
 14 12  1  0
 16 17  1  0
 17 18  2  0
 17 19  1  0
 19 20  1  0
 21 20  1  6
 21 22  1  0
 21 23  1  0
 22 14  1  0
 23 25  1  0
 24 23  2  0
M  END
$$$$
