LTQ.pdb
     RDKit          3D

 25 24  0  0  1  0  0  0  0  0999 V2000
   13.1058  -11.7442  -11.2899 C   0  0  0  0  0  0  0  0  0  0  0  0
   13.2009  -11.1569   -9.8882 C   0  0  2  0  0  0  0  0  0  0  0  0
   11.9222  -11.3268   -9.1180 C   0  0  0  0  0  0  0  0  0  0  0  0
   13.5370   -9.6985  -10.0451 C   0  0  0  0  0  0  0  0  0  0  0  0
   14.8684   -9.5658  -10.7706 C   0  0  2  0  0  0  0  0  0  0  0  0
   15.9165  -10.2836  -10.0774 N   0  0  0  0  0  0  0  0  0  0  0  0
   15.1634   -8.1244  -10.8833 C   0  0  0  0  0  0  0  0  0  0  0  0
   14.3630   -7.4178  -11.5469 O   0  0  0  0  0  0  0  0  0  0  0  0
   15.0279   -5.4422   -8.6988 C   0  0  0  0  0  0  0  0  0  0  0  0
   16.4668   -5.3640   -9.1651 C   0  0  1  0  0  0  0  0  0  0  0  0
   17.1507   -6.2585   -8.2985 O   0  0  0  0  0  0  0  0  0  0  0  0
   16.5298   -6.0732  -10.5289 C   0  0  2  0  0  0  0  0  0  0  0  0
   16.2951   -7.5129  -10.2831 N   0  0  0  0  0  0  0  0  0  0  0  0
   17.8870   -5.8878  -11.0651 C   0  0  0  0  0  0  0  0  0  0  0  0
   18.7444   -6.8384  -10.9075 O   0  0  0  0  0  0  0  0  0  0  0  0
   21.5210   -7.5924  -12.8242 N   0  0  0  0  0  0  0  0  0  0  0  0
   21.8108   -6.7182  -13.8963 C   0  0  0  0  0  0  0  0  0  0  0  0
   22.9642   -6.6841  -14.3755 O   0  0  0  0  0  0  0  0  0  0  0  0
   20.7644   -5.8568  -14.4425 C   0  0  0  0  0  0  0  0  0  0  0  0
   19.4916   -5.8740  -13.6551 C   0  0  0  0  0  0  0  0  0  0  0  0
   19.6335   -4.8347  -12.5434 C   0  0  2  0  0  0  0  0  0  0  0  0
   18.3992   -4.7751  -11.7565 N   0  0  0  0  0  0  0  0  0  0  0  0
   19.8253   -3.5017  -13.1587 C   0  0  0  0  0  0  0  0  0  0  0  0
   18.8348   -2.8592  -13.5589 O   0  0  0  0  0  0  0  0  0  0  0  0
   21.0889   -2.9296  -13.3097 O   0  0  0  0  0  0  0  0  0  0  0  0
  2  1  1  6
  2  3  1  0
  4  5  1  0
  4  2  1  0
  5  7  1  0
  5  6  1  1
  7  8  2  0
 10  9  1  1
 10 11  1  0
 10 12  1  0
 12 13  1  1
 13  7  1  0
 14 15  2  0
 14 12  1  0
 16 17  1  0
 17 18  2  0
 17 19  1  0
 19 20  1  0
 21 20  1  6
 21 22  1  0
 21 23  1  0
 22 14  1  0
 23 25  1  0
 24 23  2  0
M  END
$$$$
