LTQ.pdb
     RDKit          3D

 25 24  0  0  1  0  0  0  0  0999 V2000
   43.9182  -16.4953  -10.4238 C   0  0  0  0  0  0  0  0  0  0  0  0
   43.4467  -17.1388   -9.1268 C   0  0  2  0  0  0  0  0  0  0  0  0
   42.3065  -18.0908   -9.3519 C   0  0  0  0  0  0  0  0  0  0  0  0
   43.0327  -16.0217   -8.2075 C   0  0  0  0  0  0  0  0  0  0  0  0
   44.2356  -15.1334   -7.9240 C   0  0  2  0  0  0  0  0  0  0  0  0
   45.2782  -15.8666   -7.2386 N   0  0  0  0  0  0  0  0  0  0  0  0
   43.7540  -13.9838   -7.1343 C   0  0  0  0  0  0  0  0  0  0  0  0
   43.3373  -14.2122   -5.9705 O   0  0  0  0  0  0  0  0  0  0  0  0
   45.1347  -11.8722   -5.3290 C   0  0  0  0  0  0  0  0  0  0  0  0
   44.3536  -10.8458   -6.1232 C   0  0  1  0  0  0  0  0  0  0  0  0
   45.2014  -10.5573   -7.2263 O   0  0  0  0  0  0  0  0  0  0  0  0
   43.1722  -11.5905   -6.7686 C   0  0  2  0  0  0  0  0  0  0  0  0
   43.7422  -12.6523   -7.6263 N   0  0  0  0  0  0  0  0  0  0  0  0
   42.4440  -10.6272   -7.6088 C   0  0  0  0  0  0  0  0  0  0  0  0
   42.0098  -11.0204   -8.7579 O   0  0  0  0  0  0  0  0  0  0  0  0
   37.2370  -10.1652   -6.1754 N   0  0  0  0  0  0  0  0  0  0  0  0
   37.2242   -9.1134   -7.1194 C   0  0  0  0  0  0  0  0  0  0  0  0
   36.1356   -8.6253   -7.4906 O   0  0  0  0  0  0  0  0  0  0  0  0
   38.4805   -8.5985   -7.6595 C   0  0  0  0  0  0  0  0  0  0  0  0
   39.6949   -9.3207   -7.1655 C   0  0  0  0  0  0  0  0  0  0  0  0
   40.9122   -8.6355   -7.7860 C   0  0  2  0  0  0  0  0  0  0  0  0
   42.1404   -9.2844   -7.3204 N   0  0  0  0  0  0  0  0  0  0  0  0
   40.9564   -7.2303   -7.3217 C   0  0  0  0  0  0  0  0  0  0  0  0
   41.5882   -6.9427   -6.2862 O   0  0  0  0  0  0  0  0  0  0  0  0
   40.3093   -6.2020   -8.0078 O   0  0  0  0  0  0  0  0  0  0  0  0
  2  1  1  6
  2  3  1  0
  4  5  1  0
  4  2  1  0
  5  7  1  0
  5  6  1  1
  7  8  2  0
 10  9  1  1
 10 11  1  0
 10 12  1  0
 12 13  1  6
 13  7  1  0
 14 15  2  0
 14 12  1  0
 16 17  1  0
 17 18  2  0
 17 19  1  0
 19 20  1  0
 21 20  1  1
 21 22  1  0
 21 23  1  0
 22 14  1  0
 23 25  1  0
 24 23  2  0
M  END
$$$$
