LTQ.pdb
     RDKit          3D

 25 24  0  0  1  0  0  0  0  0999 V2000
   24.7990  -14.4452  -19.1902 C   0  0  0  0  0  0  0  0  0  0  0  0
   24.9994  -13.9181  -17.7757 C   0  0  2  0  0  0  0  0  0  0  0  0
   25.1826  -15.0289  -16.7810 C   0  0  0  0  0  0  0  0  0  0  0  0
   23.7850  -13.0965  -17.4372 C   0  0  0  0  0  0  0  0  0  0  0  0
   24.2284  -11.7666  -16.8442 C   0  0  2  0  0  0  0  0  0  0  0  0
   24.6859  -11.9277  -15.4807 N   0  0  0  0  0  0  0  0  0  0  0  0
   23.0830  -10.8414  -16.9399 C   0  0  0  0  0  0  0  0  0  0  0  0
   22.6645  -10.5519  -18.0894 O   0  0  0  0  0  0  0  0  0  0  0  0
   19.6656  -11.1788  -16.1267 C   0  0  0  0  0  0  0  0  0  0  0  0
   20.0860   -9.9726  -15.3127 C   0  0  1  0  0  0  0  0  0  0  0  0
   20.6465  -10.5391  -14.1363 O   0  0  0  0  0  0  0  0  0  0  0  0
   21.3032   -9.3590  -16.0260 C   0  0  2  0  0  0  0  0  0  0  0  0
   22.4445  -10.2740  -15.8061 N   0  0  0  0  0  0  0  0  0  0  0  0
   21.5887   -8.0654  -15.3866 C   0  0  0  0  0  0  0  0  0  0  0  0
   22.5548   -8.0018  -14.5345 O   0  0  0  0  0  0  0  0  0  0  0  0
   22.5668   -2.3436  -17.3888 N   0  0  0  0  0  0  0  0  0  0  0  0
   22.5067   -2.1926  -15.9848 C   0  0  0  0  0  0  0  0  0  0  0  0
   22.7747   -1.0876  -15.4670 O   0  0  0  0  0  0  0  0  0  0  0  0
   22.1321   -3.3257  -15.1416 C   0  0  0  0  0  0  0  0  0  0  0  0
   21.7826   -4.5631  -15.9077 C   0  0  0  0  0  0  0  0  0  0  0  0
   21.3248   -5.6097  -14.8921 C   0  0  2  0  0  0  0  0  0  0  0  0
   20.9306   -6.8382  -15.5859 N   0  0  0  0  0  0  0  0  0  0  0  0
   20.1255   -5.0995  -14.1895 C   0  0  0  0  0  0  0  0  0  0  0  0
   18.9946   -5.3032  -14.6729 O   0  0  0  0  0  0  0  0  0  0  0  0
   20.2138   -4.3900  -12.9914 O   0  0  0  0  0  0  0  0  0  0  0  0
  2  1  1  6
  2  3  1  0
  4  5  1  0
  4  2  1  0
  5  7  1  0
  5  6  1  1
  7  8  2  0
 10  9  1  6
 10 11  1  0
 10 12  1  0
 12 13  1  1
 13  7  1  0
 14 15  2  0
 14 12  1  0
 16 17  1  0
 17 18  2  0
 17 19  1  0
 19 20  1  0
 21 20  1  6
 21 22  1  0
 21 23  1  0
 22 14  1  0
 23 25  1  0
 24 23  2  0
M  END
$$$$
