LTQ.pdb
     RDKit          3D

 25 24  0  0  1  0  0  0  0  0999 V2000
   15.6274  -11.1846  -18.0404 C   0  0  0  0  0  0  0  0  0  0  0  0
   16.5501   -9.9735  -18.0618 C   0  0  2  0  0  0  0  0  0  0  0  0
   17.5752  -10.0651  -19.1562 C   0  0  0  0  0  0  0  0  0  0  0  0
   17.2161   -9.9050  -16.7142 C   0  0  0  0  0  0  0  0  0  0  0  0
   18.2873  -10.9829  -16.6286 C   0  0  2  0  0  0  0  0  0  0  0  0
   17.7141  -12.2641  -16.2760 N   0  0  0  0  0  0  0  0  0  0  0  0
   19.2854  -10.5303  -15.6406 C   0  0  0  0  0  0  0  0  0  0  0  0
   18.9615  -10.5719  -14.4267 O   0  0  0  0  0  0  0  0  0  0  0  0
   22.3587  -11.8343  -14.6643 C   0  0  0  0  0  0  0  0  0  0  0  0
   22.7542  -10.4079  -14.9856 C   0  0  1  0  0  0  0  0  0  0  0  0
   23.0559  -10.4467  -16.3735 O   0  0  0  0  0  0  0  0  0  0  0  0
   21.4673   -9.5670  -14.9254 C   0  0  2  0  0  0  0  0  0  0  0  0
   20.5752  -10.0576  -15.9985 N   0  0  0  0  0  0  0  0  0  0  0  0
   21.8350   -8.1697  -15.2014 C   0  0  0  0  0  0  0  0  0  0  0  0
   21.4809   -7.6531  -16.3289 O   0  0  0  0  0  0  0  0  0  0  0  0
   19.6709   -4.1833  -17.2467 N   0  0  0  0  0  0  0  0  0  0  0  0
   20.7088   -3.3724  -16.7341 C   0  0  0  0  0  0  0  0  0  0  0  0
   20.7420   -2.1552  -17.0144 O   0  0  0  0  0  0  0  0  0  0  0  0
   21.7399   -3.9560  -15.8789 C   0  0  0  0  0  0  0  0  0  0  0  0
   21.5671   -5.4225  -15.6343 C   0  0  0  0  0  0  0  0  0  0  0  0
   22.6747   -5.8543  -14.6735 C   0  0  2  0  0  0  0  0  0  0  0  0
   22.5443   -7.2821  -14.3722 N   0  0  0  0  0  0  0  0  0  0  0  0
   22.5116   -5.1210  -13.3976 C   0  0  0  0  0  0  0  0  0  0  0  0
   21.9202   -5.6655  -12.4448 O   0  0  0  0  0  0  0  0  0  0  0  0
   23.0008   -3.8266  -13.2186 O   0  0  0  0  0  0  0  0  0  0  0  0
  2  1  1  1
  2  3  1  0
  4  5  1  0
  4  2  1  0
  5  7  1  0
  5  6  1  1
  7  8  2  0
 10  9  1  6
 10 11  1  0
 10 12  1  0
 12 13  1  6
 13  7  1  0
 14 15  2  0
 14 12  1  0
 16 17  1  0
 17 18  2  0
 17 19  1  0
 19 20  1  0
 21 20  1  6
 21 22  1  0
 21 23  1  0
 22 14  1  0
 23 25  1  0
 24 23  2  0
M  END
$$$$
