LTQ.pdb
     RDKit          3D

 25 24  0  0  1  0  0  0  0  0999 V2000
   26.2680  -16.1070  -14.2292 C   0  0  0  0  0  0  0  0  0  0  0  0
   26.3556  -16.8782  -15.5393 C   0  0  2  0  0  0  0  0  0  0  0  0
   27.6467  -16.6171  -16.2618 C   0  0  0  0  0  0  0  0  0  0  0  0
   25.1814  -16.4525  -16.3787 C   0  0  0  0  0  0  0  0  0  0  0  0
   23.8913  -16.8052  -15.6522 C   0  0  2  0  0  0  0  0  0  0  0  0
   23.7697  -18.2350  -15.4647 N   0  0  0  0  0  0  0  0  0  0  0  0
   22.7771  -16.2525  -16.4461 C   0  0  0  0  0  0  0  0  0  0  0  0
   22.4280  -16.8840  -17.4755 O   0  0  0  0  0  0  0  0  0  0  0  0
   19.6993  -16.6968  -16.2382 C   0  0  0  0  0  0  0  0  0  0  0  0
   19.6696  -15.1854  -16.1430 C   0  0  1  0  0  0  0  0  0  0  0  0
   19.9828  -14.9276  -14.7812 O   0  0  0  0  0  0  0  0  0  0  0  0
   20.9082  -14.6697  -16.8959 C   0  0  2  0  0  0  0  0  0  0  0  0
   22.0942  -15.0568  -16.1011 N   0  0  0  0  0  0  0  0  0  0  0  0
   20.8181  -13.2024  -16.9492 C   0  0  0  0  0  0  0  0  0  0  0  0
   21.3383  -12.5201  -15.9862 O   0  0  0  0  0  0  0  0  0  0  0  0
   19.1596   -8.9568  -21.5607 N   0  0  0  0  0  0  0  0  0  0  0  0
   19.4567   -8.2114  -20.3972 C   0  0  0  0  0  0  0  0  0  0  0  0
   19.3565   -6.9661  -20.4150 O   0  0  0  0  0  0  0  0  0  0  0  0
   19.8797   -8.8954  -19.1772 C   0  0  0  0  0  0  0  0  0  0  0  0
   19.9044  -10.3873  -19.2952 C   0  0  0  0  0  0  0  0  0  0  0  0
   20.2654  -10.9440  -17.9181 C   0  0  2  0  0  0  0  0  0  0  0  0
   20.2227  -12.4081  -17.9457 N   0  0  0  0  0  0  0  0  0  0  0  0
   19.2482  -10.4946  -16.9407 C   0  0  0  0  0  0  0  0  0  0  0  0
   18.1930  -11.1447  -16.8061 O   0  0  0  0  0  0  0  0  0  0  0  0
   19.4277   -9.3563  -16.1541 O   0  0  0  0  0  0  0  0  0  0  0  0
  2  1  1  1
  2  3  1  0
  4  5  1  0
  4  2  1  0
  5  7  1  0
  5  6  1  6
  7  8  2  0
 10  9  1  1
 10 11  1  0
 10 12  1  0
 12 13  1  1
 13  7  1  0
 14 15  2  0
 14 12  1  0
 16 17  1  0
 17 18  2  0
 17 19  1  0
 19 20  1  0
 21 20  1  6
 21 22  1  0
 21 23  1  0
 22 14  1  0
 23 25  1  0
 24 23  2  0
M  END
$$$$
