LTQ.pdb
     RDKit          3D

 25 24  0  0  1  0  0  0  0  0999 V2000
   20.3780  -15.1264  -18.8844 C   0  0  0  0  0  0  0  0  0  0  0  0
   19.6941  -14.2369  -19.9139 C   0  0  2  0  0  0  0  0  0  0  0  0
   19.7120  -14.8469  -21.2866 C   0  0  0  0  0  0  0  0  0  0  0  0
   20.4214  -12.9195  -19.9083 C   0  0  0  0  0  0  0  0  0  0  0  0
   19.9075  -12.0676  -18.7564 C   0  0  2  0  0  0  0  0  0  0  0  0
   18.4940  -12.2847  -18.5343 N   0  0  0  0  0  0  0  0  0  0  0  0
   20.2084  -10.6609  -19.0845 C   0  0  0  0  0  0  0  0  0  0  0  0
   21.4037  -10.3666  -19.3391 O   0  0  0  0  0  0  0  0  0  0  0  0
   18.6986   -8.6173  -21.7271 C   0  0  0  0  0  0  0  0  0  0  0  0
   18.6040   -7.7375  -20.4978 C   0  0  1  0  0  0  0  0  0  0  0  0
   17.3598   -8.1032  -19.9170 O   0  0  0  0  0  0  0  0  0  0  0  0
   19.6367   -8.2715  -19.4903 C   0  0  2  0  0  0  0  0  0  0  0  0
   19.2200   -9.6428  -19.1240 N   0  0  0  0  0  0  0  0  0  0  0  0
   19.5805   -7.4128  -18.2973 C   0  0  0  0  0  0  0  0  0  0  0  0
   19.1158   -7.9122  -17.2027 O   0  0  0  0  0  0  0  0  0  0  0  0
   23.4141   -5.6026  -14.4174 N   0  0  0  0  0  0  0  0  0  0  0  0
   22.3019   -4.8277  -14.0171 C   0  0  0  0  0  0  0  0  0  0  0  0
   22.3390   -4.1995  -12.9377 O   0  0  0  0  0  0  0  0  0  0  0  0
   21.1125   -4.7617  -14.8632 C   0  0  0  0  0  0  0  0  0  0  0  0
   21.2339   -5.5298  -16.1421 C   0  0  0  0  0  0  0  0  0  0  0  0
   19.9264   -5.3387  -16.9103 C   0  0  2  0  0  0  0  0  0  0  0  0
   19.9822   -6.0699  -18.1786 N   0  0  0  0  0  0  0  0  0  0  0  0
   19.7720   -3.9033  -17.2389 C   0  0  0  0  0  0  0  0  0  0  0  0
   20.0182   -3.5055  -18.3944 O   0  0  0  0  0  0  0  0  0  0  0  0
   19.3560   -2.9665  -16.2923 O   0  0  0  0  0  0  0  0  0  0  0  0
  2  1  1  1
  2  3  1  0
  4  5  1  0
  4  2  1  0
  5  7  1  0
  5  6  1  6
  7  8  2  0
 10  9  1  6
 10 11  1  0
 10 12  1  0
 12 13  1  1
 13  7  1  0
 14 15  2  0
 14 12  1  0
 16 17  1  0
 17 18  2  0
 17 19  1  0
 19 20  1  0
 21 20  1  6
 21 22  1  0
 21 23  1  0
 22 14  1  0
 23 25  1  0
 24 23  2  0
M  END
$$$$
