LTQ.pdb
     RDKit          3D

 25 24  0  0  1  0  0  0  0  0999 V2000
   27.7248  -18.6820   -4.6599 C   0  0  0  0  0  0  0  0  0  0  0  0
   28.1944  -20.0226   -5.2083 C   0  0  2  0  0  0  0  0  0  0  0  0
   29.6311  -20.2991   -4.8670 C   0  0  0  0  0  0  0  0  0  0  0  0
   28.0015  -19.9787   -6.7000 C   0  0  0  0  0  0  0  0  0  0  0  0
   26.5226  -19.7952   -7.0095 C   0  0  2  0  0  0  0  0  0  0  0  0
   25.7316  -20.8646   -6.4395 N   0  0  0  0  0  0  0  0  0  0  0  0
   26.3881  -19.7265   -8.4773 C   0  0  0  0  0  0  0  0  0  0  0  0
   27.1473  -18.9369   -9.0940 O   0  0  0  0  0  0  0  0  0  0  0  0
   27.5547  -21.5275  -10.8150 C   0  0  0  0  0  0  0  0  0  0  0  0
   26.1152  -21.5775  -11.2838 C   0  0  1  0  0  0  0  0  0  0  0  0
   25.5616  -22.6648  -10.5557 O   0  0  0  0  0  0  0  0  0  0  0  0
   25.4099  -20.3505  -10.6805 C   0  0  2  0  0  0  0  0  0  0  0  0
   25.4520  -20.5027   -9.2097 N   0  0  0  0  0  0  0  0  0  0  0  0
   24.0097  -20.3756  -11.1307 C   0  0  0  0  0  0  0  0  0  0  0  0
   23.1083  -20.7957  -10.3094 O   0  0  0  0  0  0  0  0  0  0  0  0
   24.4190  -18.4560  -16.0445 N   0  0  0  0  0  0  0  0  0  0  0  0
   23.0981  -18.1065  -15.6828 C   0  0  0  0  0  0  0  0  0  0  0  0
   22.3313  -17.6106  -16.5355 O   0  0  0  0  0  0  0  0  0  0  0  0
   22.6309  -18.3248  -14.3156 C   0  0  0  0  0  0  0  0  0  0  0  0
   21.8371  -19.5813  -14.1387 C   0  0  0  0  0  0  0  0  0  0  0  0
   22.0703  -20.0659  -12.7079 C   0  0  2  0  0  0  0  0  0  0  0  0
   23.4962  -19.9863  -12.3810 N   0  0  0  0  0  0  0  0  0  0  0  0
   21.6793  -21.4910  -12.6176 C   0  0  0  0  0  0  0  0  0  0  0  0
   22.4897  -22.3754  -12.9572 O   0  0  0  0  0  0  0  0  0  0  0  0
   20.4218  -21.8874  -12.1610 O   0  0  0  0  0  0  0  0  0  0  0  0
  2  1  1  1
  2  3  1  0
  4  5  1  0
  4  2  1  0
  5  7  1  0
  5  6  1  6
  7  8  2  0
 10  9  1  1
 10 11  1  0
 10 12  1  0
 12 13  1  1
 13  7  1  0
 14 15  2  0
 14 12  1  0
 16 17  1  0
 17 18  2  0
 17 19  1  0
 19 20  1  0
 21 20  1  6
 21 22  1  0
 21 23  1  0
 22 14  1  0
 23 25  1  0
 24 23  2  0
M  END
$$$$
