MMD.pdb
     RDKit          3D

 25 24  0  0  1  0  0  0  0  0999 V2000
   18.7912  -23.0743  -10.1446 C   0  0  0  0  0  0  0  0  0  0  0  0
   18.0487  -22.1629  -11.4952 S   0  0  0  0  0  0  0  0  0  0  0  0
   19.1897  -21.9065  -12.8730 C   0  0  0  0  0  0  0  0  0  0  0  0
   20.4001  -21.1764  -12.3704 C   0  0  0  0  0  0  0  0  0  0  0  0
   21.4155  -20.9010  -13.4457 C   0  0  2  0  0  0  0  0  0  0  0  0
   21.6774  -22.1068  -14.1809 N   0  0  0  0  0  0  0  0  0  0  0  0
   22.6537  -20.4087  -12.7461 C   0  0  0  0  0  0  0  0  0  0  0  0
   22.7296  -19.2065  -12.3870 O   0  0  0  0  0  0  0  0  0  0  0  0
   27.5851  -19.9237   -7.2569 C   0  0  0  0  0  0  0  0  0  0  0  0
   26.1473  -20.5024   -8.1646 S   0  0  0  0  0  0  0  0  0  0  0  0
   26.5162  -20.7070   -9.9629 C   0  0  0  0  0  0  0  0  0  0  0  0
   25.2321  -21.0568  -10.6051 C   0  0  0  0  0  0  0  0  0  0  0  0
   25.0579  -20.7480  -12.0465 C   0  0  2  0  0  0  0  0  0  0  0  0
   23.7428  -21.2819  -12.4835 N   0  0  0  0  0  0  0  0  0  0  0  0
   26.0657  -21.2920  -12.9677 C   0  0  0  0  0  0  0  0  0  0  0  0
   26.0992  -22.5717  -13.0983 O   0  0  0  0  0  0  0  0  0  0  0  0
   26.9950  -20.5361  -13.7239 N   0  0  0  0  0  0  0  0  0  0  0  0
   27.0176  -20.5128  -15.1741 C   0  0  1  0  0  0  0  0  0  0  0  0
   25.6541  -20.3076  -15.7589 C   0  0  0  0  0  0  0  0  0  0  0  0
   25.7199  -20.4072  -17.2285 C   0  0  0  0  0  0  0  0  0  0  0  0
   26.7724  -20.8395  -17.7646 O   0  0  0  0  0  0  0  0  0  0  0  0
   27.8859  -19.4099  -15.6158 C   0  0  0  0  0  0  0  0  0  0  0  0
   27.5814  -18.1891  -15.5223 O   0  0  0  0  0  0  0  0  0  0  0  0
   24.6917  -20.0539  -18.0886 O   0  0  0  0  0  0  0  0  0  0  0  0
   29.1204  -19.7091  -16.1723 O   0  0  0  0  0  0  0  0  0  0  0  0
  1  2  1  0
  3  2  1  0
  4  3  1  0
  5  6  1  1
  5  4  1  0
  7  5  1  0
  8  7  2  0
 10  9  1  0
 10 11  1  0
 13 12  1  1
 12 11  1  0
 13 14  1  0
 14  7  1  0
 15 17  1  0
 15 13  1  0
 16 15  2  0
 18 19  1  6
 18 22  1  0
 18 17  1  0
 20 24  1  0
 20 19  1  0
 21 20  2  0
 22 25  1  0
 23 22  2  0
M  END
$$$$
