MMD.pdb
     RDKit          3D

 25 24  0  0  1  0  0  0  0  0999 V2000
   16.2890   -7.5787  -20.9577 C   0  0  0  0  0  0  0  0  0  0  0  0
   17.4621   -8.5468  -21.9026 S   0  0  0  0  0  0  0  0  0  0  0  0
   18.4678   -9.6307  -20.8635 C   0  0  0  0  0  0  0  0  0  0  0  0
   18.4796   -9.0874  -19.4652 C   0  0  0  0  0  0  0  0  0  0  0  0
   19.3768   -9.8592  -18.5366 C   0  0  2  0  0  0  0  0  0  0  0  0
   18.8435  -11.1779  -18.3371 N   0  0  0  0  0  0  0  0  0  0  0  0
   19.4192   -9.0868  -17.2455 C   0  0  0  0  0  0  0  0  0  0  0  0
   18.4799   -9.2043  -16.4186 O   0  0  0  0  0  0  0  0  0  0  0  0
   22.7541   -9.8693  -12.7630 C   0  0  0  0  0  0  0  0  0  0  0  0
   21.9474   -8.3160  -12.3601 S   0  0  0  0  0  0  0  0  0  0  0  0
   22.1377   -7.0792  -13.7187 C   0  0  0  0  0  0  0  0  0  0  0  0
   21.8178   -7.7965  -14.9705 C   0  0  0  0  0  0  0  0  0  0  0  0
   20.5470   -7.4702  -15.6645 C   0  0  2  0  0  0  0  0  0  0  0  0
   20.5061   -8.2236  -16.9437 N   0  0  0  0  0  0  0  0  0  0  0  0
   20.3159   -6.0569  -15.9953 C   0  0  0  0  0  0  0  0  0  0  0  0
   20.9966   -5.5731  -16.9742 O   0  0  0  0  0  0  0  0  0  0  0  0
   19.4116   -5.1865  -15.3384 N   0  0  0  0  0  0  0  0  0  0  0  0
   19.2062   -3.8037  -15.7251 C   0  0  1  0  0  0  0  0  0  0  0  0
   17.9907   -3.2101  -15.0822 C   0  0  0  0  0  0  0  0  0  0  0  0
   17.8375   -1.8053  -15.5032 C   0  0  0  0  0  0  0  0  0  0  0  0
   18.0430   -0.8908  -14.6645 O   0  0  0  0  0  0  0  0  0  0  0  0
   20.3815   -3.0186  -15.3157 C   0  0  0  0  0  0  0  0  0  0  0  0
   20.9885   -3.1729  -14.2204 O   0  0  0  0  0  0  0  0  0  0  0  0
   17.4760   -1.4005  -16.7788 O   0  0  0  0  0  0  0  0  0  0  0  0
   20.8688   -2.0431  -16.1725 O   0  0  0  0  0  0  0  0  0  0  0  0
  1  2  1  0
  3  2  1  0
  4  3  1  0
  5  6  1  1
  5  4  1  0
  7  5  1  0
  8  7  2  0
 10  9  1  0
 10 11  1  0
 13 12  1  6
 12 11  1  0
 13 14  1  0
 14  7  1  0
 15 17  1  0
 15 13  1  0
 16 15  2  0
 18 19  1  1
 18 22  1  0
 18 17  1  0
 20 24  1  0
 20 19  1  0
 21 20  2  0
 22 25  1  0
 23 22  2  0
M  END
$$$$
