MMD.pdb
     RDKit          3D

 25 24  0  0  1  0  0  0  0  0999 V2000
   27.9787  -17.3027  -18.5712 C   0  0  0  0  0  0  0  0  0  0  0  0
   27.6155  -15.7143  -17.8288 S   0  0  0  0  0  0  0  0  0  0  0  0
   27.6154  -15.7733  -16.0226 C   0  0  0  0  0  0  0  0  0  0  0  0
   27.4368  -17.1968  -15.5841 C   0  0  0  0  0  0  0  0  0  0  0  0
   26.0016  -17.5592  -15.3158 C   0  0  2  0  0  0  0  0  0  0  0  0
   25.4698  -16.6979  -14.2968 N   0  0  0  0  0  0  0  0  0  0  0  0
   26.0015  -18.9967  -14.8700 C   0  0  0  0  0  0  0  0  0  0  0  0
   26.3180  -19.9009  -15.6837 O   0  0  0  0  0  0  0  0  0  0  0  0
   26.7805  -21.3428   -8.9875 C   0  0  0  0  0  0  0  0  0  0  0  0
   28.2003  -21.0291  -10.0418 S   0  0  0  0  0  0  0  0  0  0  0  0
   27.7085  -20.8743  -11.8155 C   0  0  0  0  0  0  0  0  0  0  0  0
   26.2328  -20.9491  -11.8372 C   0  0  0  0  0  0  0  0  0  0  0  0
   25.5375  -20.7762  -13.1371 C   0  0  2  0  0  0  0  0  0  0  0  0
   25.6483  -19.3512  -13.5407 N   0  0  0  0  0  0  0  0  0  0  0  0
   24.1090  -21.1198  -13.1760 C   0  0  0  0  0  0  0  0  0  0  0  0
   23.7961  -22.3287  -12.8656 O   0  0  0  0  0  0  0  0  0  0  0  0
   23.0517  -20.2413  -13.5186 N   0  0  0  0  0  0  0  0  0  0  0  0
   21.6571  -20.6391  -13.5486 C   0  0  1  0  0  0  0  0  0  0  0  0
   20.8222  -19.8509  -12.5868 C   0  0  0  0  0  0  0  0  0  0  0  0
   19.4125  -20.2712  -12.6869 C   0  0  0  0  0  0  0  0  0  0  0  0
   19.1443  -21.4986  -12.7467 O   0  0  0  0  0  0  0  0  0  0  0  0
   21.1331  -20.4242  -14.9067 C   0  0  0  0  0  0  0  0  0  0  0  0
   21.5633  -19.5418  -15.6992 O   0  0  0  0  0  0  0  0  0  0  0  0
   18.3324  -19.4030  -12.7221 O   0  0  0  0  0  0  0  0  0  0  0  0
   20.1021  -21.2311  -15.3639 O   0  0  0  0  0  0  0  0  0  0  0  0
  1  2  1  0
  3  2  1  0
  4  3  1  0
  5  6  1  1
  5  4  1  0
  7  5  1  0
  8  7  2  0
 10  9  1  0
 10 11  1  0
 13 12  1  1
 12 11  1  0
 13 14  1  0
 14  7  1  0
 15 17  1  0
 15 13  1  0
 16 15  2  0
 18 19  1  1
 18 22  1  0
 18 17  1  0
 20 24  1  0
 20 19  1  0
 21 20  2  0
 22 25  1  0
 23 22  2  0
M  END
$$$$
