MMD.pdb
     RDKit          3D

 25 24  0  0  1  0  0  0  0  0999 V2000
   25.8644  -16.9093  -16.5999 C   0  0  0  0  0  0  0  0  0  0  0  0
   27.3013  -17.4012  -17.5484 S   0  0  0  0  0  0  0  0  0  0  0  0
   28.2882  -18.6640  -16.7135 C   0  0  0  0  0  0  0  0  0  0  0  0
   27.3896  -19.4723  -15.8247 C   0  0  0  0  0  0  0  0  0  0  0  0
   28.1361  -20.4471  -14.9554 C   0  0  2  0  0  0  0  0  0  0  0  0
   28.7194  -21.4734  -15.7736 N   0  0  0  0  0  0  0  0  0  0  0  0
   27.1280  -21.0210  -13.9965 C   0  0  0  0  0  0  0  0  0  0  0  0
   26.5336  -22.0905  -14.2843 O   0  0  0  0  0  0  0  0  0  0  0  0
   27.9354  -20.6101   -7.7393 C   0  0  0  0  0  0  0  0  0  0  0  0
   26.1893  -20.1921   -7.7876 S   0  0  0  0  0  0  0  0  0  0  0  0
   25.3730  -20.8582   -9.3048 C   0  0  0  0  0  0  0  0  0  0  0  0
   26.2616  -20.5085  -10.4325 C   0  0  0  0  0  0  0  0  0  0  0  0
   25.8956  -20.9817  -11.7909 C   0  0  2  0  0  0  0  0  0  0  0  0
   26.8350  -20.3730  -12.7670 N   0  0  0  0  0  0  0  0  0  0  0  0
   24.5368  -20.6714  -12.2575 C   0  0  0  0  0  0  0  0  0  0  0  0
   24.2773  -19.4350  -12.5021 O   0  0  0  0  0  0  0  0  0  0  0  0
   23.4948  -21.6084  -12.4649 N   0  0  0  0  0  0  0  0  0  0  0  0
   22.1767  -21.2469  -12.9506 C   0  0  1  0  0  0  0  0  0  0  0  0
   21.3512  -22.4477  -13.2965 C   0  0  0  0  0  0  0  0  0  0  0  0
   20.5568  -22.1765  -14.5087 C   0  0  0  0  0  0  0  0  0  0  0  0
   20.5610  -21.0163  -14.9943 O   0  0  0  0  0  0  0  0  0  0  0  0
   21.4785  -20.4865  -11.9020 C   0  0  0  0  0  0  0  0  0  0  0  0
   21.6301  -20.6843  -10.6652 O   0  0  0  0  0  0  0  0  0  0  0  0
   19.7864  -23.1186  -15.1726 O   0  0  0  0  0  0  0  0  0  0  0  0
   20.5943  -19.4853  -12.2748 O   0  0  0  0  0  0  0  0  0  0  0  0
  1  2  1  0
  3  2  1  0
  4  3  1  0
  5  6  1  6
  5  4  1  0
  7  5  1  0
  8  7  2  0
 10  9  1  0
 10 11  1  0
 13 12  1  1
 12 11  1  0
 13 14  1  0
 14  7  1  0
 15 17  1  0
 15 13  1  0
 16 15  2  0
 18 19  1  1
 18 22  1  0
 18 17  1  0
 20 24  1  0
 20 19  1  0
 21 20  2  0
 22 25  1  0
 23 22  2  0
M  END
$$$$
