MMD.pdb
     RDKit          3D

 25 24  0  0  1  0  0  0  0  0999 V2000
   21.9001  -13.0611  -21.5623 C   0  0  0  0  0  0  0  0  0  0  0  0
   22.1023  -12.5485  -19.8587 S   0  0  0  0  0  0  0  0  0  0  0  0
   20.6329  -11.7295  -19.1986 C   0  0  0  0  0  0  0  0  0  0  0  0
   20.9340  -11.2353  -17.8144 C   0  0  0  0  0  0  0  0  0  0  0  0
   20.9922   -9.7351  -17.7197 C   0  0  2  0  0  0  0  0  0  0  0  0
   22.3552   -9.2976  -17.8372 N   0  0  0  0  0  0  0  0  0  0  0  0
   20.4158   -9.3704  -16.3781 C   0  0  0  0  0  0  0  0  0  0  0  0
   19.2279   -9.6783  -16.1063 O   0  0  0  0  0  0  0  0  0  0  0  0
   23.4850  -10.5103  -11.6139 C   0  0  0  0  0  0  0  0  0  0  0  0
   22.2044   -9.7532  -10.6074 S   0  0  0  0  0  0  0  0  0  0  0  0
   21.0904   -8.6815  -11.6186 C   0  0  0  0  0  0  0  0  0  0  0  0
   21.4433   -8.9436  -13.0295 C   0  0  0  0  0  0  0  0  0  0  0  0
   20.6170   -8.3158  -14.0907 C   0  0  2  0  0  0  0  0  0  0  0  0
   21.1935   -8.6812  -15.4097 N   0  0  0  0  0  0  0  0  0  0  0  0
   20.5069   -6.8503  -14.0656 C   0  0  0  0  0  0  0  0  0  0  0  0
   19.7975   -6.3396  -13.1213 O   0  0  0  0  0  0  0  0  0  0  0  0
   21.1131   -5.9553  -14.9811 N   0  0  0  0  0  0  0  0  0  0  0  0
   20.8063   -4.5388  -15.0395 C   0  0  1  0  0  0  0  0  0  0  0  0
   19.4320   -4.2351  -14.5274 C   0  0  0  0  0  0  0  0  0  0  0  0
   19.1367   -2.8016  -14.7068 C   0  0  0  0  0  0  0  0  0  0  0  0
   19.9610   -2.0815  -15.3265 O   0  0  0  0  0  0  0  0  0  0  0  0
   21.7833   -3.8089  -14.2161 C   0  0  0  0  0  0  0  0  0  0  0  0
   21.9296   -2.5560  -14.2365 O   0  0  0  0  0  0  0  0  0  0  0  0
   17.9974   -2.1674  -14.2362 O   0  0  0  0  0  0  0  0  0  0  0  0
   22.6044   -4.5238  -13.3571 O   0  0  0  0  0  0  0  0  0  0  0  0
  1  2  1  0
  3  2  1  0
  4  3  1  0
  5  6  1  1
  5  4  1  0
  7  5  1  0
  8  7  2  0
 10  9  1  0
 10 11  1  0
 13 12  1  1
 12 11  1  0
 13 14  1  0
 14  7  1  0
 15 17  1  0
 15 13  1  0
 16 15  2  0
 18 19  1  1
 18 22  1  0
 18 17  1  0
 20 24  1  0
 20 19  1  0
 21 20  2  0
 22 25  1  0
 23 22  2  0
M  END
$$$$
