MMD.pdb
     RDKit          3D

 25 24  0  0  1  0  0  0  0  0999 V2000
   22.6155   -6.9109  -20.7063 C   0  0  0  0  0  0  0  0  0  0  0  0
   21.8753   -8.0924  -21.8298 S   0  0  0  0  0  0  0  0  0  0  0  0
   22.2043   -9.8050  -21.3559 C   0  0  0  0  0  0  0  0  0  0  0  0
   21.9599   -9.9559  -19.8834 C   0  0  0  0  0  0  0  0  0  0  0  0
   22.3221  -11.3185  -19.3587 C   0  0  2  0  0  0  0  0  0  0  0  0
   21.6372  -12.3255  -20.1202 N   0  0  0  0  0  0  0  0  0  0  0  0
   21.8994  -11.3449  -17.9145 C   0  0  0  0  0  0  0  0  0  0  0  0
   20.7053  -11.6042  -17.6199 O   0  0  0  0  0  0  0  0  0  0  0  0
   25.9478  -15.4879  -15.1301 C   0  0  0  0  0  0  0  0  0  0  0  0
   25.4790  -13.8255  -14.6373 S   0  0  0  0  0  0  0  0  0  0  0  0
   23.7560  -13.4208  -15.1656 C   0  0  0  0  0  0  0  0  0  0  0  0
   23.5272  -12.0160  -14.7681 C   0  0  0  0  0  0  0  0  0  0  0  0
   22.4485  -11.2576  -15.4496 C   0  0  2  0  0  0  0  0  0  0  0  0
   22.8296  -11.0807  -16.8741 N   0  0  0  0  0  0  0  0  0  0  0  0
   22.1424   -9.9205  -14.9216 C   0  0  0  0  0  0  0  0  0  0  0  0
   21.7124   -9.8614  -13.7103 O   0  0  0  0  0  0  0  0  0  0  0  0
   22.2828   -8.6976  -15.6228 N   0  0  0  0  0  0  0  0  0  0  0  0
   21.9284   -7.4074  -15.0627 C   0  0  1  0  0  0  0  0  0  0  0  0
   23.0881   -6.4598  -15.0444 C   0  0  0  0  0  0  0  0  0  0  0  0
   22.6529   -5.1464  -14.5349 C   0  0  0  0  0  0  0  0  0  0  0  0
   22.1726   -5.0702  -13.3749 O   0  0  0  0  0  0  0  0  0  0  0  0
   20.8554   -6.8166  -15.8781 C   0  0  0  0  0  0  0  0  0  0  0  0
   20.3086   -5.7068  -15.6306 O   0  0  0  0  0  0  0  0  0  0  0  0
   22.7312   -3.9599  -15.2475 O   0  0  0  0  0  0  0  0  0  0  0  0
   20.4021   -7.5060  -16.9927 O   0  0  0  0  0  0  0  0  0  0  0  0
  1  2  1  0
  3  2  1  0
  4  3  1  0
  5  6  1  6
  5  4  1  0
  7  5  1  0
  8  7  2  0
 10  9  1  0
 10 11  1  0
 13 12  1  1
 12 11  1  0
 13 14  1  0
 14  7  1  0
 15 17  1  0
 15 13  1  0
 16 15  2  0
 18 19  1  6
 18 22  1  0
 18 17  1  0
 20 24  1  0
 20 19  1  0
 21 20  2  0
 22 25  1  0
 23 22  2  0
M  END
$$$$
