MMD.pdb
     RDKit          3D

 25 24  0  0  1  0  0  0  0  0999 V2000
   16.1243  -11.8405  -16.9139 C   0  0  0  0  0  0  0  0  0  0  0  0
   16.4367  -12.9794  -15.5679 S   0  0  0  0  0  0  0  0  0  0  0  0
   18.0332  -13.8130  -15.7171 C   0  0  0  0  0  0  0  0  0  0  0  0
   19.1141  -12.7768  -15.8111 C   0  0  0  0  0  0  0  0  0  0  0  0
   19.9927  -12.9445  -17.0207 C   0  0  2  0  0  0  0  0  0  0  0  0
   20.8138  -14.1122  -16.8613 N   0  0  0  0  0  0  0  0  0  0  0  0
   20.8301  -11.6975  -17.1149 C   0  0  0  0  0  0  0  0  0  0  0  0
   21.6942  -11.4597  -16.2336 O   0  0  0  0  0  0  0  0  0  0  0  0
   24.1184   -8.0517  -22.2015 C   0  0  0  0  0  0  0  0  0  0  0  0
   22.3803   -7.7929  -21.8299 S   0  0  0  0  0  0  0  0  0  0  0  0
   22.0705   -7.7730  -20.0091 C   0  0  0  0  0  0  0  0  0  0  0  0
   21.4258   -9.0641  -19.6913 C   0  0  0  0  0  0  0  0  0  0  0  0
   21.5232   -9.5773  -18.3019 C   0  0  2  0  0  0  0  0  0  0  0  0
   20.6604  -10.7805  -18.1863 N   0  0  0  0  0  0  0  0  0  0  0  0
   21.1208   -8.6598  -17.2265 C   0  0  0  0  0  0  0  0  0  0  0  0
   19.8608   -8.5755  -16.9793 O   0  0  0  0  0  0  0  0  0  0  0  0
   21.9929   -7.8683  -16.4392 N   0  0  0  0  0  0  0  0  0  0  0  0
   21.5421   -7.0123  -15.3584 C   0  0  1  0  0  0  0  0  0  0  0  0
   22.6603   -6.6195  -14.4427 C   0  0  0  0  0  0  0  0  0  0  0  0
   22.1598   -5.6933  -13.4104 C   0  0  0  0  0  0  0  0  0  0  0  0
   22.7372   -4.5874  -13.2507 O   0  0  0  0  0  0  0  0  0  0  0  0
   20.9594   -5.7902  -15.9347 C   0  0  0  0  0  0  0  0  0  0  0  0
   21.3750   -5.2381  -16.9903 O   0  0  0  0  0  0  0  0  0  0  0  0
   21.0788   -5.9485  -12.5808 O   0  0  0  0  0  0  0  0  0  0  0  0
   19.8853   -5.1917  -15.2933 O   0  0  0  0  0  0  0  0  0  0  0  0
  1  2  1  0
  3  2  1  0
  4  3  1  0
  5  6  1  1
  5  4  1  0
  7  5  1  0
  8  7  2  0
 10  9  1  0
 10 11  1  0
 13 12  1  6
 12 11  1  0
 13 14  1  0
 14  7  1  0
 15 17  1  0
 15 13  1  0
 16 15  2  0
 18 19  1  1
 18 22  1  0
 18 17  1  0
 20 24  1  0
 20 19  1  0
 21 20  2  0
 22 25  1  0
 23 22  2  0
M  END
$$$$
