MMD.pdb
     RDKit          3D

 25 24  0  0  1  0  0  0  0  0999 V2000
   28.3899  -18.2582   -6.7139 C   0  0  0  0  0  0  0  0  0  0  0  0
   26.9495  -19.2174   -6.2542 S   0  0  0  0  0  0  0  0  0  0  0  0
   26.6052  -20.5577   -7.4165 C   0  0  0  0  0  0  0  0  0  0  0  0
   26.4234  -19.9759   -8.7873 C   0  0  0  0  0  0  0  0  0  0  0  0
   26.1019  -21.0091   -9.8323 C   0  0  2  0  0  0  0  0  0  0  0  0
   27.1963  -21.9319   -9.9501 N   0  0  0  0  0  0  0  0  0  0  0  0
   25.8796  -20.2594  -11.1183 C   0  0  0  0  0  0  0  0  0  0  0  0
   26.7164  -19.3981  -11.4894 O   0  0  0  0  0  0  0  0  0  0  0  0
   28.7633  -21.4749  -14.9605 C   0  0  0  0  0  0  0  0  0  0  0  0
   27.3483  -21.7288  -16.0373 S   0  0  0  0  0  0  0  0  0  0  0  0
   25.9096  -20.6899  -15.5249 C   0  0  0  0  0  0  0  0  0  0  0  0
   25.7752  -20.8718  -14.0646 C   0  0  0  0  0  0  0  0  0  0  0  0
   24.7132  -20.1153  -13.3551 C   0  0  2  0  0  0  0  0  0  0  0  0
   24.7362  -20.5087  -11.9232 N   0  0  0  0  0  0  0  0  0  0  0  0
   23.3345  -20.3068  -13.8272 C   0  0  0  0  0  0  0  0  0  0  0  0
   23.0886  -19.9733  -15.0453 O   0  0  0  0  0  0  0  0  0  0  0  0
   22.2598  -20.8277  -13.0653 N   0  0  0  0  0  0  0  0  0  0  0  0
   20.9090  -20.9662  -13.5753 C   0  0  1  0  0  0  0  0  0  0  0  0
   20.3304  -22.3173  -13.2874 C   0  0  0  0  0  0  0  0  0  0  0  0
   20.7883  -23.2842  -14.3021 C   0  0  0  0  0  0  0  0  0  0  0  0
   21.5704  -22.8951  -15.2070 O   0  0  0  0  0  0  0  0  0  0  0  0
   20.0570  -19.9484  -12.9402 C   0  0  0  0  0  0  0  0  0  0  0  0
   20.1745  -19.5762  -11.7404 O   0  0  0  0  0  0  0  0  0  0  0  0
   20.4177  -24.6194  -14.3414 O   0  0  0  0  0  0  0  0  0  0  0  0
   19.0563  -19.3480  -13.6894 O   0  0  0  0  0  0  0  0  0  0  0  0
  1  2  1  0
  3  2  1  0
  4  3  1  0
  5  6  1  6
  5  4  1  0
  7  5  1  0
  8  7  2  0
 10  9  1  0
 10 11  1  0
 13 12  1  6
 12 11  1  0
 13 14  1  0
 14  7  1  0
 15 17  1  0
 15 13  1  0
 16 15  2  0
 18 19  1  1
 18 22  1  0
 18 17  1  0
 20 24  1  0
 20 19  1  0
 21 20  2  0
 22 25  1  0
 23 22  2  0
M  END
$$$$
