MMD.pdb
     RDKit          3D

 25 24  0  0  1  0  0  0  0  0999 V2000
   19.0808  -13.8535  -20.1652 C   0  0  0  0  0  0  0  0  0  0  0  0
   19.2943  -13.0069  -21.7284 S   0  0  0  0  0  0  0  0  0  0  0  0
   20.3379  -11.5382  -21.5884 C   0  0  0  0  0  0  0  0  0  0  0  0
   20.2558  -11.0174  -20.1839 C   0  0  0  0  0  0  0  0  0  0  0  0
   21.1281   -9.8152  -19.9452 C   0  0  2  0  0  0  0  0  0  0  0  0
   22.5086  -10.1865  -20.0850 N   0  0  0  0  0  0  0  0  0  0  0  0
   20.8290   -9.3428  -18.5479 C   0  0  0  0  0  0  0  0  0  0  0  0
   19.6491   -9.0496  -18.2289 O   0  0  0  0  0  0  0  0  0  0  0  0
   23.2221  -13.2732  -13.4191 C   0  0  0  0  0  0  0  0  0  0  0  0
   23.4416  -11.5384  -13.8293 S   0  0  0  0  0  0  0  0  0  0  0  0
   22.0907  -10.9241  -14.9291 C   0  0  0  0  0  0  0  0  0  0  0  0
   22.4400   -9.5274  -15.2623 C   0  0  0  0  0  0  0  0  0  0  0  0
   21.5556   -8.7829  -16.1934 C   0  0  2  0  0  0  0  0  0  0  0  0
   21.8607   -9.2214  -17.5792 N   0  0  0  0  0  0  0  0  0  0  0  0
   21.6604   -7.3170  -16.1780 C   0  0  0  0  0  0  0  0  0  0  0  0
   22.6404   -6.8001  -16.8323 O   0  0  0  0  0  0  0  0  0  0  0  0
   20.7800   -6.4276  -15.5141 N   0  0  0  0  0  0  0  0  0  0  0  0
   20.9405   -4.9860  -15.5224 C   0  0  1  0  0  0  0  0  0  0  0  0
   19.6392   -4.2699  -15.3298 C   0  0  0  0  0  0  0  0  0  0  0  0
   19.8543   -2.8130  -15.4029 C   0  0  0  0  0  0  0  0  0  0  0  0
   20.1848   -2.2992  -16.5024 O   0  0  0  0  0  0  0  0  0  0  0  0
   21.8493   -4.6050  -14.4297 C   0  0  0  0  0  0  0  0  0  0  0  0
   22.3240   -3.4462  -14.2762 O   0  0  0  0  0  0  0  0  0  0  0  0
   19.7194   -1.9423  -14.3327 O   0  0  0  0  0  0  0  0  0  0  0  0
   22.2198   -5.5644  -13.4994 O   0  0  0  0  0  0  0  0  0  0  0  0
  1  2  1  0
  3  2  1  0
  4  3  1  0
  5  6  1  1
  5  4  1  0
  7  5  1  0
  8  7  2  0
 10  9  1  0
 10 11  1  0
 13 12  1  1
 12 11  1  0
 13 14  1  0
 14  7  1  0
 15 17  1  0
 15 13  1  0
 16 15  2  0
 18 19  1  1
 18 22  1  0
 18 17  1  0
 20 24  1  0
 20 19  1  0
 21 20  2  0
 22 25  1  0
 23 22  2  0
M  END
$$$$
