MMD.pdb
     RDKit          3D

 25 24  0  0  1  0  0  0  0  0999 V2000
   25.0321  -17.0330  -16.1656 C   0  0  0  0  0  0  0  0  0  0  0  0
   26.7214  -16.4460  -16.0777 S   0  0  0  0  0  0  0  0  0  0  0  0
   27.8440  -17.6605  -15.3493 C   0  0  0  0  0  0  0  0  0  0  0  0
   27.0357  -18.6839  -14.6076 C   0  0  0  0  0  0  0  0  0  0  0  0
   27.8639  -19.8208  -14.0741 C   0  0  2  0  0  0  0  0  0  0  0  0
   28.3715  -20.6014  -15.1677 N   0  0  0  0  0  0  0  0  0  0  0  0
   26.9523  -20.6372  -13.1979 C   0  0  0  0  0  0  0  0  0  0  0  0
   26.4425  -21.6955  -13.6449 O   0  0  0  0  0  0  0  0  0  0  0  0
   26.8226  -19.0821   -7.1458 C   0  0  0  0  0  0  0  0  0  0  0  0
   26.0758  -20.6971   -6.9008 S   0  0  0  0  0  0  0  0  0  0  0  0
   25.4057  -21.3824   -8.4798 C   0  0  0  0  0  0  0  0  0  0  0  0
   26.1470  -20.7060   -9.5645 C   0  0  0  0  0  0  0  0  0  0  0  0
   25.8624  -21.1028  -10.9663 C   0  0  2  0  0  0  0  0  0  0  0  0
   26.6564  -20.2311  -11.8693 N   0  0  0  0  0  0  0  0  0  0  0  0
   24.4640  -21.0138  -11.4098 C   0  0  0  0  0  0  0  0  0  0  0  0
   23.5922  -21.6453  -10.7049 O   0  0  0  0  0  0  0  0  0  0  0  0
   23.9931  -20.2944  -12.5357 N   0  0  0  0  0  0  0  0  0  0  0  0
   22.5972  -20.2410  -12.9262 C   0  0  1  0  0  0  0  0  0  0  0  0
   22.3047  -19.0805  -13.8267 C   0  0  0  0  0  0  0  0  0  0  0  0
   20.8690  -18.7500  -13.7666 C   0  0  0  0  0  0  0  0  0  0  0  0
   20.1383  -19.3515  -12.9382 O   0  0  0  0  0  0  0  0  0  0  0  0
   22.2578  -21.4826  -13.6393 C   0  0  0  0  0  0  0  0  0  0  0  0
   21.1145  -22.0159  -13.6259 O   0  0  0  0  0  0  0  0  0  0  0  0
   20.2434  -17.8081  -14.5686 O   0  0  0  0  0  0  0  0  0  0  0  0
   23.2413  -22.1224  -14.3785 O   0  0  0  0  0  0  0  0  0  0  0  0
  1  2  1  0
  3  2  1  0
  4  3  1  0
  5  6  1  6
  5  4  1  0
  7  5  1  0
  8  7  2  0
 10  9  1  0
 10 11  1  0
 13 12  1  1
 12 11  1  0
 13 14  1  0
 14  7  1  0
 15 17  1  0
 15 13  1  0
 16 15  2  0
 18 19  1  6
 18 22  1  0
 18 17  1  0
 20 24  1  0
 20 19  1  0
 21 20  2  0
 22 25  1  0
 23 22  2  0
M  END
$$$$
