MMD.pdb
     RDKit          3D

 25 24  0  0  1  0  0  0  0  0999 V2000
   27.5367  -16.5717  -13.7040 C   0  0  0  0  0  0  0  0  0  0  0  0
   27.5082  -16.9682  -15.4499 S   0  0  0  0  0  0  0  0  0  0  0  0
   27.8909  -18.7040  -15.7764 C   0  0  0  0  0  0  0  0  0  0  0  0
   27.0786  -19.5617  -14.8515 C   0  0  0  0  0  0  0  0  0  0  0  0
   27.9194  -20.3825  -13.9122 C   0  0  2  0  0  0  0  0  0  0  0  0
   28.6209  -21.3939  -14.6526 N   0  0  0  0  0  0  0  0  0  0  0  0
   26.9714  -20.9944  -12.9162 C   0  0  0  0  0  0  0  0  0  0  0  0
   26.2544  -21.9690  -13.2567 O   0  0  0  0  0  0  0  0  0  0  0  0
   27.2807  -18.6445   -6.9820 C   0  0  0  0  0  0  0  0  0  0  0  0
   27.3772  -20.4378   -6.9580 S   0  0  0  0  0  0  0  0  0  0  0  0
   27.2926  -21.1455   -8.6621 C   0  0  0  0  0  0  0  0  0  0  0  0
   26.1197  -20.5182   -9.3060 C   0  0  0  0  0  0  0  0  0  0  0  0
   25.7754  -20.9245  -10.6915 C   0  0  2  0  0  0  0  0  0  0  0  0
   26.8719  -20.4879  -11.5930 N   0  0  0  0  0  0  0  0  0  0  0  0
   24.5262  -20.3870  -11.2492 C   0  0  0  0  0  0  0  0  0  0  0  0
   24.5886  -19.2209  -11.7896 O   0  0  0  0  0  0  0  0  0  0  0  0
   23.2678  -21.0375  -11.2484 N   0  0  0  0  0  0  0  0  0  0  0  0
   22.2688  -20.8513  -12.2834 C   0  0  1  0  0  0  0  0  0  0  0  0
   22.5292  -21.7091  -13.4833 C   0  0  0  0  0  0  0  0  0  0  0  0
   21.4948  -21.4667  -14.5056 C   0  0  0  0  0  0  0  0  0  0  0  0
   20.6550  -20.5492  -14.3188 O   0  0  0  0  0  0  0  0  0  0  0  0
   20.9491  -21.2029  -11.7356 C   0  0  0  0  0  0  0  0  0  0  0  0
   19.8726  -21.1435  -12.3910 O   0  0  0  0  0  0  0  0  0  0  0  0
   21.3687  -22.1854  -15.6843 O   0  0  0  0  0  0  0  0  0  0  0  0
   20.8606  -21.6288  -10.4188 O   0  0  0  0  0  0  0  0  0  0  0  0
  1  2  1  0
  3  2  1  0
  4  3  1  0
  5  6  1  6
  5  4  1  0
  7  5  1  0
  8  7  2  0
 10  9  1  0
 10 11  1  0
 13 12  1  1
 12 11  1  0
 13 14  1  0
 14  7  1  0
 15 17  1  0
 15 13  1  0
 16 15  2  0
 18 19  1  6
 18 22  1  0
 18 17  1  0
 20 24  1  0
 20 19  1  0
 21 20  2  0
 22 25  1  0
 23 22  2  0
M  END
$$$$
