MMD.pdb
     RDKit          3D

 25 24  0  0  1  0  0  0  0  0999 V2000
   32.6400  -22.9102   -7.5470 C   0  0  0  0  0  0  0  0  0  0  0  0
   33.2458  -22.9952   -9.2299 S   0  0  0  0  0  0  0  0  0  0  0  0
   32.2141  -22.0693  -10.3893 C   0  0  0  0  0  0  0  0  0  0  0  0
   30.7725  -22.3665  -10.0993 C   0  0  0  0  0  0  0  0  0  0  0  0
   29.8250  -21.7024  -11.0607 C   0  0  2  0  0  0  0  0  0  0  0  0
   30.2319  -20.3417  -11.2753 N   0  0  0  0  0  0  0  0  0  0  0  0
   28.4604  -21.7707  -10.4294 C   0  0  0  0  0  0  0  0  0  0  0  0
   27.8921  -22.8836  -10.2940 O   0  0  0  0  0  0  0  0  0  0  0  0
   27.8704  -19.4650   -4.1464 C   0  0  0  0  0  0  0  0  0  0  0  0
   27.0278  -19.0107   -5.6662 S   0  0  0  0  0  0  0  0  0  0  0  0
   27.2145  -20.3137   -6.9620 C   0  0  0  0  0  0  0  0  0  0  0  0
   26.4568  -19.8324   -8.1359 C   0  0  0  0  0  0  0  0  0  0  0  0
   26.4528  -20.6678   -9.3628 C   0  0  2  0  0  0  0  0  0  0  0  0
   27.8006  -20.5950   -9.9824 N   0  0  0  0  0  0  0  0  0  0  0  0
   25.4839  -20.3071  -10.4075 C   0  0  0  0  0  0  0  0  0  0  0  0
   25.6469  -19.1655  -10.9784 O   0  0  0  0  0  0  0  0  0  0  0  0
   24.3955  -21.1028  -10.8424 N   0  0  0  0  0  0  0  0  0  0  0  0
   23.4843  -20.7058  -11.8988 C   0  0  1  0  0  0  0  0  0  0  0  0
   23.2966  -21.7849  -12.9204 C   0  0  0  0  0  0  0  0  0  0  0  0
   24.4504  -21.8114  -13.8381 C   0  0  0  0  0  0  0  0  0  0  0  0
   24.5545  -22.7572  -14.6607 O   0  0  0  0  0  0  0  0  0  0  0  0
   22.1756  -20.3946  -11.3025 C   0  0  0  0  0  0  0  0  0  0  0  0
   21.2475  -19.7922  -11.9086 O   0  0  0  0  0  0  0  0  0  0  0  0
   25.4545  -20.8562  -13.8685 O   0  0  0  0  0  0  0  0  0  0  0  0
   21.9260  -20.7787   -9.9935 O   0  0  0  0  0  0  0  0  0  0  0  0
  1  2  1  0
  3  2  1  0
  4  3  1  0
  5  6  1  1
  5  4  1  0
  7  5  1  0
  8  7  2  0
 10  9  1  0
 10 11  1  0
 13 12  1  1
 12 11  1  0
 13 14  1  0
 14  7  1  0
 15 17  1  0
 15 13  1  0
 16 15  2  0
 18 19  1  6
 18 22  1  0
 18 17  1  0
 20 24  1  0
 20 19  1  0
 21 20  2  0
 22 25  1  0
 23 22  2  0
M  END
$$$$
