MMD.pdb
     RDKit          3D

 25 24  0  0  1  0  0  0  0  0999 V2000
   32.6472  -27.9490    3.8735 C   0  0  0  0  0  0  0  0  0  0  0  0
   34.1523  -28.1824    2.9321 S   0  0  0  0  0  0  0  0  0  0  0  0
   35.5795  -28.5465    3.9792 C   0  0  0  0  0  0  0  0  0  0  0  0
   35.7360  -27.4449    4.9855 C   0  0  0  0  0  0  0  0  0  0  0  0
   36.5488  -26.2864    4.4752 C   0  0  2  0  0  0  0  0  0  0  0  0
   37.9390  -26.6470    4.4512 N   0  0  0  0  0  0  0  0  0  0  0  0
   36.2983  -25.1416    5.4195 C   0  0  0  0  0  0  0  0  0  0  0  0
   37.1156  -24.9082    6.3455 O   0  0  0  0  0  0  0  0  0  0  0  0
   31.2993  -21.0669    4.9444 C   0  0  0  0  0  0  0  0  0  0  0  0
   32.6756  -20.5719    3.9019 S   0  0  0  0  0  0  0  0  0  0  0  0
   34.2215  -21.4831    4.3398 C   0  0  0  0  0  0  0  0  0  0  0  0
   33.8998  -22.2761    5.5445 C   0  0  0  0  0  0  0  0  0  0  0  0
   34.9675  -23.1180    6.1398 C   0  0  2  0  0  0  0  0  0  0  0  0
   35.1499  -24.3170    5.2826 N   0  0  0  0  0  0  0  0  0  0  0  0
   34.7433  -23.6035    7.5088 C   0  0  0  0  0  0  0  0  0  0  0  0
   34.3148  -24.8106    7.6317 O   0  0  0  0  0  0  0  0  0  0  0  0
   34.9607  -22.8658    8.6985 N   0  0  0  0  0  0  0  0  0  0  0  0
   35.4035  -23.4646    9.9432 C   0  0  1  0  0  0  0  0  0  0  0  0
   36.6760  -24.2373    9.7791 C   0  0  0  0  0  0  0  0  0  0  0  0
   37.0682  -24.8352   11.0686 C   0  0  0  0  0  0  0  0  0  0  0  0
   36.1962  -24.9839   11.9628 O   0  0  0  0  0  0  0  0  0  0  0  0
   35.6304  -22.3951   10.9282 C   0  0  0  0  0  0  0  0  0  0  0  0
   35.6909  -21.1686   10.6389 O   0  0  0  0  0  0  0  0  0  0  0  0
   38.3508  -25.2564   11.3838 O   0  0  0  0  0  0  0  0  0  0  0  0
   35.7901  -22.7349   12.2632 O   0  0  0  0  0  0  0  0  0  0  0  0
  1  2  1  0
  3  2  1  0
  4  3  1  0
  5  6  1  1
  5  4  1  0
  7  5  1  0
  8  7  2  0
 10  9  1  0
 10 11  1  0
 13 12  1  6
 12 11  1  0
 13 14  1  0
 14  7  1  0
 15 17  1  0
 15 13  1  0
 16 15  2  0
 18 19  1  6
 18 22  1  0
 18 17  1  0
 20 24  1  0
 20 19  1  0
 21 20  2  0
 22 25  1  0
 23 22  2  0
M  END
$$$$
