GYW.pdb
     RDKit          3D

 31 33  0  0  1  0  0  0  0  0999 V2000
   12.5217  -19.3451   18.6628 N   0  0  0  0  0  0  0  0  0  0  0  0
   11.6001  -18.7075   19.5955 C   0  0  0  0  0  0  0  0  0  0  0  0
   12.3408  -17.7759   20.4907 C   0  0  0  0  0  0  0  0  0  0  0  0
   13.5078  -17.9921   20.8843 O   0  0  0  0  0  0  0  0  0  0  0  0
   15.4844  -14.4168   16.3118 O   0  0  0  0  0  0  0  0  0  0  0  0
   14.7189  -14.3808   17.4750 C   0  0  0  0  0  0  0  0  0  0  0  0
   15.4238  -14.3675   18.6646 C   0  0  0  0  0  0  0  0  0  0  0  0
   14.6867  -14.3321   19.8239 C   0  0  0  0  0  0  0  0  0  0  0  0
   13.3062  -14.3097   19.8569 C   0  0  0  0  0  0  0  0  0  0  0  0
   12.5445  -14.2772   21.1362 C   0  0  0  0  0  0  0  0  0  0  0  0
   12.3928  -15.6107   21.7581 C   0  0  2  0  0  0  0  0  0  0  0  0
   11.7275  -16.5851   20.9340 N   0  0  0  0  0  0  0  0  0  0  0  0
   11.7145  -15.5663   23.0667 C   0  0  0  0  0  0  0  0  0  0  0  0
   12.1777  -14.9787   24.0834 O   0  0  0  0  0  0  0  0  0  0  0  0
   12.6505  -14.3243   18.6390 C   0  0  0  0  0  0  0  0  0  0  0  0
   13.3543  -14.3595   17.4715 C   0  0  0  0  0  0  0  0  0  0  0  0
   10.4733  -16.2068   23.2294 N   0  0  0  0  0  0  0  0  0  0  0  0
    9.6676  -16.0128   24.4655 C   0  0  1  0  0  0  0  0  0  0  0  0
    8.3223  -15.6048   23.9797 C   0  0  0  0  0  0  0  0  0  0  0  0
    7.4128  -15.1975   25.0437 C   0  0  0  0  0  0  0  0  0  0  0  0
    6.4722  -16.0144   25.6189 C   0  0  0  0  0  0  0  0  0  0  0  0
    5.8029  -15.2940   26.5181 N   0  0  0  0  0  0  0  0  0  0  0  0
    6.2871  -14.0294   26.5411 C   0  0  0  0  0  0  0  0  0  0  0  0
    5.9361  -12.9195   27.3142 C   0  0  0  0  0  0  0  0  0  0  0  0
    6.5976  -11.7289   27.1712 C   0  0  0  0  0  0  0  0  0  0  0  0
    7.6129  -11.6828   26.2384 C   0  0  0  0  0  0  0  0  0  0  0  0
    7.9631  -12.7476   25.4828 C   0  0  0  0  0  0  0  0  0  0  0  0
    7.3003  -13.9607   25.6167 C   0  0  0  0  0  0  0  0  0  0  0  0
    9.6548  -17.2881   25.1724 C   0  0  0  0  0  0  0  0  0  0  0  0
    9.4301  -17.4232   26.5390 O   0  0  0  0  0  0  0  0  0  0  0  0
    9.8621  -18.3751   24.5488 O   0  0  0  0  0  0  0  0  0  0  0  0
  1  2  1  0
  3  4  2  0
  3  2  1  0
  6  5  1  0
  7  6  2  0
  8  7  1  0
  9 15  1  0
  9  8  2  0
 10  9  1  0
 11 10  1  6
 11 12  1  0
 12  3  1  0
 13 17  1  0
 13 11  1  0
 14 13  2  0
 15 16  2  0
 16  6  1  0
 18 17  1  0
 18 29  1  0
 18 19  1  6
 20 28  1  0
 20 19  1  0
 21 20  2  0
 22 21  1  0
 22 23  1  0
 23 28  2  0
 24 23  1  0
 24 25  2  0
 25 26  1  0
 26 27  2  0
 28 27  1  0
 29 30  1  0
 31 29  2  0
M  END
$$$$
