GYW.pdb
     RDKit          3D

 31 33  0  0  1  0  0  0  0  0999 V2000
    8.7420  -19.8113   20.0077 N   0  0  0  0  0  0  0  0  0  0  0  0
    8.0462  -18.9240   20.9319 C   0  0  0  0  0  0  0  0  0  0  0  0
    8.9295  -17.7871   21.3129 C   0  0  0  0  0  0  0  0  0  0  0  0
   10.1325  -17.7169   20.9793 O   0  0  0  0  0  0  0  0  0  0  0  0
    7.5611  -13.1458   16.6154 O   0  0  0  0  0  0  0  0  0  0  0  0
    7.7165  -13.4481   17.9663 C   0  0  0  0  0  0  0  0  0  0  0  0
    8.8179  -12.8906   18.5895 C   0  0  0  0  0  0  0  0  0  0  0  0
    8.9892  -13.1768   19.9226 C   0  0  0  0  0  0  0  0  0  0  0  0
    8.1331  -13.9769   20.6535 C   0  0  0  0  0  0  0  0  0  0  0  0
    8.3579  -14.2672   22.0967 C   0  0  0  0  0  0  0  0  0  0  0  0
    9.1392  -15.5017   22.3279 C   0  0  2  0  0  0  0  0  0  0  0  0
    8.4176  -16.7231   22.0852 N   0  0  0  0  0  0  0  0  0  0  0  0
    9.7298  -15.5699   23.6774 C   0  0  0  0  0  0  0  0  0  0  0  0
   10.6690  -14.8269   24.0764 O   0  0  0  0  0  0  0  0  0  0  0  0
    7.0472  -14.5091   19.9819 C   0  0  0  0  0  0  0  0  0  0  0  0
    6.8503  -14.2434   18.6589 C   0  0  0  0  0  0  0  0  0  0  0  0
    9.2418  -16.5083   24.6041 N   0  0  0  0  0  0  0  0  0  0  0  0
    9.9198  -16.7165   25.9124 C   0  0  1  0  0  0  0  0  0  0  0  0
    9.6565  -15.4685   26.6776 C   0  0  0  0  0  0  0  0  0  0  0  0
    8.2481  -15.0951   26.7246 C   0  0  0  0  0  0  0  0  0  0  0  0
    7.2061  -15.9571   26.4922 C   0  0  0  0  0  0  0  0  0  0  0  0
    6.0740  -15.2596   26.5795 N   0  0  0  0  0  0  0  0  0  0  0  0
    6.3562  -13.9660   26.8640 C   0  0  0  0  0  0  0  0  0  0  0  0
    5.5239  -12.8624   27.0699 C   0  0  0  0  0  0  0  0  0  0  0  0
    6.0505  -11.6351   27.3733 C   0  0  0  0  0  0  0  0  0  0  0  0
    7.4242  -11.5461   27.4637 C   0  0  0  0  0  0  0  0  0  0  0  0
    8.2419  -12.6042   27.2663 C   0  0  0  0  0  0  0  0  0  0  0  0
    7.7217  -13.8543   26.9572 C   0  0  0  0  0  0  0  0  0  0  0  0
    9.3184  -17.8961   26.5230 C   0  0  0  0  0  0  0  0  0  0  0  0
    8.3219  -18.6637   25.9278 O   0  0  0  0  0  0  0  0  0  0  0  0
    9.6874  -18.2879   27.6735 O   0  0  0  0  0  0  0  0  0  0  0  0
  1  2  1  0
  3  4  2  0
  3  2  1  0
  6  5  1  0
  7  6  2  0
  8  7  1  0
  9 15  1  0
  9  8  2  0
 10  9  1  0
 11 10  1  1
 11 12  1  0
 12  3  1  0
 13 17  1  0
 13 11  1  0
 14 13  2  0
 15 16  2  0
 16  6  1  0
 18 17  1  0
 18 29  1  0
 18 19  1  1
 20 28  1  0
 20 19  1  0
 21 20  2  0
 22 21  1  0
 22 23  1  0
 23 28  2  0
 24 23  1  0
 24 25  2  0
 25 26  1  0
 26 27  2  0
 28 27  1  0
 29 30  1  0
 31 29  2  0
M  END
$$$$
