GYW.pdb
     RDKit          3D

 31 33  0  0  1  0  0  0  0  0999 V2000
   12.1138  -17.3709   18.0262 N   0  0  0  0  0  0  0  0  0  0  0  0
   11.5973  -17.9259   19.2716 C   0  0  0  0  0  0  0  0  0  0  0  0
   11.2052  -16.8275   20.1977 C   0  0  0  0  0  0  0  0  0  0  0  0
   11.8536  -15.7641   20.3073 O   0  0  0  0  0  0  0  0  0  0  0  0
    7.3956  -12.8638   16.9183 O   0  0  0  0  0  0  0  0  0  0  0  0
    7.5902  -13.5487   18.1156 C   0  0  0  0  0  0  0  0  0  0  0  0
    8.2425  -12.8498   19.1147 C   0  0  0  0  0  0  0  0  0  0  0  0
    8.4444  -13.5080   20.3040 C   0  0  0  0  0  0  0  0  0  0  0  0
    8.0362  -14.8054   20.5438 C   0  0  0  0  0  0  0  0  0  0  0  0
    8.2797  -15.4850   21.8463 C   0  0  0  0  0  0  0  0  0  0  0  0
    9.6629  -15.9890   21.9908 C   0  0  2  0  0  0  0  0  0  0  0  0
   10.0543  -16.9598   21.0030 N   0  0  0  0  0  0  0  0  0  0  0  0
    9.9399  -16.5469   23.3275 C   0  0  0  0  0  0  0  0  0  0  0  0
   10.4686  -17.6757   23.5266 O   0  0  0  0  0  0  0  0  0  0  0  0
    7.3883  -15.4588   19.5110 C   0  0  0  0  0  0  0  0  0  0  0  0
    7.1733  -14.8322   18.3190 C   0  0  0  0  0  0  0  0  0  0  0  0
    9.6083  -15.8037   24.4742 N   0  0  0  0  0  0  0  0  0  0  0  0
    9.9463  -16.3032   25.8348 C   0  0  1  0  0  0  0  0  0  0  0  0
    9.5752  -15.1902   26.7491 C   0  0  0  0  0  0  0  0  0  0  0  0
    8.2390  -14.6575   26.5129 C   0  0  0  0  0  0  0  0  0  0  0  0
    7.1760  -15.3958   26.0570 C   0  0  0  0  0  0  0  0  0  0  0  0
    6.1368  -14.5725   25.9225 N   0  0  0  0  0  0  0  0  0  0  0  0
    6.4996  -13.3179   26.2809 C   0  0  0  0  0  0  0  0  0  0  0  0
    5.7736  -12.1248   26.3308 C   0  0  0  0  0  0  0  0  0  0  0  0
    6.3624  -10.9640   26.7568 C   0  0  0  0  0  0  0  0  0  0  0  0
    7.6892  -11.0326   27.1283 C   0  0  0  0  0  0  0  0  0  0  0  0
    8.4045  -12.1788   27.0846 C   0  0  0  0  0  0  0  0  0  0  0  0
    7.8204  -13.3630   26.6540 C   0  0  0  0  0  0  0  0  0  0  0  0
    9.1570  -17.5090   26.0563 C   0  0  0  0  0  0  0  0  0  0  0  0
    8.2047  -17.9956   25.1660 O   0  0  0  0  0  0  0  0  0  0  0  0
    9.3050  -18.1929   27.1164 O   0  0  0  0  0  0  0  0  0  0  0  0
  1  2  1  0
  3  4  2  0
  3  2  1  0
  6  5  1  0
  7  6  2  0
  8  7  1  0
  9 15  1  0
  9  8  2  0
 10  9  1  0
 11 10  1  1
 11 12  1  0
 12  3  1  0
 13 17  1  0
 13 11  1  0
 14 13  2  0
 15 16  2  0
 16  6  1  0
 18 17  1  0
 18 29  1  0
 18 19  1  1
 20 28  1  0
 20 19  1  0
 21 20  2  0
 22 21  1  0
 22 23  1  0
 23 28  2  0
 24 23  1  0
 24 25  2  0
 25 26  1  0
 26 27  2  0
 28 27  1  0
 29 30  1  0
 31 29  2  0
M  END
$$$$
