GYW.pdb
     RDKit          3D

 31 33  0  0  1  0  0  0  0  0999 V2000
    9.2465  -19.4438   20.0110 N   0  0  0  0  0  0  0  0  0  0  0  0
    8.6477  -18.8327   21.1916 C   0  0  0  0  0  0  0  0  0  0  0  0
    9.2576  -17.4973   21.4417 C   0  0  0  0  0  0  0  0  0  0  0  0
   10.2909  -17.1000   20.8604 O   0  0  0  0  0  0  0  0  0  0  0  0
    7.4724  -13.2932   16.8862 O   0  0  0  0  0  0  0  0  0  0  0  0
    7.6352  -13.5432   18.2468 C   0  0  0  0  0  0  0  0  0  0  0  0
    8.6701  -12.8681   18.8678 C   0  0  0  0  0  0  0  0  0  0  0  0
    8.8475  -13.1011   20.2104 C   0  0  0  0  0  0  0  0  0  0  0  0
    8.0593  -13.9584   20.9528 C   0  0  0  0  0  0  0  0  0  0  0  0
    8.2888  -14.1875   22.4062 C   0  0  0  0  0  0  0  0  0  0  0  0
    9.2052  -15.3157   22.6807 C   0  0  2  0  0  0  0  0  0  0  0  0
    8.6679  -16.6144   22.3710 N   0  0  0  0  0  0  0  0  0  0  0  0
    9.7004  -15.3356   24.0696 C   0  0  0  0  0  0  0  0  0  0  0  0
   10.4089  -14.4244   24.5805 O   0  0  0  0  0  0  0  0  0  0  0  0
    7.0383  -14.6082   20.2830 C   0  0  0  0  0  0  0  0  0  0  0  0
    6.8372  -14.3978   18.9507 C   0  0  0  0  0  0  0  0  0  0  0  0
    9.3837  -16.4207   24.9059 N   0  0  0  0  0  0  0  0  0  0  0  0
   10.0071  -16.5590   26.2502 C   0  0  1  0  0  0  0  0  0  0  0  0
    8.8746  -16.4362   27.2066 C   0  0  0  0  0  0  0  0  0  0  0  0
    7.7784  -15.6105   26.7152 C   0  0  0  0  0  0  0  0  0  0  0  0
    6.7293  -16.0764   25.9634 C   0  0  0  0  0  0  0  0  0  0  0  0
    5.9501  -15.0376   25.6644 N   0  0  0  0  0  0  0  0  0  0  0  0
    6.4677  -13.9088   26.2049 C   0  0  0  0  0  0  0  0  0  0  0  0
    6.0172  -12.5861   26.1892 C   0  0  0  0  0  0  0  0  0  0  0  0
    6.7127  -11.6016   26.8393 C   0  0  0  0  0  0  0  0  0  0  0  0
    7.8638  -11.9777   27.5000 C   0  0  0  0  0  0  0  0  0  0  0  0
    8.3125  -13.2526   27.5233 C   0  0  0  0  0  0  0  0  0  0  0  0
    7.6177  -14.2608   26.8678 C   0  0  0  0  0  0  0  0  0  0  0  0
   10.6479  -17.8681   26.2920 C   0  0  0  0  0  0  0  0  0  0  0  0
   10.6227  -18.7857   25.2461 O   0  0  0  0  0  0  0  0  0  0  0  0
   11.2776  -18.2469   27.3281 O   0  0  0  0  0  0  0  0  0  0  0  0
  1  2  1  0
  3  4  2  0
  3  2  1  0
  6  5  1  0
  7  6  2  0
  8  7  1  0
  9 15  1  0
  9  8  2  0
 10  9  1  0
 11 10  1  1
 11 12  1  0
 12  3  1  0
 13 17  1  0
 13 11  1  0
 14 13  2  0
 15 16  2  0
 16  6  1  0
 18 17  1  0
 18 29  1  0
 18 19  1  1
 20 28  1  0
 20 19  1  0
 21 20  2  0
 22 21  1  0
 22 23  1  0
 23 28  2  0
 24 23  1  0
 24 25  2  0
 25 26  1  0
 26 27  2  0
 28 27  1  0
 29 30  1  0
 31 29  2  0
M  END
$$$$
