GYW.pdb
     RDKit          3D

 31 33  0  0  1  0  0  0  0  0999 V2000
   10.1407  -18.6655   19.5390 N   0  0  0  0  0  0  0  0  0  0  0  0
    9.4860  -18.5291   20.8346 C   0  0  0  0  0  0  0  0  0  0  0  0
    9.6957  -17.1561   21.3719 C   0  0  0  0  0  0  0  0  0  0  0  0
   10.7835  -16.5465   21.2793 O   0  0  0  0  0  0  0  0  0  0  0  0
    7.4539  -13.6465   16.4639 O   0  0  0  0  0  0  0  0  0  0  0  0
    7.5393  -13.7487   17.8505 C   0  0  0  0  0  0  0  0  0  0  0  0
    6.8786  -14.8211   18.4212 C   0  0  0  0  0  0  0  0  0  0  0  0
    6.9506  -14.9397   19.7884 C   0  0  0  0  0  0  0  0  0  0  0  0
    7.6360  -14.0587   20.6017 C   0  0  0  0  0  0  0  0  0  0  0  0
    7.6847  -14.2200   22.0813 C   0  0  0  0  0  0  0  0  0  0  0  0
    8.7501  -15.1419   22.5321 C   0  0  2  0  0  0  0  0  0  0  0  0
    8.6394  -16.4828   22.0212 N   0  0  0  0  0  0  0  0  0  0  0  0
    8.8738  -15.2114   23.9999 C   0  0  0  0  0  0  0  0  0  0  0  0
    8.2905  -14.4249   24.7965 O   0  0  0  0  0  0  0  0  0  0  0  0
    8.2793  -13.0038   19.9798 C   0  0  0  0  0  0  0  0  0  0  0  0
    8.2261  -12.8591   18.6248 C   0  0  0  0  0  0  0  0  0  0  0  0
    9.6828  -16.2022   24.5840 N   0  0  0  0  0  0  0  0  0  0  0  0
    9.9191  -16.2301   26.0531 C   0  0  1  0  0  0  0  0  0  0  0  0
    8.5894  -16.5383   26.6440 C   0  0  0  0  0  0  0  0  0  0  0  0
    7.5833  -15.5140   26.3916 C   0  0  0  0  0  0  0  0  0  0  0  0
    6.4243  -15.7184   25.6861 C   0  0  0  0  0  0  0  0  0  0  0  0
    5.7758  -14.5560   25.6235 N   0  0  0  0  0  0  0  0  0  0  0  0
    6.4856  -13.6023   26.2721 C   0  0  0  0  0  0  0  0  0  0  0  0
    6.2231  -12.2484   26.4981 C   0  0  0  0  0  0  0  0  0  0  0  0
    7.0971  -11.4757   27.2155 C   0  0  0  0  0  0  0  0  0  0  0  0
    8.2330  -12.0939   27.6960 C   0  0  0  0  0  0  0  0  0  0  0  0
    8.5009  -13.4019   27.4848 C   0  0  0  0  0  0  0  0  0  0  0  0
    7.6238  -14.1970   26.7585 C   0  0  0  0  0  0  0  0  0  0  0  0
   10.9096  -17.2694   26.3075 C   0  0  0  0  0  0  0  0  0  0  0  0
   11.4677  -18.0770   25.3212 O   0  0  0  0  0  0  0  0  0  0  0  0
   11.3193  -17.4971   27.4880 O   0  0  0  0  0  0  0  0  0  0  0  0
  1  2  1  0
  3  4  2  0
  3  2  1  0
  6  5  1  0
  7  6  2  0
  8  7  1  0
  9 15  1  0
  9  8  2  0
 10  9  1  0
 11 10  1  1
 11 12  1  0
 12  3  1  0
 13 17  1  0
 13 11  1  0
 14 13  2  0
 15 16  2  0
 16  6  1  0
 18 17  1  0
 18 29  1  0
 18 19  1  1
 20 28  1  0
 20 19  1  0
 21 20  2  0
 22 21  1  0
 22 23  1  0
 23 28  2  0
 24 23  1  0
 24 25  2  0
 25 26  1  0
 26 27  2  0
 28 27  1  0
 29 30  1  0
 31 29  2  0
M  END
$$$$
