GYW.pdb
     RDKit          3D

 31 33  0  0  1  0  0  0  0  0999 V2000
    9.1906  -19.6507   19.5967 N   0  0  0  0  0  0  0  0  0  0  0  0
    8.4910  -18.8949   20.6287 C   0  0  0  0  0  0  0  0  0  0  0  0
    9.2877  -17.6974   21.0149 C   0  0  0  0  0  0  0  0  0  0  0  0
   10.4527  -17.4938   20.6090 O   0  0  0  0  0  0  0  0  0  0  0  0
    6.9991  -13.3097   16.7768 O   0  0  0  0  0  0  0  0  0  0  0  0
    7.3537  -13.5730   18.0979 C   0  0  0  0  0  0  0  0  0  0  0  0
    8.5751  -13.0717   18.5092 C   0  0  0  0  0  0  0  0  0  0  0  0
    8.9435  -13.3208   19.8095 C   0  0  0  0  0  0  0  0  0  0  0  0
    8.1696  -14.0322   20.7052 C   0  0  0  0  0  0  0  0  0  0  0  0
    8.6084  -14.2851   22.1055 C   0  0  0  0  0  0  0  0  0  0  0  0
    9.4148  -15.5167   22.2500 C   0  0  2  0  0  0  0  0  0  0  0  0
    8.7329  -16.7279   21.8768 N   0  0  0  0  0  0  0  0  0  0  0  0
    9.9674  -15.6921   23.6059 C   0  0  0  0  0  0  0  0  0  0  0  0
   10.9338  -15.0239   24.0673 O   0  0  0  0  0  0  0  0  0  0  0  0
    6.9572  -14.5111   20.2424 C   0  0  0  0  0  0  0  0  0  0  0  0
    6.5639  -14.2803   18.9572 C   0  0  0  0  0  0  0  0  0  0  0  0
    9.4085  -16.6539   24.4661 N   0  0  0  0  0  0  0  0  0  0  0  0
    9.9249  -16.8359   25.8500 C   0  0  1  0  0  0  0  0  0  0  0  0
    9.7507  -15.5076   26.4963 C   0  0  0  0  0  0  0  0  0  0  0  0
    8.4041  -14.9643   26.3675 C   0  0  0  0  0  0  0  0  0  0  0  0
    7.3116  -15.6825   25.9509 C   0  0  0  0  0  0  0  0  0  0  0  0
    6.2689  -14.8534   25.9163 N   0  0  0  0  0  0  0  0  0  0  0  0
    6.6582  -13.6147   26.3013 C   0  0  0  0  0  0  0  0  0  0  0  0
    5.9412  -12.4240   26.4456 C   0  0  0  0  0  0  0  0  0  0  0  0
    6.5601  -11.2820   26.8797 C   0  0  0  0  0  0  0  0  0  0  0  0
    7.9076  -11.3669   27.1628 C   0  0  0  0  0  0  0  0  0  0  0  0
    8.6145  -12.5111   27.0272 C   0  0  0  0  0  0  0  0  0  0  0  0
    7.9999  -13.6763   26.5872 C   0  0  0  0  0  0  0  0  0  0  0  0
    9.1214  -17.8813   26.4725 C   0  0  0  0  0  0  0  0  0  0  0  0
    9.3407  -18.3790   27.7534 O   0  0  0  0  0  0  0  0  0  0  0  0
    8.1506  -18.4097   25.8465 O   0  0  0  0  0  0  0  0  0  0  0  0
  1  2  1  0
  3  4  2  0
  3  2  1  0
  6  5  1  0
  7  6  2  0
  8  7  1  0
  9 15  1  0
  9  8  2  0
 10  9  1  0
 11 10  1  1
 11 12  1  0
 12  3  1  0
 13 17  1  0
 13 11  1  0
 14 13  2  0
 15 16  2  0
 16  6  1  0
 18 17  1  0
 18 29  1  0
 18 19  1  1
 20 28  1  0
 20 19  1  0
 21 20  2  0
 22 21  1  0
 22 23  1  0
 23 28  2  0
 24 23  1  0
 24 25  2  0
 25 26  1  0
 26 27  2  0
 28 27  1  0
 29 30  1  0
 31 29  2  0
M  END
$$$$
