GYW.pdb
     RDKit          3D

 31 33  0  0  1  0  0  0  0  0999 V2000
   10.1689  -18.8501   18.7872 N   0  0  0  0  0  0  0  0  0  0  0  0
    9.3536  -18.7184   19.9887 C   0  0  0  0  0  0  0  0  0  0  0  0
    9.6751  -17.4436   20.6883 C   0  0  0  0  0  0  0  0  0  0  0  0
   10.7968  -16.8948   20.6240 O   0  0  0  0  0  0  0  0  0  0  0  0
    7.2474  -13.0228   16.7264 O   0  0  0  0  0  0  0  0  0  0  0  0
    7.4672  -13.3606   18.0598 C   0  0  0  0  0  0  0  0  0  0  0  0
    6.7238  -14.4196   18.5476 C   0  0  0  0  0  0  0  0  0  0  0  0
    6.9260  -14.7686   19.8612 C   0  0  0  0  0  0  0  0  0  0  0  0
    7.8164  -14.1264   20.6992 C   0  0  0  0  0  0  0  0  0  0  0  0
    8.0018  -14.5326   22.1198 C   0  0  0  0  0  0  0  0  0  0  0  0
    8.9611  -15.6460   22.2870 C   0  0  2  0  0  0  0  0  0  0  0  0
    8.6920  -16.7984   21.4679 N   0  0  0  0  0  0  0  0  0  0  0  0
    9.0951  -16.0905   23.6867 C   0  0  0  0  0  0  0  0  0  0  0  0
    8.4868  -17.0833   24.1744 O   0  0  0  0  0  0  0  0  0  0  0  0
    8.5347  -13.0738   20.1609 C   0  0  0  0  0  0  0  0  0  0  0  0
    8.3560  -12.7038   18.8606 C   0  0  0  0  0  0  0  0  0  0  0  0
    9.9443  -15.3896   24.5613 N   0  0  0  0  0  0  0  0  0  0  0  0
   10.0527  -15.7735   25.9951 C   0  0  1  0  0  0  0  0  0  0  0  0
    8.7194  -16.3368   26.3375 C   0  0  0  0  0  0  0  0  0  0  0  0
    7.6330  -15.3689   26.2487 C   0  0  0  0  0  0  0  0  0  0  0  0
    6.3629  -15.6615   25.8195 C   0  0  0  0  0  0  0  0  0  0  0  0
    5.6587  -14.5303   25.8317 N   0  0  0  0  0  0  0  0  0  0  0  0
    6.4409  -13.5108   26.2595 C   0  0  0  0  0  0  0  0  0  0  0  0
    6.1647  -12.1557   26.4601 C   0  0  0  0  0  0  0  0  0  0  0  0
    7.1308  -11.3062   26.9299 C   0  0  0  0  0  0  0  0  0  0  0  0
    8.3718  -11.8494   27.1907 C   0  0  0  0  0  0  0  0  0  0  0  0
    8.6540  -13.1576   27.0008 C   0  0  0  0  0  0  0  0  0  0  0  0
    7.6842  -14.0302   26.5242 C   0  0  0  0  0  0  0  0  0  0  0  0
   11.1275  -16.7537   26.0954 C   0  0  0  0  0  0  0  0  0  0  0  0
   11.5310  -17.3539   27.2843 O   0  0  0  0  0  0  0  0  0  0  0  0
   11.7731  -17.1134   25.0623 O   0  0  0  0  0  0  0  0  0  0  0  0
  1  2  1  0
  3  4  2  0
  3  2  1  0
  6  5  1  0
  7  6  2  0
  8  7  1  0
  9 15  1  0
  9  8  2  0
 10  9  1  0
 11 10  1  1
 11 12  1  0
 12  3  1  0
 13 17  1  0
 13 11  1  0
 14 13  2  0
 15 16  2  0
 16  6  1  0
 18 17  1  0
 18 29  1  0
 18 19  1  6
 20 28  1  0
 20 19  1  0
 21 20  2  0
 22 21  1  0
 22 23  1  0
 23 28  2  0
 24 23  1  0
 24 25  2  0
 25 26  1  0
 26 27  2  0
 28 27  1  0
 29 30  1  0
 31 29  2  0
M  END
$$$$
