GYW.pdb
     RDKit          3D

 31 33  0  0  1  0  0  0  0  0999 V2000
    8.0744  -21.1209   19.8008 N   0  0  0  0  0  0  0  0  0  0  0  0
    8.1539  -21.0958   21.2564 C   0  0  0  0  0  0  0  0  0  0  0  0
    7.3312  -19.9772   21.7947 C   0  0  0  0  0  0  0  0  0  0  0  0
    6.7033  -19.1798   21.0643 O   0  0  0  0  0  0  0  0  0  0  0  0
    9.1841  -21.2913   28.9531 O   0  0  0  0  0  0  0  0  0  0  0  0
    8.3265  -20.8277   27.9582 C   0  0  0  0  0  0  0  0  0  0  0  0
    7.8378  -19.5454   28.1282 C   0  0  0  0  0  0  0  0  0  0  0  0
    6.9898  -19.0693   27.1572 C   0  0  0  0  0  0  0  0  0  0  0  0
    6.6107  -19.7941   26.0445 C   0  0  0  0  0  0  0  0  0  0  0  0
    5.6840  -19.2428   25.0174 C   0  0  0  0  0  0  0  0  0  0  0  0
    6.3761  -18.7925   23.7900 C   0  0  2  0  0  0  0  0  0  0  0  0
    7.2338  -19.7792   23.1882 N   0  0  0  0  0  0  0  0  0  0  0  0
    7.1542  -17.5550   23.9841 C   0  0  0  0  0  0  0  0  0  0  0  0
    6.6654  -16.4723   24.4110 O   0  0  0  0  0  0  0  0  0  0  0  0
    7.1284  -21.0711   25.9231 C   0  0  0  0  0  0  0  0  0  0  0  0
    7.9723  -21.5716   26.8702 C   0  0  0  0  0  0  0  0  0  0  0  0
    8.5283  -17.5429   23.6858 N   0  0  0  0  0  0  0  0  0  0  0  0
    9.3205  -16.2862   23.7761 C   0  0  1  0  0  0  0  0  0  0  0  0
    8.3672  -15.2101   23.3946 C   0  0  0  0  0  0  0  0  0  0  0  0
    7.6040  -14.6774   24.5166 C   0  0  0  0  0  0  0  0  0  0  0  0
    6.9508  -15.4447   25.4480 C   0  0  0  0  0  0  0  0  0  0  0  0
    6.3318  -14.6203   26.2923 N   0  0  0  0  0  0  0  0  0  0  0  0
    6.5683  -13.3364   25.9319 C   0  0  0  0  0  0  0  0  0  0  0  0
    6.1616  -12.1268   26.5015 C   0  0  0  0  0  0  0  0  0  0  0  0
    6.5533  -10.9312   25.9605 C   0  0  0  0  0  0  0  0  0  0  0  0
    7.3578  -10.9822   24.8410 C   0  0  0  0  0  0  0  0  0  0  0  0
    7.7585  -12.1441   24.2784 C   0  0  0  0  0  0  0  0  0  0  0  0
    7.3681  -13.3638   24.8160 C   0  0  0  0  0  0  0  0  0  0  0  0
    9.7864  -16.1721   25.1530 C   0  0  0  0  0  0  0  0  0  0  0  0
    9.4663  -17.0722   26.1648 O   0  0  0  0  0  0  0  0  0  0  0  0
   10.5299  -15.2046   25.5059 O   0  0  0  0  0  0  0  0  0  0  0  0
  1  2  1  0
  3  4  2  0
  3  2  1  0
  6  5  1  0
  7  6  2  0
  8  7  1  0
  9 15  1  0
  9  8  2  0
 10  9  1  0
 11 10  1  1
 11 12  1  0
 12  3  1  0
 13 17  1  0
 13 11  1  0
 14 13  2  0
 15 16  2  0
 16  6  1  0
 18 17  1  0
 18 29  1  0
 18 19  1  1
 20 28  1  0
 20 19  1  0
 21 20  2  0
 22 21  1  0
 22 23  1  0
 23 28  2  0
 24 23  1  0
 24 25  2  0
 25 26  1  0
 26 27  2  0
 28 27  1  0
 29 30  1  0
 31 29  2  0
M  END
$$$$
