GYW.pdb
     RDKit          3D

 31 33  0  0  1  0  0  0  0  0999 V2000
   10.7017  -18.9264   18.8298 N   0  0  0  0  0  0  0  0  0  0  0  0
    9.7655  -18.5955   19.8974 C   0  0  0  0  0  0  0  0  0  0  0  0
   10.2230  -17.3760   20.6195 C   0  0  0  0  0  0  0  0  0  0  0  0
   11.3599  -16.8789   20.4658 O   0  0  0  0  0  0  0  0  0  0  0  0
    6.6524  -13.2593   17.0145 O   0  0  0  0  0  0  0  0  0  0  0  0
    7.1638  -13.5281   18.2821 C   0  0  0  0  0  0  0  0  0  0  0  0
    6.5396  -14.5421   18.9852 C   0  0  0  0  0  0  0  0  0  0  0  0
    7.0293  -14.8229   20.2381 C   0  0  0  0  0  0  0  0  0  0  0  0
    8.0914  -14.1555   20.8159 C   0  0  0  0  0  0  0  0  0  0  0  0
    8.5882  -14.4872   22.1800 C   0  0  0  0  0  0  0  0  0  0  0  0
    9.6818  -15.4832   22.1756 C   0  0  2  0  0  0  0  0  0  0  0  0
    9.3590  -16.7263   21.5262 N   0  0  0  0  0  0  0  0  0  0  0  0
   10.1987  -15.7825   23.5239 C   0  0  0  0  0  0  0  0  0  0  0  0
   11.2389  -15.2617   24.0139 O   0  0  0  0  0  0  0  0  0  0  0  0
    8.6796  -13.1502   20.0697 C   0  0  0  0  0  0  0  0  0  0  0  0
    8.2161  -12.8482   18.8233 C   0  0  0  0  0  0  0  0  0  0  0  0
    9.5168  -16.6999   24.3428 N   0  0  0  0  0  0  0  0  0  0  0  0
    9.9478  -16.9409   25.7468 C   0  0  1  0  0  0  0  0  0  0  0  0
    9.7960  -15.6234   26.4203 C   0  0  0  0  0  0  0  0  0  0  0  0
    8.4496  -15.0714   26.3331 C   0  0  0  0  0  0  0  0  0  0  0  0
    7.3282  -15.7996   26.0247 C   0  0  0  0  0  0  0  0  0  0  0  0
    6.2935  -14.9604   25.9962 N   0  0  0  0  0  0  0  0  0  0  0  0
    6.7162  -13.7054   26.2796 C   0  0  0  0  0  0  0  0  0  0  0  0
    6.0202  -12.4984   26.3882 C   0  0  0  0  0  0  0  0  0  0  0  0
    6.6739  -11.3399   26.7138 C   0  0  0  0  0  0  0  0  0  0  0  0
    8.0344  -11.4249   26.9256 C   0  0  0  0  0  0  0  0  0  0  0  0
    8.7212  -12.5847   26.8233 C   0  0  0  0  0  0  0  0  0  0  0  0
    8.0713  -13.7668   26.4931 C   0  0  0  0  0  0  0  0  0  0  0  0
    9.0667  -17.9652   26.2950 C   0  0  0  0  0  0  0  0  0  0  0  0
    9.1938  -18.5058   27.5710 O   0  0  0  0  0  0  0  0  0  0  0  0
    8.1095  -18.4326   25.6031 O   0  0  0  0  0  0  0  0  0  0  0  0
  1  2  1  0
  3  4  2  0
  3  2  1  0
  6  5  1  0
  7  6  2  0
  8  7  1  0
  9 15  1  0
  9  8  2  0
 10  9  1  0
 11 10  1  1
 11 12  1  0
 12  3  1  0
 13 17  1  0
 13 11  1  0
 14 13  2  0
 15 16  2  0
 16  6  1  0
 18 17  1  0
 18 29  1  0
 18 19  1  1
 20 28  1  0
 20 19  1  0
 21 20  2  0
 22 21  1  0
 22 23  1  0
 23 28  2  0
 24 23  1  0
 24 25  2  0
 25 26  1  0
 26 27  2  0
 28 27  1  0
 29 30  1  0
 31 29  2  0
M  END
$$$$
