GYW.pdb
     RDKit          3D

 31 33  0  0  1  0  0  0  0  0999 V2000
    8.0649  -12.6694   18.5967 N   0  0  0  0  0  0  0  0  0  0  0  0
    9.1765  -12.9763   19.4889 C   0  0  0  0  0  0  0  0  0  0  0  0
    8.8795  -14.2081   20.2715 C   0  0  0  0  0  0  0  0  0  0  0  0
    7.7224  -14.5358   20.6138 O   0  0  0  0  0  0  0  0  0  0  0  0
    8.1987  -18.0403   15.5579 O   0  0  0  0  0  0  0  0  0  0  0  0
    8.6310  -17.9298   16.8775 C   0  0  0  0  0  0  0  0  0  0  0  0
    9.8613  -17.3265   17.0639 C   0  0  0  0  0  0  0  0  0  0  0  0
   10.3059  -17.2078   18.3587 C   0  0  0  0  0  0  0  0  0  0  0  0
    9.5986  -17.6525   19.4584 C   0  0  0  0  0  0  0  0  0  0  0  0
   10.1191  -17.5097   20.8463 C   0  0  0  0  0  0  0  0  0  0  0  0
    9.7343  -16.2318   21.4843 C   0  0  2  0  0  0  0  0  0  0  0  0
    9.9285  -15.0674   20.6610 N   0  0  0  0  0  0  0  0  0  0  0  0
   10.4047  -16.0047   22.7779 C   0  0  0  0  0  0  0  0  0  0  0  0
   11.5858  -15.5752   22.8962 O   0  0  0  0  0  0  0  0  0  0  0  0
    8.3740  -18.2483   19.2160 C   0  0  0  0  0  0  0  0  0  0  0  0
    7.9058  -18.3806   17.9421 C   0  0  0  0  0  0  0  0  0  0  0  0
    9.7167  -16.2719   23.9748 N   0  0  0  0  0  0  0  0  0  0  0  0
   10.4214  -16.2465   25.2854 C   0  0  1  0  0  0  0  0  0  0  0  0
   10.0287  -14.9505   25.9007 C   0  0  0  0  0  0  0  0  0  0  0  0
    8.5894  -14.7203   25.9160 C   0  0  0  0  0  0  0  0  0  0  0  0
    7.6453  -15.6748   25.6321 C   0  0  0  0  0  0  0  0  0  0  0  0
    6.4472  -15.0959   25.7037 N   0  0  0  0  0  0  0  0  0  0  0  0
    6.5909  -13.7889   26.0282 C   0  0  0  0  0  0  0  0  0  0  0  0
    5.6473  -12.7796   26.2371 C   0  0  0  0  0  0  0  0  0  0  0  0
    6.0402  -11.5149   26.5860 C   0  0  0  0  0  0  0  0  0  0  0  0
    7.3952  -11.2924   26.7185 C   0  0  0  0  0  0  0  0  0  0  0  0
    8.3196  -12.2583   26.5189 C   0  0  0  0  0  0  0  0  0  0  0  0
    7.9355  -13.5449   26.1639 C   0  0  0  0  0  0  0  0  0  0  0  0
    9.9554  -17.4011   26.0442 C   0  0  0  0  0  0  0  0  0  0  0  0
   10.4815  -17.7961   27.2704 O   0  0  0  0  0  0  0  0  0  0  0  0
    9.0153  -18.1305   25.5995 O   0  0  0  0  0  0  0  0  0  0  0  0
  1  2  1  0
  3  4  2  0
  3  2  1  0
  6  5  1  0
  7  6  2  0
  8  7  1  0
  9 15  1  0
  9  8  2  0
 10  9  1  0
 11 10  1  6
 11 12  1  0
 12  3  1  0
 13 17  1  0
 13 11  1  0
 14 13  2  0
 15 16  2  0
 16  6  1  0
 18 17  1  0
 18 29  1  0
 18 19  1  1
 20 28  1  0
 20 19  1  0
 21 20  2  0
 22 21  1  0
 22 23  1  0
 23 28  2  0
 24 23  1  0
 24 25  2  0
 25 26  1  0
 26 27  2  0
 28 27  1  0
 29 30  1  0
 31 29  2  0
M  END
$$$$
