GYW.pdb
     RDKit          3D

 31 33  0  0  1  0  0  0  0  0999 V2000
    5.4768  -15.4909   19.8654 N   0  0  0  0  0  0  0  0  0  0  0  0
    6.5849  -14.9294   20.6287 C   0  0  0  0  0  0  0  0  0  0  0  0
    7.1398  -15.9549   21.5552 C   0  0  0  0  0  0  0  0  0  0  0  0
    6.4572  -16.5138   22.4413 O   0  0  0  0  0  0  0  0  0  0  0  0
   11.9321  -22.3483   25.0228 O   0  0  0  0  0  0  0  0  0  0  0  0
   11.5296  -21.2905   24.2107 C   0  0  0  0  0  0  0  0  0  0  0  0
   10.2744  -21.4062   23.6420 C   0  0  0  0  0  0  0  0  0  0  0  0
    9.8586  -20.3729   22.8372 C   0  0  0  0  0  0  0  0  0  0  0  0
   10.6176  -19.2493   22.5748 C   0  0  0  0  0  0  0  0  0  0  0  0
   10.1318  -18.1533   21.6913 C   0  0  0  0  0  0  0  0  0  0  0  0
    9.1134  -17.2946   22.3344 C   0  0  2  0  0  0  0  0  0  0  0  0
    8.4943  -16.3372   21.4561 N   0  0  0  0  0  0  0  0  0  0  0  0
    9.6227  -16.5790   23.5188 C   0  0  0  0  0  0  0  0  0  0  0  0
   10.3759  -15.5675   23.4639 O   0  0  0  0  0  0  0  0  0  0  0  0
   11.8652  -19.1838   23.1686 C   0  0  0  0  0  0  0  0  0  0  0  0
   12.3059  -20.1936   23.9723 C   0  0  0  0  0  0  0  0  0  0  0  0
    9.2680  -17.0220   24.8054 N   0  0  0  0  0  0  0  0  0  0  0  0
    9.7724  -16.3268   26.0209 C   0  0  1  0  0  0  0  0  0  0  0  0
    8.5809  -16.1913   26.9007 C   0  0  0  0  0  0  0  0  0  0  0  0
    7.6159  -15.2034   26.4338 C   0  0  0  0  0  0  0  0  0  0  0  0
    6.4762  -15.5007   25.7298 C   0  0  0  0  0  0  0  0  0  0  0  0
    5.8662  -14.3521   25.4396 N   0  0  0  0  0  0  0  0  0  0  0  0
    6.5820  -13.3166   25.9390 C   0  0  0  0  0  0  0  0  0  0  0  0
    6.3534  -11.9382   25.9144 C   0  0  0  0  0  0  0  0  0  0  0  0
    7.2253  -11.0727   26.5195 C   0  0  0  0  0  0  0  0  0  0  0  0
    8.3245  -11.6239   27.1450 C   0  0  0  0  0  0  0  0  0  0  0  0
    8.5594  -12.9547   27.1763 C   0  0  0  0  0  0  0  0  0  0  0  0
    7.6840  -13.8437   26.5662 C   0  0  0  0  0  0  0  0  0  0  0  0
   10.8119  -17.1718   26.5967 C   0  0  0  0  0  0  0  0  0  0  0  0
   11.1918  -18.4070   26.0804 O   0  0  0  0  0  0  0  0  0  0  0  0
   11.4378  -16.8066   27.6399 O   0  0  0  0  0  0  0  0  0  0  0  0
  1  2  1  0
  3  4  2  0
  3  2  1  0
  6  5  1  0
  7  6  2  0
  8  7  1  0
  9 15  1  0
  9  8  2  0
 10  9  1  0
 11 10  1  6
 11 12  1  0
 12  3  1  0
 13 17  1  0
 13 11  1  0
 14 13  2  0
 15 16  2  0
 16  6  1  0
 18 17  1  0
 18 29  1  0
 18 19  1  1
 20 28  1  0
 20 19  1  0
 21 20  2  0
 22 21  1  0
 22 23  1  0
 23 28  2  0
 24 23  1  0
 24 25  2  0
 25 26  1  0
 26 27  2  0
 28 27  1  0
 29 30  1  0
 31 29  2  0
M  END
$$$$
