GYW.pdb
     RDKit          3D

 31 33  0  0  1  0  0  0  0  0999 V2000
    8.3274  -13.4932   17.3644 N   0  0  0  0  0  0  0  0  0  0  0  0
    9.3728  -13.2971   18.3617 C   0  0  0  0  0  0  0  0  0  0  0  0
    9.6802  -14.5862   19.0411 C   0  0  0  0  0  0  0  0  0  0  0  0
    9.0507  -15.6427   18.8158 O   0  0  0  0  0  0  0  0  0  0  0  0
   16.1683  -13.3194   18.0165 O   0  0  0  0  0  0  0  0  0  0  0  0
   15.1655  -14.1100   18.5731 C   0  0  0  0  0  0  0  0  0  0  0  0
   15.4230  -14.6176   19.8333 C   0  0  0  0  0  0  0  0  0  0  0  0
   14.4460  -15.4003   20.4000 C   0  0  0  0  0  0  0  0  0  0  0  0
   13.2458  -15.6977   19.7848 C   0  0  0  0  0  0  0  0  0  0  0  0
   12.2147  -16.5555   20.4317 C   0  0  0  0  0  0  0  0  0  0  0  0
   10.9864  -15.8161   20.7957 C   0  0  2  0  0  0  0  0  0  0  0  0
   10.7239  -14.6540   19.9882 N   0  0  0  0  0  0  0  0  0  0  0  0
   10.9498  -15.4154   22.2144 C   0  0  0  0  0  0  0  0  0  0  0  0
   11.2762  -14.2706   22.6342 O   0  0  0  0  0  0  0  0  0  0  0  0
   13.0391  -15.1646   18.5253 C   0  0  0  0  0  0  0  0  0  0  0  0
   13.9899  -14.3842   17.9365 C   0  0  0  0  0  0  0  0  0  0  0  0
   10.5306  -16.3394   23.1879 N   0  0  0  0  0  0  0  0  0  0  0  0
    9.7613  -15.8970   24.3827 C   0  0  1  0  0  0  0  0  0  0  0  0
    8.5278  -15.2766   23.8297 C   0  0  0  0  0  0  0  0  0  0  0  0
    7.5863  -14.8322   24.8500 C   0  0  0  0  0  0  0  0  0  0  0  0
    6.6020  -15.6172   25.3958 C   0  0  0  0  0  0  0  0  0  0  0  0
    5.9153  -14.8680   26.2576 N   0  0  0  0  0  0  0  0  0  0  0  0
    6.4307  -13.6160   26.2850 C   0  0  0  0  0  0  0  0  0  0  0  0
    6.0772  -12.4873   27.0293 C   0  0  0  0  0  0  0  0  0  0  0  0
    6.7747  -11.3159   26.8991 C   0  0  0  0  0  0  0  0  0  0  0  0
    7.8282  -11.3080   26.0086 C   0  0  0  0  0  0  0  0  0  0  0  0
    8.1814  -12.3913   25.2813 C   0  0  0  0  0  0  0  0  0  0  0  0
    7.4825  -13.5854   25.4026 C   0  0  0  0  0  0  0  0  0  0  0  0
    9.4911  -17.0862   25.1820 C   0  0  0  0  0  0  0  0  0  0  0  0
    9.6392  -18.3904   24.7196 O   0  0  0  0  0  0  0  0  0  0  0  0
    9.0868  -16.9809   26.3815 O   0  0  0  0  0  0  0  0  0  0  0  0
  1  2  1  0
  3  4  2  0
  3  2  1  0
  6  5  1  0
  7  6  2  0
  8  7  1  0
  9 15  1  0
  9  8  2  0
 10  9  1  0
 11 10  1  6
 11 12  1  0
 12  3  1  0
 13 17  1  0
 13 11  1  0
 14 13  2  0
 15 16  2  0
 16  6  1  0
 18 17  1  0
 18 29  1  0
 18 19  1  6
 20 28  1  0
 20 19  1  0
 21 20  2  0
 22 21  1  0
 22 23  1  0
 23 28  2  0
 24 23  1  0
 24 25  2  0
 25 26  1  0
 26 27  2  0
 28 27  1  0
 29 30  1  0
 31 29  2  0
M  END
$$$$
