PNK.pdb
     RDKit          3D

 25 25  0  0  1  0  0  0  0  0999 V2000
   27.3927  -18.9604  -14.5500 N   0  0  0  0  0  0  0  0  0  0  0  0
   28.2088  -19.3460  -13.4184 C   0  0  0  0  0  0  0  0  0  0  0  0
   28.8538  -20.6625  -13.7295 C   0  0  0  0  0  0  0  0  0  0  0  0
   28.3505  -20.9846  -15.0964 C   0  0  0  0  0  0  0  0  0  0  0  0
   27.0474  -20.2308  -15.1471 C   0  0  1  0  0  0  0  0  0  0  0  0
   25.9663  -20.8470  -14.3743 C   0  0  0  0  0  0  0  0  0  0  0  0
   25.5564  -21.9889  -14.6588 O   0  0  0  0  0  0  0  0  0  0  0  0
   26.2964  -20.3677   -9.4781 N   0  0  0  0  0  0  0  0  0  0  0  0
   25.5067  -21.0505  -10.4188 C   0  0  0  0  0  0  0  0  0  0  0  0
   25.8802  -22.2339  -10.7490 O   0  0  0  0  0  0  0  0  0  0  0  0
   24.2931  -20.5684  -11.0767 C   0  0  0  0  0  0  0  0  0  0  0  0
   24.2356  -20.7993  -12.5629 C   0  0  2  0  0  0  0  0  0  0  0  0
   25.3236  -20.2030  -13.2723 N   0  0  0  0  0  0  0  0  0  0  0  0
   22.9002  -20.3206  -13.0446 C   0  0  0  0  0  0  0  0  0  0  0  0
   22.5406  -19.1224  -12.8530 O   0  0  0  0  0  0  0  0  0  0  0  0
   22.0651  -21.2510  -13.7151 N   0  0  0  0  0  0  0  0  0  0  0  0
   20.7439  -20.8566  -14.2174 C   0  0  1  0  0  0  0  0  0  0  0  0
   20.3917  -21.7988  -15.3396 C   0  0  0  0  0  0  0  0  0  0  0  0
   19.0711  -21.5434  -15.9793 C   0  0  0  0  0  0  0  0  0  0  0  0
   18.7569  -22.5149  -17.0866 C   0  0  0  0  0  0  0  0  0  0  0  0
   17.4526  -22.2051  -17.7691 C   0  0  0  0  0  0  0  0  0  0  0  0
   17.0951  -23.1409  -18.7873 N   0  0  0  0  0  0  0  0  0  0  0  0
   19.7504  -20.8578  -13.1189 C   0  0  0  0  0  0  0  0  0  0  0  0
   18.8174  -20.0229  -13.1300 O   0  0  0  0  0  0  0  0  0  0  0  0
   19.8140  -21.7575  -12.0667 O   0  0  0  0  0  0  0  0  0  0  0  0
  1  2  1  0
  2  3  1  0
  4  3  1  0
  5  1  1  0
  5  4  1  0
  5  6  1  1
  7  6  2  0
  8  9  1  0
  9 11  1  0
 10  9  2  0
 12 11  1  1
 12 13  1  0
 13  6  1  0
 14 12  1  0
 14 15  2  0
 16 14  1  0
 17 16  1  0
 17 18  1  6
 19 18  1  0
 19 20  1  0
 21 22  1  0
 21 20  1  0
 23 17  1  0
 24 23  2  0
 25 23  1  0
M  END
$$$$
