PNK.pdb
     RDKit          3D

 25 25  0  0  1  0  0  0  0  0999 V2000
   28.6064  -20.3661  -16.4364 N   0  0  0  0  0  0  0  0  0  0  0  0
   27.4543  -20.0512  -17.2542 C   0  0  0  0  0  0  0  0  0  0  0  0
   27.0074  -18.6596  -16.9228 C   0  0  0  0  0  0  0  0  0  0  0  0
   27.9761  -18.2207  -15.8766 C   0  0  0  0  0  0  0  0  0  0  0  0
   28.4155  -19.5292  -15.2734 C   0  0  1  0  0  0  0  0  0  0  0  0
   27.4219  -20.1487  -14.3933 C   0  0  0  0  0  0  0  0  0  0  0  0
   26.7219  -21.0970  -14.7979 O   0  0  0  0  0  0  0  0  0  0  0  0
   24.4921  -21.5522  -10.1110 N   0  0  0  0  0  0  0  0  0  0  0  0
   25.6012  -20.7510   -9.7901 C   0  0  0  0  0  0  0  0  0  0  0  0
   25.8326  -20.5422   -8.5444 O   0  0  0  0  0  0  0  0  0  0  0  0
   26.5370  -20.1172  -10.7177 C   0  0  0  0  0  0  0  0  0  0  0  0
   26.2855  -20.4005  -12.1744 C   0  0  2  0  0  0  0  0  0  0  0  0
   27.1909  -19.7236  -13.0487 N   0  0  0  0  0  0  0  0  0  0  0  0
   24.8520  -20.0711  -12.4591 C   0  0  0  0  0  0  0  0  0  0  0  0
   24.4773  -18.8661  -12.5554 O   0  0  0  0  0  0  0  0  0  0  0  0
   23.9427  -21.1489  -12.6146 N   0  0  0  0  0  0  0  0  0  0  0  0
   22.5894  -20.9274  -13.1372 C   0  0  1  0  0  0  0  0  0  0  0  0
   22.1917  -22.1699  -13.8916 C   0  0  0  0  0  0  0  0  0  0  0  0
   20.8339  -22.1228  -14.5023 C   0  0  0  0  0  0  0  0  0  0  0  0
   20.4135  -23.4390  -15.1020 C   0  0  0  0  0  0  0  0  0  0  0  0
   19.0367  -23.3812  -15.7053 C   0  0  0  0  0  0  0  0  0  0  0  0
   18.6429  -24.5847  -16.3660 N   0  0  0  0  0  0  0  0  0  0  0  0
   21.6581  -20.5878  -12.0367 C   0  0  0  0  0  0  0  0  0  0  0  0
   21.9019  -20.9896  -10.8762 O   0  0  0  0  0  0  0  0  0  0  0  0
   20.5139  -19.8338  -12.2438 O   0  0  0  0  0  0  0  0  0  0  0  0
  1  2  1  0
  2  3  1  0
  4  3  1  0
  5  1  1  0
  5  4  1  0
  5  6  1  1
  7  6  2  0
  8  9  1  0
  9 11  1  0
 10  9  2  0
 12 11  1  1
 12 13  1  0
 13  6  1  0
 14 12  1  0
 14 15  2  0
 16 14  1  0
 17 16  1  0
 17 18  1  1
 19 18  1  0
 19 20  1  0
 21 22  1  0
 21 20  1  0
 23 17  1  0
 24 23  2  0
 25 23  1  0
M  END
$$$$
