PNK.pdb
     RDKit          3D

 25 25  0  0  1  0  0  0  0  0999 V2000
   18.8640  -10.8590  -15.8904 N   0  0  0  0  0  0  0  0  0  0  0  0
   17.9901  -11.8158  -15.2454 C   0  0  0  0  0  0  0  0  0  0  0  0
   16.6022  -11.2505  -15.2299 C   0  0  0  0  0  0  0  0  0  0  0  0
   16.7554   -9.9279  -15.9028 C   0  0  0  0  0  0  0  0  0  0  0  0
   18.2020   -9.5983  -15.6422 C   0  0  1  0  0  0  0  0  0  0  0  0
   18.4828   -9.1699  -14.2699 C   0  0  0  0  0  0  0  0  0  0  0  0
   17.9026   -9.7085  -13.3076 O   0  0  0  0  0  0  0  0  0  0  0  0
   20.5016   -6.8317   -9.9050 N   0  0  0  0  0  0  0  0  0  0  0  0
   21.1844   -6.4640  -11.0770 C   0  0  0  0  0  0  0  0  0  0  0  0
   22.2523   -5.7646  -10.9381 O   0  0  0  0  0  0  0  0  0  0  0  0
   20.8198   -6.7867  -12.4557 C   0  0  0  0  0  0  0  0  0  0  0  0
   19.6134   -7.6737  -12.6081 C   0  0  2  0  0  0  0  0  0  0  0  0
   19.4138   -8.1353  -13.9458 N   0  0  0  0  0  0  0  0  0  0  0  0
   18.4308   -6.9264  -12.0721 C   0  0  0  0  0  0  0  0  0  0  0  0
   17.7756   -6.1416  -12.8180 O   0  0  0  0  0  0  0  0  0  0  0  0
   18.0784   -7.1302  -10.7130 N   0  0  0  0  0  0  0  0  0  0  0  0
   16.8853   -6.4984  -10.1379 C   0  0  1  0  0  0  0  0  0  0  0  0
   15.8993   -7.5968   -9.8339 C   0  0  0  0  0  0  0  0  0  0  0  0
   14.6009   -7.1332   -9.2702 C   0  0  0  0  0  0  0  0  0  0  0  0
   13.6497   -8.2640   -8.9785 C   0  0  0  0  0  0  0  0  0  0  0  0
   12.3238   -7.7793   -8.4590 C   0  0  0  0  0  0  0  0  0  0  0  0
   11.3978   -8.8270   -8.1677 N   0  0  0  0  0  0  0  0  0  0  0  0
   17.2478   -5.6921   -8.9496 C   0  0  0  0  0  0  0  0  0  0  0  0
   18.2373   -6.0235   -8.2577 O   0  0  0  0  0  0  0  0  0  0  0  0
   16.5259   -4.5720   -8.5690 O   0  0  0  0  0  0  0  0  0  0  0  0
  1  2  1  0
  2  3  1  0
  4  3  1  0
  5  1  1  0
  5  4  1  0
  5  6  1  1
  7  6  2  0
  8  9  1  0
  9 11  1  0
 10  9  2  0
 12 11  1  6
 12 13  1  0
 13  6  1  0
 14 12  1  0
 14 15  2  0
 16 14  1  0
 17 16  1  0
 17 18  1  1
 19 18  1  0
 19 20  1  0
 21 22  1  0
 21 20  1  0
 23 17  1  0
 24 23  2  0
 25 23  1  0
M  END
$$$$
