PNK.pdb
     RDKit          3D

 25 25  0  0  1  0  0  0  0  0999 V2000
   26.7373  -18.7475  -15.5349 N   0  0  0  0  0  0  0  0  0  0  0  0
   27.8566  -19.2805  -14.7878 C   0  0  0  0  0  0  0  0  0  0  0  0
   28.3048  -20.5478  -15.4505 C   0  0  0  0  0  0  0  0  0  0  0  0
   27.3722  -20.6870  -16.6066 C   0  0  0  0  0  0  0  0  0  0  0  0
   26.1591  -19.9278  -16.1366 C   0  0  1  0  0  0  0  0  0  0  0  0
   25.3586  -20.6352  -15.1343 C   0  0  0  0  0  0  0  0  0  0  0  0
   24.8112  -21.7197  -15.4121 O   0  0  0  0  0  0  0  0  0  0  0  0
   25.9613  -22.7770  -11.6701 N   0  0  0  0  0  0  0  0  0  0  0  0
   25.4777  -21.6626  -10.9636 C   0  0  0  0  0  0  0  0  0  0  0  0
   25.8426  -21.5418   -9.7384 O   0  0  0  0  0  0  0  0  0  0  0  0
   24.5959  -20.6086  -11.4632 C   0  0  0  0  0  0  0  0  0  0  0  0
   24.2061  -20.7330  -12.9116 C   0  0  2  0  0  0  0  0  0  0  0  0
   25.1541  -20.1477  -13.8067 N   0  0  0  0  0  0  0  0  0  0  0  0
   22.8334  -20.1522  -13.0630 C   0  0  0  0  0  0  0  0  0  0  0  0
   22.6144  -18.9394  -12.7752 O   0  0  0  0  0  0  0  0  0  0  0  0
   21.8018  -21.0039  -13.5353 N   0  0  0  0  0  0  0  0  0  0  0  0
   20.4414  -20.4971  -13.7499 C   0  0  1  0  0  0  0  0  0  0  0  0
   20.0203  -20.9169  -15.1346 C   0  0  0  0  0  0  0  0  0  0  0  0
   18.6544  -20.4765  -15.5333 C   0  0  0  0  0  0  0  0  0  0  0  0
   18.2554  -20.9650  -16.9011 C   0  0  0  0  0  0  0  0  0  0  0  0
   16.9316  -20.4064  -17.3465 C   0  0  0  0  0  0  0  0  0  0  0  0
   16.4761  -20.9237  -18.5975 N   0  0  0  0  0  0  0  0  0  0  0  0
   19.5324  -20.9872  -12.6882 C   0  0  0  0  0  0  0  0  0  0  0  0
   19.7245  -22.1174  -12.1849 O   0  0  0  0  0  0  0  0  0  0  0  0
   18.4650  -20.2348  -12.2246 O   0  0  0  0  0  0  0  0  0  0  0  0
  1  2  1  0
  2  3  1  0
  4  3  1  0
  5  1  1  0
  5  4  1  0
  5  6  1  1
  7  6  2  0
  8  9  1  0
  9 11  1  0
 10  9  2  0
 12 11  1  1
 12 13  1  0
 13  6  1  0
 14 12  1  0
 14 15  2  0
 16 14  1  0
 17 16  1  0
 17 18  1  6
 19 18  1  0
 19 20  1  0
 21 22  1  0
 21 20  1  0
 23 17  1  0
 24 23  2  0
 25 23  1  0
M  END
$$$$
