PNK.pdb
     RDKit          3D

 25 25  0  0  1  0  0  0  0  0999 V2000
   18.2699  -10.6749  -15.5908 N   0  0  0  0  0  0  0  0  0  0  0  0
   17.5360  -11.7972  -15.0457 C   0  0  0  0  0  0  0  0  0  0  0  0
   16.0809  -11.4397  -15.0178 C   0  0  0  0  0  0  0  0  0  0  0  0
   16.0491  -10.0576  -15.5783 C   0  0  0  0  0  0  0  0  0  0  0  0
   17.4295   -9.5469  -15.2579 C   0  0  1  0  0  0  0  0  0  0  0  0
   17.6291   -9.1981  -13.8493 C   0  0  0  0  0  0  0  0  0  0  0  0
   17.0220   -9.8146  -12.9525 O   0  0  0  0  0  0  0  0  0  0  0  0
   21.3165   -8.8699  -12.7228 N   0  0  0  0  0  0  0  0  0  0  0  0
   21.1379   -7.6196  -12.1066 C   0  0  0  0  0  0  0  0  0  0  0  0
   22.1964   -6.9557  -11.8102 O   0  0  0  0  0  0  0  0  0  0  0  0
   19.8733   -6.9742  -11.7571 C   0  0  0  0  0  0  0  0  0  0  0  0
   18.6393   -7.7878  -12.0412 C   0  0  2  0  0  0  0  0  0  0  0  0
   18.5073   -8.1576  -13.4153 N   0  0  0  0  0  0  0  0  0  0  0  0
   17.4602   -7.0146  -11.5350 C   0  0  0  0  0  0  0  0  0  0  0  0
   16.9074   -6.1383  -12.2618 O   0  0  0  0  0  0  0  0  0  0  0  0
   16.9935   -7.2992  -10.2258 N   0  0  0  0  0  0  0  0  0  0  0  0
   15.8141   -6.6187   -9.6785 C   0  0  1  0  0  0  0  0  0  0  0  0
   14.8867   -7.6836   -9.1522 C   0  0  0  0  0  0  0  0  0  0  0  0
   13.6423   -7.1696   -8.5150 C   0  0  0  0  0  0  0  0  0  0  0  0
   12.7373   -8.2685   -8.0227 C   0  0  0  0  0  0  0  0  0  0  0  0
   11.5168   -7.7364   -7.3226 C   0  0  0  0  0  0  0  0  0  0  0  0
   10.6865   -8.7505   -6.7548 N   0  0  0  0  0  0  0  0  0  0  0  0
   16.2162   -5.6322   -8.6495 C   0  0  0  0  0  0  0  0  0  0  0  0
   17.2461   -5.8369   -7.9677 O   0  0  0  0  0  0  0  0  0  0  0  0
   15.4882   -4.4777   -8.4090 O   0  0  0  0  0  0  0  0  0  0  0  0
  1  2  1  0
  2  3  1  0
  4  3  1  0
  5  1  1  0
  5  4  1  0
  5  6  1  1
  7  6  2  0
  8  9  1  0
  9 11  1  0
 10  9  2  0
 12 11  1  6
 12 13  1  0
 13  6  1  0
 14 12  1  0
 14 15  2  0
 16 14  1  0
 17 16  1  0
 17 18  1  1
 19 18  1  0
 19 20  1  0
 21 22  1  0
 21 20  1  0
 23 17  1  0
 24 23  2  0
 25 23  1  0
M  END
$$$$
