PNK.pdb
     RDKit          3D

 25 25  0  0  1  0  0  0  0  0999 V2000
   27.8045  -20.1755  -15.9626 N   0  0  0  0  0  0  0  0  0  0  0  0
   29.0287  -20.6617  -15.3625 C   0  0  0  0  0  0  0  0  0  0  0  0
   29.2192  -22.0906  -15.7725 C   0  0  0  0  0  0  0  0  0  0  0  0
   28.0332  -22.3688  -16.6336 C   0  0  0  0  0  0  0  0  0  0  0  0
   27.0205  -21.3799  -16.1184 C   0  0  1  0  0  0  0  0  0  0  0  0
   26.4317  -21.7407  -14.8266 C   0  0  0  0  0  0  0  0  0  0  0  0
   25.6915  -22.7380  -14.7250 O   0  0  0  0  0  0  0  0  0  0  0  0
   24.3072  -21.3077   -9.9358 N   0  0  0  0  0  0  0  0  0  0  0  0
   25.5783  -20.7158  -10.0312 C   0  0  0  0  0  0  0  0  0  0  0  0
   26.1201  -20.3117   -8.9394 O   0  0  0  0  0  0  0  0  0  0  0  0
   26.3696  -20.5017  -11.2419 C   0  0  0  0  0  0  0  0  0  0  0  0
   25.7760  -21.0687  -12.5035 C   0  0  2  0  0  0  0  0  0  0  0  0
   26.6567  -20.9978  -13.6268 N   0  0  0  0  0  0  0  0  0  0  0  0
   24.4734  -20.3694  -12.7455 C   0  0  0  0  0  0  0  0  0  0  0  0
   24.4182  -19.1053  -12.7692 O   0  0  0  0  0  0  0  0  0  0  0  0
   23.3187  -21.1694  -12.9444 N   0  0  0  0  0  0  0  0  0  0  0  0
   22.0177  -20.5592  -13.2419 C   0  0  1  0  0  0  0  0  0  0  0  0
   21.6831  -20.8931  -14.6728 C   0  0  0  0  0  0  0  0  0  0  0  0
   20.3595  -20.3932  -15.1384 C   0  0  0  0  0  0  0  0  0  0  0  0
   20.0217  -20.8394  -16.5368 C   0  0  0  0  0  0  0  0  0  0  0  0
   18.6833  -20.3279  -16.9950 C   0  0  0  0  0  0  0  0  0  0  0  0
   18.2996  -20.7897  -18.2910 N   0  0  0  0  0  0  0  0  0  0  0  0
   20.9944  -21.0248  -12.2777 C   0  0  0  0  0  0  0  0  0  0  0  0
   21.0429  -22.1989  -11.8456 O   0  0  0  0  0  0  0  0  0  0  0  0
   19.9732  -20.2019  -11.8298 O   0  0  0  0  0  0  0  0  0  0  0  0
  1  2  1  0
  2  3  1  0
  4  3  1  0
  5  1  1  0
  5  4  1  0
  5  6  1  1
  7  6  2  0
  8  9  1  0
  9 11  1  0
 10  9  2  0
 12 11  1  1
 12 13  1  0
 13  6  1  0
 14 12  1  0
 14 15  2  0
 16 14  1  0
 17 16  1  0
 17 18  1  6
 19 18  1  0
 19 20  1  0
 21 22  1  0
 21 20  1  0
 23 17  1  0
 24 23  2  0
 25 23  1  0
M  END
$$$$
