PNK.pdb
     RDKit          3D

 25 25  0  0  1  0  0  0  0  0999 V2000
   23.3337   -9.8095  -14.6776 N   0  0  0  0  0  0  0  0  0  0  0  0
   23.0155  -10.8701  -13.7454 C   0  0  0  0  0  0  0  0  0  0  0  0
   21.8745  -11.6637  -14.3061 C   0  0  0  0  0  0  0  0  0  0  0  0
   21.5788  -10.9845  -15.6010 C   0  0  0  0  0  0  0  0  0  0  0  0
   22.0755   -9.5843  -15.3526 C   0  0  1  0  0  0  0  0  0  0  0  0
   21.2045   -8.7819  -14.4905 C   0  0  0  0  0  0  0  0  0  0  0  0
   20.0382   -8.5169  -14.8403 O   0  0  0  0  0  0  0  0  0  0  0  0
   20.1375   -5.6785   -9.4064 N   0  0  0  0  0  0  0  0  0  0  0  0
   19.9193   -6.8212  -10.1949 C   0  0  0  0  0  0  0  0  0  0  0  0
   18.7229   -7.2858  -10.2352 O   0  0  0  0  0  0  0  0  0  0  0  0
   20.9053   -7.5555  -10.9865 C   0  0  0  0  0  0  0  0  0  0  0  0
   20.8166   -7.3457  -12.4743 C   0  0  2  0  0  0  0  0  0  0  0  0
   21.6168   -8.2612  -13.2252 N   0  0  0  0  0  0  0  0  0  0  0  0
   21.1619   -5.9144  -12.7514 C   0  0  0  0  0  0  0  0  0  0  0  0
   22.3427   -5.4938  -12.5771 O   0  0  0  0  0  0  0  0  0  0  0  0
   20.1268   -5.0600  -13.2111 N   0  0  0  0  0  0  0  0  0  0  0  0
   20.4248   -3.7153  -13.7175 C   0  0  1  0  0  0  0  0  0  0  0  0
   19.8391   -3.6183  -15.1026 C   0  0  0  0  0  0  0  0  0  0  0  0
   20.0892   -2.3251  -15.7980 C   0  0  0  0  0  0  0  0  0  0  0  0
   19.5923   -2.3170  -17.2200 C   0  0  0  0  0  0  0  0  0  0  0  0
   19.7569   -0.9742  -17.8778 C   0  0  0  0  0  0  0  0  0  0  0  0
   19.4814   -0.9783  -19.2793 N   0  0  0  0  0  0  0  0  0  0  0  0
   19.9051   -2.6850  -12.7890 C   0  0  0  0  0  0  0  0  0  0  0  0
   18.8354   -2.8932  -12.1726 O   0  0  0  0  0  0  0  0  0  0  0  0
   20.5644   -1.4852  -12.5733 O   0  0  0  0  0  0  0  0  0  0  0  0
  1  2  1  0
  2  3  1  0
  4  3  1  0
  5  1  1  0
  5  4  1  0
  5  6  1  1
  7  6  2  0
  8  9  1  0
  9 11  1  0
 10  9  2  0
 12 11  1  1
 12 13  1  0
 13  6  1  0
 14 12  1  0
 14 15  2  0
 16 14  1  0
 17 16  1  0
 17 18  1  6
 19 18  1  0
 19 20  1  0
 21 22  1  0
 21 20  1  0
 23 17  1  0
 24 23  2  0
 25 23  1  0
M  END
$$$$
