PNK.pdb
     RDKit          3D

 25 25  0  0  1  0  0  0  0  0999 V2000
   23.0428  -21.1906  -16.1213 N   0  0  0  0  0  0  0  0  0  0  0  0
   22.4730  -19.9301  -16.5475 C   0  0  0  0  0  0  0  0  0  0  0  0
   23.4763  -18.8476  -16.2875 C   0  0  0  0  0  0  0  0  0  0  0  0
   24.6339  -19.5783  -15.6945 C   0  0  0  0  0  0  0  0  0  0  0  0
   23.9758  -20.7918  -15.0918 C   0  0  1  0  0  0  0  0  0  0  0  0
   23.2399  -20.5237  -13.8540 C   0  0  0  0  0  0  0  0  0  0  0  0
   23.8315  -20.0868  -12.8480 O   0  0  0  0  0  0  0  0  0  0  0  0
   18.5189  -18.7359  -10.7495 N   0  0  0  0  0  0  0  0  0  0  0  0
   19.8750  -18.8909  -11.0839 C   0  0  0  0  0  0  0  0  0  0  0  0
   20.7328  -18.7329  -10.1415 O   0  0  0  0  0  0  0  0  0  0  0  0
   20.4350  -19.2151  -12.3951 C   0  0  0  0  0  0  0  0  0  0  0  0
   21.1457  -20.5392  -12.4782 C   0  0  2  0  0  0  0  0  0  0  0  0
   21.8338  -20.7374  -13.7150 N   0  0  0  0  0  0  0  0  0  0  0  0
   20.1384  -21.6125  -12.1989 C   0  0  0  0  0  0  0  0  0  0  0  0
   19.5268  -22.1817  -13.1495 O   0  0  0  0  0  0  0  0  0  0  0  0
   19.9000  -21.9613  -10.8446 N   0  0  0  0  0  0  0  0  0  0  0  0
   18.9536  -23.0264  -10.4931 C   0  0  1  0  0  0  0  0  0  0  0  0
   19.1799  -23.3658   -9.0424 C   0  0  0  0  0  0  0  0  0  0  0  0
   18.3589  -24.4980   -8.5298 C   0  0  0  0  0  0  0  0  0  0  0  0
   18.6870  -24.8643   -7.1060 C   0  0  0  0  0  0  0  0  0  0  0  0
   17.7787  -25.9342   -6.5647 C   0  0  0  0  0  0  0  0  0  0  0  0
   18.0086  -26.2483   -5.1904 N   0  0  0  0  0  0  0  0  0  0  0  0
   17.5648  -22.6026  -10.7852 C   0  0  0  0  0  0  0  0  0  0  0  0
   17.2299  -21.4116  -10.5931 O   0  0  0  0  0  0  0  0  0  0  0  0
   16.6101  -23.4834  -11.2684 O   0  0  0  0  0  0  0  0  0  0  0  0
  1  2  1  0
  2  3  1  0
  4  3  1  0
  5  1  1  0
  5  4  1  0
  5  6  1  1
  7  6  2  0
  8  9  1  0
  9 11  1  0
 10  9  2  0
 12 11  1  6
 12 13  1  0
 13  6  1  0
 14 12  1  0
 14 15  2  0
 16 14  1  0
 17 16  1  0
 17 18  1  1
 19 18  1  0
 19 20  1  0
 21 22  1  0
 21 20  1  0
 23 17  1  0
 24 23  2  0
 25 23  1  0
M  END
$$$$
