PNK.pdb
     RDKit          3D

 25 25  0  0  1  0  0  0  0  0999 V2000
   27.9903  -19.7882  -13.9855 N   0  0  0  0  0  0  0  0  0  0  0  0
   28.5417  -20.1197  -15.2821 C   0  0  0  0  0  0  0  0  0  0  0  0
   28.3583  -18.9398  -16.1877 C   0  0  0  0  0  0  0  0  0  0  0  0
   27.6754  -17.9360  -15.3209 C   0  0  0  0  0  0  0  0  0  0  0  0
   26.9802  -18.8050  -14.3057 C   0  0  1  0  0  0  0  0  0  0  0  0
   25.7888  -19.4883  -14.8150 C   0  0  0  0  0  0  0  0  0  0  0  0
   25.1471  -19.0130  -15.7716 O   0  0  0  0  0  0  0  0  0  0  0  0
   25.8727  -24.6620  -14.9283 N   0  0  0  0  0  0  0  0  0  0  0  0
   25.1134  -23.5538  -15.3412 C   0  0  0  0  0  0  0  0  0  0  0  0
   25.3211  -23.1106  -16.5283 O   0  0  0  0  0  0  0  0  0  0  0  0
   24.1006  -22.8342  -14.5703 C   0  0  0  0  0  0  0  0  0  0  0  0
   24.1017  -21.3398  -14.7493 C   0  0  2  0  0  0  0  0  0  0  0  0
   25.2919  -20.7116  -14.2683 N   0  0  0  0  0  0  0  0  0  0  0  0
   22.8626  -20.8046  -14.0993 C   0  0  0  0  0  0  0  0  0  0  0  0
   22.8439  -20.5590  -12.8579 O   0  0  0  0  0  0  0  0  0  0  0  0
   21.7255  -20.5866  -14.9191 N   0  0  0  0  0  0  0  0  0  0  0  0
   20.4874  -20.0290  -14.3626 C   0  0  1  0  0  0  0  0  0  0  0  0
   19.7389  -19.3792  -15.4977 C   0  0  0  0  0  0  0  0  0  0  0  0
   18.4424  -18.7537  -15.1149 C   0  0  0  0  0  0  0  0  0  0  0  0
   17.7407  -18.0987  -16.2755 C   0  0  0  0  0  0  0  0  0  0  0  0
   16.5017  -17.3575  -15.8530 C   0  0  0  0  0  0  0  0  0  0  0  0
   15.8661  -16.6407  -16.9124 N   0  0  0  0  0  0  0  0  0  0  0  0
   19.7072  -21.0838  -13.6752 C   0  0  0  0  0  0  0  0  0  0  0  0
   19.7362  -22.2565  -14.1127 O   0  0  0  0  0  0  0  0  0  0  0  0
   18.9374  -20.8203  -12.5534 O   0  0  0  0  0  0  0  0  0  0  0  0
  1  2  1  0
  2  3  1  0
  4  3  1  0
  5  1  1  0
  5  4  1  0
  5  6  1  6
  7  6  2  0
  8  9  1  0
  9 11  1  0
 10  9  2  0
 12 11  1  1
 12 13  1  0
 13  6  1  0
 14 12  1  0
 14 15  2  0
 16 14  1  0
 17 16  1  0
 17 18  1  6
 19 18  1  0
 19 20  1  0
 21 22  1  0
 21 20  1  0
 23 17  1  0
 24 23  2  0
 25 23  1  0
M  END
$$$$
