VCM.pdb
     RDKit          3D

 22 21  0  0  1  0  0  0  0  0999 V2000
    3.7528  -17.3504   19.8764 C   0  0  0  0  0  0  0  0  0  0  0  0
    4.9139  -17.2311   20.8245 C   0  0  2  0  0  0  0  0  0  0  0  0
    5.3160  -15.7699   21.0279 C   0  0  0  0  0  0  0  0  0  0  0  0
    6.0780  -18.0920   20.4553 C   0  0  2  0  0  0  0  0  0  0  0  0
    5.5875  -19.4344   20.2117 N   0  0  0  0  0  0  0  0  0  0  0  0
    7.1568  -18.1280   21.4445 C   0  0  0  0  0  0  0  0  0  0  0  0
    7.1068  -18.7108   22.5499 O   0  0  0  0  0  0  0  0  0  0  0  0
    8.3994  -17.4562   21.1799 N   0  0  0  0  0  0  0  0  0  0  0  0
    9.4622  -17.3782   22.1253 C   0  0  1  0  0  0  0  0  0  0  0  0
   10.8299  -17.2909   21.5527 C   0  0  0  0  0  0  0  0  0  0  0  0
   12.1244  -17.1394   22.7848 S   0  0  0  0  0  0  0  0  0  0  0  0
    9.2491  -16.1842   23.0182 C   0  0  0  0  0  0  0  0  0  0  0  0
    9.0687  -15.0359   22.5487 O   0  0  0  0  0  0  0  0  0  0  0  0
    5.8680  -11.2733   25.6370 C   0  0  0  0  0  0  0  0  0  0  0  0
    5.9828  -12.9198   26.4018 S   0  0  0  0  0  0  0  0  0  0  0  0
    7.7047  -13.4623   26.3015 C   0  0  0  0  0  0  0  0  0  0  0  0
    7.8528  -14.6563   25.4143 C   0  0  0  0  0  0  0  0  0  0  0  0
    9.2974  -15.1149   25.2623 C   0  0  2  0  0  0  0  0  0  0  0  0
    9.2427  -16.3024   24.4304 N   0  0  0  0  0  0  0  0  0  0  0  0
    9.8879  -15.4105   26.5919 C   0  0  0  0  0  0  0  0  0  0  0  0
   10.1771  -16.5607   26.9638 O   0  0  0  0  0  0  0  0  0  0  0  0
   10.1329  -14.3594   27.4700 O   0  0  0  0  0  0  0  0  0  0  0  0
  2  1  1  6
  2  3  1  0
  4  2  1  0
  4  5  1  1
  6  4  1  0
  6  8  1  0
  7  6  2  0
  9  8  1  0
  9 12  1  0
  9 10  1  6
 11 10  1  0
 12 13  2  0
 12 19  1  0
 14 15  1  0
 16 15  1  0
 17 16  1  0
 18 17  1  1
 18 20  1  0
 19 18  1  0
 20 22  1  0
 21 20  2  0
M  END
$$$$
