VCM.pdb
     RDKit          3D

 22 21  0  0  1  0  0  0  0  0999 V2000
    6.9212  -13.2406   19.7746 C   0  0  0  0  0  0  0  0  0  0  0  0
    8.3715  -13.1363   19.3911 C   0  0  2  0  0  0  0  0  0  0  0  0
    8.5950  -12.0265   18.3633 C   0  0  0  0  0  0  0  0  0  0  0  0
    8.9707  -14.4355   18.9602 C   0  0  2  0  0  0  0  0  0  0  0  0
    8.3949  -14.7954   17.6792 N   0  0  0  0  0  0  0  0  0  0  0  0
    8.8021  -15.5375   19.9092 C   0  0  0  0  0  0  0  0  0  0  0  0
    8.2381  -16.6261   19.6622 O   0  0  0  0  0  0  0  0  0  0  0  0
    9.3049  -15.4168   21.2501 N   0  0  0  0  0  0  0  0  0  0  0  0
    9.2270  -16.4655   22.2111 C   0  0  1  0  0  0  0  0  0  0  0  0
    9.9720  -17.7057   21.8746 C   0  0  0  0  0  0  0  0  0  0  0  0
   11.6335  -17.4120   21.2667 S   0  0  0  0  0  0  0  0  0  0  0  0
    9.7267  -15.9627   23.5399 C   0  0  0  0  0  0  0  0  0  0  0  0
   10.4800  -14.9641   23.6241 O   0  0  0  0  0  0  0  0  0  0  0  0
    6.7432  -11.8797   27.8618 C   0  0  0  0  0  0  0  0  0  0  0  0
    7.7178  -12.8522   26.6728 S   0  0  0  0  0  0  0  0  0  0  0  0
    6.8065  -14.3726   26.3165 C   0  0  0  0  0  0  0  0  0  0  0  0
    7.5231  -15.2197   25.3147 C   0  0  0  0  0  0  0  0  0  0  0  0
    8.8192  -15.8146   25.8500 C   0  0  2  0  0  0  0  0  0  0  0  0
    9.3693  -16.5944   24.7571 N   0  0  0  0  0  0  0  0  0  0  0  0
    8.5465  -16.6621   27.0379 C   0  0  0  0  0  0  0  0  0  0  0  0
    7.9259  -17.7372   26.9747 O   0  0  0  0  0  0  0  0  0  0  0  0
    9.0018  -16.2433   28.2842 O   0  0  0  0  0  0  0  0  0  0  0  0
  2  1  1  6
  2  3  1  0
  4  2  1  0
  4  5  1  6
  6  4  1  0
  6  8  1  0
  7  6  2  0
  9  8  1  0
  9 12  1  0
  9 10  1  6
 11 10  1  0
 12 13  2  0
 12 19  1  0
 14 15  1  0
 16 15  1  0
 17 16  1  0
 18 17  1  6
 18 20  1  0
 19 18  1  0
 20 22  1  0
 21 20  2  0
M  END
$$$$
