VCM.pdb
     RDKit          3D

 22 21  0  0  1  0  0  0  0  0999 V2000
    7.0572  -13.0997   20.0579 C   0  0  0  0  0  0  0  0  0  0  0  0
    8.4501  -13.2947   19.5257 C   0  0  2  0  0  0  0  0  0  0  0  0
    8.7386  -12.3420   18.3650 C   0  0  0  0  0  0  0  0  0  0  0  0
    8.7662  -14.7145   19.1841 C   0  0  2  0  0  0  0  0  0  0  0  0
    8.0114  -15.0725   17.9991 N   0  0  0  0  0  0  0  0  0  0  0  0
    8.5022  -15.6795   20.2530 C   0  0  0  0  0  0  0  0  0  0  0  0
    7.4476  -16.3378   20.3903 O   0  0  0  0  0  0  0  0  0  0  0  0
    9.4991  -15.9336   21.2565 N   0  0  0  0  0  0  0  0  0  0  0  0
    9.2427  -16.6837   22.4401 C   0  0  1  0  0  0  0  0  0  0  0  0
    9.9156  -18.0052   22.5248 C   0  0  0  0  0  0  0  0  0  0  0  0
   10.7161  -18.5111   21.0017 S   0  0  0  0  0  0  0  0  0  0  0  0
    9.6474  -15.8721   23.6426 C   0  0  0  0  0  0  0  0  0  0  0  0
   10.7370  -15.2535   23.6821 O   0  0  0  0  0  0  0  0  0  0  0  0
    5.7109  -12.1893   26.3028 C   0  0  0  0  0  0  0  0  0  0  0  0
    7.1343  -11.6786   27.3140 S   0  0  0  0  0  0  0  0  0  0  0  0
    8.3699  -12.9967   27.2432 C   0  0  0  0  0  0  0  0  0  0  0  0
    8.1601  -13.8822   26.0571 C   0  0  0  0  0  0  0  0  0  0  0  0
    9.2273  -14.9599   25.9172 C   0  0  2  0  0  0  0  0  0  0  0  0
    8.8159  -15.7697   24.7857 N   0  0  0  0  0  0  0  0  0  0  0  0
    9.3119  -15.7673   27.1600 C   0  0  0  0  0  0  0  0  0  0  0  0
    9.7565  -15.3183   28.2304 O   0  0  0  0  0  0  0  0  0  0  0  0
    8.8764  -17.0886   27.1370 O   0  0  0  0  0  0  0  0  0  0  0  0
  2  1  1  6
  2  3  1  0
  4  2  1  0
  4  5  1  6
  6  4  1  0
  6  8  1  0
  7  6  2  0
  9  8  1  0
  9 12  1  0
  9 10  1  6
 11 10  1  0
 12 13  2  0
 12 19  1  0
 14 15  1  0
 16 15  1  0
 17 16  1  0
 18 17  1  1
 18 20  1  0
 19 18  1  0
 20 22  1  0
 21 20  2  0
M  END
$$$$
