VCM.pdb
     RDKit          3D

 22 21  0  0  1  0  0  0  0  0999 V2000
    7.0731  -13.1090   19.9138 C   0  0  0  0  0  0  0  0  0  0  0  0
    8.4891  -13.2777   19.4365 C   0  0  2  0  0  0  0  0  0  0  0  0
    8.8311  -12.2629   18.3450 C   0  0  0  0  0  0  0  0  0  0  0  0
    8.8207  -14.6772   19.0316 C   0  0  2  0  0  0  0  0  0  0  0  0
    8.0440  -15.0017   17.8512 N   0  0  0  0  0  0  0  0  0  0  0  0
    8.5985  -15.6880   20.0672 C   0  0  0  0  0  0  0  0  0  0  0  0
    7.6275  -16.4748   20.1149 O   0  0  0  0  0  0  0  0  0  0  0  0
    9.5392  -15.8354   21.1436 N   0  0  0  0  0  0  0  0  0  0  0  0
    9.3102  -16.6742   22.2720 C   0  0  1  0  0  0  0  0  0  0  0  0
   10.1215  -17.9171   22.3273 C   0  0  0  0  0  0  0  0  0  0  0  0
   11.8501  -17.6747   21.9150 S   0  0  0  0  0  0  0  0  0  0  0  0
    9.5617  -15.8920   23.5344 C   0  0  0  0  0  0  0  0  0  0  0  0
   10.5803  -15.1741   23.6712 O   0  0  0  0  0  0  0  0  0  0  0  0
    6.5157  -11.1841   26.2282 C   0  0  0  0  0  0  0  0  0  0  0  0
    6.4354  -12.4142   27.5660 S   0  0  0  0  0  0  0  0  0  0  0  0
    7.8353  -13.5418   27.3711 C   0  0  0  0  0  0  0  0  0  0  0  0
    7.7630  -14.2878   26.0776 C   0  0  0  0  0  0  0  0  0  0  0  0
    8.9579  -15.2035   25.8459 C   0  0  2  0  0  0  0  0  0  0  0  0
    8.6593  -15.9309   24.6264 N   0  0  0  0  0  0  0  0  0  0  0  0
    9.1340  -16.1239   26.9973 C   0  0  0  0  0  0  0  0  0  0  0  0
    9.5092  -15.7413   28.1188 O   0  0  0  0  0  0  0  0  0  0  0  0
    8.8698  -17.4790   26.8243 O   0  0  0  0  0  0  0  0  0  0  0  0
  2  1  1  6
  2  3  1  0
  4  2  1  0
  4  5  1  6
  6  4  1  0
  6  8  1  0
  7  6  2  0
  9  8  1  0
  9 12  1  0
  9 10  1  6
 11 10  1  0
 12 13  2  0
 12 19  1  0
 14 15  1  0
 16 15  1  0
 17 16  1  0
 18 17  1  1
 18 20  1  0
 19 18  1  0
 20 22  1  0
 21 20  2  0
M  END
$$$$
