VCM.pdb
     RDKit          3D

 22 21  0  0  1  0  0  0  0  0999 V2000
    8.7223  -13.5724   17.8189 C   0  0  0  0  0  0  0  0  0  0  0  0
    8.0156  -13.7783   19.1302 C   0  0  2  0  0  0  0  0  0  0  0  0
    7.7143  -12.4439   19.8134 C   0  0  0  0  0  0  0  0  0  0  0  0
    8.7131  -14.7354   20.0413 C   0  0  2  0  0  0  0  0  0  0  0  0
    8.8520  -16.0004   19.3465 N   0  0  0  0  0  0  0  0  0  0  0  0
    8.0574  -14.9464   21.3332 C   0  0  0  0  0  0  0  0  0  0  0  0
    7.7923  -14.0513   22.1656 O   0  0  0  0  0  0  0  0  0  0  0  0
    7.6629  -16.2691   21.7334 N   0  0  0  0  0  0  0  0  0  0  0  0
    7.1620  -16.5759   23.0312 C   0  0  1  0  0  0  0  0  0  0  0  0
    6.6904  -17.9707   23.2275 C   0  0  0  0  0  0  0  0  0  0  0  0
    6.4827  -18.4313   24.9484 S   0  0  0  0  0  0  0  0  0  0  0  0
    8.2269  -16.2908   24.0574 C   0  0  0  0  0  0  0  0  0  0  0  0
    9.4039  -16.6980   23.9142 O   0  0  0  0  0  0  0  0  0  0  0  0
    5.3738  -12.4683   27.1903 C   0  0  0  0  0  0  0  0  0  0  0  0
    7.0645  -11.9128   27.5673 S   0  0  0  0  0  0  0  0  0  0  0  0
    8.2098  -12.9003   26.5762 C   0  0  0  0  0  0  0  0  0  0  0  0
    8.4126  -14.2597   27.1642 C   0  0  0  0  0  0  0  0  0  0  0  0
    9.0090  -15.2564   26.1788 C   0  0  2  0  0  0  0  0  0  0  0  0
    7.9487  -15.5492   25.2325 N   0  0  0  0  0  0  0  0  0  0  0  0
    9.4555  -16.4809   26.8893 C   0  0  0  0  0  0  0  0  0  0  0  0
    8.6652  -17.3113   27.3698 O   0  0  0  0  0  0  0  0  0  0  0  0
   10.8190  -16.7200   27.0298 O   0  0  0  0  0  0  0  0  0  0  0  0
  2  1  1  6
  2  3  1  0
  4  2  1  0
  4  5  1  6
  6  4  1  0
  6  8  1  0
  7  6  2  0
  9  8  1  0
  9 12  1  0
  9 10  1  6
 11 10  1  0
 12 13  2  0
 12 19  1  0
 14 15  1  0
 16 15  1  0
 17 16  1  0
 18 17  1  1
 18 20  1  0
 19 18  1  0
 20 22  1  0
 21 20  2  0
M  END
$$$$
