VCM.pdb
     RDKit          3D

 22 21  0  0  1  0  0  0  0  0999 V2000
    7.1461  -13.0853   20.1540 C   0  0  0  0  0  0  0  0  0  0  0  0
    8.4811  -13.3897   19.5323 C   0  0  2  0  0  0  0  0  0  0  0  0
    8.7524  -12.4845   18.3302 C   0  0  0  0  0  0  0  0  0  0  0  0
    8.6731  -14.8353   19.2065 C   0  0  2  0  0  0  0  0  0  0  0  0
    7.7901  -15.1714   18.1068 N   0  0  0  0  0  0  0  0  0  0  0  0
    8.4489  -15.7544   20.3238 C   0  0  0  0  0  0  0  0  0  0  0  0
    7.4520  -16.4969   20.4620 O   0  0  0  0  0  0  0  0  0  0  0  0
    9.4190  -15.8555   21.3793 N   0  0  0  0  0  0  0  0  0  0  0  0
    9.2449  -16.6859   22.5236 C   0  0  1  0  0  0  0  0  0  0  0  0
    9.9333  -18.0013   22.4768 C   0  0  0  0  0  0  0  0  0  0  0  0
   11.6400  -17.9085   21.9336 S   0  0  0  0  0  0  0  0  0  0  0  0
    9.7181  -15.9509   23.7501 C   0  0  0  0  0  0  0  0  0  0  0  0
   10.7609  -15.2552   23.7384 O   0  0  0  0  0  0  0  0  0  0  0  0
    6.0021  -12.2518   26.1317 C   0  0  0  0  0  0  0  0  0  0  0  0
    7.0233  -12.1452   27.6334 S   0  0  0  0  0  0  0  0  0  0  0  0
    8.4346  -13.2565   27.4278 C   0  0  0  0  0  0  0  0  0  0  0  0
    8.2263  -14.2030   26.2897 C   0  0  0  0  0  0  0  0  0  0  0  0
    9.3929  -15.1607   26.0850 C   0  0  2  0  0  0  0  0  0  0  0  0
    9.0072  -16.0114   24.9746 N   0  0  0  0  0  0  0  0  0  0  0  0
    9.6331  -15.9528   27.3174 C   0  0  0  0  0  0  0  0  0  0  0  0
   10.1915  -15.4854   28.3247 O   0  0  0  0  0  0  0  0  0  0  0  0
    9.2183  -17.2803   27.3576 O   0  0  0  0  0  0  0  0  0  0  0  0
  2  1  1  6
  2  3  1  0
  4  2  1  0
  4  5  1  6
  6  4  1  0
  6  8  1  0
  7  6  2  0
  9  8  1  0
  9 12  1  0
  9 10  1  6
 11 10  1  0
 12 13  2  0
 12 19  1  0
 14 15  1  0
 16 15  1  0
 17 16  1  0
 18 17  1  1
 18 20  1  0
 19 18  1  0
 20 22  1  0
 21 20  2  0
M  END
$$$$
