VCM.pdb
     RDKit          3D

 22 21  0  0  1  0  0  0  0  0999 V2000
    7.1000  -13.0228   20.4776 C   0  0  0  0  0  0  0  0  0  0  0  0
    8.4207  -13.4546   19.9028 C   0  0  2  0  0  0  0  0  0  0  0  0
    8.3627  -13.5320   18.3768 C   0  0  0  0  0  0  0  0  0  0  0  0
    8.9569  -14.7088   20.5128 C   0  0  2  0  0  0  0  0  0  0  0  0
    8.2161  -15.8290   19.9665 N   0  0  0  0  0  0  0  0  0  0  0  0
    8.9149  -14.7501   21.9757 C   0  0  0  0  0  0  0  0  0  0  0  0
    9.4924  -13.9458   22.7398 O   0  0  0  0  0  0  0  0  0  0  0  0
    8.1649  -15.7764   22.6462 N   0  0  0  0  0  0  0  0  0  0  0  0
    7.9775  -15.8112   24.0579 C   0  0  1  0  0  0  0  0  0  0  0  0
    6.8981  -16.7086   24.5434 C   0  0  0  0  0  0  0  0  0  0  0  0
    6.7288  -18.2205   23.5935 S   0  0  0  0  0  0  0  0  0  0  0  0
    9.2652  -16.2224   24.7222 C   0  0  0  0  0  0  0  0  0  0  0  0
   10.1235  -16.9120   24.1226 O   0  0  0  0  0  0  0  0  0  0  0  0
    8.4443  -13.0375   27.7162 C   0  0  0  0  0  0  0  0  0  0  0  0
    9.9153  -13.2228   28.7702 S   0  0  0  0  0  0  0  0  0  0  0  0
   11.1055  -14.2600   27.8888 C   0  0  0  0  0  0  0  0  0  0  0  0
   10.8061  -15.7134   28.0695 C   0  0  0  0  0  0  0  0  0  0  0  0
   10.6796  -16.4678   26.7523 C   0  0  2  0  0  0  0  0  0  0  0  0
    9.5670  -15.8495   26.0557 N   0  0  0  0  0  0  0  0  0  0  0  0
   10.4282  -17.9090   27.0047 C   0  0  0  0  0  0  0  0  0  0  0  0
    9.3076  -18.4326   26.8822 O   0  0  0  0  0  0  0  0  0  0  0  0
   11.4886  -18.7200   27.3969 O   0  0  0  0  0  0  0  0  0  0  0  0
  2  1  1  1
  2  3  1  0
  4  2  1  0
  4  5  1  6
  6  4  1  0
  6  8  1  0
  7  6  2  0
  9  8  1  0
  9 12  1  0
  9 10  1  6
 11 10  1  0
 12 13  2  0
 12 19  1  0
 14 15  1  0
 16 15  1  0
 17 16  1  0
 18 17  1  1
 18 20  1  0
 19 18  1  0
 20 22  1  0
 21 20  2  0
M  END
$$$$
