VCM.pdb
     RDKit          3D

 22 21  0  0  1  0  0  0  0  0999 V2000
   15.1483  -21.9096   25.9658 C   0  0  0  0  0  0  0  0  0  0  0  0
   13.8597  -22.6443   26.2123 C   0  0  2  0  0  0  0  0  0  0  0  0
   13.4712  -23.5023   25.0077 C   0  0  0  0  0  0  0  0  0  0  0  0
   12.7426  -21.7585   26.6596 C   0  0  2  0  0  0  0  0  0  0  0  0
   12.3838  -20.8915   25.5543 N   0  0  0  0  0  0  0  0  0  0  0  0
   13.0308  -20.9552   27.8492 C   0  0  0  0  0  0  0  0  0  0  0  0
   13.3315  -19.7412   27.8480 O   0  0  0  0  0  0  0  0  0  0  0  0
   12.9802  -21.5561   29.1537 N   0  0  0  0  0  0  0  0  0  0  0  0
   13.2862  -20.8490   30.3519 C   0  0  1  0  0  0  0  0  0  0  0  0
   12.1191  -20.3363   31.1143 C   0  0  0  0  0  0  0  0  0  0  0  0
   12.5336  -19.7136   32.7444 S   0  0  0  0  0  0  0  0  0  0  0  0
   14.0901  -21.7378   31.2643 C   0  0  0  0  0  0  0  0  0  0  0  0
   13.6923  -22.8825   31.5852 O   0  0  0  0  0  0  0  0  0  0  0  0
   20.7409  -21.3071   29.9928 C   0  0  0  0  0  0  0  0  0  0  0  0
   19.8859  -21.0179   31.5722 S   0  0  0  0  0  0  0  0  0  0  0  0
   18.2340  -21.7434   31.4529 C   0  0  0  0  0  0  0  0  0  0  0  0
   17.4868  -21.6212   32.7419 C   0  0  0  0  0  0  0  0  0  0  0  0
   16.0814  -22.2049   32.6780 C   0  0  2  0  0  0  0  0  0  0  0  0
   15.3333  -21.3220   31.8027 N   0  0  0  0  0  0  0  0  0  0  0  0
   15.4823  -22.2587   34.0352 C   0  0  0  0  0  0  0  0  0  0  0  0
   14.7992  -21.3357   34.5109 O   0  0  0  0  0  0  0  0  0  0  0  0
   15.6887  -23.3894   34.8193 O   0  0  0  0  0  0  0  0  0  0  0  0
  2  1  1  6
  2  3  1  0
  4  2  1  0
  4  5  1  6
  6  4  1  0
  6  8  1  0
  7  6  2  0
  9  8  1  0
  9 12  1  0
  9 10  1  1
 11 10  1  0
 12 13  2  0
 12 19  1  0
 14 15  1  0
 16 15  1  0
 17 16  1  0
 18 17  1  1
 18 20  1  0
 19 18  1  0
 20 22  1  0
 21 20  2  0
M  END
$$$$
