VCM.pdb
     RDKit          3D

 22 21  0  0  1  0  0  0  0  0999 V2000
    8.7413  -19.9941   24.3006 C   0  0  0  0  0  0  0  0  0  0  0  0
    7.3906  -19.9365   23.6422 C   0  0  2  0  0  0  0  0  0  0  0  0
    6.5585  -21.1756   23.9742 C   0  0  0  0  0  0  0  0  0  0  0  0
    7.4526  -19.6739   22.1725 C   0  0  2  0  0  0  0  0  0  0  0  0
    8.0067  -20.8481   21.5272 N   0  0  0  0  0  0  0  0  0  0  0  0
    8.2195  -18.4869   21.7899 C   0  0  0  0  0  0  0  0  0  0  0  0
    9.4280  -18.4782   21.4676 O   0  0  0  0  0  0  0  0  0  0  0  0
    7.5858  -17.1973   21.7640 N   0  0  0  0  0  0  0  0  0  0  0  0
    8.2777  -15.9930   21.4474 C   0  0  1  0  0  0  0  0  0  0  0  0
    7.4697  -14.9417   20.7778 C   0  0  0  0  0  0  0  0  0  0  0  0
    5.8939  -14.6214   21.5720 S   0  0  0  0  0  0  0  0  0  0  0  0
    8.8613  -15.4071   22.7062 C   0  0  0  0  0  0  0  0  0  0  0  0
    9.4369  -14.2934   22.7077 O   0  0  0  0  0  0  0  0  0  0  0  0
    6.9728  -10.9537   26.5254 C   0  0  0  0  0  0  0  0  0  0  0  0
    6.2938  -12.6280   26.7377 S   0  0  0  0  0  0  0  0  0  0  0  0
    7.6693  -13.7997   26.6726 C   0  0  0  0  0  0  0  0  0  0  0  0
    7.7312  -14.5003   25.3534 C   0  0  0  0  0  0  0  0  0  0  0  0
    8.9772  -15.3609   25.1894 C   0  0  2  0  0  0  0  0  0  0  0  0
    8.7874  -16.0868   23.9475 N   0  0  0  0  0  0  0  0  0  0  0  0
    9.1216  -16.2856   26.3417 C   0  0  0  0  0  0  0  0  0  0  0  0
    8.7820  -17.4804   26.2979 O   0  0  0  0  0  0  0  0  0  0  0  0
    9.6604  -15.8031   27.5304 O   0  0  0  0  0  0  0  0  0  0  0  0
  2  1  1  6
  2  3  1  0
  4  2  1  0
  4  5  1  6
  6  4  1  0
  6  8  1  0
  7  6  2  0
  9  8  1  0
  9 12  1  0
  9 10  1  1
 11 10  1  0
 12 13  2  0
 12 19  1  0
 14 15  1  0
 16 15  1  0
 17 16  1  0
 18 17  1  1
 18 20  1  0
 19 18  1  0
 20 22  1  0
 21 20  2  0
M  END
$$$$
