VCM.pdb
     RDKit          3D

 22 21  0  0  1  0  0  0  0  0999 V2000
    6.8839  -14.1901   18.4469 C   0  0  0  0  0  0  0  0  0  0  0  0
    7.8814  -13.2316   19.0364 C   0  0  2  0  0  0  0  0  0  0  0  0
    8.4004  -12.2532   17.9822 C   0  0  0  0  0  0  0  0  0  0  0  0
    8.9902  -13.9041   19.7786 C   0  0  2  0  0  0  0  0  0  0  0  0
    9.7626  -14.6813   18.8292 N   0  0  0  0  0  0  0  0  0  0  0  0
    8.5612  -14.7573   20.8883 C   0  0  0  0  0  0  0  0  0  0  0  0
    7.8166  -14.4027   21.8286 O   0  0  0  0  0  0  0  0  0  0  0  0
    8.9995  -16.1242   20.9572 N   0  0  0  0  0  0  0  0  0  0  0  0
    8.6540  -17.0027   22.0241 C   0  0  1  0  0  0  0  0  0  0  0  0
    9.2507  -18.3614   21.9600 C   0  0  0  0  0  0  0  0  0  0  0  0
    8.6709  -19.3444   20.5766 S   0  0  0  0  0  0  0  0  0  0  0  0
    9.0509  -16.3760   23.3349 C   0  0  0  0  0  0  0  0  0  0  0  0
   10.2403  -16.0666   23.5823 O   0  0  0  0  0  0  0  0  0  0  0  0
    6.9028  -11.1175   27.3536 C   0  0  0  0  0  0  0  0  0  0  0  0
    6.2374  -12.7702   27.7208 S   0  0  0  0  0  0  0  0  0  0  0  0
    7.5294  -13.9834   27.3630 C   0  0  0  0  0  0  0  0  0  0  0  0
    7.3435  -14.6012   26.0144 C   0  0  0  0  0  0  0  0  0  0  0  0
    8.5134  -15.4800   25.5910 C   0  0  2  0  0  0  0  0  0  0  0  0
    8.0991  -16.1070   24.3498 N   0  0  0  0  0  0  0  0  0  0  0  0
    8.8056  -16.4906   26.6384 C   0  0  0  0  0  0  0  0  0  0  0  0
    8.3597  -17.6503   26.6036 O   0  0  0  0  0  0  0  0  0  0  0  0
    9.6147  -16.1341   27.7127 O   0  0  0  0  0  0  0  0  0  0  0  0
  2  1  1  6
  2  3  1  0
  4  2  1  0
  4  5  1  6
  6  4  1  0
  6  8  1  0
  7  6  2  0
  9  8  1  0
  9 12  1  0
  9 10  1  6
 11 10  1  0
 12 13  2  0
 12 19  1  0
 14 15  1  0
 16 15  1  0
 17 16  1  0
 18 17  1  1
 18 20  1  0
 19 18  1  0
 20 22  1  0
 21 20  2  0
M  END
$$$$
