GNE.pdb
     RDKit          3D

 22 21  0  0  1  0  0  0  0  0999 V2000
    9.5380  -18.3415   17.3022 N   0  0  0  0  0  0  0  0  0  0  0  0
    8.8519  -18.0764   18.5474 C   0  0  0  0  0  0  0  0  0  0  0  0
    9.3420  -16.8765   19.2294 C   0  0  0  0  0  0  0  0  0  0  0  0
   10.5828  -16.6788   19.2878 O   0  0  0  0  0  0  0  0  0  0  0  0
    8.4102  -13.5562   18.0046 N   0  0  0  0  0  0  0  0  0  0  0  0
    7.8494  -13.1081   19.2097 C   0  0  0  0  0  0  0  0  0  0  0  0
    6.9745  -12.1800   19.1431 O   0  0  0  0  0  0  0  0  0  0  0  0
    8.1583  -13.5916   20.5558 C   0  0  0  0  0  0  0  0  0  0  0  0
    9.0623  -14.7873   20.5963 C   0  0  2  0  0  0  0  0  0  0  0  0
    8.5127  -15.8978   19.8432 N   0  0  0  0  0  0  0  0  0  0  0  0
    9.4058  -15.1999   21.9789 C   0  0  0  0  0  0  0  0  0  0  0  0
    8.5535  -15.1991   22.9251 O   0  0  0  0  0  0  0  0  0  0  0  0
   10.6944  -15.6140   22.3145 N   0  0  0  0  0  0  0  0  0  0  0  0
   11.1157  -16.0719   23.6445 C   0  0  1  0  0  0  0  0  0  0  0  0
   10.5754  -17.4032   23.9651 C   0  0  0  0  0  0  0  0  0  0  0  0
   10.8105  -18.3877   22.8617 C   0  0  0  0  0  0  0  0  0  0  0  0
   10.3899  -19.7598   23.1188 C   0  0  0  0  0  0  0  0  0  0  0  0
    9.8155  -20.4646   22.2688 O   0  0  0  0  0  0  0  0  0  0  0  0
   12.5930  -16.0968   23.6171 C   0  0  0  0  0  0  0  0  0  0  0  0
   13.3737  -16.3038   24.7479 O   0  0  0  0  0  0  0  0  0  0  0  0
   10.6377  -20.3113   24.3649 O   0  0  0  0  0  0  0  0  0  0  0  0
   13.1625  -15.9131   22.4863 O   0  0  0  0  0  0  0  0  0  0  0  0
  2  3  1  0
  2  1  1  0
  3  4  2  0
  5  6  1  0
  6  8  1  0
  7  6  2  0
  9  8  1  1
 10  3  1  0
 10  9  1  0
 11 13  1  0
 11  9  1  0
 12 11  2  0
 14 13  1  0
 14 15  1  6
 15 16  1  0
 16 17  1  0
 17 21  1  0
 18 17  2  0
 19 20  1  0
 19 14  1  0
 22 19  2  0
M  END
$$$$
