GNE.pdb
     RDKit          3D

 22 21  0  0  1  0  0  0  0  0999 V2000
    3.4612  -20.3780   22.2564 N   0  0  0  0  0  0  0  0  0  0  0  0
    3.8764  -19.3067   21.3780 C   0  0  0  0  0  0  0  0  0  0  0  0
    5.0918  -18.6284   21.8336 C   0  0  0  0  0  0  0  0  0  0  0  0
    6.2086  -19.1264   21.5389 O   0  0  0  0  0  0  0  0  0  0  0  0
    7.8078  -14.5667   20.6510 N   0  0  0  0  0  0  0  0  0  0  0  0
    6.6277  -15.0753   21.2134 C   0  0  0  0  0  0  0  0  0  0  0  0
    5.6634  -15.3408   20.4191 O   0  0  0  0  0  0  0  0  0  0  0  0
    6.3725  -15.3402   22.6297 C   0  0  0  0  0  0  0  0  0  0  0  0
    6.3526  -16.7937   22.9981 C   0  0  2  0  0  0  0  0  0  0  0  0
    5.1122  -17.4289   22.5974 N   0  0  0  0  0  0  0  0  0  0  0  0
    6.6282  -17.0243   24.4370 C   0  0  0  0  0  0  0  0  0  0  0  0
    5.7808  -16.7535   25.3482 O   0  0  0  0  0  0  0  0  0  0  0  0
    7.8434  -17.5557   24.8678 N   0  0  0  0  0  0  0  0  0  0  0  0
    8.1765  -17.8842   26.2597 C   0  0  1  0  0  0  0  0  0  0  0  0
    7.9290  -19.3028   26.5649 C   0  0  0  0  0  0  0  0  0  0  0  0
    8.2609  -19.6400   27.9856 C   0  0  0  0  0  0  0  0  0  0  0  0
    8.1527  -21.0452   28.3589 C   0  0  0  0  0  0  0  0  0  0  0  0
    8.0338  -21.9620   27.5257 O   0  0  0  0  0  0  0  0  0  0  0  0
    9.6070  -17.5527   26.4248 C   0  0  0  0  0  0  0  0  0  0  0  0
   10.2148  -17.3911   27.6639 O   0  0  0  0  0  0  0  0  0  0  0  0
    8.1830  -21.3831   29.7018 O   0  0  0  0  0  0  0  0  0  0  0  0
   10.3029  -17.4082   25.3609 O   0  0  0  0  0  0  0  0  0  0  0  0
  2  3  1  0
  2  1  1  0
  3  4  2  0
  5  6  1  0
  6  8  1  0
  7  6  2  0
  9  8  1  1
 10  3  1  0
 10  9  1  0
 11 13  1  0
 11  9  1  0
 12 11  2  0
 14 13  1  0
 14 15  1  6
 15 16  1  0
 16 17  1  0
 17 21  1  0
 18 17  2  0
 19 20  1  0
 19 14  1  0
 22 19  2  0
M  END
$$$$
