GNE.pdb
     RDKit          3D

 22 21  0  0  1  0  0  0  0  0999 V2000
   11.3527  -19.0003   18.3747 N   0  0  0  0  0  0  0  0  0  0  0  0
   10.5402  -18.3966   17.3418 C   0  0  0  0  0  0  0  0  0  0  0  0
   10.4653  -16.9378   17.4486 C   0  0  0  0  0  0  0  0  0  0  0  0
   11.0859  -16.2375   16.6081 O   0  0  0  0  0  0  0  0  0  0  0  0
    9.4067  -11.8771   18.7473 N   0  0  0  0  0  0  0  0  0  0  0  0
    8.3211  -12.7647   18.7823 C   0  0  0  0  0  0  0  0  0  0  0  0
    7.1510  -12.2609   18.8738 O   0  0  0  0  0  0  0  0  0  0  0  0
    8.3787  -14.2257   18.7251 C   0  0  0  0  0  0  0  0  0  0  0  0
    9.7562  -14.7883   18.5387 C   0  0  2  0  0  0  0  0  0  0  0  0
    9.7338  -16.2351   18.4454 N   0  0  0  0  0  0  0  0  0  0  0  0
   10.7063  -14.3368   19.5842 C   0  0  0  0  0  0  0  0  0  0  0  0
   10.9645  -13.1068   19.7894 O   0  0  0  0  0  0  0  0  0  0  0  0
   11.3712  -15.2482   20.4040 N   0  0  0  0  0  0  0  0  0  0  0  0
   12.3534  -14.8959   21.4370 C   0  0  1  0  0  0  0  0  0  0  0  0
   11.9267  -15.3359   22.7754 C   0  0  0  0  0  0  0  0  0  0  0  0
   11.6287  -16.8027   22.8183 C   0  0  0  0  0  0  0  0  0  0  0  0
   11.2318  -17.3444   24.1124 C   0  0  0  0  0  0  0  0  0  0  0  0
   11.1533  -16.6517   25.1433 O   0  0  0  0  0  0  0  0  0  0  0  0
   13.6139  -15.5588   21.0428 C   0  0  0  0  0  0  0  0  0  0  0  0
   14.8513  -15.2273   21.5815 O   0  0  0  0  0  0  0  0  0  0  0  0
   10.9263  -18.6921   24.2062 O   0  0  0  0  0  0  0  0  0  0  0  0
   13.5413  -16.4794   20.1573 O   0  0  0  0  0  0  0  0  0  0  0  0
  2  3  1  0
  2  1  1  0
  3  4  2  0
  5  6  1  0
  6  8  1  0
  7  6  2  0
  9  8  1  1
 10  3  1  0
 10  9  1  0
 11 13  1  0
 11  9  1  0
 12 11  2  0
 14 13  1  0
 14 15  1  1
 15 16  1  0
 16 17  1  0
 17 21  1  0
 18 17  2  0
 19 20  1  0
 19 14  1  0
 22 19  2  0
M  END
$$$$
