GNE.pdb
     RDKit          3D

 22 21  0  0  1  0  0  0  0  0999 V2000
    9.1427  -16.1050   13.7393 N   0  0  0  0  0  0  0  0  0  0  0  0
    8.4536  -14.9852   14.3417 C   0  0  0  0  0  0  0  0  0  0  0  0
    8.9000  -14.7033   15.7079 C   0  0  0  0  0  0  0  0  0  0  0  0
    9.9975  -14.1121   15.8753 O   0  0  0  0  0  0  0  0  0  0  0  0
    6.6793  -11.9780   19.3625 N   0  0  0  0  0  0  0  0  0  0  0  0
    7.5714  -13.0173   19.6652 C   0  0  0  0  0  0  0  0  0  0  0  0
    8.5182  -12.7615   20.4833 O   0  0  0  0  0  0  0  0  0  0  0  0
    7.5392  -14.3832   19.1411 C   0  0  0  0  0  0  0  0  0  0  0  0
    8.6647  -14.7197   18.2091 C   0  0  2  0  0  0  0  0  0  0  0  0
    8.1792  -15.0509   16.8835 N   0  0  0  0  0  0  0  0  0  0  0  0
    9.5453  -15.7903   18.7364 C   0  0  0  0  0  0  0  0  0  0  0  0
    9.2305  -17.0232   18.6840 O   0  0  0  0  0  0  0  0  0  0  0  0
   10.7760  -15.4959   19.3223 N   0  0  0  0  0  0  0  0  0  0  0  0
   11.7544  -16.4909   19.7792 C   0  0  1  0  0  0  0  0  0  0  0  0
   13.0632  -16.3152   19.1287 C   0  0  0  0  0  0  0  0  0  0  0  0
   13.6590  -14.9716   19.4146 C   0  0  0  0  0  0  0  0  0  0  0  0
   14.9452  -14.6882   18.7892 C   0  0  0  0  0  0  0  0  0  0  0  0
   15.5981  -15.5421   18.1619 O   0  0  0  0  0  0  0  0  0  0  0  0
   11.8657  -16.3102   21.2416 C   0  0  0  0  0  0  0  0  0  0  0  0
   12.5723  -17.1774   22.0661 O   0  0  0  0  0  0  0  0  0  0  0  0
   15.4712  -13.4112   18.8941 O   0  0  0  0  0  0  0  0  0  0  0  0
   11.2718  -15.3001   21.7554 O   0  0  0  0  0  0  0  0  0  0  0  0
  2  3  1  0
  2  1  1  0
  3  4  2  0
  5  6  1  0
  6  8  1  0
  7  6  2  0
  9  8  1  1
 10  3  1  0
 10  9  1  0
 11 13  1  0
 11  9  1  0
 12 11  2  0
 14 13  1  0
 14 15  1  6
 15 16  1  0
 16 17  1  0
 17 21  1  0
 18 17  2  0
 19 20  1  0
 19 14  1  0
 22 19  2  0
M  END
$$$$
