GNE.pdb
     RDKit          3D

 22 21  0  0  1  0  0  0  0  0999 V2000
    8.7316  -16.3357   18.2406 N   0  0  0  0  0  0  0  0  0  0  0  0
    7.6879  -16.3479   19.2417 C   0  0  0  0  0  0  0  0  0  0  0  0
    8.1172  -15.7902   20.5261 C   0  0  0  0  0  0  0  0  0  0  0  0
    9.3319  -15.5059   20.6859 O   0  0  0  0  0  0  0  0  0  0  0  0
    6.3107  -13.7145   26.1221 N   0  0  0  0  0  0  0  0  0  0  0  0
    7.0203  -13.7168   24.9121 C   0  0  0  0  0  0  0  0  0  0  0  0
    8.1462  -13.1143   24.8882 O   0  0  0  0  0  0  0  0  0  0  0  0
    6.6098  -14.3416   23.6542 C   0  0  0  0  0  0  0  0  0  0  0  0
    7.7333  -14.9328   22.8562 C   0  0  2  0  0  0  0  0  0  0  0  0
    7.2551  -15.5392   21.6290 N   0  0  0  0  0  0  0  0  0  0  0  0
    8.5512  -15.8903   23.6396 C   0  0  0  0  0  0  0  0  0  0  0  0
    8.1559  -17.0715   23.9044 O   0  0  0  0  0  0  0  0  0  0  0  0
    9.8085  -15.5398   24.1305 N   0  0  0  0  0  0  0  0  0  0  0  0
   10.7641  -16.4685   24.7476 C   0  0  1  0  0  0  0  0  0  0  0  0
   12.1570  -16.0320   24.5576 C   0  0  0  0  0  0  0  0  0  0  0  0
   13.0068  -17.1062   23.9524 C   0  0  0  0  0  0  0  0  0  0  0  0
   14.4018  -16.7636   23.7029 C   0  0  0  0  0  0  0  0  0  0  0  0
   14.7514  -15.8943   22.8838 O   0  0  0  0  0  0  0  0  0  0  0  0
   10.4184  -16.5132   26.1836 C   0  0  0  0  0  0  0  0  0  0  0  0
   10.9468  -17.4468   27.0670 O   0  0  0  0  0  0  0  0  0  0  0  0
   15.3894  -17.4327   24.4068 O   0  0  0  0  0  0  0  0  0  0  0  0
    9.5866  -15.6419   26.6148 O   0  0  0  0  0  0  0  0  0  0  0  0
  2  3  1  0
  2  1  1  0
  3  4  2  0
  5  6  1  0
  6  8  1  0
  7  6  2  0
  9  8  1  1
 10  3  1  0
 10  9  1  0
 11 13  1  0
 11  9  1  0
 12 11  2  0
 14 13  1  0
 14 15  1  1
 15 16  1  0
 16 17  1  0
 17 21  1  0
 18 17  2  0
 19 20  1  0
 19 14  1  0
 22 19  2  0
M  END
$$$$
