GNE.pdb
     RDKit          3D

 22 21  0  0  1  0  0  0  0  0999 V2000
   10.1858  -15.6503   14.1507 N   0  0  0  0  0  0  0  0  0  0  0  0
    9.3128  -15.9470   15.2649 C   0  0  0  0  0  0  0  0  0  0  0  0
    9.7931  -15.3959   16.5340 C   0  0  0  0  0  0  0  0  0  0  0  0
   10.9996  -15.0527   16.6258 O   0  0  0  0  0  0  0  0  0  0  0  0
    7.8604  -12.4475   18.3657 N   0  0  0  0  0  0  0  0  0  0  0  0
    7.7028  -13.2079   19.5338 C   0  0  0  0  0  0  0  0  0  0  0  0
    6.7866  -12.8519   20.3494 O   0  0  0  0  0  0  0  0  0  0  0  0
    8.4819  -14.3815   19.9299 C   0  0  0  0  0  0  0  0  0  0  0  0
    9.5522  -14.7764   18.9568 C   0  0  2  0  0  0  0  0  0  0  0  0
    8.9904  -15.2142   17.6938 N   0  0  0  0  0  0  0  0  0  0  0  0
   10.4809  -15.7934   19.5073 C   0  0  0  0  0  0  0  0  0  0  0  0
   10.2526  -17.0436   19.4268 O   0  0  0  0  0  0  0  0  0  0  0  0
   11.6639  -15.4259   20.1476 N   0  0  0  0  0  0  0  0  0  0  0  0
   12.7113  -16.3563   20.5875 C   0  0  1  0  0  0  0  0  0  0  0  0
   13.9847  -16.1230   19.8867 C   0  0  0  0  0  0  0  0  0  0  0  0
   14.2916  -14.6642   19.7458 C   0  0  0  0  0  0  0  0  0  0  0  0
   15.5155  -14.3272   19.0287 C   0  0  0  0  0  0  0  0  0  0  0  0
   15.6182  -13.3292   18.2923 O   0  0  0  0  0  0  0  0  0  0  0  0
   12.8639  -16.1393   22.0412 C   0  0  0  0  0  0  0  0  0  0  0  0
   13.6995  -16.9067   22.8437 O   0  0  0  0  0  0  0  0  0  0  0  0
   16.6195  -15.1518   19.1688 O   0  0  0  0  0  0  0  0  0  0  0  0
   12.1811  -15.1946   22.5688 O   0  0  0  0  0  0  0  0  0  0  0  0
  2  3  1  0
  2  1  1  0
  3  4  2  0
  5  6  1  0
  6  8  1  0
  7  6  2  0
  9  8  1  1
 10  3  1  0
 10  9  1  0
 11 13  1  0
 11  9  1  0
 12 11  2  0
 14 13  1  0
 14 15  1  6
 15 16  1  0
 16 17  1  0
 17 21  1  0
 18 17  2  0
 19 20  1  0
 19 14  1  0
 22 19  2  0
M  END
$$$$
