GNE.pdb
     RDKit          3D

 22 21  0  0  1  0  0  0  0  0999 V2000
   11.3504  -15.7458   15.3389 N   0  0  0  0  0  0  0  0  0  0  0  0
   10.5414  -16.4535   16.3065 C   0  0  0  0  0  0  0  0  0  0  0  0
   10.5741  -15.8446   17.6381 C   0  0  0  0  0  0  0  0  0  0  0  0
   11.6902  -15.5930   18.1604 O   0  0  0  0  0  0  0  0  0  0  0  0
    8.0669  -12.1622   19.1990 N   0  0  0  0  0  0  0  0  0  0  0  0
    7.6041  -13.4704   19.4037 C   0  0  0  0  0  0  0  0  0  0  0  0
    6.5438  -13.8236   18.7853 O   0  0  0  0  0  0  0  0  0  0  0  0
    8.2083  -14.4923   20.2590 C   0  0  0  0  0  0  0  0  0  0  0  0
    9.5219  -15.0210   19.7656 C   0  0  2  0  0  0  0  0  0  0  0  0
    9.4236  -15.5084   18.4035 N   0  0  0  0  0  0  0  0  0  0  0  0
   10.0968  -16.0545   20.6606 C   0  0  0  0  0  0  0  0  0  0  0  0
    9.9951  -17.3010   20.4207 O   0  0  0  0  0  0  0  0  0  0  0  0
   10.7853  -15.7077   21.8227 N   0  0  0  0  0  0  0  0  0  0  0  0
   11.5435  -16.6403   22.6662 C   0  0  1  0  0  0  0  0  0  0  0  0
   12.9581  -16.7184   22.2667 C   0  0  0  0  0  0  0  0  0  0  0  0
   13.6648  -15.4091   22.4359 C   0  0  0  0  0  0  0  0  0  0  0  0
   15.0741  -15.3821   22.0635 C   0  0  0  0  0  0  0  0  0  0  0  0
   15.7324  -14.3298   21.9725 O   0  0  0  0  0  0  0  0  0  0  0  0
   11.4148  -16.1349   24.0488 C   0  0  0  0  0  0  0  0  0  0  0  0
   11.8831  -16.8250   25.1603 O   0  0  0  0  0  0  0  0  0  0  0  0
   15.7169  -16.5796   21.7969 O   0  0  0  0  0  0  0  0  0  0  0  0
   10.8371  -15.0046   24.2095 O   0  0  0  0  0  0  0  0  0  0  0  0
  2  3  1  0
  2  1  1  0
  3  4  2  0
  5  6  1  0
  6  8  1  0
  7  6  2  0
  9  8  1  1
 10  3  1  0
 10  9  1  0
 11 13  1  0
 11  9  1  0
 12 11  2  0
 14 13  1  0
 14 15  1  6
 15 16  1  0
 16 17  1  0
 17 21  1  0
 18 17  2  0
 19 20  1  0
 19 14  1  0
 22 19  2  0
M  END
$$$$
