GNE.pdb
     RDKit          3D

 22 21  0  0  1  0  0  0  0  0999 V2000
    8.5507  -13.5839   16.9831 N   0  0  0  0  0  0  0  0  0  0  0  0
    8.7565  -14.8317   17.6846 C   0  0  0  0  0  0  0  0  0  0  0  0
    9.1762  -14.6467   19.0755 C   0  0  0  0  0  0  0  0  0  0  0  0
   10.2353  -14.0092   19.3075 O   0  0  0  0  0  0  0  0  0  0  0  0
    6.9885  -12.7981   21.5289 N   0  0  0  0  0  0  0  0  0  0  0  0
    6.9175  -13.8615   22.4409 C   0  0  0  0  0  0  0  0  0  0  0  0
    5.9368  -13.8715   23.2591 O   0  0  0  0  0  0  0  0  0  0  0  0
    7.8550  -14.9784   22.5627 C   0  0  0  0  0  0  0  0  0  0  0  0
    8.9683  -14.9700   21.5582 C   0  0  2  0  0  0  0  0  0  0  0  0
    8.4697  -15.1392   20.2072 N   0  0  0  0  0  0  0  0  0  0  0  0
   10.0244  -15.9653   21.8644 C   0  0  0  0  0  0  0  0  0  0  0  0
    9.9218  -17.1931   21.5424 O   0  0  0  0  0  0  0  0  0  0  0  0
   11.1957  -15.6009   22.5276 N   0  0  0  0  0  0  0  0  0  0  0  0
   12.3140  -16.5043   22.8264 C   0  0  1  0  0  0  0  0  0  0  0  0
   13.6101  -15.8074   22.7885 C   0  0  0  0  0  0  0  0  0  0  0  0
   14.7547  -16.7297   23.0738 C   0  0  0  0  0  0  0  0  0  0  0  0
   16.0843  -16.1315   23.0674 C   0  0  0  0  0  0  0  0  0  0  0  0
   16.6206  -15.6795   22.0393 O   0  0  0  0  0  0  0  0  0  0  0  0
   12.0487  -17.0480   24.1746 C   0  0  0  0  0  0  0  0  0  0  0  0
   12.6271  -18.2174   24.6533 O   0  0  0  0  0  0  0  0  0  0  0  0
   16.7895  -16.0598   24.2574 O   0  0  0  0  0  0  0  0  0  0  0  0
   11.2404  -16.3961   24.9221 O   0  0  0  0  0  0  0  0  0  0  0  0
  2  3  1  0
  2  1  1  0
  3  4  2  0
  5  6  1  0
  6  8  1  0
  7  6  2  0
  9  8  1  1
 10  3  1  0
 10  9  1  0
 11 13  1  0
 11  9  1  0
 12 11  2  0
 14 13  1  0
 14 15  1  1
 15 16  1  0
 16 17  1  0
 17 21  1  0
 18 17  2  0
 19 20  1  0
 19 14  1  0
 22 19  2  0
M  END
$$$$
