GNE.pdb
     RDKit          3D

 22 21  0  0  1  0  0  0  0  0999 V2000
    8.4240  -12.4466   19.3352 N   0  0  0  0  0  0  0  0  0  0  0  0
    8.1594  -13.8604   19.4859 C   0  0  0  0  0  0  0  0  0  0  0  0
    8.4093  -14.3503   20.8433 C   0  0  0  0  0  0  0  0  0  0  0  0
    9.2157  -13.7201   21.5745 O   0  0  0  0  0  0  0  0  0  0  0  0
    7.0624  -16.7384   25.9237 N   0  0  0  0  0  0  0  0  0  0  0  0
    7.3794  -17.3133   24.6841 C   0  0  0  0  0  0  0  0  0  0  0  0
    8.0088  -18.4245   24.6937 O   0  0  0  0  0  0  0  0  0  0  0  0
    7.0652  -16.7751   23.3601 C   0  0  0  0  0  0  0  0  0  0  0  0
    8.1816  -16.0060   22.7191 C   0  0  2  0  0  0  0  0  0  0  0  0
    7.8025  -15.5036   21.4129 N   0  0  0  0  0  0  0  0  0  0  0  0
    9.4438  -16.7813   22.6455 C   0  0  0  0  0  0  0  0  0  0  0  0
    9.6087  -17.7446   21.8289 O   0  0  0  0  0  0  0  0  0  0  0  0
   10.5249  -16.4899   23.4767 N   0  0  0  0  0  0  0  0  0  0  0  0
   11.8194  -17.1826   23.4540 C   0  0  1  0  0  0  0  0  0  0  0  0
   12.9138  -16.2909   23.0366 C   0  0  0  0  0  0  0  0  0  0  0  0
   14.2385  -16.9889   23.0303 C   0  0  0  0  0  0  0  0  0  0  0  0
   15.3834  -16.1994   22.5925 C   0  0  0  0  0  0  0  0  0  0  0  0
   15.8711  -15.2767   23.2705 O   0  0  0  0  0  0  0  0  0  0  0  0
   12.0401  -17.6777   24.8287 C   0  0  0  0  0  0  0  0  0  0  0  0
   11.4107  -17.1385   25.9441 O   0  0  0  0  0  0  0  0  0  0  0  0
   15.9602  -16.4839   21.3658 O   0  0  0  0  0  0  0  0  0  0  0  0
   12.8579  -18.6502   24.9784 O   0  0  0  0  0  0  0  0  0  0  0  0
  2  3  1  0
  2  1  1  0
  3  4  2  0
  5  6  1  0
  6  8  1  0
  7  6  2  0
  9  8  1  6
 10  3  1  0
 10  9  1  0
 11 13  1  0
 11  9  1  0
 12 11  2  0
 14 13  1  0
 14 15  1  1
 15 16  1  0
 16 17  1  0
 17 21  1  0
 18 17  2  0
 19 20  1  0
 19 14  1  0
 22 19  2  0
M  END
$$$$
