GNE.pdb
     RDKit          3D

 22 21  0  0  1  0  0  0  0  0999 V2000
    4.8868  -18.7912   21.3181 N   0  0  0  0  0  0  0  0  0  0  0  0
    4.7713  -17.8600   22.4186 C   0  0  0  0  0  0  0  0  0  0  0  0
    6.0666  -17.3712   22.8962 C   0  0  0  0  0  0  0  0  0  0  0  0
    7.1153  -17.9046   22.4514 O   0  0  0  0  0  0  0  0  0  0  0  0
    6.7948  -13.4411   26.9836 N   0  0  0  0  0  0  0  0  0  0  0  0
    6.5766  -14.1818   25.8126 C   0  0  0  0  0  0  0  0  0  0  0  0
    5.3996  -14.6363   25.6137 O   0  0  0  0  0  0  0  0  0  0  0  0
    7.5606  -14.4977   24.7767 C   0  0  0  0  0  0  0  0  0  0  0  0
    7.5483  -15.9260   24.3202 C   0  0  2  0  0  0  0  0  0  0  0  0
    6.2384  -16.3220   23.8408 N   0  0  0  0  0  0  0  0  0  0  0  0
    8.0411  -16.8639   25.3581 C   0  0  0  0  0  0  0  0  0  0  0  0
    7.2713  -17.3933   26.2234 O   0  0  0  0  0  0  0  0  0  0  0  0
    9.3880  -17.2165   25.4380 N   0  0  0  0  0  0  0  0  0  0  0  0
    9.9069  -18.4333   26.0754 C   0  0  1  0  0  0  0  0  0  0  0  0
   10.7457  -19.2209   25.1572 C   0  0  0  0  0  0  0  0  0  0  0  0
   11.2472  -20.4808   25.7923 C   0  0  0  0  0  0  0  0  0  0  0  0
   12.0157  -21.3755   24.9352 C   0  0  0  0  0  0  0  0  0  0  0  0
   11.5109  -22.0134   23.9934 O   0  0  0  0  0  0  0  0  0  0  0  0
   10.6898  -17.9785   27.2433 C   0  0  0  0  0  0  0  0  0  0  0  0
   10.9333  -18.7750   28.3557 O   0  0  0  0  0  0  0  0  0  0  0  0
   13.3715  -21.5276   25.1746 O   0  0  0  0  0  0  0  0  0  0  0  0
   11.1553  -16.7872   27.2104 O   0  0  0  0  0  0  0  0  0  0  0  0
  2  3  1  0
  2  1  1  0
  3  4  2  0
  5  6  1  0
  6  8  1  0
  7  6  2  0
  9  8  1  1
 10  3  1  0
 10  9  1  0
 11 13  1  0
 11  9  1  0
 12 11  2  0
 14 13  1  0
 14 15  1  6
 15 16  1  0
 16 17  1  0
 17 21  1  0
 18 17  2  0
 19 20  1  0
 19 14  1  0
 22 19  2  0
M  END
$$$$
