GNE.pdb
     RDKit          3D

 22 21  0  0  1  0  0  0  0  0999 V2000
   11.6972  -16.0582   15.3312 N   0  0  0  0  0  0  0  0  0  0  0  0
   10.4379  -16.0510   16.0422 C   0  0  0  0  0  0  0  0  0  0  0  0
   10.5389  -15.4733   17.3843 C   0  0  0  0  0  0  0  0  0  0  0  0
   11.6643  -15.0888   17.7936 O   0  0  0  0  0  0  0  0  0  0  0  0
    7.6522  -11.8683   19.4268 N   0  0  0  0  0  0  0  0  0  0  0  0
    7.6049  -13.2656   19.3131 C   0  0  0  0  0  0  0  0  0  0  0  0
    6.8789  -13.7569   18.3842 O   0  0  0  0  0  0  0  0  0  0  0  0
    8.3045  -14.2394   20.1518 C   0  0  0  0  0  0  0  0  0  0  0  0
    9.6115  -14.7177   19.5935 C   0  0  2  0  0  0  0  0  0  0  0  0
    9.4464  -15.3090   18.2799 N   0  0  0  0  0  0  0  0  0  0  0  0
   10.3214  -15.6439   20.5088 C   0  0  0  0  0  0  0  0  0  0  0  0
   10.0105  -16.8744   20.6139 O   0  0  0  0  0  0  0  0  0  0  0  0
   11.3771  -15.2075   21.3086 N   0  0  0  0  0  0  0  0  0  0  0  0
   12.1744  -16.0629   22.1969 C   0  0  1  0  0  0  0  0  0  0  0  0
   13.5599  -15.5825   22.3260 C   0  0  0  0  0  0  0  0  0  0  0  0
   14.2959  -15.6274   21.0227 C   0  0  0  0  0  0  0  0  0  0  0  0
   15.6775  -15.1623   21.0439 C   0  0  0  0  0  0  0  0  0  0  0  0
   16.2322  -14.7283   22.0700 O   0  0  0  0  0  0  0  0  0  0  0  0
   11.4872  -16.0434   23.5049 C   0  0  0  0  0  0  0  0  0  0  0  0
   11.8323  -16.8785   24.5607 O   0  0  0  0  0  0  0  0  0  0  0  0
   16.4131  -15.2022   19.8710 O   0  0  0  0  0  0  0  0  0  0  0  0
   10.5268  -15.2109   23.6514 O   0  0  0  0  0  0  0  0  0  0  0  0
  2  3  1  0
  2  1  1  0
  3  4  2  0
  5  6  1  0
  6  8  1  0
  7  6  2  0
  9  8  1  1
 10  3  1  0
 10  9  1  0
 11 13  1  0
 11  9  1  0
 12 11  2  0
 14 13  1  0
 14 15  1  1
 15 16  1  0
 16 17  1  0
 17 21  1  0
 18 17  2  0
 19 20  1  0
 19 14  1  0
 22 19  2  0
M  END
$$$$
