GNE.pdb
     RDKit          3D

 22 21  0  0  1  0  0  0  0  0999 V2000
    6.4328  -19.5604   20.5480 N   0  0  0  0  0  0  0  0  0  0  0  0
    6.2552  -18.1847   20.9575 C   0  0  0  0  0  0  0  0  0  0  0  0
    7.4797  -17.3891   20.8453 C   0  0  0  0  0  0  0  0  0  0  0  0
    8.5642  -17.9793   20.6052 O   0  0  0  0  0  0  0  0  0  0  0  0
    6.6516  -12.6603   19.3222 N   0  0  0  0  0  0  0  0  0  0  0  0
    7.7637  -13.5102   19.4142 C   0  0  0  0  0  0  0  0  0  0  0  0
    8.1352  -14.1117   18.3505 O   0  0  0  0  0  0  0  0  0  0  0  0
    8.5590  -13.7899   20.6103 C   0  0  0  0  0  0  0  0  0  0  0  0
    8.7921  -15.2470   20.8770 C   0  0  2  0  0  0  0  0  0  0  0  0
    7.5434  -15.9756   20.9889 N   0  0  0  0  0  0  0  0  0  0  0  0
    9.6538  -15.4826   22.0608 C   0  0  0  0  0  0  0  0  0  0  0  0
    9.3113  -15.1344   23.2369 O   0  0  0  0  0  0  0  0  0  0  0  0
   10.8963  -16.1048   21.9427 N   0  0  0  0  0  0  0  0  0  0  0  0
   11.7944  -16.4184   23.0613 C   0  0  1  0  0  0  0  0  0  0  0  0
   11.9343  -17.8696   23.2647 C   0  0  0  0  0  0  0  0  0  0  0  0
   10.7797  -18.4464   24.0238 C   0  0  0  0  0  0  0  0  0  0  0  0
   10.8259  -19.8810   24.2799 C   0  0  0  0  0  0  0  0  0  0  0  0
   11.3164  -20.3708   25.3135 O   0  0  0  0  0  0  0  0  0  0  0  0
   13.0961  -15.8073   22.7215 C   0  0  0  0  0  0  0  0  0  0  0  0
   14.1102  -15.6059   23.6501 O   0  0  0  0  0  0  0  0  0  0  0  0
   10.3015  -20.7450   23.3329 O   0  0  0  0  0  0  0  0  0  0  0  0
   13.2776  -15.4495   21.5066 O   0  0  0  0  0  0  0  0  0  0  0  0
  2  3  1  0
  2  1  1  0
  3  4  2  0
  5  6  1  0
  6  8  1  0
  7  6  2  0
  9  8  1  1
 10  3  1  0
 10  9  1  0
 11 13  1  0
 11  9  1  0
 12 11  2  0
 14 13  1  0
 14 15  1  6
 15 16  1  0
 16 17  1  0
 17 21  1  0
 18 17  2  0
 19 20  1  0
 19 14  1  0
 22 19  2  0
M  END
$$$$
