GNE.pdb
     RDKit          3D

 22 21  0  0  1  0  0  0  0  0999 V2000
    8.1973  -15.2061   19.4229 N   0  0  0  0  0  0  0  0  0  0  0  0
    7.1677  -15.0859   20.4314 C   0  0  0  0  0  0  0  0  0  0  0  0
    7.6828  -14.6415   21.7284 C   0  0  0  0  0  0  0  0  0  0  0  0
    8.9279  -14.5762   21.8940 O   0  0  0  0  0  0  0  0  0  0  0  0
    6.2233  -12.5072   27.4448 N   0  0  0  0  0  0  0  0  0  0  0  0
    6.9908  -12.8858   26.3334 C   0  0  0  0  0  0  0  0  0  0  0  0
    8.2526  -12.9952   26.4984 O   0  0  0  0  0  0  0  0  0  0  0  0
    6.5014  -13.1741   24.9848 C   0  0  0  0  0  0  0  0  0  0  0  0
    7.4405  -13.9828   24.1407 C   0  0  2  0  0  0  0  0  0  0  0  0
    6.8736  -14.2708   22.8376 N   0  0  0  0  0  0  0  0  0  0  0  0
    7.8891  -15.2265   24.8127 C   0  0  0  0  0  0  0  0  0  0  0  0
    7.0737  -16.1093   25.2339 O   0  0  0  0  0  0  0  0  0  0  0  0
    9.2423  -15.4935   25.0185 N   0  0  0  0  0  0  0  0  0  0  0  0
    9.7768  -16.6911   25.6790 C   0  0  1  0  0  0  0  0  0  0  0  0
   11.1096  -17.0524   25.1692 C   0  0  0  0  0  0  0  0  0  0  0  0
   11.0938  -17.3320   23.6982 C   0  0  0  0  0  0  0  0  0  0  0  0
   12.3936  -17.4607   23.0504 C   0  0  0  0  0  0  0  0  0  0  0  0
   12.7898  -16.6837   22.1626 O   0  0  0  0  0  0  0  0  0  0  0  0
    9.8346  -16.3694   27.1201 C   0  0  0  0  0  0  0  0  0  0  0  0
   10.1886  -17.2944   28.0948 O   0  0  0  0  0  0  0  0  0  0  0  0
   13.2320  -18.4937   23.4360 O   0  0  0  0  0  0  0  0  0  0  0  0
    9.5368  -15.1746   27.4674 O   0  0  0  0  0  0  0  0  0  0  0  0
  2  3  1  0
  2  1  1  0
  3  4  2  0
  5  6  1  0
  6  8  1  0
  7  6  2  0
  9  8  1  1
 10  3  1  0
 10  9  1  0
 11 13  1  0
 11  9  1  0
 12 11  2  0
 14 13  1  0
 14 15  1  6
 15 16  1  0
 16 17  1  0
 17 21  1  0
 18 17  2  0
 19 20  1  0
 19 14  1  0
 22 19  2  0
M  END
$$$$
