GNE.pdb
     RDKit          3D

 22 21  0  0  1  0  0  0  0  0999 V2000
   10.2212  -18.2829   16.6042 N   0  0  0  0  0  0  0  0  0  0  0  0
    9.7160  -17.8996   17.9040 C   0  0  0  0  0  0  0  0  0  0  0  0
   10.0162  -16.5085   18.2499 C   0  0  0  0  0  0  0  0  0  0  0  0
   11.0563  -15.9798   17.7803 O   0  0  0  0  0  0  0  0  0  0  0  0
    8.3742  -13.4213   17.0667 N   0  0  0  0  0  0  0  0  0  0  0  0
    7.9049  -13.0657   18.3399 C   0  0  0  0  0  0  0  0  0  0  0  0
    6.8427  -12.3590   18.4000 O   0  0  0  0  0  0  0  0  0  0  0  0
    8.5043  -13.4185   19.6272 C   0  0  0  0  0  0  0  0  0  0  0  0
    9.6490  -14.3832   19.5383 C   0  0  2  0  0  0  0  0  0  0  0  0
    9.2113  -15.6910   19.0905 N   0  0  0  0  0  0  0  0  0  0  0  0
   10.4147  -14.4827   20.8046 C   0  0  0  0  0  0  0  0  0  0  0  0
   11.0032  -13.4825   21.3290 O   0  0  0  0  0  0  0  0  0  0  0  0
   10.5289  -15.6910   21.4913 N   0  0  0  0  0  0  0  0  0  0  0  0
   11.3222  -15.8994   22.7093 C   0  0  1  0  0  0  0  0  0  0  0  0
   10.8023  -17.0117   23.5213 C   0  0  0  0  0  0  0  0  0  0  0  0
   11.6526  -17.2764   24.7251 C   0  0  0  0  0  0  0  0  0  0  0  0
   11.2971  -18.4430   25.5241 C   0  0  0  0  0  0  0  0  0  0  0  0
   12.0125  -18.8793   26.4444 O   0  0  0  0  0  0  0  0  0  0  0  0
   12.7000  -16.1796   22.2545 C   0  0  0  0  0  0  0  0  0  0  0  0
   13.0002  -16.6816   20.9939 O   0  0  0  0  0  0  0  0  0  0  0  0
   10.1094  -19.1015   25.2518 O   0  0  0  0  0  0  0  0  0  0  0  0
   13.6497  -15.9446   23.0789 O   0  0  0  0  0  0  0  0  0  0  0  0
  2  3  1  0
  2  1  1  0
  3  4  2  0
  5  6  1  0
  6  8  1  0
  7  6  2  0
  9  8  1  1
 10  3  1  0
 10  9  1  0
 11 13  1  0
 11  9  1  0
 12 11  2  0
 14 13  1  0
 14 15  1  6
 15 16  1  0
 16 17  1  0
 17 21  1  0
 18 17  2  0
 19 20  1  0
 19 14  1  0
 22 19  2  0
M  END
$$$$
