GNE.pdb
     RDKit          3D

 22 21  0  0  1  0  0  0  0  0999 V2000
   16.7306  -13.4059   16.5341 N   0  0  0  0  0  0  0  0  0  0  0  0
   15.5838  -14.2719   16.6978 C   0  0  0  0  0  0  0  0  0  0  0  0
   14.9514  -14.1455   18.0127 C   0  0  0  0  0  0  0  0  0  0  0  0
   15.6509  -13.7636   18.9857 O   0  0  0  0  0  0  0  0  0  0  0  0
   11.0238  -16.7279   19.2051 N   0  0  0  0  0  0  0  0  0  0  0  0
   10.8829  -15.3654   18.9024 C   0  0  0  0  0  0  0  0  0  0  0  0
   10.1140  -15.0542   17.9312 O   0  0  0  0  0  0  0  0  0  0  0  0
   11.5275  -14.2427   19.5844 C   0  0  0  0  0  0  0  0  0  0  0  0
   13.0252  -14.3103   19.6172 C   0  0  2  0  0  0  0  0  0  0  0  0
   13.5837  -14.4254   18.2840 N   0  0  0  0  0  0  0  0  0  0  0  0
   13.5314  -15.3882   20.5013 C   0  0  0  0  0  0  0  0  0  0  0  0
   13.6684  -16.5906   20.1050 O   0  0  0  0  0  0  0  0  0  0  0  0
   13.8866  -15.1346   21.8257 N   0  0  0  0  0  0  0  0  0  0  0  0
   14.5016  -16.1078   22.7372 C   0  0  1  0  0  0  0  0  0  0  0  0
   15.8035  -15.6423   23.2427 C   0  0  0  0  0  0  0  0  0  0  0  0
   16.8406  -15.5888   22.1640 C   0  0  0  0  0  0  0  0  0  0  0  0
   18.1794  -15.1819   22.5738 C   0  0  0  0  0  0  0  0  0  0  0  0
   19.0300  -15.9816   23.0049 O   0  0  0  0  0  0  0  0  0  0  0  0
   13.5418  -16.2899   23.8458 C   0  0  0  0  0  0  0  0  0  0  0  0
   13.6855  -17.2630   24.8275 O   0  0  0  0  0  0  0  0  0  0  0  0
   18.5278  -13.8445   22.4818 O   0  0  0  0  0  0  0  0  0  0  0  0
   12.5328  -15.5042   23.8840 O   0  0  0  0  0  0  0  0  0  0  0  0
  2  3  1  0
  2  1  1  0
  3  4  2  0
  5  6  1  0
  6  8  1  0
  7  6  2  0
  9  8  1  6
 10  3  1  0
 10  9  1  0
 11 13  1  0
 11  9  1  0
 12 11  2  0
 14 13  1  0
 14 15  1  1
 15 16  1  0
 16 17  1  0
 17 21  1  0
 18 17  2  0
 19 20  1  0
 19 14  1  0
 22 19  2  0
M  END
$$$$
