GNE.pdb
     RDKit          3D

 22 21  0  0  1  0  0  0  0  0999 V2000
    6.8953  -12.5204   18.0187 N   0  0  0  0  0  0  0  0  0  0  0  0
    8.2308  -12.2284   18.4906 C   0  0  0  0  0  0  0  0  0  0  0  0
    9.0260  -13.4316   18.7458 C   0  0  0  0  0  0  0  0  0  0  0  0
    8.6870  -14.5088   18.1921 O   0  0  0  0  0  0  0  0  0  0  0  0
   12.6984  -16.8311   17.8924 N   0  0  0  0  0  0  0  0  0  0  0  0
   12.8666  -15.4396   17.8356 C   0  0  0  0  0  0  0  0  0  0  0  0
   14.0289  -14.9982   17.5431 O   0  0  0  0  0  0  0  0  0  0  0  0
   11.8448  -14.4206   18.0774 C   0  0  0  0  0  0  0  0  0  0  0  0
   11.1973  -14.4955   19.4279 C   0  0  2  0  0  0  0  0  0  0  0  0
   10.1726  -13.4817   19.5856 N   0  0  0  0  0  0  0  0  0  0  0  0
   12.1787  -14.4377   20.5384 C   0  0  0  0  0  0  0  0  0  0  0  0
   13.3317  -13.9136   20.4062 O   0  0  0  0  0  0  0  0  0  0  0  0
   11.8832  -14.9606   21.7969 N   0  0  0  0  0  0  0  0  0  0  0  0
   12.8563  -15.5828   22.7036 C   0  0  1  0  0  0  0  0  0  0  0  0
   12.3421  -16.8310   23.2906 C   0  0  0  0  0  0  0  0  0  0  0  0
   13.3431  -17.4840   24.1926 C   0  0  0  0  0  0  0  0  0  0  0  0
   12.8260  -18.0407   25.4370 C   0  0  0  0  0  0  0  0  0  0  0  0
   12.0269  -17.4328   26.1724 O   0  0  0  0  0  0  0  0  0  0  0  0
   14.0623  -15.8423   21.8900 C   0  0  0  0  0  0  0  0  0  0  0  0
   14.0510  -16.6112   20.7325 O   0  0  0  0  0  0  0  0  0  0  0  0
   13.2390  -19.3045   25.8251 O   0  0  0  0  0  0  0  0  0  0  0  0
   15.1628  -15.3268   22.2903 O   0  0  0  0  0  0  0  0  0  0  0  0
  2  3  1  0
  2  1  1  0
  3  4  2  0
  5  6  1  0
  6  8  1  0
  7  6  2  0
  9  8  1  6
 10  3  1  0
 10  9  1  0
 11 13  1  0
 11  9  1  0
 12 11  2  0
 14 13  1  0
 14 15  1  6
 15 16  1  0
 16 17  1  0
 17 21  1  0
 18 17  2  0
 19 20  1  0
 19 14  1  0
 22 19  2  0
M  END
$$$$
