KFE.pdb
     RDKit          3D

 30 30  0  0  1  0  0  0  0  0999 V2000
    7.4604  -17.5558   20.8695 N   0  0  0  0  0  0  0  0  0  0  0  0
    8.0892  -16.2847   20.6736 C   0  0  1  0  0  0  0  0  0  0  0  0
    7.1261  -15.3969   19.9108 C   0  0  0  0  0  0  0  0  0  0  0  0
    7.8626  -14.1507   19.5062 C   0  0  0  0  0  0  0  0  0  0  0  0
    8.1666  -14.1380   18.0169 C   0  0  0  0  0  0  0  0  0  0  0  0
    8.9986  -12.9002   17.7516 C   0  0  0  0  0  0  0  0  0  0  0  0
    9.2664  -12.8582   16.3326 N   0  0  0  0  0  0  0  0  0  0  0  0
    8.4346  -15.6332   21.9898 C   0  0  0  0  0  0  0  0  0  0  0  0
    9.4185  -14.8637   22.0697 O   0  0  0  0  0  0  0  0  0  0  0  0
    7.6495  -15.8871   23.1426 N   0  0  0  0  0  0  0  0  0  0  0  0
    8.0589  -15.3491   24.4200 C   0  0  1  0  0  0  0  0  0  0  0  0
    6.9252  -14.7158   25.1881 C   0  0  0  0  0  0  0  0  0  0  0  0
    7.3330  -14.0554   26.4430 C   0  0  0  0  0  0  0  0  0  0  0  0
    7.6410  -12.7169   26.5119 C   0  0  0  0  0  0  0  0  0  0  0  0
    8.0109  -12.1082   27.7063 C   0  0  0  0  0  0  0  0  0  0  0  0
    8.0730  -12.8583   28.8551 C   0  0  0  0  0  0  0  0  0  0  0  0
    7.7676  -14.1974   28.8001 C   0  0  0  0  0  0  0  0  0  0  0  0
    7.4028  -14.7854   27.6081 C   0  0  0  0  0  0  0  0  0  0  0  0
    8.8857  -16.2859   25.1875 C   0  0  0  0  0  0  0  0  0  0  0  0
    8.5172  -17.4621   25.4704 O   0  0  0  0  0  0  0  0  0  0  0  0
   10.1797  -15.9449   25.6813 N   0  0  0  0  0  0  0  0  0  0  0  0
   11.0549  -16.9862   26.3127 C   0  0  1  0  0  0  0  0  0  0  0  0
   12.3990  -16.8277   25.7196 C   0  0  0  0  0  0  0  0  0  0  0  0
   12.5108  -16.2861   24.3645 C   0  0  0  0  0  0  0  0  0  0  0  0
   13.8341  -16.1885   23.7361 C   0  0  0  0  0  0  0  0  0  0  0  0
   14.3863  -17.1631   23.1170 O   0  0  0  0  0  0  0  0  0  0  0  0
   10.9165  -16.7450   27.7540 C   0  0  0  0  0  0  0  0  0  0  0  0
   10.2670  -15.5858   28.2393 O   0  0  0  0  0  0  0  0  0  0  0  0
   14.5942  -15.0051   23.7680 O   0  0  0  0  0  0  0  0  0  0  0  0
   11.3354  -17.4979   28.6596 O   0  0  0  0  0  0  0  0  0  0  0  0
  2  1  1  1
  2  3  1  0
  4  5  1  0
  4  3  1  0
  6  5  1  0
  7  6  1  0
  8  9  2  0
  8  2  1  0
 10  8  1  0
 11 10  1  0
 11 12  1  1
 13 12  1  0
 13 14  2  0
 15 14  1  0
 16 15  2  0
 17 18  2  0
 17 16  1  0
 18 13  1  0
 19 21  1  0
 19 11  1  0
 20 19  2  0
 22 21  1  0
 22 27  1  0
 22 23  1  6
 23 24  1  0
 24 25  1  0
 25 26  2  0
 25 29  1  0
 27 28  1  0
 30 27  2  0
M  END
$$$$
