KFE.pdb
     RDKit          3D

 30 30  0  0  1  0  0  0  0  0999 V2000
    8.2919  -16.7490   20.0256 N   0  0  0  0  0  0  0  0  0  0  0  0
    9.2097  -15.6509   19.9882 C   0  0  1  0  0  0  0  0  0  0  0  0
    8.7217  -14.6663   18.9442 C   0  0  0  0  0  0  0  0  0  0  0  0
    8.7927  -15.3382   17.6016 C   0  0  0  0  0  0  0  0  0  0  0  0
    8.3932  -14.3932   16.4800 C   0  0  0  0  0  0  0  0  0  0  0  0
    8.4605  -15.1894   15.1932 C   0  0  0  0  0  0  0  0  0  0  0  0
    7.8759  -14.3753   14.1528 N   0  0  0  0  0  0  0  0  0  0  0  0
    9.2950  -14.9596   21.3266 C   0  0  0  0  0  0  0  0  0  0  0  0
   10.1928  -14.1140   21.5395 O   0  0  0  0  0  0  0  0  0  0  0  0
    8.3616  -15.2619   22.3498 N   0  0  0  0  0  0  0  0  0  0  0  0
    8.4029  -14.5300   23.5953 C   0  0  1  0  0  0  0  0  0  0  0  0
    7.0422  -14.0755   24.0621 C   0  0  0  0  0  0  0  0  0  0  0  0
    7.0529  -13.3236   25.3317 C   0  0  0  0  0  0  0  0  0  0  0  0
    6.5757  -13.8485   26.5099 C   0  0  0  0  0  0  0  0  0  0  0  0
    6.6058  -13.1300   27.7002 C   0  0  0  0  0  0  0  0  0  0  0  0
    7.1253  -11.8587   27.7081 C   0  0  0  0  0  0  0  0  0  0  0  0
    7.6056  -11.3222   26.5373 C   0  0  0  0  0  0  0  0  0  0  0  0
    7.5684  -12.0476   25.3659 C   0  0  0  0  0  0  0  0  0  0  0  0
    9.2214  -15.1958   24.6136 C   0  0  0  0  0  0  0  0  0  0  0  0
    9.6382  -14.6132   25.6558 O   0  0  0  0  0  0  0  0  0  0  0  0
    9.6175  -16.5623   24.5109 N   0  0  0  0  0  0  0  0  0  0  0  0
   10.5355  -17.1699   25.5292 C   0  0  1  0  0  0  0  0  0  0  0  0
   10.0022  -18.5139   25.8335 C   0  0  0  0  0  0  0  0  0  0  0  0
   10.7898  -19.4076   26.6838 C   0  0  0  0  0  0  0  0  0  0  0  0
   10.1778  -19.9754   27.8916 C   0  0  0  0  0  0  0  0  0  0  0  0
    8.9149  -20.1325   28.0261 O   0  0  0  0  0  0  0  0  0  0  0  0
   11.8629  -17.0914   24.9074 C   0  0  0  0  0  0  0  0  0  0  0  0
   12.1345  -17.7494   23.6850 O   0  0  0  0  0  0  0  0  0  0  0  0
   10.9439  -20.3933   28.9950 O   0  0  0  0  0  0  0  0  0  0  0  0
   12.8440  -16.4678   25.3669 O   0  0  0  0  0  0  0  0  0  0  0  0
  2  1  1  1
  2  3  1  0
  4  5  1  0
  4  3  1  0
  6  5  1  0
  7  6  1  0
  8  9  2  0
  8  2  1  0
 10  8  1  0
 11 10  1  0
 11 12  1  1
 13 12  1  0
 13 14  2  0
 15 14  1  0
 16 15  2  0
 17 18  2  0
 17 16  1  0
 18 13  1  0
 19 21  1  0
 19 11  1  0
 20 19  2  0
 22 21  1  0
 22 27  1  0
 22 23  1  6
 23 24  1  0
 24 25  1  0
 25 26  2  0
 25 29  1  0
 27 28  1  0
 30 27  2  0
M  END
$$$$
