KFE.pdb
     RDKit          3D

 30 30  0  0  1  0  0  0  0  0999 V2000
    7.5063  -15.8361   20.4802 N   0  0  0  0  0  0  0  0  0  0  0  0
    8.5539  -14.9564   20.9021 C   0  0  1  0  0  0  0  0  0  0  0  0
    8.1557  -13.5412   20.5332 C   0  0  0  0  0  0  0  0  0  0  0  0
    8.5511  -13.3042   19.1026 C   0  0  0  0  0  0  0  0  0  0  0  0
    7.4369  -13.6873   18.1422 C   0  0  0  0  0  0  0  0  0  0  0  0
    7.9385  -13.3800   16.7464 C   0  0  0  0  0  0  0  0  0  0  0  0
    6.9653  -13.9020   15.8151 N   0  0  0  0  0  0  0  0  0  0  0  0
    8.7768  -15.0412   22.3918 C   0  0  0  0  0  0  0  0  0  0  0  0
    9.7551  -14.4607   22.9136 O   0  0  0  0  0  0  0  0  0  0  0  0
    7.8822  -15.7770   23.2092 N   0  0  0  0  0  0  0  0  0  0  0  0
    8.1290  -15.8778   24.6297 C   0  0  1  0  0  0  0  0  0  0  0  0
    6.9140  -15.5635   25.4670 C   0  0  0  0  0  0  0  0  0  0  0  0
    6.7329  -14.1296   25.7643 C   0  0  0  0  0  0  0  0  0  0  0  0
    7.3656  -13.5025   26.8121 C   0  0  0  0  0  0  0  0  0  0  0  0
    7.1933  -12.1468   27.0696 C   0  0  0  0  0  0  0  0  0  0  0  0
    6.3690  -11.4053   26.2591 C   0  0  0  0  0  0  0  0  0  0  0  0
    5.7305  -12.0199   25.2084 C   0  0  0  0  0  0  0  0  0  0  0  0
    5.9120  -13.3647   24.9667 C   0  0  0  0  0  0  0  0  0  0  0  0
    8.8350  -17.1106   24.9931 C   0  0  0  0  0  0  0  0  0  0  0  0
    8.6039  -18.2270   24.4460 O   0  0  0  0  0  0  0  0  0  0  0  0
    9.8448  -17.1518   25.9997 N   0  0  0  0  0  0  0  0  0  0  0  0
   10.5953  -18.4201   26.2771 C   0  0  1  0  0  0  0  0  0  0  0  0
   11.5412  -18.6075   25.1574 C   0  0  0  0  0  0  0  0  0  0  0  0
   12.5925  -17.6106   24.9501 C   0  0  0  0  0  0  0  0  0  0  0  0
   13.5535  -17.7962   23.8557 C   0  0  0  0  0  0  0  0  0  0  0  0
   13.2448  -17.6461   22.6229 O   0  0  0  0  0  0  0  0  0  0  0  0
   11.1608  -18.2165   27.6163 C   0  0  0  0  0  0  0  0  0  0  0  0
   11.8760  -19.2476   28.2692 O   0  0  0  0  0  0  0  0  0  0  0  0
   14.8945  -18.1525   24.0876 O   0  0  0  0  0  0  0  0  0  0  0  0
   11.0757  -17.1659   28.2883 O   0  0  0  0  0  0  0  0  0  0  0  0
  2  1  1  1
  2  3  1  0
  4  5  1  0
  4  3  1  0
  6  5  1  0
  7  6  1  0
  8  9  2  0
  8  2  1  0
 10  8  1  0
 11 10  1  0
 11 12  1  1
 13 12  1  0
 13 14  2  0
 15 14  1  0
 16 15  2  0
 17 18  2  0
 17 16  1  0
 18 13  1  0
 19 21  1  0
 19 11  1  0
 20 19  2  0
 22 21  1  0
 22 27  1  0
 22 23  1  6
 23 24  1  0
 24 25  1  0
 25 26  2  0
 25 29  1  0
 27 28  1  0
 30 27  2  0
M  END
$$$$
