KFE.pdb
     RDKit          3D

 30 30  0  0  1  0  0  0  0  0999 V2000
    8.1405  -18.0793   20.7925 N   0  0  0  0  0  0  0  0  0  0  0  0
    9.4374  -17.4908   20.9381 C   0  0  1  0  0  0  0  0  0  0  0  0
    9.8377  -16.9000   19.6008 C   0  0  0  0  0  0  0  0  0  0  0  0
    9.8129  -18.0018   18.5789 C   0  0  0  0  0  0  0  0  0  0  0  0
   10.6142  -17.6356   17.3402 C   0  0  0  0  0  0  0  0  0  0  0  0
   10.4218  -18.7627   16.3466 C   0  0  0  0  0  0  0  0  0  0  0  0
   11.1934  -18.4350   15.1701 N   0  0  0  0  0  0  0  0  0  0  0  0
    9.4339  -16.4038   21.9843 C   0  0  0  0  0  0  0  0  0  0  0  0
   10.4776  -15.7532   22.2163 O   0  0  0  0  0  0  0  0  0  0  0  0
    8.2517  -16.1122   22.7104 N   0  0  0  0  0  0  0  0  0  0  0  0
    8.3069  -15.2030   23.8325 C   0  0  1  0  0  0  0  0  0  0  0  0
    7.0545  -14.3765   23.9889 C   0  0  0  0  0  0  0  0  0  0  0  0
    7.0070  -13.5691   25.2230 C   0  0  0  0  0  0  0  0  0  0  0  0
    6.3527  -13.9858   26.3586 C   0  0  0  0  0  0  0  0  0  0  0  0
    6.3295  -13.2174   27.5174 C   0  0  0  0  0  0  0  0  0  0  0  0
    6.9760  -12.0058   27.5369 C   0  0  0  0  0  0  0  0  0  0  0  0
    7.6338  -11.5775   26.4085 C   0  0  0  0  0  0  0  0  0  0  0  0
    7.6474  -12.3512   25.2679 C   0  0  0  0  0  0  0  0  0  0  0  0
    8.7847  -15.8495   25.0589 C   0  0  0  0  0  0  0  0  0  0  0  0
    8.1237  -16.7317   25.6785 O   0  0  0  0  0  0  0  0  0  0  0  0
   10.0405  -15.5337   25.6570 N   0  0  0  0  0  0  0  0  0  0  0  0
   10.6952  -16.4902   26.6085 C   0  0  1  0  0  0  0  0  0  0  0  0
   11.9916  -16.8666   26.0075 C   0  0  0  0  0  0  0  0  0  0  0  0
   13.0210  -15.8377   25.8534 C   0  0  0  0  0  0  0  0  0  0  0  0
   14.2791  -16.1750   25.1758 C   0  0  0  0  0  0  0  0  0  0  0  0
   14.4473  -16.0489   23.9134 O   0  0  0  0  0  0  0  0  0  0  0  0
   10.7239  -15.7640   27.8839 C   0  0  0  0  0  0  0  0  0  0  0  0
   11.1025  -16.4125   29.0827 O   0  0  0  0  0  0  0  0  0  0  0  0
   15.3993  -16.6624   25.8733 O   0  0  0  0  0  0  0  0  0  0  0  0
   10.4322  -14.5585   28.0396 O   0  0  0  0  0  0  0  0  0  0  0  0
  2  1  1  6
  2  3  1  0
  4  5  1  0
  4  3  1  0
  6  5  1  0
  7  6  1  0
  8  9  2  0
  8  2  1  0
 10  8  1  0
 11 10  1  0
 11 12  1  1
 13 12  1  0
 13 14  2  0
 15 14  1  0
 16 15  2  0
 17 18  2  0
 17 16  1  0
 18 13  1  0
 19 21  1  0
 19 11  1  0
 20 19  2  0
 22 21  1  0
 22 27  1  0
 22 23  1  6
 23 24  1  0
 24 25  1  0
 25 26  2  0
 25 29  1  0
 27 28  1  0
 30 27  2  0
M  END
$$$$
