KFE.pdb
     RDKit          3D

 30 30  0  0  1  0  0  0  0  0999 V2000
    9.8040  -16.8766   19.2325 N   0  0  0  0  0  0  0  0  0  0  0  0
    8.5649  -16.6512   19.9132 C   0  0  1  0  0  0  0  0  0  0  0  0
    7.8707  -17.9883   20.0798 C   0  0  0  0  0  0  0  0  0  0  0  0
    8.7466  -19.0467   19.4699 C   0  0  0  0  0  0  0  0  0  0  0  0
    7.9259  -20.1828   18.8814 C   0  0  0  0  0  0  0  0  0  0  0  0
    8.7934  -21.4232   18.9381 C   0  0  0  0  0  0  0  0  0  0  0  0
    8.0279  -22.5095   18.3717 N   0  0  0  0  0  0  0  0  0  0  0  0
    8.7878  -16.0308   21.2702 C   0  0  0  0  0  0  0  0  0  0  0  0
    9.8777  -16.1946   21.8633 O   0  0  0  0  0  0  0  0  0  0  0  0
    7.7672  -15.2599   21.8818 N   0  0  0  0  0  0  0  0  0  0  0  0
    7.9767  -14.7156   23.2042 C   0  0  1  0  0  0  0  0  0  0  0  0
    6.9943  -13.6275   23.5606 C   0  0  0  0  0  0  0  0  0  0  0  0
    7.1572  -13.0809   24.9215 C   0  0  0  0  0  0  0  0  0  0  0  0
    6.3484  -13.4485   25.9713 C   0  0  0  0  0  0  0  0  0  0  0  0
    6.5248  -12.9329   27.2507 C   0  0  0  0  0  0  0  0  0  0  0  0
    7.5335  -12.0298   27.4812 C   0  0  0  0  0  0  0  0  0  0  0  0
    8.3491  -11.6539   26.4406 C   0  0  0  0  0  0  0  0  0  0  0  0
    8.1609  -12.1744   25.1783 C   0  0  0  0  0  0  0  0  0  0  0  0
    8.1499  -15.7573   24.2217 C   0  0  0  0  0  0  0  0  0  0  0  0
    7.4531  -16.8120   24.2575 O   0  0  0  0  0  0  0  0  0  0  0  0
    9.1231  -15.6651   25.2604 N   0  0  0  0  0  0  0  0  0  0  0  0
    9.7208  -16.9034   25.8590 C   0  0  1  0  0  0  0  0  0  0  0  0
   10.6506  -17.4557   24.8520 C   0  0  0  0  0  0  0  0  0  0  0  0
   11.4807  -18.6048   25.2162 C   0  0  0  0  0  0  0  0  0  0  0  0
   12.3751  -19.1929   24.2113 C   0  0  0  0  0  0  0  0  0  0  0  0
   13.6430  -19.2716   24.3663 O   0  0  0  0  0  0  0  0  0  0  0  0
   10.2920  -16.4467   27.1317 C   0  0  0  0  0  0  0  0  0  0  0  0
   10.4184  -17.3279   28.2311 O   0  0  0  0  0  0  0  0  0  0  0  0
   11.8967  -19.7189   22.9975 O   0  0  0  0  0  0  0  0  0  0  0  0
   10.7062  -15.2913   27.3685 O   0  0  0  0  0  0  0  0  0  0  0  0
  2  1  1  1
  2  3  1  0
  4  5  1  0
  4  3  1  0
  6  5  1  0
  7  6  1  0
  8  9  2  0
  8  2  1  0
 10  8  1  0
 11 10  1  0
 11 12  1  1
 13 12  1  0
 13 14  2  0
 15 14  1  0
 16 15  2  0
 17 18  2  0
 17 16  1  0
 18 13  1  0
 19 21  1  0
 19 11  1  0
 20 19  2  0
 22 21  1  0
 22 27  1  0
 22 23  1  6
 23 24  1  0
 24 25  1  0
 25 26  2  0
 25 29  1  0
 27 28  1  0
 30 27  2  0
M  END
$$$$
