KFE.pdb
     RDKit          3D

 30 30  0  0  1  0  0  0  0  0999 V2000
    8.6009  -18.1242   20.7817 N   0  0  0  0  0  0  0  0  0  0  0  0
    9.8311  -17.4040   20.9134 C   0  0  1  0  0  0  0  0  0  0  0  0
   10.1285  -16.7359   19.5858 C   0  0  0  0  0  0  0  0  0  0  0  0
   10.2637  -17.8106   18.5437 C   0  0  0  0  0  0  0  0  0  0  0  0
   10.4464  -17.2236   17.1535 C   0  0  0  0  0  0  0  0  0  0  0  0
   10.4950  -18.3909   16.1895 C   0  0  0  0  0  0  0  0  0  0  0  0
   10.4359  -17.8471   14.8524 N   0  0  0  0  0  0  0  0  0  0  0  0
    9.7408  -16.3538   21.9928 C   0  0  0  0  0  0  0  0  0  0  0  0
   10.7183  -15.6075   22.2250 O   0  0  0  0  0  0  0  0  0  0  0  0
    8.5514  -16.2051   22.7498 N   0  0  0  0  0  0  0  0  0  0  0  0
    8.5236  -15.2875   23.8662 C   0  0  1  0  0  0  0  0  0  0  0  0
    7.2488  -14.4845   23.9428 C   0  0  0  0  0  0  0  0  0  0  0  0
    7.1649  -13.5836   25.1083 C   0  0  0  0  0  0  0  0  0  0  0  0
    6.6442  -13.9802   26.3179 C   0  0  0  0  0  0  0  0  0  0  0  0
    6.5851  -13.1213   27.4099 C   0  0  0  0  0  0  0  0  0  0  0  0
    7.0581  -11.8379   27.2855 C   0  0  0  0  0  0  0  0  0  0  0  0
    7.5810  -11.4287   26.0820 C   0  0  0  0  0  0  0  0  0  0  0  0
    7.6324  -12.2925   25.0092 C   0  0  0  0  0  0  0  0  0  0  0  0
    8.9412  -15.9164   25.1233 C   0  0  0  0  0  0  0  0  0  0  0  0
    8.3508  -16.9150   25.6268 O   0  0  0  0  0  0  0  0  0  0  0  0
   10.0528  -15.4500   25.8858 N   0  0  0  0  0  0  0  0  0  0  0  0
   10.5584  -16.2365   27.0583 C   0  0  1  0  0  0  0  0  0  0  0  0
   12.0121  -16.4101   26.8581 C   0  0  0  0  0  0  0  0  0  0  0  0
   12.4776  -17.1423   25.6795 C   0  0  0  0  0  0  0  0  0  0  0  0
   13.9192  -17.3248   25.4693 C   0  0  0  0  0  0  0  0  0  0  0  0
   14.6854  -17.8795   26.3313 O   0  0  0  0  0  0  0  0  0  0  0  0
   10.1221  -15.4606   28.2255 C   0  0  0  0  0  0  0  0  0  0  0  0
   10.1420  -16.0236   29.5230 O   0  0  0  0  0  0  0  0  0  0  0  0
   14.5653  -16.9014   24.2935 O   0  0  0  0  0  0  0  0  0  0  0  0
    9.7078  -14.2815   28.1998 O   0  0  0  0  0  0  0  0  0  0  0  0
  2  1  1  6
  2  3  1  0
  4  5  1  0
  4  3  1  0
  6  5  1  0
  7  6  1  0
  8  9  2  0
  8  2  1  0
 10  8  1  0
 11 10  1  0
 11 12  1  1
 13 12  1  0
 13 14  2  0
 15 14  1  0
 16 15  2  0
 17 18  2  0
 17 16  1  0
 18 13  1  0
 19 21  1  0
 19 11  1  0
 20 19  2  0
 22 21  1  0
 22 27  1  0
 22 23  1  6
 23 24  1  0
 24 25  1  0
 25 26  2  0
 25 29  1  0
 27 28  1  0
 30 27  2  0
M  END
$$$$
