KFE.pdb
     RDKit          3D

 30 30  0  0  1  0  0  0  0  0999 V2000
    7.9576  -17.3116   20.0371 N   0  0  0  0  0  0  0  0  0  0  0  0
    9.2494  -17.3332   20.6537 C   0  0  1  0  0  0  0  0  0  0  0  0
   10.2942  -17.3106   19.5558 C   0  0  0  0  0  0  0  0  0  0  0  0
    9.7673  -18.1075   18.3954 C   0  0  0  0  0  0  0  0  0  0  0  0
   10.2834  -17.5742   17.0688 C   0  0  0  0  0  0  0  0  0  0  0  0
    9.8599  -18.5658   16.0050 C   0  0  0  0  0  0  0  0  0  0  0  0
   10.1933  -17.9896   14.7229 N   0  0  0  0  0  0  0  0  0  0  0  0
    9.4475  -16.1414   21.5574 C   0  0  0  0  0  0  0  0  0  0  0  0
   10.6005  -15.8095   21.9138 O   0  0  0  0  0  0  0  0  0  0  0  0
    8.3325  -15.3911   22.0083 N   0  0  0  0  0  0  0  0  0  0  0  0
    8.3482  -14.8109   23.3320 C   0  0  1  0  0  0  0  0  0  0  0  0
    7.2183  -13.8394   23.5677 C   0  0  0  0  0  0  0  0  0  0  0  0
    7.2547  -13.1691   24.8816 C   0  0  0  0  0  0  0  0  0  0  0  0
    8.1865  -12.2090   25.2001 C   0  0  0  0  0  0  0  0  0  0  0  0
    8.1978  -11.5780   26.4393 C   0  0  0  0  0  0  0  0  0  0  0  0
    7.2546  -11.9176   27.3782 C   0  0  0  0  0  0  0  0  0  0  0  0
    6.3176  -12.8757   27.0726 C   0  0  0  0  0  0  0  0  0  0  0  0
    6.3202  -13.4917   25.8396 C   0  0  0  0  0  0  0  0  0  0  0  0
    8.5385  -15.8138   24.3848 C   0  0  0  0  0  0  0  0  0  0  0  0
    7.8071  -16.8385   24.5044 O   0  0  0  0  0  0  0  0  0  0  0  0
    9.5689  -15.7143   25.3661 N   0  0  0  0  0  0  0  0  0  0  0  0
   10.0722  -16.9382   26.0715 C   0  0  1  0  0  0  0  0  0  0  0  0
   11.2193  -17.4395   25.2863 C   0  0  0  0  0  0  0  0  0  0  0  0
   12.0086  -18.5488   25.8234 C   0  0  0  0  0  0  0  0  0  0  0  0
   13.1687  -19.0377   25.0679 C   0  0  0  0  0  0  0  0  0  0  0  0
   13.6125  -20.2339   25.1673 O   0  0  0  0  0  0  0  0  0  0  0  0
   10.3358  -16.4798   27.4409 C   0  0  0  0  0  0  0  0  0  0  0  0
   10.5922  -15.1160   27.7156 O   0  0  0  0  0  0  0  0  0  0  0  0
   13.8790  -18.2189   24.1712 O   0  0  0  0  0  0  0  0  0  0  0  0
   10.3609  -17.2065   28.4576 O   0  0  0  0  0  0  0  0  0  0  0  0
  2  1  1  6
  2  3  1  0
  4  5  1  0
  4  3  1  0
  6  5  1  0
  7  6  1  0
  8  9  2  0
  8  2  1  0
 10  8  1  0
 11 10  1  0
 11 12  1  1
 13 12  1  0
 13 14  2  0
 15 14  1  0
 16 15  2  0
 17 18  2  0
 17 16  1  0
 18 13  1  0
 19 21  1  0
 19 11  1  0
 20 19  2  0
 22 21  1  0
 22 27  1  0
 22 23  1  6
 23 24  1  0
 24 25  1  0
 25 26  2  0
 25 29  1  0
 27 28  1  0
 30 27  2  0
M  END
$$$$
