KFE.pdb
     RDKit          3D

 30 30  0  0  1  0  0  0  0  0999 V2000
    9.5883  -16.3741   18.7755 N   0  0  0  0  0  0  0  0  0  0  0  0
    8.7176  -16.8099   19.8251 C   0  0  1  0  0  0  0  0  0  0  0  0
    8.9997  -18.2752   20.0911 C   0  0  0  0  0  0  0  0  0  0  0  0
    8.3691  -19.0784   18.9882 C   0  0  0  0  0  0  0  0  0  0  0  0
    9.2082  -19.0464   17.7211 C   0  0  0  0  0  0  0  0  0  0  0  0
    8.5263  -19.9587   16.7226 C   0  0  0  0  0  0  0  0  0  0  0  0
    8.8203  -21.3184   17.1120 N   0  0  0  0  0  0  0  0  0  0  0  0
    8.9427  -16.0194   21.0903 C   0  0  0  0  0  0  0  0  0  0  0  0
   10.1015  -15.8714   21.5395 O   0  0  0  0  0  0  0  0  0  0  0  0
    7.8464  -15.4402   21.7776 N   0  0  0  0  0  0  0  0  0  0  0  0
    8.0671  -14.7637   23.0356 C   0  0  1  0  0  0  0  0  0  0  0  0
    6.8959  -13.9164   23.4673 C   0  0  0  0  0  0  0  0  0  0  0  0
    7.0383  -13.3172   24.8082 C   0  0  0  0  0  0  0  0  0  0  0  0
    7.8655  -12.2477   25.0598 C   0  0  0  0  0  0  0  0  0  0  0  0
    7.9773  -11.6872   26.3276 C   0  0  0  0  0  0  0  0  0  0  0  0
    7.2441  -12.2110   27.3641 C   0  0  0  0  0  0  0  0  0  0  0  0
    6.4135  -13.2800   27.1261 C   0  0  0  0  0  0  0  0  0  0  0  0
    6.3140  -13.8239   25.8636 C   0  0  0  0  0  0  0  0  0  0  0  0
    8.6066  -15.6546   24.0678 C   0  0  0  0  0  0  0  0  0  0  0  0
    8.1099  -16.7871   24.3325 O   0  0  0  0  0  0  0  0  0  0  0  0
    9.7410  -15.3145   24.8627 N   0  0  0  0  0  0  0  0  0  0  0  0
   10.5707  -16.3848   25.5069 C   0  0  1  0  0  0  0  0  0  0  0  0
   11.9062  -16.3235   24.8775 C   0  0  0  0  0  0  0  0  0  0  0  0
   12.9811  -17.1518   25.4257 C   0  0  0  0  0  0  0  0  0  0  0  0
   14.3263  -17.0613   24.8443 C   0  0  0  0  0  0  0  0  0  0  0  0
   15.0542  -16.0121   24.9293 O   0  0  0  0  0  0  0  0  0  0  0  0
   10.4830  -16.0912   26.9424 C   0  0  0  0  0  0  0  0  0  0  0  0
   10.8764  -17.0484   27.9069 O   0  0  0  0  0  0  0  0  0  0  0  0
   14.9164  -18.1325   24.1490 O   0  0  0  0  0  0  0  0  0  0  0  0
   10.0729  -15.0207   27.4407 O   0  0  0  0  0  0  0  0  0  0  0  0
  2  1  1  6
  2  3  1  0
  4  5  1  0
  4  3  1  0
  6  5  1  0
  7  6  1  0
  8  9  2  0
  8  2  1  0
 10  8  1  0
 11 10  1  0
 11 12  1  1
 13 12  1  0
 13 14  2  0
 15 14  1  0
 16 15  2  0
 17 18  2  0
 17 16  1  0
 18 13  1  0
 19 21  1  0
 19 11  1  0
 20 19  2  0
 22 21  1  0
 22 27  1  0
 22 23  1  6
 23 24  1  0
 24 25  1  0
 25 26  2  0
 25 29  1  0
 27 28  1  0
 30 27  2  0
M  END
$$$$
