KFE.pdb
     RDKit          3D

 30 30  0  0  1  0  0  0  0  0999 V2000
    9.8655  -18.1606   21.0385 N   0  0  0  0  0  0  0  0  0  0  0  0
    9.0405  -16.9938   20.9537 C   0  0  1  0  0  0  0  0  0  0  0  0
    7.6471  -17.4324   20.5491 C   0  0  0  0  0  0  0  0  0  0  0  0
    7.7718  -18.6974   19.7470 C   0  0  0  0  0  0  0  0  0  0  0  0
    6.4908  -19.0102   18.9908 C   0  0  0  0  0  0  0  0  0  0  0  0
    6.7355  -20.2975   18.2310 C   0  0  0  0  0  0  0  0  0  0  0  0
    5.4874  -20.6729   17.6079 N   0  0  0  0  0  0  0  0  0  0  0  0
    8.9730  -16.2706   22.2760 C   0  0  0  0  0  0  0  0  0  0  0  0
    8.7442  -16.9080   23.3285 O   0  0  0  0  0  0  0  0  0  0  0  0
    9.1677  -14.8676   22.3360 N   0  0  0  0  0  0  0  0  0  0  0  0
    8.8552  -14.1531   23.5528 C   0  0  1  0  0  0  0  0  0  0  0  0
    7.4335  -13.6502   23.5974 C   0  0  0  0  0  0  0  0  0  0  0  0
    7.0579  -12.9956   24.8653 C   0  0  0  0  0  0  0  0  0  0  0  0
    7.5968  -11.7970   25.2707 C   0  0  0  0  0  0  0  0  0  0  0  0
    7.2212  -11.1879   26.4630 C   0  0  0  0  0  0  0  0  0  0  0  0
    6.2854  -11.7941   27.2650 C   0  0  0  0  0  0  0  0  0  0  0  0
    5.7389  -12.9924   26.8715 C   0  0  0  0  0  0  0  0  0  0  0  0
    6.1221  -13.5830   25.6866 C   0  0  0  0  0  0  0  0  0  0  0  0
    9.3035  -14.8636   24.7547 C   0  0  0  0  0  0  0  0  0  0  0  0
    9.6427  -14.2739   25.8207 O   0  0  0  0  0  0  0  0  0  0  0  0
    9.3950  -16.2855   24.8197 N   0  0  0  0  0  0  0  0  0  0  0  0
    9.6918  -16.9730   26.1190 C   0  0  1  0  0  0  0  0  0  0  0  0
    8.5534  -17.8746   26.3922 C   0  0  0  0  0  0  0  0  0  0  0  0
    8.5707  -19.2225   25.8221 C   0  0  0  0  0  0  0  0  0  0  0  0
    7.5316  -20.1826   26.2145 C   0  0  0  0  0  0  0  0  0  0  0  0
    7.5088  -20.7581   27.3573 O   0  0  0  0  0  0  0  0  0  0  0  0
   11.0081  -17.5871   25.9072 C   0  0  0  0  0  0  0  0  0  0  0  0
   11.7519  -18.1078   26.9920 O   0  0  0  0  0  0  0  0  0  0  0  0
    6.4763  -20.5386   25.3550 O   0  0  0  0  0  0  0  0  0  0  0  0
   11.5831  -17.7095   24.8040 O   0  0  0  0  0  0  0  0  0  0  0  0
  2  1  1  1
  2  3  1  0
  4  5  1  0
  4  3  1  0
  6  5  1  0
  7  6  1  0
  8  9  2  0
  8  2  1  0
 10  8  1  0
 11 10  1  0
 11 12  1  1
 13 12  1  0
 13 14  2  0
 15 14  1  0
 16 15  2  0
 17 18  2  0
 17 16  1  0
 18 13  1  0
 19 21  1  0
 19 11  1  0
 20 19  2  0
 22 21  1  0
 22 27  1  0
 22 23  1  6
 23 24  1  0
 24 25  1  0
 25 26  2  0
 25 29  1  0
 27 28  1  0
 30 27  2  0
M  END
$$$$
