KFE.pdb
     RDKit          3D

 30 30  0  0  1  0  0  0  0  0999 V2000
    7.7844  -16.2719   19.3212 N   0  0  0  0  0  0  0  0  0  0  0  0
    9.1077  -15.8490   19.6666 C   0  0  1  0  0  0  0  0  0  0  0  0
    9.4985  -14.7203   18.7334 C   0  0  0  0  0  0  0  0  0  0  0  0
    8.9396  -15.0270   17.3722 C   0  0  0  0  0  0  0  0  0  0  0  0
    8.5027  -13.7641   16.6480 C   0  0  0  0  0  0  0  0  0  0  0  0
    7.9776  -14.1962   15.2945 C   0  0  0  0  0  0  0  0  0  0  0  0
    7.4064  -13.0295   14.6624 N   0  0  0  0  0  0  0  0  0  0  0  0
    9.1753  -15.3642   21.0937 C   0  0  0  0  0  0  0  0  0  0  0  0
   10.2714  -15.0137   21.5857 O   0  0  0  0  0  0  0  0  0  0  0  0
    8.0011  -15.3024   21.8856 N   0  0  0  0  0  0  0  0  0  0  0  0
    8.0808  -14.8256   23.2477 C   0  0  1  0  0  0  0  0  0  0  0  0
    6.9005  -13.9759   23.6490 C   0  0  0  0  0  0  0  0  0  0  0  0
    6.9843  -13.4217   25.0140 C   0  0  0  0  0  0  0  0  0  0  0  0
    7.7191  -12.2992   25.3161 C   0  0  0  0  0  0  0  0  0  0  0  0
    7.7761  -11.7831   26.6061 C   0  0  0  0  0  0  0  0  0  0  0  0
    7.0815  -12.4066   27.6137 C   0  0  0  0  0  0  0  0  0  0  0  0
    6.3432  -13.5295   27.3253 C   0  0  0  0  0  0  0  0  0  0  0  0
    6.2972  -14.0283   26.0412 C   0  0  0  0  0  0  0  0  0  0  0  0
    8.4375  -15.8856   24.1961 C   0  0  0  0  0  0  0  0  0  0  0  0
    7.7940  -16.9695   24.2962 O   0  0  0  0  0  0  0  0  0  0  0  0
    9.5449  -15.7796   25.0888 N   0  0  0  0  0  0  0  0  0  0  0  0
   10.0789  -16.9925   25.7906 C   0  0  1  0  0  0  0  0  0  0  0  0
   11.4068  -17.2716   25.2056 C   0  0  0  0  0  0  0  0  0  0  0  0
   12.2356  -18.3167   25.8081 C   0  0  0  0  0  0  0  0  0  0  0  0
   13.5751  -18.5744   25.2651 C   0  0  0  0  0  0  0  0  0  0  0  0
   14.6507  -18.2442   25.8750 O   0  0  0  0  0  0  0  0  0  0  0  0
   10.0255  -16.6360   27.2135 C   0  0  0  0  0  0  0  0  0  0  0  0
    9.9440  -15.2844   27.6230 O   0  0  0  0  0  0  0  0  0  0  0  0
   13.7725  -19.2108   24.0261 O   0  0  0  0  0  0  0  0  0  0  0  0
   10.0454  -17.4453   28.1660 O   0  0  0  0  0  0  0  0  0  0  0  0
  2  1  1  6
  2  3  1  0
  4  5  1  0
  4  3  1  0
  6  5  1  0
  7  6  1  0
  8  9  2  0
  8  2  1  0
 10  8  1  0
 11 10  1  0
 11 12  1  1
 13 12  1  0
 13 14  2  0
 15 14  1  0
 16 15  2  0
 17 18  2  0
 17 16  1  0
 18 13  1  0
 19 21  1  0
 19 11  1  0
 20 19  2  0
 22 21  1  0
 22 27  1  0
 22 23  1  6
 23 24  1  0
 24 25  1  0
 25 26  2  0
 25 29  1  0
 27 28  1  0
 30 27  2  0
M  END
$$$$
