KFE.pdb
     RDKit          3D

 30 30  0  0  1  0  0  0  0  0999 V2000
    8.5070  -17.9879   20.4556 N   0  0  0  0  0  0  0  0  0  0  0  0
    9.5429  -17.0154   20.2809 C   0  0  1  0  0  0  0  0  0  0  0  0
    9.3572  -16.3706   18.9218 C   0  0  0  0  0  0  0  0  0  0  0  0
    8.5578  -17.3120   18.0652 C   0  0  0  0  0  0  0  0  0  0  0  0
    8.2703  -16.7171   16.6962 C   0  0  0  0  0  0  0  0  0  0  0  0
    7.4687  -17.7498   15.9309 C   0  0  0  0  0  0  0  0  0  0  0  0
    7.0086  -17.1215   14.7141 N   0  0  0  0  0  0  0  0  0  0  0  0
    9.4861  -15.9530   21.3506 C   0  0  0  0  0  0  0  0  0  0  0  0
   10.3336  -15.0323   21.3657 O   0  0  0  0  0  0  0  0  0  0  0  0
    8.4751  -15.9898   22.3437 N   0  0  0  0  0  0  0  0  0  0  0  0
    8.4944  -15.0261   23.4206 C   0  0  1  0  0  0  0  0  0  0  0  0
    7.1155  -14.6320   23.8892 C   0  0  0  0  0  0  0  0  0  0  0  0
    7.1036  -13.6948   25.0287 C   0  0  0  0  0  0  0  0  0  0  0  0
    6.7108  -14.0674   26.2930 C   0  0  0  0  0  0  0  0  0  0  0  0
    6.7184  -13.1737   27.3584 C   0  0  0  0  0  0  0  0  0  0  0  0
    7.1285  -11.8795   27.1508 C   0  0  0  0  0  0  0  0  0  0  0  0
    7.5236  -11.4940   25.8920 C   0  0  0  0  0  0  0  0  0  0  0  0
    7.5101  -12.3922   24.8465 C   0  0  0  0  0  0  0  0  0  0  0  0
    9.4349  -15.3893   24.4854 C   0  0  0  0  0  0  0  0  0  0  0  0
    9.3675  -14.9199   25.6577 O   0  0  0  0  0  0  0  0  0  0  0  0
   10.5091  -16.3059   24.2846 N   0  0  0  0  0  0  0  0  0  0  0  0
   11.3925  -16.7093   25.4273 C   0  0  1  0  0  0  0  0  0  0  0  0
   10.5215  -17.3586   26.4289 C   0  0  0  0  0  0  0  0  0  0  0  0
   11.1406  -17.9985   27.5905 C   0  0  0  0  0  0  0  0  0  0  0  0
   10.2937  -18.7115   28.5550 C   0  0  0  0  0  0  0  0  0  0  0  0
    9.4962  -19.6545   28.2199 O   0  0  0  0  0  0  0  0  0  0  0  0
   12.4360  -17.5303   24.8013 C   0  0  0  0  0  0  0  0  0  0  0  0
   12.2283  -18.1336   23.5388 O   0  0  0  0  0  0  0  0  0  0  0  0
   10.3017  -18.4074   29.9285 O   0  0  0  0  0  0  0  0  0  0  0  0
   13.5606  -17.7721   25.2906 O   0  0  0  0  0  0  0  0  0  0  0  0
  2  1  1  1
  2  3  1  0
  4  5  1  0
  4  3  1  0
  6  5  1  0
  7  6  1  0
  8  9  2  0
  8  2  1  0
 10  8  1  0
 11 10  1  0
 11 12  1  1
 13 12  1  0
 13 14  2  0
 15 14  1  0
 16 15  2  0
 17 18  2  0
 17 16  1  0
 18 13  1  0
 19 21  1  0
 19 11  1  0
 20 19  2  0
 22 21  1  0
 22 27  1  0
 22 23  1  1
 23 24  1  0
 24 25  1  0
 25 26  2  0
 25 29  1  0
 27 28  1  0
 30 27  2  0
M  END
$$$$
