KFE.pdb
     RDKit          3D

 30 30  0  0  1  0  0  0  0  0999 V2000
    7.9439  -15.9326   18.9517 N   0  0  0  0  0  0  0  0  0  0  0  0
    9.0529  -15.0504   19.1547 C   0  0  1  0  0  0  0  0  0  0  0  0
    8.8638  -13.8441   18.2566 C   0  0  0  0  0  0  0  0  0  0  0  0
    9.0423  -14.2912   16.8327 C   0  0  0  0  0  0  0  0  0  0  0  0
    7.7512  -14.8461   16.2534 C   0  0  0  0  0  0  0  0  0  0  0  0
    7.9962  -15.0696   14.7754 C   0  0  0  0  0  0  0  0  0  0  0  0
    6.7873  -15.6321   14.2194 N   0  0  0  0  0  0  0  0  0  0  0  0
    9.1389  -14.5963   20.5908 C   0  0  0  0  0  0  0  0  0  0  0  0
   10.1162  -13.9158   20.9760 O   0  0  0  0  0  0  0  0  0  0  0  0
    8.1162  -14.9360   21.5120 N   0  0  0  0  0  0  0  0  0  0  0  0
    8.2414  -14.5432   22.8972 C   0  0  1  0  0  0  0  0  0  0  0  0
    6.9621  -13.9907   23.4755 C   0  0  0  0  0  0  0  0  0  0  0  0
    7.0806  -13.5042   24.8634 C   0  0  0  0  0  0  0  0  0  0  0  0
    7.6254  -12.2812   25.1779 C   0  0  0  0  0  0  0  0  0  0  0  0
    7.7171  -11.8331   26.4911 C   0  0  0  0  0  0  0  0  0  0  0  0
    7.2526  -12.6287   27.5097 C   0  0  0  0  0  0  0  0  0  0  0  0
    6.7058  -13.8534   27.2091 C   0  0  0  0  0  0  0  0  0  0  0  0
    6.6223  -14.2829   25.9020 C   0  0  0  0  0  0  0  0  0  0  0  0
    8.9059  -15.5633   23.7146 C   0  0  0  0  0  0  0  0  0  0  0  0
    8.6096  -16.7916   23.6635 O   0  0  0  0  0  0  0  0  0  0  0  0
    9.9457  -15.2517   24.6400 N   0  0  0  0  0  0  0  0  0  0  0  0
   10.6144  -16.3363   25.4309 C   0  0  1  0  0  0  0  0  0  0  0  0
    9.5693  -17.3275   25.7605 C   0  0  0  0  0  0  0  0  0  0  0  0
    9.9664  -18.5821   26.4012 C   0  0  0  0  0  0  0  0  0  0  0  0
   10.2319  -18.5995   27.8451 C   0  0  0  0  0  0  0  0  0  0  0  0
    9.3052  -18.6803   28.7241 O   0  0  0  0  0  0  0  0  0  0  0  0
   11.7204  -16.7764   24.5720 C   0  0  0  0  0  0  0  0  0  0  0  0
   12.7003  -17.6772   25.0509 O   0  0  0  0  0  0  0  0  0  0  0  0
   11.5357  -18.5309   28.3689 O   0  0  0  0  0  0  0  0  0  0  0  0
   11.9056  -16.4215   23.3878 O   0  0  0  0  0  0  0  0  0  0  0  0
  2  1  1  1
  2  3  1  0
  4  5  1  0
  4  3  1  0
  6  5  1  0
  7  6  1  0
  8  9  2  0
  8  2  1  0
 10  8  1  0
 11 10  1  0
 11 12  1  1
 13 12  1  0
 13 14  2  0
 15 14  1  0
 16 15  2  0
 17 18  2  0
 17 16  1  0
 18 13  1  0
 19 21  1  0
 19 11  1  0
 20 19  2  0
 22 21  1  0
 22 27  1  0
 22 23  1  6
 23 24  1  0
 24 25  1  0
 25 26  2  0
 25 29  1  0
 27 28  1  0
 30 27  2  0
M  END
$$$$
