KFE.pdb
     RDKit          3D

 30 30  0  0  1  0  0  0  0  0999 V2000
    7.1584  -15.6136   19.7343 N   0  0  0  0  0  0  0  0  0  0  0  0
    8.1768  -14.6349   19.9675 C   0  0  1  0  0  0  0  0  0  0  0  0
    7.7140  -13.3231   19.3654 C   0  0  0  0  0  0  0  0  0  0  0  0
    7.3682  -13.5691   17.9235 C   0  0  0  0  0  0  0  0  0  0  0  0
    8.6132  -13.7672   17.0743 C   0  0  0  0  0  0  0  0  0  0  0  0
    8.1394  -14.0466   15.6630 C   0  0  0  0  0  0  0  0  0  0  0  0
    9.3148  -14.2057   14.8384 N   0  0  0  0  0  0  0  0  0  0  0  0
    8.4309  -14.4462   21.4427 C   0  0  0  0  0  0  0  0  0  0  0  0
    9.3207  -13.6557   21.8297 O   0  0  0  0  0  0  0  0  0  0  0  0
    7.6658  -15.1609   22.3985 N   0  0  0  0  0  0  0  0  0  0  0  0
    7.9251  -14.9731   23.8079 C   0  0  1  0  0  0  0  0  0  0  0  0
    6.6802  -14.6727   24.6055 C   0  0  0  0  0  0  0  0  0  0  0  0
    6.9196  -13.9079   25.8444 C   0  0  0  0  0  0  0  0  0  0  0  0
    7.3061  -14.5036   27.0222 C   0  0  0  0  0  0  0  0  0  0  0  0
    7.5402  -13.7653   28.1772 C   0  0  0  0  0  0  0  0  0  0  0  0
    7.3830  -12.4011   28.1496 C   0  0  0  0  0  0  0  0  0  0  0  0
    6.9971  -11.7932   26.9788 C   0  0  0  0  0  0  0  0  0  0  0  0
    6.7691  -12.5395   25.8426 C   0  0  0  0  0  0  0  0  0  0  0  0
    8.7868  -16.0196   24.3670 C   0  0  0  0  0  0  0  0  0  0  0  0
    8.4629  -17.2417   24.3928 O   0  0  0  0  0  0  0  0  0  0  0  0
   10.0671  -15.7430   24.9316 N   0  0  0  0  0  0  0  0  0  0  0  0
   10.9307  -16.8552   25.4474 C   0  0  1  0  0  0  0  0  0  0  0  0
   12.3145  -16.5463   25.0316 C   0  0  0  0  0  0  0  0  0  0  0  0
   12.5857  -16.3038   23.6139 C   0  0  0  0  0  0  0  0  0  0  0  0
   13.9608  -16.0232   23.1826 C   0  0  0  0  0  0  0  0  0  0  0  0
   14.9395  -15.9122   23.9997 O   0  0  0  0  0  0  0  0  0  0  0  0
   10.6468  -16.8912   26.8872 C   0  0  0  0  0  0  0  0  0  0  0  0
   10.8541  -18.0701   27.6410 O   0  0  0  0  0  0  0  0  0  0  0  0
   14.3030  -15.8579   21.8282 O   0  0  0  0  0  0  0  0  0  0  0  0
   10.2143  -15.9349   27.5660 O   0  0  0  0  0  0  0  0  0  0  0  0
  2  1  1  1
  2  3  1  0
  4  5  1  0
  4  3  1  0
  6  5  1  0
  7  6  1  0
  8  9  2  0
  8  2  1  0
 10  8  1  0
 11 10  1  0
 11 12  1  1
 13 12  1  0
 13 14  2  0
 15 14  1  0
 16 15  2  0
 17 18  2  0
 17 16  1  0
 18 13  1  0
 19 21  1  0
 19 11  1  0
 20 19  2  0
 22 21  1  0
 22 27  1  0
 22 23  1  1
 23 24  1  0
 24 25  1  0
 25 26  2  0
 25 29  1  0
 27 28  1  0
 30 27  2  0
M  END
$$$$
