MKT.pdb
     RDKit          3D

 25 24  0  0  1  0  0  0  0  0999 V2000
   23.6283  -29.8332  -14.6947 C   0  0  0  0  0  0  0  0  0  0  0  0
   21.9004  -30.4235  -14.8517 S   0  0  0  0  0  0  0  0  0  0  0  0
   20.9829  -29.1971  -15.8266 C   0  0  0  0  0  0  0  0  0  0  0  0
   20.9466  -27.8600  -15.1005 C   0  0  0  0  0  0  0  0  0  0  0  0
   19.4957  -27.4930  -14.9314 C   0  0  2  0  0  0  0  0  0  0  0  0
   19.0037  -26.9340  -16.1745 N   0  0  0  0  0  0  0  0  0  0  0  0
   19.2562  -26.5446  -13.8387 C   0  0  0  0  0  0  0  0  0  0  0  0
   19.7678  -26.6393  -12.6936 O   0  0  0  0  0  0  0  0  0  0  0  0
   18.3888  -25.4158  -14.0358 N   0  0  0  0  0  0  0  0  0  0  0  0
   18.1530  -24.4341  -12.9790 C   0  0  1  0  0  0  0  0  0  0  0  0
   17.7296  -23.1080  -13.5402 C   0  0  0  0  0  0  0  0  0  0  0  0
   18.7220  -22.4005  -14.3683 C   0  0  0  0  0  0  0  0  0  0  0  0
   18.2715  -21.0420  -14.8113 C   0  0  0  0  0  0  0  0  0  0  0  0
   19.2121  -20.3115  -15.7141 C   0  0  0  0  0  0  0  0  0  0  0  0
   18.8176  -19.0048  -16.1128 N   0  0  0  0  0  0  0  0  0  0  0  0
   17.2007  -24.9666  -11.9728 C   0  0  0  0  0  0  0  0  0  0  0  0
   16.1013  -25.4234  -12.3571 O   0  0  0  0  0  0  0  0  0  0  0  0
   18.1101  -27.2762   -8.8542 C   0  0  0  0  0  0  0  0  0  0  0  0
   17.2954  -26.0701   -8.3814 C   0  0  1  0  0  0  0  0  0  0  0  0
   18.1750  -25.1008   -7.8946 O   0  0  0  0  0  0  0  0  0  0  0  0
   16.5468  -25.5557   -9.6007 C   0  0  2  0  0  0  0  0  0  0  0  0
   17.4585  -24.9929  -10.5778 N   0  0  0  0  0  0  0  0  0  0  0  0
   15.6063  -24.5079   -9.1153 C   0  0  0  0  0  0  0  0  0  0  0  0
   15.6979  -23.3122   -9.4883 O   0  0  0  0  0  0  0  0  0  0  0  0
   14.5847  -24.8104   -8.2266 O   0  0  0  0  0  0  0  0  0  0  0  0
  2  1  1  0
  3  2  1  0
  4  3  1  0
  5  7  1  0
  5  4  1  0
  5  6  1  6
  7  8  2  0
  9 10  1  0
  9  7  1  0
 10 11  1  6
 11 12  1  0
 12 13  1  0
 13 14  1  0
 15 14  1  0
 16 22  1  0
 16 10  1  0
 17 16  2  0
 19 18  1  6
 19 21  1  0
 20 19  1  0
 21 22  1  6
 23 21  1  0
 23 25  1  0
 24 23  2  0
M  END
$$$$
