MKT.pdb
     RDKit          3D

 25 24  0  0  1  0  0  0  0  0999 V2000
   27.4143  -16.8200  -18.3125 C   0  0  0  0  0  0  0  0  0  0  0  0
   28.8825  -17.7181  -18.9422 S   0  0  0  0  0  0  0  0  0  0  0  0
   29.0751  -19.2273  -17.9516 C   0  0  0  0  0  0  0  0  0  0  0  0
   27.7496  -19.6173  -17.3135 C   0  0  0  0  0  0  0  0  0  0  0  0
   28.0135  -20.8324  -16.4637 C   0  0  2  0  0  0  0  0  0  0  0  0
   28.3066  -21.9573  -17.3290 N   0  0  0  0  0  0  0  0  0  0  0  0
   26.9001  -21.1760  -15.5732 C   0  0  0  0  0  0  0  0  0  0  0  0
   26.0115  -22.0239  -15.8446 O   0  0  0  0  0  0  0  0  0  0  0  0
   26.7686  -20.5315  -14.2954 N   0  0  0  0  0  0  0  0  0  0  0  0
   25.6508  -20.8221  -13.3996 C   0  0  1  0  0  0  0  0  0  0  0  0
   26.0349  -20.6436  -11.9597 C   0  0  0  0  0  0  0  0  0  0  0  0
   24.9989  -20.9617  -10.9614 C   0  0  0  0  0  0  0  0  0  0  0  0
   25.4703  -20.8244   -9.5459 C   0  0  0  0  0  0  0  0  0  0  0  0
   24.4616  -21.1541   -8.4937 C   0  0  0  0  0  0  0  0  0  0  0  0
   24.8926  -21.0278   -7.1444 N   0  0  0  0  0  0  0  0  0  0  0  0
   24.4547  -20.0306  -13.7811 C   0  0  0  0  0  0  0  0  0  0  0  0
   24.5062  -18.7821  -13.7205 O   0  0  0  0  0  0  0  0  0  0  0  0
   22.7779  -19.1902  -16.7485 C   0  0  0  0  0  0  0  0  0  0  0  0
   21.6750  -19.9274  -15.9854 C   0  0  1  0  0  0  0  0  0  0  0  0
   21.6526  -21.2580  -16.4088 O   0  0  0  0  0  0  0  0  0  0  0  0
   22.0404  -19.8360  -14.5124 C   0  0  2  0  0  0  0  0  0  0  0  0
   23.2336  -20.6058  -14.2185 N   0  0  0  0  0  0  0  0  0  0  0  0
   20.8815  -20.3772  -13.7493 C   0  0  0  0  0  0  0  0  0  0  0  0
   20.9735  -21.4225  -13.0593 O   0  0  0  0  0  0  0  0  0  0  0  0
   19.6461  -19.7462  -13.7689 O   0  0  0  0  0  0  0  0  0  0  0  0
  2  1  1  0
  3  2  1  0
  4  3  1  0
  5  7  1  0
  5  4  1  0
  5  6  1  6
  7  8  2  0
  9 10  1  0
  9  7  1  0
 10 11  1  1
 11 12  1  0
 12 13  1  0
 13 14  1  0
 15 14  1  0
 16 22  1  0
 16 10  1  0
 17 16  2  0
 19 18  1  6
 19 21  1  0
 20 19  1  0
 21 22  1  6
 23 21  1  0
 23 25  1  0
 24 23  2  0
M  END
$$$$
