MKT.pdb
     RDKit          3D

 25 24  0  0  1  0  0  0  0  0999 V2000
   26.5645  -21.8093  -21.3051 C   0  0  0  0  0  0  0  0  0  0  0  0
   26.3739  -20.0416  -21.7494 S   0  0  0  0  0  0  0  0  0  0  0  0
   25.8743  -19.1452  -20.2517 C   0  0  0  0  0  0  0  0  0  0  0  0
   25.2390  -20.0978  -19.2490 C   0  0  0  0  0  0  0  0  0  0  0  0
   24.6907  -19.2528  -18.1292 C   0  0  2  0  0  0  0  0  0  0  0  0
   25.7277  -18.3517  -17.6684 N   0  0  0  0  0  0  0  0  0  0  0  0
   24.1852  -20.0377  -16.9982 C   0  0  0  0  0  0  0  0  0  0  0  0
   23.2880  -20.9146  -17.0891 O   0  0  0  0  0  0  0  0  0  0  0  0
   24.7152  -19.8314  -15.6783 N   0  0  0  0  0  0  0  0  0  0  0  0
   24.1366  -20.4865  -14.5069 C   0  0  1  0  0  0  0  0  0  0  0  0
   24.9519  -20.2334  -13.2724 C   0  0  0  0  0  0  0  0  0  0  0  0
   24.4359  -20.8083  -12.0177 C   0  0  0  0  0  0  0  0  0  0  0  0
   25.2973  -20.5155  -10.8272 C   0  0  0  0  0  0  0  0  0  0  0  0
   24.7832  -21.0196   -9.5177 C   0  0  0  0  0  0  0  0  0  0  0  0
   25.5749  -20.7260   -8.3735 N   0  0  0  0  0  0  0  0  0  0  0  0
   22.7108  -20.1072  -14.3457 C   0  0  0  0  0  0  0  0  0  0  0  0
   22.4133  -18.8991  -14.2153 O   0  0  0  0  0  0  0  0  0  0  0  0
   19.5362  -22.3841  -15.6684 C   0  0  0  0  0  0  0  0  0  0  0  0
   19.4000  -20.9021  -15.3116 C   0  0  1  0  0  0  0  0  0  0  0  0
   18.0583  -20.6313  -15.0352 O   0  0  0  0  0  0  0  0  0  0  0  0
   20.2607  -20.6789  -14.0783 C   0  0  2  0  0  0  0  0  0  0  0  0
   21.6422  -21.0405  -14.3295 N   0  0  0  0  0  0  0  0  0  0  0  0
   19.6950  -21.5368  -13.0003 C   0  0  0  0  0  0  0  0  0  0  0  0
   20.3012  -22.5513  -12.5752 O   0  0  0  0  0  0  0  0  0  0  0  0
   18.4690  -21.2499  -12.4177 O   0  0  0  0  0  0  0  0  0  0  0  0
  2  1  1  0
  3  2  1  0
  4  3  1  0
  5  7  1  0
  5  4  1  0
  5  6  1  1
  7  8  2  0
  9 10  1  0
  9  7  1  0
 10 11  1  1
 11 12  1  0
 12 13  1  0
 13 14  1  0
 15 14  1  0
 16 22  1  0
 16 10  1  0
 17 16  2  0
 19 18  1  1
 19 21  1  0
 20 19  1  0
 21 22  1  6
 23 21  1  0
 23 25  1  0
 24 23  2  0
M  END
$$$$
