MKT.pdb
     RDKit          3D

 25 24  0  0  1  0  0  0  0  0999 V2000
   30.4027  -21.7687  -10.8080 C   0  0  0  0  0  0  0  0  0  0  0  0
   29.6694  -22.0114   -9.1461 S   0  0  0  0  0  0  0  0  0  0  0  0
   28.1675  -20.9957   -9.0501 C   0  0  0  0  0  0  0  0  0  0  0  0
   27.3340  -21.1585  -10.3131 C   0  0  0  0  0  0  0  0  0  0  0  0
   26.1300  -20.2665  -10.1609 C   0  0  2  0  0  0  0  0  0  0  0  0
   25.3143  -20.7591   -9.0692 N   0  0  0  0  0  0  0  0  0  0  0  0
   25.3157  -20.1712  -11.3769 C   0  0  0  0  0  0  0  0  0  0  0  0
   24.0629  -20.0594  -11.3837 O   0  0  0  0  0  0  0  0  0  0  0  0
   25.9396  -20.2028  -12.6713 N   0  0  0  0  0  0  0  0  0  0  0  0
   25.4081  -19.4403  -13.7992 C   0  0  1  0  0  0  0  0  0  0  0  0
   26.5065  -18.8473  -14.6328 C   0  0  0  0  0  0  0  0  0  0  0  0
   26.0864  -18.0627  -15.8072 C   0  0  0  0  0  0  0  0  0  0  0  0
   27.2319  -17.4860  -16.5818 C   0  0  0  0  0  0  0  0  0  0  0  0
   27.0456  -16.0838  -17.0637 C   0  0  0  0  0  0  0  0  0  0  0  0
   28.1956  -15.4431  -17.6016 N   0  0  0  0  0  0  0  0  0  0  0  0
   24.4634  -20.2667  -14.5912 C   0  0  0  0  0  0  0  0  0  0  0  0
   24.8681  -21.3361  -15.0989 O   0  0  0  0  0  0  0  0  0  0  0  0
   21.7637  -22.2891  -13.6915 C   0  0  0  0  0  0  0  0  0  0  0  0
   21.0823  -21.2902  -14.6295 C   0  0  1  0  0  0  0  0  0  0  0  0
   20.5289  -20.2634  -13.8617 O   0  0  0  0  0  0  0  0  0  0  0  0
   22.1709  -20.7528  -15.5448 C   0  0  2  0  0  0  0  0  0  0  0  0
   23.1062  -19.9189  -14.8152 N   0  0  0  0  0  0  0  0  0  0  0  0
   21.4876  -19.9535  -16.5995 C   0  0  0  0  0  0  0  0  0  0  0  0
   21.6735  -18.7171  -16.7175 O   0  0  0  0  0  0  0  0  0  0  0  0
   20.6130  -20.5442  -17.5002 O   0  0  0  0  0  0  0  0  0  0  0  0
  2  1  1  0
  3  2  1  0
  4  3  1  0
  5  7  1  0
  5  4  1  0
  5  6  1  1
  7  8  2  0
  9 10  1  0
  9  7  1  0
 10 11  1  6
 11 12  1  0
 12 13  1  0
 13 14  1  0
 15 14  1  0
 16 22  1  0
 16 10  1  0
 17 16  2  0
 19 18  1  1
 19 21  1  0
 20 19  1  0
 21 22  1  1
 23 21  1  0
 23 25  1  0
 24 23  2  0
M  END
$$$$
