MKT.pdb
     RDKit          3D

 25 24  0  0  1  0  0  0  0  0999 V2000
   29.0972  -18.6283   -5.9365 C   0  0  0  0  0  0  0  0  0  0  0  0
   28.1813  -19.8711   -4.9489 S   0  0  0  0  0  0  0  0  0  0  0  0
   26.7403  -20.3970   -5.9200 C   0  0  0  0  0  0  0  0  0  0  0  0
   26.8190  -19.8383   -7.3335 C   0  0  0  0  0  0  0  0  0  0  0  0
   25.5771  -20.2934   -8.0539 C   0  0  2  0  0  0  0  0  0  0  0  0
   25.4221  -21.7221   -7.8681 N   0  0  0  0  0  0  0  0  0  0  0  0
   25.5862  -19.9836   -9.4873 C   0  0  0  0  0  0  0  0  0  0  0  0
   25.6805  -18.8220   -9.9605 O   0  0  0  0  0  0  0  0  0  0  0  0
   25.4831  -21.0388  -10.4575 N   0  0  0  0  0  0  0  0  0  0  0  0
   25.4253  -20.7614  -11.8914 C   0  0  1  0  0  0  0  0  0  0  0  0
   26.5381  -21.4437  -12.6322 C   0  0  0  0  0  0  0  0  0  0  0  0
   26.5674  -21.2507  -14.0927 C   0  0  0  0  0  0  0  0  0  0  0  0
   27.6897  -21.9768  -14.7694 C   0  0  0  0  0  0  0  0  0  0  0  0
   27.8018  -21.7629  -16.2442 C   0  0  0  0  0  0  0  0  0  0  0  0
   28.8320  -22.4824  -16.9098 N   0  0  0  0  0  0  0  0  0  0  0  0
   24.0835  -21.0889  -12.4343 C   0  0  0  0  0  0  0  0  0  0  0  0
   23.5466  -22.1736  -12.1174 O   0  0  0  0  0  0  0  0  0  0  0  0
   20.7031  -19.1538  -12.2857 C   0  0  0  0  0  0  0  0  0  0  0  0
   21.1271  -19.3141  -13.7474 C   0  0  1  0  0  0  0  0  0  0  0  0
   21.8267  -18.1701  -14.1370 O   0  0  0  0  0  0  0  0  0  0  0  0
   22.0254  -20.5398  -13.7997 C   0  0  2  0  0  0  0  0  0  0  0  0
   23.3546  -20.2381  -13.3051 N   0  0  0  0  0  0  0  0  0  0  0  0
   22.0935  -20.9602  -15.2268 C   0  0  0  0  0  0  0  0  0  0  0  0
   23.1619  -20.8999  -15.8842 O   0  0  0  0  0  0  0  0  0  0  0  0
   20.9743  -21.4383  -15.8929 O   0  0  0  0  0  0  0  0  0  0  0  0
  2  1  1  0
  3  2  1  0
  4  3  1  0
  5  7  1  0
  5  4  1  0
  5  6  1  6
  7  8  2  0
  9 10  1  0
  9  7  1  0
 10 11  1  6
 11 12  1  0
 12 13  1  0
 13 14  1  0
 15 14  1  0
 16 22  1  0
 16 10  1  0
 17 16  2  0
 19 18  1  1
 19 21  1  0
 20 19  1  0
 21 22  1  6
 23 21  1  0
 23 25  1  0
 24 23  2  0
M  END
$$$$
