MKT.pdb
     RDKit          3D

 25 24  0  0  1  0  0  0  0  0999 V2000
   27.2816  -20.0237   -4.5649 C   0  0  0  0  0  0  0  0  0  0  0  0
   28.0275  -18.8848   -5.7917 S   0  0  0  0  0  0  0  0  0  0  0  0
   26.8714  -18.7363   -7.1837 C   0  0  0  0  0  0  0  0  0  0  0  0
   26.8640  -20.0161   -8.0074 C   0  0  0  0  0  0  0  0  0  0  0  0
   25.4212  -20.3576   -8.2725 C   0  0  2  0  0  0  0  0  0  0  0  0
   24.9576  -21.2707   -7.2472 N   0  0  0  0  0  0  0  0  0  0  0  0
   25.1941  -20.9494   -9.5950 C   0  0  0  0  0  0  0  0  0  0  0  0
   25.6008  -22.0883   -9.9409 O   0  0  0  0  0  0  0  0  0  0  0  0
   24.4653  -20.2232  -10.5985 N   0  0  0  0  0  0  0  0  0  0  0  0
   24.1119  -20.8291  -11.8808 C   0  0  1  0  0  0  0  0  0  0  0  0
   22.6399  -20.7248  -12.1550 C   0  0  0  0  0  0  0  0  0  0  0  0
   22.1622  -21.3373  -13.4071 C   0  0  0  0  0  0  0  0  0  0  0  0
   20.6846  -21.2004  -13.6138 C   0  0  0  0  0  0  0  0  0  0  0  0
   20.1501  -21.7984  -14.8748 C   0  0  0  0  0  0  0  0  0  0  0  0
   18.7446  -21.7062  -15.0709 N   0  0  0  0  0  0  0  0  0  0  0  0
   24.9446  -20.2663  -12.9729 C   0  0  0  0  0  0  0  0  0  0  0  0
   25.2396  -19.0508  -12.9489 O   0  0  0  0  0  0  0  0  0  0  0  0
   28.3572  -20.9846  -13.8993 C   0  0  0  0  0  0  0  0  0  0  0  0
   27.5982  -21.2603  -15.1992 C   0  0  1  0  0  0  0  0  0  0  0  0
   27.3572  -22.6326  -15.2927 O   0  0  0  0  0  0  0  0  0  0  0  0
   26.2917  -20.4885  -15.1030 C   0  0  2  0  0  0  0  0  0  0  0  0
   25.4380  -21.0289  -14.0630 N   0  0  0  0  0  0  0  0  0  0  0  0
   25.6236  -20.6105  -16.4284 C   0  0  0  0  0  0  0  0  0  0  0  0
   26.1592  -20.1840  -17.4813 O   0  0  0  0  0  0  0  0  0  0  0  0
   24.3757  -21.2033  -16.5561 O   0  0  0  0  0  0  0  0  0  0  0  0
  2  1  1  0
  3  2  1  0
  4  3  1  0
  5  7  1  0
  5  4  1  0
  5  6  1  1
  7  8  2  0
  9 10  1  0
  9  7  1  0
 10 11  1  6
 11 12  1  0
 12 13  1  0
 13 14  1  0
 15 14  1  0
 16 22  1  0
 16 10  1  0
 17 16  2  0
 19 18  1  1
 19 21  1  0
 20 19  1  0
 21 22  1  1
 23 21  1  0
 23 25  1  0
 24 23  2  0
M  END
$$$$
