MKT.pdb
     RDKit          3D

 25 24  0  0  1  0  0  0  0  0999 V2000
   31.5085  -22.2333   -7.5525 C   0  0  0  0  0  0  0  0  0  0  0  0
   33.0007  -22.7313   -8.4927 S   0  0  0  0  0  0  0  0  0  0  0  0
   32.6433  -22.5056  -10.2584 C   0  0  0  0  0  0  0  0  0  0  0  0
   31.4420  -21.5899  -10.4448 C   0  0  0  0  0  0  0  0  0  0  0  0
   31.1023  -21.6068  -11.9120 C   0  0  2  0  0  0  0  0  0  0  0  0
   32.2474  -21.1375  -12.6658 N   0  0  0  0  0  0  0  0  0  0  0  0
   29.9277  -20.7961  -12.2494 C   0  0  0  0  0  0  0  0  0  0  0  0
   29.8836  -19.5421  -12.1621 O   0  0  0  0  0  0  0  0  0  0  0  0
   28.7223  -21.4252  -12.7150 N   0  0  0  0  0  0  0  0  0  0  0  0
   27.4675  -20.6857  -12.8376 C   0  0  1  0  0  0  0  0  0  0  0  0
   26.9554  -20.6951  -14.2484 C   0  0  0  0  0  0  0  0  0  0  0  0
   25.6490  -20.0525  -14.4751 C   0  0  0  0  0  0  0  0  0  0  0  0
   25.1647  -20.1646  -15.8885 C   0  0  0  0  0  0  0  0  0  0  0  0
   23.9303  -19.3871  -16.2125 C   0  0  0  0  0  0  0  0  0  0  0  0
   23.4553  -19.4851  -17.5492 N   0  0  0  0  0  0  0  0  0  0  0  0
   26.4697  -21.1815  -11.8572 C   0  0  0  0  0  0  0  0  0  0  0  0
   26.1690  -22.3958  -11.8557 O   0  0  0  0  0  0  0  0  0  0  0  0
   26.1124  -20.5313   -8.0157 C   0  0  0  0  0  0  0  0  0  0  0  0
   24.8057  -20.1015   -8.6862 C   0  0  1  0  0  0  0  0  0  0  0  0
   24.8286  -18.7162   -8.8610 O   0  0  0  0  0  0  0  0  0  0  0  0
   24.7600  -20.8139  -10.0287 C   0  0  2  0  0  0  0  0  0  0  0  0
   25.8217  -20.3549  -10.9032 N   0  0  0  0  0  0  0  0  0  0  0  0
   23.4327  -20.5079  -10.6309 C   0  0  0  0  0  0  0  0  0  0  0  0
   23.3266  -19.9020  -11.7259 O   0  0  0  0  0  0  0  0  0  0  0  0
   22.2523  -20.8812  -10.0046 O   0  0  0  0  0  0  0  0  0  0  0  0
  2  1  1  0
  3  2  1  0
  4  3  1  0
  5  7  1  0
  5  4  1  0
  5  6  1  6
  7  8  2  0
  9 10  1  0
  9  7  1  0
 10 11  1  6
 11 12  1  0
 12 13  1  0
 13 14  1  0
 15 14  1  0
 16 22  1  0
 16 10  1  0
 17 16  2  0
 19 18  1  6
 19 21  1  0
 20 19  1  0
 21 22  1  6
 23 21  1  0
 23 25  1  0
 24 23  2  0
M  END
$$$$
