MKT.pdb
     RDKit          3D

 25 24  0  0  1  0  0  0  0  0999 V2000
   27.4536  -12.3043  -14.7159 C   0  0  0  0  0  0  0  0  0  0  0  0
   27.5595  -13.0347  -16.3934 S   0  0  0  0  0  0  0  0  0  0  0  0
   25.8874  -13.0414  -17.1008 C   0  0  0  0  0  0  0  0  0  0  0  0
   25.2087  -11.6982  -16.8737 C   0  0  0  0  0  0  0  0  0  0  0  0
   23.8247  -11.8026  -17.4586 C   0  0  2  0  0  0  0  0  0  0  0  0
   23.9328  -12.0528  -18.8819 N   0  0  0  0  0  0  0  0  0  0  0  0
   23.0027  -10.6095  -17.2317 C   0  0  0  0  0  0  0  0  0  0  0  0
   22.9069   -9.6509  -18.0403 O   0  0  0  0  0  0  0  0  0  0  0  0
   22.2366  -10.4764  -16.0230 N   0  0  0  0  0  0  0  0  0  0  0  0
   21.2764   -9.3902  -15.8375 C   0  0  1  0  0  0  0  0  0  0  0  0
   19.9989   -9.8804  -15.2207 C   0  0  0  0  0  0  0  0  0  0  0  0
   19.1397  -10.7199  -16.0740 C   0  0  0  0  0  0  0  0  0  0  0  0
   17.8362  -11.0868  -15.4329 C   0  0  0  0  0  0  0  0  0  0  0  0
   16.9543  -11.9904  -16.2324 C   0  0  0  0  0  0  0  0  0  0  0  0
   15.7630  -12.4350  -15.5958 N   0  0  0  0  0  0  0  0  0  0  0  0
   21.8914   -8.2712  -15.0810 C   0  0  0  0  0  0  0  0  0  0  0  0
   22.3811   -8.4963  -13.9520 O   0  0  0  0  0  0  0  0  0  0  0  0
   24.4140   -5.6391  -16.4849 C   0  0  0  0  0  0  0  0  0  0  0  0
   23.2706   -4.8791  -15.8089 C   0  0  1  0  0  0  0  0  0  0  0  0
   22.3659   -4.4690  -16.7904 O   0  0  0  0  0  0  0  0  0  0  0  0
   22.6163   -5.8585  -14.8474 C   0  0  2  0  0  0  0  0  0  0  0  0
   21.9627   -6.9380  -15.5614 N   0  0  0  0  0  0  0  0  0  0  0  0
   21.6151   -5.0840  -14.0626 C   0  0  0  0  0  0  0  0  0  0  0  0
   21.9580   -4.1781  -13.2632 O   0  0  0  0  0  0  0  0  0  0  0  0
   20.2553   -5.3319  -14.1825 O   0  0  0  0  0  0  0  0  0  0  0  0
  2  1  1  0
  3  2  1  0
  4  3  1  0
  5  7  1  0
  5  4  1  0
  5  6  1  6
  7  8  2  0
  9 10  1  0
  9  7  1  0
 10 11  1  1
 11 12  1  0
 12 13  1  0
 13 14  1  0
 15 14  1  0
 16 22  1  0
 16 10  1  0
 17 16  2  0
 19 18  1  6
 19 21  1  0
 20 19  1  0
 21 22  1  6
 23 21  1  0
 23 25  1  0
 24 23  2  0
M  END
$$$$
