MKT.pdb
     RDKit          3D

 25 24  0  0  1  0  0  0  0  0999 V2000
   28.0700  -12.5238  -15.3160 C   0  0  0  0  0  0  0  0  0  0  0  0
   28.3181  -14.0140  -16.3534 S   0  0  0  0  0  0  0  0  0  0  0  0
   26.6801  -14.6735  -16.7756 C   0  0  0  0  0  0  0  0  0  0  0  0
   25.6846  -13.5390  -16.9715 C   0  0  0  0  0  0  0  0  0  0  0  0
   24.3921  -14.1645  -17.4262 C   0  0  2  0  0  0  0  0  0  0  0  0
   24.6060  -14.8092  -18.7063 N   0  0  0  0  0  0  0  0  0  0  0  0
   23.2870  -13.2069  -17.5383 C   0  0  0  0  0  0  0  0  0  0  0  0
   23.0752  -12.4842  -18.5458 O   0  0  0  0  0  0  0  0  0  0  0  0
   22.3563  -13.0443  -16.4553 N   0  0  0  0  0  0  0  0  0  0  0  0
   21.2753  -12.0622  -16.5121 C   0  0  1  0  0  0  0  0  0  0  0  0
   19.9528  -12.6738  -16.1521 C   0  0  0  0  0  0  0  0  0  0  0  0
   18.7951  -11.7627  -16.1273 C   0  0  0  0  0  0  0  0  0  0  0  0
   17.5027  -12.4468  -15.8007 C   0  0  0  0  0  0  0  0  0  0  0  0
   16.3008  -11.5610  -15.7357 C   0  0  0  0  0  0  0  0  0  0  0  0
   16.3540  -10.4927  -14.7986 N   0  0  0  0  0  0  0  0  0  0  0  0
   21.6051  -10.8724  -15.6886 C   0  0  0  0  0  0  0  0  0  0  0  0
   22.0318  -11.0371  -14.5242 O   0  0  0  0  0  0  0  0  0  0  0  0
   23.9689   -7.9281  -16.3379 C   0  0  0  0  0  0  0  0  0  0  0  0
   22.5684   -7.3448  -16.1377 C   0  0  1  0  0  0  0  0  0  0  0  0
   21.9844   -7.1465  -17.3906 O   0  0  0  0  0  0  0  0  0  0  0  0
   21.7877   -8.3737  -15.3354 C   0  0  2  0  0  0  0  0  0  0  0  0
   21.4666   -9.5350  -16.1421 N   0  0  0  0  0  0  0  0  0  0  0  0
   20.5371   -7.7040  -14.8818 C   0  0  0  0  0  0  0  0  0  0  0  0
   19.4076   -8.0565  -15.3026 O   0  0  0  0  0  0  0  0  0  0  0  0
   20.5679   -6.6578  -13.9711 O   0  0  0  0  0  0  0  0  0  0  0  0
  2  1  1  0
  3  2  1  0
  4  3  1  0
  5  7  1  0
  5  4  1  0
  5  6  1  6
  7  8  2  0
  9 10  1  0
  9  7  1  0
 10 11  1  1
 11 12  1  0
 12 13  1  0
 13 14  1  0
 15 14  1  0
 16 22  1  0
 16 10  1  0
 17 16  2  0
 19 18  1  6
 19 21  1  0
 20 19  1  0
 21 22  1  6
 23 21  1  0
 23 25  1  0
 24 23  2  0
M  END
$$$$
