VSD.pdb
     RDKit          3D

 22 21  0  0  1  0  0  0  0  0999 V2000
   17.7934  -12.3890  -18.1668 C   0  0  0  0  0  0  0  0  0  0  0  0
   18.8650  -12.8622  -17.2106 C   0  0  2  0  0  0  0  0  0  0  0  0
   18.6590  -14.3317  -16.9539 C   0  0  0  0  0  0  0  0  0  0  0  0
   18.9235  -12.0548  -15.9521 C   0  0  2  0  0  0  0  0  0  0  0  0
   17.8047  -12.4283  -15.1151 N   0  0  0  0  0  0  0  0  0  0  0  0
   18.9241  -10.6069  -16.1580 C   0  0  0  0  0  0  0  0  0  0  0  0
   19.8256   -9.9857  -16.7975 O   0  0  0  0  0  0  0  0  0  0  0  0
   15.9947   -8.1181  -14.4203 O   0  0  0  0  0  0  0  0  0  0  0  0
   16.4983   -7.7324  -15.6432 C   0  0  0  0  0  0  0  0  0  0  0  0
   17.8597   -8.3444  -15.8250 C   0  0  2  0  0  0  0  0  0  0  0  0
   17.8773   -9.7654  -15.6375 N   0  0  0  0  0  0  0  0  0  0  0  0
   18.8452   -7.6336  -14.9819 C   0  0  0  0  0  0  0  0  0  0  0  0
   19.1398   -8.0979  -13.8534 O   0  0  0  0  0  0  0  0  0  0  0  0
   19.4812   -6.4359  -15.3947 N   0  0  0  0  0  0  0  0  0  0  0  0
   20.4194   -5.6829  -14.6253 C   0  0  1  0  0  0  0  0  0  0  0  0
   21.7241   -5.5634  -15.3658 C   0  0  0  0  0  0  0  0  0  0  0  0
   22.6963   -4.7099  -14.6496 C   0  0  0  0  0  0  0  0  0  0  0  0
   22.9509   -4.8847  -13.4316 O   0  0  0  0  0  0  0  0  0  0  0  0
   19.8888   -4.3836  -14.1634 C   0  0  0  0  0  0  0  0  0  0  0  0
   19.0501   -3.7418  -14.8113 O   0  0  0  0  0  0  0  0  0  0  0  0
   23.3271   -3.7001  -15.3649 O   0  0  0  0  0  0  0  0  0  0  0  0
   20.3501   -3.8606  -12.9522 O   0  0  0  0  0  0  0  0  0  0  0  0
  2  1  1  6
  2  3  1  0
  2  4  1  0
  4  6  1  0
  4  5  1  1
  6  7  2  0
  8  9  1  0
 10  9  1  1
 10 12  1  0
 11  6  1  0
 11 10  1  0
 12 13  2  0
 12 14  1  0
 14 15  1  0
 15 16  1  6
 16 17  1  0
 17 21  1  0
 18 17  2  0
 19 15  1  0
 19 22  1  0
 20 19  2  0
M  END
$$$$
