VSD.pdb
     RDKit          3D

 22 21  0  0  1  0  0  0  0  0999 V2000
   27.6964  -11.3107  -18.5629 C   0  0  0  0  0  0  0  0  0  0  0  0
   28.1277  -11.1642  -17.1210 C   0  0  2  0  0  0  0  0  0  0  0  0
   29.0656  -12.2943  -16.7872 C   0  0  0  0  0  0  0  0  0  0  0  0
   26.9742  -11.0669  -16.1728 C   0  0  2  0  0  0  0  0  0  0  0  0
   26.3483  -12.3671  -16.0766 N   0  0  0  0  0  0  0  0  0  0  0  0
   25.9738  -10.0630  -16.5334 C   0  0  0  0  0  0  0  0  0  0  0  0
   26.2250   -8.8253  -16.6458 O   0  0  0  0  0  0  0  0  0  0  0  0
   21.8675  -11.0260  -17.0240 O   0  0  0  0  0  0  0  0  0  0  0  0
   22.4011  -10.0314  -17.8139 C   0  0  0  0  0  0  0  0  0  0  0  0
   23.5988   -9.4461  -17.1181 C   0  0  2  0  0  0  0  0  0  0  0  0
   24.6018  -10.4170  -16.7922 N   0  0  0  0  0  0  0  0  0  0  0  0
   23.1608   -8.6478  -15.9527 C   0  0  0  0  0  0  0  0  0  0  0  0
   23.1113   -9.1867  -14.8199 O   0  0  0  0  0  0  0  0  0  0  0  0
   22.7891   -7.2838  -16.0570 N   0  0  0  0  0  0  0  0  0  0  0  0
   22.2833   -6.4747  -14.9947 C   0  0  1  0  0  0  0  0  0  0  0  0
   22.5870   -5.0237  -15.2546 C   0  0  0  0  0  0  0  0  0  0  0  0
   21.9966   -4.1373  -14.2288 C   0  0  0  0  0  0  0  0  0  0  0  0
   22.3337   -4.2159  -13.0208 O   0  0  0  0  0  0  0  0  0  0  0  0
   20.8594   -6.7284  -14.6925 C   0  0  0  0  0  0  0  0  0  0  0  0
   20.3851   -6.5766  -13.5580 O   0  0  0  0  0  0  0  0  0  0  0  0
   21.0508   -3.2066  -14.6388 O   0  0  0  0  0  0  0  0  0  0  0  0
   20.0182   -7.1548  -15.7240 O   0  0  0  0  0  0  0  0  0  0  0  0
  2  1  1  6
  2  3  1  0
  2  4  1  0
  4  6  1  0
  4  5  1  6
  6  7  2  0
  8  9  1  0
 10  9  1  1
 10 12  1  0
 11  6  1  0
 11 10  1  0
 12 13  2  0
 12 14  1  0
 14 15  1  0
 15 16  1  6
 16 17  1  0
 17 21  1  0
 18 17  2  0
 19 15  1  0
 19 22  1  0
 20 19  2  0
M  END
$$$$
