VSD.pdb
     RDKit          3D

 22 21  0  0  1  0  0  0  0  0999 V2000
   16.3895  -11.6422  -16.8842 C   0  0  0  0  0  0  0  0  0  0  0  0
   17.7668  -12.1086  -17.2990 C   0  0  2  0  0  0  0  0  0  0  0  0
   17.7418  -13.6086  -17.4316 C   0  0  0  0  0  0  0  0  0  0  0  0
   18.8481  -11.6237  -16.3854 C   0  0  2  0  0  0  0  0  0  0  0  0
   18.7439  -12.3377  -15.1319 N   0  0  0  0  0  0  0  0  0  0  0  0
   18.8322  -10.1829  -16.1354 C   0  0  0  0  0  0  0  0  0  0  0  0
   19.0600   -9.3098  -17.0261 O   0  0  0  0  0  0  0  0  0  0  0  0
   18.0466   -8.5513  -12.2918 O   0  0  0  0  0  0  0  0  0  0  0  0
   17.5700   -7.8964  -13.4063 C   0  0  0  0  0  0  0  0  0  0  0  0
   18.4452   -8.2338  -14.5816 C   0  0  2  0  0  0  0  0  0  0  0  0
   18.5502   -9.6416  -14.8307 N   0  0  0  0  0  0  0  0  0  0  0  0
   19.7581   -7.5687  -14.4359 C   0  0  0  0  0  0  0  0  0  0  0  0
   20.6755   -8.1474  -13.8038 O   0  0  0  0  0  0  0  0  0  0  0  0
   20.0324   -6.2907  -14.9845 N   0  0  0  0  0  0  0  0  0  0  0  0
   21.2824   -5.6041  -14.9127 C   0  0  1  0  0  0  0  0  0  0  0  0
   21.3128   -4.4720  -15.9038 C   0  0  0  0  0  0  0  0  0  0  0  0
   22.6449   -3.8348  -15.9828 C   0  0  0  0  0  0  0  0  0  0  0  0
   23.6570   -4.3623  -15.4570 O   0  0  0  0  0  0  0  0  0  0  0  0
   21.6450   -5.1901  -13.5416 C   0  0  0  0  0  0  0  0  0  0  0  0
   20.8850   -4.5201  -12.8284 O   0  0  0  0  0  0  0  0  0  0  0  0
   22.7496   -2.6266  -16.6597 O   0  0  0  0  0  0  0  0  0  0  0  0
   22.8902   -5.5682  -13.0316 O   0  0  0  0  0  0  0  0  0  0  0  0
  2  1  1  1
  2  3  1  0
  2  4  1  0
  4  6  1  0
  4  5  1  1
  6  7  2  0
  8  9  1  0
 10  9  1  1
 10 12  1  0
 11  6  1  0
 11 10  1  0
 12 13  2  0
 12 14  1  0
 14 15  1  0
 15 16  1  6
 16 17  1  0
 17 21  1  0
 18 17  2  0
 19 15  1  0
 19 22  1  0
 20 19  2  0
M  END
$$$$
