VSD.pdb
     RDKit          3D

 22 21  0  0  1  0  0  0  0  0999 V2000
   18.7585  -12.6640  -18.7982 C   0  0  0  0  0  0  0  0  0  0  0  0
   20.1598  -12.1308  -18.6017 C   0  0  2  0  0  0  0  0  0  0  0  0
   21.1142  -13.2956  -18.5824 C   0  0  0  0  0  0  0  0  0  0  0  0
   20.2880  -11.2543  -17.3957 C   0  0  2  0  0  0  0  0  0  0  0  0
   20.3108  -12.0942  -16.2185 N   0  0  0  0  0  0  0  0  0  0  0  0
   19.2371  -10.2460  -17.2623 C   0  0  0  0  0  0  0  0  0  0  0  0
   19.0731   -9.2863  -18.0744 O   0  0  0  0  0  0  0  0  0  0  0  0
   16.8988   -9.9828  -13.7704 O   0  0  0  0  0  0  0  0  0  0  0  0
   16.2887   -9.5759  -14.9366 C   0  0  0  0  0  0  0  0  0  0  0  0
   17.3480   -9.2198  -15.9427 C   0  0  2  0  0  0  0  0  0  0  0  0
   18.2928  -10.2726  -16.1749 N   0  0  0  0  0  0  0  0  0  0  0  0
   17.9844   -7.9385  -15.5680 C   0  0  0  0  0  0  0  0  0  0  0  0
   19.0148   -7.9484  -14.8510 O   0  0  0  0  0  0  0  0  0  0  0  0
   17.4779   -6.6825  -15.9867 N   0  0  0  0  0  0  0  0  0  0  0  0
   18.0274   -5.4083  -15.6498 C   0  0  1  0  0  0  0  0  0  0  0  0
   18.9457   -4.9312  -16.7426 C   0  0  0  0  0  0  0  0  0  0  0  0
   19.3943   -3.5389  -16.5266 C   0  0  0  0  0  0  0  0  0  0  0  0
   19.9244   -3.1803  -15.4453 O   0  0  0  0  0  0  0  0  0  0  0  0
   17.0049   -4.4118  -15.2696 C   0  0  0  0  0  0  0  0  0  0  0  0
   17.1538   -3.1986  -15.4722 O   0  0  0  0  0  0  0  0  0  0  0  0
   19.2128   -2.6287  -17.5599 O   0  0  0  0  0  0  0  0  0  0  0  0
   15.8280   -4.8545  -14.6595 O   0  0  0  0  0  0  0  0  0  0  0  0
  2  1  1  1
  2  3  1  0
  2  4  1  0
  4  6  1  0
  4  5  1  1
  6  7  2  0
  8  9  1  0
 10  9  1  1
 10 12  1  0
 11  6  1  0
 11 10  1  0
 12 13  2  0
 12 14  1  0
 14 15  1  0
 15 16  1  6
 16 17  1  0
 17 21  1  0
 18 17  2  0
 19 15  1  0
 19 22  1  0
 20 19  2  0
M  END
$$$$
