VSD.pdb
     RDKit          3D

 22 21  0  0  1  0  0  0  0  0999 V2000
   26.6632  -33.3774  -10.2505 C   0  0  0  0  0  0  0  0  0  0  0  0
   25.2428  -33.5453   -9.7600 C   0  0  2  0  0  0  0  0  0  0  0  0
   24.3584  -32.5997  -10.5292 C   0  0  0  0  0  0  0  0  0  0  0  0
   25.1135  -33.3861   -8.2778 C   0  0  2  0  0  0  0  0  0  0  0  0
   25.1727  -31.9762   -7.9609 N   0  0  0  0  0  0  0  0  0  0  0  0
   26.1177  -34.1096   -7.4986 C   0  0  0  0  0  0  0  0  0  0  0  0
   26.3337  -35.3542   -7.6086 O   0  0  0  0  0  0  0  0  0  0  0  0
   30.0546  -33.7950   -6.7406 O   0  0  0  0  0  0  0  0  0  0  0  0
   29.2586  -33.3977   -5.6887 C   0  0  0  0  0  0  0  0  0  0  0  0
   27.9487  -34.1323   -5.7638 C   0  0  2  0  0  0  0  0  0  0  0  0
   26.9509  -33.4450   -6.5298 N   0  0  0  0  0  0  0  0  0  0  0  0
   27.4948  -34.4878   -4.4019 C   0  0  0  0  0  0  0  0  0  0  0  0
   26.7155  -33.7163   -3.7908 O   0  0  0  0  0  0  0  0  0  0  0  0
   27.9045  -35.6756   -3.7456 N   0  0  0  0  0  0  0  0  0  0  0  0
   27.5877  -36.0360   -2.4007 C   0  0  1  0  0  0  0  0  0  0  0  0
   28.1059  -37.4154   -2.0948 C   0  0  0  0  0  0  0  0  0  0  0  0
   27.7648  -37.8484   -0.7227 C   0  0  0  0  0  0  0  0  0  0  0  0
   28.6458  -38.2566    0.0749 O   0  0  0  0  0  0  0  0  0  0  0  0
   28.0040  -35.0225   -1.4094 C   0  0  0  0  0  0  0  0  0  0  0  0
   28.9999  -34.3041   -1.5739 O   0  0  0  0  0  0  0  0  0  0  0  0
   26.4324  -37.7918   -0.3344 O   0  0  0  0  0  0  0  0  0  0  0  0
   27.2465  -34.8695   -0.2448 O   0  0  0  0  0  0  0  0  0  0  0  0
  2  1  1  6
  2  3  1  0
  2  4  1  0
  4  6  1  0
  4  5  1  6
  6  7  2  0
  8  9  1  0
 10  9  1  1
 10 12  1  0
 11  6  1  0
 11 10  1  0
 12 13  2  0
 12 14  1  0
 14 15  1  0
 15 16  1  1
 16 17  1  0
 17 21  1  0
 18 17  2  0
 19 15  1  0
 19 22  1  0
 20 19  2  0
M  END
$$$$
