VSD.pdb
     RDKit          3D

 22 21  0  0  1  0  0  0  0  0999 V2000
   12.9815   -9.8475  -12.1147 C   0  0  0  0  0  0  0  0  0  0  0  0
   13.4507   -9.7048  -10.6843 C   0  0  2  0  0  0  0  0  0  0  0  0
   12.8301   -8.4626  -10.1013 C   0  0  0  0  0  0  0  0  0  0  0  0
   14.9411   -9.7267  -10.5529 C   0  0  2  0  0  0  0  0  0  0  0  0
   15.2760   -9.9083   -9.1577 N   0  0  0  0  0  0  0  0  0  0  0  0
   15.6147   -8.5366  -11.0713 C   0  0  0  0  0  0  0  0  0  0  0  0
   15.6386   -8.2177  -12.2982 O   0  0  0  0  0  0  0  0  0  0  0  0
   17.6348   -5.7951   -8.5372 O   0  0  0  0  0  0  0  0  0  0  0  0
   17.0458   -5.3335   -9.6939 C   0  0  0  0  0  0  0  0  0  0  0  0
   16.9891   -6.4555  -10.6935 C   0  0  2  0  0  0  0  0  0  0  0  0
   16.3141   -7.6222  -10.2057 N   0  0  0  0  0  0  0  0  0  0  0  0
   18.3472   -6.7397  -11.2052 C   0  0  0  0  0  0  0  0  0  0  0  0
   18.9066   -7.8217  -10.9011 O   0  0  0  0  0  0  0  0  0  0  0  0
   19.0563   -5.8348  -12.0345 N   0  0  0  0  0  0  0  0  0  0  0  0
   20.3195   -6.0850  -12.6515 C   0  0  1  0  0  0  0  0  0  0  0  0
   20.2687   -7.3639  -13.4432 C   0  0  0  0  0  0  0  0  0  0  0  0
   21.4964   -7.5769  -14.2393 C   0  0  0  0  0  0  0  0  0  0  0  0
   22.6186   -7.1833  -13.8332 O   0  0  0  0  0  0  0  0  0  0  0  0
   20.8290   -4.9366  -13.4291 C   0  0  0  0  0  0  0  0  0  0  0  0
   20.0858   -4.2116  -14.1051 O   0  0  0  0  0  0  0  0  0  0  0  0
   21.3763   -8.2296  -15.4594 O   0  0  0  0  0  0  0  0  0  0  0  0
   22.1985   -4.6591  -13.4004 O   0  0  0  0  0  0  0  0  0  0  0  0
  2  1  1  6
  2  3  1  0
  2  4  1  0
  4  6  1  0
  4  5  1  1
  6  7  2  0
  8  9  1  0
 10  9  1  1
 10 12  1  0
 11  6  1  0
 11 10  1  0
 12 13  2  0
 12 14  1  0
 14 15  1  0
 15 16  1  6
 16 17  1  0
 17 21  1  0
 18 17  2  0
 19 15  1  0
 19 22  1  0
 20 19  2  0
M  END
$$$$
