VSD.pdb
     RDKit          3D

 22 21  0  0  1  0  0  0  0  0999 V2000
   11.5531  -11.8731  -11.0822 C   0  0  0  0  0  0  0  0  0  0  0  0
   11.7723  -12.8128  -12.2465 C   0  0  2  0  0  0  0  0  0  0  0  0
   10.6072  -13.7644  -12.3163 C   0  0  0  0  0  0  0  0  0  0  0  0
   13.0931  -13.5140  -12.1912 C   0  0  2  0  0  0  0  0  0  0  0  0
   13.0797  -14.4298  -11.0719 N   0  0  0  0  0  0  0  0  0  0  0  0
   14.2496  -12.6249  -12.0877 C   0  0  0  0  0  0  0  0  0  0  0  0
   14.4907  -11.8954  -11.0791 O   0  0  0  0  0  0  0  0  0  0  0  0
   17.4191  -12.8672  -14.7554 O   0  0  0  0  0  0  0  0  0  0  0  0
   17.6303  -12.2571  -13.5384 C   0  0  0  0  0  0  0  0  0  0  0  0
   16.3442  -11.6280  -13.0785 C   0  0  2  0  0  0  0  0  0  0  0  0
   15.2184  -12.5126  -13.1477 N   0  0  0  0  0  0  0  0  0  0  0  0
   16.1269  -10.3519  -13.7937 C   0  0  0  0  0  0  0  0  0  0  0  0
   15.3904  -10.3326  -14.8102 O   0  0  0  0  0  0  0  0  0  0  0  0
   16.7198   -9.1329  -13.3789 N   0  0  0  0  0  0  0  0  0  0  0  0
   16.6834   -7.9010  -14.1002 C   0  0  1  0  0  0  0  0  0  0  0  0
   16.9099   -6.7431  -13.1659 C   0  0  0  0  0  0  0  0  0  0  0  0
   16.9050   -5.4451  -13.8742 C   0  0  0  0  0  0  0  0  0  0  0  0
   15.8647   -4.9992  -14.4203 O   0  0  0  0  0  0  0  0  0  0  0  0
   17.5764   -7.8852  -15.2772 C   0  0  0  0  0  0  0  0  0  0  0  0
   17.3519   -7.1794  -16.2704 O   0  0  0  0  0  0  0  0  0  0  0  0
   18.0912   -4.7242  -13.9207 O   0  0  0  0  0  0  0  0  0  0  0  0
   18.7150   -8.6958  -15.2689 O   0  0  0  0  0  0  0  0  0  0  0  0
  2  1  1  1
  2  3  1  0
  2  4  1  0
  4  6  1  0
  4  5  1  1
  6  7  2  0
  8  9  1  0
 10  9  1  6
 10 12  1  0
 11  6  1  0
 11 10  1  0
 12 13  2  0
 12 14  1  0
 14 15  1  0
 15 16  1  1
 16 17  1  0
 17 21  1  0
 18 17  2  0
 19 15  1  0
 19 22  1  0
 20 19  2  0
M  END
$$$$
