VSD.pdb
     RDKit          3D

 22 21  0  0  1  0  0  0  0  0999 V2000
   13.9748  -12.1158  -15.9053 C   0  0  0  0  0  0  0  0  0  0  0  0
   15.0537  -13.0815  -15.4695 C   0  0  2  0  0  0  0  0  0  0  0  0
   14.9160  -13.3122  -13.9876 C   0  0  0  0  0  0  0  0  0  0  0  0
   16.4279  -12.6395  -15.8637 C   0  0  2  0  0  0  0  0  0  0  0  0
   17.3373  -13.7487  -15.6784 N   0  0  0  0  0  0  0  0  0  0  0  0
   16.9219  -11.4697  -15.1382 C   0  0  0  0  0  0  0  0  0  0  0  0
   16.3550  -10.9839  -14.1133 O   0  0  0  0  0  0  0  0  0  0  0  0
   20.4429   -9.5293  -16.3139 O   0  0  0  0  0  0  0  0  0  0  0  0
   20.0719   -9.3936  -14.9941 C   0  0  0  0  0  0  0  0  0  0  0  0
   18.5853   -9.5908  -14.8827 C   0  0  2  0  0  0  0  0  0  0  0  0
   18.1139  -10.7712  -15.5454 N   0  0  0  0  0  0  0  0  0  0  0  0
   17.8833   -8.3620  -15.3125 C   0  0  0  0  0  0  0  0  0  0  0  0
   17.3762   -8.3112  -16.4598 O   0  0  0  0  0  0  0  0  0  0  0  0
   17.7549   -7.2236  -14.4778 N   0  0  0  0  0  0  0  0  0  0  0  0
   17.1623   -5.9793  -14.8513 C   0  0  1  0  0  0  0  0  0  0  0  0
   16.3514   -5.4249  -13.7111 C   0  0  0  0  0  0  0  0  0  0  0  0
   15.7782   -4.0988  -14.0266 C   0  0  0  0  0  0  0  0  0  0  0  0
   16.3010   -3.0392  -13.5989 O   0  0  0  0  0  0  0  0  0  0  0  0
   18.1326   -5.0110  -15.4029 C   0  0  0  0  0  0  0  0  0  0  0  0
   17.7793   -4.0003  -16.0262 O   0  0  0  0  0  0  0  0  0  0  0  0
   14.6360   -4.0542  -14.8155 O   0  0  0  0  0  0  0  0  0  0  0  0
   19.4976   -5.2447  -15.2143 O   0  0  0  0  0  0  0  0  0  0  0  0
  2  1  1  1
  2  3  1  0
  2  4  1  0
  4  6  1  0
  4  5  1  1
  6  7  2  0
  8  9  1  0
 10  9  1  6
 10 12  1  0
 11  6  1  0
 11 10  1  0
 12 13  2  0
 12 14  1  0
 14 15  1  0
 15 16  1  1
 16 17  1  0
 17 21  1  0
 18 17  2  0
 19 15  1  0
 19 22  1  0
 20 19  2  0
M  END
$$$$
