VSD.pdb
     RDKit          3D

 22 21  0  0  1  0  0  0  0  0999 V2000
   33.8669  -32.7186   -5.3396 C   0  0  0  0  0  0  0  0  0  0  0  0
   32.8909  -33.5449   -6.1465 C   0  0  2  0  0  0  0  0  0  0  0  0
   31.4980  -33.2514   -5.6547 C   0  0  0  0  0  0  0  0  0  0  0  0
   33.2146  -35.0057   -6.1378 C   0  0  2  0  0  0  0  0  0  0  0  0
   32.4176  -35.6583   -7.1530 N   0  0  0  0  0  0  0  0  0  0  0  0
   33.0097  -35.6663   -4.8492 C   0  0  0  0  0  0  0  0  0  0  0  0
   31.8796  -36.0597   -4.4299 O   0  0  0  0  0  0  0  0  0  0  0  0
   35.8313  -35.4304   -1.7893 O   0  0  0  0  0  0  0  0  0  0  0  0
   35.1902  -36.6474   -1.8657 C   0  0  0  0  0  0  0  0  0  0  0  0
   33.9108  -36.4770   -2.6371 C   0  0  2  0  0  0  0  0  0  0  0  0
   34.1013  -35.9226   -3.9451 N   0  0  0  0  0  0  0  0  0  0  0  0
   32.9312  -35.7253   -1.8230 C   0  0  0  0  0  0  0  0  0  0  0  0
   32.6525  -34.5409   -2.1322 O   0  0  0  0  0  0  0  0  0  0  0  0
   32.2837  -36.2878   -0.6944 N   0  0  0  0  0  0  0  0  0  0  0  0
   31.3985  -35.5974    0.1881 C   0  0  1  0  0  0  0  0  0  0  0  0
   29.9682  -35.9218   -0.1493 C   0  0  0  0  0  0  0  0  0  0  0  0
   29.0130  -35.2200    0.7349 C   0  0  0  0  0  0  0  0  0  0  0  0
   29.4045  -34.4132    1.6151 O   0  0  0  0  0  0  0  0  0  0  0  0
   31.7217  -35.7975    1.6159 C   0  0  0  0  0  0  0  0  0  0  0  0
   31.0439  -35.2990    2.5254 O   0  0  0  0  0  0  0  0  0  0  0  0
   27.6588  -35.4781    0.5657 O   0  0  0  0  0  0  0  0  0  0  0  0
   32.8319  -36.5773    1.9517 O   0  0  0  0  0  0  0  0  0  0  0  0
  2  1  1  1
  2  3  1  0
  2  4  1  0
  4  6  1  0
  4  5  1  6
  6  7  2  0
  8  9  1  0
 10  9  1  1
 10 12  1  0
 11  6  1  0
 11 10  1  0
 12 13  2  0
 12 14  1  0
 14 15  1  0
 15 16  1  1
 16 17  1  0
 17 21  1  0
 18 17  2  0
 19 15  1  0
 19 22  1  0
 20 19  2  0
M  END
$$$$
