VSD.pdb
     RDKit          3D

 22 21  0  0  1  0  0  0  0  0999 V2000
   15.7564  -10.2144  -16.8812 C   0  0  0  0  0  0  0  0  0  0  0  0
   16.2313   -9.6228  -18.1892 C   0  0  2  0  0  0  0  0  0  0  0  0
   15.7443  -10.4993  -19.3129 C   0  0  0  0  0  0  0  0  0  0  0  0
   17.7101   -9.3980  -18.2265 C   0  0  2  0  0  0  0  0  0  0  0  0
   18.3646  -10.6769  -18.3929 N   0  0  0  0  0  0  0  0  0  0  0  0
   18.2512   -8.7158  -17.0515 C   0  0  0  0  0  0  0  0  0  0  0  0
   17.7488   -7.6640  -16.5526 O   0  0  0  0  0  0  0  0  0  0  0  0
   20.2209  -10.2702  -13.6257 O   0  0  0  0  0  0  0  0  0  0  0  0
   20.9295   -9.4103  -14.4360 C   0  0  0  0  0  0  0  0  0  0  0  0
   19.9606   -8.5540  -15.2036 C   0  0  2  0  0  0  0  0  0  0  0  0
   19.4192   -9.2013  -16.3623 N   0  0  0  0  0  0  0  0  0  0  0  0
   20.5784   -7.2442  -15.5037 C   0  0  0  0  0  0  0  0  0  0  0  0
   21.2500   -7.1059  -16.5552 O   0  0  0  0  0  0  0  0  0  0  0  0
   20.4455   -6.1225  -14.6472 N   0  0  0  0  0  0  0  0  0  0  0  0
   21.0093   -4.8302  -14.8734 C   0  0  1  0  0  0  0  0  0  0  0  0
   19.9395   -3.7744  -14.7988 C   0  0  0  0  0  0  0  0  0  0  0  0
   20.4777   -2.4168  -15.0313 C   0  0  0  0  0  0  0  0  0  0  0  0
   21.1030   -1.7963  -14.1352 O   0  0  0  0  0  0  0  0  0  0  0  0
   22.1757   -4.5417  -14.0135 C   0  0  0  0  0  0  0  0  0  0  0  0
   22.8974   -3.5495  -14.1859 O   0  0  0  0  0  0  0  0  0  0  0  0
   20.2723   -1.8397  -16.2778 O   0  0  0  0  0  0  0  0  0  0  0  0
   22.4748   -5.4202  -12.9683 O   0  0  0  0  0  0  0  0  0  0  0  0
  2  1  1  1
  2  3  1  0
  2  4  1  0
  4  6  1  0
  4  5  1  1
  6  7  2  0
  8  9  1  0
 10  9  1  6
 10 12  1  0
 11  6  1  0
 11 10  1  0
 12 13  2  0
 12 14  1  0
 14 15  1  0
 15 16  1  1
 16 17  1  0
 17 21  1  0
 18 17  2  0
 19 15  1  0
 19 22  1  0
 20 19  2  0
M  END
$$$$
