VSD.pdb
     RDKit          3D

 22 21  0  0  1  0  0  0  0  0999 V2000
   16.5121  -11.3308  -18.5347 C   0  0  0  0  0  0  0  0  0  0  0  0
   17.2390  -10.4874  -17.5116 C   0  0  2  0  0  0  0  0  0  0  0  0
   17.9640   -9.3824  -18.2339 C   0  0  0  0  0  0  0  0  0  0  0  0
   18.1382  -11.2900  -16.6248 C   0  0  2  0  0  0  0  0  0  0  0  0
   17.3295  -12.2323  -15.8835 N   0  0  0  0  0  0  0  0  0  0  0  0
   18.9449  -10.4962  -15.6986 C   0  0  0  0  0  0  0  0  0  0  0  0
   18.4596   -9.8155  -14.7453 O   0  0  0  0  0  0  0  0  0  0  0  0
   23.1481  -10.4962  -15.8952 O   0  0  0  0  0  0  0  0  0  0  0  0
   22.5540  -10.2635  -14.6742 C   0  0  0  0  0  0  0  0  0  0  0  0
   21.1908   -9.6704  -14.9004 C   0  0  2  0  0  0  0  0  0  0  0  0
   20.3798  -10.4302  -15.8059 N   0  0  0  0  0  0  0  0  0  0  0  0
   21.3208   -8.2490  -15.2876 C   0  0  0  0  0  0  0  0  0  0  0  0
   21.0987   -7.9111  -16.4761 O   0  0  0  0  0  0  0  0  0  0  0  0
   21.6895   -7.2367  -14.3664 N   0  0  0  0  0  0  0  0  0  0  0  0
   21.7851   -5.8416  -14.6558 C   0  0  1  0  0  0  0  0  0  0  0  0
   20.4658   -5.3223  -15.1605 C   0  0  0  0  0  0  0  0  0  0  0  0
   20.4978   -3.8652  -15.4097 C   0  0  0  0  0  0  0  0  0  0  0  0
   21.4879   -3.3137  -15.9525 O   0  0  0  0  0  0  0  0  0  0  0  0
   22.3360   -5.0482  -13.5378 C   0  0  0  0  0  0  0  0  0  0  0  0
   22.5594   -5.5398  -12.4227 O   0  0  0  0  0  0  0  0  0  0  0  0
   19.3945   -3.1144  -15.0249 O   0  0  0  0  0  0  0  0  0  0  0  0
   22.6148   -3.6946  -13.7465 O   0  0  0  0  0  0  0  0  0  0  0  0
  2  1  1  6
  2  3  1  0
  2  4  1  0
  4  6  1  0
  4  5  1  1
  6  7  2  0
  8  9  1  0
 10  9  1  6
 10 12  1  0
 11  6  1  0
 11 10  1  0
 12 13  2  0
 12 14  1  0
 14 15  1  0
 15 16  1  1
 16 17  1  0
 17 21  1  0
 18 17  2  0
 19 15  1  0
 19 22  1  0
 20 19  2  0
M  END
$$$$
