VSD.pdb
     RDKit          3D

 22 21  0  0  1  0  0  0  0  0999 V2000
   14.3451  -13.0973  -15.9905 C   0  0  0  0  0  0  0  0  0  0  0  0
   15.6922  -12.7004  -15.4299 C   0  0  2  0  0  0  0  0  0  0  0  0
   15.7873  -13.2074  -14.0150 C   0  0  0  0  0  0  0  0  0  0  0  0
   15.9622  -11.2328  -15.5409 C   0  0  2  0  0  0  0  0  0  0  0  0
   15.5364  -10.7856  -16.8488 N   0  0  0  0  0  0  0  0  0  0  0  0
   17.3568  -10.8527  -15.3192 C   0  0  0  0  0  0  0  0  0  0  0  0
   17.9802  -11.0581  -14.2344 O   0  0  0  0  0  0  0  0  0  0  0  0
   19.8439   -9.7004  -18.4663 O   0  0  0  0  0  0  0  0  0  0  0  0
   20.3974  -10.1962  -17.3062 C   0  0  0  0  0  0  0  0  0  0  0  0
   19.5097   -9.8325  -16.1482 C   0  0  2  0  0  0  0  0  0  0  0  0
   18.1386  -10.2037  -16.3402 N   0  0  0  0  0  0  0  0  0  0  0  0
   19.6843   -8.4027  -15.8127 C   0  0  0  0  0  0  0  0  0  0  0  0
   18.8228   -7.5713  -16.1903 O   0  0  0  0  0  0  0  0  0  0  0  0
   20.7946   -7.9211  -15.0746 N   0  0  0  0  0  0  0  0  0  0  0  0
   21.0743   -6.5500  -14.7902 C   0  0  1  0  0  0  0  0  0  0  0  0
   22.1295   -6.4439  -13.7224 C   0  0  0  0  0  0  0  0  0  0  0  0
   22.3394   -5.0481  -13.2816 C   0  0  0  0  0  0  0  0  0  0  0  0
   23.1566   -4.2917  -13.8640 O   0  0  0  0  0  0  0  0  0  0  0  0
   21.3811   -5.7528  -15.9958 C   0  0  0  0  0  0  0  0  0  0  0  0
   22.1440   -6.1595  -16.8832 O   0  0  0  0  0  0  0  0  0  0  0  0
   21.6029   -4.5901  -12.1968 O   0  0  0  0  0  0  0  0  0  0  0  0
   20.7889   -4.4949  -16.1393 O   0  0  0  0  0  0  0  0  0  0  0  0
  2  1  1  1
  2  3  1  0
  2  4  1  0
  4  6  1  0
  4  5  1  6
  6  7  2  0
  8  9  1  0
 10  9  1  6
 10 12  1  0
 11  6  1  0
 11 10  1  0
 12 13  2  0
 12 14  1  0
 14 15  1  0
 15 16  1  1
 16 17  1  0
 17 21  1  0
 18 17  2  0
 19 15  1  0
 19 22  1  0
 20 19  2  0
M  END
$$$$
