VSD.pdb
     RDKit          3D

 22 21  0  0  1  0  0  0  0  0999 V2000
   16.8470  -12.4814  -17.6217 C   0  0  0  0  0  0  0  0  0  0  0  0
   18.3020  -12.7219  -17.2877 C   0  0  2  0  0  0  0  0  0  0  0  0
   18.5002  -14.1969  -17.0572 C   0  0  0  0  0  0  0  0  0  0  0  0
   18.7857  -11.8850  -16.1455 C   0  0  2  0  0  0  0  0  0  0  0  0
   18.1611  -12.3611  -14.9310 N   0  0  0  0  0  0  0  0  0  0  0  0
   18.5418  -10.4509  -16.2964 C   0  0  0  0  0  0  0  0  0  0  0  0
   19.0076   -9.7522  -17.2464 O   0  0  0  0  0  0  0  0  0  0  0  0
   16.0884   -8.2414  -13.6070 O   0  0  0  0  0  0  0  0  0  0  0  0
   16.2362   -7.8212  -14.9106 C   0  0  0  0  0  0  0  0  0  0  0  0
   17.5674   -8.2928  -15.4271 C   0  0  2  0  0  0  0  0  0  0  0  0
   17.7372   -9.7143  -15.3558 N   0  0  0  0  0  0  0  0  0  0  0  0
   18.6562   -7.5423  -14.7647 C   0  0  0  0  0  0  0  0  0  0  0  0
   19.4927   -8.1611  -14.0623 O   0  0  0  0  0  0  0  0  0  0  0  0
   18.8009   -6.1376  -14.8879 N   0  0  0  0  0  0  0  0  0  0  0  0
   19.8436   -5.3535  -14.3074 C   0  0  1  0  0  0  0  0  0  0  0  0
   21.1887   -5.8823  -14.7270 C   0  0  0  0  0  0  0  0  0  0  0  0
   22.2935   -4.9926  -14.3092 C   0  0  0  0  0  0  0  0  0  0  0  0
   22.6370   -4.8940  -13.1045 O   0  0  0  0  0  0  0  0  0  0  0  0
   19.6865   -3.9035  -14.5437 C   0  0  0  0  0  0  0  0  0  0  0  0
   20.2450   -3.0522  -13.8378 O   0  0  0  0  0  0  0  0  0  0  0  0
   22.9481   -4.2617  -15.2921 O   0  0  0  0  0  0  0  0  0  0  0  0
   18.8785   -3.4778  -15.6018 O   0  0  0  0  0  0  0  0  0  0  0  0
  2  1  1  1
  2  3  1  0
  2  4  1  0
  4  6  1  0
  4  5  1  1
  6  7  2  0
  8  9  1  0
 10  9  1  1
 10 12  1  0
 11  6  1  0
 11 10  1  0
 12 13  2  0
 12 14  1  0
 14 15  1  0
 15 16  1  6
 16 17  1  0
 17 21  1  0
 18 17  2  0
 19 15  1  0
 19 22  1  0
 20 19  2  0
M  END
$$$$
