VSD.pdb
     RDKit          3D

 22 21  0  0  1  0  0  0  0  0999 V2000
   11.7638   -9.6236  -10.6426 C   0  0  0  0  0  0  0  0  0  0  0  0
   12.7041   -9.6732   -9.4594 C   0  0  2  0  0  0  0  0  0  0  0  0
   12.4792   -8.4428   -8.6205 C   0  0  0  0  0  0  0  0  0  0  0  0
   14.1354   -9.8519   -9.8572 C   0  0  2  0  0  0  0  0  0  0  0  0
   14.9040  -10.1708   -8.6742 N   0  0  0  0  0  0  0  0  0  0  0  0
   14.7270   -8.6983  -10.5339 C   0  0  0  0  0  0  0  0  0  0  0  0
   14.3983   -8.3183  -11.6980 O   0  0  0  0  0  0  0  0  0  0  0  0
   17.7534   -6.2903   -8.7441 O   0  0  0  0  0  0  0  0  0  0  0  0
   16.8223   -5.7105   -9.5777 C   0  0  0  0  0  0  0  0  0  0  0  0
   16.3243   -6.7460  -10.5477 C   0  0  2  0  0  0  0  0  0  0  0  0
   15.7476   -7.8941   -9.9121 N   0  0  0  0  0  0  0  0  0  0  0  0
   17.3953   -7.0888  -11.5083 C   0  0  0  0  0  0  0  0  0  0  0  0
   18.1261   -8.0852  -11.2870 O   0  0  0  0  0  0  0  0  0  0  0  0
   17.6382   -6.3340  -12.6833 N   0  0  0  0  0  0  0  0  0  0  0  0
   18.6412   -6.6135  -13.6605 C   0  0  1  0  0  0  0  0  0  0  0  0
   18.3717   -7.9394  -14.3195 C   0  0  0  0  0  0  0  0  0  0  0  0
   19.3169   -8.2171  -15.4223 C   0  0  0  0  0  0  0  0  0  0  0  0
   20.5528   -8.3168  -15.2180 O   0  0  0  0  0  0  0  0  0  0  0  0
   18.8421   -5.5121  -14.6248 C   0  0  0  0  0  0  0  0  0  0  0  0
   17.9393   -4.7168  -14.9205 O   0  0  0  0  0  0  0  0  0  0  0  0
   18.7985   -8.3664  -16.7021 O   0  0  0  0  0  0  0  0  0  0  0  0
   20.0958   -5.3630  -15.2242 O   0  0  0  0  0  0  0  0  0  0  0  0
  2  1  1  6
  2  3  1  0
  2  4  1  0
  4  6  1  0
  4  5  1  1
  6  7  2  0
  8  9  1  0
 10  9  1  1
 10 12  1  0
 11  6  1  0
 11 10  1  0
 12 13  2  0
 12 14  1  0
 14 15  1  0
 15 16  1  6
 16 17  1  0
 17 21  1  0
 18 17  2  0
 19 15  1  0
 19 22  1  0
 20 19  2  0
M  END
$$$$
