VSD.pdb
     RDKit          3D

 22 21  0  0  1  0  0  0  0  0999 V2000
   25.0686  -12.2615  -18.1811 C   0  0  0  0  0  0  0  0  0  0  0  0
   26.0339  -11.5695  -17.2452 C   0  0  2  0  0  0  0  0  0  0  0  0
   27.0061  -12.5934  -16.7214 C   0  0  0  0  0  0  0  0  0  0  0  0
   25.3472  -10.8087  -16.1549 C   0  0  2  0  0  0  0  0  0  0  0  0
   24.7268  -11.7558  -15.2551 N   0  0  0  0  0  0  0  0  0  0  0  0
   24.3509   -9.8447  -16.6206 C   0  0  0  0  0  0  0  0  0  0  0  0
   24.6247   -8.8423  -17.3470 O   0  0  0  0  0  0  0  0  0  0  0  0
   20.2489  -10.3600  -15.8398 O   0  0  0  0  0  0  0  0  0  0  0  0
   20.6169   -9.6148  -16.9385 C   0  0  0  0  0  0  0  0  0  0  0  0
   21.9710   -9.0112  -16.6870 C   0  0  2  0  0  0  0  0  0  0  0  0
   22.9570   -9.9686  -16.2794 N   0  0  0  0  0  0  0  0  0  0  0  0
   21.8458   -7.8710  -15.7534 C   0  0  0  0  0  0  0  0  0  0  0  0
   22.2029   -8.0109  -14.5581 O   0  0  0  0  0  0  0  0  0  0  0  0
   21.3341   -6.6103  -16.1513 N   0  0  0  0  0  0  0  0  0  0  0  0
   21.1604   -5.4759  -15.3015 C   0  0  1  0  0  0  0  0  0  0  0  0
   22.4368   -4.6824  -15.2239 C   0  0  0  0  0  0  0  0  0  0  0  0
   22.2844   -3.4581  -14.4087 C   0  0  0  0  0  0  0  0  0  0  0  0
   21.9838   -2.3553  -14.9305 O   0  0  0  0  0  0  0  0  0  0  0  0
   19.9831   -4.6555  -15.6537 C   0  0  0  0  0  0  0  0  0  0  0  0
   19.5805   -4.5395  -16.8196 O   0  0  0  0  0  0  0  0  0  0  0  0
   22.4839   -3.5597  -13.0379 O   0  0  0  0  0  0  0  0  0  0  0  0
   19.2998   -3.9866  -14.6342 O   0  0  0  0  0  0  0  0  0  0  0  0
  2  1  1  1
  2  3  1  0
  2  4  1  0
  4  6  1  0
  4  5  1  1
  6  7  2  0
  8  9  1  0
 10  9  1  1
 10 12  1  0
 11  6  1  0
 11 10  1  0
 12 13  2  0
 12 14  1  0
 14 15  1  0
 15 16  1  6
 16 17  1  0
 17 21  1  0
 18 17  2  0
 19 15  1  0
 19 22  1  0
 20 19  2  0
M  END
$$$$
