VSD.pdb
     RDKit          3D

 22 21  0  0  1  0  0  0  0  0999 V2000
   16.4201  -12.3557  -18.4176 C   0  0  0  0  0  0  0  0  0  0  0  0
   17.3100  -11.6699  -17.4056 C   0  0  2  0  0  0  0  0  0  0  0  0
   17.5520  -10.2562  -17.8647 C   0  0  0  0  0  0  0  0  0  0  0  0
   18.5774  -12.4193  -17.1387 C   0  0  2  0  0  0  0  0  0  0  0  0
   18.2382  -13.7127  -16.5875 N   0  0  0  0  0  0  0  0  0  0  0  0
   19.5134  -11.7335  -16.2485 C   0  0  0  0  0  0  0  0  0  0  0  0
   19.2483  -11.4269  -15.0471 O   0  0  0  0  0  0  0  0  0  0  0  0
   23.4215  -10.6662  -17.4801 O   0  0  0  0  0  0  0  0  0  0  0  0
   23.1630  -10.8024  -16.1338 C   0  0  0  0  0  0  0  0  0  0  0  0
   21.7037  -10.5355  -15.8879 C   0  0  2  0  0  0  0  0  0  0  0  0
   20.8319  -11.3495  -16.6830 N   0  0  0  0  0  0  0  0  0  0  0  0
   21.4299   -9.0881  -16.0196 C   0  0  0  0  0  0  0  0  0  0  0  0
   20.9101   -8.6528  -17.0761 O   0  0  0  0  0  0  0  0  0  0  0  0
   21.7315   -8.1570  -14.9942 N   0  0  0  0  0  0  0  0  0  0  0  0
   21.5548   -6.7423  -15.0752 C   0  0  1  0  0  0  0  0  0  0  0  0
   21.7386   -6.1156  -13.7194 C   0  0  0  0  0  0  0  0  0  0  0  0
   21.4284   -4.6698  -13.7260 C   0  0  0  0  0  0  0  0  0  0  0  0
   22.3384   -3.8032  -13.7338 O   0  0  0  0  0  0  0  0  0  0  0  0
   22.3760   -6.1090  -16.1277 C   0  0  0  0  0  0  0  0  0  0  0  0
   22.0331   -5.0635  -16.6971 O   0  0  0  0  0  0  0  0  0  0  0  0
   20.0923   -4.2905  -13.7234 O   0  0  0  0  0  0  0  0  0  0  0  0
   23.5829   -6.7118  -16.4932 O   0  0  0  0  0  0  0  0  0  0  0  0
  2  1  1  6
  2  3  1  0
  2  4  1  0
  4  6  1  0
  4  5  1  1
  6  7  2  0
  8  9  1  0
 10  9  1  6
 10 12  1  0
 11  6  1  0
 11 10  1  0
 12 13  2  0
 12 14  1  0
 14 15  1  0
 15 16  1  1
 16 17  1  0
 17 21  1  0
 18 17  2  0
 19 15  1  0
 19 22  1  0
 20 19  2  0
M  END
$$$$
