PGE.pdb
     RDKit          3D

 21 21  0  0  1  0  0  0  0  0999 V2000
   20.0430  -11.2152  -17.6345 N   0  0  0  0  0  0  0  0  0  0  0  0
   19.6359  -12.2261  -18.6395 C   0  0  0  0  0  0  0  0  0  0  0  0
   19.9844  -11.4081  -19.8925 C   0  0  0  0  0  0  0  0  0  0  0  0
   21.4136  -11.0330  -19.5708 C   0  0  0  0  0  0  0  0  0  0  0  0
   21.3224  -10.7578  -18.0665 C   0  0  1  0  0  0  0  0  0  0  0  0
   21.6291   -9.3514  -17.8527 C   0  0  0  0  0  0  0  0  0  0  0  0
   22.6410   -9.0963  -17.1149 O   0  0  0  0  0  0  0  0  0  0  0  0
   20.9124   -8.2472  -18.3843 N   0  0  0  0  0  0  0  0  0  0  0  0
   21.3933   -6.9294  -18.1592 C   0  0  0  0  0  0  0  0  0  0  0  0
   20.8549   -6.2589  -16.9542 C   0  0  0  0  0  0  0  0  0  0  0  0
   19.6035   -5.9709  -16.9032 O   0  0  0  0  0  0  0  0  0  0  0  0
   21.6108   -5.8933  -15.8170 N   0  0  0  0  0  0  0  0  0  0  0  0
   20.9656   -5.2326  -14.6652 C   0  0  1  0  0  0  0  0  0  0  0  0
   21.0132   -6.1287  -13.4780 C   0  0  0  0  0  0  0  0  0  0  0  0
   19.9626   -7.1889  -13.5142 C   0  0  0  0  0  0  0  0  0  0  0  0
   20.0223   -8.1252  -12.3751 C   0  0  0  0  0  0  0  0  0  0  0  0
   20.9307   -8.9341  -12.1822 O   0  0  0  0  0  0  0  0  0  0  0  0
   21.6992   -3.9673  -14.4399 C   0  0  0  0  0  0  0  0  0  0  0  0
   22.8446   -3.7863  -14.8871 O   0  0  0  0  0  0  0  0  0  0  0  0
   18.9678   -8.0750  -11.4655 O   0  0  0  0  0  0  0  0  0  0  0  0
   21.0995   -2.9413  -13.7069 O   0  0  0  0  0  0  0  0  0  0  0  0
  2  1  1  0
  3  4  1  0
  3  2  1  0
  4  5  1  0
  5  1  1  0
  6  8  1  0
  5  6  1  6
  7  6  2  0
  9 10  1  0
  9  8  1  0
 10 11  2  0
 12 13  1  0
 12 10  1  0
 13 14  1  1
 14 15  1  0
 16 15  1  0
 16 20  1  0
 17 16  2  0
 18 21  1  0
 18 13  1  0
 19 18  2  0
M  END
$$$$
