PGE.pdb
     RDKit          3D

 21 21  0  0  1  0  0  0  0  0999 V2000
   19.4924  -11.1544  -18.2939 N   0  0  0  0  0  0  0  0  0  0  0  0
   18.9525  -12.3759  -18.9374 C   0  0  0  0  0  0  0  0  0  0  0  0
   19.3594  -13.3715  -17.8402 C   0  0  0  0  0  0  0  0  0  0  0  0
   18.7568  -12.6900  -16.6321 C   0  0  0  0  0  0  0  0  0  0  0  0
   19.0413  -11.2171  -16.9429 C   0  0  1  0  0  0  0  0  0  0  0  0
   19.9451  -10.7137  -15.9196 C   0  0  0  0  0  0  0  0  0  0  0  0
   19.4795  -10.6514  -14.7310 O   0  0  0  0  0  0  0  0  0  0  0  0
   21.2849  -10.2890  -16.1200 N   0  0  0  0  0  0  0  0  0  0  0  0
   22.0378   -9.8094  -15.0148 C   0  0  0  0  0  0  0  0  0  0  0  0
   22.0733   -8.3368  -14.8675 C   0  0  0  0  0  0  0  0  0  0  0  0
   22.7653   -7.8182  -13.9169 O   0  0  0  0  0  0  0  0  0  0  0  0
   21.3964   -7.4166  -15.7001 N   0  0  0  0  0  0  0  0  0  0  0  0
   21.6291   -5.9652  -15.5627 C   0  0  1  0  0  0  0  0  0  0  0  0
   21.0610   -5.2499  -16.7376 C   0  0  0  0  0  0  0  0  0  0  0  0
   21.3289   -3.7815  -16.7027 C   0  0  0  0  0  0  0  0  0  0  0  0
   20.7982   -3.0517  -17.8702 C   0  0  0  0  0  0  0  0  0  0  0  0
   21.4914   -2.4631  -18.7007 O   0  0  0  0  0  0  0  0  0  0  0  0
   20.9876   -5.5536  -14.2942 C   0  0  0  0  0  0  0  0  0  0  0  0
   19.9325   -6.0753  -13.8951 O   0  0  0  0  0  0  0  0  0  0  0  0
   19.4135   -3.0393  -18.0264 O   0  0  0  0  0  0  0  0  0  0  0  0
   21.5734   -4.5534  -13.5157 O   0  0  0  0  0  0  0  0  0  0  0  0
  2  1  1  0
  3  4  1  0
  3  2  1  0
  4  5  1  0
  5  1  1  0
  6  8  1  0
  5  6  1  1
  7  6  2  0
  9 10  1  0
  9  8  1  0
 10 11  2  0
 12 13  1  0
 12 10  1  0
 13 14  1  6
 14 15  1  0
 16 15  1  0
 16 20  1  0
 17 16  2  0
 18 21  1  0
 18 13  1  0
 19 18  2  0
M  END
$$$$
