PGE.pdb
     RDKit          3D

 21 21  0  0  1  0  0  0  0  0999 V2000
   27.5097  -21.6652  -14.5930 N   0  0  0  0  0  0  0  0  0  0  0  0
   28.0417  -21.1743  -15.8866 C   0  0  0  0  0  0  0  0  0  0  0  0
   27.2106  -19.8844  -15.9634 C   0  0  0  0  0  0  0  0  0  0  0  0
   27.5307  -19.2861  -14.6120 C   0  0  0  0  0  0  0  0  0  0  0  0
   27.5459  -20.5349  -13.7247 C   0  0  1  0  0  0  0  0  0  0  0  0
   26.4643  -20.4072  -12.7594 C   0  0  0  0  0  0  0  0  0  0  0  0
   26.4244  -19.3182  -12.0917 O   0  0  0  0  0  0  0  0  0  0  0  0
   25.4590  -21.3740  -12.4945 N   0  0  0  0  0  0  0  0  0  0  0  0
   24.3441  -21.0187  -11.6888 C   0  0  0  0  0  0  0  0  0  0  0  0
   23.1551  -20.5434  -12.4318 C   0  0  0  0  0  0  0  0  0  0  0  0
   22.8271  -19.3028  -12.3627 O   0  0  0  0  0  0  0  0  0  0  0  0
   22.3190  -21.3506  -13.2365 N   0  0  0  0  0  0  0  0  0  0  0  0
   21.2195  -20.7505  -14.0178 C   0  0  1  0  0  0  0  0  0  0  0  0
   20.8387  -21.6592  -15.1331 C   0  0  0  0  0  0  0  0  0  0  0  0
   19.6760  -21.1504  -15.9193 C   0  0  0  0  0  0  0  0  0  0  0  0
   19.2391  -22.0625  -16.9939 C   0  0  0  0  0  0  0  0  0  0  0  0
   18.1935  -21.9397  -17.6327 O   0  0  0  0  0  0  0  0  0  0  0  0
   20.1030  -20.5280  -13.0723 C   0  0  0  0  0  0  0  0  0  0  0  0
   19.8867  -21.2993  -12.1220 O   0  0  0  0  0  0  0  0  0  0  0  0
   20.0824  -23.1314  -17.2914 O   0  0  0  0  0  0  0  0  0  0  0  0
   19.2626  -19.4258  -13.2414 O   0  0  0  0  0  0  0  0  0  0  0  0
  2  1  1  0
  3  4  1  0
  3  2  1  0
  4  5  1  0
  5  1  1  0
  6  8  1  0
  5  6  1  1
  7  6  2  0
  9 10  1  0
  9  8  1  0
 10 11  2  0
 12 13  1  0
 12 10  1  0
 13 14  1  6
 14 15  1  0
 16 15  1  0
 16 20  1  0
 17 16  2  0
 18 21  1  0
 18 13  1  0
 19 18  2  0
M  END
$$$$
