PGE.pdb
     RDKit          3D

 21 21  0  0  1  0  0  0  0  0999 V2000
   24.8679  -11.6670  -17.7137 N   0  0  0  0  0  0  0  0  0  0  0  0
   26.1674  -12.3776  -17.6501 C   0  0  0  0  0  0  0  0  0  0  0  0
   26.3930  -12.2383  -16.1367 C   0  0  0  0  0  0  0  0  0  0  0  0
   25.0798  -12.7864  -15.6249 C   0  0  0  0  0  0  0  0  0  0  0  0
   24.0941  -12.2139  -16.6485 C   0  0  1  0  0  0  0  0  0  0  0  0
   23.2010  -11.3054  -15.9452 C   0  0  0  0  0  0  0  0  0  0  0  0
   22.5074  -11.8103  -14.9979 O   0  0  0  0  0  0  0  0  0  0  0  0
   23.0317   -9.9216  -16.2137 N   0  0  0  0  0  0  0  0  0  0  0  0
   22.1071   -9.1687  -15.4411 C   0  0  0  0  0  0  0  0  0  0  0  0
   22.0487   -7.7241  -15.7593 C   0  0  0  0  0  0  0  0  0  0  0  0
   22.6929   -7.2800  -16.7788 O   0  0  0  0  0  0  0  0  0  0  0  0
   21.3284   -6.7549  -15.0244 N   0  0  0  0  0  0  0  0  0  0  0  0
   21.2917   -5.3476  -15.4691 C   0  0  1  0  0  0  0  0  0  0  0  0
   20.0519   -4.6931  -14.9698 C   0  0  0  0  0  0  0  0  0  0  0  0
   18.8237   -5.1787  -15.6659 C   0  0  0  0  0  0  0  0  0  0  0  0
   17.5787   -4.5493  -15.1849 C   0  0  0  0  0  0  0  0  0  0  0  0
   16.9588   -4.9036  -14.1816 O   0  0  0  0  0  0  0  0  0  0  0  0
   22.5150   -4.7058  -14.9386 C   0  0  0  0  0  0  0  0  0  0  0  0
   23.0387   -5.0753  -13.8737 O   0  0  0  0  0  0  0  0  0  0  0  0
   17.0862   -3.4810  -15.9322 O   0  0  0  0  0  0  0  0  0  0  0  0
   23.1065   -3.6557  -15.6437 O   0  0  0  0  0  0  0  0  0  0  0  0
  2  1  1  0
  3  4  1  0
  3  2  1  0
  4  5  1  0
  5  1  1  0
  6  8  1  0
  5  6  1  1
  7  6  2  0
  9 10  1  0
  9  8  1  0
 10 11  2  0
 12 13  1  0
 12 10  1  0
 13 14  1  1
 14 15  1  0
 16 15  1  0
 16 20  1  0
 17 16  2  0
 18 21  1  0
 18 13  1  0
 19 18  2  0
M  END
$$$$
