PGE.pdb
     RDKit          3D

 21 21  0  0  1  0  0  0  0  0999 V2000
   29.4186  -20.6601  -12.2877 N   0  0  0  0  0  0  0  0  0  0  0  0
   29.8457  -20.8944  -10.8876 C   0  0  0  0  0  0  0  0  0  0  0  0
   28.4525  -20.8252  -10.2436 C   0  0  0  0  0  0  0  0  0  0  0  0
   27.7164  -21.8275  -11.1042 C   0  0  0  0  0  0  0  0  0  0  0  0
   28.3066  -21.5299  -12.4863 C   0  0  1  0  0  0  0  0  0  0  0  0
   27.2287  -21.0428  -13.3340 C   0  0  0  0  0  0  0  0  0  0  0  0
   26.3464  -21.9002  -13.6802 O   0  0  0  0  0  0  0  0  0  0  0  0
   27.0701  -19.7138  -13.8074 N   0  0  0  0  0  0  0  0  0  0  0  0
   25.9783  -19.4028  -14.6616 C   0  0  0  0  0  0  0  0  0  0  0  0
   24.6435  -19.4553  -14.0233 C   0  0  0  0  0  0  0  0  0  0  0  0
   24.5494  -19.2906  -12.7522 O   0  0  0  0  0  0  0  0  0  0  0  0
   23.4229  -19.6765  -14.7009 N   0  0  0  0  0  0  0  0  0  0  0  0
   22.1357  -19.5752  -13.9849 C   0  0  1  0  0  0  0  0  0  0  0  0
   21.0632  -19.1638  -14.9310 C   0  0  0  0  0  0  0  0  0  0  0  0
   19.7119  -19.1440  -14.2966 C   0  0  0  0  0  0  0  0  0  0  0  0
   18.6079  -18.9372  -15.2537 C   0  0  0  0  0  0  0  0  0  0  0  0
   18.2039  -19.7867  -16.0486 O   0  0  0  0  0  0  0  0  0  0  0  0
   21.8774  -20.9062  -13.3919 C   0  0  0  0  0  0  0  0  0  0  0  0
   22.2438  -21.9540  -13.9509 O   0  0  0  0  0  0  0  0  0  0  0  0
   17.9928  -17.6869  -15.2418 O   0  0  0  0  0  0  0  0  0  0  0  0
   21.2048  -21.0010  -12.1719 O   0  0  0  0  0  0  0  0  0  0  0  0
  2  1  1  0
  3  4  1  0
  3  2  1  0
  4  5  1  0
  5  1  1  0
  6  8  1  0
  5  6  1  6
  7  6  2  0
  9 10  1  0
  9  8  1  0
 10 11  2  0
 12 13  1  0
 12 10  1  0
 13 14  1  6
 14 15  1  0
 16 15  1  0
 16 20  1  0
 17 16  2  0
 18 21  1  0
 18 13  1  0
 19 18  2  0
M  END
$$$$
