PGE.pdb
     RDKit          3D

 21 21  0  0  1  0  0  0  0  0999 V2000
   26.4335  -19.3019  -15.8953 N   0  0  0  0  0  0  0  0  0  0  0  0
   27.8113  -18.9463  -16.3109 C   0  0  0  0  0  0  0  0  0  0  0  0
   28.5480  -19.6172  -15.1414 C   0  0  0  0  0  0  0  0  0  0  0  0
   27.9509  -21.0045  -15.2175 C   0  0  0  0  0  0  0  0  0  0  0  0
   26.4926  -20.6872  -15.5633 C   0  0  1  0  0  0  0  0  0  0  0  0
   25.6649  -21.1377  -14.4543 C   0  0  0  0  0  0  0  0  0  0  0  0
   25.6250  -22.3988  -14.2508 O   0  0  0  0  0  0  0  0  0  0  0  0
   24.9045  -20.3108  -13.5862 N   0  0  0  0  0  0  0  0  0  0  0  0
   23.8559  -20.8837  -12.8177 C   0  0  0  0  0  0  0  0  0  0  0  0
   22.5090  -20.3248  -13.0732 C   0  0  0  0  0  0  0  0  0  0  0  0
   22.4006  -19.2254  -13.7297 O   0  0  0  0  0  0  0  0  0  0  0  0
   21.2911  -20.9043  -12.6501 N   0  0  0  0  0  0  0  0  0  0  0  0
   20.1362  -20.9815  -13.5665 C   0  0  1  0  0  0  0  0  0  0  0  0
   20.5073  -21.7564  -14.7816 C   0  0  0  0  0  0  0  0  0  0  0  0
   20.2779  -20.9931  -16.0440 C   0  0  0  0  0  0  0  0  0  0  0  0
   20.5305  -21.7774  -17.2681 C   0  0  0  0  0  0  0  0  0  0  0  0
   19.6598  -22.3541  -17.9208 O   0  0  0  0  0  0  0  0  0  0  0  0
   19.0387  -21.6226  -12.8085 C   0  0  0  0  0  0  0  0  0  0  0  0
   19.2452  -22.5761  -12.0384 O   0  0  0  0  0  0  0  0  0  0  0  0
   21.8532  -21.8593  -17.6993 O   0  0  0  0  0  0  0  0  0  0  0  0
   17.7317  -21.1533  -12.9536 O   0  0  0  0  0  0  0  0  0  0  0  0
  2  1  1  0
  3  4  1  0
  3  2  1  0
  4  5  1  0
  5  1  1  0
  6  8  1  0
  5  6  1  1
  7  6  2  0
  9 10  1  0
  9  8  1  0
 10 11  2  0
 12 13  1  0
 12 10  1  0
 13 14  1  6
 14 15  1  0
 16 15  1  0
 16 20  1  0
 17 16  2  0
 18 21  1  0
 18 13  1  0
 19 18  2  0
M  END
$$$$
