PGE.pdb
     RDKit          3D

 21 21  0  0  1  0  0  0  0  0999 V2000
   26.4451  -16.2142  -15.4508 N   0  0  0  0  0  0  0  0  0  0  0  0
   26.8286  -14.9357  -16.0958 C   0  0  0  0  0  0  0  0  0  0  0  0
   28.0614  -15.4584  -16.8491 C   0  0  0  0  0  0  0  0  0  0  0  0
   27.4484  -16.6406  -17.5656 C   0  0  0  0  0  0  0  0  0  0  0  0
   26.5008  -17.1860  -16.4925 C   0  0  1  0  0  0  0  0  0  0  0  0
   26.9597  -18.5187  -16.1303 C   0  0  0  0  0  0  0  0  0  0  0  0
   26.4897  -19.4879  -16.8181 O   0  0  0  0  0  0  0  0  0  0  0  0
   27.8736  -18.8368  -15.0914 N   0  0  0  0  0  0  0  0  0  0  0  0
   28.1349  -20.1992  -14.7848 C   0  0  0  0  0  0  0  0  0  0  0  0
   27.2588  -20.7916  -13.7489 C   0  0  0  0  0  0  0  0  0  0  0  0
   27.3796  -22.0389  -13.4640 O   0  0  0  0  0  0  0  0  0  0  0  0
   26.2697  -20.0933  -13.0195 N   0  0  0  0  0  0  0  0  0  0  0  0
   25.4111  -20.8003  -12.0487 C   0  0  1  0  0  0  0  0  0  0  0  0
   25.6253  -20.2423  -10.6858 C   0  0  0  0  0  0  0  0  0  0  0  0
   24.7259  -20.8561   -9.6643 C   0  0  0  0  0  0  0  0  0  0  0  0
   25.4058  -21.1944   -8.3990 C   0  0  0  0  0  0  0  0  0  0  0  0
   26.5325  -20.8082   -8.0861 O   0  0  0  0  0  0  0  0  0  0  0  0
   24.0168  -20.6235  -12.5121 C   0  0  0  0  0  0  0  0  0  0  0  0
   23.0920  -21.3401  -12.0926 O   0  0  0  0  0  0  0  0  0  0  0  0
   24.7076  -22.0089   -7.5096 O   0  0  0  0  0  0  0  0  0  0  0  0
   23.7190  -19.6286  -13.4454 O   0  0  0  0  0  0  0  0  0  0  0  0
  2  1  1  0
  3  4  1  0
  3  2  1  0
  4  5  1  0
  5  1  1  0
  6  8  1  0
  5  6  1  1
  7  6  2  0
  9 10  1  0
  9  8  1  0
 10 11  2  0
 12 13  1  0
 12 10  1  0
 13 14  1  1
 14 15  1  0
 16 15  1  0
 16 20  1  0
 17 16  2  0
 18 21  1  0
 18 13  1  0
 19 18  2  0
M  END
$$$$
