PGE.pdb
     RDKit          3D

 21 21  0  0  1  0  0  0  0  0999 V2000
   16.5888  -11.8033  -15.9465 N   0  0  0  0  0  0  0  0  0  0  0  0
   17.6380  -12.7736  -16.3405 C   0  0  0  0  0  0  0  0  0  0  0  0
   18.3146  -12.8991  -14.9668 C   0  0  0  0  0  0  0  0  0  0  0  0
   17.1109  -13.2244  -14.1111 C   0  0  0  0  0  0  0  0  0  0  0  0
   16.0437  -12.3189  -14.7342 C   0  0  1  0  0  0  0  0  0  0  0  0
   15.6390  -11.3505  -13.7262 C   0  0  0  0  0  0  0  0  0  0  0  0
   15.2066  -11.8269  -12.6218 O   0  0  0  0  0  0  0  0  0  0  0  0
   15.6803   -9.9375  -13.8572 N   0  0  0  0  0  0  0  0  0  0  0  0
   15.3889   -9.1232  -12.7300 C   0  0  0  0  0  0  0  0  0  0  0  0
   16.5644   -8.7067  -11.9323 C   0  0  0  0  0  0  0  0  0  0  0  0
   16.9860   -9.4723  -10.9902 O   0  0  0  0  0  0  0  0  0  0  0  0
   17.2909   -7.5079  -12.1140 N   0  0  0  0  0  0  0  0  0  0  0  0
   18.5160   -7.2447  -11.3333 C   0  0  1  0  0  0  0  0  0  0  0  0
   19.5758   -6.7012  -12.2256 C   0  0  0  0  0  0  0  0  0  0  0  0
   20.7670   -6.2094  -11.4718 C   0  0  0  0  0  0  0  0  0  0  0  0
   21.7992   -5.5922  -12.3269 C   0  0  0  0  0  0  0  0  0  0  0  0
   22.0415   -5.9319  -13.4856 O   0  0  0  0  0  0  0  0  0  0  0  0
   18.1395   -6.2901  -10.2671 C   0  0  0  0  0  0  0  0  0  0  0  0
   17.2158   -5.4721  -10.4174 O   0  0  0  0  0  0  0  0  0  0  0  0
   22.5410   -4.5545  -11.7657 O   0  0  0  0  0  0  0  0  0  0  0  0
   18.8327   -6.2982   -9.0551 O   0  0  0  0  0  0  0  0  0  0  0  0
  2  1  1  0
  3  4  1  0
  3  2  1  0
  4  5  1  0
  5  1  1  0
  6  8  1  0
  5  6  1  1
  7  6  2  0
  9 10  1  0
  9  8  1  0
 10 11  2  0
 12 13  1  0
 12 10  1  0
 13 14  1  6
 14 15  1  0
 16 15  1  0
 16 20  1  0
 17 16  2  0
 18 21  1  0
 18 13  1  0
 19 18  2  0
M  END
$$$$
