PGE.pdb
     RDKit          3D

 21 21  0  0  1  0  0  0  0  0999 V2000
   26.6267  -19.3942  -14.5749 N   0  0  0  0  0  0  0  0  0  0  0  0
   28.0040  -19.2600  -15.1063 C   0  0  0  0  0  0  0  0  0  0  0  0
   28.7096  -20.1103  -14.0388 C   0  0  0  0  0  0  0  0  0  0  0  0
   27.8721  -21.3674  -14.1100 C   0  0  0  0  0  0  0  0  0  0  0  0
   26.4684  -20.7847  -14.3027 C   0  0  1  0  0  0  0  0  0  0  0  0
   25.6742  -21.1446  -13.1376 C   0  0  0  0  0  0  0  0  0  0  0  0
   25.3051  -22.3655  -13.0568 O   0  0  0  0  0  0  0  0  0  0  0  0
   25.2756  -20.2704  -12.0924 N   0  0  0  0  0  0  0  0  0  0  0  0
   24.3412  -20.7226  -11.1226 C   0  0  0  0  0  0  0  0  0  0  0  0
   22.9177  -20.5741  -11.5011 C   0  0  0  0  0  0  0  0  0  0  0  0
   22.0081  -20.8020  -10.6224 O   0  0  0  0  0  0  0  0  0  0  0  0
   22.4483  -20.1930  -12.7789 N   0  0  0  0  0  0  0  0  0  0  0  0
   21.0082  -19.9716  -13.0163 C   0  0  1  0  0  0  0  0  0  0  0  0
   20.8130  -19.2670  -14.3125 C   0  0  0  0  0  0  0  0  0  0  0  0
   19.3811  -18.9409  -14.5810 C   0  0  0  0  0  0  0  0  0  0  0  0
   19.1507  -18.3089  -15.8944 C   0  0  0  0  0  0  0  0  0  0  0  0
   20.0321  -18.0767  -16.7225 O   0  0  0  0  0  0  0  0  0  0  0  0
   20.3688  -21.3062  -13.0040 C   0  0  0  0  0  0  0  0  0  0  0  0
   19.2222  -21.4784  -12.5566 O   0  0  0  0  0  0  0  0  0  0  0  0
   17.8372  -17.9575  -16.2001 O   0  0  0  0  0  0  0  0  0  0  0  0
   21.0618  -22.4097  -13.5057 O   0  0  0  0  0  0  0  0  0  0  0  0
  2  1  1  0
  3  4  1  0
  3  2  1  0
  4  5  1  0
  5  1  1  0
  6  8  1  0
  5  6  1  1
  7  6  2  0
  9 10  1  0
  9  8  1  0
 10 11  2  0
 12 13  1  0
 12 10  1  0
 13 14  1  6
 14 15  1  0
 16 15  1  0
 16 20  1  0
 17 16  2  0
 18 21  1  0
 18 13  1  0
 19 18  2  0
M  END
$$$$
