PGE.pdb
     RDKit          3D

 21 21  0  0  1  0  0  0  0  0999 V2000
   26.9312  -20.6110  -10.6216 N   0  0  0  0  0  0  0  0  0  0  0  0
   26.0744  -20.4240   -9.4265 C   0  0  0  0  0  0  0  0  0  0  0  0
   24.7549  -20.1654  -10.1698 C   0  0  0  0  0  0  0  0  0  0  0  0
   24.7245  -21.3749  -11.0771 C   0  0  0  0  0  0  0  0  0  0  0  0
   26.2012  -21.4983  -11.4657 C   0  0  1  0  0  0  0  0  0  0  0  0
   26.3027  -21.2798  -12.9008 C   0  0  0  0  0  0  0  0  0  0  0  0
   25.8928  -22.2301  -13.6507 O   0  0  0  0  0  0  0  0  0  0  0  0
   26.8115  -20.1174  -13.5377 N   0  0  0  0  0  0  0  0  0  0  0  0
   26.8398  -20.0548  -14.9567 C   0  0  0  0  0  0  0  0  0  0  0  0
   25.5135  -20.0019  -15.6122 C   0  0  0  0  0  0  0  0  0  0  0  0
   25.4468  -19.7733  -16.8751 O   0  0  0  0  0  0  0  0  0  0  0  0
   24.2728  -20.1848  -14.9600 N   0  0  0  0  0  0  0  0  0  0  0  0
   23.0268  -20.3261  -15.7392 C   0  0  1  0  0  0  0  0  0  0  0  0
   22.0648  -21.1882  -15.0001 C   0  0  0  0  0  0  0  0  0  0  0  0
   21.1256  -20.4023  -14.1462 C   0  0  0  0  0  0  0  0  0  0  0  0
   19.7598  -20.9588  -14.0955 C   0  0  0  0  0  0  0  0  0  0  0  0
   19.3789  -21.9358  -14.7413 O   0  0  0  0  0  0  0  0  0  0  0  0
   22.5036  -18.9579  -15.9494 C   0  0  0  0  0  0  0  0  0  0  0  0
   21.7080  -18.6955  -16.8675 O   0  0  0  0  0  0  0  0  0  0  0  0
   18.8526  -20.3201  -13.2523 O   0  0  0  0  0  0  0  0  0  0  0  0
   22.9069  -17.9252  -15.1006 O   0  0  0  0  0  0  0  0  0  0  0  0
  2  1  1  0
  3  4  1  0
  3  2  1  0
  4  5  1  0
  5  1  1  0
  6  8  1  0
  5  6  1  6
  7  6  2  0
  9 10  1  0
  9  8  1  0
 10 11  2  0
 12 13  1  0
 12 10  1  0
 13 14  1  1
 14 15  1  0
 16 15  1  0
 16 20  1  0
 17 16  2  0
 18 21  1  0
 18 13  1  0
 19 18  2  0
M  END
$$$$
