PGE.pdb
     RDKit          3D

 21 21  0  0  1  0  0  0  0  0999 V2000
   24.3077  -13.8931  -17.1252 N   0  0  0  0  0  0  0  0  0  0  0  0
   25.1061  -14.7083  -16.1789 C   0  0  0  0  0  0  0  0  0  0  0  0
   24.7332  -13.9442  -14.8992 C   0  0  0  0  0  0  0  0  0  0  0  0
   23.2251  -13.9719  -15.0080 C   0  0  0  0  0  0  0  0  0  0  0  0
   23.0269  -13.7626  -16.5126 C   0  0  1  0  0  0  0  0  0  0  0  0
   22.3309  -12.4980  -16.6973 C   0  0  0  0  0  0  0  0  0  0  0  0
   21.1500  -12.4236  -16.2143 O   0  0  0  0  0  0  0  0  0  0  0  0
   22.8400  -11.3501  -17.3597 N   0  0  0  0  0  0  0  0  0  0  0  0
   22.0547  -10.1672  -17.4091 C   0  0  0  0  0  0  0  0  0  0  0  0
   22.2940   -9.2052  -16.3096 C   0  0  0  0  0  0  0  0  0  0  0  0
   22.8584   -9.6145  -15.2300 O   0  0  0  0  0  0  0  0  0  0  0  0
   21.9496   -7.8345  -16.3349 N   0  0  0  0  0  0  0  0  0  0  0  0
   22.2280   -6.9671  -15.1731 C   0  0  1  0  0  0  0  0  0  0  0  0
   22.2715   -5.5437  -15.6053 C   0  0  0  0  0  0  0  0  0  0  0  0
   23.3817   -5.2665  -16.5642 C   0  0  0  0  0  0  0  0  0  0  0  0
   23.4341   -3.8657  -17.0252 C   0  0  0  0  0  0  0  0  0  0  0  0
   22.6103   -3.0004  -16.7267 O   0  0  0  0  0  0  0  0  0  0  0  0
   21.1509   -7.2201  -14.1904 C   0  0  0  0  0  0  0  0  0  0  0  0
   20.0661   -7.7264  -14.5243 O   0  0  0  0  0  0  0  0  0  0  0  0
   24.4978   -3.5176  -17.8557 O   0  0  0  0  0  0  0  0  0  0  0  0
   21.3460   -6.8854  -12.8489 O   0  0  0  0  0  0  0  0  0  0  0  0
  2  1  1  0
  3  4  1  0
  3  2  1  0
  4  5  1  0
  5  1  1  0
  6  8  1  0
  5  6  1  1
  7  6  2  0
  9 10  1  0
  9  8  1  0
 10 11  2  0
 12 13  1  0
 12 10  1  0
 13 14  1  6
 14 15  1  0
 16 15  1  0
 16 20  1  0
 17 16  2  0
 18 21  1  0
 18 13  1  0
 19 18  2  0
M  END
$$$$
