PGE.pdb
     RDKit          3D

 21 21  0  0  1  0  0  0  0  0999 V2000
   19.3624  -13.6328  -18.7095 N   0  0  0  0  0  0  0  0  0  0  0  0
   19.1652  -15.0778  -18.9751 C   0  0  0  0  0  0  0  0  0  0  0  0
   19.6294  -15.5941  -17.6045 C   0  0  0  0  0  0  0  0  0  0  0  0
   18.7580  -14.7527  -16.6992 C   0  0  0  0  0  0  0  0  0  0  0  0
   18.7723  -13.4071  -17.4315 C   0  0  1  0  0  0  0  0  0  0  0  0
   19.4231  -12.4363  -16.5643 C   0  0  0  0  0  0  0  0  0  0  0  0
   18.8360  -12.1786  -15.4587 O   0  0  0  0  0  0  0  0  0  0  0  0
   20.6396  -11.7556  -16.8329 N   0  0  0  0  0  0  0  0  0  0  0  0
   21.1729  -10.8690  -15.8593 C   0  0  0  0  0  0  0  0  0  0  0  0
   20.6914   -9.4719  -15.9477 C   0  0  0  0  0  0  0  0  0  0  0  0
   19.5482   -9.2355  -16.4851 O   0  0  0  0  0  0  0  0  0  0  0  0
   21.3922   -8.3360  -15.4822 N   0  0  0  0  0  0  0  0  0  0  0  0
   20.7940   -6.9900  -15.5812 C   0  0  1  0  0  0  0  0  0  0  0  0
   21.5009   -6.0551  -14.6641 C   0  0  0  0  0  0  0  0  0  0  0  0
   20.9224   -4.6789  -14.6864 C   0  0  0  0  0  0  0  0  0  0  0  0
   21.6590   -3.7100  -13.8521 C   0  0  0  0  0  0  0  0  0  0  0  0
   22.6061   -3.9969  -13.1190 O   0  0  0  0  0  0  0  0  0  0  0  0
   20.9123   -6.5792  -16.9979 C   0  0  0  0  0  0  0  0  0  0  0  0
   21.8612   -6.9502  -17.7098 O   0  0  0  0  0  0  0  0  0  0  0  0
   21.2383   -2.3827  -13.9118 O   0  0  0  0  0  0  0  0  0  0  0  0
   19.9385   -5.7527  -17.5621 O   0  0  0  0  0  0  0  0  0  0  0  0
  2  1  1  0
  3  4  1  0
  3  2  1  0
  4  5  1  0
  5  1  1  0
  6  8  1  0
  5  6  1  1
  7  6  2  0
  9 10  1  0
  9  8  1  0
 10 11  2  0
 12 13  1  0
 12 10  1  0
 13 14  1  1
 14 15  1  0
 16 15  1  0
 16 20  1  0
 17 16  2  0
 18 21  1  0
 18 13  1  0
 19 18  2  0
M  END
$$$$
