PGE.pdb
     RDKit          3D

 21 21  0  0  1  0  0  0  0  0999 V2000
   26.4434  -10.1212  -16.5719 N   0  0  0  0  0  0  0  0  0  0  0  0
   26.4245  -10.8865  -15.3025 C   0  0  0  0  0  0  0  0  0  0  0  0
   25.2093  -10.1894  -14.6716 C   0  0  0  0  0  0  0  0  0  0  0  0
   24.2066  -10.3460  -15.7927 C   0  0  0  0  0  0  0  0  0  0  0  0
   25.0909  -10.1180  -17.0228 C   0  0  1  0  0  0  0  0  0  0  0  0
   24.6193   -8.9149  -17.6920 C   0  0  0  0  0  0  0  0  0  0  0  0
   23.5111   -9.0119  -18.3212 O   0  0  0  0  0  0  0  0  0  0  0  0
   25.2730   -7.6547  -17.7095 N   0  0  0  0  0  0  0  0  0  0  0  0
   24.6752   -6.5680  -18.4023 C   0  0  0  0  0  0  0  0  0  0  0  0
   23.6427   -5.8274  -17.6427 C   0  0  0  0  0  0  0  0  0  0  0  0
   23.2565   -4.6774  -18.0668 O   0  0  0  0  0  0  0  0  0  0  0  0
   23.0209   -6.2794  -16.4565 N   0  0  0  0  0  0  0  0  0  0  0  0
   21.8279   -5.5923  -15.9234 C   0  0  1  0  0  0  0  0  0  0  0  0
   20.6564   -6.5091  -15.9663 C   0  0  0  0  0  0  0  0  0  0  0  0
   19.4181   -5.8878  -15.4100 C   0  0  0  0  0  0  0  0  0  0  0  0
   18.2514   -6.7913  -15.4004 C   0  0  0  0  0  0  0  0  0  0  0  0
   17.2565   -6.6406  -14.6904 O   0  0  0  0  0  0  0  0  0  0  0  0
   22.1622   -5.1771  -14.5429 C   0  0  0  0  0  0  0  0  0  0  0  0
   23.1818   -5.5897  -13.9642 O   0  0  0  0  0  0  0  0  0  0  0  0
   18.2980   -7.8858  -16.2618 O   0  0  0  0  0  0  0  0  0  0  0  0
   21.3177   -4.2986  -13.8612 O   0  0  0  0  0  0  0  0  0  0  0  0
  2  1  1  0
  3  4  1  0
  3  2  1  0
  4  5  1  0
  5  1  1  0
  6  8  1  0
  5  6  1  1
  7  6  2  0
  9 10  1  0
  9  8  1  0
 10 11  2  0
 12 13  1  0
 12 10  1  0
 13 14  1  1
 14 15  1  0
 16 15  1  0
 16 20  1  0
 17 16  2  0
 18 21  1  0
 18 13  1  0
 19 18  2  0
M  END
$$$$
