EYG.pdb
     RDKit          3D

 26 26  0  0  1  0  0  0  0  0999 V2000
    9.1489  -15.7539   18.9133 N   0  0  0  0  0  0  0  0  0  0  0  0
    8.0196  -15.7121   19.7841 C   0  0  1  0  0  0  0  0  0  0  0  0
    7.2572  -17.0238   19.6484 C   0  0  0  0  0  0  0  0  0  0  0  0
    8.1662  -18.0756   19.0633 C   0  0  0  0  0  0  0  0  0  0  0  0
    7.3782  -19.3433   18.9772 C   0  0  0  0  0  0  0  0  0  0  0  0
    7.9576  -20.3605   18.5357 O   0  0  0  0  0  0  0  0  0  0  0  0
    8.3759  -15.5177   21.2143 C   0  0  0  0  0  0  0  0  0  0  0  0
    9.4844  -15.9153   21.6638 O   0  0  0  0  0  0  0  0  0  0  0  0
    6.0638  -19.4268   19.3595 O   0  0  0  0  0  0  0  0  0  0  0  0
    7.8210  -11.7577   29.2354 O   0  0  0  0  0  0  0  0  0  0  0  0
    7.6086  -12.1525   27.9217 C   0  0  0  0  0  0  0  0  0  0  0  0
    8.6559  -12.5943   27.1579 C   0  0  0  0  0  0  0  0  0  0  0  0
    8.4462  -12.9901   25.8427 C   0  0  0  0  0  0  0  0  0  0  0  0
    7.1979  -12.9559   25.2598 C   0  0  0  0  0  0  0  0  0  0  0  0
    7.0366  -13.3853   23.8658 C   0  0  0  0  0  0  0  0  0  0  0  0
    7.8194  -14.6030   23.4901 C   0  0  2  0  0  0  0  0  0  0  0  0
    7.4828  -14.8877   22.0835 N   0  0  0  0  0  0  0  0  0  0  0  0
    7.4786  -15.8080   24.2697 C   0  0  0  0  0  0  0  0  0  0  0  0
    6.3271  -16.2973   24.1718 O   0  0  0  0  0  0  0  0  0  0  0  0
    6.1577  -12.5084   26.0450 C   0  0  0  0  0  0  0  0  0  0  0  0
    6.3527  -12.1096   27.3613 C   0  0  0  0  0  0  0  0  0  0  0  0
    8.4101  -16.4215   25.1189 N   0  0  0  0  0  0  0  0  0  0  0  0
    9.5198  -17.2202   24.6771 C   0  0  0  0  0  0  0  0  0  0  0  0
   10.3146  -17.7761   25.7726 C   0  0  0  0  0  0  0  0  0  0  0  0
    9.9905  -17.5290   27.0909 O   0  0  0  0  0  0  0  0  0  0  0  0
   11.3093  -18.4905   25.5198 O   0  0  0  0  0  0  0  0  0  0  0  0
  2  1  1  6
  2  7  1  0
  3  4  1  0
  3  2  1  0
  4  5  1  0
  5  6  2  0
  7  8  2  0
  9  5  1  0
 10 11  1  0
 11 21  2  0
 12 11  1  0
 12 13  2  0
 13 14  1  0
 14 20  2  0
 14 15  1  0
 16 15  1  1
 16 18  1  0
 17 16  1  0
 17  7  1  0
 18 19  2  0
 18 22  1  0
 21 20  1  0
 22 23  1  0
 24 25  1  0
 24 23  1  0
 26 24  2  0
M  END
$$$$
