EYG.pdb
     RDKit          3D

 26 26  0  0  1  0  0  0  0  0999 V2000
    8.0659  -17.8887   19.5947 N   0  0  0  0  0  0  0  0  0  0  0  0
    9.3790  -17.3490   19.7357 C   0  0  1  0  0  0  0  0  0  0  0  0
    9.7192  -16.5714   18.4709 C   0  0  0  0  0  0  0  0  0  0  0  0
   10.9460  -17.1686   17.8281 C   0  0  0  0  0  0  0  0  0  0  0  0
   10.5318  -17.7014   16.4940 C   0  0  0  0  0  0  0  0  0  0  0  0
   10.6415  -16.9437   15.5045 O   0  0  0  0  0  0  0  0  0  0  0  0
    9.5289  -16.4416   20.9038 C   0  0  0  0  0  0  0  0  0  0  0  0
   10.6632  -16.0128   21.2475 O   0  0  0  0  0  0  0  0  0  0  0  0
   10.0439  -18.9714   16.3219 O   0  0  0  0  0  0  0  0  0  0  0  0
    6.6276  -11.6344   27.8534 O   0  0  0  0  0  0  0  0  0  0  0  0
    6.8083  -12.3011   26.6494 C   0  0  0  0  0  0  0  0  0  0  0  0
    6.1272  -13.4620   26.3965 C   0  0  0  0  0  0  0  0  0  0  0  0
    6.3061  -14.1314   25.1922 C   0  0  0  0  0  0  0  0  0  0  0  0
    7.1612  -13.6650   24.2172 C   0  0  0  0  0  0  0  0  0  0  0  0
    7.3108  -14.4150   22.9648 C   0  0  0  0  0  0  0  0  0  0  0  0
    8.5183  -15.2952   22.9013 C   0  0  2  0  0  0  0  0  0  0  0  0
    8.4086  -16.0495   21.6396 N   0  0  0  0  0  0  0  0  0  0  0  0
    8.6057  -16.2849   23.9916 C   0  0  0  0  0  0  0  0  0  0  0  0
    7.7329  -17.1826   24.0775 O   0  0  0  0  0  0  0  0  0  0  0  0
    7.8368  -12.4956   24.4911 C   0  0  0  0  0  0  0  0  0  0  0  0
    7.6677  -11.8159   25.6907 C   0  0  0  0  0  0  0  0  0  0  0  0
    9.6410  -16.2481   24.9361 N   0  0  0  0  0  0  0  0  0  0  0  0
    9.7717  -17.1534   26.0441 C   0  0  0  0  0  0  0  0  0  0  0  0
   10.9337  -16.8801   26.8902 C   0  0  0  0  0  0  0  0  0  0  0  0
   11.1627  -17.5962   28.0472 O   0  0  0  0  0  0  0  0  0  0  0  0
   11.7415  -15.9818   26.5671 O   0  0  0  0  0  0  0  0  0  0  0  0
  2  1  1  6
  2  7  1  0
  3  4  1  0
  3  2  1  0
  4  5  1  0
  5  6  2  0
  7  8  2  0
  9  5  1  0
 10 11  1  0
 11 21  2  0
 12 11  1  0
 12 13  2  0
 13 14  1  0
 14 20  2  0
 14 15  1  0
 16 15  1  1
 16 18  1  0
 17 16  1  0
 17  7  1  0
 18 19  2  0
 18 22  1  0
 21 20  1  0
 22 23  1  0
 24 25  1  0
 24 23  1  0
 26 24  2  0
M  END
$$$$
