EYG.pdb
     RDKit          3D

 26 26  0  0  1  0  0  0  0  0999 V2000
    7.9763  -15.0805   18.4019 N   0  0  0  0  0  0  0  0  0  0  0  0
    7.9048  -15.9374   19.5402 C   0  0  1  0  0  0  0  0  0  0  0  0
    8.5167  -17.2825   19.1705 C   0  0  0  0  0  0  0  0  0  0  0  0
    7.8934  -17.7840   17.8919 C   0  0  0  0  0  0  0  0  0  0  0  0
    8.4414  -19.1520   17.6392 C   0  0  0  0  0  0  0  0  0  0  0  0
    8.0812  -19.7402   16.5954 O   0  0  0  0  0  0  0  0  0  0  0  0
    8.6158  -15.4059   20.7328 C   0  0  0  0  0  0  0  0  0  0  0  0
    9.5331  -14.5503   20.6099 O   0  0  0  0  0  0  0  0  0  0  0  0
    9.3109  -19.7728   18.4990 O   0  0  0  0  0  0  0  0  0  0  0  0
    6.6843  -10.9769   27.9040 O   0  0  0  0  0  0  0  0  0  0  0  0
    6.7796  -11.9282   26.8976 C   0  0  0  0  0  0  0  0  0  0  0  0
    7.2274  -13.1903   27.1837 C   0  0  0  0  0  0  0  0  0  0  0  0
    7.3238  -14.1445   26.1784 C   0  0  0  0  0  0  0  0  0  0  0  0
    6.9793  -13.8676   24.8731 C   0  0  0  0  0  0  0  0  0  0  0  0
    7.1027  -14.9151   23.8527 C   0  0  0  0  0  0  0  0  0  0  0  0
    8.4503  -15.0096   23.2109 C   0  0  2  0  0  0  0  0  0  0  0  0
    8.2743  -15.8493   22.0122 N   0  0  0  0  0  0  0  0  0  0  0  0
    9.4769  -15.6589   24.0478 C   0  0  0  0  0  0  0  0  0  0  0  0
    9.7775  -15.1510   25.1554 O   0  0  0  0  0  0  0  0  0  0  0  0
    6.5310  -12.5921   24.6061 C   0  0  0  0  0  0  0  0  0  0  0  0
    6.4296  -11.6282   25.6012 C   0  0  0  0  0  0  0  0  0  0  0  0
   10.1266  -16.8311   23.6366 N   0  0  0  0  0  0  0  0  0  0  0  0
   11.3728  -17.3072   24.1700 C   0  0  0  0  0  0  0  0  0  0  0  0
   11.8508  -18.5357   23.5351 C   0  0  0  0  0  0  0  0  0  0  0  0
   12.9466  -19.2165   24.0246 O   0  0  0  0  0  0  0  0  0  0  0  0
   11.2615  -18.9859   22.5281 O   0  0  0  0  0  0  0  0  0  0  0  0
  2  1  1  6
  2  7  1  0
  3  4  1  0
  3  2  1  0
  4  5  1  0
  5  6  2  0
  7  8  2  0
  9  5  1  0
 10 11  1  0
 11 21  2  0
 12 11  1  0
 12 13  2  0
 13 14  1  0
 14 20  2  0
 14 15  1  0
 16 15  1  1
 16 18  1  0
 17 16  1  0
 17  7  1  0
 18 19  2  0
 18 22  1  0
 21 20  1  0
 22 23  1  0
 24 25  1  0
 24 23  1  0
 26 24  2  0
M  END
$$$$
