EYG.pdb
     RDKit          3D

 26 26  0  0  1  0  0  0  0  0999 V2000
    9.7239  -16.7160   18.9209 N   0  0  0  0  0  0  0  0  0  0  0  0
    9.2693  -17.3966   20.0895 C   0  0  1  0  0  0  0  0  0  0  0  0
   10.0675  -18.6853   20.2383 C   0  0  0  0  0  0  0  0  0  0  0  0
    9.9136  -19.5190   18.9909 C   0  0  0  0  0  0  0  0  0  0  0  0
   10.7030  -20.7721   19.1959 C   0  0  0  0  0  0  0  0  0  0  0  0
   11.2490  -20.9412   20.3089 O   0  0  0  0  0  0  0  0  0  0  0  0
    9.4159  -16.6022   21.3376 C   0  0  0  0  0  0  0  0  0  0  0  0
   10.5087  -16.0424   21.6224 O   0  0  0  0  0  0  0  0  0  0  0  0
   10.8462  -21.7261   18.2211 O   0  0  0  0  0  0  0  0  0  0  0  0
    6.6085  -11.2789   27.8246 O   0  0  0  0  0  0  0  0  0  0  0  0
    6.7843  -12.0945   26.7153 C   0  0  0  0  0  0  0  0  0  0  0  0
    6.0596  -13.2495   26.5886 C   0  0  0  0  0  0  0  0  0  0  0  0
    6.2334  -14.0679   25.4792 C   0  0  0  0  0  0  0  0  0  0  0  0
    7.1265  -13.7586   24.4762 C   0  0  0  0  0  0  0  0  0  0  0  0
    7.2686  -14.6615   23.3281 C   0  0  0  0  0  0  0  0  0  0  0  0
    8.4094  -15.6238   23.4245 C   0  0  2  0  0  0  0  0  0  0  0  0
    8.3388  -16.4643   22.2155 N   0  0  0  0  0  0  0  0  0  0  0  0
    8.3426  -16.5298   24.5866 C   0  0  0  0  0  0  0  0  0  0  0  0
    7.3010  -17.2020   24.7821 O   0  0  0  0  0  0  0  0  0  0  0  0
    7.8457  -12.5924   24.6226 C   0  0  0  0  0  0  0  0  0  0  0  0
    7.6822  -11.7648   25.7263 C   0  0  0  0  0  0  0  0  0  0  0  0
    9.4151  -16.6593   25.4800 N   0  0  0  0  0  0  0  0  0  0  0  0
    9.3866  -17.4385   26.6869 C   0  0  0  0  0  0  0  0  0  0  0  0
   10.6282  -17.3703   27.4579 C   0  0  0  0  0  0  0  0  0  0  0  0
   10.7780  -18.0673   28.6393 O   0  0  0  0  0  0  0  0  0  0  0  0
   11.5786  -16.6691   27.0466 O   0  0  0  0  0  0  0  0  0  0  0  0
  2  1  1  6
  2  7  1  0
  3  4  1  0
  3  2  1  0
  4  5  1  0
  5  6  2  0
  7  8  2  0
  9  5  1  0
 10 11  1  0
 11 21  2  0
 12 11  1  0
 12 13  2  0
 13 14  1  0
 14 20  2  0
 14 15  1  0
 16 15  1  1
 16 18  1  0
 17 16  1  0
 17  7  1  0
 18 19  2  0
 18 22  1  0
 21 20  1  0
 22 23  1  0
 24 25  1  0
 24 23  1  0
 26 24  2  0
M  END
$$$$
