EYG.pdb
     RDKit          3D

 26 26  0  0  1  0  0  0  0  0999 V2000
    8.2232  -18.2642   20.1111 N   0  0  0  0  0  0  0  0  0  0  0  0
    9.4918  -17.7128   20.4601 C   0  0  1  0  0  0  0  0  0  0  0  0
   10.0677  -17.0146   19.2350 C   0  0  0  0  0  0  0  0  0  0  0  0
    9.5343  -17.6699   17.9856 C   0  0  0  0  0  0  0  0  0  0  0  0
   10.1604  -16.9747   16.8194 C   0  0  0  0  0  0  0  0  0  0  0  0
   11.4073  -17.0085   16.7219 O   0  0  0  0  0  0  0  0  0  0  0  0
    9.4299  -16.7338   21.5773 C   0  0  0  0  0  0  0  0  0  0  0  0
   10.4559  -16.0940   21.9333 O   0  0  0  0  0  0  0  0  0  0  0  0
    9.4260  -16.3126   15.8692 O   0  0  0  0  0  0  0  0  0  0  0  0
    6.2560  -11.3157   27.7705 O   0  0  0  0  0  0  0  0  0  0  0  0
    6.5005  -12.1155   26.6627 C   0  0  0  0  0  0  0  0  0  0  0  0
    5.7658  -13.2533   26.4598 C   0  0  0  0  0  0  0  0  0  0  0  0
    6.0083  -14.0559   25.3518 C   0  0  0  0  0  0  0  0  0  0  0  0
    6.9810  -13.7477   24.4254 C   0  0  0  0  0  0  0  0  0  0  0  0
    7.1932  -14.6335   23.2749 C   0  0  0  0  0  0  0  0  0  0  0  0
    8.1603  -15.7493   23.5124 C   0  0  2  0  0  0  0  0  0  0  0  0
    8.2273  -16.5081   22.2504 N   0  0  0  0  0  0  0  0  0  0  0  0
    7.7479  -16.6960   24.5658 C   0  0  0  0  0  0  0  0  0  0  0  0
    6.6047  -17.2114   24.5149 O   0  0  0  0  0  0  0  0  0  0  0  0
    7.7089  -12.5989   24.6478 C   0  0  0  0  0  0  0  0  0  0  0  0
    7.4773  -11.7872   25.7510 C   0  0  0  0  0  0  0  0  0  0  0  0
    8.6020  -17.0350   25.6245 N   0  0  0  0  0  0  0  0  0  0  0  0
   10.0296  -17.1580   25.5182 C   0  0  0  0  0  0  0  0  0  0  0  0
   10.6701  -17.6299   26.7462 C   0  0  0  0  0  0  0  0  0  0  0  0
   12.0376  -17.7962   26.8235 O   0  0  0  0  0  0  0  0  0  0  0  0
    9.9731  -17.8906   27.7513 O   0  0  0  0  0  0  0  0  0  0  0  0
  2  1  1  6
  2  7  1  0
  3  4  1  0
  3  2  1  0
  4  5  1  0
  5  6  2  0
  7  8  2  0
  9  5  1  0
 10 11  1  0
 11 21  2  0
 12 11  1  0
 12 13  2  0
 13 14  1  0
 14 20  2  0
 14 15  1  0
 16 15  1  6
 16 18  1  0
 17 16  1  0
 17  7  1  0
 18 19  2  0
 18 22  1  0
 21 20  1  0
 22 23  1  0
 24 25  1  0
 24 23  1  0
 26 24  2  0
M  END
$$$$
