EYG.pdb
     RDKit          3D

 26 26  0  0  1  0  0  0  0  0999 V2000
    9.5417  -16.0257   18.2326 N   0  0  0  0  0  0  0  0  0  0  0  0
    8.9620  -16.5920   19.4067 C   0  0  1  0  0  0  0  0  0  0  0  0
    9.5400  -17.9873   19.6051 C   0  0  0  0  0  0  0  0  0  0  0  0
    9.0837  -18.8850   18.4823 C   0  0  0  0  0  0  0  0  0  0  0  0
    9.6069  -20.2555   18.7708 C   0  0  0  0  0  0  0  0  0  0  0  0
   10.3591  -20.7827   17.9212 O   0  0  0  0  0  0  0  0  0  0  0  0
    9.2111  -15.7971   20.6381 C   0  0  0  0  0  0  0  0  0  0  0  0
   10.3037  -15.1915   20.8062 O   0  0  0  0  0  0  0  0  0  0  0  0
    9.2952  -20.9423   19.9161 O   0  0  0  0  0  0  0  0  0  0  0  0
    6.7420  -11.4513   28.0220 O   0  0  0  0  0  0  0  0  0  0  0  0
    6.8320  -12.1351   26.8175 C   0  0  0  0  0  0  0  0  0  0  0  0
    7.2735  -11.4917   25.6921 C   0  0  0  0  0  0  0  0  0  0  0  0
    7.3646  -12.1737   24.4850 C   0  0  0  0  0  0  0  0  0  0  0  0
    7.0210  -13.5033   24.3695 C   0  0  0  0  0  0  0  0  0  0  0  0
    7.1367  -14.1718   23.0683 C   0  0  0  0  0  0  0  0  0  0  0  0
    8.4195  -14.9104   22.8545 C   0  0  2  0  0  0  0  0  0  0  0  0
    8.2322  -15.7095   21.6301 N   0  0  0  0  0  0  0  0  0  0  0  0
    8.7660  -15.8507   23.9369 C   0  0  0  0  0  0  0  0  0  0  0  0
    8.1014  -16.9071   24.0687 O   0  0  0  0  0  0  0  0  0  0  0  0
    6.5793  -14.1324   25.5133 C   0  0  0  0  0  0  0  0  0  0  0  0
    6.4832  -13.4630   26.7267 C   0  0  0  0  0  0  0  0  0  0  0  0
    9.8208  -15.5938   24.8239 N   0  0  0  0  0  0  0  0  0  0  0  0
   10.1055  -16.3638   26.0031 C   0  0  0  0  0  0  0  0  0  0  0  0
   11.1075  -17.4090   25.7925 C   0  0  0  0  0  0  0  0  0  0  0  0
   11.6502  -17.6414   24.5454 O   0  0  0  0  0  0  0  0  0  0  0  0
   11.4864  -18.1112   26.7555 O   0  0  0  0  0  0  0  0  0  0  0  0
  2  1  1  6
  2  7  1  0
  3  4  1  0
  3  2  1  0
  4  5  1  0
  5  6  2  0
  7  8  2  0
  9  5  1  0
 10 11  1  0
 11 21  2  0
 12 11  1  0
 12 13  2  0
 13 14  1  0
 14 20  2  0
 14 15  1  0
 16 15  1  1
 16 18  1  0
 17 16  1  0
 17  7  1  0
 18 19  2  0
 18 22  1  0
 21 20  1  0
 22 23  1  0
 24 25  1  0
 24 23  1  0
 26 24  2  0
M  END
$$$$
