EYG.pdb
     RDKit          3D

 26 26  0  0  1  0  0  0  0  0999 V2000
    9.0919  -18.5274   20.3615 N   0  0  0  0  0  0  0  0  0  0  0  0
   10.0602  -17.5073   20.1228 C   0  0  1  0  0  0  0  0  0  0  0  0
    9.8768  -16.9914   18.7014 C   0  0  0  0  0  0  0  0  0  0  0  0
    9.3875  -18.1123   17.8188 C   0  0  0  0  0  0  0  0  0  0  0  0
    9.3663  -17.5943   16.4164 C   0  0  0  0  0  0  0  0  0  0  0  0
    8.2511  -17.3781   15.8920 O   0  0  0  0  0  0  0  0  0  0  0  0
    9.9594  -16.3578   21.0602 C   0  0  0  0  0  0  0  0  0  0  0  0
   10.6914  -15.3417   20.9176 O   0  0  0  0  0  0  0  0  0  0  0  0
   10.5091  -17.3524   15.6980 O   0  0  0  0  0  0  0  0  0  0  0  0
    6.1892  -11.1119   27.1607 O   0  0  0  0  0  0  0  0  0  0  0  0
    6.5101  -12.0808   26.2200 C   0  0  0  0  0  0  0  0  0  0  0  0
    6.4126  -13.4090   26.5392 C   0  0  0  0  0  0  0  0  0  0  0  0
    6.7331  -14.3810   25.5995 C   0  0  0  0  0  0  0  0  0  0  0  0
    7.1556  -14.0570   24.3284 C   0  0  0  0  0  0  0  0  0  0  0  0
    7.4815  -15.1266   23.3780 C   0  0  0  0  0  0  0  0  0  0  0  0
    8.9413  -15.2947   23.0995 C   0  0  2  0  0  0  0  0  0  0  0  0
    9.0468  -16.3883   22.1168 N   0  0  0  0  0  0  0  0  0  0  0  0
    9.7417  -15.6890   24.2741 C   0  0  0  0  0  0  0  0  0  0  0  0
    9.9588  -14.8476   25.1797 O   0  0  0  0  0  0  0  0  0  0  0  0
    7.2470  -12.7154   24.0272 C   0  0  0  0  0  0  0  0  0  0  0  0
    6.9297  -11.7329   24.9566 C   0  0  0  0  0  0  0  0  0  0  0  0
   10.2672  -16.9820   24.4048 N   0  0  0  0  0  0  0  0  0  0  0  0
   11.1034  -17.4210   25.4876 C   0  0  0  0  0  0  0  0  0  0  0  0
   10.3548  -17.8477   26.6701 C   0  0  0  0  0  0  0  0  0  0  0  0
   11.0002  -18.2996   27.8029 O   0  0  0  0  0  0  0  0  0  0  0  0
    9.1050  -17.8060   26.6642 O   0  0  0  0  0  0  0  0  0  0  0  0
  2  1  1  1
  2  7  1  0
  3  4  1  0
  3  2  1  0
  4  5  1  0
  5  6  2  0
  7  8  2  0
  9  5  1  0
 10 11  1  0
 11 21  2  0
 12 11  1  0
 12 13  2  0
 13 14  1  0
 14 20  2  0
 14 15  1  0
 16 15  1  1
 16 18  1  0
 17 16  1  0
 17  7  1  0
 18 19  2  0
 18 22  1  0
 21 20  1  0
 22 23  1  0
 24 25  1  0
 24 23  1  0
 26 24  2  0
M  END
$$$$
