EYG.pdb
     RDKit          3D

 26 26  0  0  1  0  0  0  0  0999 V2000
    7.7466  -17.0167   18.8437 N   0  0  0  0  0  0  0  0  0  0  0  0
    8.0202  -17.5353   20.1443 C   0  0  1  0  0  0  0  0  0  0  0  0
    9.0461  -18.6534   20.0117 C   0  0  0  0  0  0  0  0  0  0  0  0
   10.4107  -18.1305   20.3848 C   0  0  0  0  0  0  0  0  0  0  0  0
   11.3578  -19.2862   20.3296 C   0  0  0  0  0  0  0  0  0  0  0  0
   12.3365  -19.2751   21.1090 O   0  0  0  0  0  0  0  0  0  0  0  0
    8.5475  -16.5192   21.0929 C   0  0  0  0  0  0  0  0  0  0  0  0
    9.4230  -15.6885   20.7292 O   0  0  0  0  0  0  0  0  0  0  0  0
   11.1922  -20.3399   19.4677 O   0  0  0  0  0  0  0  0  0  0  0  0
    6.6874  -10.8227   27.6590 O   0  0  0  0  0  0  0  0  0  0  0  0
    6.7917  -11.9244   26.8211 C   0  0  0  0  0  0  0  0  0  0  0  0
    5.9929  -12.0245   25.7133 C   0  0  0  0  0  0  0  0  0  0  0  0
    6.0951  -13.1261   24.8727 C   0  0  0  0  0  0  0  0  0  0  0  0
    6.9885  -14.1476   25.1126 C   0  0  0  0  0  0  0  0  0  0  0  0
    7.0515  -15.2873   24.1903 C   0  0  0  0  0  0  0  0  0  0  0  0
    8.2144  -15.2695   23.2500 C   0  0  2  0  0  0  0  0  0  0  0  0
    8.0769  -16.4708   22.4068 N   0  0  0  0  0  0  0  0  0  0  0  0
    9.5306  -15.3523   23.9108 C   0  0  0  0  0  0  0  0  0  0  0  0
   10.1391  -14.2941   24.2020 O   0  0  0  0  0  0  0  0  0  0  0  0
    7.7830  -14.0278   26.2322 C   0  0  0  0  0  0  0  0  0  0  0  0
    7.6916  -12.9322   27.0812 C   0  0  0  0  0  0  0  0  0  0  0  0
   10.1201  -16.5855   24.2222 N   0  0  0  0  0  0  0  0  0  0  0  0
   11.3240  -16.7474   24.9897 C   0  0  0  0  0  0  0  0  0  0  0  0
   11.7296  -18.1434   25.1559 C   0  0  0  0  0  0  0  0  0  0  0  0
   10.8326  -19.1063   25.5709 O   0  0  0  0  0  0  0  0  0  0  0  0
   12.9104  -18.4808   24.9197 O   0  0  0  0  0  0  0  0  0  0  0  0
  2  1  1  6
  2  7  1  0
  3  4  1  0
  3  2  1  0
  4  5  1  0
  5  6  2  0
  7  8  2  0
  9  5  1  0
 10 11  1  0
 11 21  2  0
 12 11  1  0
 12 13  2  0
 13 14  1  0
 14 20  2  0
 14 15  1  0
 16 15  1  1
 16 18  1  0
 17 16  1  0
 17  7  1  0
 18 19  2  0
 18 22  1  0
 21 20  1  0
 22 23  1  0
 24 25  1  0
 24 23  1  0
 26 24  2  0
M  END
$$$$
