EYG.pdb
     RDKit          3D

 26 26  0  0  1  0  0  0  0  0999 V2000
    9.6711  -18.6640   21.7776 N   0  0  0  0  0  0  0  0  0  0  0  0
   10.6472  -17.6253   21.8384 C   0  0  1  0  0  0  0  0  0  0  0  0
   10.6831  -16.9177   20.4900 C   0  0  0  0  0  0  0  0  0  0  0  0
   10.2004  -17.8591   19.4151 C   0  0  0  0  0  0  0  0  0  0  0  0
   10.2289  -17.1074   18.1230 C   0  0  0  0  0  0  0  0  0  0  0  0
   11.0947  -17.4310   17.2797 O   0  0  0  0  0  0  0  0  0  0  0  0
   10.3787  -16.6154   22.8959 C   0  0  0  0  0  0  0  0  0  0  0  0
   11.1412  -15.6237   23.0508 O   0  0  0  0  0  0  0  0  0  0  0  0
    9.3525  -16.0924   17.8362 O   0  0  0  0  0  0  0  0  0  0  0  0
    5.9569  -10.4727   26.8588 O   0  0  0  0  0  0  0  0  0  0  0  0
    6.3432  -11.6852   26.3045 C   0  0  0  0  0  0  0  0  0  0  0  0
    6.2277  -12.8412   27.0296 C   0  0  0  0  0  0  0  0  0  0  0  0
    6.6135  -14.0564   26.4773 C   0  0  0  0  0  0  0  0  0  0  0  0
    7.1201  -14.1499   25.1991 C   0  0  0  0  0  0  0  0  0  0  0  0
    7.5123  -15.4607   24.6686 C   0  0  0  0  0  0  0  0  0  0  0  0
    8.9667  -15.7821   24.8031 C   0  0  2  0  0  0  0  0  0  0  0  0
    9.2716  -16.7522   23.7359 N   0  0  0  0  0  0  0  0  0  0  0  0
    9.3320  -16.4172   26.0833 C   0  0  0  0  0  0  0  0  0  0  0  0
    9.0328  -15.8457   27.1598 O   0  0  0  0  0  0  0  0  0  0  0  0
    7.2282  -12.9755   24.4863 C   0  0  0  0  0  0  0  0  0  0  0  0
    6.8463  -11.7536   25.0257 C   0  0  0  0  0  0  0  0  0  0  0  0
   10.0064  -17.6454   26.1282 N   0  0  0  0  0  0  0  0  0  0  0  0
   10.2684  -18.3929   27.3270 C   0  0  0  0  0  0  0  0  0  0  0  0
   11.6019  -18.9940   27.3631 C   0  0  0  0  0  0  0  0  0  0  0  0
   12.0015  -19.7900   28.4169 O   0  0  0  0  0  0  0  0  0  0  0  0
   12.4029  -18.7884   26.4250 O   0  0  0  0  0  0  0  0  0  0  0  0
  2  1  1  6
  2  7  1  0
  3  4  1  0
  3  2  1  0
  4  5  1  0
  5  6  2  0
  7  8  2  0
  9  5  1  0
 10 11  1  0
 11 21  2  0
 12 11  1  0
 12 13  2  0
 13 14  1  0
 14 20  2  0
 14 15  1  0
 16 15  1  1
 16 18  1  0
 17 16  1  0
 17  7  1  0
 18 19  2  0
 18 22  1  0
 21 20  1  0
 22 23  1  0
 24 25  1  0
 24 23  1  0
 26 24  2  0
M  END
$$$$
