NTM.pdb
     RDKit          3D

 24 23  0  0  1  0  0  0  0  0999 V2000
    8.9886  -17.6523   16.7656 N   0  0  0  0  0  0  0  0  0  0  0  0
    9.9369  -18.3972   17.4958 C   0  0  0  0  0  0  0  0  0  0  0  0
    9.7798  -19.6328   17.6363 O   0  0  0  0  0  0  0  0  0  0  0  0
   11.1117  -17.7516   18.0997 C   0  0  0  0  0  0  0  0  0  0  0  0
   11.0838  -17.7493   19.6072 C   0  0  2  0  0  0  0  0  0  0  0  0
   10.5232  -19.0084   20.0292 N   0  0  0  0  0  0  0  0  0  0  0  0
   10.2859  -16.5944   20.0908 C   0  0  0  0  0  0  0  0  0  0  0  0
   10.5407  -15.4085   19.7733 O   0  0  0  0  0  0  0  0  0  0  0  0
    6.7465  -15.0965   20.3898 C   0  0  0  0  0  0  0  0  0  0  0  0
    7.1727  -15.5760   21.7359 C   0  0  1  0  0  0  0  0  0  0  0  0
    6.4861  -16.6903   22.1377 O   0  0  0  0  0  0  0  0  0  0  0  0
    8.6753  -15.7296   21.7920 C   0  0  2  0  0  0  0  0  0  0  0  0
    9.1602  -16.7963   20.9644 N   0  0  0  0  0  0  0  0  0  0  0  0
    9.1627  -15.8498   23.2030 C   0  0  0  0  0  0  0  0  0  0  0  0
    9.4475  -16.9804   23.6829 O   0  0  0  0  0  0  0  0  0  0  0  0
    6.8988  -10.6915   27.1849 C   0  0  0  0  0  0  0  0  0  0  0  0
    6.0619  -12.3044   27.2430 S   0  0  0  0  0  0  0  0  0  0  0  0
    7.3326  -13.6017   27.0532 C   0  0  0  0  0  0  0  0  0  0  0  0
    7.7914  -13.7032   25.6312 C   0  0  0  0  0  0  0  0  0  0  0  0
    8.9032  -14.6753   25.4412 C   0  0  2  0  0  0  0  0  0  0  0  0
    9.3236  -14.7259   24.0396 N   0  0  0  0  0  0  0  0  0  0  0  0
    8.6877  -15.9979   26.0020 C   0  0  0  0  0  0  0  0  0  0  0  0
    8.0076  -16.8601   25.4297 O   0  0  0  0  0  0  0  0  0  0  0  0
    9.2520  -16.3579   27.2352 O   0  0  0  0  0  0  0  0  0  0  0  0
  2  1  1  0
  2  4  1  0
  3  2  2  0
  4  5  1  0
  5  6  1  6
  5  7  1  0
  7  8  2  0
 10 12  1  0
 10  9  1  6
 10 11  1  0
 12 14  1  0
 13  7  1  0
 12 13  1  6
 14 15  2  0
 14 21  1  0
 16 17  1  0
 18 17  1  0
 19 18  1  0
 20 19  1  6
 20 22  1  0
 21 20  1  0
 22 24  1  0
 23 22  2  0
M  END
$$$$
