NTM.pdb
     RDKit          3D

 24 23  0  0  1  0  0  0  0  0999 V2000
    8.9481  -13.0944   16.6512 N   0  0  0  0  0  0  0  0  0  0  0  0
    7.7005  -13.6834   16.9412 C   0  0  0  0  0  0  0  0  0  0  0  0
    6.8067  -13.7065   16.0628 O   0  0  0  0  0  0  0  0  0  0  0  0
    7.4245  -14.2733   18.2593 C   0  0  0  0  0  0  0  0  0  0  0  0
    8.5090  -14.0073   19.2724 C   0  0  2  0  0  0  0  0  0  0  0  0
    9.7656  -14.3591   18.6600 N   0  0  0  0  0  0  0  0  0  0  0  0
    8.2487  -14.7966   20.5026 C   0  0  0  0  0  0  0  0  0  0  0  0
    7.1757  -14.7215   21.1467 O   0  0  0  0  0  0  0  0  0  0  0  0
    8.7608  -18.5858   21.0272 C   0  0  0  0  0  0  0  0  0  0  0  0
    9.4671  -17.8779   22.1334 C   0  0  1  0  0  0  0  0  0  0  0  0
   10.8270  -18.0203   22.0638 O   0  0  0  0  0  0  0  0  0  0  0  0
    9.0059  -16.4413   22.2223 C   0  0  2  0  0  0  0  0  0  0  0  0
    9.2427  -15.7017   21.0161 N   0  0  0  0  0  0  0  0  0  0  0  0
    9.5797  -15.7536   23.4226 C   0  0  0  0  0  0  0  0  0  0  0  0
   10.2590  -14.7001   23.2873 O   0  0  0  0  0  0  0  0  0  0  0  0
    5.5748  -12.6031   26.6275 C   0  0  0  0  0  0  0  0  0  0  0  0
    7.2834  -12.0996   26.9911 S   0  0  0  0  0  0  0  0  0  0  0  0
    8.2785  -13.6144   27.2120 C   0  0  0  0  0  0  0  0  0  0  0  0
    8.3479  -14.4042   25.9413 C   0  0  0  0  0  0  0  0  0  0  0  0
    9.4419  -15.4143   25.9370 C   0  0  2  0  0  0  0  0  0  0  0  0
    9.3875  -16.2431   24.7313 N   0  0  0  0  0  0  0  0  0  0  0  0
    9.5738  -16.2067   27.1473 C   0  0  0  0  0  0  0  0  0  0  0  0
    9.1755  -17.3768   27.2228 O   0  0  0  0  0  0  0  0  0  0  0  0
   10.1689  -15.6691   28.2987 O   0  0  0  0  0  0  0  0  0  0  0  0
  2  1  1  0
  2  4  1  0
  3  2  2  0
  4  5  1  0
  5  6  1  6
  5  7  1  0
  7  8  2  0
 10 12  1  0
 10  9  1  6
 10 11  1  0
 12 14  1  0
 13  7  1  0
 12 13  1  6
 14 15  2  0
 14 21  1  0
 16 17  1  0
 18 17  1  0
 19 18  1  0
 20 19  1  1
 20 22  1  0
 21 20  1  0
 22 24  1  0
 23 22  2  0
M  END
$$$$
