NTM.pdb
     RDKit          3D

 24 23  0  0  1  0  0  0  0  0999 V2000
    9.4815  -14.0624   15.8439 N   0  0  0  0  0  0  0  0  0  0  0  0
    8.1461  -13.7348   16.1553 C   0  0  0  0  0  0  0  0  0  0  0  0
    7.3501  -13.4362   15.2343 O   0  0  0  0  0  0  0  0  0  0  0  0
    7.6657  -13.7352   17.5449 C   0  0  0  0  0  0  0  0  0  0  0  0
    8.7156  -14.1596   18.5403 C   0  0  2  0  0  0  0  0  0  0  0  0
    9.4207  -15.2804   17.9707 N   0  0  0  0  0  0  0  0  0  0  0  0
    8.0696  -14.5059   19.8314 C   0  0  0  0  0  0  0  0  0  0  0  0
    7.3180  -13.7167   20.4513 O   0  0  0  0  0  0  0  0  0  0  0  0
    6.1279  -17.8181   20.7277 C   0  0  0  0  0  0  0  0  0  0  0  0
    7.1983  -17.5717   21.7363 C   0  0  1  0  0  0  0  0  0  0  0  0
    8.2173  -18.4823   21.6532 O   0  0  0  0  0  0  0  0  0  0  0  0
    7.6572  -16.1327   21.6806 C   0  0  2  0  0  0  0  0  0  0  0  0
    8.2861  -15.7935   20.4367 N   0  0  0  0  0  0  0  0  0  0  0  0
    8.5174  -15.7848   22.8561 C   0  0  0  0  0  0  0  0  0  0  0  0
    9.7736  -15.7902   22.7482 O   0  0  0  0  0  0  0  0  0  0  0  0
    6.1616  -10.3443   26.0001 C   0  0  0  0  0  0  0  0  0  0  0  0
    6.3485  -12.0378   26.6344 S   0  0  0  0  0  0  0  0  0  0  0  0
    7.7158  -12.8304   25.7199 C   0  0  0  0  0  0  0  0  0  0  0  0
    7.9621  -14.2215   26.2172 C   0  0  0  0  0  0  0  0  0  0  0  0
    8.7662  -15.0479   25.2750 C   0  0  2  0  0  0  0  0  0  0  0  0
    7.9711  -15.4403   24.1099 N   0  0  0  0  0  0  0  0  0  0  0  0
    9.4729  -16.1710   25.8660 C   0  0  0  0  0  0  0  0  0  0  0  0
    8.9812  -17.3055   25.9326 O   0  0  0  0  0  0  0  0  0  0  0  0
   10.7636  -16.0127   26.3933 O   0  0  0  0  0  0  0  0  0  0  0  0
  2  1  1  0
  2  4  1  0
  3  2  2  0
  4  5  1  0
  5  6  1  6
  5  7  1  0
  7  8  2  0
 10 12  1  0
 10  9  1  6
 10 11  1  0
 12 14  1  0
 13  7  1  0
 12 13  1  6
 14 15  2  0
 14 21  1  0
 16 17  1  0
 18 17  1  0
 19 18  1  0
 20 19  1  1
 20 22  1  0
 21 20  1  0
 22 24  1  0
 23 22  2  0
M  END
$$$$
