NTM.pdb
     RDKit          3D

 24 23  0  0  1  0  0  0  0  0999 V2000
   13.8602  -16.0598   17.9939 N   0  0  0  0  0  0  0  0  0  0  0  0
   14.1027  -15.1539   19.0465 C   0  0  0  0  0  0  0  0  0  0  0  0
   15.2811  -14.9189   19.4031 O   0  0  0  0  0  0  0  0  0  0  0  0
   12.9965  -14.4764   19.7386 C   0  0  0  0  0  0  0  0  0  0  0  0
   11.6349  -14.9318   19.2784 C   0  0  2  0  0  0  0  0  0  0  0  0
   11.4459  -14.4368   17.9379 N   0  0  0  0  0  0  0  0  0  0  0  0
   10.5966  -14.4252   20.2108 C   0  0  0  0  0  0  0  0  0  0  0  0
   10.2421  -13.2232   20.2490 O   0  0  0  0  0  0  0  0  0  0  0  0
    7.1495  -14.6429   20.1699 C   0  0  0  0  0  0  0  0  0  0  0  0
    7.5037  -15.3280   21.4461 C   0  0  1  0  0  0  0  0  0  0  0  0
    7.3890  -16.6897   21.3601 O   0  0  0  0  0  0  0  0  0  0  0  0
    8.8511  -14.8575   21.9435 C   0  0  2  0  0  0  0  0  0  0  0  0
    9.9397  -15.3167   21.1300 N   0  0  0  0  0  0  0  0  0  0  0  0
    9.0512  -15.1946   23.3889 C   0  0  0  0  0  0  0  0  0  0  0  0
    9.9806  -15.9719   23.7375 O   0  0  0  0  0  0  0  0  0  0  0  0
    4.9801  -12.1015   27.4487 C   0  0  0  0  0  0  0  0  0  0  0  0
    6.4166  -11.6534   26.4284 S   0  0  0  0  0  0  0  0  0  0  0  0
    7.7829  -12.7862   26.8569 C   0  0  0  0  0  0  0  0  0  0  0  0
    7.3862  -14.2146   26.6435 C   0  0  0  0  0  0  0  0  0  0  0  0
    8.3677  -14.9807   25.8268 C   0  0  2  0  0  0  0  0  0  0  0  0
    8.2267  -14.6661   24.4039 N   0  0  0  0  0  0  0  0  0  0  0  0
    8.4149  -16.4112   26.0749 C   0  0  0  0  0  0  0  0  0  0  0  0
    7.7239  -17.2194   25.4402 O   0  0  0  0  0  0  0  0  0  0  0  0
    9.2604  -16.9437   27.0600 O   0  0  0  0  0  0  0  0  0  0  0  0
  2  1  1  0
  2  4  1  0
  3  2  2  0
  4  5  1  0
  5  6  1  6
  5  7  1  0
  7  8  2  0
 10 12  1  0
 10  9  1  6
 10 11  1  0
 12 14  1  0
 13  7  1  0
 12 13  1  6
 14 15  2  0
 14 21  1  0
 16 17  1  0
 18 17  1  0
 19 18  1  0
 20 19  1  1
 20 22  1  0
 21 20  1  0
 22 24  1  0
 23 22  2  0
M  END
$$$$
