NTM.pdb
     RDKit          3D

 24 23  0  0  1  0  0  0  0  0999 V2000
    5.5075  -21.4444   21.6473 N   0  0  0  0  0  0  0  0  0  0  0  0
    5.4948  -20.2017   22.3130 C   0  0  0  0  0  0  0  0  0  0  0  0
    5.4862  -20.1696   23.5659 O   0  0  0  0  0  0  0  0  0  0  0  0
    5.4905  -18.9364   21.5643 C   0  0  0  0  0  0  0  0  0  0  0  0
    6.6239  -18.8223   20.5766 C   0  0  2  0  0  0  0  0  0  0  0  0
    7.3759  -20.0503   20.6406 N   0  0  0  0  0  0  0  0  0  0  0  0
    7.4587  -17.6401   20.9079 C   0  0  0  0  0  0  0  0  0  0  0  0
    8.5357  -17.7224   21.5445 O   0  0  0  0  0  0  0  0  0  0  0  0
    8.2581  -12.7630   20.5806 C   0  0  0  0  0  0  0  0  0  0  0  0
    7.4569  -13.9290   20.1092 C   0  0  1  0  0  0  0  0  0  0  0  0
    7.5272  -14.1001   18.7526 O   0  0  0  0  0  0  0  0  0  0  0  0
    7.8078  -15.1674   20.9014 C   0  0  2  0  0  0  0  0  0  0  0  0
    7.0542  -16.3204   20.5006 N   0  0  0  0  0  0  0  0  0  0  0  0
    7.7132  -14.9213   22.3756 C   0  0  0  0  0  0  0  0  0  0  0  0
    6.6185  -15.0873   22.9788 O   0  0  0  0  0  0  0  0  0  0  0  0
    5.7814  -11.4919   28.2752 C   0  0  0  0  0  0  0  0  0  0  0  0
    5.7626  -12.1384   26.5762 S   0  0  0  0  0  0  0  0  0  0  0  0
    7.3739  -12.9382   26.2635 C   0  0  0  0  0  0  0  0  0  0  0  0
    7.4948  -13.3667   24.8335 C   0  0  0  0  0  0  0  0  0  0  0  0
    8.7524  -14.1111   24.5482 C   0  0  2  0  0  0  0  0  0  0  0  0
    8.8229  -14.5038   23.1395 N   0  0  0  0  0  0  0  0  0  0  0  0
    9.0500  -15.2142   25.4453 C   0  0  0  0  0  0  0  0  0  0  0  0
    8.7803  -16.3901   25.1658 O   0  0  0  0  0  0  0  0  0  0  0  0
    9.6664  -14.9878   26.6853 O   0  0  0  0  0  0  0  0  0  0  0  0
  2  1  1  0
  2  4  1  0
  3  2  2  0
  4  5  1  0
  5  6  1  1
  5  7  1  0
  7  8  2  0
 10 12  1  0
 10  9  1  1
 10 11  1  0
 12 14  1  0
 13  7  1  0
 12 13  1  6
 14 15  2  0
 14 21  1  0
 16 17  1  0
 18 17  1  0
 19 18  1  0
 20 19  1  1
 20 22  1  0
 21 20  1  0
 22 24  1  0
 23 22  2  0
M  END
$$$$
