NTM.pdb
     RDKit          3D

 24 23  0  0  1  0  0  0  0  0999 V2000
   14.8342  -16.6406   18.4277 N   0  0  0  0  0  0  0  0  0  0  0  0
   13.6396  -17.1802   17.9086 C   0  0  0  0  0  0  0  0  0  0  0  0
   13.6679  -17.8348   16.8401 O   0  0  0  0  0  0  0  0  0  0  0  0
   12.3549  -16.9892   18.5976 C   0  0  0  0  0  0  0  0  0  0  0  0
   12.3897  -17.3922   20.0500 C   0  0  2  0  0  0  0  0  0  0  0  0
   12.4796  -18.8301   20.0957 N   0  0  0  0  0  0  0  0  0  0  0  0
   11.1745  -16.8880   20.7381 C   0  0  0  0  0  0  0  0  0  0  0  0
   10.8276  -15.6834   20.7145 O   0  0  0  0  0  0  0  0  0  0  0  0
    7.6109  -18.8946   21.0954 C   0  0  0  0  0  0  0  0  0  0  0  0
    8.1229  -18.3693   22.3937 C   0  0  1  0  0  0  0  0  0  0  0  0
    8.5361  -19.3659   23.2367 O   0  0  0  0  0  0  0  0  0  0  0  0
    9.1616  -17.2969   22.1583 C   0  0  2  0  0  0  0  0  0  0  0  0
   10.3258  -17.7851   21.4771 N   0  0  0  0  0  0  0  0  0  0  0  0
    9.5133  -16.5849   23.4281 C   0  0  0  0  0  0  0  0  0  0  0  0
   10.6296  -16.7829   23.9796 O   0  0  0  0  0  0  0  0  0  0  0  0
    6.3120  -11.4647   25.4701 C   0  0  0  0  0  0  0  0  0  0  0  0
    7.0647  -11.7980   27.0911 S   0  0  0  0  0  0  0  0  0  0  0  0
    8.1476  -13.2577   26.9160 C   0  0  0  0  0  0  0  0  0  0  0  0
    7.9255  -13.9393   25.6010 C   0  0  0  0  0  0  0  0  0  0  0  0
    8.8568  -15.0769   25.3649 C   0  0  2  0  0  0  0  0  0  0  0  0
    8.6298  -15.6779   24.0493 N   0  0  0  0  0  0  0  0  0  0  0  0
    8.9208  -16.0700   26.4230 C   0  0  0  0  0  0  0  0  0  0  0  0
    8.2032  -17.0793   26.4321 O   0  0  0  0  0  0  0  0  0  0  0  0
    9.8142  -15.9236   27.4951 O   0  0  0  0  0  0  0  0  0  0  0  0
  2  1  1  0
  2  4  1  0
  3  2  2  0
  4  5  1  0
  5  6  1  6
  5  7  1  0
  7  8  2  0
 10 12  1  0
 10  9  1  6
 10 11  1  0
 12 14  1  0
 13  7  1  0
 12 13  1  1
 14 15  2  0
 14 21  1  0
 16 17  1  0
 18 17  1  0
 19 18  1  0
 20 19  1  1
 20 22  1  0
 21 20  1  0
 22 24  1  0
 23 22  2  0
M  END
$$$$
