NTM.pdb
     RDKit          3D

 24 23  0  0  1  0  0  0  0  0999 V2000
    9.1480  -13.3192   16.3018 N   0  0  0  0  0  0  0  0  0  0  0  0
    7.7931  -13.5736   16.5967 C   0  0  0  0  0  0  0  0  0  0  0  0
    6.9354  -13.4968   15.6859 O   0  0  0  0  0  0  0  0  0  0  0  0
    7.3630  -13.9279   17.9572 C   0  0  0  0  0  0  0  0  0  0  0  0
    8.4566  -13.7871   18.9856 C   0  0  2  0  0  0  0  0  0  0  0  0
    9.6672  -14.3064   18.4004 N   0  0  0  0  0  0  0  0  0  0  0  0
    8.0776  -14.5173   20.2216 C   0  0  0  0  0  0  0  0  0  0  0  0
    6.9977  -14.3192   20.8268 O   0  0  0  0  0  0  0  0  0  0  0  0
    7.9830  -18.2598   20.7587 C   0  0  0  0  0  0  0  0  0  0  0  0
    8.7979  -17.7022   21.8761 C   0  0  1  0  0  0  0  0  0  0  0  0
   10.1119  -18.0805   21.8068 O   0  0  0  0  0  0  0  0  0  0  0  0
    8.5959  -16.2083   21.9845 C   0  0  2  0  0  0  0  0  0  0  0  0
    8.9572  -15.5062   20.7869 N   0  0  0  0  0  0  0  0  0  0  0  0
    9.2830  -15.6474   23.1912 C   0  0  0  0  0  0  0  0  0  0  0  0
   10.0957  -14.6908   23.0728 O   0  0  0  0  0  0  0  0  0  0  0  0
    5.6293  -12.4535   26.4955 C   0  0  0  0  0  0  0  0  0  0  0  0
    7.3137  -11.9721   26.9816 S   0  0  0  0  0  0  0  0  0  0  0  0
    8.3254  -13.4893   27.0726 C   0  0  0  0  0  0  0  0  0  0  0  0
    8.2255  -14.2809   25.8051 C   0  0  0  0  0  0  0  0  0  0  0  0
    9.2292  -15.3773   25.7172 C   0  0  2  0  0  0  0  0  0  0  0  0
    9.0541  -16.1530   24.4879 N   0  0  0  0  0  0  0  0  0  0  0  0
    9.3447  -16.2227   26.8928 C   0  0  0  0  0  0  0  0  0  0  0  0
    9.5973  -15.7681   28.0167 O   0  0  0  0  0  0  0  0  0  0  0  0
    9.1708  -17.6120   26.8007 O   0  0  0  0  0  0  0  0  0  0  0  0
  2  1  1  0
  2  4  1  0
  3  2  2  0
  4  5  1  0
  5  6  1  6
  5  7  1  0
  7  8  2  0
 10 12  1  0
 10  9  1  6
 10 11  1  0
 12 14  1  0
 13  7  1  0
 12 13  1  6
 14 15  2  0
 14 21  1  0
 16 17  1  0
 18 17  1  0
 19 18  1  0
 20 19  1  1
 20 22  1  0
 21 20  1  0
 22 24  1  0
 23 22  2  0
M  END
$$$$
