NTM.pdb
     RDKit          3D

 24 23  0  0  1  0  0  0  0  0999 V2000
    9.3785  -14.9007   17.5569 N   0  0  0  0  0  0  0  0  0  0  0  0
    8.4880  -13.8885   17.1449 C   0  0  0  0  0  0  0  0  0  0  0  0
    7.9336  -13.9692   16.0236 O   0  0  0  0  0  0  0  0  0  0  0  0
    8.1952  -12.7340   18.0069 C   0  0  0  0  0  0  0  0  0  0  0  0
    8.9127  -12.7803   19.3322 C   0  0  2  0  0  0  0  0  0  0  0  0
   10.2979  -13.0735   19.0618 N   0  0  0  0  0  0  0  0  0  0  0  0
    8.2863  -13.8057   20.2044 C   0  0  0  0  0  0  0  0  0  0  0  0
    7.0616  -13.8171   20.4724 O   0  0  0  0  0  0  0  0  0  0  0  0
    7.9625  -17.5611   20.0909 C   0  0  0  0  0  0  0  0  0  0  0  0
    8.7292  -17.2247   21.3248 C   0  0  1  0  0  0  0  0  0  0  0  0
   10.0510  -17.5694   21.2315 O   0  0  0  0  0  0  0  0  0  0  0  0
    8.4987  -15.7828   21.7148 C   0  0  2  0  0  0  0  0  0  0  0  0
    9.0806  -14.8530   20.7904 N   0  0  0  0  0  0  0  0  0  0  0  0
    8.9339  -15.5187   23.1233 C   0  0  0  0  0  0  0  0  0  0  0  0
   10.0850  -15.0608   23.3576 O   0  0  0  0  0  0  0  0  0  0  0  0
    6.0185  -10.9885   26.4056 C   0  0  0  0  0  0  0  0  0  0  0  0
    6.9136  -12.4189   27.0822 S   0  0  0  0  0  0  0  0  0  0  0  0
    6.7647  -13.7898   25.8854 C   0  0  0  0  0  0  0  0  0  0  0  0
    7.3532  -15.0524   26.4357 C   0  0  0  0  0  0  0  0  0  0  0  0
    8.4876  -15.5736   25.6241 C   0  0  2  0  0  0  0  0  0  0  0  0
    8.0913  -15.7634   24.2275 N   0  0  0  0  0  0  0  0  0  0  0  0
    9.1714  -16.7343   26.1676 C   0  0  0  0  0  0  0  0  0  0  0  0
    9.0384  -17.8688   25.6894 O   0  0  0  0  0  0  0  0  0  0  0  0
   10.0253  -16.6141   27.2745 O   0  0  0  0  0  0  0  0  0  0  0  0
  2  1  1  0
  2  4  1  0
  3  2  2  0
  4  5  1  0
  5  6  1  6
  5  7  1  0
  7  8  2  0
 10 12  1  0
 10  9  1  6
 10 11  1  0
 12 14  1  0
 13  7  1  0
 12 13  1  6
 14 15  2  0
 14 21  1  0
 16 17  1  0
 18 17  1  0
 19 18  1  0
 20 19  1  1
 20 22  1  0
 21 20  1  0
 22 24  1  0
 23 22  2  0
M  END
$$$$
