NTM.pdb
     RDKit          3D

 24 23  0  0  1  0  0  0  0  0999 V2000
   10.9598  -17.5745   15.7019 N   0  0  0  0  0  0  0  0  0  0  0  0
   11.0421  -18.1731   16.9756 C   0  0  0  0  0  0  0  0  0  0  0  0
   10.7006  -19.3703   17.1213 O   0  0  0  0  0  0  0  0  0  0  0  0
   11.5216  -17.4182   18.1426 C   0  0  0  0  0  0  0  0  0  0  0  0
   10.8141  -17.7835   19.4230 C   0  0  2  0  0  0  0  0  0  0  0  0
    9.6557  -18.5641   19.0669 N   0  0  0  0  0  0  0  0  0  0  0  0
   10.4481  -16.5489   20.1619 C   0  0  0  0  0  0  0  0  0  0  0  0
   11.2744  -15.6455   20.4320 O   0  0  0  0  0  0  0  0  0  0  0  0
    7.6795  -13.8702   19.6285 C   0  0  0  0  0  0  0  0  0  0  0  0
    7.4882  -14.5126   20.9606 C   0  0  1  0  0  0  0  0  0  0  0  0
    6.3840  -15.3212   20.9995 O   0  0  0  0  0  0  0  0  0  0  0  0
    8.7613  -15.1932   21.4080 C   0  0  2  0  0  0  0  0  0  0  0  0
    9.0965  -16.3355   20.6076 N   0  0  0  0  0  0  0  0  0  0  0  0
    8.7231  -15.5243   22.8680 C   0  0  0  0  0  0  0  0  0  0  0  0
    8.1282  -16.5610   23.2693 O   0  0  0  0  0  0  0  0  0  0  0  0
    6.7028  -10.8551   27.8101 C   0  0  0  0  0  0  0  0  0  0  0  0
    5.9924  -12.2974   26.9615 S   0  0  0  0  0  0  0  0  0  0  0  0
    7.3024  -13.5603   26.8117 C   0  0  0  0  0  0  0  0  0  0  0  0
    7.7851  -13.6716   25.3983 C   0  0  0  0  0  0  0  0  0  0  0  0
    8.9155  -14.6274   25.2376 C   0  0  2  0  0  0  0  0  0  0  0  0
    9.3406  -14.7086   23.8389 N   0  0  0  0  0  0  0  0  0  0  0  0
    8.7233  -15.9379   25.8342 C   0  0  0  0  0  0  0  0  0  0  0  0
    8.5625  -16.0972   27.0517 O   0  0  0  0  0  0  0  0  0  0  0  0
    8.7109  -17.0954   25.0412 O   0  0  0  0  0  0  0  0  0  0  0  0
  2  1  1  0
  2  4  1  0
  3  2  2  0
  4  5  1  0
  5  6  1  6
  5  7  1  0
  7  8  2  0
 10 12  1  0
 10  9  1  6
 10 11  1  0
 12 14  1  0
 13  7  1  0
 12 13  1  6
 14 15  2  0
 14 21  1  0
 16 17  1  0
 18 17  1  0
 19 18  1  0
 20 19  1  6
 20 22  1  0
 21 20  1  0
 22 24  1  0
 23 22  2  0
M  END
$$$$
