NTM.pdb
     RDKit          3D

 24 23  0  0  1  0  0  0  0  0999 V2000
   16.3910  -13.9895   18.4924 N   0  0  0  0  0  0  0  0  0  0  0  0
   15.0457  -14.1922   18.1230 C   0  0  0  0  0  0  0  0  0  0  0  0
   14.7542  -14.3716   16.9172 O   0  0  0  0  0  0  0  0  0  0  0  0
   13.9721  -14.1966   19.1275 C   0  0  0  0  0  0  0  0  0  0  0  0
   13.6337  -15.5755   19.6349 C   0  0  2  0  0  0  0  0  0  0  0  0
   13.1770  -16.3488   18.5074 N   0  0  0  0  0  0  0  0  0  0  0  0
   12.6018  -15.4778   20.6979 C   0  0  0  0  0  0  0  0  0  0  0  0
   12.6039  -14.5768   21.5697 O   0  0  0  0  0  0  0  0  0  0  0  0
    8.7356  -16.7929   20.0427 C   0  0  0  0  0  0  0  0  0  0  0  0
    9.2588  -17.1244   21.3992 C   0  0  1  0  0  0  0  0  0  0  0  0
    9.4595  -18.4679   21.5703 O   0  0  0  0  0  0  0  0  0  0  0  0
   10.4693  -16.2787   21.7211 C   0  0  2  0  0  0  0  0  0  0  0  0
   11.5319  -16.4375   20.7705 N   0  0  0  0  0  0  0  0  0  0  0  0
   10.9371  -16.5017   23.1262 C   0  0  0  0  0  0  0  0  0  0  0  0
   11.9117  -17.2672   23.3577 O   0  0  0  0  0  0  0  0  0  0  0  0
    8.9528  -14.1678   30.0372 C   0  0  0  0  0  0  0  0  0  0  0  0
   10.2305  -13.5980   28.8762 S   0  0  0  0  0  0  0  0  0  0  0  0
   10.7730  -15.0361   27.8907 C   0  0  0  0  0  0  0  0  0  0  0  0
   10.3330  -14.9097   26.4646 C   0  0  0  0  0  0  0  0  0  0  0  0
   10.7328  -16.0703   25.6219 C   0  0  2  0  0  0  0  0  0  0  0  0
   10.3217  -15.8758   24.2302 N   0  0  0  0  0  0  0  0  0  0  0  0
   10.3592  -17.3784   26.1313 C   0  0  0  0  0  0  0  0  0  0  0  0
   11.0679  -18.0094   26.9270 O   0  0  0  0  0  0  0  0  0  0  0  0
    9.1595  -17.9894   25.7361 O   0  0  0  0  0  0  0  0  0  0  0  0
  2  1  1  0
  2  4  1  0
  3  2  2  0
  4  5  1  0
  5  6  1  6
  5  7  1  0
  7  8  2  0
 10 12  1  0
 10  9  1  6
 10 11  1  0
 12 14  1  0
 13  7  1  0
 12 13  1  6
 14 15  2  0
 14 21  1  0
 16 17  1  0
 18 17  1  0
 19 18  1  0
 20 19  1  1
 20 22  1  0
 21 20  1  0
 22 24  1  0
 23 22  2  0
M  END
$$$$
