NTM.pdb
     RDKit          3D

 24 23  0  0  1  0  0  0  0  0999 V2000
    8.3959  -12.3103   16.8939 N   0  0  0  0  0  0  0  0  0  0  0  0
    8.0326  -13.6671   17.0146 C   0  0  0  0  0  0  0  0  0  0  0  0
    8.0546  -14.4071   16.0032 O   0  0  0  0  0  0  0  0  0  0  0  0
    7.6256  -14.2346   18.3084 C   0  0  0  0  0  0  0  0  0  0  0  0
    8.7793  -14.4570   19.2532 C   0  0  2  0  0  0  0  0  0  0  0  0
    9.7055  -15.3474   18.5995 N   0  0  0  0  0  0  0  0  0  0  0  0
    8.2768  -15.0176   20.5329 C   0  0  0  0  0  0  0  0  0  0  0  0
    7.4206  -14.4378   21.2419 O   0  0  0  0  0  0  0  0  0  0  0  0
    7.7430  -19.0152   21.3825 C   0  0  0  0  0  0  0  0  0  0  0  0
    8.5296  -18.2867   22.4188 C   0  0  1  0  0  0  0  0  0  0  0  0
    9.8447  -18.6670   22.4431 O   0  0  0  0  0  0  0  0  0  0  0  0
    8.3261  -16.7949   22.2863 C   0  0  2  0  0  0  0  0  0  0  0  0
    8.7649  -16.2803   21.0212 N   0  0  0  0  0  0  0  0  0  0  0  0
    8.9373  -16.0532   23.4349 C   0  0  0  0  0  0  0  0  0  0  0  0
   10.1307  -15.6517   23.3694 O   0  0  0  0  0  0  0  0  0  0  0  0
    6.0618  -11.4116   26.0815 C   0  0  0  0  0  0  0  0  0  0  0  0
    7.0055  -11.7272   27.6030 S   0  0  0  0  0  0  0  0  0  0  0  0
    8.1996  -13.0637   27.2542 C   0  0  0  0  0  0  0  0  0  0  0  0
    7.7388  -13.9136   26.1102 C   0  0  0  0  0  0  0  0  0  0  0  0
    8.7283  -14.9542   25.7163 C   0  0  2  0  0  0  0  0  0  0  0  0
    8.2186  -15.7746   24.6160 N   0  0  0  0  0  0  0  0  0  0  0  0
    9.2661  -15.7565   26.8013 C   0  0  0  0  0  0  0  0  0  0  0  0
    9.8861  -15.2601   27.7514 O   0  0  0  0  0  0  0  0  0  0  0  0
    9.1010  -17.1498   26.8170 O   0  0  0  0  0  0  0  0  0  0  0  0
  2  1  1  0
  2  4  1  0
  3  2  2  0
  4  5  1  0
  5  6  1  6
  5  7  1  0
  7  8  2  0
 10 12  1  0
 10  9  1  6
 10 11  1  0
 12 14  1  0
 13  7  1  0
 12 13  1  6
 14 15  2  0
 14 21  1  0
 16 17  1  0
 18 17  1  0
 19 18  1  0
 20 19  1  1
 20 22  1  0
 21 20  1  0
 22 24  1  0
 23 22  2  0
M  END
$$$$
