MIR.pdb
     RDKit          3D

 28 27  0  0  1  0  0  0  0  0999 V2000
   23.2716  -18.7329  -16.4279 C   0  0  0  0  0  0  0  0  0  0  0  0
   24.9536  -18.8525  -17.0176 S   0  0  0  0  0  0  0  0  0  0  0  0
   26.1372  -19.5666  -15.8915 C   0  0  0  0  0  0  0  0  0  0  0  0
   25.5705  -20.1036  -14.6219 C   0  0  0  0  0  0  0  0  0  0  0  0
   26.6333  -20.5449  -13.6680 C   0  0  2  0  0  0  0  0  0  0  0  0
   27.5562  -21.4833  -14.2159 N   0  0  0  0  0  0  0  0  0  0  0  0
   26.0050  -21.1341  -12.4308 C   0  0  0  0  0  0  0  0  0  0  0  0
   25.8620  -22.3897  -12.3829 O   0  0  0  0  0  0  0  0  0  0  0  0
   27.2335  -18.8603   -7.7836 C   0  0  0  0  0  0  0  0  0  0  0  0
   26.8931  -19.9679   -8.7836 C   0  0  0  0  0  0  0  0  0  0  0  0
   25.4237  -20.0236   -9.0034 C   0  0  2  0  0  0  0  0  0  0  0  0
   24.6597  -20.3561   -7.7426 C   0  0  0  0  0  0  0  0  0  0  0  0
   25.0226  -20.9221  -10.1522 C   0  0  2  0  0  0  0  0  0  0  0  0
   25.5982  -20.3056  -11.3791 N   0  0  0  0  0  0  0  0  0  0  0  0
   23.5729  -21.0096  -10.3786 C   0  0  0  0  0  0  0  0  0  0  0  0
   23.0087  -20.1709  -11.1441 O   0  0  0  0  0  0  0  0  0  0  0  0
   17.1973  -25.2040   -6.0310 N   0  0  0  0  0  0  0  0  0  0  0  0
   16.6659  -25.1664   -7.3550 C   0  0  0  0  0  0  0  0  0  0  0  0
   15.4067  -25.3297   -7.5537 N   0  0  0  0  0  0  0  0  0  0  0  0
   17.4872  -24.9531   -8.4939 N   0  0  0  0  0  0  0  0  0  0  0  0
   18.8902  -24.6626   -8.3854 C   0  0  0  0  0  0  0  0  0  0  0  0
   19.3499  -23.4721   -9.1632 C   0  0  0  0  0  0  0  0  0  0  0  0
   20.8111  -23.2000   -9.0571 C   0  0  0  0  0  0  0  0  0  0  0  0
   21.3351  -22.1352   -9.9422 C   0  0  2  0  0  0  0  0  0  0  0  0
   22.7651  -22.0201   -9.7646 N   0  0  0  0  0  0  0  0  0  0  0  0
   20.6751  -20.8138   -9.8039 C   0  0  0  0  0  0  0  0  0  0  0  0
   20.9118  -20.0508   -8.8375 O   0  0  0  0  0  0  0  0  0  0  0  0
   19.7638  -20.3652  -10.7385 O   0  0  0  0  0  0  0  0  0  0  0  0
  2  1  1  0
  3  2  1  0
  4  3  1  0
  5  4  1  0
  5  6  1  6
  7  5  1  0
  7  8  2  0
 10  9  1  0
 11 10  1  0
 11 13  1  0
 11 12  1  1
 13 15  1  0
 13 14  1  6
 14  7  1  0
 15 16  2  0
 18 17  1  0
 18 20  1  0
 19 18  2  0
 20 21  1  0
 21 22  1  0
 22 23  1  0
 24 23  1  1
 24 26  1  0
 25 24  1  0
 25 15  1  0
 26 27  2  0
 26 28  1  0
M  END
$$$$
