MIR.pdb
     RDKit          3D

 28 27  0  0  1  0  0  0  0  0999 V2000
   25.7046  -15.5994  -15.2048 C   0  0  0  0  0  0  0  0  0  0  0  0
   27.3641  -15.9085  -15.7895 S   0  0  0  0  0  0  0  0  0  0  0  0
   28.2317  -17.2656  -15.0251 C   0  0  0  0  0  0  0  0  0  0  0  0
   27.3724  -18.2641  -14.3280 C   0  0  0  0  0  0  0  0  0  0  0  0
   28.1749  -19.2835  -13.5856 C   0  0  2  0  0  0  0  0  0  0  0  0
   29.0466  -20.0534  -14.4101 N   0  0  0  0  0  0  0  0  0  0  0  0
   27.2588  -20.2131  -12.8313 C   0  0  0  0  0  0  0  0  0  0  0  0
   26.9850  -21.3287  -13.3601 O   0  0  0  0  0  0  0  0  0  0  0  0
   26.9627  -19.5208   -7.4196 C   0  0  0  0  0  0  0  0  0  0  0  0
   27.0832  -20.2423   -8.7642 C   0  0  0  0  0  0  0  0  0  0  0  0
   25.7607  -20.2829   -9.4423 C   0  0  2  0  0  0  0  0  0  0  0  0
   24.7206  -21.0335   -8.6431 C   0  0  0  0  0  0  0  0  0  0  0  0
   25.8332  -20.7794  -10.8692 C   0  0  2  0  0  0  0  0  0  0  0  0
   26.7362  -19.8390  -11.5883 N   0  0  0  0  0  0  0  0  0  0  0  0
   24.5523  -20.7495  -11.5896 C   0  0  0  0  0  0  0  0  0  0  0  0
   23.9091  -19.6600  -11.6749 O   0  0  0  0  0  0  0  0  0  0  0  0
   22.0453  -27.5085  -16.1447 N   0  0  0  0  0  0  0  0  0  0  0  0
   21.3958  -27.1454  -14.9267 C   0  0  0  0  0  0  0  0  0  0  0  0
   20.7890  -28.0346  -14.2249 N   0  0  0  0  0  0  0  0  0  0  0  0
   21.3876  -25.8101  -14.4429 N   0  0  0  0  0  0  0  0  0  0  0  0
   21.4245  -24.6744  -15.3222 C   0  0  0  0  0  0  0  0  0  0  0  0
   21.5121  -23.3489  -14.6374 C   0  0  0  0  0  0  0  0  0  0  0  0
   22.7237  -23.1796  -13.7866 C   0  0  0  0  0  0  0  0  0  0  0  0
   22.8055  -21.9126  -13.0252 C   0  0  2  0  0  0  0  0  0  0  0  0
   23.9991  -21.9157  -12.2098 N   0  0  0  0  0  0  0  0  0  0  0  0
   21.6088  -21.5825  -12.2129 C   0  0  0  0  0  0  0  0  0  0  0  0
   21.5295  -21.8764  -10.9967 O   0  0  0  0  0  0  0  0  0  0  0  0
   20.5222  -20.9351  -12.7657 O   0  0  0  0  0  0  0  0  0  0  0  0
  2  1  1  0
  3  2  1  0
  4  3  1  0
  5  4  1  0
  5  6  1  6
  7  5  1  0
  7  8  2  0
 10  9  1  0
 11 10  1  0
 11 13  1  0
 11 12  1  1
 13 15  1  0
 13 14  1  6
 14  7  1  0
 15 16  2  0
 18 17  1  0
 18 20  1  0
 19 18  2  0
 20 21  1  0
 21 22  1  0
 22 23  1  0
 24 23  1  1
 24 26  1  0
 25 24  1  0
 25 15  1  0
 26 27  2  0
 26 28  1  0
M  END
$$$$
