MIR.pdb
     RDKit          3D

 28 27  0  0  1  0  0  0  0  0999 V2000
   31.1589  -20.5859   -7.1970 C   0  0  0  0  0  0  0  0  0  0  0  0
   31.8848  -21.8012   -8.2866 S   0  0  0  0  0  0  0  0  0  0  0  0
   30.9377  -22.2305   -9.7349 C   0  0  0  0  0  0  0  0  0  0  0  0
   29.6450  -21.5056   -9.8933 C   0  0  0  0  0  0  0  0  0  0  0  0
   28.8196  -22.0551  -11.0116 C   0  0  2  0  0  0  0  0  0  0  0  0
   29.5664  -22.3877  -12.1795 N   0  0  0  0  0  0  0  0  0  0  0  0
   27.7335  -21.0772  -11.3812 C   0  0  0  0  0  0  0  0  0  0  0  0
   27.2050  -20.4035  -10.4505 O   0  0  0  0  0  0  0  0  0  0  0  0
   28.5050  -17.8775  -15.4497 C   0  0  0  0  0  0  0  0  0  0  0  0
   28.0171  -18.4369  -14.1110 C   0  0  0  0  0  0  0  0  0  0  0  0
   26.7761  -19.2309  -14.3111 C   0  0  2  0  0  0  0  0  0  0  0  0
   25.6731  -18.4306  -14.9643 C   0  0  0  0  0  0  0  0  0  0  0  0
   26.2956  -19.9201  -13.0533 C   0  0  2  0  0  0  0  0  0  0  0  0
   27.3340  -20.9318  -12.7143 N   0  0  0  0  0  0  0  0  0  0  0  0
   25.0361  -20.6615  -13.2091 C   0  0  0  0  0  0  0  0  0  0  0  0
   25.0008  -21.6813  -13.9619 O   0  0  0  0  0  0  0  0  0  0  0  0
   18.3869  -23.8754   -9.5151 N   0  0  0  0  0  0  0  0  0  0  0  0
   19.5120  -23.4233   -8.7623 C   0  0  0  0  0  0  0  0  0  0  0  0
   19.9751  -24.1345   -7.7972 N   0  0  0  0  0  0  0  0  0  0  0  0
   20.1595  -22.1895   -9.0370 N   0  0  0  0  0  0  0  0  0  0  0  0
   19.7247  -21.3113  -10.0877 C   0  0  0  0  0  0  0  0  0  0  0  0
   20.4587  -21.4628  -11.3807 C   0  0  0  0  0  0  0  0  0  0  0  0
   21.7935  -20.8007  -11.4068 C   0  0  0  0  0  0  0  0  0  0  0  0
   22.5746  -20.9723  -12.6526 C   0  0  2  0  0  0  0  0  0  0  0  0
   23.8350  -20.2748  -12.5321 N   0  0  0  0  0  0  0  0  0  0  0  0
   21.8714  -20.5856  -13.9003 C   0  0  0  0  0  0  0  0  0  0  0  0
   21.9348  -19.4232  -14.3659 O   0  0  0  0  0  0  0  0  0  0  0  0
   21.1094  -21.4948  -14.6061 O   0  0  0  0  0  0  0  0  0  0  0  0
  2  1  1  0
  3  2  1  0
  4  3  1  0
  5  4  1  0
  5  6  1  6
  7  5  1  0
  7  8  2  0
 10  9  1  0
 11 10  1  0
 11 13  1  0
 11 12  1  1
 13 15  1  0
 13 14  1  6
 14  7  1  0
 15 16  2  0
 18 17  1  0
 18 20  1  0
 19 18  2  0
 20 21  1  0
 21 22  1  0
 22 23  1  0
 24 23  1  1
 24 26  1  0
 25 24  1  0
 25 15  1  0
 26 27  2  0
 26 28  1  0
M  END
$$$$
