MIR.pdb
     RDKit          3D

 28 27  0  0  1  0  0  0  0  0999 V2000
   28.7090  -17.8406   -5.9223 C   0  0  0  0  0  0  0  0  0  0  0  0
   28.6433  -19.5920   -5.5770 S   0  0  0  0  0  0  0  0  0  0  0  0
   27.8476  -20.6106   -6.8050 C   0  0  0  0  0  0  0  0  0  0  0  0
   26.8257  -19.9225   -7.6439 C   0  0  0  0  0  0  0  0  0  0  0  0
   26.1106  -20.8667   -8.5556 C   0  0  2  0  0  0  0  0  0  0  0  0
   26.8018  -22.0922   -8.7853 N   0  0  0  0  0  0  0  0  0  0  0  0
   25.8355  -20.1988   -9.8787 C   0  0  0  0  0  0  0  0  0  0  0  0
   25.6479  -18.9482   -9.8802 O   0  0  0  0  0  0  0  0  0  0  0  0
   29.0839  -20.1059  -13.6005 C   0  0  0  0  0  0  0  0  0  0  0  0
   27.8933  -19.8163  -12.6830 C   0  0  0  0  0  0  0  0  0  0  0  0
   26.6609  -20.4395  -13.2338 C   0  0  2  0  0  0  0  0  0  0  0  0
   26.3700  -19.9992  -14.6499 C   0  0  0  0  0  0  0  0  0  0  0  0
   25.4531  -20.2729  -12.3385 C   0  0  2  0  0  0  0  0  0  0  0  0
   25.7919  -20.9517  -11.0574 N   0  0  0  0  0  0  0  0  0  0  0  0
   24.2324  -20.9228  -12.8366 C   0  0  0  0  0  0  0  0  0  0  0  0
   24.2568  -22.1563  -13.1298 O   0  0  0  0  0  0  0  0  0  0  0  0
   18.3260  -23.3639   -9.0195 N   0  0  0  0  0  0  0  0  0  0  0  0
   18.4498  -24.2186  -10.1557 C   0  0  0  0  0  0  0  0  0  0  0  0
   17.6824  -25.2415  -10.2849 N   0  0  0  0  0  0  0  0  0  0  0  0
   19.4091  -23.9855  -11.1767 N   0  0  0  0  0  0  0  0  0  0  0  0
   20.2272  -22.8047  -11.2066 C   0  0  0  0  0  0  0  0  0  0  0  0
   19.7733  -21.7467  -12.1594 C   0  0  0  0  0  0  0  0  0  0  0  0
   20.7439  -20.6305  -12.3409 C   0  0  0  0  0  0  0  0  0  0  0  0
   21.7559  -20.8220  -13.4042 C   0  0  2  0  0  0  0  0  0  0  0  0
   23.0016  -20.2095  -13.0009 N   0  0  0  0  0  0  0  0  0  0  0  0
   21.3512  -20.3616  -14.7552 C   0  0  0  0  0  0  0  0  0  0  0  0
   21.5122  -19.1758  -15.1290 O   0  0  0  0  0  0  0  0  0  0  0  0
   20.7735  -21.2247  -15.6645 O   0  0  0  0  0  0  0  0  0  0  0  0
  2  1  1  0
  3  2  1  0
  4  3  1  0
  5  4  1  0
  5  6  1  6
  7  5  1  0
  7  8  2  0
 10  9  1  0
 11 10  1  0
 11 13  1  0
 11 12  1  6
 13 15  1  0
 13 14  1  1
 14  7  1  0
 15 16  2  0
 18 17  1  0
 18 20  1  0
 19 18  2  0
 20 21  1  0
 21 22  1  0
 22 23  1  0
 24 23  1  1
 24 26  1  0
 25 24  1  0
 25 15  1  0
 26 27  2  0
 26 28  1  0
M  END
$$$$
