MIR.pdb
     RDKit          3D

 28 27  0  0  1  0  0  0  0  0999 V2000
   19.3352  -22.8127  -10.3116 C   0  0  0  0  0  0  0  0  0  0  0  0
   19.5551  -22.5728   -8.5551 S   0  0  0  0  0  0  0  0  0  0  0  0
   21.1611  -22.0041   -8.0297 C   0  0  0  0  0  0  0  0  0  0  0  0
   22.0549  -21.5145   -9.1174 C   0  0  0  0  0  0  0  0  0  0  0  0
   23.4437  -21.2477   -8.6338 C   0  0  2  0  0  0  0  0  0  0  0  0
   23.5079  -20.4469   -7.4561 N   0  0  0  0  0  0  0  0  0  0  0  0
   24.2530  -20.5910   -9.7229 C   0  0  0  0  0  0  0  0  0  0  0  0
   24.3520  -19.3304   -9.7054 O   0  0  0  0  0  0  0  0  0  0  0  0
   29.0796  -21.7818  -10.3457 C   0  0  0  0  0  0  0  0  0  0  0  0
   27.7177  -21.0835  -10.3682 C   0  0  0  0  0  0  0  0  0  0  0  0
   27.0596  -21.2902  -11.6853 C   0  0  2  0  0  0  0  0  0  0  0  0
   27.9264  -20.8520  -12.8432 C   0  0  0  0  0  0  0  0  0  0  0  0
   25.6749  -20.6867  -11.7653 C   0  0  2  0  0  0  0  0  0  0  0  0
   24.8678  -21.3646  -10.7137 N   0  0  0  0  0  0  0  0  0  0  0  0
   24.9783  -20.9289  -13.0367 C   0  0  0  0  0  0  0  0  0  0  0  0
   24.5121  -22.0819  -13.2836 O   0  0  0  0  0  0  0  0  0  0  0  0
   18.4869  -20.8513  -11.5704 N   0  0  0  0  0  0  0  0  0  0  0  0
   18.3764  -19.8430  -12.5745 C   0  0  0  0  0  0  0  0  0  0  0  0
   17.3897  -19.0196  -12.5612 N   0  0  0  0  0  0  0  0  0  0  0  0
   19.3313  -19.7054  -13.6167 N   0  0  0  0  0  0  0  0  0  0  0  0
   20.4587  -20.5866  -13.7464 C   0  0  0  0  0  0  0  0  0  0  0  0
   21.3448  -20.3092  -14.9175 C   0  0  0  0  0  0  0  0  0  0  0  0
   22.5257  -19.4569  -14.6018 C   0  0  0  0  0  0  0  0  0  0  0  0
   23.8314  -19.9578  -15.0878 C   0  0  2  0  0  0  0  0  0  0  0  0
   24.7999  -19.8996  -14.0162 N   0  0  0  0  0  0  0  0  0  0  0  0
   24.3504  -19.2943  -16.3089 C   0  0  0  0  0  0  0  0  0  0  0  0
   25.1402  -18.3222  -16.2522 O   0  0  0  0  0  0  0  0  0  0  0  0
   23.9818  -19.7202  -17.5691 O   0  0  0  0  0  0  0  0  0  0  0  0
  2  1  1  0
  3  2  1  0
  4  3  1  0
  5  4  1  0
  5  6  1  1
  7  5  1  0
  7  8  2  0
 10  9  1  0
 11 10  1  0
 11 13  1  0
 11 12  1  6
 13 15  1  0
 13 14  1  1
 14  7  1  0
 15 16  2  0
 18 17  1  0
 18 20  1  0
 19 18  2  0
 20 21  1  0
 21 22  1  0
 22 23  1  0
 24 23  1  1
 24 26  1  0
 25 24  1  0
 25 15  1  0
 26 27  2  0
 26 28  1  0
M  END
$$$$
