MIR.pdb
     RDKit          3D

 28 27  0  0  1  0  0  0  0  0999 V2000
   26.8746  -15.8666  -14.7046 C   0  0  0  0  0  0  0  0  0  0  0  0
   28.1235  -16.4569  -15.8373 S   0  0  0  0  0  0  0  0  0  0  0  0
   28.3637  -18.2225  -15.8990 C   0  0  0  0  0  0  0  0  0  0  0  0
   27.3340  -19.0344  -15.1905 C   0  0  0  0  0  0  0  0  0  0  0  0
   27.9415  -20.0782  -14.3097 C   0  0  2  0  0  0  0  0  0  0  0  0
   28.7606  -21.0193  -14.9995 N   0  0  0  0  0  0  0  0  0  0  0  0
   26.8606  -20.8173  -13.5630 C   0  0  0  0  0  0  0  0  0  0  0  0
   26.3495  -21.8325  -14.1173 O   0  0  0  0  0  0  0  0  0  0  0  0
   26.6545  -20.5884   -8.0500 C   0  0  0  0  0  0  0  0  0  0  0  0
   26.6189  -21.1297   -9.4814 C   0  0  0  0  0  0  0  0  0  0  0  0
   25.3826  -20.6728  -10.1694 C   0  0  2  0  0  0  0  0  0  0  0  0
   24.1259  -21.0627   -9.4261 C   0  0  0  0  0  0  0  0  0  0  0  0
   25.3198  -21.0819  -11.6243 C   0  0  2  0  0  0  0  0  0  0  0  0
   26.4470  -20.3814  -12.2992 N   0  0  0  0  0  0  0  0  0  0  0  0
   24.0975  -20.6595  -12.3228 C   0  0  0  0  0  0  0  0  0  0  0  0
   23.7823  -19.4314  -12.3427 O   0  0  0  0  0  0  0  0  0  0  0  0
   19.5580  -24.7201  -18.9012 N   0  0  0  0  0  0  0  0  0  0  0  0
   18.7004  -23.6756  -18.4424 C   0  0  0  0  0  0  0  0  0  0  0  0
   17.5732  -23.4603  -19.0211 N   0  0  0  0  0  0  0  0  0  0  0  0
   19.0457  -22.8394  -17.3476 N   0  0  0  0  0  0  0  0  0  0  0  0
   20.2309  -23.0513  -16.5634 C   0  0  0  0  0  0  0  0  0  0  0  0
   20.4812  -22.0231  -15.5081 C   0  0  0  0  0  0  0  0  0  0  0  0
   21.7428  -22.2284  -14.7421 C   0  0  0  0  0  0  0  0  0  0  0  0
   22.0315  -21.2243  -13.6932 C   0  0  2  0  0  0  0  0  0  0  0  0
   23.2417  -21.5917  -12.9932 N   0  0  0  0  0  0  0  0  0  0  0  0
   20.9244  -20.9670  -12.7398 C   0  0  0  0  0  0  0  0  0  0  0  0
   20.7985  -21.6189  -11.6762 O   0  0  0  0  0  0  0  0  0  0  0  0
   19.9770  -19.9936  -12.9855 O   0  0  0  0  0  0  0  0  0  0  0  0
  2  1  1  0
  3  2  1  0
  4  3  1  0
  5  4  1  0
  5  6  1  6
  7  5  1  0
  7  8  2  0
 10  9  1  0
 11 10  1  0
 11 13  1  0
 11 12  1  1
 13 15  1  0
 13 14  1  6
 14  7  1  0
 15 16  2  0
 18 17  1  0
 18 20  1  0
 19 18  2  0
 20 21  1  0
 21 22  1  0
 22 23  1  0
 24 23  1  6
 24 26  1  0
 25 24  1  0
 25 15  1  0
 26 27  2  0
 26 28  1  0
M  END
$$$$
