MIR.pdb
     RDKit          3D

 28 27  0  0  1  0  0  0  0  0999 V2000
   27.6440  -22.2827   -3.8721 C   0  0  0  0  0  0  0  0  0  0  0  0
   28.1763  -20.5795   -3.7889 S   0  0  0  0  0  0  0  0  0  0  0  0
   28.6026  -19.8078   -5.3386 C   0  0  0  0  0  0  0  0  0  0  0  0
   27.6891  -20.1091   -6.4771 C   0  0  0  0  0  0  0  0  0  0  0  0
   28.1613  -19.5033   -7.7593 C   0  0  2  0  0  0  0  0  0  0  0  0
   28.4274  -18.1049   -7.6809 N   0  0  0  0  0  0  0  0  0  0  0  0
   27.1532  -19.7543   -8.8516 C   0  0  0  0  0  0  0  0  0  0  0  0
   26.2088  -18.9238   -8.9846 O   0  0  0  0  0  0  0  0  0  0  0  0
   29.1256  -19.7331  -12.8309 C   0  0  0  0  0  0  0  0  0  0  0  0
   29.1033  -20.9792  -11.9422 C   0  0  0  0  0  0  0  0  0  0  0  0
   27.7400  -21.5725  -11.9287 C   0  0  2  0  0  0  0  0  0  0  0  0
   27.1998  -21.8191  -13.3184 C   0  0  0  0  0  0  0  0  0  0  0  0
   26.7577  -20.7990  -11.0774 C   0  0  2  0  0  0  0  0  0  0  0  0
   27.2719  -20.8741   -9.6822 N   0  0  0  0  0  0  0  0  0  0  0  0
   25.4019  -21.3660  -11.0459 C   0  0  0  0  0  0  0  0  0  0  0  0
   25.2171  -22.5151  -10.5426 O   0  0  0  0  0  0  0  0  0  0  0  0
   18.0637  -21.6032  -11.9397 N   0  0  0  0  0  0  0  0  0  0  0  0
   17.6018  -20.9018  -10.7857 C   0  0  0  0  0  0  0  0  0  0  0  0
   16.4893  -21.2275  -10.2306 N   0  0  0  0  0  0  0  0  0  0  0  0
   18.3338  -19.8305  -10.2083 N   0  0  0  0  0  0  0  0  0  0  0  0
   19.6182  -19.4218  -10.7061 C   0  0  0  0  0  0  0  0  0  0  0  0
   20.5565  -20.5405  -11.0244 C   0  0  0  0  0  0  0  0  0  0  0  0
   21.9623  -20.1090  -11.2659 C   0  0  0  0  0  0  0  0  0  0  0  0
   22.9232  -21.1893  -11.5843 C   0  0  2  0  0  0  0  0  0  0  0  0
   24.2683  -20.6604  -11.5635 N   0  0  0  0  0  0  0  0  0  0  0  0
   22.6598  -21.9201  -12.8482 C   0  0  0  0  0  0  0  0  0  0  0  0
   23.2414  -21.6260  -13.9193 O   0  0  0  0  0  0  0  0  0  0  0  0
   21.7549  -22.9611  -12.9003 O   0  0  0  0  0  0  0  0  0  0  0  0
  2  1  1  0
  3  2  1  0
  4  3  1  0
  5  4  1  0
  5  6  1  1
  7  5  1  0
  7  8  2  0
 10  9  1  0
 11 10  1  0
 11 13  1  0
 11 12  1  6
 13 15  1  0
 13 14  1  1
 14  7  1  0
 15 16  2  0
 18 17  1  0
 18 20  1  0
 19 18  2  0
 20 21  1  0
 21 22  1  0
 22 23  1  0
 24 23  1  6
 24 26  1  0
 25 24  1  0
 25 15  1  0
 26 27  2  0
 26 28  1  0
M  END
$$$$
