MIR.pdb
     RDKit          3D

 28 27  0  0  1  0  0  0  0  0999 V2000
   25.3674  -18.7915  -19.2127 C   0  0  0  0  0  0  0  0  0  0  0  0
   27.1374  -18.5704  -19.1175 S   0  0  0  0  0  0  0  0  0  0  0  0
   27.9947  -19.5650  -17.9114 C   0  0  0  0  0  0  0  0  0  0  0  0
   27.1229  -20.3234  -16.9699 C   0  0  0  0  0  0  0  0  0  0  0  0
   27.8999  -20.9531  -15.8592 C   0  0  2  0  0  0  0  0  0  0  0  0
   28.8704  -21.9036  -16.2916 N   0  0  0  0  0  0  0  0  0  0  0  0
   26.9615  -21.6142  -14.8821 C   0  0  0  0  0  0  0  0  0  0  0  0
   26.6379  -22.8176  -15.0974 O   0  0  0  0  0  0  0  0  0  0  0  0
   25.3779  -21.1091   -9.0414 C   0  0  0  0  0  0  0  0  0  0  0  0
   24.9700  -21.6517  -10.4133 C   0  0  0  0  0  0  0  0  0  0  0  0
   25.8515  -21.0866  -11.4687 C   0  0  2  0  0  0  0  0  0  0  0  0
   25.9363  -19.5789  -11.4092 C   0  0  0  0  0  0  0  0  0  0  0  0
   25.5086  -21.5716  -12.8598 C   0  0  2  0  0  0  0  0  0  0  0  0
   26.4728  -20.9061  -13.7785 N   0  0  0  0  0  0  0  0  0  0  0  0
   24.1679  -21.1880  -13.3245 C   0  0  0  0  0  0  0  0  0  0  0  0
   23.9256  -19.9739  -13.5985 O   0  0  0  0  0  0  0  0  0  0  0  0
   20.7159  -26.3703  -14.5653 N   0  0  0  0  0  0  0  0  0  0  0  0
   19.3737  -26.0957  -14.1653 C   0  0  0  0  0  0  0  0  0  0  0  0
   18.7903  -26.8413  -13.2961 N   0  0  0  0  0  0  0  0  0  0  0  0
   18.6327  -25.0082  -14.6995 N   0  0  0  0  0  0  0  0  0  0  0  0
   19.1905  -24.0971  -15.6603 C   0  0  0  0  0  0  0  0  0  0  0  0
   19.7847  -22.8545  -15.0804 C   0  0  0  0  0  0  0  0  0  0  0  0
   21.1790  -23.0194  -14.5809 C   0  0  0  0  0  0  0  0  0  0  0  0
   21.7895  -21.8199  -13.9643 C   0  0  2  0  0  0  0  0  0  0  0  0
   23.1144  -22.1445  -13.4858 N   0  0  0  0  0  0  0  0  0  0  0  0
   20.9837  -21.1747  -12.8989 C   0  0  0  0  0  0  0  0  0  0  0  0
   21.0932  -21.5012  -11.6933 O   0  0  0  0  0  0  0  0  0  0  0  0
   20.0705  -20.1818  -13.1912 O   0  0  0  0  0  0  0  0  0  0  0  0
  2  1  1  0
  3  2  1  0
  4  3  1  0
  5  4  1  0
  5  6  1  6
  7  5  1  0
  7  8  2  0
 10  9  1  0
 11 10  1  0
 11 13  1  0
 11 12  1  6
 13 15  1  0
 13 14  1  6
 14  7  1  0
 15 16  2  0
 18 17  1  0
 18 20  1  0
 19 18  2  0
 20 21  1  0
 21 22  1  0
 22 23  1  0
 24 23  1  1
 24 26  1  0
 25 24  1  0
 25 15  1  0
 26 27  2  0
 26 28  1  0
M  END
$$$$
