MIR.pdb
     RDKit          3D

 28 27  0  0  1  0  0  0  0  0999 V2000
   25.2766  -16.1537  -15.9646 C   0  0  0  0  0  0  0  0  0  0  0  0
   27.0434  -15.8901  -15.9733 S   0  0  0  0  0  0  0  0  0  0  0  0
   28.0271  -17.0969  -15.1045 C   0  0  0  0  0  0  0  0  0  0  0  0
   27.2596  -18.1698  -14.4108 C   0  0  0  0  0  0  0  0  0  0  0  0
   28.1494  -19.1187  -13.6746 C   0  0  2  0  0  0  0  0  0  0  0  0
   29.1074  -19.7789  -14.4985 N   0  0  0  0  0  0  0  0  0  0  0  0
   27.3204  -20.1520  -12.9552 C   0  0  0  0  0  0  0  0  0  0  0  0
   27.2868  -21.3208  -13.4370 O   0  0  0  0  0  0  0  0  0  0  0  0
   26.6082  -19.5252   -7.5829 C   0  0  0  0  0  0  0  0  0  0  0  0
   26.8766  -20.2260   -8.9170 C   0  0  0  0  0  0  0  0  0  0  0  0
   25.6115  -20.3612   -9.6863 C   0  0  2  0  0  0  0  0  0  0  0  0
   24.5704  -21.1762   -8.9542 C   0  0  0  0  0  0  0  0  0  0  0  0
   25.8189  -20.8606  -11.0989 C   0  0  2  0  0  0  0  0  0  0  0  0
   26.6165  -19.8132  -11.7942 N   0  0  0  0  0  0  0  0  0  0  0  0
   24.5816  -21.0175  -11.8765 C   0  0  0  0  0  0  0  0  0  0  0  0
   23.9241  -19.9886  -12.2184 O   0  0  0  0  0  0  0  0  0  0  0  0
   19.9099  -27.3622  -16.4465 N   0  0  0  0  0  0  0  0  0  0  0  0
   20.8540  -26.5620  -17.1574 C   0  0  0  0  0  0  0  0  0  0  0  0
   20.8550  -26.5475  -18.4425 N   0  0  0  0  0  0  0  0  0  0  0  0
   21.8196  -25.7610  -16.4918 N   0  0  0  0  0  0  0  0  0  0  0  0
   21.8805  -25.6627  -15.0597 C   0  0  0  0  0  0  0  0  0  0  0  0
   21.8078  -24.2713  -14.5191 C   0  0  0  0  0  0  0  0  0  0  0  0
   22.9782  -23.8780  -13.6848 C   0  0  0  0  0  0  0  0  0  0  0  0
   22.9485  -22.5020  -13.1394 C   0  0  2  0  0  0  0  0  0  0  0  0
   24.0870  -22.3022  -12.2713 N   0  0  0  0  0  0  0  0  0  0  0  0
   21.6880  -22.1168  -12.4585 C   0  0  0  0  0  0  0  0  0  0  0  0
   21.5641  -22.1668  -11.2118 O   0  0  0  0  0  0  0  0  0  0  0  0
   20.5886  -21.6860  -13.1734 O   0  0  0  0  0  0  0  0  0  0  0  0
  2  1  1  0
  3  2  1  0
  4  3  1  0
  5  4  1  0
  5  6  1  6
  7  5  1  0
  7  8  2  0
 10  9  1  0
 11 10  1  0
 11 13  1  0
 11 12  1  1
 13 15  1  0
 13 14  1  6
 14  7  1  0
 15 16  2  0
 18 17  1  0
 18 20  1  0
 19 18  2  0
 20 21  1  0
 21 22  1  0
 22 23  1  0
 24 23  1  1
 24 26  1  0
 25 24  1  0
 25 15  1  0
 26 27  2  0
 26 28  1  0
M  END
$$$$
