MIR.pdb
     RDKit          3D

 28 27  0  0  1  0  0  0  0  0999 V2000
   20.5312  -24.8783  -10.2220 C   0  0  0  0  0  0  0  0  0  0  0  0
   20.6079  -23.7849   -8.8114 S   0  0  0  0  0  0  0  0  0  0  0  0
   20.4111  -22.0452   -9.1481 C   0  0  0  0  0  0  0  0  0  0  0  0
   21.4473  -21.4427  -10.0339 C   0  0  0  0  0  0  0  0  0  0  0  0
   22.6929  -21.0854   -9.2889 C   0  0  2  0  0  0  0  0  0  0  0  0
   22.4754  -20.2471   -8.1565 N   0  0  0  0  0  0  0  0  0  0  0  0
   23.6765  -20.4185  -10.2162 C   0  0  0  0  0  0  0  0  0  0  0  0
   23.6029  -19.1631  -10.3499 O   0  0  0  0  0  0  0  0  0  0  0  0
   28.8323  -21.3168   -9.9443 C   0  0  0  0  0  0  0  0  0  0  0  0
   27.4177  -20.7674  -10.1443 C   0  0  0  0  0  0  0  0  0  0  0  0
   26.9462  -21.0606  -11.5235 C   0  0  2  0  0  0  0  0  0  0  0  0
   27.9559  -20.6701  -12.5780 C   0  0  0  0  0  0  0  0  0  0  0  0
   25.5776  -20.4907  -11.8234 C   0  0  2  0  0  0  0  0  0  0  0  0
   24.6330  -21.1773  -10.8999 N   0  0  0  0  0  0  0  0  0  0  0  0
   25.0907  -20.7612  -13.1837 C   0  0  0  0  0  0  0  0  0  0  0  0
   24.9205  -21.9604  -13.5590 O   0  0  0  0  0  0  0  0  0  0  0  0
   20.1676  -18.7123  -18.5580 N   0  0  0  0  0  0  0  0  0  0  0  0
   20.2084  -17.5531  -17.7265 C   0  0  0  0  0  0  0  0  0  0  0  0
   19.1198  -17.0366  -17.2793 N   0  0  0  0  0  0  0  0  0  0  0  0
   21.4297  -16.9261  -17.3623 N   0  0  0  0  0  0  0  0  0  0  0  0
   22.7006  -17.3707  -17.8638 C   0  0  0  0  0  0  0  0  0  0  0  0
   23.1581  -18.6932  -17.3391 C   0  0  0  0  0  0  0  0  0  0  0  0
   23.7541  -18.6362  -15.9745 C   0  0  0  0  0  0  0  0  0  0  0  0
   24.2421  -19.9231  -15.4293 C   0  0  2  0  0  0  0  0  0  0  0  0
   24.7934  -19.7104  -14.1100 N   0  0  0  0  0  0  0  0  0  0  0  0
   25.2004  -20.6552  -16.2932 C   0  0  0  0  0  0  0  0  0  0  0  0
   26.4406  -20.5062  -16.1848 O   0  0  0  0  0  0  0  0  0  0  0  0
   24.7649  -21.5366  -17.2622 O   0  0  0  0  0  0  0  0  0  0  0  0
  2  1  1  0
  3  2  1  0
  4  3  1  0
  5  4  1  0
  5  6  1  1
  7  5  1  0
  7  8  2  0
 10  9  1  0
 11 10  1  0
 11 13  1  0
 11 12  1  6
 13 15  1  0
 13 14  1  1
 14  7  1  0
 15 16  2  0
 18 17  1  0
 18 20  1  0
 19 18  2  0
 20 21  1  0
 21 22  1  0
 22 23  1  0
 24 23  1  6
 24 26  1  0
 25 24  1  0
 25 15  1  0
 26 27  2  0
 26 28  1  0
M  END
$$$$
