MIR.pdb
     RDKit          3D

 28 27  0  0  1  0  0  0  0  0999 V2000
   28.9226  -22.4439   -3.7582 C   0  0  0  0  0  0  0  0  0  0  0  0
   27.7272  -21.1391   -4.0022 S   0  0  0  0  0  0  0  0  0  0  0  0
   27.9731  -20.0982   -5.4286 C   0  0  0  0  0  0  0  0  0  0  0  0
   27.2241  -20.5010   -6.6527 C   0  0  0  0  0  0  0  0  0  0  0  0
   27.5571  -19.6426   -7.8301 C   0  0  2  0  0  0  0  0  0  0  0  0
   27.5472  -18.2440   -7.5541 N   0  0  0  0  0  0  0  0  0  0  0  0
   26.6064  -19.9295   -8.9642 C   0  0  0  0  0  0  0  0  0  0  0  0
   25.5601  -19.2243   -9.0492 O   0  0  0  0  0  0  0  0  0  0  0  0
   30.0635  -21.4720  -11.4634 C   0  0  0  0  0  0  0  0  0  0  0  0
   28.9473  -20.5181  -11.8959 C   0  0  0  0  0  0  0  0  0  0  0  0
   27.6875  -21.2749  -12.1209 C   0  0  2  0  0  0  0  0  0  0  0  0
   27.3396  -21.4019  -13.5861 C   0  0  0  0  0  0  0  0  0  0  0  0
   26.5205  -20.7507  -11.3138 C   0  0  2  0  0  0  0  0  0  0  0  0
   26.8864  -20.9463   -9.8839 N   0  0  0  0  0  0  0  0  0  0  0  0
   25.2619  -21.4816  -11.5188 C   0  0  0  0  0  0  0  0  0  0  0  0
   25.2213  -22.7295  -11.2976 O   0  0  0  0  0  0  0  0  0  0  0  0
   18.8542  -23.1832  -10.5784 N   0  0  0  0  0  0  0  0  0  0  0  0
   18.2726  -22.2485   -9.6701 C   0  0  0  0  0  0  0  0  0  0  0  0
   17.4838  -22.6530   -8.7395 N   0  0  0  0  0  0  0  0  0  0  0  0
   18.5309  -20.8543   -9.7509 N   0  0  0  0  0  0  0  0  0  0  0  0
   19.5194  -20.3066  -10.6382 C   0  0  0  0  0  0  0  0  0  0  0  0
   20.6491  -21.2272  -10.9693 C   0  0  0  0  0  0  0  0  0  0  0  0
   21.6862  -20.6276  -11.8557 C   0  0  0  0  0  0  0  0  0  0  0  0
   22.8169  -21.5127  -12.2162 C   0  0  2  0  0  0  0  0  0  0  0  0
   24.0650  -20.8302  -11.9592 N   0  0  0  0  0  0  0  0  0  0  0  0
   22.7829  -22.0545  -13.5968 C   0  0  0  0  0  0  0  0  0  0  0  0
   23.3314  -21.4628  -14.5565 O   0  0  0  0  0  0  0  0  0  0  0  0
   22.1392  -23.2407  -13.8868 O   0  0  0  0  0  0  0  0  0  0  0  0
  2  1  1  0
  3  2  1  0
  4  3  1  0
  5  4  1  0
  5  6  1  1
  7  5  1  0
  7  8  2  0
 10  9  1  0
 11 10  1  0
 11 13  1  0
 11 12  1  6
 13 15  1  0
 13 14  1  1
 14  7  1  0
 15 16  2  0
 18 17  1  0
 18 20  1  0
 19 18  2  0
 20 21  1  0
 21 22  1  0
 22 23  1  0
 24 23  1  6
 24 26  1  0
 25 24  1  0
 25 15  1  0
 26 27  2  0
 26 28  1  0
M  END
$$$$
