MIR.pdb
     RDKit          3D

 28 27  0  0  1  0  0  0  0  0999 V2000
   24.0690  -17.0271  -17.3807 C   0  0  0  0  0  0  0  0  0  0  0  0
   24.5879  -18.6105  -18.0247 S   0  0  0  0  0  0  0  0  0  0  0  0
   25.4599  -19.6770  -16.8929 C   0  0  0  0  0  0  0  0  0  0  0  0
   26.2984  -18.9824  -15.8750 C   0  0  0  0  0  0  0  0  0  0  0  0
   27.1003  -19.9385  -15.0523 C   0  0  2  0  0  0  0  0  0  0  0  0
   27.9078  -20.8311  -15.8163 N   0  0  0  0  0  0  0  0  0  0  0  0
   26.1900  -20.7392  -14.1564 C   0  0  0  0  0  0  0  0  0  0  0  0
   25.9350  -21.9322  -14.4895 O   0  0  0  0  0  0  0  0  0  0  0  0
   26.8261  -20.2729   -8.8982 C   0  0  0  0  0  0  0  0  0  0  0  0
   26.5236  -20.9026  -10.2601 C   0  0  0  0  0  0  0  0  0  0  0  0
   25.1421  -20.5568  -10.6871 C   0  0  2  0  0  0  0  0  0  0  0  0
   24.0957  -21.0196   -9.6999 C   0  0  0  0  0  0  0  0  0  0  0  0
   24.8189  -21.0068  -12.0946 C   0  0  2  0  0  0  0  0  0  0  0  0
   25.6523  -20.1668  -12.9983 N   0  0  0  0  0  0  0  0  0  0  0  0
   23.4234  -20.7843  -12.4991 C   0  0  0  0  0  0  0  0  0  0  0  0
   22.9965  -19.5992  -12.6437 O   0  0  0  0  0  0  0  0  0  0  0  0
   18.1550  -23.8335  -17.6913 N   0  0  0  0  0  0  0  0  0  0  0  0
   17.1311  -23.9721  -16.7068 C   0  0  0  0  0  0  0  0  0  0  0  0
   15.8932  -23.8881  -17.0418 N   0  0  0  0  0  0  0  0  0  0  0  0
   17.4254  -24.2029  -15.3367 N   0  0  0  0  0  0  0  0  0  0  0  0
   18.7707  -24.2191  -14.8324 C   0  0  0  0  0  0  0  0  0  0  0  0
   19.2298  -22.9362  -14.2186 C   0  0  0  0  0  0  0  0  0  0  0  0
   20.6385  -22.9607  -13.7331 C   0  0  0  0  0  0  0  0  0  0  0  0
   21.1401  -21.6984  -13.1442 C   0  0  2  0  0  0  0  0  0  0  0  0
   22.5187  -21.8672  -12.7434 N   0  0  0  0  0  0  0  0  0  0  0  0
   20.3270  -21.1509  -12.0308 C   0  0  0  0  0  0  0  0  0  0  0  0
   20.5493  -21.4532  -10.8345 O   0  0  0  0  0  0  0  0  0  0  0  0
   19.2815  -20.2808  -12.2658 O   0  0  0  0  0  0  0  0  0  0  0  0
  2  1  1  0
  3  2  1  0
  4  3  1  0
  5  4  1  0
  5  6  1  6
  7  5  1  0
  7  8  2  0
 10  9  1  0
 11 10  1  0
 11 13  1  0
 11 12  1  1
 13 15  1  0
 13 14  1  6
 14  7  1  0
 15 16  2  0
 18 17  1  0
 18 20  1  0
 19 18  2  0
 20 21  1  0
 21 22  1  0
 22 23  1  0
 24 23  1  1
 24 26  1  0
 25 24  1  0
 25 15  1  0
 26 27  2  0
 26 28  1  0
M  END
$$$$
