MIR.pdb
     RDKit          3D

 28 27  0  0  1  0  0  0  0  0999 V2000
   26.4524  -16.9120  -17.3145 C   0  0  0  0  0  0  0  0  0  0  0  0
   28.1893  -16.8130  -17.7201 S   0  0  0  0  0  0  0  0  0  0  0  0
   29.2204  -18.1328  -17.1087 C   0  0  0  0  0  0  0  0  0  0  0  0
   28.6030  -18.9961  -16.0623 C   0  0  0  0  0  0  0  0  0  0  0  0
   29.4969  -20.1230  -15.6561 C   0  0  2  0  0  0  0  0  0  0  0  0
   29.7789  -21.0502  -16.7016 N   0  0  0  0  0  0  0  0  0  0  0  0
   28.8974  -20.8628  -14.4875 C   0  0  0  0  0  0  0  0  0  0  0  0
   28.0656  -21.7824  -14.7358 O   0  0  0  0  0  0  0  0  0  0  0  0
   31.8831  -21.7219  -10.0739 C   0  0  0  0  0  0  0  0  0  0  0  0
   30.8887  -21.9044  -11.2232 C   0  0  0  0  0  0  0  0  0  0  0  0
   29.6093  -21.2169  -10.9055 C   0  0  2  0  0  0  0  0  0  0  0  0
   28.9942  -21.7020   -9.6131 C   0  0  0  0  0  0  0  0  0  0  0  0
   28.6132  -21.2477  -12.0435 C   0  0  2  0  0  0  0  0  0  0  0  0
   29.2592  -20.5308  -13.1772 N   0  0  0  0  0  0  0  0  0  0  0  0
   27.3563  -20.5360  -11.7711 C   0  0  0  0  0  0  0  0  0  0  0  0
   27.3797  -19.2859  -11.5597 O   0  0  0  0  0  0  0  0  0  0  0  0
   18.3283  -21.1855  -12.4348 N   0  0  0  0  0  0  0  0  0  0  0  0
   19.1397  -20.5882  -13.4457 C   0  0  0  0  0  0  0  0  0  0  0  0
   18.6000  -19.9060  -14.3919 N   0  0  0  0  0  0  0  0  0  0  0  0
   20.5539  -20.7182  -13.4553 N   0  0  0  0  0  0  0  0  0  0  0  0
   21.2625  -21.4722  -12.4584 C   0  0  0  0  0  0  0  0  0  0  0  0
   22.3635  -20.7312  -11.7713 C   0  0  0  0  0  0  0  0  0  0  0  0
   23.7312  -21.2150  -12.1119 C   0  0  0  0  0  0  0  0  0  0  0  0
   24.8445  -20.5720  -11.3779 C   0  0  2  0  0  0  0  0  0  0  0  0
   26.0916  -21.2070  -11.7396 N   0  0  0  0  0  0  0  0  0  0  0  0
   24.6846  -20.5175   -9.9040 C   0  0  0  0  0  0  0  0  0  0  0  0
   24.0827  -19.5761   -9.3353 O   0  0  0  0  0  0  0  0  0  0  0  0
   25.1973  -21.5067   -9.0893 O   0  0  0  0  0  0  0  0  0  0  0  0
  2  1  1  0
  3  2  1  0
  4  3  1  0
  5  4  1  0
  5  6  1  6
  7  5  1  0
  7  8  2  0
 10  9  1  0
 11 10  1  0
 11 13  1  0
 11 12  1  1
 13 15  1  0
 13 14  1  6
 14  7  1  0
 15 16  2  0
 18 17  1  0
 18 20  1  0
 19 18  2  0
 20 21  1  0
 21 22  1  0
 22 23  1  0
 24 23  1  6
 24 26  1  0
 25 24  1  0
 25 15  1  0
 26 27  2  0
 26 28  1  0
M  END
$$$$
