MIR.pdb
     RDKit          3D

 28 27  0  0  1  0  0  0  0  0999 V2000
   25.2520  -22.1732  -21.5555 C   0  0  0  0  0  0  0  0  0  0  0  0
   25.6357  -20.8084  -22.6422 S   0  0  0  0  0  0  0  0  0  0  0  0
   26.8344  -19.6328  -22.0421 C   0  0  0  0  0  0  0  0  0  0  0  0
   26.9883  -19.5741  -20.5608 C   0  0  0  0  0  0  0  0  0  0  0  0
   28.0183  -18.5776  -20.1363 C   0  0  2  0  0  0  0  0  0  0  0  0
   29.3545  -18.9373  -20.4791 N   0  0  0  0  0  0  0  0  0  0  0  0
   27.9339  -18.3490  -18.6487 C   0  0  0  0  0  0  0  0  0  0  0  0
   28.8227  -18.8763  -17.9197 O   0  0  0  0  0  0  0  0  0  0  0  0
   26.8548  -14.0653  -18.1689 C   0  0  0  0  0  0  0  0  0  0  0  0
   27.5009  -14.9094  -17.0676 C   0  0  0  0  0  0  0  0  0  0  0  0
   26.5024  -15.8488  -16.4922 C   0  0  2  0  0  0  0  0  0  0  0  0
   26.1456  -15.5135  -15.0624 C   0  0  0  0  0  0  0  0  0  0  0  0
   26.8899  -17.3031  -16.6441 C   0  0  2  0  0  0  0  0  0  0  0  0
   26.8999  -17.5769  -18.1075 N   0  0  0  0  0  0  0  0  0  0  0  0
   25.9338  -18.2520  -16.0559 C   0  0  0  0  0  0  0  0  0  0  0  0
   24.7609  -18.3321  -16.5310 O   0  0  0  0  0  0  0  0  0  0  0  0
   26.0889  -20.9227   -7.8010 N   0  0  0  0  0  0  0  0  0  0  0  0
   24.8321  -21.4191   -8.2603 C   0  0  0  0  0  0  0  0  0  0  0  0
   23.9148  -21.7402   -7.4193 N   0  0  0  0  0  0  0  0  0  0  0  0
   24.5415  -21.5806   -9.6411 N   0  0  0  0  0  0  0  0  0  0  0  0
   25.4646  -21.1911  -10.6708 C   0  0  0  0  0  0  0  0  0  0  0  0
   24.9624  -20.1356  -11.6020 C   0  0  0  0  0  0  0  0  0  0  0  0
   25.9094  -19.7870  -12.6985 C   0  0  0  0  0  0  0  0  0  0  0  0
   25.3215  -19.6952  -14.0541 C   0  0  2  0  0  0  0  0  0  0  0  0
   26.2817  -19.1024  -14.9575 N   0  0  0  0  0  0  0  0  0  0  0  0
   24.0160  -18.9950  -14.1330 C   0  0  0  0  0  0  0  0  0  0  0  0
   23.8999  -17.7744  -13.8714 O   0  0  0  0  0  0  0  0  0  0  0  0
   22.8643  -19.6626  -14.4981 O   0  0  0  0  0  0  0  0  0  0  0  0
  2  1  1  0
  3  2  1  0
  4  3  1  0
  5  4  1  0
  5  6  1  1
  7  5  1  0
  7  8  2  0
 10  9  1  0
 11 10  1  0
 11 13  1  0
 11 12  1  1
 13 15  1  0
 13 14  1  6
 14  7  1  0
 15 16  2  0
 18 17  1  0
 18 20  1  0
 19 18  2  0
 20 21  1  0
 21 22  1  0
 22 23  1  0
 24 23  1  1
 24 26  1  0
 25 24  1  0
 25 15  1  0
 26 27  2  0
 26 28  1  0
M  END
$$$$
