MIR.pdb
     RDKit          3D

 28 27  0  0  1  0  0  0  0  0999 V2000
   19.8546  -24.8814  -19.9265 C   0  0  0  0  0  0  0  0  0  0  0  0
   21.6022  -25.0430  -19.5933 S   0  0  0  0  0  0  0  0  0  0  0  0
   22.0445  -25.8298  -18.0558 C   0  0  0  0  0  0  0  0  0  0  0  0
   21.6096  -25.1154  -16.8220 C   0  0  0  0  0  0  0  0  0  0  0  0
   22.5670  -24.0395  -16.4220 C   0  0  2  0  0  0  0  0  0  0  0  0
   23.8864  -24.5046  -16.1480 N   0  0  0  0  0  0  0  0  0  0  0  0
   22.0421  -23.3029  -15.2161 C   0  0  0  0  0  0  0  0  0  0  0  0
   22.4251  -23.6911  -14.0751 O   0  0  0  0  0  0  0  0  0  0  0  0
   22.1606  -18.0974  -15.2351 C   0  0  0  0  0  0  0  0  0  0  0  0
   22.1527  -19.5934  -14.9113 C   0  0  0  0  0  0  0  0  0  0  0  0
   20.7874  -20.0210  -14.5066 C   0  0  2  0  0  0  0  0  0  0  0  0
   20.2079  -19.1554  -13.4117 C   0  0  0  0  0  0  0  0  0  0  0  0
   20.6967  -21.4912  -14.1624 C   0  0  2  0  0  0  0  0  0  0  0  0
   21.1602  -22.2275  -15.3706 N   0  0  0  0  0  0  0  0  0  0  0  0
   19.3339  -21.9689  -13.8887 C   0  0  0  0  0  0  0  0  0  0  0  0
   18.3852  -21.6232  -14.6556 O   0  0  0  0  0  0  0  0  0  0  0  0
   18.8218  -25.8043   -7.5965 N   0  0  0  0  0  0  0  0  0  0  0  0
   17.6903  -24.9910   -7.2881 C   0  0  0  0  0  0  0  0  0  0  0  0
   17.5464  -24.4997   -6.1093 N   0  0  0  0  0  0  0  0  0  0  0  0
   16.6881  -24.6934   -8.2495 N   0  0  0  0  0  0  0  0  0  0  0  0
   16.5514  -25.4366   -9.4715 C   0  0  0  0  0  0  0  0  0  0  0  0
   16.4525  -24.6039  -10.7086 C   0  0  0  0  0  0  0  0  0  0  0  0
   17.7643  -24.1275  -11.2309 C   0  0  0  0  0  0  0  0  0  0  0  0
   17.7090  -23.3052  -12.4608 C   0  0  2  0  0  0  0  0  0  0  0  0
   19.0340  -22.8233  -12.7793 N   0  0  0  0  0  0  0  0  0  0  0  0
   16.7308  -22.1902  -12.4345 C   0  0  0  0  0  0  0  0  0  0  0  0
   16.9706  -21.1097  -11.8455 O   0  0  0  0  0  0  0  0  0  0  0  0
   15.5048  -22.2959  -13.0599 O   0  0  0  0  0  0  0  0  0  0  0  0
  2  1  1  0
  3  2  1  0
  4  3  1  0
  5  4  1  0
  5  6  1  1
  7  5  1  0
  7  8  2  0
 10  9  1  0
 11 10  1  0
 11 13  1  0
 11 12  1  1
 13 15  1  0
 13 14  1  6
 14  7  1  0
 15 16  2  0
 18 17  1  0
 18 20  1  0
 19 18  2  0
 20 21  1  0
 21 22  1  0
 22 23  1  0
 24 23  1  1
 24 26  1  0
 25 24  1  0
 25 15  1  0
 26 27  2  0
 26 28  1  0
M  END
$$$$
