SGK.pdb
     RDKit          3D

 20 19  0  0  1  0  0  0  0  0999 V2000
   25.8842  -12.1567  -18.0867 O   0  0  0  0  0  0  0  0  0  0  0  0
   24.8754  -11.5915  -17.3101 C   0  0  0  0  0  0  0  0  0  0  0  0
   25.4393  -10.6508  -16.2669 C   0  0  2  0  0  0  0  0  0  0  0  0
   26.4628  -11.2536  -15.4741 N   0  0  0  0  0  0  0  0  0  0  0  0
   24.2960  -10.1335  -15.4588 C   0  0  0  0  0  0  0  0  0  0  0  0
   24.0243  -10.7771  -14.4088 O   0  0  0  0  0  0  0  0  0  0  0  0
   23.5425   -8.9928  -15.8215 N   0  0  0  0  0  0  0  0  0  0  0  0
   22.5186   -8.4408  -14.9918 C   0  0  0  0  0  0  0  0  0  0  0  0
   21.8874   -7.2319  -15.5723 C   0  0  0  0  0  0  0  0  0  0  0  0
   22.3925   -6.6881  -16.5847 O   0  0  0  0  0  0  0  0  0  0  0  0
   20.7184   -6.6296  -15.0478 N   0  0  0  0  0  0  0  0  0  0  0  0
   20.0252   -5.5120  -15.7105 C   0  0  1  0  0  0  0  0  0  0  0  0
   18.5798   -5.5083  -15.3750 C   0  0  0  0  0  0  0  0  0  0  0  0
   17.8466   -4.4326  -16.1176 C   0  0  0  0  0  0  0  0  0  0  0  0
   16.3694   -4.3895  -15.7315 C   0  0  0  0  0  0  0  0  0  0  0  0
   15.7155   -3.3176  -16.5851 C   0  0  0  0  0  0  0  0  0  0  0  0
   14.3209   -3.1599  -16.2634 N   0  0  0  0  0  0  0  0  0  0  0  0
   20.6551   -4.2361  -15.3680 C   0  0  0  0  0  0  0  0  0  0  0  0
   21.1012   -3.9354  -14.2537 O   0  0  0  0  0  0  0  0  0  0  0  0
   20.7670   -3.2666  -16.3815 O   0  0  0  0  0  0  0  0  0  0  0  0
  2  1  1  0
  3  2  1  0
  3  4  1  1
  5  6  2  0
  5  3  1  0
  7  5  1  0
  8  7  1  0
  9  8  1  0
 10  9  2  0
 11  9  1  0
 12 13  1  1
 12 11  1  0
 13 14  1  0
 14 15  1  0
 15 16  1  0
 16 17  1  0
 18 12  1  0
 19 18  2  0
 20 18  1  0
M  END
$$$$
