SGK.pdb
     RDKit          3D

 20 19  0  0  1  0  0  0  0  0999 V2000
   29.0862  -27.2300  -17.9298 O   0  0  0  0  0  0  0  0  0  0  0  0
   28.2768  -26.6862  -16.9351 C   0  0  0  0  0  0  0  0  0  0  0  0
   27.6106  -25.4084  -17.3986 C   0  0  2  0  0  0  0  0  0  0  0  0
   28.5429  -24.4474  -17.8954 N   0  0  0  0  0  0  0  0  0  0  0  0
   26.7811  -24.8951  -16.2689 C   0  0  0  0  0  0  0  0  0  0  0  0
   27.2973  -23.9767  -15.5757 O   0  0  0  0  0  0  0  0  0  0  0  0
   25.4900  -25.3879  -15.9677 N   0  0  0  0  0  0  0  0  0  0  0  0
   24.6951  -24.8815  -14.8938 C   0  0  0  0  0  0  0  0  0  0  0  0
   23.3897  -25.5707  -14.7601 C   0  0  0  0  0  0  0  0  0  0  0  0
   22.9174  -26.2085  -15.7327 O   0  0  0  0  0  0  0  0  0  0  0  0
   22.6150  -25.5590  -13.5752 N   0  0  0  0  0  0  0  0  0  0  0  0
   21.3504  -26.3007  -13.4361 C   0  0  1  0  0  0  0  0  0  0  0  0
   20.9850  -26.4665  -12.0076 C   0  0  0  0  0  0  0  0  0  0  0  0
   19.7795  -27.3425  -11.8473 C   0  0  0  0  0  0  0  0  0  0  0  0
   19.3587  -27.4577  -10.3835 C   0  0  0  0  0  0  0  0  0  0  0  0
   18.1723  -28.4036  -10.3328 C   0  0  0  0  0  0  0  0  0  0  0  0
   17.6410  -28.5182   -8.9993 N   0  0  0  0  0  0  0  0  0  0  0  0
   20.2798  -25.6440  -14.1873 C   0  0  0  0  0  0  0  0  0  0  0  0
   20.0969  -24.4218  -14.2511 O   0  0  0  0  0  0  0  0  0  0  0  0
   19.3806  -26.4602  -14.8979 O   0  0  0  0  0  0  0  0  0  0  0  0
  2  1  1  0
  3  2  1  0
  3  4  1  1
  5  6  2  0
  5  3  1  0
  7  5  1  0
  8  7  1  0
  9  8  1  0
 10  9  2  0
 11  9  1  0
 12 13  1  1
 12 11  1  0
 13 14  1  0
 14 15  1  0
 15 16  1  0
 16 17  1  0
 18 12  1  0
 19 18  2  0
 20 18  1  0
M  END
$$$$
