SGK.pdb
     RDKit          3D

 20 19  0  0  1  0  0  0  0  0999 V2000
   14.0155  -11.6191   -9.6155 O   0  0  0  0  0  0  0  0  0  0  0  0
   14.3955  -10.6284  -10.5180 C   0  0  0  0  0  0  0  0  0  0  0  0
   15.0625   -9.4648   -9.8163 C   0  0  2  0  0  0  0  0  0  0  0  0
   14.2022   -8.8184   -8.8774 N   0  0  0  0  0  0  0  0  0  0  0  0
   15.5863   -8.5429  -10.8669 C   0  0  0  0  0  0  0  0  0  0  0  0
   14.7200   -7.9649  -11.5782 O   0  0  0  0  0  0  0  0  0  0  0  0
   16.9654   -8.3100  -11.0776 N   0  0  0  0  0  0  0  0  0  0  0  0
   17.4620   -7.4724  -12.1232 C   0  0  0  0  0  0  0  0  0  0  0  0
   18.9315   -7.2860  -12.0717 C   0  0  0  0  0  0  0  0  0  0  0  0
   19.5722   -7.6486  -11.0549 O   0  0  0  0  0  0  0  0  0  0  0  0
   19.6856   -6.7095  -13.1221 N   0  0  0  0  0  0  0  0  0  0  0  0
   21.1567   -6.6416  -13.1101 C   0  0  1  0  0  0  0  0  0  0  0  0
   21.7164   -6.9914  -14.4390 C   0  0  0  0  0  0  0  0  0  0  0  0
   21.2366   -8.3341  -14.9006 C   0  0  0  0  0  0  0  0  0  0  0  0
   21.8852   -8.7389  -16.2229 C   0  0  0  0  0  0  0  0  0  0  0  0
   21.2919  -10.0788  -16.6199 C   0  0  0  0  0  0  0  0  0  0  0  0
   21.9733  -10.6463  -17.7545 N   0  0  0  0  0  0  0  0  0  0  0  0
   21.6103   -5.3211  -12.6714 C   0  0  0  0  0  0  0  0  0  0  0  0
   20.9780   -4.2662  -12.8076 O   0  0  0  0  0  0  0  0  0  0  0  0
   22.8661   -5.2340  -12.0428 O   0  0  0  0  0  0  0  0  0  0  0  0
  2  1  1  0
  3  2  1  0
  3  4  1  1
  5  6  2  0
  5  3  1  0
  7  5  1  0
  8  7  1  0
  9  8  1  0
 10  9  2  0
 11  9  1  0
 12 13  1  6
 12 11  1  0
 13 14  1  0
 14 15  1  0
 15 16  1  0
 16 17  1  0
 18 12  1  0
 19 18  2  0
 20 18  1  0
M  END
$$$$
