SGK.pdb
     RDKit          3D

 20 19  0  0  1  0  0  0  0  0999 V2000
   26.3155  -22.8529  -11.3301 O   0  0  0  0  0  0  0  0  0  0  0  0
   25.9504  -22.5310  -12.6353 C   0  0  0  0  0  0  0  0  0  0  0  0
   26.4570  -21.1607  -13.0312 C   0  0  2  0  0  0  0  0  0  0  0  0
   26.5309  -20.2580  -11.9270 N   0  0  0  0  0  0  0  0  0  0  0  0
   25.5938  -20.6627  -14.1423 C   0  0  0  0  0  0  0  0  0  0  0  0
   25.5149  -21.4063  -15.1579 O   0  0  0  0  0  0  0  0  0  0  0  0
   24.8930  -19.4352  -14.0904 N   0  0  0  0  0  0  0  0  0  0  0  0
   23.9658  -19.0256  -15.0974 C   0  0  0  0  0  0  0  0  0  0  0  0
   22.8230  -19.9570  -15.2502 C   0  0  0  0  0  0  0  0  0  0  0  0
   23.0266  -21.1423  -15.6100 O   0  0  0  0  0  0  0  0  0  0  0  0
   21.4764  -19.5911  -15.0110 N   0  0  0  0  0  0  0  0  0  0  0  0
   20.3961  -20.5766  -14.8359 C   0  0  1  0  0  0  0  0  0  0  0  0
   20.3685  -21.0945  -13.4457 C   0  0  0  0  0  0  0  0  0  0  0  0
   19.2912  -22.1204  -13.2635 C   0  0  0  0  0  0  0  0  0  0  0  0
   19.2354  -22.6276  -11.8237 C   0  0  0  0  0  0  0  0  0  0  0  0
   18.0776  -23.6060  -11.7391 C   0  0  0  0  0  0  0  0  0  0  0  0
   17.8692  -24.0669  -10.3910 N   0  0  0  0  0  0  0  0  0  0  0  0
   19.1049  -20.0023  -15.2165 C   0  0  0  0  0  0  0  0  0  0  0  0
   18.7633  -18.8271  -15.0338 O   0  0  0  0  0  0  0  0  0  0  0  0
   18.1695  -20.8474  -15.8415 O   0  0  0  0  0  0  0  0  0  0  0  0
  2  1  1  0
  3  2  1  0
  3  4  1  1
  5  6  2  0
  5  3  1  0
  7  5  1  0
  8  7  1  0
  9  8  1  0
 10  9  2  0
 11  9  1  0
 12 13  1  1
 12 11  1  0
 13 14  1  0
 14 15  1  0
 15 16  1  0
 16 17  1  0
 18 12  1  0
 19 18  2  0
 20 18  1  0
M  END
$$$$
