SGK.pdb
     RDKit          3D

 20 19  0  0  1  0  0  0  0  0999 V2000
   15.6768  -14.3434  -14.3757 O   0  0  0  0  0  0  0  0  0  0  0  0
   16.2915  -13.3288  -15.1060 C   0  0  0  0  0  0  0  0  0  0  0  0
   15.8846  -11.9597  -14.6048 C   0  0  2  0  0  0  0  0  0  0  0  0
   14.4804  -11.7246  -14.7166 N   0  0  0  0  0  0  0  0  0  0  0  0
   16.7106  -10.9490  -15.3287 C   0  0  0  0  0  0  0  0  0  0  0  0
   16.3592  -10.6921  -16.5123 O   0  0  0  0  0  0  0  0  0  0  0  0
   17.8265  -10.3005  -14.7502 N   0  0  0  0  0  0  0  0  0  0  0  0
   18.6987   -9.4445  -15.4904 C   0  0  0  0  0  0  0  0  0  0  0  0
   19.7503   -8.8200  -14.6532 C   0  0  0  0  0  0  0  0  0  0  0  0
   19.7285   -8.9705  -13.4071 O   0  0  0  0  0  0  0  0  0  0  0  0
   20.8102   -8.0415  -15.1776 N   0  0  0  0  0  0  0  0  0  0  0  0
   21.8742   -7.4653  -14.3382 C   0  0  1  0  0  0  0  0  0  0  0  0
   23.2161   -7.8008  -14.8752 C   0  0  0  0  0  0  0  0  0  0  0  0
   23.4029   -9.2827  -14.9996 C   0  0  0  0  0  0  0  0  0  0  0  0
   24.7759   -9.6303  -15.5715 C   0  0  0  0  0  0  0  0  0  0  0  0
   24.8046  -11.1335  -15.7823 C   0  0  0  0  0  0  0  0  0  0  0  0
   26.0088  -11.5533  -16.4509 N   0  0  0  0  0  0  0  0  0  0  0  0
   21.7006   -6.0185  -14.2030 C   0  0  0  0  0  0  0  0  0  0  0  0
   21.0949   -5.2933  -15.0021 O   0  0  0  0  0  0  0  0  0  0  0  0
   22.2647   -5.3923  -13.0764 O   0  0  0  0  0  0  0  0  0  0  0  0
  2  1  1  0
  3  2  1  0
  3  4  1  6
  5  6  2  0
  5  3  1  0
  7  5  1  0
  8  7  1  0
  9  8  1  0
 10  9  2  0
 11  9  1  0
 12 13  1  6
 12 11  1  0
 13 14  1  0
 14 15  1  0
 15 16  1  0
 16 17  1  0
 18 12  1  0
 19 18  2  0
 20 18  1  0
M  END
$$$$
