SGK.pdb
     RDKit          3D

 20 19  0  0  1  0  0  0  0  0999 V2000
   27.8357  -26.0040  -17.5015 O   0  0  0  0  0  0  0  0  0  0  0  0
   27.8601  -24.9344  -16.6095 C   0  0  0  0  0  0  0  0  0  0  0  0
   27.9801  -23.6106  -17.3337 C   0  0  2  0  0  0  0  0  0  0  0  0
   29.1419  -23.5360  -18.1609 N   0  0  0  0  0  0  0  0  0  0  0  0
   27.9158  -22.5270  -16.3093 C   0  0  0  0  0  0  0  0  0  0  0  0
   28.9558  -21.8256  -16.1793 O   0  0  0  0  0  0  0  0  0  0  0  0
   26.7722  -22.2761  -15.5157 N   0  0  0  0  0  0  0  0  0  0  0  0
   26.6185  -21.0969  -14.7235 C   0  0  0  0  0  0  0  0  0  0  0  0
   25.3605  -21.0816  -13.9400 C   0  0  0  0  0  0  0  0  0  0  0  0
   24.2636  -21.2866  -14.5150 O   0  0  0  0  0  0  0  0  0  0  0  0
   25.3087  -20.8445  -12.5452 N   0  0  0  0  0  0  0  0  0  0  0  0
   24.0466  -20.7719  -11.7899 C   0  0  1  0  0  0  0  0  0  0  0  0
   24.2916  -20.3772  -10.3808 C   0  0  0  0  0  0  0  0  0  0  0  0
   23.0178  -20.3387   -9.5920 C   0  0  0  0  0  0  0  0  0  0  0  0
   23.0339  -21.3507   -8.4480 C   0  0  0  0  0  0  0  0  0  0  0  0
   21.6655  -21.3055   -7.7921 C   0  0  0  0  0  0  0  0  0  0  0  0
   21.5531  -22.2718   -6.7304 N   0  0  0  0  0  0  0  0  0  0  0  0
   23.1046  -19.8616  -12.4424 C   0  0  0  0  0  0  0  0  0  0  0  0
   23.3951  -18.7638  -12.9339 O   0  0  0  0  0  0  0  0  0  0  0  0
   21.7570  -20.2582  -12.5220 O   0  0  0  0  0  0  0  0  0  0  0  0
  2  1  1  0
  3  2  1  0
  3  4  1  1
  5  6  2  0
  5  3  1  0
  7  5  1  0
  8  7  1  0
  9  8  1  0
 10  9  2  0
 11  9  1  0
 12 13  1  1
 12 11  1  0
 13 14  1  0
 14 15  1  0
 15 16  1  0
 16 17  1  0
 18 12  1  0
 19 18  2  0
 20 18  1  0
M  END
$$$$
