SGK.pdb
     RDKit          3D

 20 19  0  0  1  0  0  0  0  0999 V2000
   24.2930  -12.9675  -19.5980 O   0  0  0  0  0  0  0  0  0  0  0  0
   23.5919  -12.4184  -18.5268 C   0  0  0  0  0  0  0  0  0  0  0  0
   24.4494  -11.4501  -17.7404 C   0  0  2  0  0  0  0  0  0  0  0  0
   25.6441  -12.0508  -17.2389 N   0  0  0  0  0  0  0  0  0  0  0  0
   23.5952  -10.8554  -16.6706 C   0  0  0  0  0  0  0  0  0  0  0  0
   23.1616  -11.6569  -15.7988 O   0  0  0  0  0  0  0  0  0  0  0  0
   23.2729   -9.4795  -16.6100 N   0  0  0  0  0  0  0  0  0  0  0  0
   22.3568   -8.9364  -15.6575 C   0  0  0  0  0  0  0  0  0  0  0  0
   22.3647   -7.4547  -15.6213 C   0  0  0  0  0  0  0  0  0  0  0  0
   23.1119   -6.8145  -16.4008 O   0  0  0  0  0  0  0  0  0  0  0  0
   21.5632   -6.6879  -14.7415 N   0  0  0  0  0  0  0  0  0  0  0  0
   21.5835   -5.2157  -14.7148 C   0  0  1  0  0  0  0  0  0  0  0  0
   20.2059   -4.6645  -14.7075 C   0  0  0  0  0  0  0  0  0  0  0  0
   19.4397   -5.0854  -15.9249 C   0  0  0  0  0  0  0  0  0  0  0  0
   18.0010   -4.5738  -15.8886 C   0  0  0  0  0  0  0  0  0  0  0  0
   17.3280   -5.0415  -17.1666 C   0  0  0  0  0  0  0  0  0  0  0  0
   15.9316   -4.6910  -17.1906 N   0  0  0  0  0  0  0  0  0  0  0  0
   22.3583   -4.7292  -13.5725 C   0  0  0  0  0  0  0  0  0  0  0  0
   22.8157   -3.5856  -13.4538 O   0  0  0  0  0  0  0  0  0  0  0  0
   22.6084   -5.6275  -12.5189 O   0  0  0  0  0  0  0  0  0  0  0  0
  2  1  1  0
  3  2  1  0
  3  4  1  1
  5  6  2  0
  5  3  1  0
  7  5  1  0
  8  7  1  0
  9  8  1  0
 10  9  2  0
 11  9  1  0
 12 13  1  1
 12 11  1  0
 13 14  1  0
 14 15  1  0
 15 16  1  0
 16 17  1  0
 18 12  1  0
 19 18  2  0
 20 18  1  0
M  END
$$$$
