SGK.pdb
     RDKit          3D

 20 19  0  0  1  0  0  0  0  0999 V2000
   19.6487  -13.7285  -15.9866 O   0  0  0  0  0  0  0  0  0  0  0  0
   18.8247  -13.0054  -16.8460 C   0  0  0  0  0  0  0  0  0  0  0  0
   19.5315  -11.7851  -17.3963 C   0  0  2  0  0  0  0  0  0  0  0  0
   20.8635  -12.0653  -17.8282 N   0  0  0  0  0  0  0  0  0  0  0  0
   19.4617  -10.7152  -16.3579 C   0  0  0  0  0  0  0  0  0  0  0  0
   18.4735  -10.7662  -15.5760 O   0  0  0  0  0  0  0  0  0  0  0  0
   20.4296   -9.6916  -16.2320 N   0  0  0  0  0  0  0  0  0  0  0  0
   20.4339   -8.7533  -15.1544 C   0  0  0  0  0  0  0  0  0  0  0  0
   21.4407   -7.6786  -15.3221 C   0  0  0  0  0  0  0  0  0  0  0  0
   22.6517   -7.9150  -15.0906 O   0  0  0  0  0  0  0  0  0  0  0  0
   21.1214   -6.3635  -15.7379 N   0  0  0  0  0  0  0  0  0  0  0  0
   22.1432   -5.3601  -16.0812 C   0  0  1  0  0  0  0  0  0  0  0  0
   21.6149   -4.3749  -17.0569 C   0  0  0  0  0  0  0  0  0  0  0  0
   22.6479   -3.3502  -17.4164 C   0  0  0  0  0  0  0  0  0  0  0  0
   22.0994   -2.3208  -18.4026 C   0  0  0  0  0  0  0  0  0  0  0  0
   23.2432   -1.3874  -18.7566 C   0  0  0  0  0  0  0  0  0  0  0  0
   22.8341   -0.3800  -19.7006 N   0  0  0  0  0  0  0  0  0  0  0  0
   22.6457   -4.6996  -14.8758 C   0  0  0  0  0  0  0  0  0  0  0  0
   23.7903   -4.2527  -14.7298 O   0  0  0  0  0  0  0  0  0  0  0  0
   21.7630   -4.5564  -13.7895 O   0  0  0  0  0  0  0  0  0  0  0  0
  2  1  1  0
  3  2  1  0
  3  4  1  1
  5  6  2  0
  5  3  1  0
  7  5  1  0
  8  7  1  0
  9  8  1  0
 10  9  2  0
 11  9  1  0
 12 13  1  6
 12 11  1  0
 13 14  1  0
 14 15  1  0
 15 16  1  0
 16 17  1  0
 18 12  1  0
 19 18  2  0
 20 18  1  0
M  END
$$$$
