SGK.pdb
     RDKit          3D

 20 19  0  0  1  0  0  0  0  0999 V2000
   16.8440  -13.1817  -18.5499 O   0  0  0  0  0  0  0  0  0  0  0  0
   17.1199  -12.2500  -17.5518 C   0  0  0  0  0  0  0  0  0  0  0  0
   18.2274  -12.7278  -16.6374 C   0  0  2  0  0  0  0  0  0  0  0  0
   17.9607  -14.0106  -16.0692 N   0  0  0  0  0  0  0  0  0  0  0  0
   18.4584  -11.6666  -15.6136 C   0  0  0  0  0  0  0  0  0  0  0  0
   17.7945  -11.7729  -14.5466 O   0  0  0  0  0  0  0  0  0  0  0  0
   19.3606  -10.5930  -15.7984 N   0  0  0  0  0  0  0  0  0  0  0  0
   19.5446   -9.5565  -14.8324 C   0  0  0  0  0  0  0  0  0  0  0  0
   20.6257   -8.6091  -15.1936 C   0  0  0  0  0  0  0  0  0  0  0  0
   21.3145   -8.8102  -16.2237 O   0  0  0  0  0  0  0  0  0  0  0  0
   20.9452   -7.4579  -14.4340 N   0  0  0  0  0  0  0  0  0  0  0  0
   21.8081   -6.3769  -14.9396 C   0  0  1  0  0  0  0  0  0  0  0  0
   21.2574   -5.7969  -16.1894 C   0  0  0  0  0  0  0  0  0  0  0  0
   22.1477   -4.7212  -16.7341 C   0  0  0  0  0  0  0  0  0  0  0  0
   21.6230   -4.1754  -18.0607 C   0  0  0  0  0  0  0  0  0  0  0  0
   22.5796   -3.0829  -18.5040 C   0  0  0  0  0  0  0  0  0  0  0  0
   22.3031   -2.6483  -19.8487 N   0  0  0  0  0  0  0  0  0  0  0  0
   22.0039   -5.3493  -13.9161 C   0  0  0  0  0  0  0  0  0  0  0  0
   21.1515   -4.9851  -13.0964 O   0  0  0  0  0  0  0  0  0  0  0  0
   23.2600   -4.7188  -13.8512 O   0  0  0  0  0  0  0  0  0  0  0  0
  2  1  1  0
  3  2  1  0
  3  4  1  1
  5  6  2  0
  5  3  1  0
  7  5  1  0
  8  7  1  0
  9  8  1  0
 10  9  2  0
 11  9  1  0
 12 13  1  6
 12 11  1  0
 13 14  1  0
 14 15  1  0
 15 16  1  0
 16 17  1  0
 18 12  1  0
 19 18  2  0
 20 18  1  0
M  END
$$$$
