SGK.pdb
     RDKit          3D

 20 19  0  0  1  0  0  0  0  0999 V2000
   17.8289  -11.2513  -17.8992 O   0  0  0  0  0  0  0  0  0  0  0  0
   18.5264  -10.6948  -16.8296 C   0  0  0  0  0  0  0  0  0  0  0  0
   18.1110  -11.3155  -15.5131 C   0  0  2  0  0  0  0  0  0  0  0  0
   16.7076  -11.5696  -15.4399 N   0  0  0  0  0  0  0  0  0  0  0  0
   18.6071  -10.4299  -14.4188 C   0  0  0  0  0  0  0  0  0  0  0  0
   19.8598  -10.3291  -14.3132 O   0  0  0  0  0  0  0  0  0  0  0  0
   17.7499   -9.7317  -13.5366 N   0  0  0  0  0  0  0  0  0  0  0  0
   18.2218   -8.7659  -12.5953 C   0  0  0  0  0  0  0  0  0  0  0  0
   17.1277   -8.0555  -11.8917 C   0  0  0  0  0  0  0  0  0  0  0  0
   16.0973   -7.7140  -12.5223 O   0  0  0  0  0  0  0  0  0  0  0  0
   17.1653   -7.7254  -10.5155 N   0  0  0  0  0  0  0  0  0  0  0  0
   16.0504   -7.0620   -9.8187 C   0  0  1  0  0  0  0  0  0  0  0  0
   15.2052   -8.0508   -9.1049 C   0  0  0  0  0  0  0  0  0  0  0  0
   13.9395   -7.4275   -8.5989 C   0  0  0  0  0  0  0  0  0  0  0  0
   13.0194   -8.4643   -7.9576 C   0  0  0  0  0  0  0  0  0  0  0  0
   11.7379   -7.7471   -7.5724 C   0  0  0  0  0  0  0  0  0  0  0  0
   10.7587   -8.6585   -7.0394 N   0  0  0  0  0  0  0  0  0  0  0  0
   16.5495   -6.0311   -8.9076 C   0  0  0  0  0  0  0  0  0  0  0  0
   17.6658   -6.0284   -8.3737 O   0  0  0  0  0  0  0  0  0  0  0  0
   15.6981   -4.9516   -8.6085 O   0  0  0  0  0  0  0  0  0  0  0  0
  2  1  1  0
  3  2  1  0
  3  4  1  6
  5  6  2  0
  5  3  1  0
  7  5  1  0
  8  7  1  0
  9  8  1  0
 10  9  2  0
 11  9  1  0
 12 13  1  1
 12 11  1  0
 13 14  1  0
 14 15  1  0
 15 16  1  0
 16 17  1  0
 18 12  1  0
 19 18  2  0
 20 18  1  0
M  END
$$$$
