SGK.pdb
     RDKit          3D

 20 19  0  0  1  0  0  0  0  0999 V2000
   26.8434  -13.1050  -17.7065 O   0  0  0  0  0  0  0  0  0  0  0  0
   25.6397  -12.4820  -17.3848 C   0  0  0  0  0  0  0  0  0  0  0  0
   25.8596  -11.0618  -16.9096 C   0  0  2  0  0  0  0  0  0  0  0  0
   26.9027  -10.9585  -15.9395 N   0  0  0  0  0  0  0  0  0  0  0  0
   24.5489  -10.5394  -16.4230 C   0  0  0  0  0  0  0  0  0  0  0  0
   23.7161  -11.4051  -16.0387 O   0  0  0  0  0  0  0  0  0  0  0  0
   24.2289   -9.1623  -16.3827 N   0  0  0  0  0  0  0  0  0  0  0  0
   23.0426   -8.6570  -15.7671 C   0  0  0  0  0  0  0  0  0  0  0  0
   23.0008   -7.1764  -15.7114 C   0  0  0  0  0  0  0  0  0  0  0  0
   23.9383   -6.5056  -16.2083 O   0  0  0  0  0  0  0  0  0  0  0  0
   21.9442   -6.4440  -15.1184 N   0  0  0  0  0  0  0  0  0  0  0  0
   21.8536   -4.9754  -15.1782 C   0  0  1  0  0  0  0  0  0  0  0  0
   20.4488   -4.5361  -15.3655 C   0  0  0  0  0  0  0  0  0  0  0  0
   19.8748   -5.0632  -16.6457 C   0  0  0  0  0  0  0  0  0  0  0  0
   18.4581   -4.5437  -16.8828 C   0  0  0  0  0  0  0  0  0  0  0  0
   17.9191   -5.2590  -18.1086 C   0  0  0  0  0  0  0  0  0  0  0  0
   16.6362   -4.7394  -18.5056 N   0  0  0  0  0  0  0  0  0  0  0  0
   22.4463   -4.3712  -13.9843 C   0  0  0  0  0  0  0  0  0  0  0  0
   22.7815   -3.1851  -13.8745 O   0  0  0  0  0  0  0  0  0  0  0  0
   22.6559   -5.1981  -12.8654 O   0  0  0  0  0  0  0  0  0  0  0  0
  2  1  1  0
  3  2  1  0
  3  4  1  1
  5  6  2  0
  5  3  1  0
  7  5  1  0
  8  7  1  0
  9  8  1  0
 10  9  2  0
 11  9  1  0
 12 13  1  1
 12 11  1  0
 13 14  1  0
 14 15  1  0
 15 16  1  0
 16 17  1  0
 18 12  1  0
 19 18  2  0
 20 18  1  0
M  END
$$$$
