SGK.pdb
     RDKit          3D

 20 19  0  0  1  0  0  0  0  0999 V2000
   12.7654  -10.5746   -8.7971 O   0  0  0  0  0  0  0  0  0  0  0  0
   13.4617   -9.3691   -8.7488 C   0  0  0  0  0  0  0  0  0  0  0  0
   14.3530   -9.1941   -9.9596 C   0  0  2  0  0  0  0  0  0  0  0  0
   15.2562  -10.2850  -10.1437 N   0  0  0  0  0  0  0  0  0  0  0  0
   15.0406   -7.8758   -9.8286 C   0  0  0  0  0  0  0  0  0  0  0  0
   14.3248   -6.9148   -9.4354 O   0  0  0  0  0  0  0  0  0  0  0  0
   16.4111   -7.6829  -10.1202 N   0  0  0  0  0  0  0  0  0  0  0  0
   17.0873   -6.4445   -9.8955 C   0  0  0  0  0  0  0  0  0  0  0  0
   18.5250   -6.4928  -10.2528 C   0  0  0  0  0  0  0  0  0  0  0  0
   19.3495   -7.0067   -9.4579 O   0  0  0  0  0  0  0  0  0  0  0  0
   19.0486   -5.9839  -11.4657 N   0  0  0  0  0  0  0  0  0  0  0  0
   20.3215   -6.4441  -12.0458 C   0  0  1  0  0  0  0  0  0  0  0  0
   20.0877   -7.2571  -13.2649 C   0  0  0  0  0  0  0  0  0  0  0  0
   21.3679   -7.8218  -13.8021 C   0  0  0  0  0  0  0  0  0  0  0  0
   21.1189   -8.7472  -14.9915 C   0  0  0  0  0  0  0  0  0  0  0  0
   22.4645   -9.3166  -15.4040 C   0  0  0  0  0  0  0  0  0  0  0  0
   22.3424  -10.2056  -16.5301 N   0  0  0  0  0  0  0  0  0  0  0  0
   21.2043   -5.3102  -12.3226 C   0  0  0  0  0  0  0  0  0  0  0  0
   22.4313   -5.3781  -12.4678 O   0  0  0  0  0  0  0  0  0  0  0  0
   20.6196   -4.0353  -12.4344 O   0  0  0  0  0  0  0  0  0  0  0  0
  2  1  1  0
  3  2  1  0
  3  4  1  1
  5  6  2  0
  5  3  1  0
  7  5  1  0
  8  7  1  0
  9  8  1  0
 10  9  2  0
 11  9  1  0
 12 13  1  6
 12 11  1  0
 13 14  1  0
 14 15  1  0
 15 16  1  0
 16 17  1  0
 18 12  1  0
 19 18  2  0
 20 18  1  0
M  END
$$$$
