SGK.pdb
     RDKit          3D

 20 19  0  0  1  0  0  0  0  0999 V2000
   26.8372   -9.1240  -19.9717 O   0  0  0  0  0  0  0  0  0  0  0  0
   25.7905   -9.1451  -20.8906 C   0  0  0  0  0  0  0  0  0  0  0  0
   24.7060   -8.1566  -20.5193 C   0  0  2  0  0  0  0  0  0  0  0  0
   25.1700   -6.8060  -20.5052 N   0  0  0  0  0  0  0  0  0  0  0  0
   24.1231   -8.5928  -19.2163 C   0  0  0  0  0  0  0  0  0  0  0  0
   23.5471   -9.7147  -19.2154 O   0  0  0  0  0  0  0  0  0  0  0  0
   24.1954   -7.8176  -18.0354 N   0  0  0  0  0  0  0  0  0  0  0  0
   23.6960   -8.2707  -16.7757 C   0  0  0  0  0  0  0  0  0  0  0  0
   22.2190   -8.1991  -16.6751 C   0  0  0  0  0  0  0  0  0  0  0  0
   21.5539   -7.6768  -17.6029 O   0  0  0  0  0  0  0  0  0  0  0  0
   21.4837   -8.6940  -15.5711 N   0  0  0  0  0  0  0  0  0  0  0  0
   20.0198   -8.5756  -15.4639 C   0  0  1  0  0  0  0  0  0  0  0  0
   19.4195   -9.8350  -14.9588 C   0  0  0  0  0  0  0  0  0  0  0  0
   17.9220   -9.7772  -14.9815 C   0  0  0  0  0  0  0  0  0  0  0  0
   17.3013  -11.0806  -14.4825 C   0  0  0  0  0  0  0  0  0  0  0  0
   15.8023  -10.9727  -14.6975 C   0  0  0  0  0  0  0  0  0  0  0  0
   15.1292  -12.2034  -14.3727 N   0  0  0  0  0  0  0  0  0  0  0  0
   19.6528   -7.4354  -14.6230 C   0  0  0  0  0  0  0  0  0  0  0  0
   20.2842   -7.0446  -13.6332 O   0  0  0  0  0  0  0  0  0  0  0  0
   18.4893   -6.7194  -14.9595 O   0  0  0  0  0  0  0  0  0  0  0  0
  2  1  1  0
  3  2  1  0
  3  4  1  1
  5  6  2  0
  5  3  1  0
  7  5  1  0
  8  7  1  0
  9  8  1  0
 10  9  2  0
 11  9  1  0
 12 13  1  1
 12 11  1  0
 13 14  1  0
 14 15  1  0
 15 16  1  0
 16 17  1  0
 18 12  1  0
 19 18  2  0
 20 18  1  0
M  END
$$$$
