SGK.pdb
     RDKit          3D

 20 19  0  0  1  0  0  0  0  0999 V2000
   24.9340  -13.0310  -17.4573 O   0  0  0  0  0  0  0  0  0  0  0  0
   24.7667  -11.6883  -17.1264 C   0  0  0  0  0  0  0  0  0  0  0  0
   24.6294  -11.4982  -15.6310 C   0  0  2  0  0  0  0  0  0  0  0  0
   23.9108  -12.5602  -15.0022 N   0  0  0  0  0  0  0  0  0  0  0  0
   24.0189  -10.1560  -15.3997 C   0  0  0  0  0  0  0  0  0  0  0  0
   24.6576   -9.1706  -15.8596 O   0  0  0  0  0  0  0  0  0  0  0  0
   22.7986   -9.9668  -14.7099 N   0  0  0  0  0  0  0  0  0  0  0  0
   22.2501   -8.6755  -14.4393 C   0  0  0  0  0  0  0  0  0  0  0  0
   21.1424   -8.3101  -15.3538 C   0  0  0  0  0  0  0  0  0  0  0  0
   21.2909   -8.4301  -16.5946 O   0  0  0  0  0  0  0  0  0  0  0  0
   19.8901   -7.8200  -14.9113 N   0  0  0  0  0  0  0  0  0  0  0  0
   18.7956   -7.4679  -15.8315 C   0  0  1  0  0  0  0  0  0  0  0  0
   17.5650   -8.2329  -15.5122 C   0  0  0  0  0  0  0  0  0  0  0  0
   17.6767   -9.6612  -15.9524 C   0  0  0  0  0  0  0  0  0  0  0  0
   16.3883  -10.4356  -15.6815 C   0  0  0  0  0  0  0  0  0  0  0  0
   16.6298  -11.8704  -16.1150 C   0  0  0  0  0  0  0  0  0  0  0  0
   15.4881  -12.7058  -15.8463 N   0  0  0  0  0  0  0  0  0  0  0  0
   18.5467   -6.0259  -15.8122 C   0  0  0  0  0  0  0  0  0  0  0  0
   18.8019   -5.2689  -14.8672 O   0  0  0  0  0  0  0  0  0  0  0  0
   17.9710   -5.4439  -16.9566 O   0  0  0  0  0  0  0  0  0  0  0  0
  2  1  1  0
  3  2  1  0
  3  4  1  6
  5  6  2  0
  5  3  1  0
  7  5  1  0
  8  7  1  0
  9  8  1  0
 10  9  2  0
 11  9  1  0
 12 13  1  1
 12 11  1  0
 13 14  1  0
 14 15  1  0
 15 16  1  0
 16 17  1  0
 18 12  1  0
 19 18  2  0
 20 18  1  0
M  END
$$$$
