SGK.pdb
     RDKit          3D

 20 19  0  0  1  0  0  0  0  0999 V2000
   20.0152   -9.4206  -16.7962 O   0  0  0  0  0  0  0  0  0  0  0  0
   19.9143   -9.4729  -15.4079 C   0  0  0  0  0  0  0  0  0  0  0  0
   20.7075   -8.3633  -14.7517 C   0  0  2  0  0  0  0  0  0  0  0  0
   22.0994   -8.4175  -15.0668 N   0  0  0  0  0  0  0  0  0  0  0  0
   20.4330   -8.4168  -13.2855 C   0  0  0  0  0  0  0  0  0  0  0  0
   21.2382   -9.1000  -12.5961 O   0  0  0  0  0  0  0  0  0  0  0  0
   19.3436   -7.7524  -12.6752 N   0  0  0  0  0  0  0  0  0  0  0  0
   19.0976   -7.7923  -11.2683 C   0  0  0  0  0  0  0  0  0  0  0  0
   17.7988   -7.1886  -10.8869 C   0  0  0  0  0  0  0  0  0  0  0  0
   17.2947   -6.2877  -11.6011 O   0  0  0  0  0  0  0  0  0  0  0  0
   17.0650   -7.5692   -9.7376 N   0  0  0  0  0  0  0  0  0  0  0  0
   15.7391   -7.0167   -9.4127 C   0  0  1  0  0  0  0  0  0  0  0  0
   14.9455   -7.9767   -8.6064 C   0  0  0  0  0  0  0  0  0  0  0  0
   13.5574   -7.4691   -8.3579 C   0  0  0  0  0  0  0  0  0  0  0  0
   12.7381   -8.4555   -7.5280 C   0  0  0  0  0  0  0  0  0  0  0  0
   11.3766   -7.8239   -7.2990 C   0  0  0  0  0  0  0  0  0  0  0  0
   10.4731   -8.7327   -6.6423 N   0  0  0  0  0  0  0  0  0  0  0  0
   15.8681   -5.7277   -8.7320 C   0  0  0  0  0  0  0  0  0  0  0  0
   15.0407   -4.8087   -8.7784 O   0  0  0  0  0  0  0  0  0  0  0  0
   17.0230   -5.5061   -7.9596 O   0  0  0  0  0  0  0  0  0  0  0  0
  2  1  1  0
  3  2  1  0
  3  4  1  1
  5  6  2  0
  5  3  1  0
  7  5  1  0
  8  7  1  0
  9  8  1  0
 10  9  2  0
 11  9  1  0
 12 13  1  1
 12 11  1  0
 13 14  1  0
 14 15  1  0
 15 16  1  0
 16 17  1  0
 18 12  1  0
 19 18  2  0
 20 18  1  0
M  END
$$$$
