IGE.pdb
     RDKit          3D

 22 21  0  0  1  0  0  0  0  0999 V2000
   24.4305  -16.5356  -16.9013 C   0  0  0  0  0  0  0  0  0  0  0  0
   23.7204  -15.2215  -17.0501 C   0  0  0  0  0  0  0  0  0  0  0  0
   24.5624  -14.0989  -16.4261 C   0  0  2  0  0  0  0  0  0  0  0  0
   24.7628  -14.4649  -14.9955 C   0  0  0  0  0  0  0  0  0  0  0  0
   23.7600  -12.8344  -16.6461 C   0  0  2  0  0  0  0  0  0  0  0  0
   23.7345  -12.6457  -18.1008 N   0  0  0  0  0  0  0  0  0  0  0  0
   24.3104  -11.6469  -15.9871 C   0  0  0  0  0  0  0  0  0  0  0  0
   24.2199  -11.5519  -14.7237 O   0  0  0  0  0  0  0  0  0  0  0  0
   24.9453  -10.5830  -16.6657 N   0  0  0  0  0  0  0  0  0  0  0  0
   25.3849   -9.4331  -15.9224 C   0  0  0  0  0  0  0  0  0  0  0  0
   24.3337   -8.3745  -15.8692 C   0  0  0  0  0  0  0  0  0  0  0  0
   24.4998   -7.2889  -16.4818 O   0  0  0  0  0  0  0  0  0  0  0  0
   23.1310   -8.5460  -15.1414 N   0  0  0  0  0  0  0  0  0  0  0  0
   22.0134   -7.6107  -15.2346 C   0  0  1  0  0  0  0  0  0  0  0  0
   20.7616   -8.4701  -15.3693 C   0  0  0  0  0  0  0  0  0  0  0  0
   19.5719   -7.5390  -15.3884 C   0  0  0  0  0  0  0  0  0  0  0  0
   18.3028   -8.3127  -15.4890 C   0  0  0  0  0  0  0  0  0  0  0  0
   17.1652   -7.7540  -15.5074 O   0  0  0  0  0  0  0  0  0  0  0  0
   21.9511   -6.7304  -14.0635 C   0  0  0  0  0  0  0  0  0  0  0  0
   21.4140   -5.4672  -14.1599 O   0  0  0  0  0  0  0  0  0  0  0  0
   18.3480   -9.6879  -15.5658 O   0  0  0  0  0  0  0  0  0  0  0  0
   22.3895   -7.1278  -12.9639 O   0  0  0  0  0  0  0  0  0  0  0  0
  2  3  1  0
  2  1  1  0
  3  5  1  0
  3  4  1  1
  5  7  1  0
  5  6  1  6
  7  8  2  0
  9 10  1  0
  9  7  1  0
 10 11  1  0
 11 12  2  0
 11 13  1  0
 13 14  1  0
 14 15  1  1
 15 16  1  0
 17 21  1  0
 17 16  1  0
 18 17  2  0
 19 20  1  0
 19 14  1  0
 22 19  2  0
M  END
$$$$
