IGE.pdb
     RDKit          3D

 22 21  0  0  1  0  0  0  0  0999 V2000
   22.9573  -17.7754  -14.8774 C   0  0  0  0  0  0  0  0  0  0  0  0
   24.0221  -17.1254  -15.7124 C   0  0  0  0  0  0  0  0  0  0  0  0
   23.9544  -15.5997  -15.5505 C   0  0  2  0  0  0  0  0  0  0  0  0
   22.5763  -15.1925  -15.9452 C   0  0  0  0  0  0  0  0  0  0  0  0
   25.0507  -15.0588  -16.4429 C   0  0  2  0  0  0  0  0  0  0  0  0
   26.2558  -15.8049  -16.0638 N   0  0  0  0  0  0  0  0  0  0  0  0
   25.2808  -13.6175  -16.3120 C   0  0  0  0  0  0  0  0  0  0  0  0
   26.3309  -13.2176  -15.7199 O   0  0  0  0  0  0  0  0  0  0  0  0
   24.4056  -12.6242  -16.8049 N   0  0  0  0  0  0  0  0  0  0  0  0
   24.7662  -11.2380  -16.6766 C   0  0  0  0  0  0  0  0  0  0  0  0
   23.7179  -10.3395  -17.2439 C   0  0  0  0  0  0  0  0  0  0  0  0
   22.6890  -10.8280  -17.7770 O   0  0  0  0  0  0  0  0  0  0  0  0
   23.8367   -8.9287  -17.2058 N   0  0  0  0  0  0  0  0  0  0  0  0
   22.7501   -8.0355  -17.5984 C   0  0  1  0  0  0  0  0  0  0  0  0
   21.6345   -8.2672  -16.5858 C   0  0  0  0  0  0  0  0  0  0  0  0
   22.0840   -7.6726  -15.2716 C   0  0  0  0  0  0  0  0  0  0  0  0
   21.0394   -7.8615  -14.2266 C   0  0  0  0  0  0  0  0  0  0  0  0
   19.9201   -8.4027  -14.4736 O   0  0  0  0  0  0  0  0  0  0  0  0
   23.1876   -6.6362  -17.6223 C   0  0  0  0  0  0  0  0  0  0  0  0
   22.3662   -5.6500  -18.1182 O   0  0  0  0  0  0  0  0  0  0  0  0
   21.2813   -7.4383  -12.9375 O   0  0  0  0  0  0  0  0  0  0  0  0
   24.3182   -6.3316  -17.1883 O   0  0  0  0  0  0  0  0  0  0  0  0
  2  3  1  0
  2  1  1  0
  3  5  1  0
  3  4  1  6
  5  7  1  0
  5  6  1  1
  7  8  2  0
  9 10  1  0
  9  7  1  0
 10 11  1  0
 11 12  2  0
 11 13  1  0
 13 14  1  0
 14 15  1  1
 15 16  1  0
 17 21  1  0
 17 16  1  0
 18 17  2  0
 19 20  1  0
 19 14  1  0
 22 19  2  0
M  END
$$$$
