IGE.pdb
     RDKit          3D

 22 21  0  0  1  0  0  0  0  0999 V2000
   26.5025  -15.5112  -17.9541 C   0  0  0  0  0  0  0  0  0  0  0  0
   25.2389  -15.2227  -17.1969 C   0  0  0  0  0  0  0  0  0  0  0  0
   25.5779  -14.6398  -15.8171 C   0  0  2  0  0  0  0  0  0  0  0  0
   26.3161  -15.7026  -15.0780 C   0  0  0  0  0  0  0  0  0  0  0  0
   24.2442  -14.2610  -15.2098 C   0  0  2  0  0  0  0  0  0  0  0  0
   23.4261  -15.4758  -15.2951 N   0  0  0  0  0  0  0  0  0  0  0  0
   23.5708  -13.1444  -15.8786 C   0  0  0  0  0  0  0  0  0  0  0  0
   22.5156  -13.3783  -16.5457 O   0  0  0  0  0  0  0  0  0  0  0  0
   24.0168  -11.8048  -15.8342 N   0  0  0  0  0  0  0  0  0  0  0  0
   23.2322  -10.7776  -16.4644 C   0  0  0  0  0  0  0  0  0  0  0  0
   22.6520   -9.8334  -15.4643 C   0  0  0  0  0  0  0  0  0  0  0  0
   22.6502  -10.1310  -14.2425 O   0  0  0  0  0  0  0  0  0  0  0  0
   22.0913   -8.5892  -15.8429 N   0  0  0  0  0  0  0  0  0  0  0  0
   21.4889   -7.6709  -14.8804 C   0  0  1  0  0  0  0  0  0  0  0  0
   21.6516   -6.2774  -15.4767 C   0  0  0  0  0  0  0  0  0  0  0  0
   20.8487   -6.2346  -16.7558 C   0  0  0  0  0  0  0  0  0  0  0  0
   21.0103   -4.9171  -17.4319 C   0  0  0  0  0  0  0  0  0  0  0  0
   21.7280   -3.9894  -16.9513 O   0  0  0  0  0  0  0  0  0  0  0  0
   20.0818   -8.0005  -14.6323 C   0  0  0  0  0  0  0  0  0  0  0  0
   19.3573   -8.7290  -15.5475 O   0  0  0  0  0  0  0  0  0  0  0  0
   20.3629   -4.6801  -18.6251 O   0  0  0  0  0  0  0  0  0  0  0  0
   19.5306   -7.6176  -13.5792 O   0  0  0  0  0  0  0  0  0  0  0  0
  2  3  1  0
  2  1  1  0
  3  5  1  0
  3  4  1  1
  5  7  1  0
  5  6  1  6
  7  8  2  0
  9 10  1  0
  9  7  1  0
 10 11  1  0
 11 12  2  0
 11 13  1  0
 13 14  1  0
 14 15  1  6
 15 16  1  0
 17 21  1  0
 17 16  1  0
 18 17  2  0
 19 20  1  0
 19 14  1  0
 22 19  2  0
M  END
$$$$
