IGE.pdb
     RDKit          3D

 22 21  0  0  1  0  0  0  0  0999 V2000
   26.6288  -17.0735  -15.4590 C   0  0  0  0  0  0  0  0  0  0  0  0
   25.2434  -16.5631  -15.7299 C   0  0  0  0  0  0  0  0  0  0  0  0
   25.2795  -15.0432  -15.9469 C   0  0  2  0  0  0  0  0  0  0  0  0
   25.6254  -14.4356  -14.6308 C   0  0  0  0  0  0  0  0  0  0  0  0
   23.9026  -14.6850  -16.4633 C   0  0  2  0  0  0  0  0  0  0  0  0
   23.7107  -15.5216  -17.6532 N   0  0  0  0  0  0  0  0  0  0  0  0
   23.7334  -13.2695  -16.8023 C   0  0  0  0  0  0  0  0  0  0  0  0
   24.2721  -12.8266  -17.8639 O   0  0  0  0  0  0  0  0  0  0  0  0
   23.0023  -12.3465  -16.0218 N   0  0  0  0  0  0  0  0  0  0  0  0
   22.9101  -10.9766  -16.4495 C   0  0  0  0  0  0  0  0  0  0  0  0
   22.1487  -10.1428  -15.4731 C   0  0  0  0  0  0  0  0  0  0  0  0
   21.4647  -10.6926  -14.5722 O   0  0  0  0  0  0  0  0  0  0  0  0
   22.1651   -8.7275  -15.5203 N   0  0  0  0  0  0  0  0  0  0  0  0
   21.3977   -7.8992  -14.5941 C   0  0  1  0  0  0  0  0  0  0  0  0
   22.0154   -6.5077  -14.6705 C   0  0  0  0  0  0  0  0  0  0  0  0
   21.2658   -5.6246  -13.7006 C   0  0  0  0  0  0  0  0  0  0  0  0
   21.8101   -4.2382  -13.7263 C   0  0  0  0  0  0  0  0  0  0  0  0
   21.2905   -3.3162  -14.4239 O   0  0  0  0  0  0  0  0  0  0  0  0
   19.9727   -7.8866  -14.9398 C   0  0  0  0  0  0  0  0  0  0  0  0
   19.0107   -7.8165  -13.9585 O   0  0  0  0  0  0  0  0  0  0  0  0
   22.9193   -3.9280  -12.9696 O   0  0  0  0  0  0  0  0  0  0  0  0
   19.6238   -7.9400  -16.1376 O   0  0  0  0  0  0  0  0  0  0  0  0
  2  3  1  0
  2  1  1  0
  3  5  1  0
  3  4  1  1
  5  7  1  0
  5  6  1  6
  7  8  2  0
  9 10  1  0
  9  7  1  0
 10 11  1  0
 11 12  2  0
 11 13  1  0
 13 14  1  0
 14 15  1  6
 15 16  1  0
 17 21  1  0
 17 16  1  0
 18 17  2  0
 19 20  1  0
 19 14  1  0
 22 19  2  0
M  END
$$$$
