IGE.pdb
     RDKit          3D

 22 21  0  0  1  0  0  0  0  0999 V2000
   27.1100  -16.1904  -15.4159 C   0  0  0  0  0  0  0  0  0  0  0  0
   25.7884  -15.7426  -14.8629 C   0  0  0  0  0  0  0  0  0  0  0  0
   25.2676  -14.5396  -15.6630 C   0  0  2  0  0  0  0  0  0  0  0  0
   26.2869  -13.4620  -15.5193 C   0  0  0  0  0  0  0  0  0  0  0  0
   23.9192  -14.2157  -15.0565 C   0  0  2  0  0  0  0  0  0  0  0  0
   23.2040  -15.4958  -15.0079 N   0  0  0  0  0  0  0  0  0  0  0  0
   23.1416  -13.2251  -15.8058 C   0  0  0  0  0  0  0  0  0  0  0  0
   22.4572  -13.6126  -16.8031 O   0  0  0  0  0  0  0  0  0  0  0  0
   23.0965  -11.8480  -15.4941 N   0  0  0  0  0  0  0  0  0  0  0  0
   22.3385  -10.9584  -16.3320 C   0  0  0  0  0  0  0  0  0  0  0  0
   22.3343   -9.5647  -15.7971 C   0  0  0  0  0  0  0  0  0  0  0  0
   22.8906   -9.3087  -14.6987 O   0  0  0  0  0  0  0  0  0  0  0  0
   21.7164   -8.4957  -16.4906 N   0  0  0  0  0  0  0  0  0  0  0  0
   21.6715   -7.1350  -15.9624 C   0  0  1  0  0  0  0  0  0  0  0  0
   21.0914   -6.2742  -17.0786 C   0  0  0  0  0  0  0  0  0  0  0  0
   21.1394   -4.8370  -16.6149 C   0  0  0  0  0  0  0  0  0  0  0  0
   20.5190   -3.9386  -17.6284 C   0  0  0  0  0  0  0  0  0  0  0  0
   20.0392   -4.3718  -18.7186 O   0  0  0  0  0  0  0  0  0  0  0  0
   20.8677   -7.0607  -14.7382 C   0  0  0  0  0  0  0  0  0  0  0  0
   21.1354   -6.1137  -13.7765 O   0  0  0  0  0  0  0  0  0  0  0  0
   20.4557   -2.5829  -17.3887 O   0  0  0  0  0  0  0  0  0  0  0  0
   19.9284   -7.8645  -14.5624 O   0  0  0  0  0  0  0  0  0  0  0  0
  2  3  1  0
  2  1  1  0
  3  5  1  0
  3  4  1  1
  5  7  1  0
  5  6  1  6
  7  8  2  0
  9 10  1  0
  9  7  1  0
 10 11  1  0
 11 12  2  0
 11 13  1  0
 13 14  1  0
 14 15  1  6
 15 16  1  0
 17 21  1  0
 17 16  1  0
 18 17  2  0
 19 20  1  0
 19 14  1  0
 22 19  2  0
M  END
$$$$
