IGE.pdb
     RDKit          3D

 22 21  0  0  1  0  0  0  0  0999 V2000
   32.8518  -32.6436  -17.7041 C   0  0  0  0  0  0  0  0  0  0  0  0
   31.8289  -32.1437  -16.7258 C   0  0  0  0  0  0  0  0  0  0  0  0
   30.5034  -31.8679  -17.4508 C   0  0  2  0  0  0  0  0  0  0  0  0
   30.8022  -30.8672  -18.5138 C   0  0  0  0  0  0  0  0  0  0  0  0
   29.5584  -31.3796  -16.3740 C   0  0  2  0  0  0  0  0  0  0  0  0
   29.3496  -32.5357  -15.4952 N   0  0  0  0  0  0  0  0  0  0  0  0
   28.2749  -30.8822  -16.8764 C   0  0  0  0  0  0  0  0  0  0  0  0
   28.2436  -29.7574  -17.4655 O   0  0  0  0  0  0  0  0  0  0  0  0
   27.0497  -31.5743  -16.7517 N   0  0  0  0  0  0  0  0  0  0  0  0
   25.8736  -31.0498  -17.3918 C   0  0  0  0  0  0  0  0  0  0  0  0
   24.6431  -31.3141  -16.5891 C   0  0  0  0  0  0  0  0  0  0  0  0
   24.7236  -31.9262  -15.4935 O   0  0  0  0  0  0  0  0  0  0  0  0
   23.3608  -30.8948  -17.0198 N   0  0  0  0  0  0  0  0  0  0  0  0
   22.1396  -31.2131  -16.2849 C   0  0  1  0  0  0  0  0  0  0  0  0
   21.3910  -29.8942  -16.1308 C   0  0  0  0  0  0  0  0  0  0  0  0
   20.1520  -30.1690  -15.3110 C   0  0  0  0  0  0  0  0  0  0  0  0
   19.3610  -28.9207  -15.1227 C   0  0  0  0  0  0  0  0  0  0  0  0
   19.7733  -27.7884  -15.5156 O   0  0  0  0  0  0  0  0  0  0  0  0
   21.3378  -32.2203  -16.9870 C   0  0  0  0  0  0  0  0  0  0  0  0
   20.4228  -32.9909  -16.3071 O   0  0  0  0  0  0  0  0  0  0  0  0
   18.1330  -28.9801  -14.5001 O   0  0  0  0  0  0  0  0  0  0  0  0
   21.4839  -32.3838  -18.2163 O   0  0  0  0  0  0  0  0  0  0  0  0
  2  3  1  0
  2  1  1  0
  3  5  1  0
  3  4  1  6
  5  7  1  0
  5  6  1  1
  7  8  2  0
  9 10  1  0
  9  7  1  0
 10 11  1  0
 11 12  2  0
 11 13  1  0
 13 14  1  0
 14 15  1  6
 15 16  1  0
 17 21  1  0
 17 16  1  0
 18 17  2  0
 19 20  1  0
 19 14  1  0
 22 19  2  0
M  END
$$$$
