IGE.pdb
     RDKit          3D

 22 21  0  0  1  0  0  0  0  0999 V2000
   29.5086  -33.5009   -5.9673 C   0  0  0  0  0  0  0  0  0  0  0  0
   30.9572  -33.8002   -6.2227 C   0  0  0  0  0  0  0  0  0  0  0  0
   31.5006  -34.7272   -5.1255 C   0  0  2  0  0  0  0  0  0  0  0  0
   31.2461  -34.0415   -3.8271 C   0  0  0  0  0  0  0  0  0  0  0  0
   32.9643  -34.9193   -5.4597 C   0  0  2  0  0  0  0  0  0  0  0  0
   32.9832  -35.3492   -6.8624 N   0  0  0  0  0  0  0  0  0  0  0  0
   33.6534  -35.8997   -4.6163 C   0  0  0  0  0  0  0  0  0  0  0  0
   34.2249  -36.8890   -5.1713 O   0  0  0  0  0  0  0  0  0  0  0  0
   33.7301  -35.8231   -3.2079 N   0  0  0  0  0  0  0  0  0  0  0  0
   33.9314  -37.0253   -2.4448 C   0  0  0  0  0  0  0  0  0  0  0  0
   34.0452  -36.7401   -0.9839 C   0  0  0  0  0  0  0  0  0  0  0  0
   34.2368  -37.6799   -0.1706 O   0  0  0  0  0  0  0  0  0  0  0  0
   33.9440  -35.4264   -0.4648 N   0  0  0  0  0  0  0  0  0  0  0  0
   33.9166  -35.1452    0.9679 C   0  0  1  0  0  0  0  0  0  0  0  0
   34.3709  -33.6977    1.1167 C   0  0  0  0  0  0  0  0  0  0  0  0
   34.3664  -33.3700    2.5916 C   0  0  0  0  0  0  0  0  0  0  0  0
   34.6979  -31.9342    2.8102 C   0  0  0  0  0  0  0  0  0  0  0  0
   34.8464  -31.1170    1.8528 O   0  0  0  0  0  0  0  0  0  0  0  0
   32.5805  -35.3616    1.5320 C   0  0  0  0  0  0  0  0  0  0  0  0
   32.4128  -35.5858    2.8791 O   0  0  0  0  0  0  0  0  0  0  0  0
   34.8527  -31.4591    4.0945 O   0  0  0  0  0  0  0  0  0  0  0  0
   31.5804  -35.3431    0.7844 O   0  0  0  0  0  0  0  0  0  0  0  0
  2  3  1  0
  2  1  1  0
  3  5  1  0
  3  4  1  1
  5  7  1  0
  5  6  1  6
  7  8  2  0
  9 10  1  0
  9  7  1  0
 10 11  1  0
 11 12  2  0
 11 13  1  0
 13 14  1  0
 14 15  1  6
 15 16  1  0
 17 21  1  0
 17 16  1  0
 18 17  2  0
 19 20  1  0
 19 14  1  0
 22 19  2  0
M  END
$$$$
