IGE.pdb
     RDKit          3D

 22 21  0  0  1  0  0  0  0  0999 V2000
   23.9769  -15.3397  -19.4177 C   0  0  0  0  0  0  0  0  0  0  0  0
   23.8224  -14.9119  -17.9872 C   0  0  0  0  0  0  0  0  0  0  0  0
   25.0675  -15.3152  -17.1837 C   0  0  2  0  0  0  0  0  0  0  0  0
   25.0896  -16.8050  -17.1561 C   0  0  0  0  0  0  0  0  0  0  0  0
   24.8920  -14.6629  -15.8292 C   0  0  2  0  0  0  0  0  0  0  0  0
   23.6042  -15.1579  -15.3302 N   0  0  0  0  0  0  0  0  0  0  0  0
   24.8987  -13.1978  -15.8584 C   0  0  0  0  0  0  0  0  0  0  0  0
   25.9936  -12.5961  -16.0874 O   0  0  0  0  0  0  0  0  0  0  0  0
   23.7572  -12.3927  -15.6476 N   0  0  0  0  0  0  0  0  0  0  0  0
   23.8736  -10.9627  -15.7444 C   0  0  0  0  0  0  0  0  0  0  0  0
   22.5571  -10.2865  -15.5496 C   0  0  0  0  0  0  0  0  0  0  0  0
   21.5224  -10.9691  -15.3374 O   0  0  0  0  0  0  0  0  0  0  0  0
   22.4222   -8.8775  -15.5950 N   0  0  0  0  0  0  0  0  0  0  0  0
   21.1399   -8.2024  -15.4143 C   0  0  1  0  0  0  0  0  0  0  0  0
   21.4723   -6.7331  -15.1816 C   0  0  0  0  0  0  0  0  0  0  0  0
   22.2429   -6.6421  -13.8852 C   0  0  0  0  0  0  0  0  0  0  0  0
   22.6022   -5.2273  -13.5876 C   0  0  0  0  0  0  0  0  0  0  0  0
   23.4019   -4.5619  -14.3115 O   0  0  0  0  0  0  0  0  0  0  0  0
   20.2662   -8.3898  -16.5770 C   0  0  0  0  0  0  0  0  0  0  0  0
   18.9112   -8.5683  -16.4180 O   0  0  0  0  0  0  0  0  0  0  0  0
   22.0542   -4.6025  -12.4882 O   0  0  0  0  0  0  0  0  0  0  0  0
   20.7536   -8.3879  -17.7267 O   0  0  0  0  0  0  0  0  0  0  0  0
  2  3  1  0
  2  1  1  0
  3  5  1  0
  3  4  1  1
  5  7  1  0
  5  6  1  6
  7  8  2  0
  9 10  1  0
  9  7  1  0
 10 11  1  0
 11 12  2  0
 11 13  1  0
 13 14  1  0
 14 15  1  6
 15 16  1  0
 17 21  1  0
 17 16  1  0
 18 17  2  0
 19 20  1  0
 19 14  1  0
 22 19  2  0
M  END
$$$$
