IGE.pdb
     RDKit          3D

 22 21  0  0  1  0  0  0  0  0999 V2000
   23.7719  -14.0361  -14.7047 C   0  0  0  0  0  0  0  0  0  0  0  0
   23.7937  -12.8803  -15.6622 C   0  0  0  0  0  0  0  0  0  0  0  0
   23.2602  -13.3259  -17.0316 C   0  0  2  0  0  0  0  0  0  0  0  0
   24.1930  -14.3766  -17.5282 C   0  0  0  0  0  0  0  0  0  0  0  0
   23.2256  -12.0668  -17.8709 C   0  0  2  0  0  0  0  0  0  0  0  0
   24.5799  -11.5099  -17.7812 N   0  0  0  0  0  0  0  0  0  0  0  0
   22.2370  -11.0769  -17.4352 C   0  0  0  0  0  0  0  0  0  0  0  0
   21.0030  -11.3611  -17.5338 O   0  0  0  0  0  0  0  0  0  0  0  0
   22.5617   -9.8087  -16.9042 N   0  0  0  0  0  0  0  0  0  0  0  0
   21.5055   -8.9185  -16.5046 C   0  0  0  0  0  0  0  0  0  0  0  0
   22.0380   -7.6906  -15.8435 C   0  0  0  0  0  0  0  0  0  0  0  0
   23.2448   -7.6348  -15.4943 O   0  0  0  0  0  0  0  0  0  0  0  0
   21.2225   -6.5613  -15.5878 N   0  0  0  0  0  0  0  0  0  0  0  0
   21.7375   -5.3402  -14.9743 C   0  0  1  0  0  0  0  0  0  0  0  0
   20.6420   -4.2942  -15.1462 C   0  0  0  0  0  0  0  0  0  0  0  0
   20.3683   -4.1628  -16.6262 C   0  0  0  0  0  0  0  0  0  0  0  0
   19.3031   -3.1513  -16.8741 C   0  0  0  0  0  0  0  0  0  0  0  0
   18.0690   -3.4329  -16.8082 O   0  0  0  0  0  0  0  0  0  0  0  0
   22.0786   -5.5507  -13.5638 C   0  0  0  0  0  0  0  0  0  0  0  0
   22.9021   -4.6709  -12.8997 O   0  0  0  0  0  0  0  0  0  0  0  0
   19.6538   -1.8561  -17.1881 O   0  0  0  0  0  0  0  0  0  0  0  0
   21.6185   -6.5388  -12.9545 O   0  0  0  0  0  0  0  0  0  0  0  0
  2  3  1  0
  2  1  1  0
  3  5  1  0
  3  4  1  6
  5  7  1  0
  5  6  1  1
  7  8  2  0
  9 10  1  0
  9  7  1  0
 10 11  1  0
 11 12  2  0
 11 13  1  0
 13 14  1  0
 14 15  1  1
 15 16  1  0
 17 21  1  0
 17 16  1  0
 18 17  2  0
 19 20  1  0
 19 14  1  0
 22 19  2  0
M  END
$$$$
