IGE.pdb
     RDKit          3D

 22 21  0  0  1  0  0  0  0  0999 V2000
   30.3497  -21.7330  -10.0958 C   0  0  0  0  0  0  0  0  0  0  0  0
   28.8930  -21.3707  -10.0941 C   0  0  0  0  0  0  0  0  0  0  0  0
   28.4185  -21.1064  -11.5306 C   0  0  2  0  0  0  0  0  0  0  0  0
   29.3872  -20.1433  -12.1263 C   0  0  0  0  0  0  0  0  0  0  0  0
   27.0083  -20.5750  -11.3893 C   0  0  2  0  0  0  0  0  0  0  0  0
   26.2556  -21.6548  -10.7413 N   0  0  0  0  0  0  0  0  0  0  0  0
   26.3741  -20.1997  -12.6558 C   0  0  0  0  0  0  0  0  0  0  0  0
   26.5251  -19.0147  -13.0875 O   0  0  0  0  0  0  0  0  0  0  0  0
   25.5945  -21.0744  -13.4450 N   0  0  0  0  0  0  0  0  0  0  0  0
   25.1236  -20.6356  -14.7309 C   0  0  0  0  0  0  0  0  0  0  0  0
   23.7696  -20.0134  -14.6409 C   0  0  0  0  0  0  0  0  0  0  0  0
   23.0130  -20.2857  -13.6740 O   0  0  0  0  0  0  0  0  0  0  0  0
   23.2916  -19.1094  -15.6206 N   0  0  0  0  0  0  0  0  0  0  0  0
   21.9701  -18.4925  -15.5456 C   0  0  1  0  0  0  0  0  0  0  0  0
   21.9296  -17.4580  -16.6644 C   0  0  0  0  0  0  0  0  0  0  0  0
   20.6362  -16.6896  -16.5254 C   0  0  0  0  0  0  0  0  0  0  0  0
   20.5361  -15.6381  -17.5759 C   0  0  0  0  0  0  0  0  0  0  0  0
   21.4530  -15.4382  -18.4279 O   0  0  0  0  0  0  0  0  0  0  0  0
   20.9037  -19.4898  -15.6817 C   0  0  0  0  0  0  0  0  0  0  0  0
   21.0974  -20.6306  -16.4262 O   0  0  0  0  0  0  0  0  0  0  0  0
   19.4119  -14.8435  -17.6390 O   0  0  0  0  0  0  0  0  0  0  0  0
   19.8054  -19.3055  -15.1169 O   0  0  0  0  0  0  0  0  0  0  0  0
  2  3  1  0
  2  1  1  0
  3  5  1  0
  3  4  1  1
  5  7  1  0
  5  6  1  6
  7  8  2  0
  9 10  1  0
  9  7  1  0
 10 11  1  0
 11 12  2  0
 11 13  1  0
 13 14  1  0
 14 15  1  6
 15 16  1  0
 17 21  1  0
 17 16  1  0
 18 17  2  0
 19 20  1  0
 19 14  1  0
 22 19  2  0
M  END
$$$$
