IGE.pdb
     RDKit          3D

 22 21  0  0  1  0  0  0  0  0999 V2000
   16.6651  -13.9314  -19.5826 C   0  0  0  0  0  0  0  0  0  0  0  0
   18.0559  -13.5716  -19.1470 C   0  0  0  0  0  0  0  0  0  0  0  0
   17.9967  -12.6097  -17.9514 C   0  0  2  0  0  0  0  0  0  0  0  0
   17.2529  -11.4040  -18.4141 C   0  0  0  0  0  0  0  0  0  0  0  0
   19.4411  -12.3537  -17.5784 C   0  0  2  0  0  0  0  0  0  0  0  0
   20.0249  -13.6841  -17.3739 N   0  0  0  0  0  0  0  0  0  0  0  0
   19.6190  -11.5290  -16.3802 C   0  0  0  0  0  0  0  0  0  0  0  0
   19.3084  -12.0181  -15.2499 O   0  0  0  0  0  0  0  0  0  0  0  0
   20.1196  -10.2081  -16.3909 N   0  0  0  0  0  0  0  0  0  0  0  0
   20.1581   -9.4571  -15.1651 C   0  0  0  0  0  0  0  0  0  0  0  0
   20.8757   -8.1591  -15.3344 C   0  0  0  0  0  0  0  0  0  0  0  0
   21.1140   -7.7154  -16.4867 O   0  0  0  0  0  0  0  0  0  0  0  0
   21.3086   -7.3900  -14.2268 N   0  0  0  0  0  0  0  0  0  0  0  0
   21.7617   -6.0078  -14.3562 C   0  0  1  0  0  0  0  0  0  0  0  0
   20.5823   -5.2358  -14.9364 C   0  0  0  0  0  0  0  0  0  0  0  0
   21.0351   -3.8107  -15.1528 C   0  0  0  0  0  0  0  0  0  0  0  0
   19.9368   -2.9962  -15.7441 C   0  0  0  0  0  0  0  0  0  0  0  0
   18.9382   -3.5192  -16.3236 O   0  0  0  0  0  0  0  0  0  0  0  0
   22.1935   -5.4615  -13.0658 C   0  0  0  0  0  0  0  0  0  0  0  0
   22.9702   -4.3272  -13.0057 O   0  0  0  0  0  0  0  0  0  0  0  0
   19.9918   -1.6213  -15.6677 O   0  0  0  0  0  0  0  0  0  0  0  0
   21.8547   -6.0292  -12.0064 O   0  0  0  0  0  0  0  0  0  0  0  0
  2  3  1  0
  2  1  1  0
  3  5  1  0
  3  4  1  6
  5  7  1  0
  5  6  1  1
  7  8  2  0
  9 10  1  0
  9  7  1  0
 10 11  1  0
 11 12  2  0
 11 13  1  0
 13 14  1  0
 14 15  1  1
 15 16  1  0
 17 21  1  0
 17 16  1  0
 18 17  2  0
 19 20  1  0
 19 14  1  0
 22 19  2  0
M  END
$$$$
