IGE.pdb
     RDKit          3D

 22 21  0  0  1  0  0  0  0  0999 V2000
   25.1592  -16.9786  -17.5356 C   0  0  0  0  0  0  0  0  0  0  0  0
   25.6598  -15.6109  -17.1719 C   0  0  0  0  0  0  0  0  0  0  0  0
   24.5689  -14.8394  -16.4148 C   0  0  2  0  0  0  0  0  0  0  0  0
   23.3833  -14.7882  -17.3160 C   0  0  0  0  0  0  0  0  0  0  0  0
   25.1823  -13.4910  -16.1040 C   0  0  2  0  0  0  0  0  0  0  0  0
   26.4383  -13.7931  -15.4086 N   0  0  0  0  0  0  0  0  0  0  0  0
   24.3401  -12.6192  -15.2804 C   0  0  0  0  0  0  0  0  0  0  0  0
   24.2773  -12.8337  -14.0301 O   0  0  0  0  0  0  0  0  0  0  0  0
   23.5811  -11.5395  -15.7841 N   0  0  0  0  0  0  0  0  0  0  0  0
   22.6847  -10.8361  -14.9068 C   0  0  0  0  0  0  0  0  0  0  0  0
   22.0980   -9.6320  -15.5658 C   0  0  0  0  0  0  0  0  0  0  0  0
   22.4834   -9.2896  -16.7128 O   0  0  0  0  0  0  0  0  0  0  0  0
   21.1035   -8.8421  -14.9390 N   0  0  0  0  0  0  0  0  0  0  0  0
   20.4972   -7.6807  -15.5840 C   0  0  1  0  0  0  0  0  0  0  0  0
   19.1011   -7.5537  -14.9853 C   0  0  0  0  0  0  0  0  0  0  0  0
   18.2802   -8.7137  -15.4985 C   0  0  0  0  0  0  0  0  0  0  0  0
   16.8738   -8.6133  -15.0176 C   0  0  0  0  0  0  0  0  0  0  0  0
   16.4860   -7.6936  -14.2364 O   0  0  0  0  0  0  0  0  0  0  0  0
   21.2973   -6.4703  -15.3719 C   0  0  0  0  0  0  0  0  0  0  0  0
   22.3309   -6.4598  -14.4636 O   0  0  0  0  0  0  0  0  0  0  0  0
   15.9460   -9.5464  -15.4271 O   0  0  0  0  0  0  0  0  0  0  0  0
   21.0410   -5.4348  -16.0210 O   0  0  0  0  0  0  0  0  0  0  0  0
  2  3  1  0
  2  1  1  0
  3  5  1  0
  3  4  1  6
  5  7  1  0
  5  6  1  1
  7  8  2  0
  9 10  1  0
  9  7  1  0
 10 11  1  0
 11 12  2  0
 11 13  1  0
 13 14  1  0
 14 15  1  1
 15 16  1  0
 17 21  1  0
 17 16  1  0
 18 17  2  0
 19 20  1  0
 19 14  1  0
 22 19  2  0
M  END
$$$$
