IGE.pdb
     RDKit          3D

 22 21  0  0  1  0  0  0  0  0999 V2000
   25.7349  -12.3930  -20.1548 C   0  0  0  0  0  0  0  0  0  0  0  0
   25.3857  -13.3423  -19.0457 C   0  0  0  0  0  0  0  0  0  0  0  0
   24.2944  -12.7283  -18.1565 C   0  0  2  0  0  0  0  0  0  0  0  0
   23.2583  -12.1787  -19.0759 C   0  0  0  0  0  0  0  0  0  0  0  0
   25.0067  -11.6892  -17.3176 C   0  0  2  0  0  0  0  0  0  0  0  0
   26.0607  -12.4252  -16.6106 N   0  0  0  0  0  0  0  0  0  0  0  0
   24.1442  -10.9892  -16.3618 C   0  0  0  0  0  0  0  0  0  0  0  0
   23.6125  -11.6530  -15.4184 O   0  0  0  0  0  0  0  0  0  0  0  0
   23.8569   -9.6071  -16.4137 N   0  0  0  0  0  0  0  0  0  0  0  0
   23.0074   -9.0239  -15.4105 C   0  0  0  0  0  0  0  0  0  0  0  0
   22.9101   -7.5420  -15.5622 C   0  0  0  0  0  0  0  0  0  0  0  0
   23.5183   -6.9621  -16.4977 O   0  0  0  0  0  0  0  0  0  0  0  0
   22.1444   -6.7449  -14.6767 N   0  0  0  0  0  0  0  0  0  0  0  0
   21.9446   -5.3125  -14.8786 C   0  0  1  0  0  0  0  0  0  0  0  0
   20.4570   -5.1354  -15.1601 C   0  0  0  0  0  0  0  0  0  0  0  0
   20.2091   -3.6614  -15.3804 C   0  0  0  0  0  0  0  0  0  0  0  0
   18.7689   -3.4092  -15.6655 C   0  0  0  0  0  0  0  0  0  0  0  0
   17.9188   -4.3453  -15.7533 O   0  0  0  0  0  0  0  0  0  0  0  0
   22.3776   -4.5401  -13.7098 C   0  0  0  0  0  0  0  0  0  0  0  0
   22.5003   -5.1382  -12.4767 O   0  0  0  0  0  0  0  0  0  0  0  0
   18.3262   -2.1163  -15.8434 O   0  0  0  0  0  0  0  0  0  0  0  0
   22.6391   -3.3250  -13.8305 O   0  0  0  0  0  0  0  0  0  0  0  0
  2  3  1  0
  2  1  1  0
  3  5  1  0
  3  4  1  6
  5  7  1  0
  5  6  1  1
  7  8  2  0
  9 10  1  0
  9  7  1  0
 10 11  1  0
 11 12  2  0
 11 13  1  0
 13 14  1  0
 14 15  1  1
 15 16  1  0
 17 21  1  0
 17 16  1  0
 18 17  2  0
 19 20  1  0
 19 14  1  0
 22 19  2  0
M  END
$$$$
