IGE.pdb
     RDKit          3D

 22 21  0  0  1  0  0  0  0  0999 V2000
   18.9404  -13.9253  -21.0809 C   0  0  0  0  0  0  0  0  0  0  0  0
   20.1253  -13.5297  -20.2486 C   0  0  0  0  0  0  0  0  0  0  0  0
   19.6666  -12.6693  -19.0620 C   0  0  2  0  0  0  0  0  0  0  0  0
   18.9821  -11.4791  -19.6414 C   0  0  0  0  0  0  0  0  0  0  0  0
   20.9301  -12.3552  -18.2901 C   0  0  2  0  0  0  0  0  0  0  0  0
   21.5067  -13.6613  -17.9522 N   0  0  0  0  0  0  0  0  0  0  0  0
   20.7156  -11.5628  -17.0762 C   0  0  0  0  0  0  0  0  0  0  0  0
   20.1600  -12.1147  -16.0763 O   0  0  0  0  0  0  0  0  0  0  0  0
   21.0885  -10.2076  -16.9347 N   0  0  0  0  0  0  0  0  0  0  0  0
   20.6559   -9.4730  -15.7766 C   0  0  0  0  0  0  0  0  0  0  0  0
   21.2040   -8.0846  -15.7662 C   0  0  0  0  0  0  0  0  0  0  0  0
   22.0306   -7.7259  -16.6434 O   0  0  0  0  0  0  0  0  0  0  0  0
   20.8233   -7.1339  -14.7880 N   0  0  0  0  0  0  0  0  0  0  0  0
   21.2971   -5.7526  -14.8052 C   0  0  1  0  0  0  0  0  0  0  0  0
   20.0459   -4.8829  -14.7627 C   0  0  0  0  0  0  0  0  0  0  0  0
   19.3074   -5.0866  -16.0649 C   0  0  0  0  0  0  0  0  0  0  0  0
   18.1553   -6.0116  -15.8746 C   0  0  0  0  0  0  0  0  0  0  0  0
   17.7165   -6.3246  -14.7274 O   0  0  0  0  0  0  0  0  0  0  0  0
   22.1941   -5.4789  -13.6779 C   0  0  0  0  0  0  0  0  0  0  0  0
   22.3468   -6.3935  -12.6614 O   0  0  0  0  0  0  0  0  0  0  0  0
   17.5308   -6.5569  -16.9755 O   0  0  0  0  0  0  0  0  0  0  0  0
   22.8287   -4.4042  -13.6361 O   0  0  0  0  0  0  0  0  0  0  0  0
  2  3  1  0
  2  1  1  0
  3  5  1  0
  3  4  1  6
  5  7  1  0
  5  6  1  1
  7  8  2  0
  9 10  1  0
  9  7  1  0
 10 11  1  0
 11 12  2  0
 11 13  1  0
 13 14  1  0
 14 15  1  1
 15 16  1  0
 17 21  1  0
 17 16  1  0
 18 17  2  0
 19 20  1  0
 19 14  1  0
 22 19  2  0
M  END
$$$$
