IGE.pdb
     RDKit          3D

 22 21  0  0  1  0  0  0  0  0999 V2000
   29.3883  -18.8035   -3.5227 C   0  0  0  0  0  0  0  0  0  0  0  0
   28.0986  -19.0654   -4.2447 C   0  0  0  0  0  0  0  0  0  0  0  0
   28.3770  -19.8116   -5.5578 C   0  0  2  0  0  0  0  0  0  0  0  0
   29.2990  -18.9481   -6.3485 C   0  0  0  0  0  0  0  0  0  0  0  0
   27.0172  -20.0233   -6.1879 C   0  0  2  0  0  0  0  0  0  0  0  0
   26.2464  -20.7749   -5.1911 N   0  0  0  0  0  0  0  0  0  0  0  0
   27.0472  -20.7473   -7.4616 C   0  0  0  0  0  0  0  0  0  0  0  0
   27.8148  -21.7529   -7.5750 O   0  0  0  0  0  0  0  0  0  0  0  0
   26.2713  -20.4030   -8.5908 N   0  0  0  0  0  0  0  0  0  0  0  0
   26.4845  -21.0963   -9.8325 C   0  0  0  0  0  0  0  0  0  0  0  0
   25.6389  -20.5388  -10.9290 C   0  0  0  0  0  0  0  0  0  0  0  0
   24.8844  -19.5574  -10.7073 O   0  0  0  0  0  0  0  0  0  0  0  0
   25.6515  -21.0811  -12.2372 N   0  0  0  0  0  0  0  0  0  0  0  0
   24.7366  -20.6346  -13.2842 C   0  0  1  0  0  0  0  0  0  0  0  0
   25.1598  -21.3723  -14.5492 C   0  0  0  0  0  0  0  0  0  0  0  0
   26.6409  -21.1395  -14.7362 C   0  0  0  0  0  0  0  0  0  0  0  0
   27.1346  -21.8532  -15.9470 C   0  0  0  0  0  0  0  0  0  0  0  0
   26.3610  -22.4870  -16.7257 O   0  0  0  0  0  0  0  0  0  0  0  0
   23.3404  -20.9093  -12.9300 C   0  0  0  0  0  0  0  0  0  0  0  0
   22.3359  -20.0473  -13.3058 O   0  0  0  0  0  0  0  0  0  0  0  0
   28.4794  -21.8344  -16.2474 O   0  0  0  0  0  0  0  0  0  0  0  0
   23.0553  -21.9365  -12.2797 O   0  0  0  0  0  0  0  0  0  0  0  0
  2  3  1  0
  2  1  1  0
  3  5  1  0
  3  4  1  6
  5  7  1  0
  5  6  1  1
  7  8  2  0
  9 10  1  0
  9  7  1  0
 10 11  1  0
 11 12  2  0
 11 13  1  0
 13 14  1  0
 14 15  1  6
 15 16  1  0
 17 21  1  0
 17 16  1  0
 18 17  2  0
 19 20  1  0
 19 14  1  0
 22 19  2  0
M  END
$$$$
