IGE.pdb
     RDKit          3D

 22 21  0  0  1  0  0  0  0  0999 V2000
   29.5061  -20.3882   -7.8629 C   0  0  0  0  0  0  0  0  0  0  0  0
   28.2937  -20.8795   -8.5990 C   0  0  0  0  0  0  0  0  0  0  0  0
   27.2116  -19.7898   -8.6096 C   0  0  2  0  0  0  0  0  0  0  0  0
   26.8075  -19.5802   -7.1906 C   0  0  0  0  0  0  0  0  0  0  0  0
   26.1157  -20.3301   -9.5031 C   0  0  2  0  0  0  0  0  0  0  0  0
   25.9499  -21.7312   -9.1007 N   0  0  0  0  0  0  0  0  0  0  0  0
   26.4063  -20.2420  -10.9367 C   0  0  0  0  0  0  0  0  0  0  0  0
   26.0889  -19.1821  -11.5606 O   0  0  0  0  0  0  0  0  0  0  0  0
   27.0243  -21.2666  -11.6876 N   0  0  0  0  0  0  0  0  0  0  0  0
   27.3585  -21.0290  -13.0659 C   0  0  0  0  0  0  0  0  0  0  0  0
   26.1645  -21.1522  -13.9533 C   0  0  0  0  0  0  0  0  0  0  0  0
   26.2673  -20.9217  -15.1853 O   0  0  0  0  0  0  0  0  0  0  0  0
   24.8929  -21.5260  -13.4543 N   0  0  0  0  0  0  0  0  0  0  0  0
   23.7206  -21.6700  -14.3130 C   0  0  1  0  0  0  0  0  0  0  0  0
   22.6012  -22.1723  -13.4084 C   0  0  0  0  0  0  0  0  0  0  0  0
   21.3675  -22.3411  -14.2641 C   0  0  0  0  0  0  0  0  0  0  0  0
   20.2261  -22.8373  -13.4454 C   0  0  0  0  0  0  0  0  0  0  0  0
   20.0428  -24.0692  -13.2099 O   0  0  0  0  0  0  0  0  0  0  0  0
   23.3731  -20.4029  -14.9640 C   0  0  0  0  0  0  0  0  0  0  0  0
   23.4874  -19.2097  -14.2883 O   0  0  0  0  0  0  0  0  0  0  0  0
   19.3258  -21.9379  -12.9164 O   0  0  0  0  0  0  0  0  0  0  0  0
   22.9683  -20.4021  -16.1453 O   0  0  0  0  0  0  0  0  0  0  0  0
  2  3  1  0
  2  1  1  0
  3  5  1  0
  3  4  1  1
  5  7  1  0
  5  6  1  1
  7  8  2  0
  9 10  1  0
  9  7  1  0
 10 11  1  0
 11 12  2  0
 11 13  1  0
 13 14  1  0
 14 15  1  1
 15 16  1  0
 17 21  1  0
 17 16  1  0
 18 17  2  0
 19 20  1  0
 19 14  1  0
 22 19  2  0
M  END
$$$$
