IGE.pdb
     RDKit          3D

 22 21  0  0  1  0  0  0  0  0999 V2000
   30.0880  -20.0545   -3.4095 C   0  0  0  0  0  0  0  0  0  0  0  0
   29.5042  -19.2305   -4.5201 C   0  0  0  0  0  0  0  0  0  0  0  0
   28.5470  -20.0888   -5.3601 C   0  0  2  0  0  0  0  0  0  0  0  0
   29.3260  -21.2778   -5.8073 C   0  0  0  0  0  0  0  0  0  0  0  0
   28.0831  -19.1823   -6.4800 C   0  0  2  0  0  0  0  0  0  0  0  0
   27.6262  -17.9566   -5.8157 N   0  0  0  0  0  0  0  0  0  0  0  0
   27.0121  -19.7436   -7.3076 C   0  0  0  0  0  0  0  0  0  0  0  0
   25.8385  -19.8096   -6.8263 O   0  0  0  0  0  0  0  0  0  0  0  0
   27.1926  -20.2240   -8.6238 N   0  0  0  0  0  0  0  0  0  0  0  0
   26.0701  -20.7729   -9.3357 C   0  0  0  0  0  0  0  0  0  0  0  0
   26.3898  -21.0080  -10.7748 C   0  0  0  0  0  0  0  0  0  0  0  0
   27.4988  -20.6437  -11.2426 O   0  0  0  0  0  0  0  0  0  0  0  0
   25.4758  -21.6381  -11.6541 N   0  0  0  0  0  0  0  0  0  0  0  0
   25.7370  -21.7950  -13.0824 C   0  0  1  0  0  0  0  0  0  0  0  0
   24.4606  -22.3786  -13.6772 C   0  0  0  0  0  0  0  0  0  0  0  0
   23.4413  -21.2654  -13.7449 C   0  0  0  0  0  0  0  0  0  0  0  0
   22.0839  -21.7767  -13.4055 C   0  0  0  0  0  0  0  0  0  0  0  0
   21.6692  -22.9116  -13.7881 O   0  0  0  0  0  0  0  0  0  0  0  0
   26.0986  -20.5177  -13.7053 C   0  0  0  0  0  0  0  0  0  0  0  0
   26.9812  -20.4736  -14.7600 O   0  0  0  0  0  0  0  0  0  0  0  0
   21.2337  -21.0004  -12.6480 O   0  0  0  0  0  0  0  0  0  0  0  0
   25.6020  -19.4552  -13.2767 O   0  0  0  0  0  0  0  0  0  0  0  0
  2  3  1  0
  2  1  1  0
  3  5  1  0
  3  4  1  6
  5  7  1  0
  5  6  1  1
  7  8  2  0
  9 10  1  0
  9  7  1  0
 10 11  1  0
 11 12  2  0
 11 13  1  0
 13 14  1  0
 14 15  1  6
 15 16  1  0
 17 21  1  0
 17 16  1  0
 18 17  2  0
 19 20  1  0
 19 14  1  0
 22 19  2  0
M  END
$$$$
