LSA.pdb
     RDKit          3D

 20 19  0  0  1  0  0  0  0  0999 V2000
    7.3262  -12.2004   27.6140 C   0  0  0  0  0  0  0  0  0  0  0  0
    6.5233  -13.1174   26.6539 C   0  0  1  0  0  0  0  0  0  0  0  0
    5.9462  -12.1998   25.5935 C   0  0  0  0  0  0  0  0  0  0  0  0
    7.4957  -14.1168   26.1685 C   0  0  0  0  0  0  0  0  0  0  0  0
    7.0304  -15.0966   25.1660 C   0  0  2  0  0  0  0  0  0  0  0  0
    6.0471  -16.0150   25.8079 N   0  0  0  0  0  0  0  0  0  0  0  0
    8.0712  -15.9516   24.5866 C   0  0  0  0  0  0  0  0  0  0  0  0
    8.5143  -17.0068   25.1044 O   0  0  0  0  0  0  0  0  0  0  0  0
    8.5595  -16.5601   20.5767 O   0  0  0  0  0  0  0  0  0  0  0  0
    9.7037  -16.1843   21.2329 C   0  0  0  0  0  0  0  0  0  0  0  0
    9.6384  -16.4328   22.7239 C   0  0  2  0  0  0  0  0  0  0  0  0
    8.6545  -15.5923   23.3340 N   0  0  0  0  0  0  0  0  0  0  0  0
   10.9626  -16.2019   23.3704 C   0  0  0  0  0  0  0  0  0  0  0  0
   11.2858  -15.0486   23.7484 O   0  0  0  0  0  0  0  0  0  0  0  0
   13.6635  -18.4328   24.5943 C   0  0  0  0  0  0  0  0  0  0  0  0
   13.1221  -17.0778   24.1694 C   0  0  2  0  0  0  0  0  0  0  0  0
   11.8350  -17.2981   23.5457 N   0  0  0  0  0  0  0  0  0  0  0  0
   14.0177  -16.5161   23.1176 C   0  0  0  0  0  0  0  0  0  0  0  0
   13.7515  -16.5619   21.8926 O   0  0  0  0  0  0  0  0  0  0  0  0
   15.2223  -15.8995   23.4672 O   0  0  0  0  0  0  0  0  0  0  0  0
  2  1  1  1
  3  2  1  0
  4  2  1  0
  4  5  1  0
  5  7  1  0
  5  6  1  1
  7  8  2  0
  9 10  1  0
 11 10  1  6
 11 13  1  0
 12 11  1  0
 12  7  1  0
 13 14  2  0
 13 17  1  0
 16 15  1  6
 16 18  1  0
 17 16  1  0
 18 19  2  0
 18 20  1  0
M  END
$$$$
