LSA.pdb
     RDKit          3D

 20 19  0  0  1  0  0  0  0  0999 V2000
    7.4742  -12.1119   19.3940 C   0  0  0  0  0  0  0  0  0  0  0  0
    8.2437  -13.4581   19.4465 C   0  0  1  0  0  0  0  0  0  0  0  0
    9.7122  -13.0987   19.3295 C   0  0  0  0  0  0  0  0  0  0  0  0
    7.8426  -14.0846   20.7219 C   0  0  0  0  0  0  0  0  0  0  0  0
    8.4516  -15.3844   21.0696 C   0  0  2  0  0  0  0  0  0  0  0  0
    7.8544  -16.4440   20.2076 N   0  0  0  0  0  0  0  0  0  0  0  0
    8.2556  -15.8247   22.4545 C   0  0  0  0  0  0  0  0  0  0  0  0
    7.1423  -15.9871   23.0131 O   0  0  0  0  0  0  0  0  0  0  0  0
   11.0902  -18.0373   24.5408 O   0  0  0  0  0  0  0  0  0  0  0  0
    9.7560  -17.9148   24.8336 C   0  0  0  0  0  0  0  0  0  0  0  0
    9.2331  -16.5098   24.6299 C   0  0  2  0  0  0  0  0  0  0  0  0
    9.3954  -16.1023   23.2681 N   0  0  0  0  0  0  0  0  0  0  0  0
    9.9237  -15.5390   25.5273 C   0  0  0  0  0  0  0  0  0  0  0  0
   11.0535  -15.0876   25.2155 O   0  0  0  0  0  0  0  0  0  0  0  0
    8.9398  -13.2896   28.1973 C   0  0  0  0  0  0  0  0  0  0  0  0
    9.9740  -14.2431   27.6219 C   0  0  2  0  0  0  0  0  0  0  0  0
    9.2848  -15.1436   26.7227 N   0  0  0  0  0  0  0  0  0  0  0  0
   10.5195  -15.0786   28.7303 C   0  0  0  0  0  0  0  0  0  0  0  0
   11.1867  -14.6065   29.6819 O   0  0  0  0  0  0  0  0  0  0  0  0
   10.3016  -16.4590   28.7511 O   0  0  0  0  0  0  0  0  0  0  0  0
  2  1  1  1
  3  2  1  0
  4  2  1  0
  4  5  1  0
  5  7  1  0
  5  6  1  6
  7  8  2  0
  9 10  1  0
 11 10  1  6
 11 13  1  0
 12 11  1  0
 12  7  1  0
 13 14  2  0
 13 17  1  0
 16 15  1  1
 16 18  1  0
 17 16  1  0
 18 19  2  0
 18 20  1  0
M  END
$$$$
