LSA.pdb
     RDKit          3D

 20 19  0  0  1  0  0  0  0  0999 V2000
    7.6771  -11.9195   19.7034 C   0  0  0  0  0  0  0  0  0  0  0  0
    7.9156  -13.4519   19.6607 C   0  0  1  0  0  0  0  0  0  0  0  0
    9.3796  -13.6319   19.3090 C   0  0  0  0  0  0  0  0  0  0  0  0
    7.5174  -13.9438   20.9947 C   0  0  0  0  0  0  0  0  0  0  0  0
    7.7640  -15.3669   21.3033 C   0  0  2  0  0  0  0  0  0  0  0  0
    6.7652  -16.1997   20.5743 N   0  0  0  0  0  0  0  0  0  0  0  0
    7.6507  -15.7365   22.7177 C   0  0  0  0  0  0  0  0  0  0  0  0
    6.5915  -15.7071   23.3923 O   0  0  0  0  0  0  0  0  0  0  0  0
    9.1709  -18.5276   26.1762 O   0  0  0  0  0  0  0  0  0  0  0  0
    9.1072  -18.0820   24.8806 C   0  0  0  0  0  0  0  0  0  0  0  0
    8.7152  -16.6245   24.7757 C   0  0  2  0  0  0  0  0  0  0  0  0
    8.8139  -16.1704   23.4227 N   0  0  0  0  0  0  0  0  0  0  0  0
    9.5667  -15.7698   25.6527 C   0  0  0  0  0  0  0  0  0  0  0  0
   10.7286  -15.4585   25.2914 O   0  0  0  0  0  0  0  0  0  0  0  0
    8.9627  -13.5203   28.4576 C   0  0  0  0  0  0  0  0  0  0  0  0
    9.8717  -14.5100   27.7477 C   0  0  2  0  0  0  0  0  0  0  0  0
    9.0420  -15.3237   26.8852 N   0  0  0  0  0  0  0  0  0  0  0  0
   10.4623  -15.4274   28.7644 C   0  0  0  0  0  0  0  0  0  0  0  0
   10.1467  -16.6374   28.8633 O   0  0  0  0  0  0  0  0  0  0  0  0
   11.4173  -14.9600   29.6716 O   0  0  0  0  0  0  0  0  0  0  0  0
  2  1  1  1
  3  2  1  0
  4  2  1  0
  4  5  1  0
  5  7  1  0
  5  6  1  6
  7  8  2  0
  9 10  1  0
 11 10  1  6
 11 13  1  0
 12 11  1  0
 12  7  1  0
 13 14  2  0
 13 17  1  0
 16 15  1  1
 16 18  1  0
 17 16  1  0
 18 19  2  0
 18 20  1  0
M  END
$$$$
