LSA.pdb
     RDKit          3D

 20 19  0  0  1  0  0  0  0  0999 V2000
    7.6453  -12.2009   19.2145 C   0  0  0  0  0  0  0  0  0  0  0  0
    8.2873  -13.5971   19.4278 C   0  0  1  0  0  0  0  0  0  0  0  0
    9.7633  -13.3409   19.6624 C   0  0  0  0  0  0  0  0  0  0  0  0
    7.5567  -14.1901   20.5656 C   0  0  0  0  0  0  0  0  0  0  0  0
    8.0460  -15.4773   21.0996 C   0  0  2  0  0  0  0  0  0  0  0  0
    7.3147  -16.5889   20.4273 N   0  0  0  0  0  0  0  0  0  0  0  0
    7.8589  -15.6767   22.5403 C   0  0  0  0  0  0  0  0  0  0  0  0
    6.8138  -15.4018   23.1807 O   0  0  0  0  0  0  0  0  0  0  0  0
   10.4281  -18.2323   24.7118 O   0  0  0  0  0  0  0  0  0  0  0  0
    9.1166  -17.9537   25.0007 C   0  0  0  0  0  0  0  0  0  0  0  0
    8.7378  -16.5197   24.7022 C   0  0  2  0  0  0  0  0  0  0  0  0
    8.9253  -16.2253   23.3148 N   0  0  0  0  0  0  0  0  0  0  0  0
    9.5343  -15.5658   25.5271 C   0  0  0  0  0  0  0  0  0  0  0  0
   10.7031  -15.2605   25.1835 O   0  0  0  0  0  0  0  0  0  0  0  0
    8.8393  -13.1589   28.1926 C   0  0  0  0  0  0  0  0  0  0  0  0
    9.7582  -14.1902   27.5586 C   0  0  2  0  0  0  0  0  0  0  0  0
    8.9501  -15.0199   26.6908 N   0  0  0  0  0  0  0  0  0  0  0  0
   10.2869  -15.0802   28.6321 C   0  0  0  0  0  0  0  0  0  0  0  0
   11.0387  -14.6760   29.5512 O   0  0  0  0  0  0  0  0  0  0  0  0
    9.9548  -16.4377   28.6552 O   0  0  0  0  0  0  0  0  0  0  0  0
  2  1  1  1
  3  2  1  0
  4  2  1  0
  4  5  1  0
  5  7  1  0
  5  6  1  6
  7  8  2  0
  9 10  1  0
 11 10  1  6
 11 13  1  0
 12 11  1  0
 12  7  1  0
 13 14  2  0
 13 17  1  0
 16 15  1  1
 16 18  1  0
 17 16  1  0
 18 19  2  0
 18 20  1  0
M  END
$$$$
