LSA.pdb
     RDKit          3D

 20 19  0  0  1  0  0  0  0  0999 V2000
    7.2005  -12.3221   19.0868 C   0  0  0  0  0  0  0  0  0  0  0  0
    7.6229  -13.7373   19.5623 C   0  0  1  0  0  0  0  0  0  0  0  0
    8.5490  -14.2740   18.4881 C   0  0  0  0  0  0  0  0  0  0  0  0
    8.2392  -13.5330   20.8883 C   0  0  0  0  0  0  0  0  0  0  0  0
    8.6228  -14.7330   21.6591 C   0  0  2  0  0  0  0  0  0  0  0  0
    7.7158  -15.8564   21.2878 N   0  0  0  0  0  0  0  0  0  0  0  0
    8.5370  -14.6026   23.1172 C   0  0  0  0  0  0  0  0  0  0  0  0
    8.9941  -13.6437   23.7876 O   0  0  0  0  0  0  0  0  0  0  0  0
    6.9866  -17.7627   25.4724 O   0  0  0  0  0  0  0  0  0  0  0  0
    6.6689  -16.4666   25.7893 C   0  0  0  0  0  0  0  0  0  0  0  0
    7.6857  -15.4681   25.2812 C   0  0  2  0  0  0  0  0  0  0  0  0
    7.8897  -15.6255   23.8740 N   0  0  0  0  0  0  0  0  0  0  0  0
    8.9883  -15.6109   25.9937 C   0  0  0  0  0  0  0  0  0  0  0  0
    9.9297  -16.2500   25.4619 O   0  0  0  0  0  0  0  0  0  0  0  0
   10.4767  -14.0096   28.9750 C   0  0  0  0  0  0  0  0  0  0  0  0
   10.4091  -15.1273   27.9474 C   0  0  2  0  0  0  0  0  0  0  0  0
    9.1369  -15.0175   27.2662 N   0  0  0  0  0  0  0  0  0  0  0  0
   10.3992  -16.4342   28.6658 C   0  0  0  0  0  0  0  0  0  0  0  0
    9.3794  -17.1585   28.7600 O   0  0  0  0  0  0  0  0  0  0  0  0
   11.5595  -16.9150   29.2789 O   0  0  0  0  0  0  0  0  0  0  0  0
  2  1  1  6
  3  2  1  0
  4  2  1  0
  4  5  1  0
  5  7  1  0
  5  6  1  6
  7  8  2  0
  9 10  1  0
 11 10  1  1
 11 13  1  0
 12 11  1  0
 12  7  1  0
 13 14  2  0
 13 17  1  0
 16 15  1  1
 16 18  1  0
 17 16  1  0
 18 19  2  0
 18 20  1  0
M  END
$$$$
