LSA.pdb
     RDKit          3D

 20 19  0  0  1  0  0  0  0  0999 V2000
    5.9686  -11.9158   27.0633 C   0  0  0  0  0  0  0  0  0  0  0  0
    5.9726  -12.7377   25.7474 C   0  0  1  0  0  0  0  0  0  0  0  0
    6.3420  -11.7582   24.6504 C   0  0  0  0  0  0  0  0  0  0  0  0
    6.9391  -13.8303   25.9755 C   0  0  0  0  0  0  0  0  0  0  0  0
    7.0623  -14.8670   24.9307 C   0  0  2  0  0  0  0  0  0  0  0  0
    5.8115  -15.6778   24.9045 N   0  0  0  0  0  0  0  0  0  0  0  0
    8.1632  -15.8188   25.1105 C   0  0  0  0  0  0  0  0  0  0  0  0
    8.1904  -16.7442   25.9594 O   0  0  0  0  0  0  0  0  0  0  0  0
   10.7345  -17.0490   22.1748 O   0  0  0  0  0  0  0  0  0  0  0  0
   11.3616  -16.5762   23.2992 C   0  0  0  0  0  0  0  0  0  0  0  0
   10.4579  -16.5491   24.5123 C   0  0  2  0  0  0  0  0  0  0  0  0
    9.3159  -15.7211   24.2738 N   0  0  0  0  0  0  0  0  0  0  0  0
   11.1855  -16.0608   25.7193 C   0  0  0  0  0  0  0  0  0  0  0  0
   12.0697  -15.1761   25.6060 O   0  0  0  0  0  0  0  0  0  0  0  0
   10.8976  -14.8623   28.6140 C   0  0  0  0  0  0  0  0  0  0  0  0
   11.5696  -16.1446   28.1513 C   0  0  2  0  0  0  0  0  0  0  0  0
   10.8607  -16.6103   26.9787 N   0  0  0  0  0  0  0  0  0  0  0  0
   11.3861  -17.1846   29.2043 C   0  0  0  0  0  0  0  0  0  0  0  0
   10.6738  -18.2049   29.0453 O   0  0  0  0  0  0  0  0  0  0  0  0
   12.0193  -17.0580   30.4438 O   0  0  0  0  0  0  0  0  0  0  0  0
  2  1  1  1
  3  2  1  0
  4  2  1  0
  4  5  1  0
  5  7  1  0
  5  6  1  1
  7  8  2  0
  9 10  1  0
 11 10  1  6
 11 13  1  0
 12 11  1  0
 12  7  1  0
 13 14  2  0
 13 17  1  0
 16 15  1  1
 16 18  1  0
 17 16  1  0
 18 19  2  0
 18 20  1  0
M  END
$$$$
