LSA.pdb
     RDKit          3D

 20 19  0  0  1  0  0  0  0  0999 V2000
    7.7218  -12.4131   24.8567 C   0  0  0  0  0  0  0  0  0  0  0  0
    7.2224  -13.1624   26.1202 C   0  0  1  0  0  0  0  0  0  0  0  0
    6.7414  -12.0867   27.0746 C   0  0  0  0  0  0  0  0  0  0  0  0
    6.1831  -14.0919   25.6345 C   0  0  0  0  0  0  0  0  0  0  0  0
    6.5610  -15.5075   25.4485 C   0  0  2  0  0  0  0  0  0  0  0  0
    7.4651  -15.9167   26.5610 N   0  0  0  0  0  0  0  0  0  0  0  0
    7.2769  -15.8133   24.2059 C   0  0  0  0  0  0  0  0  0  0  0  0
    6.9777  -15.3709   23.0689 O   0  0  0  0  0  0  0  0  0  0  0  0
    9.8561  -15.8263   21.0126 O   0  0  0  0  0  0  0  0  0  0  0  0
    9.1828  -15.6508   22.1946 C   0  0  0  0  0  0  0  0  0  0  0  0
    9.2165  -16.8763   23.0812 C   0  0  2  0  0  0  0  0  0  0  0  0
    8.4112  -16.6793   24.2471 N   0  0  0  0  0  0  0  0  0  0  0  0
   10.6115  -17.2120   23.4888 C   0  0  0  0  0  0  0  0  0  0  0  0
   11.1584  -16.5897   24.4328 O   0  0  0  0  0  0  0  0  0  0  0  0
   13.0497  -19.8180   22.4126 C   0  0  0  0  0  0  0  0  0  0  0  0
   12.6208  -18.6149   23.2364 C   0  0  2  0  0  0  0  0  0  0  0  0
   11.2956  -18.2347   22.7963 N   0  0  0  0  0  0  0  0  0  0  0  0
   13.5235  -17.4721   22.9152 C   0  0  0  0  0  0  0  0  0  0  0  0
   13.2467  -16.5977   22.0594 O   0  0  0  0  0  0  0  0  0  0  0  0
   14.7473  -17.3281   23.5747 O   0  0  0  0  0  0  0  0  0  0  0  0
  2  1  1  6
  3  2  1  0
  4  2  1  0
  4  5  1  0
  5  7  1  0
  5  6  1  1
  7  8  2  0
  9 10  1  0
 11 10  1  6
 11 13  1  0
 12 11  1  0
 12  7  1  0
 13 14  2  0
 13 17  1  0
 16 15  1  6
 16 18  1  0
 17 16  1  0
 18 19  2  0
 18 20  1  0
M  END
$$$$
