LSA.pdb
     RDKit          3D

 20 19  0  0  1  0  0  0  0  0999 V2000
    6.0330  -11.7574   26.1983 C   0  0  0  0  0  0  0  0  0  0  0  0
    6.1341  -12.8758   25.1277 C   0  0  1  0  0  0  0  0  0  0  0  0
    6.9850  -12.3024   24.0112 C   0  0  0  0  0  0  0  0  0  0  0  0
    6.7108  -14.0374   25.8336 C   0  0  0  0  0  0  0  0  0  0  0  0
    7.0317  -15.2367   25.0336 C   0  0  2  0  0  0  0  0  0  0  0  0
    5.7946  -16.0518   24.8668 N   0  0  0  0  0  0  0  0  0  0  0  0
    8.0374  -16.1330   25.6127 C   0  0  0  0  0  0  0  0  0  0  0  0
    7.9328  -16.7234   26.7166 O   0  0  0  0  0  0  0  0  0  0  0  0
   11.8732  -16.6654   23.8042 O   0  0  0  0  0  0  0  0  0  0  0  0
   11.1567  -17.7361   24.2746 C   0  0  0  0  0  0  0  0  0  0  0  0
   10.1805  -17.3593   25.3673 C   0  0  2  0  0  0  0  0  0  0  0  0
    9.2472  -16.3824   24.8970 N   0  0  0  0  0  0  0  0  0  0  0  0
   10.8894  -16.8343   26.5700 C   0  0  0  0  0  0  0  0  0  0  0  0
   11.3431  -15.6631   26.5718 O   0  0  0  0  0  0  0  0  0  0  0  0
   10.9415  -16.7542   29.9019 C   0  0  0  0  0  0  0  0  0  0  0  0
   11.8662  -17.2351   28.7959 C   0  0  2  0  0  0  0  0  0  0  0  0
   11.0371  -17.6754   27.6944 N   0  0  0  0  0  0  0  0  0  0  0  0
   12.6056  -18.4354   29.2823 C   0  0  0  0  0  0  0  0  0  0  0  0
   12.4393  -19.5841   28.8065 O   0  0  0  0  0  0  0  0  0  0  0  0
   13.5388  -18.3224   30.3166 O   0  0  0  0  0  0  0  0  0  0  0  0
  2  1  1  1
  3  2  1  0
  4  2  1  0
  4  5  1  0
  5  7  1  0
  5  6  1  1
  7  8  2  0
  9 10  1  0
 11 10  1  6
 11 13  1  0
 12 11  1  0
 12  7  1  0
 13 14  2  0
 13 17  1  0
 16 15  1  1
 16 18  1  0
 17 16  1  0
 18 19  2  0
 18 20  1  0
M  END
$$$$
