LSA.pdb
     RDKit          3D

 20 19  0  0  1  0  0  0  0  0999 V2000
    7.2046  -12.0939   27.6762 C   0  0  0  0  0  0  0  0  0  0  0  0
    6.4519  -13.0083   26.6740 C   0  0  1  0  0  0  0  0  0  0  0  0
    6.0055  -12.1017   25.5434 C   0  0  0  0  0  0  0  0  0  0  0  0
    7.4221  -14.0572   26.3020 C   0  0  0  0  0  0  0  0  0  0  0  0
    7.0055  -15.0501   25.2910 C   0  0  2  0  0  0  0  0  0  0  0  0
    6.0087  -15.9743   25.9033 N   0  0  0  0  0  0  0  0  0  0  0  0
    8.0766  -15.8982   24.7582 C   0  0  0  0  0  0  0  0  0  0  0  0
    8.6220  -16.8488   25.3720 O   0  0  0  0  0  0  0  0  0  0  0  0
    9.5754  -15.1547   20.8827 O   0  0  0  0  0  0  0  0  0  0  0  0
    9.5454  -16.4382   21.3652 C   0  0  0  0  0  0  0  0  0  0  0  0
    9.5770  -16.5020   22.8765 C   0  0  2  0  0  0  0  0  0  0  0  0
    8.5682  -15.6583   23.4395 N   0  0  0  0  0  0  0  0  0  0  0  0
   10.9132  -16.1057   23.4078 C   0  0  0  0  0  0  0  0  0  0  0  0
   11.1190  -14.9220   23.7739 O   0  0  0  0  0  0  0  0  0  0  0  0
   13.9412  -17.9420   24.4620 C   0  0  0  0  0  0  0  0  0  0  0  0
   13.2424  -16.6901   23.9576 C   0  0  2  0  0  0  0  0  0  0  0  0
   11.9304  -17.0815   23.4887 N   0  0  0  0  0  0  0  0  0  0  0  0
   13.9856  -16.1756   22.7715 C   0  0  0  0  0  0  0  0  0  0  0  0
   15.0976  -15.6010   22.8539 O   0  0  0  0  0  0  0  0  0  0  0  0
   13.4557  -16.3183   21.4860 O   0  0  0  0  0  0  0  0  0  0  0  0
  2  1  1  1
  3  2  1  0
  4  2  1  0
  4  5  1  0
  5  7  1  0
  5  6  1  1
  7  8  2  0
  9 10  1  0
 11 10  1  6
 11 13  1  0
 12 11  1  0
 12  7  1  0
 13 14  2  0
 13 17  1  0
 16 15  1  6
 16 18  1  0
 17 16  1  0
 18 19  2  0
 18 20  1  0
M  END
$$$$
