LSA.pdb
     RDKit          3D

 20 19  0  0  1  0  0  0  0  0999 V2000
    7.5413  -11.9563   19.7465 C   0  0  0  0  0  0  0  0  0  0  0  0
    7.6862  -13.5003   19.6988 C   0  0  1  0  0  0  0  0  0  0  0  0
    8.9622  -13.7711   18.9257 C   0  0  0  0  0  0  0  0  0  0  0  0
    7.6948  -13.9328   21.1105 C   0  0  0  0  0  0  0  0  0  0  0  0
    7.7870  -15.3812   21.3841 C   0  0  2  0  0  0  0  0  0  0  0  0
    6.5389  -16.0434   20.9082 N   0  0  0  0  0  0  0  0  0  0  0  0
    7.9335  -15.7505   22.7956 C   0  0  0  0  0  0  0  0  0  0  0  0
    7.0340  -15.6551   23.6672 O   0  0  0  0  0  0  0  0  0  0  0  0
    9.5920  -19.0734   24.1209 O   0  0  0  0  0  0  0  0  0  0  0  0
   10.1978  -17.9640   24.6532 C   0  0  0  0  0  0  0  0  0  0  0  0
    9.3218  -16.7314   24.6032 C   0  0  2  0  0  0  0  0  0  0  0  0
    9.1826  -16.2641   23.2582 N   0  0  0  0  0  0  0  0  0  0  0  0
    9.8735  -15.6395   25.4565 C   0  0  0  0  0  0  0  0  0  0  0  0
   10.8221  -14.9313   25.0371 O   0  0  0  0  0  0  0  0  0  0  0  0
    8.7885  -13.5410   28.1177 C   0  0  0  0  0  0  0  0  0  0  0  0
    9.9068  -14.4328   27.6041 C   0  0  2  0  0  0  0  0  0  0  0  0
    9.3105  -15.4228   26.7331 N   0  0  0  0  0  0  0  0  0  0  0  0
   10.4923  -15.1741   28.7581 C   0  0  0  0  0  0  0  0  0  0  0  0
   10.3361  -16.4063   28.9335 O   0  0  0  0  0  0  0  0  0  0  0  0
   11.2593  -14.5044   29.7155 O   0  0  0  0  0  0  0  0  0  0  0  0
  2  1  1  1
  3  2  1  0
  4  2  1  0
  4  5  1  0
  5  7  1  0
  5  6  1  1
  7  8  2  0
  9 10  1  0
 11 10  1  6
 11 13  1  0
 12 11  1  0
 12  7  1  0
 13 14  2  0
 13 17  1  0
 16 15  1  1
 16 18  1  0
 17 16  1  0
 18 19  2  0
 18 20  1  0
M  END
$$$$
