LSA.pdb
     RDKit          3D

 20 19  0  0  1  0  0  0  0  0999 V2000
    7.8117  -12.2818   19.3146 C   0  0  0  0  0  0  0  0  0  0  0  0
    8.0770  -13.7901   19.5632 C   0  0  1  0  0  0  0  0  0  0  0  0
    9.5818  -13.9618   19.4902 C   0  0  0  0  0  0  0  0  0  0  0  0
    7.4674  -14.0798   20.8764 C   0  0  0  0  0  0  0  0  0  0  0  0
    7.5718  -15.4598   21.3921 C   0  0  2  0  0  0  0  0  0  0  0  0
    6.6013  -16.3237   20.6612 N   0  0  0  0  0  0  0  0  0  0  0  0
    7.2745  -15.6264   22.8183 C   0  0  0  0  0  0  0  0  0  0  0  0
    6.2304  -15.2293   23.3926 O   0  0  0  0  0  0  0  0  0  0  0  0
    8.9505  -18.6316   25.1519 O   0  0  0  0  0  0  0  0  0  0  0  0
    7.8251  -17.8965   25.4243 C   0  0  0  0  0  0  0  0  0  0  0  0
    7.9708  -16.4357   25.0583 C   0  0  2  0  0  0  0  0  0  0  0  0
    8.2213  -16.2880   23.6575 N   0  0  0  0  0  0  0  0  0  0  0  0
    9.0696  -15.7899   25.8330 C   0  0  0  0  0  0  0  0  0  0  0  0
   10.2514  -15.8410   25.4109 O   0  0  0  0  0  0  0  0  0  0  0  0
    9.2083  -13.4875   28.7231 C   0  0  0  0  0  0  0  0  0  0  0  0
    9.8235  -14.5437   27.8199 C   0  0  2  0  0  0  0  0  0  0  0  0
    8.7537  -15.1268   27.0388 N   0  0  0  0  0  0  0  0  0  0  0  0
   10.3761  -15.6354   28.6724 C   0  0  0  0  0  0  0  0  0  0  0  0
    9.8760  -16.7846   28.7265 O   0  0  0  0  0  0  0  0  0  0  0  0
   11.5047  -15.4128   29.4662 O   0  0  0  0  0  0  0  0  0  0  0  0
  2  1  1  1
  3  2  1  0
  4  2  1  0
  4  5  1  0
  5  7  1  0
  5  6  1  6
  7  8  2  0
  9 10  1  0
 11 10  1  6
 11 13  1  0
 12 11  1  0
 12  7  1  0
 13 14  2  0
 13 17  1  0
 16 15  1  1
 16 18  1  0
 17 16  1  0
 18 19  2  0
 18 20  1  0
M  END
$$$$
