LSA.pdb
     RDKit          3D

 20 19  0  0  1  0  0  0  0  0999 V2000
    7.4831  -12.1891   27.6050 C   0  0  0  0  0  0  0  0  0  0  0  0
    6.6853  -13.1341   26.6681 C   0  0  1  0  0  0  0  0  0  0  0  0
    6.2081  -12.2683   25.5182 C   0  0  0  0  0  0  0  0  0  0  0  0
    7.6305  -14.2086   26.3048 C   0  0  0  0  0  0  0  0  0  0  0  0
    7.1920  -15.1974   25.2991 C   0  0  2  0  0  0  0  0  0  0  0  0
    6.1654  -16.0877   25.9123 N   0  0  0  0  0  0  0  0  0  0  0  0
    8.2416  -16.0799   24.7800 C   0  0  0  0  0  0  0  0  0  0  0  0
    8.7758  -17.0230   25.4149 O   0  0  0  0  0  0  0  0  0  0  0  0
    9.7901  -15.5445   20.8272 O   0  0  0  0  0  0  0  0  0  0  0  0
    9.6696  -16.7811   21.4079 C   0  0  0  0  0  0  0  0  0  0  0  0
    9.7459  -16.7344   22.9182 C   0  0  2  0  0  0  0  0  0  0  0  0
    8.7239  -15.8863   23.4502 N   0  0  0  0  0  0  0  0  0  0  0  0
   11.0815  -16.2562   23.3789 C   0  0  0  0  0  0  0  0  0  0  0  0
   11.2479  -15.0484   23.6804 O   0  0  0  0  0  0  0  0  0  0  0  0
   14.0610  -17.6577   24.8189 C   0  0  0  0  0  0  0  0  0  0  0  0
   13.4681  -16.7027   23.7960 C   0  0  2  0  0  0  0  0  0  0  0  0
   12.1430  -17.1829   23.4672 N   0  0  0  0  0  0  0  0  0  0  0  0
   14.2760  -16.7839   22.5451 C   0  0  0  0  0  0  0  0  0  0  0  0
   13.8884  -17.3855   21.5149 O   0  0  0  0  0  0  0  0  0  0  0  0
   15.5319  -16.1750   22.4714 O   0  0  0  0  0  0  0  0  0  0  0  0
  2  1  1  1
  3  2  1  0
  4  2  1  0
  4  5  1  0
  5  7  1  0
  5  6  1  1
  7  8  2  0
  9 10  1  0
 11 10  1  6
 11 13  1  0
 12 11  1  0
 12  7  1  0
 13 14  2  0
 13 17  1  0
 16 15  1  1
 16 18  1  0
 17 16  1  0
 18 19  2  0
 18 20  1  0
M  END
$$$$
