HIA.pdb
     RDKit          3D

 24 24  0  0  1  0  0  0  0  0999 V2000
    7.5828  -18.8798   27.5387 N   0  0  0  0  0  0  0  0  0  0  0  0
    8.3002  -17.7013   27.1512 C   0  0  1  0  0  0  0  0  0  0  0  0
    9.6434  -17.9818   26.5608 C   0  0  0  0  0  0  0  0  0  0  0  0
   10.5655  -18.4607   27.6029 C   0  0  0  0  0  0  0  0  0  0  0  0
   10.5555  -18.1293   28.9611 C   0  0  0  0  0  0  0  0  0  0  0  0
   11.5595  -18.7769   29.5659 N   0  0  0  0  0  0  0  0  0  0  0  0
   12.1893  -19.4969   28.6278 C   0  0  0  0  0  0  0  0  0  0  0  0
   11.5941  -19.3122   27.4328 N   0  0  0  0  0  0  0  0  0  0  0  0
    7.4885  -16.8329   26.2382 C   0  0  0  0  0  0  0  0  0  0  0  0
    6.6042  -17.3189   25.4884 O   0  0  0  0  0  0  0  0  0  0  0  0
    7.4282  -11.7451   27.6138 C   0  0  0  0  0  0  0  0  0  0  0  0
    6.5577  -12.8609   27.0598 C   0  0  0  0  0  0  0  0  0  0  0  0
    7.0212  -13.1349   25.6618 C   0  0  2  0  0  0  0  0  0  0  0  0
    6.1291  -12.3488   24.7204 C   0  0  0  0  0  0  0  0  0  0  0  0
    6.9184  -14.5839   25.2717 C   0  0  2  0  0  0  0  0  0  0  0  0
    7.6729  -15.4218   26.1708 N   0  0  0  0  0  0  0  0  0  0  0  0
    7.3134  -14.8548   23.8878 C   0  0  0  0  0  0  0  0  0  0  0  0
    6.5161  -14.5795   22.9284 O   0  0  0  0  0  0  0  0  0  0  0  0
    9.0686  -14.2892   21.4645 C   0  0  0  0  0  0  0  0  0  0  0  0
    8.9530  -15.6446   22.1313 C   0  0  2  0  0  0  0  0  0  0  0  0
    8.5556  -15.4197   23.5026 N   0  0  0  0  0  0  0  0  0  0  0  0
   10.2593  -16.3330   22.0287 C   0  0  0  0  0  0  0  0  0  0  0  0
   10.7530  -16.4576   20.8802 O   0  0  0  0  0  0  0  0  0  0  0  0
   10.9530  -16.8367   23.1069 O   0  0  0  0  0  0  0  0  0  0  0  0
  2  1  1  6
  3  2  1  0
  4  3  1  0
  5  4  2  0
  6  5  1  0
  7  6  1  0
  7  8  2  0
  8  4  1  0
  9 10  2  0
  9  2  1  0
 11 12  1  0
 12 13  1  0
 13 15  1  0
 13 14  1  6
 15 16  1  1
 16  9  1  0
 17 15  1  0
 18 17  2  0
 20 19  1  6
 20 21  1  0
 21 17  1  0
 22 20  1  0
 23 22  2  0
 24 22  1  0
M  END
$$$$
