HIA.pdb
     RDKit          3D

 24 24  0  0  1  0  0  0  0  0999 V2000
    9.3575  -14.7900   20.4606 N   0  0  0  0  0  0  0  0  0  0  0  0
    8.3768  -15.2255   21.4106 C   0  0  1  0  0  0  0  0  0  0  0  0
    7.9430  -16.6422   21.2204 C   0  0  0  0  0  0  0  0  0  0  0  0
    7.3396  -16.8136   19.8891 C   0  0  0  0  0  0  0  0  0  0  0  0
    7.2755  -15.8698   18.8596 C   0  0  0  0  0  0  0  0  0  0  0  0
    6.6459  -16.4207   17.8141 N   0  0  0  0  0  0  0  0  0  0  0  0
    6.3189  -17.6724   18.1625 C   0  0  0  0  0  0  0  0  0  0  0  0
    6.7354  -17.9211   19.4199 N   0  0  0  0  0  0  0  0  0  0  0  0
    8.8285  -14.9920   22.8206 C   0  0  0  0  0  0  0  0  0  0  0  0
   10.0419  -15.0686   23.1399 O   0  0  0  0  0  0  0  0  0  0  0  0
    6.0484  -11.6488   26.1820 C   0  0  0  0  0  0  0  0  0  0  0  0
    7.1875  -12.3164   25.4294 C   0  0  0  0  0  0  0  0  0  0  0  0
    7.3714  -13.6811   26.0193 C   0  0  2  0  0  0  0  0  0  0  0  0
    7.9488  -13.5054   27.4106 C   0  0  0  0  0  0  0  0  0  0  0  0
    8.3280  -14.5436   25.2425 C   0  0  2  0  0  0  0  0  0  0  0  0
    7.9153  -14.6733   23.8668 N   0  0  0  0  0  0  0  0  0  0  0  0
    8.5393  -15.8697   25.8270 C   0  0  0  0  0  0  0  0  0  0  0  0
    7.5441  -16.6412   26.0416 O   0  0  0  0  0  0  0  0  0  0  0  0
   11.2597  -18.2864   26.2267 C   0  0  0  0  0  0  0  0  0  0  0  0
    9.9986  -17.6852   26.8127 C   0  0  2  0  0  0  0  0  0  0  0  0
    9.8051  -16.3949   26.1910 N   0  0  0  0  0  0  0  0  0  0  0  0
   10.1625  -17.5850   28.2802 C   0  0  0  0  0  0  0  0  0  0  0  0
   10.4751  -16.4611   28.7467 O   0  0  0  0  0  0  0  0  0  0  0  0
    9.9937  -18.6401   29.1495 O   0  0  0  0  0  0  0  0  0  0  0  0
  2  1  1  6
  3  2  1  0
  4  3  1  0
  5  4  2  0
  6  5  1  0
  7  6  1  0
  7  8  2  0
  8  4  1  0
  9 10  2  0
  9  2  1  0
 11 12  1  0
 12 13  1  0
 13 15  1  0
 13 14  1  1
 15 16  1  6
 16  9  1  0
 17 15  1  0
 18 17  2  0
 20 19  1  6
 20 21  1  0
 21 17  1  0
 22 20  1  0
 23 22  2  0
 24 22  1  0
M  END
$$$$
