HIA.pdb
     RDKit          3D

 24 24  0  0  1  0  0  0  0  0999 V2000
    8.5802  -15.0758   20.3596 N   0  0  0  0  0  0  0  0  0  0  0  0
    7.9410  -15.7633   21.4425 C   0  0  1  0  0  0  0  0  0  0  0  0
    7.9318  -17.2491   21.2896 C   0  0  0  0  0  0  0  0  0  0  0  0
    7.1800  -17.6302   20.0833 C   0  0  0  0  0  0  0  0  0  0  0  0
    5.7920  -17.7219   19.9432 C   0  0  0  0  0  0  0  0  0  0  0  0
    5.5135  -18.0998   18.6891 N   0  0  0  0  0  0  0  0  0  0  0  0
    6.6820  -18.2446   18.0498 C   0  0  0  0  0  0  0  0  0  0  0  0
    7.6998  -17.9621   18.8868 N   0  0  0  0  0  0  0  0  0  0  0  0
    8.5186  -15.3683   22.7681 C   0  0  0  0  0  0  0  0  0  0  0  0
    9.7597  -15.3707   22.9676 O   0  0  0  0  0  0  0  0  0  0  0  0
    5.8034  -11.8586   25.9827 C   0  0  0  0  0  0  0  0  0  0  0  0
    6.9335  -12.5135   25.2056 C   0  0  0  0  0  0  0  0  0  0  0  0
    7.3122  -13.7637   25.9390 C   0  0  2  0  0  0  0  0  0  0  0  0
    8.0348  -13.3506   27.2069 C   0  0  0  0  0  0  0  0  0  0  0  0
    8.2432  -14.6533   25.1619 C   0  0  2  0  0  0  0  0  0  0  0  0
    7.6997  -14.9721   23.8647 N   0  0  0  0  0  0  0  0  0  0  0  0
    8.6115  -15.8843   25.8646 C   0  0  0  0  0  0  0  0  0  0  0  0
    7.7058  -16.7038   26.2388 O   0  0  0  0  0  0  0  0  0  0  0  0
   11.6405  -17.9335   26.3040 C   0  0  0  0  0  0  0  0  0  0  0  0
   10.2967  -17.4937   26.8481 C   0  0  2  0  0  0  0  0  0  0  0  0
    9.9412  -16.2625   26.1796 N   0  0  0  0  0  0  0  0  0  0  0  0
   10.4141  -17.3256   28.3139 C   0  0  0  0  0  0  0  0  0  0  0  0
   10.4372  -16.1499   28.7561 O   0  0  0  0  0  0  0  0  0  0  0  0
   10.4981  -18.3715   29.2063 O   0  0  0  0  0  0  0  0  0  0  0  0
  2  1  1  6
  3  2  1  0
  4  3  1  0
  5  4  2  0
  6  5  1  0
  7  6  1  0
  7  8  2  0
  8  4  1  0
  9 10  2  0
  9  2  1  0
 11 12  1  0
 12 13  1  0
 13 15  1  0
 13 14  1  1
 15 16  1  6
 16  9  1  0
 17 15  1  0
 18 17  2  0
 20 19  1  6
 20 21  1  0
 21 17  1  0
 22 20  1  0
 23 22  2  0
 24 22  1  0
M  END
$$$$
