HIA.pdb
     RDKit          3D

 24 24  0  0  1  0  0  0  0  0999 V2000
   10.5582  -17.6247   16.5246 N   0  0  0  0  0  0  0  0  0  0  0  0
    9.5504  -17.7940   17.5294 C   0  0  1  0  0  0  0  0  0  0  0  0
    9.3345  -19.2165   17.9309 C   0  0  0  0  0  0  0  0  0  0  0  0
    8.9241  -20.0158   16.7654 C   0  0  0  0  0  0  0  0  0  0  0  0
    7.8080  -19.8120   15.9483 C   0  0  0  0  0  0  0  0  0  0  0  0
    7.7946  -20.7577   15.0004 N   0  0  0  0  0  0  0  0  0  0  0  0
    8.8641  -21.5386   15.2039 C   0  0  0  0  0  0  0  0  0  0  0  0
    9.5564  -21.0971   16.2726 N   0  0  0  0  0  0  0  0  0  0  0  0
    9.8147  -16.9364   18.7300 C   0  0  0  0  0  0  0  0  0  0  0  0
   10.9649  -16.8468   19.2293 O   0  0  0  0  0  0  0  0  0  0  0  0
    6.6264  -12.4916   19.4998 C   0  0  0  0  0  0  0  0  0  0  0  0
    7.8264  -13.4024   19.2997 C   0  0  0  0  0  0  0  0  0  0  0  0
    7.9805  -14.2165   20.5479 C   0  0  2  0  0  0  0  0  0  0  0  0
    8.3775  -13.2715   21.6657 C   0  0  0  0  0  0  0  0  0  0  0  0
    9.0521  -15.2672   20.4472 C   0  0  2  0  0  0  0  0  0  0  0  0
    8.7860  -16.1827   19.3653 N   0  0  0  0  0  0  0  0  0  0  0  0
    9.2703  -16.0123   21.6889 C   0  0  0  0  0  0  0  0  0  0  0  0
    8.6271  -17.0940   21.9085 O   0  0  0  0  0  0  0  0  0  0  0  0
   10.1781  -17.8944   23.4423 C   0  0  0  0  0  0  0  0  0  0  0  0
   10.5767  -16.4782   23.8040 C   0  0  2  0  0  0  0  0  0  0  0  0
   10.1709  -15.6224   22.7123 N   0  0  0  0  0  0  0  0  0  0  0  0
   12.0386  -16.4444   24.0334 C   0  0  0  0  0  0  0  0  0  0  0  0
   12.7245  -15.7340   23.2567 O   0  0  0  0  0  0  0  0  0  0  0  0
   12.6786  -17.1385   25.0364 O   0  0  0  0  0  0  0  0  0  0  0  0
  2  1  1  6
  3  2  1  0
  4  3  1  0
  5  4  2  0
  6  5  1  0
  7  6  1  0
  7  8  2  0
  8  4  1  0
  9 10  2  0
  9  2  1  0
 11 12  1  0
 12 13  1  0
 13 15  1  0
 13 14  1  1
 15 16  1  6
 16  9  1  0
 17 15  1  0
 18 17  2  0
 20 19  1  6
 20 21  1  0
 21 17  1  0
 22 20  1  0
 23 22  2  0
 24 22  1  0
M  END
$$$$
