HIA.pdb
     RDKit          3D

 24 24  0  0  1  0  0  0  0  0999 V2000
    9.1254  -15.7620   20.7898 N   0  0  0  0  0  0  0  0  0  0  0  0
    8.0825  -15.9752   21.7494 C   0  0  1  0  0  0  0  0  0  0  0  0
    7.5531  -17.3720   21.7618 C   0  0  0  0  0  0  0  0  0  0  0  0
    7.0254  -17.7262   20.4345 C   0  0  0  0  0  0  0  0  0  0  0  0
    7.7020  -17.6752   19.2121 C   0  0  0  0  0  0  0  0  0  0  0  0
    6.8680  -18.0792   18.2454 N   0  0  0  0  0  0  0  0  0  0  0  0
    5.6995  -18.3780   18.8289 C   0  0  0  0  0  0  0  0  0  0  0  0
    5.7843  -18.1674   20.1574 N   0  0  0  0  0  0  0  0  0  0  0  0
    8.4999  -15.5521   23.1254 C   0  0  0  0  0  0  0  0  0  0  0  0
    9.6797  -15.7114   23.5289 O   0  0  0  0  0  0  0  0  0  0  0  0
    5.9071  -11.5148   25.7763 C   0  0  0  0  0  0  0  0  0  0  0  0
    7.0393  -12.3712   25.2336 C   0  0  0  0  0  0  0  0  0  0  0  0
    7.0513  -13.6450   26.0219 C   0  0  2  0  0  0  0  0  0  0  0  0
    7.6008  -13.3269   27.3992 C   0  0  0  0  0  0  0  0  0  0  0  0
    7.9297  -14.7094   25.4236 C   0  0  2  0  0  0  0  0  0  0  0  0
    7.5904  -14.9516   24.0430 N   0  0  0  0  0  0  0  0  0  0  0  0
    7.9231  -15.9709   26.1675 C   0  0  0  0  0  0  0  0  0  0  0  0
    7.0030  -16.8324   25.9597 O   0  0  0  0  0  0  0  0  0  0  0  0
    7.6610  -18.3571   27.4569 C   0  0  0  0  0  0  0  0  0  0  0  0
    8.9577  -17.6367   27.7650 C   0  0  2  0  0  0  0  0  0  0  0  0
    8.8890  -16.3356   27.1393 N   0  0  0  0  0  0  0  0  0  0  0  0
   10.0821  -18.4506   27.2513 C   0  0  0  0  0  0  0  0  0  0  0  0
   10.2690  -19.5722   27.7855 O   0  0  0  0  0  0  0  0  0  0  0  0
   10.9222  -18.0519   26.2351 O   0  0  0  0  0  0  0  0  0  0  0  0
  2  1  1  6
  3  2  1  0
  4  3  1  0
  5  4  2  0
  6  5  1  0
  7  6  1  0
  7  8  2  0
  8  4  1  0
  9 10  2  0
  9  2  1  0
 11 12  1  0
 12 13  1  0
 13 15  1  0
 13 14  1  1
 15 16  1  6
 16  9  1  0
 17 15  1  0
 18 17  2  0
 20 19  1  6
 20 21  1  0
 21 17  1  0
 22 20  1  0
 23 22  2  0
 24 22  1  0
M  END
$$$$
