HIA.pdb
     RDKit          3D

 24 24  0  0  1  0  0  0  0  0999 V2000
   11.6208  -17.0970   17.0469 N   0  0  0  0  0  0  0  0  0  0  0  0
   12.6249  -16.0842   17.1881 C   0  0  1  0  0  0  0  0  0  0  0  0
   13.1340  -15.5566   15.8867 C   0  0  0  0  0  0  0  0  0  0  0  0
   13.7046  -16.6503   15.0843 C   0  0  0  0  0  0  0  0  0  0  0  0
   13.9410  -17.9666   15.4920 C   0  0  0  0  0  0  0  0  0  0  0  0
   14.4684  -18.6436   14.4640 N   0  0  0  0  0  0  0  0  0  0  0  0
   14.5659  -17.7905   13.4355 C   0  0  0  0  0  0  0  0  0  0  0  0
   14.1051  -16.5780   13.8013 N   0  0  0  0  0  0  0  0  0  0  0  0
   12.1634  -14.9651   18.0721 C   0  0  0  0  0  0  0  0  0  0  0  0
   12.9031  -13.9791   18.3189 O   0  0  0  0  0  0  0  0  0  0  0  0
    7.0783  -12.1017   19.6999 C   0  0  0  0  0  0  0  0  0  0  0  0
    8.5415  -12.3255   20.0443 C   0  0  0  0  0  0  0  0  0  0  0  0
    8.9994  -13.5303   19.2807 C   0  0  2  0  0  0  0  0  0  0  0  0
    8.1414  -14.7026   19.7161 C   0  0  0  0  0  0  0  0  0  0  0  0
   10.4325  -13.8991   19.5502 C   0  0  2  0  0  0  0  0  0  0  0  0
   10.8728  -14.9578   18.6756 N   0  0  0  0  0  0  0  0  0  0  0  0
   10.6999  -14.2600   20.9441 C   0  0  0  0  0  0  0  0  0  0  0  0
   10.2935  -13.5046   21.8907 O   0  0  0  0  0  0  0  0  0  0  0  0
   10.1627  -15.9677   23.3196 C   0  0  0  0  0  0  0  0  0  0  0  0
   11.5519  -15.8357   22.7297 C   0  0  2  0  0  0  0  0  0  0  0  0
   11.3998  -15.4234   21.3528 N   0  0  0  0  0  0  0  0  0  0  0  0
   12.2424  -17.1389   22.8549 C   0  0  0  0  0  0  0  0  0  0  0  0
   12.4596  -17.5633   24.0172 O   0  0  0  0  0  0  0  0  0  0  0  0
   12.6539  -17.9003   21.7833 O   0  0  0  0  0  0  0  0  0  0  0  0
  2  1  1  6
  3  2  1  0
  4  3  1  0
  5  4  2  0
  6  5  1  0
  7  6  1  0
  7  8  2  0
  8  4  1  0
  9 10  2  0
  9  2  1  0
 11 12  1  0
 12 13  1  0
 13 15  1  0
 13 14  1  1
 15 16  1  6
 16  9  1  0
 17 15  1  0
 18 17  2  0
 20 19  1  6
 20 21  1  0
 21 17  1  0
 22 20  1  0
 23 22  2  0
 24 22  1  0
M  END
$$$$
