HIA.pdb
     RDKit          3D

 24 24  0  0  1  0  0  0  0  0999 V2000
    8.5847  -15.8344   20.7189 N   0  0  0  0  0  0  0  0  0  0  0  0
    7.9735  -16.3016   21.9279 C   0  0  1  0  0  0  0  0  0  0  0  0
    7.9251  -17.7903   22.0409 C   0  0  0  0  0  0  0  0  0  0  0  0
    7.1118  -18.3554   20.9524 C   0  0  0  0  0  0  0  0  0  0  0  0
    5.8442  -17.9372   20.5363 C   0  0  0  0  0  0  0  0  0  0  0  0
    5.4525  -18.7119   19.5167 N   0  0  0  0  0  0  0  0  0  0  0  0
    6.4347  -19.5942   19.2888 C   0  0  0  0  0  0  0  0  0  0  0  0
    7.4464  -19.3866   20.1545 N   0  0  0  0  0  0  0  0  0  0  0  0
    8.6113  -15.6963   23.1418 C   0  0  0  0  0  0  0  0  0  0  0  0
    9.8577  -15.5546   23.2238 O   0  0  0  0  0  0  0  0  0  0  0  0
    5.8411  -12.0629   26.0794 C   0  0  0  0  0  0  0  0  0  0  0  0
    7.0234  -12.6804   25.3509 C   0  0  0  0  0  0  0  0  0  0  0  0
    7.5223  -13.8145   26.1931 C   0  0  2  0  0  0  0  0  0  0  0  0
    8.2945  -13.2183   27.3544 C   0  0  0  0  0  0  0  0  0  0  0  0
    8.4569  -14.7370   25.4597 C   0  0  2  0  0  0  0  0  0  0  0  0
    7.8467  -15.2523   24.2590 N   0  0  0  0  0  0  0  0  0  0  0  0
    8.9612  -15.8426   26.2770 C   0  0  0  0  0  0  0  0  0  0  0  0
    8.1447  -16.6134   26.8861 O   0  0  0  0  0  0  0  0  0  0  0  0
   12.2819  -17.4788   26.8125 C   0  0  0  0  0  0  0  0  0  0  0  0
   10.8203  -17.3057   27.1716 C   0  0  2  0  0  0  0  0  0  0  0  0
   10.3343  -16.1457   26.4596 N   0  0  0  0  0  0  0  0  0  0  0  0
   10.7109  -17.1527   28.6397 C   0  0  0  0  0  0  0  0  0  0  0  0
   10.7079  -18.2044   29.3271 O   0  0  0  0  0  0  0  0  0  0  0  0
   10.6137  -15.9392   29.2840 O   0  0  0  0  0  0  0  0  0  0  0  0
  2  1  1  6
  3  2  1  0
  4  3  1  0
  5  4  2  0
  6  5  1  0
  7  6  1  0
  7  8  2  0
  8  4  1  0
  9 10  2  0
  9  2  1  0
 11 12  1  0
 12 13  1  0
 13 15  1  0
 13 14  1  1
 15 16  1  6
 16  9  1  0
 17 15  1  0
 18 17  2  0
 20 19  1  1
 20 21  1  0
 21 17  1  0
 22 20  1  0
 23 22  2  0
 24 22  1  0
M  END
$$$$
