HIA.pdb
     RDKit          3D

 24 24  0  0  1  0  0  0  0  0999 V2000
    8.9405  -15.3416   20.5752 N   0  0  0  0  0  0  0  0  0  0  0  0
    8.1738  -15.8483   21.6749 C   0  0  1  0  0  0  0  0  0  0  0  0
    7.9914  -17.3306   21.6484 C   0  0  0  0  0  0  0  0  0  0  0  0
    7.0850  -17.7106   20.5530 C   0  0  0  0  0  0  0  0  0  0  0  0
    6.5452  -16.8748   19.5708 C   0  0  0  0  0  0  0  0  0  0  0  0
    5.7711  -17.6103   18.7628 N   0  0  0  0  0  0  0  0  0  0  0  0
    5.8142  -18.8717   19.2123 C   0  0  0  0  0  0  0  0  0  0  0  0
    6.6088  -18.9436   20.2984 N   0  0  0  0  0  0  0  0  0  0  0  0
    8.7338  -15.4046   22.9925 C   0  0  0  0  0  0  0  0  0  0  0  0
    9.9738  -15.3575   23.1937 O   0  0  0  0  0  0  0  0  0  0  0  0
    6.0160  -11.8198   26.1020 C   0  0  0  0  0  0  0  0  0  0  0  0
    7.1750  -12.4886   25.3815 C   0  0  0  0  0  0  0  0  0  0  0  0
    7.4856  -13.7556   26.1180 C   0  0  2  0  0  0  0  0  0  0  0  0
    8.1606  -13.3747   27.4216 C   0  0  0  0  0  0  0  0  0  0  0  0
    8.4266  -14.6634   25.3744 C   0  0  2  0  0  0  0  0  0  0  0  0
    7.8988  -15.0153   24.0793 N   0  0  0  0  0  0  0  0  0  0  0  0
    8.7877  -15.8758   26.1122 C   0  0  0  0  0  0  0  0  0  0  0  0
    7.8801  -16.6961   26.4800 O   0  0  0  0  0  0  0  0  0  0  0  0
   11.7119  -18.0025   26.5728 C   0  0  0  0  0  0  0  0  0  0  0  0
   10.4578  -17.4313   27.2024 C   0  0  2  0  0  0  0  0  0  0  0  0
   10.1122  -16.2346   26.4692 N   0  0  0  0  0  0  0  0  0  0  0  0
   10.7307  -17.1579   28.6312 C   0  0  0  0  0  0  0  0  0  0  0  0
   10.8027  -15.9533   28.9808 O   0  0  0  0  0  0  0  0  0  0  0  0
   10.9072  -18.1366   29.5842 O   0  0  0  0  0  0  0  0  0  0  0  0
  2  1  1  6
  3  2  1  0
  4  3  1  0
  5  4  2  0
  6  5  1  0
  7  6  1  0
  7  8  2  0
  8  4  1  0
  9 10  2  0
  9  2  1  0
 11 12  1  0
 12 13  1  0
 13 15  1  0
 13 14  1  1
 15 16  1  6
 16  9  1  0
 17 15  1  0
 18 17  2  0
 20 19  1  6
 20 21  1  0
 21 17  1  0
 22 20  1  0
 23 22  2  0
 24 22  1  0
M  END
$$$$
