MTR.pdb
     RDKit          3D

 27 26  0  0  1  0  0  0  0  0999 V2000
   22.8018  -23.8208  -17.3487 C   0  0  0  0  0  0  0  0  0  0  0  0
   24.1480  -22.8063  -17.9367 S   0  0  0  0  0  0  0  0  0  0  0  0
   23.6185  -21.2465  -18.5600 C   0  0  0  0  0  0  0  0  0  0  0  0
   23.3862  -20.1778  -17.5567 C   0  0  0  0  0  0  0  0  0  0  0  0
   24.4491  -19.8205  -16.6024 C   0  0  2  0  0  0  0  0  0  0  0  0
   24.5402  -20.7993  -15.5247 N   0  0  0  0  0  0  0  0  0  0  0  0
   24.1547  -18.4714  -15.9584 C   0  0  0  0  0  0  0  0  0  0  0  0
   24.3761  -18.3632  -14.7392 O   0  0  0  0  0  0  0  0  0  0  0  0
   25.7080  -16.5346  -14.8254 C   0  0  0  0  0  0  0  0  0  0  0  0
   25.0087  -15.5956  -15.7489 C   0  0  1  0  0  0  0  0  0  0  0  0
   25.7169  -15.7070  -16.9851 O   0  0  0  0  0  0  0  0  0  0  0  0
   23.5894  -16.0169  -16.1198 C   0  0  2  0  0  0  0  0  0  0  0  0
   23.6522  -17.3757  -16.6924 N   0  0  0  0  0  0  0  0  0  0  0  0
   22.9038  -15.1115  -17.0350 C   0  0  0  0  0  0  0  0  0  0  0  0
   23.1081  -15.2772  -18.2934 O   0  0  0  0  0  0  0  0  0  0  0  0
   16.0189  -10.2046  -15.1541 N   0  0  0  0  0  0  0  0  0  0  0  0
   17.3776  -10.1483  -14.7864 C   0  0  0  0  0  0  0  0  0  0  0  0
   17.7120   -9.5346  -13.7160 N   0  0  0  0  0  0  0  0  0  0  0  0
   18.3608  -10.7652  -15.5893 N   0  0  0  0  0  0  0  0  0  0  0  0
   18.0574  -11.2971  -16.8647 C   0  0  0  0  0  0  0  0  0  0  0  0
   19.2148  -11.8046  -17.6428 C   0  0  0  0  0  0  0  0  0  0  0  0
   20.1112  -12.7482  -16.9348 C   0  0  0  0  0  0  0  0  0  0  0  0
   21.2863  -13.2861  -17.6593 C   0  0  2  0  0  0  0  0  0  0  0  0
   22.0416  -14.0815  -16.6511 N   0  0  0  0  0  0  0  0  0  0  0  0
   22.2289  -12.1494  -18.0116 C   0  0  0  0  0  0  0  0  0  0  0  0
   23.0972  -11.7286  -17.2024 O   0  0  0  0  0  0  0  0  0  0  0  0
   22.1579  -11.5449  -19.2283 O   0  0  0  0  0  0  0  0  0  0  0  0
  2  1  1  0
  3  2  1  0
  4  5  1  0
  4  3  1  0
  5  7  1  0
  5  6  1  1
  7  8  2  0
 10  9  1  1
 10 12  1  0
 11 10  1  0
 12 13  1  6
 13  7  1  0
 14 12  1  0
 14 15  2  0
 17 16  1  0
 18 17  2  0
 19 17  1  0
 20 19  1  0
 21 20  1  0
 21 22  1  0
 23 22  1  1
 23 24  1  0
 23 25  1  0
 24 14  1  0
 25 26  2  0
 25 27  1  0
M  END
$$$$
