MTR.pdb
     RDKit          3D

 27 26  0  0  1  0  0  0  0  0999 V2000
   30.7094  -21.4509   -7.4019 C   0  0  0  0  0  0  0  0  0  0  0  0
   31.9105  -22.0056   -8.6006 S   0  0  0  0  0  0  0  0  0  0  0  0
   31.2150  -22.3032  -10.1910 C   0  0  0  0  0  0  0  0  0  0  0  0
   29.9963  -21.5291  -10.5350 C   0  0  0  0  0  0  0  0  0  0  0  0
   29.3073  -21.7709  -11.8137 C   0  0  2  0  0  0  0  0  0  0  0  0
   30.2335  -21.6785  -12.9368 N   0  0  0  0  0  0  0  0  0  0  0  0
   28.2230  -20.7247  -12.0402 C   0  0  0  0  0  0  0  0  0  0  0  0
   28.5820  -19.5346  -12.0847 O   0  0  0  0  0  0  0  0  0  0  0  0
   27.8003  -18.8518  -13.7074 C   0  0  0  0  0  0  0  0  0  0  0  0
   26.4075  -19.3606  -13.8648 C   0  0  1  0  0  0  0  0  0  0  0  0
   26.5094  -20.4040  -14.8360 O   0  0  0  0  0  0  0  0  0  0  0  0
   25.8568  -20.0793  -12.6360 C   0  0  2  0  0  0  0  0  0  0  0  0
   26.8624  -21.0658  -12.1961 N   0  0  0  0  0  0  0  0  0  0  0  0
   24.5647  -20.7258  -12.8355 C   0  0  0  0  0  0  0  0  0  0  0  0
   24.2762  -21.7179  -12.0705 O   0  0  0  0  0  0  0  0  0  0  0  0
   19.5317  -24.5119  -10.0533 N   0  0  0  0  0  0  0  0  0  0  0  0
   19.7458  -23.3242   -9.3265 C   0  0  0  0  0  0  0  0  0  0  0  0
   19.6703  -23.3484   -8.0506 N   0  0  0  0  0  0  0  0  0  0  0  0
   20.0433  -22.1195   -9.9987 N   0  0  0  0  0  0  0  0  0  0  0  0
   19.9510  -22.0072  -11.4060 C   0  0  0  0  0  0  0  0  0  0  0  0
   20.3441  -20.6938  -11.9744 C   0  0  0  0  0  0  0  0  0  0  0  0
   21.7765  -20.5365  -12.3188 C   0  0  0  0  0  0  0  0  0  0  0  0
   22.2052  -20.8197  -13.7084 C   0  0  2  0  0  0  0  0  0  0  0  0
   23.6165  -20.3496  -13.7900 N   0  0  0  0  0  0  0  0  0  0  0  0
   21.4584  -19.9081  -14.6655 C   0  0  0  0  0  0  0  0  0  0  0  0
   20.4914  -20.3193  -15.3597 O   0  0  0  0  0  0  0  0  0  0  0  0
   21.8211  -18.6041  -14.8023 O   0  0  0  0  0  0  0  0  0  0  0  0
  2  1  1  0
  3  2  1  0
  4  5  1  0
  4  3  1  0
  5  7  1  0
  5  6  1  6
  7  8  2  0
 10  9  1  1
 10 12  1  0
 11 10  1  0
 12 13  1  6
 13  7  1  0
 14 12  1  0
 14 15  2  0
 17 16  1  0
 18 17  2  0
 19 17  1  0
 20 19  1  0
 21 20  1  0
 21 22  1  0
 23 22  1  1
 23 24  1  0
 23 25  1  0
 24 14  1  0
 25 26  2  0
 25 27  1  0
M  END
$$$$
