MTR.pdb
     RDKit          3D

 27 26  0  0  1  0  0  0  0  0999 V2000
   30.3610  -21.6329   -8.1806 C   0  0  0  0  0  0  0  0  0  0  0  0
   31.2194  -22.4188   -9.5344 S   0  0  0  0  0  0  0  0  0  0  0  0
   31.0569  -21.5476  -11.0564 C   0  0  0  0  0  0  0  0  0  0  0  0
   29.7392  -20.9178  -11.3203 C   0  0  0  0  0  0  0  0  0  0  0  0
   29.0323  -21.1914  -12.5826 C   0  0  2  0  0  0  0  0  0  0  0  0
   29.8312  -20.7834  -13.7328 N   0  0  0  0  0  0  0  0  0  0  0  0
   27.7274  -20.4070  -12.6428 C   0  0  0  0  0  0  0  0  0  0  0  0
   27.8027  -19.1699  -12.5376 O   0  0  0  0  0  0  0  0  0  0  0  0
   26.7610  -18.6127  -14.2067 C   0  0  0  0  0  0  0  0  0  0  0  0
   25.4579  -19.3375  -14.2203 C   0  0  1  0  0  0  0  0  0  0  0  0
   25.5592  -20.2465  -15.3184 O   0  0  0  0  0  0  0  0  0  0  0  0
   25.2368  -20.2584  -13.0234 C   0  0  2  0  0  0  0  0  0  0  0  0
   26.4742  -21.0340  -12.8103 N   0  0  0  0  0  0  0  0  0  0  0  0
   24.0914  -21.1532  -13.1456 C   0  0  0  0  0  0  0  0  0  0  0  0
   24.2557  -22.2340  -13.8220 O   0  0  0  0  0  0  0  0  0  0  0  0
   17.3668  -24.3807   -8.9226 N   0  0  0  0  0  0  0  0  0  0  0  0
   18.5764  -23.9246   -8.3629 C   0  0  0  0  0  0  0  0  0  0  0  0
   19.0151  -24.4676   -7.2919 N   0  0  0  0  0  0  0  0  0  0  0  0
   19.2994  -22.8807   -8.9787 N   0  0  0  0  0  0  0  0  0  0  0  0
   18.8280  -22.2324  -10.1445 C   0  0  0  0  0  0  0  0  0  0  0  0
   19.6170  -22.4720  -11.3785 C   0  0  0  0  0  0  0  0  0  0  0  0
   20.8361  -21.6460  -11.5417 C   0  0  0  0  0  0  0  0  0  0  0  0
   21.7531  -21.9523  -12.6643 C   0  0  2  0  0  0  0  0  0  0  0  0
   22.8325  -20.9287  -12.5832 N   0  0  0  0  0  0  0  0  0  0  0  0
   21.0604  -21.6522  -13.9815 C   0  0  0  0  0  0  0  0  0  0  0  0
   20.9970  -20.4851  -14.4503 O   0  0  0  0  0  0  0  0  0  0  0  0
   20.4793  -22.6508  -14.6997 O   0  0  0  0  0  0  0  0  0  0  0  0
  2  1  1  0
  3  2  1  0
  4  5  1  0
  4  3  1  0
  5  7  1  0
  5  6  1  6
  7  8  2  0
 10  9  1  1
 10 12  1  0
 11 10  1  0
 12 13  1  6
 13  7  1  0
 14 12  1  0
 14 15  2  0
 17 16  1  0
 18 17  2  0
 19 17  1  0
 20 19  1  0
 21 20  1  0
 21 22  1  0
 23 22  1  1
 23 24  1  0
 23 25  1  0
 24 14  1  0
 25 26  2  0
 25 27  1  0
M  END
$$$$
