MTR.pdb
     RDKit          3D

 27 26  0  0  1  0  0  0  0  0999 V2000
   27.5954  -23.3786  -22.3889 C   0  0  0  0  0  0  0  0  0  0  0  0
   27.1764  -22.9975  -20.6959 S   0  0  0  0  0  0  0  0  0  0  0  0
   26.0065  -24.1170  -20.0032 C   0  0  0  0  0  0  0  0  0  0  0  0
   25.5442  -23.8209  -18.6243 C   0  0  0  0  0  0  0  0  0  0  0  0
   26.4961  -23.8716  -17.5020 C   0  0  2  0  0  0  0  0  0  0  0  0
   27.0064  -25.2238  -17.3049 N   0  0  0  0  0  0  0  0  0  0  0  0
   25.8121  -23.4576  -16.2050 C   0  0  0  0  0  0  0  0  0  0  0  0
   25.3426  -24.3649  -15.4953 O   0  0  0  0  0  0  0  0  0  0  0  0
   27.2806  -20.7207  -13.7476 C   0  0  0  0  0  0  0  0  0  0  0  0
   25.8249  -20.5026  -13.9858 C   0  0  1  0  0  0  0  0  0  0  0  0
   25.7692  -19.5828  -15.0781 O   0  0  0  0  0  0  0  0  0  0  0  0
   25.0838  -21.7252  -14.5201 C   0  0  2  0  0  0  0  0  0  0  0  0
   25.7034  -22.1090  -15.8034 N   0  0  0  0  0  0  0  0  0  0  0  0
   23.6460  -21.5434  -14.6847 C   0  0  0  0  0  0  0  0  0  0  0  0
   23.2326  -21.1016  -15.8190 O   0  0  0  0  0  0  0  0  0  0  0  0
   19.7971  -23.9919   -9.1298 N   0  0  0  0  0  0  0  0  0  0  0  0
   18.5064  -23.5149   -9.4319 C   0  0  0  0  0  0  0  0  0  0  0  0
   17.5246  -23.8476   -8.6836 N   0  0  0  0  0  0  0  0  0  0  0  0
   18.2982  -22.6760  -10.5474 N   0  0  0  0  0  0  0  0  0  0  0  0
   18.3838  -23.1617  -11.8734 C   0  0  0  0  0  0  0  0  0  0  0  0
   19.0507  -22.2619  -12.8471 C   0  0  0  0  0  0  0  0  0  0  0  0
   20.5208  -22.4048  -12.9637 C   0  0  0  0  0  0  0  0  0  0  0  0
   21.2361  -21.5702  -13.9570 C   0  0  2  0  0  0  0  0  0  0  0  0
   22.6845  -21.8141  -13.7081 N   0  0  0  0  0  0  0  0  0  0  0  0
   21.0470  -20.1028  -13.6170 C   0  0  0  0  0  0  0  0  0  0  0  0
   21.7417  -19.5274  -12.7382 O   0  0  0  0  0  0  0  0  0  0  0  0
   20.1063  -19.3601  -14.2606 O   0  0  0  0  0  0  0  0  0  0  0  0
  2  1  1  0
  3  2  1  0
  4  5  1  0
  4  3  1  0
  5  7  1  0
  5  6  1  1
  7  8  2  0
 10  9  1  6
 10 12  1  0
 11 10  1  0
 12 13  1  6
 13  7  1  0
 14 12  1  0
 14 15  2  0
 17 16  1  0
 18 17  2  0
 19 17  1  0
 20 19  1  0
 21 20  1  0
 21 22  1  0
 23 22  1  1
 23 24  1  0
 23 25  1  0
 24 14  1  0
 25 26  2  0
 25 27  1  0
M  END
$$$$
