MTR.pdb
     RDKit          3D

 27 26  0  0  1  0  0  0  0  0999 V2000
   29.8465  -20.8568   -8.5748 C   0  0  0  0  0  0  0  0  0  0  0  0
   29.9205  -20.9094  -10.3578 S   0  0  0  0  0  0  0  0  0  0  0  0
   28.7284  -21.9936  -11.0686 C   0  0  0  0  0  0  0  0  0  0  0  0
   27.3866  -21.4178  -11.3348 C   0  0  0  0  0  0  0  0  0  0  0  0
   27.0164  -21.0154  -12.7020 C   0  0  2  0  0  0  0  0  0  0  0  0
   27.9259  -19.9973  -13.2159 N   0  0  0  0  0  0  0  0  0  0  0  0
   25.6162  -20.4149  -12.7193 C   0  0  0  0  0  0  0  0  0  0  0  0
   25.5301  -19.1742  -12.7390 O   0  0  0  0  0  0  0  0  0  0  0  0
   24.2746  -18.8305  -14.2466 C   0  0  0  0  0  0  0  0  0  0  0  0
   23.1248  -19.7758  -14.1565 C   0  0  1  0  0  0  0  0  0  0  0  0
   23.3598  -20.7333  -15.1909 O   0  0  0  0  0  0  0  0  0  0  0  0
   23.1069  -20.6270  -12.8897 C   0  0  2  0  0  0  0  0  0  0  0  0
   24.4508  -21.2110  -12.7139 N   0  0  0  0  0  0  0  0  0  0  0  0
   22.0920  -21.6744  -12.8728 C   0  0  0  0  0  0  0  0  0  0  0  0
   22.4085  -22.8119  -13.3813 O   0  0  0  0  0  0  0  0  0  0  0  0
   16.5249  -24.2389   -7.0033 N   0  0  0  0  0  0  0  0  0  0  0  0
   17.8342  -24.4503   -7.4783 C   0  0  0  0  0  0  0  0  0  0  0  0
   18.7043  -24.9764   -6.7033 N   0  0  0  0  0  0  0  0  0  0  0  0
   18.1826  -24.0880   -8.7970 N   0  0  0  0  0  0  0  0  0  0  0  0
   17.2586  -23.4664   -9.6695 C   0  0  0  0  0  0  0  0  0  0  0  0
   17.7214  -23.2730  -11.0663 C   0  0  0  0  0  0  0  0  0  0  0  0
   18.8900  -22.3803  -11.2466 C   0  0  0  0  0  0  0  0  0  0  0  0
   19.8457  -22.6779  -12.3389 C   0  0  2  0  0  0  0  0  0  0  0  0
   20.8055  -21.5386  -12.3453 N   0  0  0  0  0  0  0  0  0  0  0  0
   19.1368  -22.5685  -13.6770 C   0  0  0  0  0  0  0  0  0  0  0  0
   19.0205  -21.4699  -14.2816 O   0  0  0  0  0  0  0  0  0  0  0  0
   18.5985  -23.6704  -14.2657 O   0  0  0  0  0  0  0  0  0  0  0  0
  2  1  1  0
  3  2  1  0
  4  5  1  0
  4  3  1  0
  5  7  1  0
  5  6  1  1
  7  8  2  0
 10  9  1  1
 10 12  1  0
 11 10  1  0
 12 13  1  6
 13  7  1  0
 14 12  1  0
 14 15  2  0
 17 16  1  0
 18 17  2  0
 19 17  1  0
 20 19  1  0
 21 20  1  0
 21 22  1  0
 23 22  1  1
 23 24  1  0
 23 25  1  0
 24 14  1  0
 25 26  2  0
 25 27  1  0
M  END
$$$$
