MTR.pdb
     RDKit          3D

 27 26  0  0  1  0  0  0  0  0999 V2000
   27.9834  -12.1333  -16.3521 C   0  0  0  0  0  0  0  0  0  0  0  0
   28.3858  -11.2882  -17.8722 S   0  0  0  0  0  0  0  0  0  0  0  0
   28.5955  -12.3809  -19.2375 C   0  0  0  0  0  0  0  0  0  0  0  0
   28.1370  -13.7788  -19.0419 C   0  0  0  0  0  0  0  0  0  0  0  0
   28.3469  -14.7776  -20.1034 C   0  0  2  0  0  0  0  0  0  0  0  0
   27.8961  -14.2747  -21.3963 N   0  0  0  0  0  0  0  0  0  0  0  0
   27.5474  -16.0412  -19.8108 C   0  0  0  0  0  0  0  0  0  0  0  0
   26.3281  -16.0116  -20.0552 O   0  0  0  0  0  0  0  0  0  0  0  0
   27.7165  -19.3424  -21.2717 C   0  0  0  0  0  0  0  0  0  0  0  0
   27.8454  -19.5629  -19.8025 C   0  0  1  0  0  0  0  0  0  0  0  0
   29.2534  -19.5671  -19.5579 O   0  0  0  0  0  0  0  0  0  0  0  0
   27.3451  -18.4035  -18.9452 C   0  0  2  0  0  0  0  0  0  0  0  0
   28.1416  -17.2084  -19.2851 N   0  0  0  0  0  0  0  0  0  0  0  0
   27.3831  -18.6469  -17.5076 C   0  0  0  0  0  0  0  0  0  0  0  0
   28.3815  -18.1691  -16.8538 O   0  0  0  0  0  0  0  0  0  0  0  0
   25.2421  -22.7888  -11.7538 N   0  0  0  0  0  0  0  0  0  0  0  0
   24.4020  -21.9449  -11.0009 C   0  0  0  0  0  0  0  0  0  0  0  0
   24.4567  -21.9837   -9.7242 N   0  0  0  0  0  0  0  0  0  0  0  0
   23.5105  -21.0629  -11.6481 N   0  0  0  0  0  0  0  0  0  0  0  0
   23.6667  -20.7086  -13.0089 C   0  0  0  0  0  0  0  0  0  0  0  0
   25.0470  -20.3619  -13.4298 C   0  0  0  0  0  0  0  0  0  0  0  0
   25.2130  -19.9571  -14.8453 C   0  0  0  0  0  0  0  0  0  0  0  0
   26.5690  -19.6017  -15.3250 C   0  0  2  0  0  0  0  0  0  0  0  0
   26.4189  -19.3556  -16.7867 N   0  0  0  0  0  0  0  0  0  0  0  0
   27.4701  -20.8211  -15.2484 C   0  0  0  0  0  0  0  0  0  0  0  0
   28.3414  -20.9503  -14.3483 O   0  0  0  0  0  0  0  0  0  0  0  0
   27.3600  -21.8202  -16.1650 O   0  0  0  0  0  0  0  0  0  0  0  0
  2  1  1  0
  3  2  1  0
  4  5  1  0
  4  3  1  0
  5  7  1  0
  5  6  1  6
  7  8  2  0
 10  9  1  6
 10 12  1  0
 11 10  1  0
 12 13  1  1
 13  7  1  0
 14 12  1  0
 14 15  2  0
 17 16  1  0
 18 17  2  0
 19 17  1  0
 20 19  1  0
 21 20  1  0
 21 22  1  0
 23 22  1  6
 23 24  1  0
 23 25  1  0
 24 14  1  0
 25 26  2  0
 25 27  1  0
M  END
$$$$
