MTR.pdb
     RDKit          3D

 27 26  0  0  1  0  0  0  0  0999 V2000
   27.8847  -17.9453   -5.6735 C   0  0  0  0  0  0  0  0  0  0  0  0
   28.7072  -19.5025   -5.3807 S   0  0  0  0  0  0  0  0  0  0  0  0
   28.5857  -20.6161   -6.7397 C   0  0  0  0  0  0  0  0  0  0  0  0
   27.6943  -20.2057   -7.8532 C   0  0  0  0  0  0  0  0  0  0  0  0
   27.5300  -21.0813   -9.0255 C   0  0  2  0  0  0  0  0  0  0  0  0
   28.8100  -21.3334   -9.6782 N   0  0  0  0  0  0  0  0  0  0  0  0
   26.6227  -20.4237  -10.0580 C   0  0  0  0  0  0  0  0  0  0  0  0
   26.5825  -19.1806  -10.0696 O   0  0  0  0  0  0  0  0  0  0  0  0
   27.3221  -20.1486  -13.2756 C   0  0  0  0  0  0  0  0  0  0  0  0
   25.9401  -20.7032  -13.3549 C   0  0  1  0  0  0  0  0  0  0  0  0
   26.1208  -22.1184  -13.4370 O   0  0  0  0  0  0  0  0  0  0  0  0
   25.1174  -20.5290  -12.0812 C   0  0  2  0  0  0  0  0  0  0  0  0
   25.8511  -21.1712  -10.9733 N   0  0  0  0  0  0  0  0  0  0  0  0
   23.7569  -21.0491  -12.1579 C   0  0  0  0  0  0  0  0  0  0  0  0
   23.4946  -22.1177  -11.4931 O   0  0  0  0  0  0  0  0  0  0  0  0
   16.7789  -23.3192  -10.9903 N   0  0  0  0  0  0  0  0  0  0  0  0
   17.9932  -23.1748  -10.2910 C   0  0  0  0  0  0  0  0  0  0  0  0
   18.3761  -24.1050   -9.5020 N   0  0  0  0  0  0  0  0  0  0  0  0
   18.7817  -22.0167  -10.4608 N   0  0  0  0  0  0  0  0  0  0  0  0
   18.2959  -20.8758  -11.1418 C   0  0  0  0  0  0  0  0  0  0  0  0
   18.9907  -20.5375  -12.4088 C   0  0  0  0  0  0  0  0  0  0  0  0
   20.4410  -20.2546  -12.2998 C   0  0  0  0  0  0  0  0  0  0  0  0
   21.3902  -21.1421  -13.0114 C   0  0  2  0  0  0  0  0  0  0  0  0
   22.7175  -20.4756  -12.8944 N   0  0  0  0  0  0  0  0  0  0  0  0
   21.0941  -21.1121  -14.5000 C   0  0  0  0  0  0  0  0  0  0  0  0
   20.3217  -21.9457  -15.0428 O   0  0  0  0  0  0  0  0  0  0  0  0
   21.6656  -20.1713  -15.2994 O   0  0  0  0  0  0  0  0  0  0  0  0
  2  1  1  0
  3  2  1  0
  4  5  1  0
  4  3  1  0
  5  7  1  0
  5  6  1  6
  7  8  2  0
 10  9  1  1
 10 12  1  0
 11 10  1  0
 12 13  1  1
 13  7  1  0
 14 12  1  0
 14 15  2  0
 17 16  1  0
 18 17  2  0
 19 17  1  0
 20 19  1  0
 21 20  1  0
 21 22  1  0
 23 22  1  1
 23 24  1  0
 23 25  1  0
 24 14  1  0
 25 26  2  0
 25 27  1  0
M  END
$$$$
