MTR.pdb
     RDKit          3D

 27 26  0  0  1  0  0  0  0  0999 V2000
   25.0312  -21.4072  -21.8236 C   0  0  0  0  0  0  0  0  0  0  0  0
   26.4974  -20.7211  -22.5763 S   0  0  0  0  0  0  0  0  0  0  0  0
   27.8959  -20.7336  -21.5058 C   0  0  0  0  0  0  0  0  0  0  0  0
   27.6133  -20.7539  -20.0490 C   0  0  0  0  0  0  0  0  0  0  0  0
   27.7608  -19.5237  -19.2533 C   0  0  2  0  0  0  0  0  0  0  0  0
   29.1647  -19.1548  -19.1093 N   0  0  0  0  0  0  0  0  0  0  0  0
   27.2052  -19.7281  -17.8494 C   0  0  0  0  0  0  0  0  0  0  0  0
   28.0139  -19.6793  -16.9055 O   0  0  0  0  0  0  0  0  0  0  0  0
   27.0760  -18.3416  -15.6519 C   0  0  0  0  0  0  0  0  0  0  0  0
   25.6509  -18.7554  -15.5055 C   0  0  1  0  0  0  0  0  0  0  0  0
   24.9092  -17.7616  -16.2159 O   0  0  0  0  0  0  0  0  0  0  0  0
   25.2919  -20.0473  -16.2346 C   0  0  2  0  0  0  0  0  0  0  0  0
   25.8355  -19.9640  -17.6041 N   0  0  0  0  0  0  0  0  0  0  0  0
   23.8657  -20.3506  -16.2721 C   0  0  0  0  0  0  0  0  0  0  0  0
   23.1869  -19.8778  -17.2562 O   0  0  0  0  0  0  0  0  0  0  0  0
   18.4426  -23.9887  -11.4890 N   0  0  0  0  0  0  0  0  0  0  0  0
   17.8460  -24.6737  -12.5658 C   0  0  0  0  0  0  0  0  0  0  0  0
   16.6673  -25.1495  -12.4295 N   0  0  0  0  0  0  0  0  0  0  0  0
   18.5402  -24.8313  -13.7843 N   0  0  0  0  0  0  0  0  0  0  0  0
   19.8797  -24.4041  -13.9413 C   0  0  0  0  0  0  0  0  0  0  0  0
   20.0616  -23.0739  -14.5740 C   0  0  0  0  0  0  0  0  0  0  0  0
   21.4618  -22.6557  -14.8180 C   0  0  0  0  0  0  0  0  0  0  0  0
   21.7082  -21.3200  -15.4097 C   0  0  2  0  0  0  0  0  0  0  0  0
   23.1815  -21.1159  -15.3246 N   0  0  0  0  0  0  0  0  0  0  0  0
   21.1357  -20.2484  -14.4994 C   0  0  0  0  0  0  0  0  0  0  0  0
   21.8207  -19.7116  -13.5891 O   0  0  0  0  0  0  0  0  0  0  0  0
   19.8476  -19.8352  -14.6437 O   0  0  0  0  0  0  0  0  0  0  0  0
  2  1  1  0
  3  2  1  0
  4  5  1  0
  4  3  1  0
  5  7  1  0
  5  6  1  1
  7  8  2  0
 10  9  1  6
 10 12  1  0
 11 10  1  0
 12 13  1  6
 13  7  1  0
 14 12  1  0
 14 15  2  0
 17 16  1  0
 18 17  2  0
 19 17  1  0
 20 19  1  0
 21 20  1  0
 21 22  1  0
 23 22  1  1
 23 24  1  0
 23 25  1  0
 24 14  1  0
 25 26  2  0
 25 27  1  0
M  END
$$$$
