MTR.pdb
     RDKit          3D

 27 26  0  0  1  0  0  0  0  0999 V2000
   23.4124  -16.9602  -16.8690 C   0  0  0  0  0  0  0  0  0  0  0  0
   25.0814  -16.3375  -16.9865 S   0  0  0  0  0  0  0  0  0  0  0  0
   26.2499  -17.3181  -16.1062 C   0  0  0  0  0  0  0  0  0  0  0  0
   25.7543  -18.6063  -15.5605 C   0  0  0  0  0  0  0  0  0  0  0  0
   26.6513  -19.4635  -14.7675 C   0  0  2  0  0  0  0  0  0  0  0  0
   27.8687  -19.7783  -15.5068 N   0  0  0  0  0  0  0  0  0  0  0  0
   25.9710  -20.7871  -14.4405 C   0  0  0  0  0  0  0  0  0  0  0  0
   26.6958  -21.7952  -14.3652 O   0  0  0  0  0  0  0  0  0  0  0  0
   26.2359  -21.9324  -12.3866 C   0  0  0  0  0  0  0  0  0  0  0  0
   24.8031  -22.3330  -12.2860 C   0  0  1  0  0  0  0  0  0  0  0  0
   24.2432  -21.4403  -11.3207 O   0  0  0  0  0  0  0  0  0  0  0  0
   23.9808  -22.0518  -13.5407 C   0  0  2  0  0  0  0  0  0  0  0  0
   24.5797  -20.8909  -14.2275 N   0  0  0  0  0  0  0  0  0  0  0  0
   22.5605  -21.8224  -13.3005 C   0  0  0  0  0  0  0  0  0  0  0  0
   22.2211  -20.6848  -12.8072 O   0  0  0  0  0  0  0  0  0  0  0  0
   19.5511  -24.2903   -7.3220 N   0  0  0  0  0  0  0  0  0  0  0  0
   18.3192  -24.3648   -8.0012 C   0  0  0  0  0  0  0  0  0  0  0  0
   17.5483  -25.3631   -7.7925 N   0  0  0  0  0  0  0  0  0  0  0  0
   17.9373  -23.3471   -8.9012 N   0  0  0  0  0  0  0  0  0  0  0  0
   18.8907  -22.6018   -9.6339 C   0  0  0  0  0  0  0  0  0  0  0  0
   19.0399  -22.9747  -11.0627 C   0  0  0  0  0  0  0  0  0  0  0  0
   20.0252  -22.1880  -11.8408 C   0  0  0  0  0  0  0  0  0  0  0  0
   20.1129  -22.4116  -13.3027 C   0  0  2  0  0  0  0  0  0  0  0  0
   21.5417  -22.7403  -13.5670 N   0  0  0  0  0  0  0  0  0  0  0  0
   19.8977  -21.0969  -14.0308 C   0  0  0  0  0  0  0  0  0  0  0  0
   18.7584  -20.7316  -14.4240 O   0  0  0  0  0  0  0  0  0  0  0  0
   20.9460  -20.2675  -14.2836 O   0  0  0  0  0  0  0  0  0  0  0  0
  2  1  1  0
  3  2  1  0
  4  5  1  0
  4  3  1  0
  5  7  1  0
  5  6  1  6
  7  8  2  0
 10  9  1  6
 10 12  1  0
 11 10  1  0
 12 13  1  1
 13  7  1  0
 14 12  1  0
 14 15  2  0
 17 16  1  0
 18 17  2  0
 19 17  1  0
 20 19  1  0
 21 20  1  0
 21 22  1  0
 23 22  1  1
 23 24  1  0
 23 25  1  0
 24 14  1  0
 25 26  2  0
 25 27  1  0
M  END
$$$$
