MTR.pdb
     RDKit          3D

 27 26  0  0  1  0  0  0  0  0999 V2000
   28.1909  -18.5051   -6.7760 C   0  0  0  0  0  0  0  0  0  0  0  0
   26.9902  -19.7591   -6.3604 S   0  0  0  0  0  0  0  0  0  0  0  0
   26.6307  -20.8447   -7.6999 C   0  0  0  0  0  0  0  0  0  0  0  0
   26.7779  -20.2815   -9.0651 C   0  0  0  0  0  0  0  0  0  0  0  0
   26.4805  -21.1157  -10.2414 C   0  0  2  0  0  0  0  0  0  0  0  0
   27.4780  -22.1670  -10.4073 N   0  0  0  0  0  0  0  0  0  0  0  0
   26.5026  -20.2731  -11.5108 C   0  0  0  0  0  0  0  0  0  0  0  0
   27.5337  -19.6158  -11.7387 O   0  0  0  0  0  0  0  0  0  0  0  0
   27.9836  -19.8231  -13.5946 C   0  0  0  0  0  0  0  0  0  0  0  0
   26.7382  -19.8847  -14.4125 C   0  0  1  0  0  0  0  0  0  0  0  0
   26.5280  -21.2781  -14.6499 O   0  0  0  0  0  0  0  0  0  0  0  0
   25.4744  -19.4622  -13.6684 C   0  0  2  0  0  0  0  0  0  0  0  0
   25.4125  -20.2240  -12.4059 N   0  0  0  0  0  0  0  0  0  0  0  0
   24.2375  -19.6291  -14.4232 C   0  0  0  0  0  0  0  0  0  0  0  0
   23.3180  -20.3572  -13.8968 O   0  0  0  0  0  0  0  0  0  0  0  0
   18.0690  -15.4380  -13.3440 N   0  0  0  0  0  0  0  0  0  0  0  0
   17.8002  -16.8127  -13.1942 C   0  0  0  0  0  0  0  0  0  0  0  0
   16.8217  -17.1833  -12.4597 N   0  0  0  0  0  0  0  0  0  0  0  0
   18.6005  -17.7724  -13.8502 N   0  0  0  0  0  0  0  0  0  0  0  0
   19.7621  -17.4089  -14.5713 C   0  0  0  0  0  0  0  0  0  0  0  0
   20.5295  -18.5319  -15.1649 C   0  0  0  0  0  0  0  0  0  0  0  0
   21.7921  -18.1672  -15.8491 C   0  0  0  0  0  0  0  0  0  0  0  0
   22.6637  -19.2545  -16.3521 C   0  0  2  0  0  0  0  0  0  0  0  0
   23.9737  -19.0579  -15.6705 N   0  0  0  0  0  0  0  0  0  0  0  0
   22.9739  -19.0183  -17.8193 C   0  0  0  0  0  0  0  0  0  0  0  0
   23.9019  -18.2514  -18.1892 O   0  0  0  0  0  0  0  0  0  0  0  0
   22.2453  -19.6362  -18.7878 O   0  0  0  0  0  0  0  0  0  0  0  0
  2  1  1  0
  3  2  1  0
  4  5  1  0
  4  3  1  0
  5  7  1  0
  5  6  1  6
  7  8  2  0
 10  9  1  1
 10 12  1  0
 11 10  1  0
 12 13  1  1
 13  7  1  0
 14 12  1  0
 14 15  2  0
 17 16  1  0
 18 17  2  0
 19 17  1  0
 20 19  1  0
 21 20  1  0
 21 22  1  0
 23 22  1  1
 23 24  1  0
 23 25  1  0
 24 14  1  0
 25 26  2  0
 25 27  1  0
M  END
$$$$
