MTR.pdb
     RDKit          3D

 27 26  0  0  1  0  0  0  0  0999 V2000
   26.4030  -18.6084   -6.8804 C   0  0  0  0  0  0  0  0  0  0  0  0
   28.0892  -19.1881   -6.9689 S   0  0  0  0  0  0  0  0  0  0  0  0
   28.3048  -20.5212   -8.0995 C   0  0  0  0  0  0  0  0  0  0  0  0
   27.5232  -20.4526   -9.3593 C   0  0  0  0  0  0  0  0  0  0  0  0
   27.6331  -21.5332  -10.3535 C   0  0  2  0  0  0  0  0  0  0  0  0
   29.0219  -21.7520  -10.7422 N   0  0  0  0  0  0  0  0  0  0  0  0
   26.8654  -21.1721  -11.6192 C   0  0  0  0  0  0  0  0  0  0  0  0
   27.5077  -20.6368  -12.5401 O   0  0  0  0  0  0  0  0  0  0  0  0
   25.3427  -23.8986  -13.3778 C   0  0  0  0  0  0  0  0  0  0  0  0
   24.2939  -22.8392  -13.3395 C   0  0  1  0  0  0  0  0  0  0  0  0
   23.5381  -23.1187  -12.1593 O   0  0  0  0  0  0  0  0  0  0  0  0
   24.8288  -21.4322  -13.0871 C   0  0  2  0  0  0  0  0  0  0  0  0
   25.4845  -21.4242  -11.7649 N   0  0  0  0  0  0  0  0  0  0  0  0
   23.8261  -20.3756  -13.1630 C   0  0  0  0  0  0  0  0  0  0  0  0
   23.2884  -19.9913  -12.0603 O   0  0  0  0  0  0  0  0  0  0  0  0
   22.7248  -14.4414  -15.9742 N   0  0  0  0  0  0  0  0  0  0  0  0
   21.5748  -14.1790  -16.7443 C   0  0  0  0  0  0  0  0  0  0  0  0
   21.0687  -13.0051  -16.7344 N   0  0  0  0  0  0  0  0  0  0  0  0
   20.9877  -15.2002  -17.5217 N   0  0  0  0  0  0  0  0  0  0  0  0
   21.3786  -16.5539  -17.3944 C   0  0  0  0  0  0  0  0  0  0  0  0
   21.3097  -17.1181  -16.0235 C   0  0  0  0  0  0  0  0  0  0  0  0
   22.3639  -18.0969  -15.6692 C   0  0  0  0  0  0  0  0  0  0  0  0
   22.3233  -18.7260  -14.3284 C   0  0  2  0  0  0  0  0  0  0  0  0
   23.4072  -19.7480  -14.3386 N   0  0  0  0  0  0  0  0  0  0  0  0
   21.0505  -19.5417  -14.1891 C   0  0  0  0  0  0  0  0  0  0  0  0
   20.9559  -20.7120  -14.6445 O   0  0  0  0  0  0  0  0  0  0  0  0
   19.9616  -19.0213  -13.5612 O   0  0  0  0  0  0  0  0  0  0  0  0
  2  1  1  0
  3  2  1  0
  4  5  1  0
  4  3  1  0
  5  7  1  0
  5  6  1  6
  7  8  2  0
 10  9  1  1
 10 12  1  0
 11 10  1  0
 12 13  1  1
 13  7  1  0
 14 12  1  0
 14 15  2  0
 17 16  1  0
 18 17  2  0
 19 17  1  0
 20 19  1  0
 21 20  1  0
 21 22  1  0
 23 22  1  6
 23 24  1  0
 23 25  1  0
 24 14  1  0
 25 26  2  0
 25 27  1  0
M  END
$$$$
