MTR.pdb
     RDKit          3D

 27 26  0  0  1  0  0  0  0  0999 V2000
   20.7172  -20.1119   -8.0996 C   0  0  0  0  0  0  0  0  0  0  0  0
   21.5980  -21.4317   -7.2815 S   0  0  0  0  0  0  0  0  0  0  0  0
   23.3451  -21.3227   -7.4755 C   0  0  0  0  0  0  0  0  0  0  0  0
   23.8386  -20.9523   -8.8253 C   0  0  0  0  0  0  0  0  0  0  0  0
   25.2832  -20.9668   -9.1104 C   0  0  2  0  0  0  0  0  0  0  0  0
   26.0303  -20.2516   -8.0818 N   0  0  0  0  0  0  0  0  0  0  0  0
   25.5709  -20.2737  -10.4365 C   0  0  0  0  0  0  0  0  0  0  0  0
   25.7952  -19.0507  -10.4015 O   0  0  0  0  0  0  0  0  0  0  0  0
   28.2291  -21.1642  -12.8827 C   0  0  0  0  0  0  0  0  0  0  0  0
   26.9657  -21.0373  -13.6646 C   0  0  1  0  0  0  0  0  0  0  0  0
   26.4550  -22.3694  -13.7484 O   0  0  0  0  0  0  0  0  0  0  0  0
   25.8526  -20.2808  -12.9446 C   0  0  2  0  0  0  0  0  0  0  0  0
   25.5883  -20.9676  -11.6653 N   0  0  0  0  0  0  0  0  0  0  0  0
   24.6185  -20.1386  -13.7089 C   0  0  0  0  0  0  0  0  0  0  0  0
   23.6870  -20.9976  -13.4919 O   0  0  0  0  0  0  0  0  0  0  0  0
   21.2489  -15.1291  -19.1821 N   0  0  0  0  0  0  0  0  0  0  0  0
   20.0126  -15.5401  -18.6462 C   0  0  0  0  0  0  0  0  0  0  0  0
   18.9549  -15.4310  -19.3561 N   0  0  0  0  0  0  0  0  0  0  0  0
   19.9411  -16.0697  -17.3401 N   0  0  0  0  0  0  0  0  0  0  0  0
   21.0987  -16.2750  -16.5532 C   0  0  0  0  0  0  0  0  0  0  0  0
   21.9693  -17.4023  -16.9701 C   0  0  0  0  0  0  0  0  0  0  0  0
   23.0859  -17.7348  -16.0547 C   0  0  0  0  0  0  0  0  0  0  0  0
   23.0475  -19.0279  -15.3326 C   0  0  2  0  0  0  0  0  0  0  0  0
   24.3694  -19.1413  -14.6549 N   0  0  0  0  0  0  0  0  0  0  0  0
   23.0493  -20.1686  -16.3344 C   0  0  0  0  0  0  0  0  0  0  0  0
   24.1157  -20.6160  -16.8331 O   0  0  0  0  0  0  0  0  0  0  0  0
   21.8812  -20.7447  -16.7275 O   0  0  0  0  0  0  0  0  0  0  0  0
  2  1  1  0
  3  2  1  0
  4  5  1  0
  4  3  1  0
  5  7  1  0
  5  6  1  1
  7  8  2  0
 10  9  1  1
 10 12  1  0
 11 10  1  0
 12 13  1  1
 13  7  1  0
 14 12  1  0
 14 15  2  0
 17 16  1  0
 18 17  2  0
 19 17  1  0
 20 19  1  0
 21 20  1  0
 21 22  1  0
 23 22  1  6
 23 24  1  0
 23 25  1  0
 24 14  1  0
 25 26  2  0
 25 27  1  0
M  END
$$$$
