MTR.pdb
     RDKit          3D

 27 26  0  0  1  0  0  0  0  0999 V2000
   24.4783  -19.2046  -20.2544 C   0  0  0  0  0  0  0  0  0  0  0  0
   24.0526  -17.7402  -19.3263 S   0  0  0  0  0  0  0  0  0  0  0  0
   22.9877  -18.0698  -17.9628 C   0  0  0  0  0  0  0  0  0  0  0  0
   23.2986  -19.2773  -17.1577 C   0  0  0  0  0  0  0  0  0  0  0  0
   24.2007  -19.1766  -15.9983 C   0  0  2  0  0  0  0  0  0  0  0  0
   25.5939  -19.3381  -16.3993 N   0  0  0  0  0  0  0  0  0  0  0  0
   23.8949  -20.2763  -14.9889 C   0  0  0  0  0  0  0  0  0  0  0  0
   24.8612  -20.9100  -14.5287 O   0  0  0  0  0  0  0  0  0  0  0  0
   24.2330  -20.3478  -12.4102 C   0  0  0  0  0  0  0  0  0  0  0  0
   22.9363  -21.0599  -12.2229 C   0  0  1  0  0  0  0  0  0  0  0  0
   22.0250  -20.0476  -11.7904 O   0  0  0  0  0  0  0  0  0  0  0  0
   22.3050  -21.5694  -13.5157 C   0  0  2  0  0  0  0  0  0  0  0  0
   22.5799  -20.5818  -14.5774 N   0  0  0  0  0  0  0  0  0  0  0  0
   20.8740  -21.8387  -13.4311 C   0  0  0  0  0  0  0  0  0  0  0  0
   20.1418  -20.9616  -12.8419 O   0  0  0  0  0  0  0  0  0  0  0  0
   16.2582  -23.9496   -9.3545 N   0  0  0  0  0  0  0  0  0  0  0  0
   16.5921  -25.2121   -8.8260 C   0  0  0  0  0  0  0  0  0  0  0  0
   15.6974  -25.8927   -8.2170 N   0  0  0  0  0  0  0  0  0  0  0  0
   17.8999  -25.7229   -8.9689 N   0  0  0  0  0  0  0  0  0  0  0  0
   18.8657  -25.0856   -9.7829 C   0  0  0  0  0  0  0  0  0  0  0  0
   18.3969  -24.6594  -11.1249 C   0  0  0  0  0  0  0  0  0  0  0  0
   19.4282  -24.0906  -12.0238 C   0  0  0  0  0  0  0  0  0  0  0  0
   18.9976  -23.5133  -13.3186 C   0  0  2  0  0  0  0  0  0  0  0  0
   20.2379  -22.9727  -13.9420 N   0  0  0  0  0  0  0  0  0  0  0  0
   18.1461  -22.2819  -13.0669 C   0  0  0  0  0  0  0  0  0  0  0  0
   18.6047  -21.2614  -12.4887 O   0  0  0  0  0  0  0  0  0  0  0  0
   16.8451  -22.2487  -13.4631 O   0  0  0  0  0  0  0  0  0  0  0  0
  2  1  1  0
  3  2  1  0
  4  5  1  0
  4  3  1  0
  5  7  1  0
  5  6  1  6
  7  8  2  0
 10  9  1  6
 10 12  1  0
 11 10  1  0
 12 13  1  6
 13  7  1  0
 14 12  1  0
 14 15  2  0
 17 16  1  0
 18 17  2  0
 19 17  1  0
 20 19  1  0
 21 20  1  0
 21 22  1  0
 23 22  1  1
 23 24  1  0
 23 25  1  0
 24 14  1  0
 25 26  2  0
 25 27  1  0
M  END
$$$$
