MTR.pdb
     RDKit          3D

 27 26  0  0  1  0  0  0  0  0999 V2000
   24.8256  -15.0896  -20.5321 C   0  0  0  0  0  0  0  0  0  0  0  0
   26.1780  -15.6735  -19.5236 S   0  0  0  0  0  0  0  0  0  0  0  0
   26.0315  -15.2075  -17.8315 C   0  0  0  0  0  0  0  0  0  0  0  0
   26.2348  -13.7704  -17.5215 C   0  0  0  0  0  0  0  0  0  0  0  0
   27.5599  -13.1569  -17.7108 C   0  0  2  0  0  0  0  0  0  0  0  0
   28.5705  -13.8246  -16.8980 N   0  0  0  0  0  0  0  0  0  0  0  0
   27.5355  -11.6947  -17.2830 C   0  0  0  0  0  0  0  0  0  0  0  0
   27.5914  -11.4585  -16.0631 O   0  0  0  0  0  0  0  0  0  0  0  0
   30.0090   -9.2362  -17.9592 C   0  0  0  0  0  0  0  0  0  0  0  0
   28.7348   -8.5777  -18.3672 C   0  0  1  0  0  0  0  0  0  0  0  0
   28.6215   -8.8416  -19.7671 O   0  0  0  0  0  0  0  0  0  0  0  0
   27.4788   -9.2222  -17.7870 C   0  0  2  0  0  0  0  0  0  0  0  0
   27.4538  -10.6354  -18.2120 N   0  0  0  0  0  0  0  0  0  0  0  0
   26.2305   -8.5608  -18.1499 C   0  0  0  0  0  0  0  0  0  0  0  0
   25.4229   -9.2030  -18.9168 O   0  0  0  0  0  0  0  0  0  0  0  0
   19.0090   -9.1811  -15.2738 N   0  0  0  0  0  0  0  0  0  0  0  0
   18.7130   -8.3414  -16.3656 C   0  0  0  0  0  0  0  0  0  0  0  0
   17.4940   -8.1671  -16.7093 N   0  0  0  0  0  0  0  0  0  0  0  0
   19.7505   -7.6963  -17.0721 N   0  0  0  0  0  0  0  0  0  0  0  0
   21.1140   -7.9602  -16.8025 C   0  0  0  0  0  0  0  0  0  0  0  0
   22.0902   -7.1064  -17.5239 C   0  0  0  0  0  0  0  0  0  0  0  0
   23.5116   -7.5106  -17.4169 C   0  0  0  0  0  0  0  0  0  0  0  0
   24.5320   -6.7027  -18.1248 C   0  0  2  0  0  0  0  0  0  0  0  0
   25.8436   -7.2867  -17.7273 N   0  0  0  0  0  0  0  0  0  0  0  0
   24.5624   -5.3009  -17.5428 C   0  0  0  0  0  0  0  0  0  0  0  0
   25.4208   -4.9520  -16.6899 O   0  0  0  0  0  0  0  0  0  0  0  0
   23.6481   -4.3715  -17.9314 O   0  0  0  0  0  0  0  0  0  0  0  0
  2  1  1  0
  3  2  1  0
  4  5  1  0
  4  3  1  0
  5  7  1  0
  5  6  1  1
  7  8  2  0
 10  9  1  1
 10 12  1  0
 11 10  1  0
 12 13  1  6
 13  7  1  0
 14 12  1  0
 14 15  2  0
 17 16  1  0
 18 17  2  0
 19 17  1  0
 20 19  1  0
 21 20  1  0
 21 22  1  0
 23 22  1  1
 23 24  1  0
 23 25  1  0
 24 14  1  0
 25 26  2  0
 25 27  1  0
M  END
$$$$
