MTR.pdb
     RDKit          3D

 27 26  0  0  1  0  0  0  0  0999 V2000
   22.6707  -20.3450   -8.8173 C   0  0  0  0  0  0  0  0  0  0  0  0
   24.0363  -21.4141   -8.3939 S   0  0  0  0  0  0  0  0  0  0  0  0
   25.6047  -20.6276   -8.5467 C   0  0  0  0  0  0  0  0  0  0  0  0
   25.9730  -20.1445   -9.9008 C   0  0  0  0  0  0  0  0  0  0  0  0
   26.0237  -21.0878  -11.0303 C   0  0  2  0  0  0  0  0  0  0  0  0
   27.2571  -21.8664  -11.0112 N   0  0  0  0  0  0  0  0  0  0  0  0
   25.9899  -20.3349  -12.3545 C   0  0  0  0  0  0  0  0  0  0  0  0
   26.7099  -19.3254  -12.4528 O   0  0  0  0  0  0  0  0  0  0  0  0
   27.5357  -20.4571  -15.1780 C   0  0  0  0  0  0  0  0  0  0  0  0
   26.1276  -20.5178  -15.6652 C   0  0  1  0  0  0  0  0  0  0  0  0
   25.8179  -21.9122  -15.7087 O   0  0  0  0  0  0  0  0  0  0  0  0
   25.0977  -19.9613  -14.6858 C   0  0  2  0  0  0  0  0  0  0  0  0
   25.1847  -20.7454  -13.4385 N   0  0  0  0  0  0  0  0  0  0  0  0
   23.7267  -19.9496  -15.1834 C   0  0  0  0  0  0  0  0  0  0  0  0
   22.9131  -20.8161  -14.6937 O   0  0  0  0  0  0  0  0  0  0  0  0
   19.4460  -14.8432  -14.7277 N   0  0  0  0  0  0  0  0  0  0  0  0
   18.4444  -14.7945  -15.7172 C   0  0  0  0  0  0  0  0  0  0  0  0
   17.2848  -14.3504  -15.4133 N   0  0  0  0  0  0  0  0  0  0  0  0
   18.7178  -15.2288  -17.0319 N   0  0  0  0  0  0  0  0  0  0  0  0
   19.9527  -15.8251  -17.3798 C   0  0  0  0  0  0  0  0  0  0  0  0
   20.2338  -17.1389  -16.7493 C   0  0  0  0  0  0  0  0  0  0  0  0
   21.5084  -17.7870  -17.1371 C   0  0  0  0  0  0  0  0  0  0  0  0
   21.8103  -19.1333  -16.5974 C   0  0  2  0  0  0  0  0  0  0  0  0
   23.2291  -19.0694  -16.1475 N   0  0  0  0  0  0  0  0  0  0  0  0
   21.8297  -20.1421  -17.7318 C   0  0  0  0  0  0  0  0  0  0  0  0
   22.8620  -20.3476  -18.4232 O   0  0  0  0  0  0  0  0  0  0  0  0
   20.7150  -20.8596  -18.0373 O   0  0  0  0  0  0  0  0  0  0  0  0
  2  1  1  0
  3  2  1  0
  4  5  1  0
  4  3  1  0
  5  7  1  0
  5  6  1  1
  7  8  2  0
 10  9  1  1
 10 12  1  0
 11 10  1  0
 12 13  1  1
 13  7  1  0
 14 12  1  0
 14 15  2  0
 17 16  1  0
 18 17  2  0
 19 17  1  0
 20 19  1  0
 21 20  1  0
 21 22  1  0
 23 22  1  6
 23 24  1  0
 23 25  1  0
 24 14  1  0
 25 26  2  0
 25 27  1  0
M  END
$$$$
