AWC.pdb
     RDKit          3D

 26 27  0  0  1  0  0  0  0  0999 V2000
    8.8870  -16.2589   19.1179 C   0  0  0  0  0  0  0  0  0  0  0  0
    8.1791  -16.5025   20.4304 C   0  0  2  0  0  0  0  0  0  0  0  0
    6.8194  -16.0108   20.3056 N   0  0  0  0  0  0  0  0  0  0  0  0
    8.8947  -15.8865   21.5649 C   0  0  0  0  0  0  0  0  0  0  0  0
    9.4683  -14.7703   21.3556 O   0  0  0  0  0  0  0  0  0  0  0  0
    8.9430  -16.4971   22.8199 N   0  0  0  0  0  0  0  0  0  0  0  0
    9.6555  -15.8775   23.9875 C   0  0  1  0  0  0  0  0  0  0  0  0
    8.7717  -16.2734   25.1163 C   0  0  0  0  0  0  0  0  0  0  0  0
    7.5649  -15.5160   25.3828 C   0  0  0  0  0  0  0  0  0  0  0  0
    6.2284  -15.7928   25.4154 C   0  0  0  0  0  0  0  0  0  0  0  0
    5.5279  -14.6967   25.7536 N   0  0  0  0  0  0  0  0  0  0  0  0
    6.3826  -13.6758   25.9521 C   0  0  0  0  0  0  0  0  0  0  0  0
    6.1842  -12.3399   26.3250 C   0  0  0  0  0  0  0  0  0  0  0  0
    7.2681  -11.5082   26.4679 C   0  0  0  0  0  0  0  0  0  0  0  0
    8.5555  -11.9445   26.2552 C   0  0  0  0  0  0  0  0  0  0  0  0
    8.7054  -13.2675   25.8895 C   0  0  0  0  0  0  0  0  0  0  0  0
    7.6488  -14.1522   25.7307 C   0  0  0  0  0  0  0  0  0  0  0  0
   10.9400  -16.6199   24.0498 C   0  0  0  0  0  0  0  0  0  0  0  0
   10.9079  -17.8898   23.8192 O   0  0  0  0  0  0  0  0  0  0  0  0
   12.2060  -16.0354   24.3376 N   0  0  0  0  0  0  0  0  0  0  0  0
   13.4019  -16.8260   24.5642 C   0  0  1  0  0  0  0  0  0  0  0  0
   14.6476  -15.9682   24.3828 C   0  0  0  0  0  0  0  0  0  0  0  0
   14.6645  -15.0926   22.7956 S   0  0  0  0  0  0  0  0  0  0  0  0
   13.3931  -17.4267   25.8908 C   0  0  0  0  0  0  0  0  0  0  0  0
   14.4298  -18.3078   26.2428 O   0  0  0  0  0  0  0  0  0  0  0  0
   12.5086  -17.2138   26.7717 O   0  0  0  0  0  0  0  0  0  0  0  0
  2  1  1  6
  3  2  1  0
  4  2  1  0
  4  5  2  0
  6  4  1  0
  7  6  1  0
  7  8  1  1
  9  8  1  0
  9 17  1  0
 10 11  1  0
 10  9  2  0
 11 12  1  0
 12 17  2  0
 12 13  1  0
 13 14  2  0
 14 15  1  0
 16 15  2  0
 17 16  1  0
 18  7  1  0
 19 18  2  0
 20 18  1  0
 21 20  1  0
 21 24  1  0
 21 22  1  1
 23 22  1  0
 24 25  1  0
 26 24  2  0
M  END
$$$$
