AWC.pdb
     RDKit          3D

 26 27  0  0  1  0  0  0  0  0999 V2000
    7.8183  -17.0928   19.8284 C   0  0  0  0  0  0  0  0  0  0  0  0
    7.3538  -15.9536   20.7055 C   0  0  2  0  0  0  0  0  0  0  0  0
    6.9322  -14.8652   19.8430 N   0  0  0  0  0  0  0  0  0  0  0  0
    8.3956  -15.5362   21.6642 C   0  0  0  0  0  0  0  0  0  0  0  0
    9.1302  -14.5511   21.3346 O   0  0  0  0  0  0  0  0  0  0  0  0
    8.5724  -16.1899   22.8855 N   0  0  0  0  0  0  0  0  0  0  0  0
    9.5155  -15.6831   23.9383 C   0  0  1  0  0  0  0  0  0  0  0  0
    8.7717  -16.0120   25.1837 C   0  0  0  0  0  0  0  0  0  0  0  0
    7.5562  -15.2908   25.5054 C   0  0  0  0  0  0  0  0  0  0  0  0
    6.2298  -15.6041   25.5855 C   0  0  0  0  0  0  0  0  0  0  0  0
    5.5139  -14.5314   25.9639 N   0  0  0  0  0  0  0  0  0  0  0  0
    6.3480  -13.4901   26.1424 C   0  0  0  0  0  0  0  0  0  0  0  0
    6.1284  -12.1644   26.5394 C   0  0  0  0  0  0  0  0  0  0  0  0
    7.1945  -11.3052   26.6512 C   0  0  0  0  0  0  0  0  0  0  0  0
    8.4839  -11.7039   26.3841 C   0  0  0  0  0  0  0  0  0  0  0  0
    8.6549  -13.0180   25.9964 C   0  0  0  0  0  0  0  0  0  0  0  0
    7.6170  -13.9293   25.8670 C   0  0  0  0  0  0  0  0  0  0  0  0
   10.7046  -16.5613   23.7975 C   0  0  0  0  0  0  0  0  0  0  0  0
   10.5002  -17.8322   23.6975 O   0  0  0  0  0  0  0  0  0  0  0  0
   12.0533  -16.1067   23.7571 N   0  0  0  0  0  0  0  0  0  0  0  0
   13.1800  -17.0068   23.5927 C   0  0  1  0  0  0  0  0  0  0  0  0
   14.3387  -16.2882   22.9136 C   0  0  0  0  0  0  0  0  0  0  0  0
   14.8927  -14.8314   23.8394 S   0  0  0  0  0  0  0  0  0  0  0  0
   13.6079  -17.5546   24.8725 C   0  0  0  0  0  0  0  0  0  0  0  0
   14.6725  -18.4718   24.8951 O   0  0  0  0  0  0  0  0  0  0  0  0
   13.0879  -17.2643   25.9900 O   0  0  0  0  0  0  0  0  0  0  0  0
  2  1  1  6
  3  2  1  0
  4  2  1  0
  4  5  2  0
  6  4  1  0
  7  6  1  0
  7  8  1  1
  9  8  1  0
  9 17  1  0
 10 11  1  0
 10  9  2  0
 11 12  1  0
 12 17  2  0
 12 13  1  0
 13 14  2  0
 14 15  1  0
 16 15  2  0
 17 16  1  0
 18  7  1  0
 19 18  2  0
 20 18  1  0
 21 20  1  0
 21 24  1  0
 21 22  1  1
 23 22  1  0
 24 25  1  0
 26 24  2  0
M  END
$$$$
