AWC.pdb
     RDKit          3D

 26 27  0  0  1  0  0  0  0  0999 V2000
    9.5479  -19.1021   20.8681 C   0  0  0  0  0  0  0  0  0  0  0  0
    8.7595  -17.8146   20.8062 C   0  0  2  0  0  0  0  0  0  0  0  0
    8.7907  -17.3339   19.4372 N   0  0  0  0  0  0  0  0  0  0  0  0
    9.2666  -16.8116   21.7630 C   0  0  0  0  0  0  0  0  0  0  0  0
   10.0159  -15.8925   21.3019 O   0  0  0  0  0  0  0  0  0  0  0  0
    8.9401  -16.8618   23.1199 N   0  0  0  0  0  0  0  0  0  0  0  0
    9.3339  -15.7776   24.0812 C   0  0  1  0  0  0  0  0  0  0  0  0
    8.4194  -16.0487   25.2224 C   0  0  0  0  0  0  0  0  0  0  0  0
    7.2253  -15.2447   25.3919 C   0  0  0  0  0  0  0  0  0  0  0  0
    5.8811  -15.4833   25.3843 C   0  0  0  0  0  0  0  0  0  0  0  0
    5.1997  -14.3504   25.6267 N   0  0  0  0  0  0  0  0  0  0  0  0
    6.0749  -13.3425   25.8001 C   0  0  0  0  0  0  0  0  0  0  0  0
    5.9005  -11.9816   26.0842 C   0  0  0  0  0  0  0  0  0  0  0  0
    7.0015  -11.1720   26.2232 C   0  0  0  0  0  0  0  0  0  0  0  0
    8.2832  -11.6545   26.0915 C   0  0  0  0  0  0  0  0  0  0  0  0
    8.4093  -13.0007   25.8118 C   0  0  0  0  0  0  0  0  0  0  0  0
    7.3347  -13.8650   25.6613 C   0  0  0  0  0  0  0  0  0  0  0  0
   10.7322  -16.1207   24.4446 C   0  0  0  0  0  0  0  0  0  0  0  0
   11.3819  -15.2808   25.1791 O   0  0  0  0  0  0  0  0  0  0  0  0
   11.4085  -17.3100   24.0501 N   0  0  0  0  0  0  0  0  0  0  0  0
   12.7251  -17.6654   24.5468 C   0  0  1  0  0  0  0  0  0  0  0  0
   12.6883  -17.8574   26.0575 C   0  0  0  0  0  0  0  0  0  0  0  0
   11.4470  -19.0731   26.5746 S   0  0  0  0  0  0  0  0  0  0  0  0
   13.2256  -18.8695   23.8983 C   0  0  0  0  0  0  0  0  0  0  0  0
   12.4030  -19.5319   22.9712 O   0  0  0  0  0  0  0  0  0  0  0  0
   14.3667  -19.3778   24.1059 O   0  0  0  0  0  0  0  0  0  0  0  0
  2  1  1  6
  3  2  1  0
  4  2  1  0
  4  5  2  0
  6  4  1  0
  7  6  1  0
  7  8  1  1
  9  8  1  0
  9 17  1  0
 10 11  1  0
 10  9  2  0
 11 12  1  0
 12 17  2  0
 12 13  1  0
 13 14  2  0
 14 15  1  0
 16 15  2  0
 17 16  1  0
 18  7  1  0
 19 18  2  0
 20 18  1  0
 21 20  1  0
 21 24  1  0
 21 22  1  1
 23 22  1  0
 24 25  1  0
 26 24  2  0
M  END
$$$$
