AWC.pdb
     RDKit          3D

 26 27  0  0  1  0  0  0  0  0999 V2000
   10.5532  -18.0926   20.5295 C   0  0  0  0  0  0  0  0  0  0  0  0
    9.3312  -17.2840   20.8981 C   0  0  2  0  0  0  0  0  0  0  0  0
    8.8695  -16.5983   19.7053 N   0  0  0  0  0  0  0  0  0  0  0  0
    9.6024  -16.3516   22.0097 C   0  0  0  0  0  0  0  0  0  0  0  0
   10.0526  -15.2004   21.7084 O   0  0  0  0  0  0  0  0  0  0  0  0
    9.3748  -16.7106   23.3399 N   0  0  0  0  0  0  0  0  0  0  0  0
    9.7672  -15.8267   24.4886 C   0  0  1  0  0  0  0  0  0  0  0  0
    8.6903  -16.1235   25.4705 C   0  0  0  0  0  0  0  0  0  0  0  0
    7.4267  -15.4185   25.3850 C   0  0  0  0  0  0  0  0  0  0  0  0
    6.1172  -15.7793   25.2471 C   0  0  0  0  0  0  0  0  0  0  0  0
    5.3258  -14.6930   25.2510 N   0  0  0  0  0  0  0  0  0  0  0  0
    6.0915  -13.5949   25.3920 C   0  0  0  0  0  0  0  0  0  0  0  0
    5.7784  -12.2313   25.4674 C   0  0  0  0  0  0  0  0  0  0  0  0
    6.7868  -11.3124   25.6284 C   0  0  0  0  0  0  0  0  0  0  0  0
    8.1076  -11.6871   25.7186 C   0  0  0  0  0  0  0  0  0  0  0  0
    8.3713  -13.0401   25.6396 C   0  0  0  0  0  0  0  0  0  0  0  0
    7.3946  -14.0119   25.4779 C   0  0  0  0  0  0  0  0  0  0  0  0
   11.0587  -16.3984   24.9470 C   0  0  0  0  0  0  0  0  0  0  0  0
   11.3519  -17.5958   24.5631 O   0  0  0  0  0  0  0  0  0  0  0  0
   12.0019  -15.7228   25.7725 N   0  0  0  0  0  0  0  0  0  0  0  0
   11.9348  -15.7469   27.2222 C   0  0  1  0  0  0  0  0  0  0  0  0
   10.7135  -14.9782   27.7099 C   0  0  0  0  0  0  0  0  0  0  0  0
   10.5556  -14.9957   29.5157 S   0  0  0  0  0  0  0  0  0  0  0  0
   11.9038  -17.1132   27.7256 C   0  0  0  0  0  0  0  0  0  0  0  0
   10.8498  -17.9561   27.3338 O   0  0  0  0  0  0  0  0  0  0  0  0
   12.7687  -17.6137   28.5034 O   0  0  0  0  0  0  0  0  0  0  0  0
  2  1  1  6
  3  2  1  0
  4  2  1  0
  4  5  2  0
  6  4  1  0
  7  6  1  0
  7  8  1  1
  9  8  1  0
  9 17  1  0
 10 11  1  0
 10  9  2  0
 11 12  1  0
 12 17  2  0
 12 13  1  0
 13 14  2  0
 14 15  1  0
 16 15  2  0
 17 16  1  0
 18  7  1  0
 19 18  2  0
 20 18  1  0
 21 20  1  0
 21 24  1  0
 21 22  1  6
 23 22  1  0
 24 25  1  0
 26 24  2  0
M  END
$$$$
