AWC.pdb
     RDKit          3D

 26 27  0  0  1  0  0  0  0  0999 V2000
    7.9472  -15.8122   19.6423 C   0  0  0  0  0  0  0  0  0  0  0  0
    8.8821  -16.7264   20.3994 C   0  0  2  0  0  0  0  0  0  0  0  0
    8.1675  -17.9542   20.6963 N   0  0  0  0  0  0  0  0  0  0  0  0
    9.4173  -16.0827   21.6151 C   0  0  0  0  0  0  0  0  0  0  0  0
   10.1176  -15.0321   21.4585 O   0  0  0  0  0  0  0  0  0  0  0  0
    9.1677  -16.5990   22.8885 N   0  0  0  0  0  0  0  0  0  0  0  0
    9.5316  -15.8561   24.1416 C   0  0  1  0  0  0  0  0  0  0  0  0
    8.2619  -15.9371   24.9119 C   0  0  0  0  0  0  0  0  0  0  0  0
    7.3121  -14.8441   24.8472 C   0  0  0  0  0  0  0  0  0  0  0  0
    6.2156  -14.5499   24.0888 C   0  0  0  0  0  0  0  0  0  0  0  0
    5.6728  -13.3833   24.4772 N   0  0  0  0  0  0  0  0  0  0  0  0
    6.3949  -12.8833   25.4973 C   0  0  0  0  0  0  0  0  0  0  0  0
    6.2602  -11.7193   26.2655 C   0  0  0  0  0  0  0  0  0  0  0  0
    7.1575  -11.4656   27.2742 C   0  0  0  0  0  0  0  0  0  0  0  0
    8.1953  -12.3224   27.5600 C   0  0  0  0  0  0  0  0  0  0  0  0
    8.2908  -13.4570   26.7789 C   0  0  0  0  0  0  0  0  0  0  0  0
    7.4145  -13.7646   25.7486 C   0  0  0  0  0  0  0  0  0  0  0  0
   10.5728  -16.7103   24.7671 C   0  0  0  0  0  0  0  0  0  0  0  0
   10.4147  -17.0337   26.0070 O   0  0  0  0  0  0  0  0  0  0  0  0
   11.7292  -17.2058   24.1004 N   0  0  0  0  0  0  0  0  0  0  0  0
   12.6274  -18.1740   24.7023 C   0  0  1  0  0  0  0  0  0  0  0  0
   12.0947  -19.5872   24.5038 C   0  0  0  0  0  0  0  0  0  0  0  0
   10.8657  -20.0496   25.7536 S   0  0  0  0  0  0  0  0  0  0  0  0
   13.9707  -18.0603   24.1514 C   0  0  0  0  0  0  0  0  0  0  0  0
   14.9875  -18.8804   24.6698 O   0  0  0  0  0  0  0  0  0  0  0  0
   14.3032  -17.2662   23.2228 O   0  0  0  0  0  0  0  0  0  0  0  0
  2  1  1  1
  3  2  1  0
  4  2  1  0
  4  5  2  0
  6  4  1  0
  7  6  1  0
  7  8  1  1
  9  8  1  0
  9 17  1  0
 10 11  1  0
 10  9  2  0
 11 12  1  0
 12 17  2  0
 12 13  1  0
 13 14  2  0
 14 15  1  0
 16 15  2  0
 17 16  1  0
 18  7  1  0
 19 18  2  0
 20 18  1  0
 21 20  1  0
 21 24  1  0
 21 22  1  6
 23 22  1  0
 24 25  1  0
 26 24  2  0
M  END
$$$$
