AWC.pdb
     RDKit          3D

 26 27  0  0  1  0  0  0  0  0999 V2000
    7.0081  -14.6234   20.6766 C   0  0  0  0  0  0  0  0  0  0  0  0
    8.2197  -15.4897   20.9306 C   0  0  2  0  0  0  0  0  0  0  0  0
    7.7901  -16.8759   20.9252 N   0  0  0  0  0  0  0  0  0  0  0  0
    8.9069  -15.1219   22.1840 C   0  0  0  0  0  0  0  0  0  0  0  0
    9.4900  -13.9917   22.2193 O   0  0  0  0  0  0  0  0  0  0  0  0
    8.9192  -15.9737   23.2906 N   0  0  0  0  0  0  0  0  0  0  0  0
    9.6590  -15.6388   24.5536 C   0  0  1  0  0  0  0  0  0  0  0  0
    8.6647  -16.0262   25.5896 C   0  0  0  0  0  0  0  0  0  0  0  0
    7.4842  -15.2098   25.7923 C   0  0  0  0  0  0  0  0  0  0  0  0
    6.1369  -15.4303   25.8001 C   0  0  0  0  0  0  0  0  0  0  0  0
    5.4746  -14.2933   26.0743 N   0  0  0  0  0  0  0  0  0  0  0  0
    6.3659  -13.3007   26.2541 C   0  0  0  0  0  0  0  0  0  0  0  0
    6.2142  -11.9434   26.5668 C   0  0  0  0  0  0  0  0  0  0  0  0
    7.3280  -11.1513   26.7050 C   0  0  0  0  0  0  0  0  0  0  0  0
    8.6010  -11.6483   26.5450 C   0  0  0  0  0  0  0  0  0  0  0  0
    8.7046  -12.9903   26.2376 C   0  0  0  0  0  0  0  0  0  0  0  0
    7.6163  -13.8371   26.0866 C   0  0  0  0  0  0  0  0  0  0  0  0
   10.8027  -16.5859   24.5529 C   0  0  0  0  0  0  0  0  0  0  0  0
   11.3482  -16.8647   25.6894 O   0  0  0  0  0  0  0  0  0  0  0  0
   11.3387  -17.2156   23.3939 N   0  0  0  0  0  0  0  0  0  0  0  0
   12.4224  -18.1793   23.4547 C   0  0  1  0  0  0  0  0  0  0  0  0
   12.4484  -19.0293   22.1909 C   0  0  0  0  0  0  0  0  0  0  0  0
   10.8013  -19.6167   21.7133 S   0  0  0  0  0  0  0  0  0  0  0  0
   13.7060  -17.5176   23.6430 C   0  0  0  0  0  0  0  0  0  0  0  0
   14.8635  -18.3055   23.7626 O   0  0  0  0  0  0  0  0  0  0  0  0
   13.8667  -16.2632   23.7080 O   0  0  0  0  0  0  0  0  0  0  0  0
  2  1  1  1
  3  2  1  0
  4  2  1  0
  4  5  2  0
  6  4  1  0
  7  6  1  0
  7  8  1  1
  9  8  1  0
  9 17  1  0
 10 11  1  0
 10  9  2  0
 11 12  1  0
 12 17  2  0
 12 13  1  0
 13 14  2  0
 14 15  1  0
 16 15  2  0
 17 16  1  0
 18  7  1  0
 19 18  2  0
 20 18  1  0
 21 20  1  0
 21 24  1  0
 21 22  1  6
 23 22  1  0
 24 25  1  0
 26 24  2  0
M  END
$$$$
