AWC.pdb
     RDKit          3D

 26 27  0  0  1  0  0  0  0  0999 V2000
    7.6868  -14.9745   19.2839 C   0  0  0  0  0  0  0  0  0  0  0  0
    7.6444  -15.9464   20.4401 C   0  0  2  0  0  0  0  0  0  0  0  0
    6.2526  -16.1970   20.7658 N   0  0  0  0  0  0  0  0  0  0  0  0
    8.4110  -15.4546   21.6016 C   0  0  0  0  0  0  0  0  0  0  0  0
    8.7715  -14.2346   21.5880 O   0  0  0  0  0  0  0  0  0  0  0  0
    8.7296  -16.2880   22.6760 N   0  0  0  0  0  0  0  0  0  0  0  0
    9.5128  -15.8046   23.8624 C   0  0  1  0  0  0  0  0  0  0  0  0
    8.6368  -16.2290   24.9869 C   0  0  0  0  0  0  0  0  0  0  0  0
    7.4417  -15.4678   25.2927 C   0  0  0  0  0  0  0  0  0  0  0  0
    6.0980  -15.7048   25.2484 C   0  0  0  0  0  0  0  0  0  0  0  0
    5.4152  -14.6305   25.6800 N   0  0  0  0  0  0  0  0  0  0  0  0
    6.2891  -13.6642   26.0185 C   0  0  0  0  0  0  0  0  0  0  0  0
    6.1131  -12.3710   26.5282 C   0  0  0  0  0  0  0  0  0  0  0  0
    7.2130  -11.5939   26.7988 C   0  0  0  0  0  0  0  0  0  0  0  0
    8.4952  -12.0444   26.5844 C   0  0  0  0  0  0  0  0  0  0  0  0
    8.6229  -13.3240   26.0815 C   0  0  0  0  0  0  0  0  0  0  0  0
    7.5494  -14.1530   25.7904 C   0  0  0  0  0  0  0  0  0  0  0  0
   10.7478  -16.6284   23.8278 C   0  0  0  0  0  0  0  0  0  0  0  0
   10.6136  -17.8985   23.6381 O   0  0  0  0  0  0  0  0  0  0  0  0
   12.0697  -16.1222   23.9809 N   0  0  0  0  0  0  0  0  0  0  0  0
   13.2445  -16.9741   23.9504 C   0  0  1  0  0  0  0  0  0  0  0  0
   14.4320  -16.2198   23.3662 C   0  0  0  0  0  0  0  0  0  0  0  0
   14.0751  -15.5170   21.7338 S   0  0  0  0  0  0  0  0  0  0  0  0
   13.5690  -17.4720   25.2800 C   0  0  0  0  0  0  0  0  0  0  0  0
   14.6164  -18.3986   25.4196 O   0  0  0  0  0  0  0  0  0  0  0  0
   12.9718  -17.1295   26.3427 O   0  0  0  0  0  0  0  0  0  0  0  0
  2  1  1  6
  3  2  1  0
  4  2  1  0
  4  5  2  0
  6  4  1  0
  7  6  1  0
  7  8  1  1
  9  8  1  0
  9 17  1  0
 10 11  1  0
 10  9  2  0
 11 12  1  0
 12 17  2  0
 12 13  1  0
 13 14  2  0
 14 15  1  0
 16 15  2  0
 17 16  1  0
 18  7  1  0
 19 18  2  0
 20 18  1  0
 21 20  1  0
 21 24  1  0
 21 22  1  1
 23 22  1  0
 24 25  1  0
 26 24  2  0
M  END
$$$$
