AWC.pdb
     RDKit          3D

 26 27  0  0  1  0  0  0  0  0999 V2000
    9.3275  -18.8694   19.2187 C   0  0  0  0  0  0  0  0  0  0  0  0
    8.6417  -17.5236   19.1812 C   0  0  2  0  0  0  0  0  0  0  0  0
    9.0250  -16.8580   17.9498 N   0  0  0  0  0  0  0  0  0  0  0  0
    8.9525  -16.7134   20.3752 C   0  0  0  0  0  0  0  0  0  0  0  0
    9.9636  -15.9439   20.3106 O   0  0  0  0  0  0  0  0  0  0  0  0
    8.1722  -16.7821   21.5313 N   0  0  0  0  0  0  0  0  0  0  0  0
    8.4867  -15.9799   22.7611 C   0  0  1  0  0  0  0  0  0  0  0  0
    7.1421  -15.8568   23.3848 C   0  0  0  0  0  0  0  0  0  0  0  0
    7.0287  -15.4525   24.7722 C   0  0  0  0  0  0  0  0  0  0  0  0
    6.8958  -16.0988   25.9674 C   0  0  0  0  0  0  0  0  0  0  0  0
    6.8621  -15.2155   26.9799 N   0  0  0  0  0  0  0  0  0  0  0  0
    6.9727  -13.9712   26.4783 C   0  0  0  0  0  0  0  0  0  0  0  0
    7.0043  -12.7095   27.0868 C   0  0  0  0  0  0  0  0  0  0  0  0
    7.1415  -11.5855   26.3090 C   0  0  0  0  0  0  0  0  0  0  0  0
    7.2497  -11.6549   24.9392 C   0  0  0  0  0  0  0  0  0  0  0  0
    7.2139  -12.9175   24.3813 C   0  0  0  0  0  0  0  0  0  0  0  0
    7.0777  -14.0860   25.1163 C   0  0  0  0  0  0  0  0  0  0  0  0
    9.3484  -16.8864   23.5615 C   0  0  0  0  0  0  0  0  0  0  0  0
    9.0831  -18.1495   23.5250 O   0  0  0  0  0  0  0  0  0  0  0  0
   10.4500  -16.4685   24.3609 N   0  0  0  0  0  0  0  0  0  0  0  0
   11.3094  -17.4039   25.0630 C   0  0  1  0  0  0  0  0  0  0  0  0
   12.7741  -17.0864   24.7903 C   0  0  0  0  0  0  0  0  0  0  0  0
   13.0111  -16.1681   23.2454 S   0  0  0  0  0  0  0  0  0  0  0  0
   11.0486  -17.3858   26.4957 C   0  0  0  0  0  0  0  0  0  0  0  0
   11.7267  -18.3004   27.3196 O   0  0  0  0  0  0  0  0  0  0  0  0
   10.2442  -16.5951   27.0712 O   0  0  0  0  0  0  0  0  0  0  0  0
  2  1  1  1
  3  2  1  0
  4  2  1  0
  4  5  2  0
  6  4  1  0
  7  6  1  0
  7  8  1  1
  9  8  1  0
  9 17  1  0
 10 11  1  0
 10  9  2  0
 11 12  1  0
 12 17  2  0
 12 13  1  0
 13 14  2  0
 14 15  1  0
 16 15  2  0
 17 16  1  0
 18  7  1  0
 19 18  2  0
 20 18  1  0
 21 20  1  0
 21 24  1  0
 21 22  1  1
 23 22  1  0
 24 25  1  0
 26 24  2  0
M  END
$$$$
