YCE.pdb
     RDKit          3D

 28 28  0  0  1  0  0  0  0  0999 V2000
    7.9456  -13.1896   16.6069 O   0  0  0  0  0  0  0  0  0  0  0  0
    7.7962  -13.5958   17.9457 C   0  0  0  0  0  0  0  0  0  0  0  0
    8.6191  -14.5564   18.4991 C   0  0  0  0  0  0  0  0  0  0  0  0
    8.4668  -14.9481   19.8149 C   0  0  0  0  0  0  0  0  0  0  0  0
    7.4929  -14.4044   20.6369 C   0  0  0  0  0  0  0  0  0  0  0  0
    7.3212  -14.8192   22.0523 C   0  0  0  0  0  0  0  0  0  0  0  0
    6.7952  -16.2166   22.2137 C   0  0  2  0  0  0  0  0  0  0  0  0
    5.4531  -16.4052   21.7538 N   0  0  0  0  0  0  0  0  0  0  0  0
    6.8862  -16.5665   23.6620 C   0  0  0  0  0  0  0  0  0  0  0  0
    6.0065  -16.1308   24.4862 O   0  0  0  0  0  0  0  0  0  0  0  0
    6.6792  -13.4451   20.0664 C   0  0  0  0  0  0  0  0  0  0  0  0
    6.8263  -13.0488   18.7514 C   0  0  0  0  0  0  0  0  0  0  0  0
    7.9004  -17.3648   24.2055 N   0  0  0  0  0  0  0  0  0  0  0  0
    8.2955  -17.4122   25.5809 C   0  0  1  0  0  0  0  0  0  0  0  0
    7.3217  -18.2654   26.3879 C   0  0  0  0  0  0  0  0  0  0  0  0
    7.4255  -20.0198   25.9705 S   0  0  0  0  0  0  0  0  0  0  0  0
    9.6487  -17.9150   25.7958 C   0  0  0  0  0  0  0  0  0  0  0  0
   10.0785  -18.9515   25.2467 O   0  0  0  0  0  0  0  0  0  0  0  0
   10.5264  -17.2104   26.6615 N   0  0  0  0  0  0  0  0  0  0  0  0
   11.8674  -17.7175   26.9951 C   0  0  1  0  0  0  0  0  0  0  0  0
   12.8653  -16.5794   26.9103 C   0  0  0  0  0  0  0  0  0  0  0  0
   12.7883  -15.8180   25.6197 C   0  0  0  0  0  0  0  0  0  0  0  0
   13.5251  -16.6130   24.5843 C   0  0  0  0  0  0  0  0  0  0  0  0
   14.7900  -16.5655   24.6983 O   0  0  0  0  0  0  0  0  0  0  0  0
   11.8824  -18.2749   28.3517 C   0  0  0  0  0  0  0  0  0  0  0  0
   12.9121  -18.8462   28.7752 O   0  0  0  0  0  0  0  0  0  0  0  0
   12.9027  -17.3288   23.5978 O   0  0  0  0  0  0  0  0  0  0  0  0
   10.7895  -18.1839   29.1742 O   0  0  0  0  0  0  0  0  0  0  0  0
  2  1  1  0
  3  2  2  0
  4  3  1  0
  5 11  1  0
  5  4  2  0
  6  7  1  0
  6  5  1  0
  7  8  1  1
  9  7  1  0
  9 10  2  0
 11 12  2  0
 12  2  1  0
 13 14  1  0
 13  9  1  0
 14 15  1  1
 16 15  1  0
 17 18  2  0
 17 14  1  0
 19 17  1  0
 20 19  1  0
 20 25  1  0
 20 21  1  1
 22 21  1  0
 23 22  1  0
 24 23  2  0
 25 28  1  0
 26 25  2  0
 27 23  1  0
M  END
$$$$
