YCE.pdb
     RDKit          3D

 28 28  0  0  1  0  0  0  0  0999 V2000
    9.9321  -21.4485   13.7177 O   0  0  0  0  0  0  0  0  0  0  0  0
   10.0240  -20.6461   14.8699 C   0  0  0  0  0  0  0  0  0  0  0  0
    8.9581  -20.5128   15.7371 C   0  0  0  0  0  0  0  0  0  0  0  0
    9.0574  -19.7245   16.8670 C   0  0  0  0  0  0  0  0  0  0  0  0
   10.2168  -19.0357   17.1845 C   0  0  0  0  0  0  0  0  0  0  0  0
   10.3331  -18.1856   18.3965 C   0  0  0  0  0  0  0  0  0  0  0  0
    9.7768  -16.8018   18.2206 C   0  0  2  0  0  0  0  0  0  0  0  0
   10.3845  -16.0441   17.1694 N   0  0  0  0  0  0  0  0  0  0  0  0
    9.9393  -16.0838   19.5192 C   0  0  0  0  0  0  0  0  0  0  0  0
   10.9235  -15.2811   19.6924 O   0  0  0  0  0  0  0  0  0  0  0  0
   11.2726  -19.1808   16.3058 C   0  0  0  0  0  0  0  0  0  0  0  0
   11.1799  -19.9676   15.1743 C   0  0  0  0  0  0  0  0  0  0  0  0
    9.0627  -16.2293   20.6016 N   0  0  0  0  0  0  0  0  0  0  0  0
    9.1542  -15.5561   21.8621 C   0  0  1  0  0  0  0  0  0  0  0  0
    8.0219  -14.5447   22.0115 C   0  0  0  0  0  0  0  0  0  0  0  0
    6.3891  -15.3086   21.8954 S   0  0  0  0  0  0  0  0  0  0  0  0
    9.1417  -16.4482   23.0170 C   0  0  0  0  0  0  0  0  0  0  0  0
    8.6504  -17.5961   22.9777 O   0  0  0  0  0  0  0  0  0  0  0  0
    9.7061  -16.0102   24.2441 N   0  0  0  0  0  0  0  0  0  0  0  0
   10.5913  -16.8696   25.0471 C   0  0  1  0  0  0  0  0  0  0  0  0
   11.8137  -17.2303   24.2261 C   0  0  0  0  0  0  0  0  0  0  0  0
   12.9472  -16.2615   24.3929 C   0  0  0  0  0  0  0  0  0  0  0  0
   14.0699  -16.7283   23.5161 C   0  0  0  0  0  0  0  0  0  0  0  0
   13.8273  -17.8114   22.8969 O   0  0  0  0  0  0  0  0  0  0  0  0
   11.0149  -16.1730   26.2664 C   0  0  0  0  0  0  0  0  0  0  0  0
   11.7533  -16.7588   27.0896 O   0  0  0  0  0  0  0  0  0  0  0  0
   15.2561  -16.0580   23.3870 O   0  0  0  0  0  0  0  0  0  0  0  0
   10.6207  -14.8865   26.5283 O   0  0  0  0  0  0  0  0  0  0  0  0
  2  1  1  0
  3  2  2  0
  4  3  1  0
  5 11  1  0
  5  4  2  0
  6  7  1  0
  6  5  1  0
  7  8  1  6
  9  7  1  0
  9 10  2  0
 11 12  2  0
 12  2  1  0
 13 14  1  0
 13  9  1  0
 14 15  1  1
 16 15  1  0
 17 18  2  0
 17 14  1  0
 19 17  1  0
 20 19  1  0
 20 25  1  0
 20 21  1  6
 22 21  1  0
 23 22  1  0
 24 23  2  0
 25 28  1  0
 26 25  2  0
 27 23  1  0
M  END
$$$$
