YCE.pdb
     RDKit          3D

 28 28  0  0  1  0  0  0  0  0999 V2000
    7.0156  -14.0405   13.8848 O   0  0  0  0  0  0  0  0  0  0  0  0
    7.1305  -14.0117   15.2869 C   0  0  0  0  0  0  0  0  0  0  0  0
    7.5531  -12.8758   15.9481 C   0  0  0  0  0  0  0  0  0  0  0  0
    7.6613  -12.8555   17.3249 C   0  0  0  0  0  0  0  0  0  0  0  0
    7.3554  -13.9598   18.1038 C   0  0  0  0  0  0  0  0  0  0  0  0
    7.4689  -13.9478   19.5843 C   0  0  0  0  0  0  0  0  0  0  0  0
    8.8564  -14.2268   20.0870 C   0  0  2  0  0  0  0  0  0  0  0  0
    9.4440  -15.4289   19.5792 N   0  0  0  0  0  0  0  0  0  0  0  0
    8.7906  -14.2875   21.5771 C   0  0  0  0  0  0  0  0  0  0  0  0
    8.2061  -13.3551   22.2343 O   0  0  0  0  0  0  0  0  0  0  0  0
    6.9345  -15.0869   17.4254 C   0  0  0  0  0  0  0  0  0  0  0  0
    6.8239  -15.1138   16.0489 C   0  0  0  0  0  0  0  0  0  0  0  0
    9.3418  -15.3270   22.3367 N   0  0  0  0  0  0  0  0  0  0  0  0
    9.3228  -15.4348   23.7644 C   0  0  1  0  0  0  0  0  0  0  0  0
    7.8889  -15.5473   24.2731 C   0  0  0  0  0  0  0  0  0  0  0  0
    7.8038  -15.7897   26.0611 S   0  0  0  0  0  0  0  0  0  0  0  0
   10.0955  -16.5566   24.2882 C   0  0  0  0  0  0  0  0  0  0  0  0
    9.6399  -17.7179   24.3533 O   0  0  0  0  0  0  0  0  0  0  0  0
   11.4212  -16.3377   24.7475 N   0  0  0  0  0  0  0  0  0  0  0  0
   12.2896  -17.4440   25.1819 C   0  0  1  0  0  0  0  0  0  0  0  0
   13.7394  -17.0398   24.9999 C   0  0  0  0  0  0  0  0  0  0  0  0
   14.0320  -16.4774   23.6400 C   0  0  0  0  0  0  0  0  0  0  0  0
   15.4946  -16.1521   23.5936 C   0  0  0  0  0  0  0  0  0  0  0  0
   15.8410  -15.2121   24.3757 O   0  0  0  0  0  0  0  0  0  0  0  0
   12.0487  -17.7616   26.5935 C   0  0  0  0  0  0  0  0  0  0  0  0
   12.6256  -18.7420   27.1149 O   0  0  0  0  0  0  0  0  0  0  0  0
   16.3871  -16.8006   22.7838 O   0  0  0  0  0  0  0  0  0  0  0  0
   11.2025  -17.0051   27.3621 O   0  0  0  0  0  0  0  0  0  0  0  0
  2  1  1  0
  3  2  2  0
  4  3  1  0
  5 11  1  0
  5  4  2  0
  6  7  1  0
  6  5  1  0
  7  8  1  6
  9  7  1  0
  9 10  2  0
 11 12  2  0
 12  2  1  0
 13 14  1  0
 13  9  1  0
 14 15  1  6
 16 15  1  0
 17 18  2  0
 17 14  1  0
 19 17  1  0
 20 19  1  0
 20 25  1  0
 20 21  1  1
 22 21  1  0
 23 22  1  0
 24 23  2  0
 25 28  1  0
 26 25  2  0
 27 23  1  0
M  END
$$$$
