YCE.pdb
     RDKit          3D

 28 28  0  0  1  0  0  0  0  0999 V2000
    7.4713  -14.1378   15.7711 O   0  0  0  0  0  0  0  0  0  0  0  0
    7.6874  -13.9419   17.1476 C   0  0  0  0  0  0  0  0  0  0  0  0
    8.7064  -14.5941   17.8129 C   0  0  0  0  0  0  0  0  0  0  0  0
    8.9127  -14.3947   19.1640 C   0  0  0  0  0  0  0  0  0  0  0  0
    8.1180  -13.5411   19.9121 C   0  0  0  0  0  0  0  0  0  0  0  0
    8.3318  -13.3206   21.3649 C   0  0  0  0  0  0  0  0  0  0  0  0
    7.8649  -14.4598   22.2249 C   0  0  2  0  0  0  0  0  0  0  0  0
    6.4569  -14.7101   22.1701 N   0  0  0  0  0  0  0  0  0  0  0  0
    8.2695  -14.1575   23.6296 C   0  0  0  0  0  0  0  0  0  0  0  0
    8.1833  -12.9610   24.0812 O   0  0  0  0  0  0  0  0  0  0  0  0
    7.1039  -12.8975   19.2301 C   0  0  0  0  0  0  0  0  0  0  0  0
    6.8923  -13.0922   17.8791 C   0  0  0  0  0  0  0  0  0  0  0  0
    8.7547  -15.1214   24.5222 N   0  0  0  0  0  0  0  0  0  0  0  0
    9.4246  -14.8668   25.7618 C   0  0  1  0  0  0  0  0  0  0  0  0
    8.4958  -14.1448   26.7332 C   0  0  0  0  0  0  0  0  0  0  0  0
    9.1815  -14.0403   28.4011 S   0  0  0  0  0  0  0  0  0  0  0  0
    9.9471  -16.0633   26.4142 C   0  0  0  0  0  0  0  0  0  0  0  0
    9.2069  -16.9462   26.8970 O   0  0  0  0  0  0  0  0  0  0  0  0
   11.3514  -16.2479   26.5137 N   0  0  0  0  0  0  0  0  0  0  0  0
   11.9443  -17.5436   26.8826 C   0  0  1  0  0  0  0  0  0  0  0  0
   13.2067  -17.7623   26.0721 C   0  0  0  0  0  0  0  0  0  0  0  0
   14.2691  -16.7375   26.3409 C   0  0  0  0  0  0  0  0  0  0  0  0
   15.1649  -16.6932   25.1398 C   0  0  0  0  0  0  0  0  0  0  0  0
   16.3818  -16.4461   25.4104 O   0  0  0  0  0  0  0  0  0  0  0  0
   12.2755  -17.5683   28.3113 C   0  0  0  0  0  0  0  0  0  0  0  0
   12.1408  -16.5298   28.9963 O   0  0  0  0  0  0  0  0  0  0  0  0
   14.7234  -16.8968   23.8605 O   0  0  0  0  0  0  0  0  0  0  0  0
   12.7307  -18.7091   28.9200 O   0  0  0  0  0  0  0  0  0  0  0  0
  2  1  1  0
  3  2  2  0
  4  3  1  0
  5 11  1  0
  5  4  2  0
  6  7  1  0
  6  5  1  0
  7  8  1  1
  9  7  1  0
  9 10  2  0
 11 12  2  0
 12  2  1  0
 13 14  1  0
 13  9  1  0
 14 15  1  1
 16 15  1  0
 17 18  2  0
 17 14  1  0
 19 17  1  0
 20 19  1  0
 20 25  1  0
 20 21  1  6
 22 21  1  0
 23 22  1  0
 24 23  2  0
 25 28  1  0
 26 25  2  0
 27 23  1  0
M  END
$$$$
