YCE.pdb
     RDKit          3D

 28 28  0  0  1  0  0  0  0  0999 V2000
    6.5307  -13.6213   16.5782 O   0  0  0  0  0  0  0  0  0  0  0  0
    6.9527  -13.9682   17.8749 C   0  0  0  0  0  0  0  0  0  0  0  0
    7.3275  -13.0034   18.7886 C   0  0  0  0  0  0  0  0  0  0  0  0
    7.7388  -13.3526   20.0601 C   0  0  0  0  0  0  0  0  0  0  0  0
    7.7960  -14.6720   20.4791 C   0  0  0  0  0  0  0  0  0  0  0  0
    8.2371  -15.0572   21.8436 C   0  0  0  0  0  0  0  0  0  0  0  0
    9.6668  -14.7051   22.1392 C   0  0  2  0  0  0  0  0  0  0  0  0
   10.6254  -15.3380   21.2856 N   0  0  0  0  0  0  0  0  0  0  0  0
    9.9357  -15.0735   23.5606 C   0  0  0  0  0  0  0  0  0  0  0  0
   10.5466  -16.1656   23.8381 O   0  0  0  0  0  0  0  0  0  0  0  0
    7.4175  -15.6233   19.5519 C   0  0  0  0  0  0  0  0  0  0  0  0
    7.0051  -15.2809   18.2789 C   0  0  0  0  0  0  0  0  0  0  0  0
    9.5544  -14.2840   24.6526 N   0  0  0  0  0  0  0  0  0  0  0  0
    9.8545  -14.5405   26.0290 C   0  0  1  0  0  0  0  0  0  0  0  0
    9.0873  -13.5792   26.9317 C   0  0  0  0  0  0  0  0  0  0  0  0
    9.4141  -13.8639   28.6854 S   0  0  0  0  0  0  0  0  0  0  0  0
    9.5755  -15.9080   26.4556 C   0  0  0  0  0  0  0  0  0  0  0  0
    8.4391  -16.4207   26.3772 O   0  0  0  0  0  0  0  0  0  0  0  0
   10.6266  -16.7030   26.9841 N   0  0  0  0  0  0  0  0  0  0  0  0
   10.3701  -17.9778   27.6741 C   0  0  1  0  0  0  0  0  0  0  0  0
   11.2864  -19.0441   27.1067 C   0  0  0  0  0  0  0  0  0  0  0  0
   11.4821  -18.9300   25.6235 C   0  0  0  0  0  0  0  0  0  0  0  0
   12.5653  -19.8918   25.2379 C   0  0  0  0  0  0  0  0  0  0  0  0
   12.1593  -20.8798   24.5492 O   0  0  0  0  0  0  0  0  0  0  0  0
   10.6183  -17.8414   29.1132 C   0  0  0  0  0  0  0  0  0  0  0  0
   11.1196  -16.7845   29.5578 O   0  0  0  0  0  0  0  0  0  0  0  0
   13.8777  -19.7326   25.5916 O   0  0  0  0  0  0  0  0  0  0  0  0
   10.3114  -18.8492   29.9903 O   0  0  0  0  0  0  0  0  0  0  0  0
  2  1  1  0
  3  2  2  0
  4  3  1  0
  5 11  1  0
  5  4  2  0
  6  7  1  0
  6  5  1  0
  7  8  1  6
  9  7  1  0
  9 10  2  0
 11 12  2  0
 12  2  1  0
 13 14  1  0
 13  9  1  0
 14 15  1  1
 16 15  1  0
 17 18  2  0
 17 14  1  0
 19 17  1  0
 20 19  1  0
 20 25  1  0
 20 21  1  6
 22 21  1  0
 23 22  1  0
 24 23  2  0
 25 28  1  0
 26 25  2  0
 27 23  1  0
M  END
$$$$
