YCE.pdb
     RDKit          3D

 28 28  0  0  1  0  0  0  0  0999 V2000
    3.3989  -20.6317   19.3692 O   0  0  0  0  0  0  0  0  0  0  0  0
    4.2982  -19.8104   20.0739 C   0  0  0  0  0  0  0  0  0  0  0  0
    4.5569  -18.5167   19.6668 C   0  0  0  0  0  0  0  0  0  0  0  0
    5.4398  -17.7165   20.3654 C   0  0  0  0  0  0  0  0  0  0  0  0
    6.1031  -18.1649   21.4962 C   0  0  0  0  0  0  0  0  0  0  0  0
    7.0542  -17.3124   22.2537 C   0  0  0  0  0  0  0  0  0  0  0  0
    7.0368  -15.8695   21.8376 C   0  0  2  0  0  0  0  0  0  0  0  0
    7.5871  -15.6162   20.5410 N   0  0  0  0  0  0  0  0  0  0  0  0
    7.7926  -15.0960   22.8666 C   0  0  0  0  0  0  0  0  0  0  0  0
    9.0625  -14.9563   22.7628 O   0  0  0  0  0  0  0  0  0  0  0  0
    5.8320  -19.4611   21.8887 C   0  0  0  0  0  0  0  0  0  0  0  0
    4.9502  -20.2665   21.1947 C   0  0  0  0  0  0  0  0  0  0  0  0
    7.1930  -14.4903   23.9778 N   0  0  0  0  0  0  0  0  0  0  0  0
    7.8735  -13.8651   25.0716 C   0  0  1  0  0  0  0  0  0  0  0  0
    6.9199  -12.9634   25.8495 C   0  0  0  0  0  0  0  0  0  0  0  0
    7.6986  -12.2147   27.2973 S   0  0  0  0  0  0  0  0  0  0  0  0
    8.4957  -14.8024   26.0012 C   0  0  0  0  0  0  0  0  0  0  0  0
    7.8511  -15.6939   26.5931 O   0  0  0  0  0  0  0  0  0  0  0  0
    9.8897  -14.7121   26.2558 N   0  0  0  0  0  0  0  0  0  0  0  0
   10.5868  -15.6677   27.1319 C   0  0  1  0  0  0  0  0  0  0  0  0
   12.0250  -15.8063   26.6728 C   0  0  0  0  0  0  0  0  0  0  0  0
   12.1631  -16.5272   25.3642 C   0  0  0  0  0  0  0  0  0  0  0  0
   13.6117  -16.4889   24.9808 C   0  0  0  0  0  0  0  0  0  0  0  0
   13.8823  -17.1272   23.9156 O   0  0  0  0  0  0  0  0  0  0  0  0
   10.5648  -15.2000   28.5219 C   0  0  0  0  0  0  0  0  0  0  0  0
   10.2203  -14.0236   28.7741 O   0  0  0  0  0  0  0  0  0  0  0  0
   14.5677  -15.8307   25.7058 O   0  0  0  0  0  0  0  0  0  0  0  0
   10.9131  -16.0252   29.5595 O   0  0  0  0  0  0  0  0  0  0  0  0
  2  1  1  0
  3  2  2  0
  4  3  1  0
  5 11  1  0
  5  4  2  0
  6  7  1  0
  6  5  1  0
  7  8  1  6
  9  7  1  0
  9 10  2  0
 11 12  2  0
 12  2  1  0
 13 14  1  0
 13  9  1  0
 14 15  1  1
 16 15  1  0
 17 18  2  0
 17 14  1  0
 19 17  1  0
 20 19  1  0
 20 25  1  0
 20 21  1  6
 22 21  1  0
 23 22  1  0
 24 23  2  0
 25 28  1  0
 26 25  2  0
 27 23  1  0
M  END
$$$$
