YCE.pdb
     RDKit          3D

 28 28  0  0  1  0  0  0  0  0999 V2000
    5.8509  -19.9616   15.3674 O   0  0  0  0  0  0  0  0  0  0  0  0
    6.6051  -19.1308   16.2163 C   0  0  0  0  0  0  0  0  0  0  0  0
    5.9995  -18.1714   17.0030 C   0  0  0  0  0  0  0  0  0  0  0  0
    6.7473  -17.3611   17.8351 C   0  0  0  0  0  0  0  0  0  0  0  0
    8.1259  -17.4677   17.9221 C   0  0  0  0  0  0  0  0  0  0  0  0
    8.9383  -16.6011   18.8131 C   0  0  0  0  0  0  0  0  0  0  0  0
    8.1207  -15.6664   19.6578 C   0  0  2  0  0  0  0  0  0  0  0  0
    7.6130  -14.5237   18.9618 N   0  0  0  0  0  0  0  0  0  0  0  0
    8.9780  -15.2239   20.7968 C   0  0  0  0  0  0  0  0  0  0  0  0
    9.8278  -14.2782   20.6337 O   0  0  0  0  0  0  0  0  0  0  0  0
    8.7144  -18.4326   17.1281 C   0  0  0  0  0  0  0  0  0  0  0  0
    7.9725  -19.2463   16.2941 C   0  0  0  0  0  0  0  0  0  0  0  0
    8.9194  -15.7879   22.0773 N   0  0  0  0  0  0  0  0  0  0  0  0
    9.7062  -15.4018   23.2097 C   0  0  1  0  0  0  0  0  0  0  0  0
    8.8844  -14.5392   24.1627 C   0  0  0  0  0  0  0  0  0  0  0  0
    7.2180  -15.1864   24.4225 S   0  0  0  0  0  0  0  0  0  0  0  0
   10.2665  -16.5231   23.9571 C   0  0  0  0  0  0  0  0  0  0  0  0
    9.6038  -17.5434   24.2407 O   0  0  0  0  0  0  0  0  0  0  0  0
   11.6184  -16.4696   24.3879 N   0  0  0  0  0  0  0  0  0  0  0  0
   12.2689  -17.6057   25.0610 C   0  0  1  0  0  0  0  0  0  0  0  0
   13.7695  -17.5045   24.8703 C   0  0  0  0  0  0  0  0  0  0  0  0
   14.1896  -17.5609   23.4310 C   0  0  0  0  0  0  0  0  0  0  0  0
   15.0964  -16.3937   23.1815 C   0  0  0  0  0  0  0  0  0  0  0  0
   15.3814  -15.7270   24.2254 O   0  0  0  0  0  0  0  0  0  0  0  0
   11.9611  -17.5972   26.4950 C   0  0  0  0  0  0  0  0  0  0  0  0
   11.2657  -16.6734   26.9738 O   0  0  0  0  0  0  0  0  0  0  0  0
   15.5794  -16.0635   21.9443 O   0  0  0  0  0  0  0  0  0  0  0  0
   12.4177  -18.5837   27.3301 O   0  0  0  0  0  0  0  0  0  0  0  0
  2  1  1  0
  3  2  2  0
  4  3  1  0
  5 11  1  0
  5  4  2  0
  6  7  1  0
  6  5  1  0
  7  8  1  6
  9  7  1  0
  9 10  2  0
 11 12  2  0
 12  2  1  0
 13 14  1  0
 13  9  1  0
 14 15  1  1
 16 15  1  0
 17 18  2  0
 17 14  1  0
 19 17  1  0
 20 19  1  0
 20 25  1  0
 20 21  1  1
 22 21  1  0
 23 22  1  0
 24 23  2  0
 25 28  1  0
 26 25  2  0
 27 23  1  0
M  END
$$$$
