YCE.pdb
     RDKit          3D

 28 28  0  0  1  0  0  0  0  0999 V2000
    7.3948  -14.4836   13.6076 O   0  0  0  0  0  0  0  0  0  0  0  0
    7.9948  -14.6878   14.8638 C   0  0  0  0  0  0  0  0  0  0  0  0
    8.2216  -15.9594   15.3514 C   0  0  0  0  0  0  0  0  0  0  0  0
    8.8129  -16.1509   16.5849 C   0  0  0  0  0  0  0  0  0  0  0  0
    9.2038  -15.0906   17.3866 C   0  0  0  0  0  0  0  0  0  0  0  0
    9.8397  -15.2864   18.7141 C   0  0  0  0  0  0  0  0  0  0  0  0
   10.1676  -14.0037   19.4229 C   0  0  2  0  0  0  0  0  0  0  0  0
   11.3832  -13.3806   18.9962 N   0  0  0  0  0  0  0  0  0  0  0  0
   10.2397  -14.3033   20.8835 C   0  0  0  0  0  0  0  0  0  0  0  0
   11.3589  -14.6223   21.4209 O   0  0  0  0  0  0  0  0  0  0  0  0
    8.9691  -13.8261   16.8828 C   0  0  0  0  0  0  0  0  0  0  0  0
    8.3785  -13.6276   15.6500 C   0  0  0  0  0  0  0  0  0  0  0  0
    9.1328  -14.2600   21.7404 N   0  0  0  0  0  0  0  0  0  0  0  0
    9.1198  -14.6209   23.1260 C   0  0  1  0  0  0  0  0  0  0  0  0
    7.7609  -14.3112   23.7465 C   0  0  0  0  0  0  0  0  0  0  0  0
    7.6386  -14.8648   25.4616 S   0  0  0  0  0  0  0  0  0  0  0  0
    9.4435  -16.0210   23.3808 C   0  0  0  0  0  0  0  0  0  0  0  0
    8.8458  -16.9644   22.8211 O   0  0  0  0  0  0  0  0  0  0  0  0
   10.4770  -16.3429   24.2997 N   0  0  0  0  0  0  0  0  0  0  0  0
   10.8104  -17.7348   24.6436 C   0  0  1  0  0  0  0  0  0  0  0  0
   12.2779  -17.9814   24.3541 C   0  0  0  0  0  0  0  0  0  0  0  0
   12.7531  -19.3308   24.8062 C   0  0  0  0  0  0  0  0  0  0  0  0
   14.1859  -19.4664   24.3868 C   0  0  0  0  0  0  0  0  0  0  0  0
   14.3613  -19.4437   23.1283 O   0  0  0  0  0  0  0  0  0  0  0  0
   10.5472  -17.9898   26.0638 C   0  0  0  0  0  0  0  0  0  0  0  0
   10.2885  -17.0325   26.8273 O   0  0  0  0  0  0  0  0  0  0  0  0
   15.2216  -19.6051   25.2706 O   0  0  0  0  0  0  0  0  0  0  0  0
   10.5761  -19.2595   26.5796 O   0  0  0  0  0  0  0  0  0  0  0  0
  2  1  1  0
  3  2  2  0
  4  3  1  0
  5 11  1  0
  5  4  2  0
  6  7  1  0
  6  5  1  0
  7  8  1  6
  9  7  1  0
  9 10  2  0
 11 12  2  0
 12  2  1  0
 13 14  1  0
 13  9  1  0
 14 15  1  6
 16 15  1  0
 17 18  2  0
 17 14  1  0
 19 17  1  0
 20 19  1  0
 20 25  1  0
 20 21  1  1
 22 21  1  0
 23 22  1  0
 24 23  2  0
 25 28  1  0
 26 25  2  0
 27 23  1  0
M  END
$$$$
