HFW.pdb
     RDKit          3D

 36 39  0  0  1  0  0  0  0  0999 V2000
   28.8096  -22.2465  -16.1810 N   0  0  0  0  0  0  0  0  0  0  0  0
   28.2983  -20.9726  -15.6420 C   0  0  1  0  0  0  0  0  0  0  0  0
   27.5916  -20.2648  -16.7660 C   0  0  0  0  0  0  0  0  0  0  0  0
   28.4987  -19.7604  -17.7931 C   0  0  0  0  0  0  0  0  0  0  0  0
   29.1926  -18.5515  -17.6190 C   0  0  0  0  0  0  0  0  0  0  0  0
   29.9212  -18.3899  -18.7287 N   0  0  0  0  0  0  0  0  0  0  0  0
   29.7211  -19.4229  -19.5771 C   0  0  0  0  0  0  0  0  0  0  0  0
   28.8528  -20.2455  -18.9900 N   0  0  0  0  0  0  0  0  0  0  0  0
   27.3122  -21.2818  -14.5567 C   0  0  0  0  0  0  0  0  0  0  0  0
   26.4111  -22.1408  -14.6466 O   0  0  0  0  0  0  0  0  0  0  0  0
   27.3780  -20.5641  -13.3199 N   0  0  0  0  0  0  0  0  0  0  0  0
   26.4368  -20.8618  -12.2580 C   0  0  1  0  0  0  0  0  0  0  0  0
   26.9565  -20.4231  -10.9103 C   0  0  0  0  0  0  0  0  0  0  0  0
   28.2396  -21.0767  -10.5481 C   0  0  0  0  0  0  0  0  0  0  0  0
   29.2381  -21.1860  -11.4955 C   0  0  0  0  0  0  0  0  0  0  0  0
   30.4190  -21.8005  -11.1133 C   0  0  0  0  0  0  0  0  0  0  0  0
   30.6110  -22.2946   -9.8297 C   0  0  0  0  0  0  0  0  0  0  0  0
   29.6237  -22.1855   -8.8958 C   0  0  0  0  0  0  0  0  0  0  0  0
   28.4326  -21.5681   -9.2742 C   0  0  0  0  0  0  0  0  0  0  0  0
   25.1419  -20.1531  -12.4683 C   0  0  0  0  0  0  0  0  0  0  0  0
   25.0634  -18.9066  -12.6210 O   0  0  0  0  0  0  0  0  0  0  0  0
   23.9659  -20.9516  -12.4919 N   0  0  0  0  0  0  0  0  0  0  0  0
   22.6608  -20.4057  -12.8206 C   0  0  1  0  0  0  0  0  0  0  0  0
   22.5945  -20.4174  -14.3542 C   0  0  0  0  0  0  0  0  0  0  0  0
   21.3029  -19.9192  -14.8417 C   0  0  0  0  0  0  0  0  0  0  0  0
   20.7510  -18.6581  -14.6350 C   0  0  0  0  0  0  0  0  0  0  0  0
   19.5537  -18.6034  -15.2466 N   0  0  0  0  0  0  0  0  0  0  0  0
   19.3348  -19.8026  -15.8364 C   0  0  0  0  0  0  0  0  0  0  0  0
   18.2728  -20.2690  -16.5833 C   0  0  0  0  0  0  0  0  0  0  0  0
   18.3110  -21.5650  -17.0763 C   0  0  0  0  0  0  0  0  0  0  0  0
   19.3737  -22.3865  -16.8390 C   0  0  0  0  0  0  0  0  0  0  0  0
   20.4501  -21.9297  -16.0883 C   0  0  0  0  0  0  0  0  0  0  0  0
   20.4121  -20.6406  -15.5979 C   0  0  0  0  0  0  0  0  0  0  0  0
   21.6222  -21.2989  -12.2613 C   0  0  0  0  0  0  0  0  0  0  0  0
   20.3877  -20.8222  -11.8199 O   0  0  0  0  0  0  0  0  0  0  0  0
   21.8259  -22.5244  -12.1678 O   0  0  0  0  0  0  0  0  0  0  0  0
  2  1  1  6
  3  2  1  0
  4  5  2  0
  4  3  1  0
  6  5  1  0
  7  8  2  0
  7  6  1  0
  8  4  1  0
  9  2  1  0
 10  9  2  0
 11  9  1  0
 12 11  1  0
 12 13  1  1
 13 14  1  0
 14 15  2  0
 15 16  1  0
 17 16  2  0
 18 17  1  0
 19 14  1  0
 19 18  2  0
 20 21  2  0
 20 12  1  0
 22 20  1  0
 23 22  1  0
 23 24  1  6
 24 25  1  0
 25 26  2  0
 25 33  1  0
 26 27  1  0
 27 28  1  0
 28 29  2  0
 29 30  1  0
 31 30  2  0
 32 31  1  0
 33 32  2  0
 33 28  1  0
 34 35  1  0
 34 23  1  0
 36 34  2  0
M  END
$$$$
