HFW.pdb
     RDKit          3D

 36 39  0  0  1  0  0  0  0  0999 V2000
   26.4351  -17.3881  -20.2687 N   0  0  0  0  0  0  0  0  0  0  0  0
   25.2822  -18.2791  -20.0416 C   0  0  1  0  0  0  0  0  0  0  0  0
   24.8917  -18.8517  -21.3771 C   0  0  0  0  0  0  0  0  0  0  0  0
   24.3210  -17.8619  -22.2864 C   0  0  0  0  0  0  0  0  0  0  0  0
   22.9765  -17.4688  -22.1807 C   0  0  0  0  0  0  0  0  0  0  0  0
   22.7868  -16.5659  -23.1488 N   0  0  0  0  0  0  0  0  0  0  0  0
   23.9294  -16.3767  -23.8457 C   0  0  0  0  0  0  0  0  0  0  0  0
   24.8505  -17.1738  -23.3059 N   0  0  0  0  0  0  0  0  0  0  0  0
   25.7169  -19.3914  -19.1363 C   0  0  0  0  0  0  0  0  0  0  0  0
   26.7093  -20.1203  -19.3413 O   0  0  0  0  0  0  0  0  0  0  0  0
   24.9683  -19.6652  -17.9472 N   0  0  0  0  0  0  0  0  0  0  0  0
   25.4148  -20.6963  -17.0310 C   0  0  1  0  0  0  0  0  0  0  0  0
   25.8739  -20.1152  -15.7154 C   0  0  0  0  0  0  0  0  0  0  0  0
   26.9708  -19.1272  -15.8747 C   0  0  0  0  0  0  0  0  0  0  0  0
   26.7317  -17.7956  -15.5983 C   0  0  0  0  0  0  0  0  0  0  0  0
   27.7842  -16.9095  -15.7580 C   0  0  0  0  0  0  0  0  0  0  0  0
   29.0404  -17.3253  -16.1793 C   0  0  0  0  0  0  0  0  0  0  0  0
   29.2741  -18.6407  -16.4517 C   0  0  0  0  0  0  0  0  0  0  0  0
   28.2190  -19.5376  -16.2929 C   0  0  0  0  0  0  0  0  0  0  0  0
   24.3153  -21.6527  -16.7154 C   0  0  0  0  0  0  0  0  0  0  0  0
   23.1670  -21.2795  -16.3615 O   0  0  0  0  0  0  0  0  0  0  0  0
   24.6127  -23.0382  -16.8303 N   0  0  0  0  0  0  0  0  0  0  0  0
   23.6023  -24.0678  -16.6627 C   0  0  1  0  0  0  0  0  0  0  0  0
   24.1066  -25.2637  -17.4824 C   0  0  0  0  0  0  0  0  0  0  0  0
   25.3189  -25.8466  -16.8953 C   0  0  0  0  0  0  0  0  0  0  0  0
   25.3937  -26.8017  -15.8853 C   0  0  0  0  0  0  0  0  0  0  0  0
   26.6889  -27.0671  -15.6350 N   0  0  0  0  0  0  0  0  0  0  0  0
   27.4366  -26.3010  -16.4643 C   0  0  0  0  0  0  0  0  0  0  0  0
   28.8033  -26.1901  -16.6155 C   0  0  0  0  0  0  0  0  0  0  0  0
   29.3092  -25.3101  -17.5609 C   0  0  0  0  0  0  0  0  0  0  0  0
   28.4863  -24.5537  -18.3425 C   0  0  0  0  0  0  0  0  0  0  0  0
   27.1077  -24.6554  -18.2009 C   0  0  0  0  0  0  0  0  0  0  0  0
   26.6045  -25.5307  -17.2606 C   0  0  0  0  0  0  0  0  0  0  0  0
   23.5312  -24.4291  -15.2296 C   0  0  0  0  0  0  0  0  0  0  0  0
   22.5305  -25.2553  -14.7176 O   0  0  0  0  0  0  0  0  0  0  0  0
   24.3794  -23.9971  -14.4260 O   0  0  0  0  0  0  0  0  0  0  0  0
  2  1  1  6
  3  2  1  0
  4  5  2  0
  4  3  1  0
  6  5  1  0
  7  8  2  0
  7  6  1  0
  8  4  1  0
  9  2  1  0
 10  9  2  0
 11  9  1  0
 12 11  1  0
 12 13  1  1
 13 14  1  0
 14 15  2  0
 15 16  1  0
 17 16  2  0
 18 17  1  0
 19 14  1  0
 19 18  2  0
 20 21  2  0
 20 12  1  0
 22 20  1  0
 23 22  1  0
 23 24  1  6
 24 25  1  0
 25 26  2  0
 25 33  1  0
 26 27  1  0
 27 28  1  0
 28 29  2  0
 29 30  1  0
 31 30  2  0
 32 31  1  0
 33 32  2  0
 33 28  1  0
 34 35  1  0
 34 23  1  0
 36 34  2  0
M  END
$$$$
