HFW.pdb
     RDKit          3D

 36 39  0  0  1  0  0  0  0  0999 V2000
   26.4798  -24.7016  -15.7767 N   0  0  0  0  0  0  0  0  0  0  0  0
   27.0509  -23.3518  -15.9400 C   0  0  1  0  0  0  0  0  0  0  0  0
   27.1978  -23.1058  -17.4171 C   0  0  0  0  0  0  0  0  0  0  0  0
   28.2629  -23.8932  -18.0317 C   0  0  0  0  0  0  0  0  0  0  0  0
   29.6044  -23.7213  -17.6521 C   0  0  0  0  0  0  0  0  0  0  0  0
   30.3043  -24.5830  -18.3978 N   0  0  0  0  0  0  0  0  0  0  0  0
   29.4795  -25.2763  -19.2139 C   0  0  0  0  0  0  0  0  0  0  0  0
   28.2424  -24.8422  -18.9762 N   0  0  0  0  0  0  0  0  0  0  0  0
   26.0851  -22.3588  -15.3683 C   0  0  0  0  0  0  0  0  0  0  0  0
   24.8450  -22.5007  -15.3689 O   0  0  0  0  0  0  0  0  0  0  0  0
   26.5817  -21.1554  -14.7731 N   0  0  0  0  0  0  0  0  0  0  0  0
   25.6635  -20.2225  -14.1497 C   0  0  1  0  0  0  0  0  0  0  0  0
   26.3405  -19.4028  -13.0780 C   0  0  0  0  0  0  0  0  0  0  0  0
   26.4471  -20.1234  -11.7841 C   0  0  0  0  0  0  0  0  0  0  0  0
   25.4339  -20.0036  -10.8537 C   0  0  0  0  0  0  0  0  0  0  0  0
   25.5738  -20.6951   -9.6619 C   0  0  0  0  0  0  0  0  0  0  0  0
   26.6843  -21.4848   -9.3939 C   0  0  0  0  0  0  0  0  0  0  0  0
   27.6836  -21.6015  -10.3140 C   0  0  0  0  0  0  0  0  0  0  0  0
   27.5488  -20.9080  -11.5156 C   0  0  0  0  0  0  0  0  0  0  0  0
   25.1153  -19.2565  -15.1445 C   0  0  0  0  0  0  0  0  0  0  0  0
   25.8451  -18.4905  -15.8255 O   0  0  0  0  0  0  0  0  0  0  0  0
   23.7029  -19.2271  -15.3044 N   0  0  0  0  0  0  0  0  0  0  0  0
   23.0444  -18.3380  -16.2452 C   0  0  1  0  0  0  0  0  0  0  0  0
   22.9271  -19.1443  -17.5462 C   0  0  0  0  0  0  0  0  0  0  0  0
   22.1968  -18.3989  -18.5783 C   0  0  0  0  0  0  0  0  0  0  0  0
   22.2569  -17.0322  -18.8356 C   0  0  0  0  0  0  0  0  0  0  0  0
   21.4350  -16.7480  -19.8624 N   0  0  0  0  0  0  0  0  0  0  0  0
   20.8554  -17.9049  -20.2615 C   0  0  0  0  0  0  0  0  0  0  0  0
   19.9438  -18.1678  -21.2630 C   0  0  0  0  0  0  0  0  0  0  0  0
   19.5106  -19.4712  -21.4572 C   0  0  0  0  0  0  0  0  0  0  0  0
   19.9655  -20.4963  -20.6809 C   0  0  0  0  0  0  0  0  0  0  0  0
   20.8838  -20.2458  -19.6686 C   0  0  0  0  0  0  0  0  0  0  0  0
   21.3147  -18.9494  -19.4754 C   0  0  0  0  0  0  0  0  0  0  0  0
   21.6972  -18.0159  -15.7250 C   0  0  0  0  0  0  0  0  0  0  0  0
   21.1080  -18.7351  -14.6849 O   0  0  0  0  0  0  0  0  0  0  0  0
   21.0400  -17.0758  -16.2109 O   0  0  0  0  0  0  0  0  0  0  0  0
  2  1  1  6
  3  2  1  0
  4  5  2  0
  4  3  1  0
  6  5  1  0
  7  8  2  0
  7  6  1  0
  8  4  1  0
  9  2  1  0
 10  9  2  0
 11  9  1  0
 12 11  1  0
 12 13  1  1
 13 14  1  0
 14 15  2  0
 15 16  1  0
 17 16  2  0
 18 17  1  0
 19 14  1  0
 19 18  2  0
 20 21  2  0
 20 12  1  0
 22 20  1  0
 23 22  1  0
 23 24  1  6
 24 25  1  0
 25 26  2  0
 25 33  1  0
 26 27  1  0
 27 28  1  0
 28 29  2  0
 29 30  1  0
 31 30  2  0
 32 31  1  0
 33 32  2  0
 33 28  1  0
 34 35  1  0
 34 23  1  0
 36 34  2  0
M  END
$$$$
