HFW.pdb
     RDKit          3D

 36 39  0  0  1  0  0  0  0  0999 V2000
   27.2536  -18.9748  -20.2562 N   0  0  0  0  0  0  0  0  0  0  0  0
   26.3621  -18.0974  -19.4753 C   0  0  1  0  0  0  0  0  0  0  0  0
   25.4202  -17.4403  -20.4474 C   0  0  0  0  0  0  0  0  0  0  0  0
   26.0803  -16.4952  -21.3436 C   0  0  0  0  0  0  0  0  0  0  0  0
   26.1874  -16.7535  -22.7202 C   0  0  0  0  0  0  0  0  0  0  0  0
   26.8360  -15.7036  -23.2356 N   0  0  0  0  0  0  0  0  0  0  0  0
   27.1360  -14.8132  -22.2640 C   0  0  0  0  0  0  0  0  0  0  0  0
   26.6683  -15.3128  -21.1209 N   0  0  0  0  0  0  0  0  0  0  0  0
   25.5756  -18.9491  -18.5258 C   0  0  0  0  0  0  0  0  0  0  0  0
   25.2210  -20.1229  -18.7596 O   0  0  0  0  0  0  0  0  0  0  0  0
   25.1876  -18.4145  -17.2558 N   0  0  0  0  0  0  0  0  0  0  0  0
   24.4929  -19.2525  -16.2982 C   0  0  1  0  0  0  0  0  0  0  0  0
   25.3130  -19.4742  -15.0502 C   0  0  0  0  0  0  0  0  0  0  0  0
   26.6121  -20.1381  -15.3261 C   0  0  0  0  0  0  0  0  0  0  0  0
   26.6825  -21.5170  -15.3354 C   0  0  0  0  0  0  0  0  0  0  0  0
   27.9138  -22.0936  -15.5998 C   0  0  0  0  0  0  0  0  0  0  0  0
   29.0469  -21.3304  -15.8488 C   0  0  0  0  0  0  0  0  0  0  0  0
   28.9751  -19.9689  -15.8390 C   0  0  0  0  0  0  0  0  0  0  0  0
   27.7388  -19.3824  -15.5736 C   0  0  0  0  0  0  0  0  0  0  0  0
   23.2112  -18.6278  -15.8621 C   0  0  0  0  0  0  0  0  0  0  0  0
   23.0890  -17.3923  -15.6583 O   0  0  0  0  0  0  0  0  0  0  0  0
   22.1001  -19.4958  -15.6789 N   0  0  0  0  0  0  0  0  0  0  0  0
   20.7669  -19.0017  -15.3828 C   0  0  1  0  0  0  0  0  0  0  0  0
   20.3195  -18.2652  -16.6532 C   0  0  0  0  0  0  0  0  0  0  0  0
   20.2570  -19.1701  -17.8071 C   0  0  0  0  0  0  0  0  0  0  0  0
   19.4680  -20.3084  -17.9466 C   0  0  0  0  0  0  0  0  0  0  0  0
   19.7066  -20.8560  -19.1523 N   0  0  0  0  0  0  0  0  0  0  0  0
   20.6297  -20.0894  -19.7800 C   0  0  0  0  0  0  0  0  0  0  0  0
   21.2155  -20.2056  -21.0236 C   0  0  0  0  0  0  0  0  0  0  0  0
   22.1490  -19.2599  -21.4216 C   0  0  0  0  0  0  0  0  0  0  0  0
   22.4995  -18.2199  -20.6118 C   0  0  0  0  0  0  0  0  0  0  0  0
   21.9173  -18.0906  -19.3568 C   0  0  0  0  0  0  0  0  0  0  0  0
   20.9888  -19.0312  -18.9607 C   0  0  0  0  0  0  0  0  0  0  0  0
   19.8811  -20.1594  -15.1292 C   0  0  0  0  0  0  0  0  0  0  0  0
   18.5761  -20.0109  -14.6589 O   0  0  0  0  0  0  0  0  0  0  0  0
   20.2843  -21.3204  -15.3327 O   0  0  0  0  0  0  0  0  0  0  0  0
  2  1  1  6
  3  2  1  0
  4  5  2  0
  4  3  1  0
  6  5  1  0
  7  8  2  0
  7  6  1  0
  8  4  1  0
  9  2  1  0
 10  9  2  0
 11  9  1  0
 12 11  1  0
 12 13  1  1
 13 14  1  0
 14 15  2  0
 15 16  1  0
 17 16  2  0
 18 17  1  0
 19 14  1  0
 19 18  2  0
 20 21  2  0
 20 12  1  0
 22 20  1  0
 23 22  1  0
 23 24  1  6
 24 25  1  0
 25 26  2  0
 25 33  1  0
 26 27  1  0
 27 28  1  0
 28 29  2  0
 29 30  1  0
 31 30  2  0
 32 31  1  0
 33 32  2  0
 33 28  1  0
 34 35  1  0
 34 23  1  0
 36 34  2  0
M  END
$$$$
