HFW.pdb
     RDKit          3D

 36 39  0  0  1  0  0  0  0  0999 V2000
   31.5242  -32.2484  -17.1154 N   0  0  0  0  0  0  0  0  0  0  0  0
   31.1665  -31.1883  -18.0760 C   0  0  1  0  0  0  0  0  0  0  0  0
   31.7501  -31.5777  -19.4071 C   0  0  0  0  0  0  0  0  0  0  0  0
   33.1845  -31.3232  -19.5066 C   0  0  0  0  0  0  0  0  0  0  0  0
   33.7703  -30.2127  -18.8766 C   0  0  0  0  0  0  0  0  0  0  0  0
   35.0743  -30.2792  -19.1661 N   0  0  0  0  0  0  0  0  0  0  0  0
   35.3306  -31.3608  -19.9351 C   0  0  0  0  0  0  0  0  0  0  0  0
   34.1686  -31.9825  -20.1312 N   0  0  0  0  0  0  0  0  0  0  0  0
   29.6730  -31.1380  -18.1882 C   0  0  0  0  0  0  0  0  0  0  0  0
   28.9604  -32.0967  -18.5504 O   0  0  0  0  0  0  0  0  0  0  0  0
   28.9829  -29.9259  -17.8661 N   0  0  0  0  0  0  0  0  0  0  0  0
   27.5411  -29.8548  -18.0012 C   0  0  1  0  0  0  0  0  0  0  0  0
   26.8675  -29.5879  -16.6768 C   0  0  0  0  0  0  0  0  0  0  0  0
   26.8313  -30.7846  -15.7985 C   0  0  0  0  0  0  0  0  0  0  0  0
   27.9266  -31.0848  -15.0132 C   0  0  0  0  0  0  0  0  0  0  0  0
   27.8481  -32.2087  -14.2075 C   0  0  0  0  0  0  0  0  0  0  0  0
   26.7187  -33.0162  -14.1767 C   0  0  0  0  0  0  0  0  0  0  0  0
   25.6384  -32.7178  -14.9531 C   0  0  0  0  0  0  0  0  0  0  0  0
   25.7110  -31.5880  -15.7662 C   0  0  0  0  0  0  0  0  0  0  0  0
   27.1373  -28.7493  -18.9166 C   0  0  0  0  0  0  0  0  0  0  0  0
   27.7434  -27.6477  -18.9650 O   0  0  0  0  0  0  0  0  0  0  0  0
   26.0150  -28.9850  -19.7570 N   0  0  0  0  0  0  0  0  0  0  0  0
   25.5755  -28.0267  -20.7559 C   0  0  1  0  0  0  0  0  0  0  0  0
   24.8233  -28.8564  -21.8058 C   0  0  0  0  0  0  0  0  0  0  0  0
   23.5325  -29.3314  -21.2936 C   0  0  0  0  0  0  0  0  0  0  0  0
   22.3669  -28.5900  -21.1219 C   0  0  0  0  0  0  0  0  0  0  0  0
   21.4094  -29.3961  -20.6280 N   0  0  0  0  0  0  0  0  0  0  0  0
   21.9429  -30.6323  -20.4829 C   0  0  0  0  0  0  0  0  0  0  0  0
   21.3949  -31.8115  -20.0220 C   0  0  0  0  0  0  0  0  0  0  0  0
   22.1837  -32.9518  -19.9797 C   0  0  0  0  0  0  0  0  0  0  0  0
   23.4864  -32.9324  -20.3830 C   0  0  0  0  0  0  0  0  0  0  0  0
   24.0512  -31.7516  -20.8495 C   0  0  0  0  0  0  0  0  0  0  0  0
   23.2667  -30.6173  -20.8916 C   0  0  0  0  0  0  0  0  0  0  0  0
   24.6526  -27.0657  -20.1126 C   0  0  0  0  0  0  0  0  0  0  0  0
   24.2464  -25.8877  -20.7400 O   0  0  0  0  0  0  0  0  0  0  0  0
   24.2045  -27.2866  -18.9714 O   0  0  0  0  0  0  0  0  0  0  0  0
  2  1  1  1
  3  2  1  0
  4  5  2  0
  4  3  1  0
  6  5  1  0
  7  8  2  0
  7  6  1  0
  8  4  1  0
  9  2  1  0
 10  9  2  0
 11  9  1  0
 12 11  1  0
 12 13  1  1
 13 14  1  0
 14 15  2  0
 15 16  1  0
 17 16  2  0
 18 17  1  0
 19 14  1  0
 19 18  2  0
 20 21  2  0
 20 12  1  0
 22 20  1  0
 23 22  1  0
 23 24  1  6
 24 25  1  0
 25 26  2  0
 25 33  1  0
 26 27  1  0
 27 28  1  0
 28 29  2  0
 29 30  1  0
 31 30  2  0
 32 31  1  0
 33 32  2  0
 33 28  1  0
 34 35  1  0
 34 23  1  0
 36 34  2  0
M  END
$$$$
