HFW.pdb
     RDKit          3D

 36 39  0  0  1  0  0  0  0  0999 V2000
   28.1605  -22.4268  -16.7074 N   0  0  0  0  0  0  0  0  0  0  0  0
   28.0396  -21.1177  -16.0395 C   0  0  1  0  0  0  0  0  0  0  0  0
   26.9508  -20.3561  -16.7454 C   0  0  0  0  0  0  0  0  0  0  0  0
   27.3374  -19.8931  -18.0752 C   0  0  0  0  0  0  0  0  0  0  0  0
   26.7461  -20.4293  -19.2311 C   0  0  0  0  0  0  0  0  0  0  0  0
   27.3197  -19.7938  -20.2585 N   0  0  0  0  0  0  0  0  0  0  0  0
   28.2279  -18.8988  -19.8099 C   0  0  0  0  0  0  0  0  0  0  0  0
   28.2239  -18.9745  -18.4797 N   0  0  0  0  0  0  0  0  0  0  0  0
   27.6349  -21.3505  -14.6155 C   0  0  0  0  0  0  0  0  0  0  0  0
   26.7444  -22.1484  -14.2570 O   0  0  0  0  0  0  0  0  0  0  0  0
   28.2920  -20.6275  -13.5692 N   0  0  0  0  0  0  0  0  0  0  0  0
   27.8458  -20.7721  -12.1973 C   0  0  1  0  0  0  0  0  0  0  0  0
   28.9011  -20.3232  -11.2155 C   0  0  0  0  0  0  0  0  0  0  0  0
   28.3960  -20.2516   -9.8211 C   0  0  0  0  0  0  0  0  0  0  0  0
   27.8399  -19.0753   -9.3589 C   0  0  0  0  0  0  0  0  0  0  0  0
   27.3795  -19.0545   -8.0528 C   0  0  0  0  0  0  0  0  0  0  0  0
   27.4649  -20.1649   -7.2233 C   0  0  0  0  0  0  0  0  0  0  0  0
   28.0144  -21.3254   -7.6818 C   0  0  0  0  0  0  0  0  0  0  0  0
   28.4797  -21.3529   -8.9954 C   0  0  0  0  0  0  0  0  0  0  0  0
   26.6349  -19.9436  -11.9320 C   0  0  0  0  0  0  0  0  0  0  0  0
   26.5799  -18.7134  -12.1903 O   0  0  0  0  0  0  0  0  0  0  0  0
   25.5128  -20.6052  -11.3626 N   0  0  0  0  0  0  0  0  0  0  0  0
   24.3551  -19.8844  -10.8629 C   0  0  1  0  0  0  0  0  0  0  0  0
   23.6514  -19.3376  -12.1129 C   0  0  0  0  0  0  0  0  0  0  0  0
   23.0617  -20.4164  -12.9147 C   0  0  0  0  0  0  0  0  0  0  0  0
   22.2161  -21.4308  -12.4749 C   0  0  0  0  0  0  0  0  0  0  0  0
   21.9009  -22.2163  -13.5210 N   0  0  0  0  0  0  0  0  0  0  0  0
   22.5286  -21.7216  -14.6142 C   0  0  0  0  0  0  0  0  0  0  0  0
   22.5402  -22.1462  -15.9267 C   0  0  0  0  0  0  0  0  0  0  0  0
   23.2833  -21.4376  -16.8594 C   0  0  0  0  0  0  0  0  0  0  0  0
   24.0011  -20.3325  -16.5076 C   0  0  0  0  0  0  0  0  0  0  0  0
   23.9982  -19.8937  -15.1892 C   0  0  0  0  0  0  0  0  0  0  0  0
   23.2592  -20.5985  -14.2614 C   0  0  0  0  0  0  0  0  0  0  0  0
   23.4713  -20.8413  -10.1611 C   0  0  0  0  0  0  0  0  0  0  0  0
   22.2932  -20.4427   -9.5293 O   0  0  0  0  0  0  0  0  0  0  0  0
   23.7608  -22.0520  -10.1146 O   0  0  0  0  0  0  0  0  0  0  0  0
  2  1  1  6
  3  2  1  0
  4  5  2  0
  4  3  1  0
  6  5  1  0
  7  8  2  0
  7  6  1  0
  8  4  1  0
  9  2  1  0
 10  9  2  0
 11  9  1  0
 12 11  1  0
 12 13  1  1
 13 14  1  0
 14 15  2  0
 15 16  1  0
 17 16  2  0
 18 17  1  0
 19 14  1  0
 19 18  2  0
 20 21  2  0
 20 12  1  0
 22 20  1  0
 23 22  1  0
 23 24  1  6
 24 25  1  0
 25 26  2  0
 25 33  1  0
 26 27  1  0
 27 28  1  0
 28 29  2  0
 29 30  1  0
 31 30  2  0
 32 31  1  0
 33 32  2  0
 33 28  1  0
 34 35  1  0
 34 23  1  0
 36 34  2  0
M  END
$$$$
