HFW.pdb
     RDKit          3D

 36 39  0  0  1  0  0  0  0  0999 V2000
   26.3171  -22.4364  -16.1028 N   0  0  0  0  0  0  0  0  0  0  0  0
   26.2220  -21.1281  -15.4292 C   0  0  1  0  0  0  0  0  0  0  0  0
   25.0039  -20.4335  -15.9748 C   0  0  0  0  0  0  0  0  0  0  0  0
   25.1489  -20.0202  -17.3678 C   0  0  0  0  0  0  0  0  0  0  0  0
   25.9813  -18.9461  -17.7236 C   0  0  0  0  0  0  0  0  0  0  0  0
   25.8839  -18.8382  -19.0530 N   0  0  0  0  0  0  0  0  0  0  0  0
   25.0437  -19.7781  -19.5406 C   0  0  0  0  0  0  0  0  0  0  0  0
   24.6072  -20.4867  -18.5001 N   0  0  0  0  0  0  0  0  0  0  0  0
   26.0379  -21.3659  -13.9611 C   0  0  0  0  0  0  0  0  0  0  0  0
   25.2060  -22.1589  -13.4742 O   0  0  0  0  0  0  0  0  0  0  0  0
   26.8534  -20.6538  -13.0246 N   0  0  0  0  0  0  0  0  0  0  0  0
   26.6303  -20.8137  -11.6009 C   0  0  1  0  0  0  0  0  0  0  0  0
   27.8422  -20.4107  -10.7960 C   0  0  0  0  0  0  0  0  0  0  0  0
   27.5716  -20.3568   -9.3370 C   0  0  0  0  0  0  0  0  0  0  0  0
   27.1570  -19.1700   -8.7658 C   0  0  0  0  0  0  0  0  0  0  0  0
   26.9137  -19.1662   -7.4023 C   0  0  0  0  0  0  0  0  0  0  0  0
   27.0749  -20.3033   -6.6216 C   0  0  0  0  0  0  0  0  0  0  0  0
   27.4845  -21.4740   -7.1877 C   0  0  0  0  0  0  0  0  0  0  0  0
   27.7311  -21.4846   -8.5596 C   0  0  0  0  0  0  0  0  0  0  0  0
   25.5017  -19.9602  -11.1308 C   0  0  0  0  0  0  0  0  0  0  0  0
   25.4024  -18.7399  -11.4209 O   0  0  0  0  0  0  0  0  0  0  0  0
   24.5134  -20.5854  -10.3224 N   0  0  0  0  0  0  0  0  0  0  0  0
   23.1559  -20.0790  -10.2213 C   0  0  1  0  0  0  0  0  0  0  0  0
   22.5660  -20.2252  -11.6309 C   0  0  0  0  0  0  0  0  0  0  0  0
   21.1865  -19.7279  -11.6922 C   0  0  0  0  0  0  0  0  0  0  0  0
   20.6894  -18.5462  -11.1499 C   0  0  0  0  0  0  0  0  0  0  0  0
   19.3751  -18.4618  -11.4261 N   0  0  0  0  0  0  0  0  0  0  0  0
   19.0286  -19.5645  -12.1316 C   0  0  0  0  0  0  0  0  0  0  0  0
   17.8174  -19.9656  -12.6563 C   0  0  0  0  0  0  0  0  0  0  0  0
   17.7454  -21.1650  -13.3495 C   0  0  0  0  0  0  0  0  0  0  0  0
   18.8439  -21.9546  -13.5231 C   0  0  0  0  0  0  0  0  0  0  0  0
   20.0701  -21.5628  -13.0000 C   0  0  0  0  0  0  0  0  0  0  0  0
   20.1418  -20.3699  -12.3105 C   0  0  0  0  0  0  0  0  0  0  0  0
   22.4069  -20.9265   -9.2676 C   0  0  0  0  0  0  0  0  0  0  0  0
   21.2992  -20.4556   -8.5622 O   0  0  0  0  0  0  0  0  0  0  0  0
   22.7514  -22.1064   -9.0648 O   0  0  0  0  0  0  0  0  0  0  0  0
  2  1  1  6
  3  2  1  0
  4  5  2  0
  4  3  1  0
  6  5  1  0
  7  8  2  0
  7  6  1  0
  8  4  1  0
  9  2  1  0
 10  9  2  0
 11  9  1  0
 12 11  1  0
 12 13  1  1
 13 14  1  0
 14 15  2  0
 15 16  1  0
 17 16  2  0
 18 17  1  0
 19 14  1  0
 19 18  2  0
 20 21  2  0
 20 12  1  0
 22 20  1  0
 23 22  1  0
 23 24  1  6
 24 25  1  0
 25 26  2  0
 25 33  1  0
 26 27  1  0
 27 28  1  0
 28 29  2  0
 29 30  1  0
 31 30  2  0
 32 31  1  0
 33 32  2  0
 33 28  1  0
 34 35  1  0
 34 23  1  0
 36 34  2  0
M  END
$$$$
