HFW.pdb
     RDKit          3D

 36 39  0  0  1  0  0  0  0  0999 V2000
   26.9639  -20.7652  -18.7176 N   0  0  0  0  0  0  0  0  0  0  0  0
   26.5269  -19.7360  -17.7562 C   0  0  1  0  0  0  0  0  0  0  0  0
   25.3268  -19.0511  -18.3515 C   0  0  0  0  0  0  0  0  0  0  0  0
   25.6520  -18.2056  -19.4967 C   0  0  0  0  0  0  0  0  0  0  0  0
   25.9459  -16.8419  -19.3323 C   0  0  0  0  0  0  0  0  0  0  0  0
   26.1935  -16.3748  -20.5608 N   0  0  0  0  0  0  0  0  0  0  0  0
   26.0711  -17.3643  -21.4734 C   0  0  0  0  0  0  0  0  0  0  0  0
   25.7413  -18.4696  -20.8065 N   0  0  0  0  0  0  0  0  0  0  0  0
   26.1245  -20.4191  -16.4845 C   0  0  0  0  0  0  0  0  0  0  0  0
   25.2951  -21.3493  -16.4158 O   0  0  0  0  0  0  0  0  0  0  0  0
   26.7102  -20.0038  -15.2461 N   0  0  0  0  0  0  0  0  0  0  0  0
   26.1558  -20.4694  -13.9899 C   0  0  1  0  0  0  0  0  0  0  0  0
   27.0922  -20.2097  -12.8346 C   0  0  0  0  0  0  0  0  0  0  0  0
   26.5006  -20.5727  -11.5220 C   0  0  0  0  0  0  0  0  0  0  0  0
   26.1097  -19.5736  -10.6528 C   0  0  0  0  0  0  0  0  0  0  0  0
   25.5605  -19.9578   -9.4408 C   0  0  0  0  0  0  0  0  0  0  0  0
   25.4005  -21.2931   -9.0942 C   0  0  0  0  0  0  0  0  0  0  0  0
   25.7873  -22.2780   -9.9540 C   0  0  0  0  0  0  0  0  0  0  0  0
   26.3407  -21.8979  -11.1756 C   0  0  0  0  0  0  0  0  0  0  0  0
   24.8782  -19.7703  -13.6701 C   0  0  0  0  0  0  0  0  0  0  0  0
   24.8012  -18.5231  -13.5233 O   0  0  0  0  0  0  0  0  0  0  0  0
   23.7171  -20.5792  -13.5329 N   0  0  0  0  0  0  0  0  0  0  0  0
   22.5175  -20.1114  -12.8610 C   0  0  1  0  0  0  0  0  0  0  0  0
   21.8592  -19.1356  -13.8464 C   0  0  0  0  0  0  0  0  0  0  0  0
   21.6295  -19.7625  -15.1534 C   0  0  0  0  0  0  0  0  0  0  0  0
   21.1342  -21.0393  -15.4030 C   0  0  0  0  0  0  0  0  0  0  0  0
   21.0765  -21.2292  -16.7338 N   0  0  0  0  0  0  0  0  0  0  0  0
   21.5244  -20.1006  -17.3332 C   0  0  0  0  0  0  0  0  0  0  0  0
   21.6678  -19.7733  -18.6656 C   0  0  0  0  0  0  0  0  0  0  0  0
   22.1599  -18.5214  -19.0046 C   0  0  0  0  0  0  0  0  0  0  0  0
   22.5043  -17.6091  -18.0510 C   0  0  0  0  0  0  0  0  0  0  0  0
   22.3649  -17.9254  -16.7052 C   0  0  0  0  0  0  0  0  0  0  0  0
   21.8755  -19.1706  -16.3679 C   0  0  0  0  0  0  0  0  0  0  0  0
   21.6282  -21.2700  -12.6242 C   0  0  0  0  0  0  0  0  0  0  0  0
   21.9592  -22.5608  -13.0371 O   0  0  0  0  0  0  0  0  0  0  0  0
   20.5388  -21.1214  -12.0383 O   0  0  0  0  0  0  0  0  0  0  0  0
  2  1  1  6
  3  2  1  0
  4  5  2  0
  4  3  1  0
  6  5  1  0
  7  8  2  0
  7  6  1  0
  8  4  1  0
  9  2  1  0
 10  9  2  0
 11  9  1  0
 12 11  1  0
 12 13  1  1
 13 14  1  0
 14 15  2  0
 15 16  1  0
 17 16  2  0
 18 17  1  0
 19 14  1  0
 19 18  2  0
 20 21  2  0
 20 12  1  0
 22 20  1  0
 23 22  1  0
 23 24  1  6
 24 25  1  0
 25 26  2  0
 25 33  1  0
 26 27  1  0
 27 28  1  0
 28 29  2  0
 29 30  1  0
 31 30  2  0
 32 31  1  0
 33 32  2  0
 33 28  1  0
 34 35  1  0
 34 23  1  0
 36 34  2  0
M  END
$$$$
