HFW.pdb
     RDKit          3D

 36 39  0  0  1  0  0  0  0  0999 V2000
   25.5641  -24.4297  -19.3419 N   0  0  0  0  0  0  0  0  0  0  0  0
   24.6988  -23.6473  -18.4399 C   0  0  1  0  0  0  0  0  0  0  0  0
   23.5222  -24.5160  -18.0866 C   0  0  0  0  0  0  0  0  0  0  0  0
   22.4830  -24.5276  -19.1123 C   0  0  0  0  0  0  0  0  0  0  0  0
   22.2516  -25.6683  -19.8987 C   0  0  0  0  0  0  0  0  0  0  0  0
   21.2498  -25.3423  -20.7225 N   0  0  0  0  0  0  0  0  0  0  0  0
   20.8479  -24.0721  -20.4943 C   0  0  0  0  0  0  0  0  0  0  0  0
   21.6101  -23.5938  -19.5117 N   0  0  0  0  0  0  0  0  0  0  0  0
   25.4735  -23.3364  -17.1954 C   0  0  0  0  0  0  0  0  0  0  0  0
   26.1324  -24.1752  -16.5471 O   0  0  0  0  0  0  0  0  0  0  0  0
   25.4819  -21.9984  -16.6866 N   0  0  0  0  0  0  0  0  0  0  0  0
   26.2847  -21.6696  -15.5249 C   0  0  1  0  0  0  0  0  0  0  0  0
   27.1590  -20.4640  -15.7721 C   0  0  0  0  0  0  0  0  0  0  0  0
   27.9938  -20.1083  -14.5967 C   0  0  0  0  0  0  0  0  0  0  0  0
   29.0476  -20.9256  -14.2390 C   0  0  0  0  0  0  0  0  0  0  0  0
   29.8010  -20.5540  -13.1378 C   0  0  0  0  0  0  0  0  0  0  0  0
   29.5227  -19.4059  -12.4076 C   0  0  0  0  0  0  0  0  0  0  0  0
   28.4815  -18.6005  -12.7627 C   0  0  0  0  0  0  0  0  0  0  0  0
   27.7194  -18.9689  -13.8701 C   0  0  0  0  0  0  0  0  0  0  0  0
   25.4273  -21.3422  -14.3498 C   0  0  0  0  0  0  0  0  0  0  0  0
   24.4639  -20.5352  -14.4118 O   0  0  0  0  0  0  0  0  0  0  0  0
   25.7405  -21.9884  -13.1228 N   0  0  0  0  0  0  0  0  0  0  0  0
   25.1977  -21.5473  -11.8500 C   0  0  1  0  0  0  0  0  0  0  0  0
   26.2614  -21.9205  -10.8080 C   0  0  0  0  0  0  0  0  0  0  0  0
   26.1197  -21.1234   -9.5838 C   0  0  0  0  0  0  0  0  0  0  0  0
   24.9540  -20.5605   -9.0721 C   0  0  0  0  0  0  0  0  0  0  0  0
   25.2515  -19.9073   -7.9339 N   0  0  0  0  0  0  0  0  0  0  0  0
   26.5806  -20.0440   -7.7133 C   0  0  0  0  0  0  0  0  0  0  0  0
   27.3874  -19.5741   -6.6977 C   0  0  0  0  0  0  0  0  0  0  0  0
   28.7426  -19.8696   -6.7199 C   0  0  0  0  0  0  0  0  0  0  0  0
   29.2934  -20.6131   -7.7220 C   0  0  0  0  0  0  0  0  0  0  0  0
   28.4924  -21.0928   -8.7511 C   0  0  0  0  0  0  0  0  0  0  0  0
   27.1444  -20.7989   -8.7291 C   0  0  0  0  0  0  0  0  0  0  0  0
   25.0254  -20.0785  -11.8951 C   0  0  0  0  0  0  0  0  0  0  0  0
   23.8698  -19.4487  -11.4322 O   0  0  0  0  0  0  0  0  0  0  0  0
   25.9248  -19.3503  -12.3564 O   0  0  0  0  0  0  0  0  0  0  0  0
  2  1  1  6
  3  2  1  0
  4  5  2  0
  4  3  1  0
  6  5  1  0
  7  8  2  0
  7  6  1  0
  8  4  1  0
  9  2  1  0
 10  9  2  0
 11  9  1  0
 12 11  1  0
 12 13  1  6
 13 14  1  0
 14 15  2  0
 15 16  1  0
 17 16  2  0
 18 17  1  0
 19 14  1  0
 19 18  2  0
 20 21  2  0
 20 12  1  0
 22 20  1  0
 23 22  1  0
 23 24  1  1
 24 25  1  0
 25 26  2  0
 25 33  1  0
 26 27  1  0
 27 28  1  0
 28 29  2  0
 29 30  1  0
 31 30  2  0
 32 31  1  0
 33 32  2  0
 33 28  1  0
 34 35  1  0
 34 23  1  0
 36 34  2  0
M  END
$$$$
