HFW.pdb
     RDKit          3D

 36 39  0  0  1  0  0  0  0  0999 V2000
   20.9998  -11.7072  -20.2588 N   0  0  0  0  0  0  0  0  0  0  0  0
   21.1550  -10.2411  -20.2269 C   0  0  1  0  0  0  0  0  0  0  0  0
   20.1442   -9.6652  -21.1811 C   0  0  0  0  0  0  0  0  0  0  0  0
   20.4927   -9.8673  -22.5846 C   0  0  0  0  0  0  0  0  0  0  0  0
   19.6612  -10.6094  -23.4397 C   0  0  0  0  0  0  0  0  0  0  0  0
   20.2667  -10.5980  -24.6321 N   0  0  0  0  0  0  0  0  0  0  0  0
   21.4197   -9.8956  -24.5672 C   0  0  0  0  0  0  0  0  0  0  0  0
   21.5392   -9.4595  -23.3139 N   0  0  0  0  0  0  0  0  0  0  0  0
   20.8503   -9.7648  -18.8391 C   0  0  0  0  0  0  0  0  0  0  0  0
   19.9088  -10.1900  -18.1386 O   0  0  0  0  0  0  0  0  0  0  0  0
   21.6731   -8.7557  -18.2442 N   0  0  0  0  0  0  0  0  0  0  0  0
   21.3544   -8.2452  -16.9252 C   0  0  1  0  0  0  0  0  0  0  0  0
   22.5582   -8.2585  -16.0142 C   0  0  0  0  0  0  0  0  0  0  0  0
   22.2180   -7.9290  -14.6069 C   0  0  0  0  0  0  0  0  0  0  0  0
   21.9468   -8.9488  -13.7164 C   0  0  0  0  0  0  0  0  0  0  0  0
   21.6369   -8.5958  -12.4135 C   0  0  0  0  0  0  0  0  0  0  0  0
   21.5953   -7.2710  -11.9988 C   0  0  0  0  0  0  0  0  0  0  0  0
   21.8634   -6.2657  -12.8799 C   0  0  0  0  0  0  0  0  0  0  0  0
   22.1761   -6.6144  -14.1927 C   0  0  0  0  0  0  0  0  0  0  0  0
   20.8838   -6.8319  -16.9912 C   0  0  0  0  0  0  0  0  0  0  0  0
   21.5558   -5.9134  -17.5276 O   0  0  0  0  0  0  0  0  0  0  0  0
   19.6165   -6.5464  -16.4134 N   0  0  0  0  0  0  0  0  0  0  0  0
   19.0773   -5.1996  -16.3462 C   0  0  1  0  0  0  0  0  0  0  0  0
   17.5654   -5.3606  -16.5572 C   0  0  0  0  0  0  0  0  0  0  0  0
   17.1963   -5.1857  -17.9670 C   0  0  0  0  0  0  0  0  0  0  0  0
   17.4203   -6.0733  -19.0156 C   0  0  0  0  0  0  0  0  0  0  0  0
   16.9313   -5.5374  -20.1489 N   0  0  0  0  0  0  0  0  0  0  0  0
   16.4022   -4.3294  -19.8412 C   0  0  0  0  0  0  0  0  0  0  0  0
   15.7805   -3.3815  -20.6273 C   0  0  0  0  0  0  0  0  0  0  0  0
   15.3246   -2.2103  -20.0400 C   0  0  0  0  0  0  0  0  0  0  0  0
   15.4776   -1.9763  -18.7050 C   0  0  0  0  0  0  0  0  0  0  0  0
   16.1020   -2.9225  -17.9015 C   0  0  0  0  0  0  0  0  0  0  0  0
   16.5554   -4.0874  -18.4856 C   0  0  0  0  0  0  0  0  0  0  0  0
   19.3457   -4.6515  -14.9984 C   0  0  0  0  0  0  0  0  0  0  0  0
   19.3417   -5.4499  -13.8544 O   0  0  0  0  0  0  0  0  0  0  0  0
   19.5873   -3.4389  -14.8456 O   0  0  0  0  0  0  0  0  0  0  0  0
  2  1  1  1
  3  2  1  0
  4  5  2  0
  4  3  1  0
  6  5  1  0
  7  8  2  0
  7  6  1  0
  8  4  1  0
  9  2  1  0
 10  9  2  0
 11  9  1  0
 12 11  1  0
 12 13  1  1
 13 14  1  0
 14 15  2  0
 15 16  1  0
 17 16  2  0
 18 17  1  0
 19 14  1  0
 19 18  2  0
 20 21  2  0
 20 12  1  0
 22 20  1  0
 23 22  1  0
 23 24  1  1
 24 25  1  0
 25 26  2  0
 25 33  1  0
 26 27  1  0
 27 28  1  0
 28 29  2  0
 29 30  1  0
 31 30  2  0
 32 31  1  0
 33 32  2  0
 33 28  1  0
 34 35  1  0
 34 23  1  0
 36 34  2  0
M  END
$$$$
