HFW.pdb
     RDKit          3D

 36 39  0  0  1  0  0  0  0  0999 V2000
   28.5472  -21.1374  -15.6518 N   0  0  0  0  0  0  0  0  0  0  0  0
   27.7614  -20.1062  -14.9491 C   0  0  1  0  0  0  0  0  0  0  0  0
   27.1685  -19.2057  -15.9986 C   0  0  0  0  0  0  0  0  0  0  0  0
   28.1649  -18.4030  -16.7021 C   0  0  0  0  0  0  0  0  0  0  0  0
   28.5912  -18.7454  -17.9961 C   0  0  0  0  0  0  0  0  0  0  0  0
   29.4916  -17.8174  -18.3374 N   0  0  0  0  0  0  0  0  0  0  0  0
   29.6481  -16.9233  -17.3358 C   0  0  0  0  0  0  0  0  0  0  0  0
   28.8328  -17.2969  -16.3504 N   0  0  0  0  0  0  0  0  0  0  0  0
   26.6553  -20.7853  -14.2001 C   0  0  0  0  0  0  0  0  0  0  0  0
   26.0378  -21.7891  -14.6113 O   0  0  0  0  0  0  0  0  0  0  0  0
   26.2531  -20.2768  -12.9238 N   0  0  0  0  0  0  0  0  0  0  0  0
   25.0826  -20.8203  -12.2630 C   0  0  1  0  0  0  0  0  0  0  0  0
   25.0256  -20.4214  -10.8082 C   0  0  0  0  0  0  0  0  0  0  0  0
   26.3238  -20.6030  -10.1107 C   0  0  0  0  0  0  0  0  0  0  0  0
   26.9880  -19.4997   -9.6125 C   0  0  0  0  0  0  0  0  0  0  0  0
   28.1942  -19.7159   -8.9671 C   0  0  0  0  0  0  0  0  0  0  0  0
   28.7321  -20.9874   -8.8164 C   0  0  0  0  0  0  0  0  0  0  0  0
   28.0745  -22.0753   -9.3092 C   0  0  0  0  0  0  0  0  0  0  0  0
   26.8599  -21.8645   -9.9599 C   0  0  0  0  0  0  0  0  0  0  0  0
   23.8259  -20.3225  -12.8924 C   0  0  0  0  0  0  0  0  0  0  0  0
   23.6443  -19.1134  -13.1897 O   0  0  0  0  0  0  0  0  0  0  0  0
   22.8110  -21.2831  -13.1539 N   0  0  0  0  0  0  0  0  0  0  0  0
   21.5273  -20.9222  -13.7294 C   0  0  1  0  0  0  0  0  0  0  0  0
   21.3252  -21.8921  -14.9020 C   0  0  0  0  0  0  0  0  0  0  0  0
   20.0864  -21.6022  -15.6339 C   0  0  0  0  0  0  0  0  0  0  0  0
   19.8935  -20.6398  -16.6208 C   0  0  0  0  0  0  0  0  0  0  0  0
   18.6149  -20.6956  -17.0366 N   0  0  0  0  0  0  0  0  0  0  0  0
   17.9934  -21.6726  -16.3344 C   0  0  0  0  0  0  0  0  0  0  0  0
   16.6940  -22.1345  -16.3723 C   0  0  0  0  0  0  0  0  0  0  0  0
   16.3196  -23.1682  -15.5266 C   0  0  0  0  0  0  0  0  0  0  0  0
   17.2064  -23.7367  -14.6601 C   0  0  0  0  0  0  0  0  0  0  0  0
   18.5183  -23.2813  -14.6115 C   0  0  0  0  0  0  0  0  0  0  0  0
   18.8909  -22.2530  -15.4527 C   0  0  0  0  0  0  0  0  0  0  0  0
   20.4772  -21.1345  -12.7089 C   0  0  0  0  0  0  0  0  0  0  0  0
   19.2935  -20.3966  -12.6923 O   0  0  0  0  0  0  0  0  0  0  0  0
   20.6245  -21.9946  -11.8198 O   0  0  0  0  0  0  0  0  0  0  0  0
  2  1  1  6
  3  2  1  0
  4  5  2  0
  4  3  1  0
  6  5  1  0
  7  8  2  0
  7  6  1  0
  8  4  1  0
  9  2  1  0
 10  9  2  0
 11  9  1  0
 12 11  1  0
 12 13  1  1
 13 14  1  0
 14 15  2  0
 15 16  1  0
 17 16  2  0
 18 17  1  0
 19 14  1  0
 19 18  2  0
 20 21  2  0
 20 12  1  0
 22 20  1  0
 23 22  1  0
 23 24  1  6
 24 25  1  0
 25 26  2  0
 25 33  1  0
 26 27  1  0
 27 28  1  0
 28 29  2  0
 29 30  1  0
 31 30  2  0
 32 31  1  0
 33 32  2  0
 33 28  1  0
 34 35  1  0
 34 23  1  0
 36 34  2  0
M  END
$$$$
