HFW.pdb
     RDKit          3D

 36 39  0  0  1  0  0  0  0  0999 V2000
   27.4427  -21.8516  -13.5317 N   0  0  0  0  0  0  0  0  0  0  0  0
   27.5971  -20.6809  -12.6484 C   0  0  1  0  0  0  0  0  0  0  0  0
   26.6178  -19.6383  -13.1151 C   0  0  0  0  0  0  0  0  0  0  0  0
   27.0330  -18.9620  -14.3409 C   0  0  0  0  0  0  0  0  0  0  0  0
   27.7448  -17.7518  -14.2970 C   0  0  0  0  0  0  0  0  0  0  0  0
   27.9613  -17.4135  -15.5727 N   0  0  0  0  0  0  0  0  0  0  0  0
   27.4282  -18.3386  -16.4014 C   0  0  0  0  0  0  0  0  0  0  0  0
   26.8681  -19.2721  -15.6331 N   0  0  0  0  0  0  0  0  0  0  0  0
   27.2480  -21.0951  -11.2512 C   0  0  0  0  0  0  0  0  0  0  0  0
   26.2280  -21.7451  -10.9426 O   0  0  0  0  0  0  0  0  0  0  0  0
   28.1194  -20.7395  -10.1726 N   0  0  0  0  0  0  0  0  0  0  0  0
   27.6630  -20.8610   -8.8018 C   0  0  1  0  0  0  0  0  0  0  0  0
   28.6707  -20.3048   -7.8251 C   0  0  0  0  0  0  0  0  0  0  0  0
   28.1774  -20.3091   -6.4246 C   0  0  0  0  0  0  0  0  0  0  0  0
   27.5816  -19.1747   -5.9102 C   0  0  0  0  0  0  0  0  0  0  0  0
   27.1340  -19.2243   -4.6005 C   0  0  0  0  0  0  0  0  0  0  0  0
   27.2700  -20.3632   -3.8176 C   0  0  0  0  0  0  0  0  0  0  0  0
   27.8587  -21.4822   -4.3277 C   0  0  0  0  0  0  0  0  0  0  0  0
   28.3114  -21.4388   -5.6453 C   0  0  0  0  0  0  0  0  0  0  0  0
   26.3955  -20.1063   -8.5846 C   0  0  0  0  0  0  0  0  0  0  0  0
   26.2768  -18.8818   -8.8484 O   0  0  0  0  0  0  0  0  0  0  0  0
   25.2943  -20.8335   -8.0557 N   0  0  0  0  0  0  0  0  0  0  0  0
   23.9200  -20.3930   -8.2191 C   0  0  1  0  0  0  0  0  0  0  0  0
   23.6533  -20.4586   -9.7294 C   0  0  0  0  0  0  0  0  0  0  0  0
   22.2618  -20.1162  -10.0464 C   0  0  0  0  0  0  0  0  0  0  0  0
   21.3632  -19.4099   -9.2518 C   0  0  0  0  0  0  0  0  0  0  0  0
   20.1914  -19.3108   -9.9058 N   0  0  0  0  0  0  0  0  0  0  0  0
   20.3279  -19.9389  -11.0977 C   0  0  0  0  0  0  0  0  0  0  0  0
   19.4378  -20.1256  -12.1350 C   0  0  0  0  0  0  0  0  0  0  0  0
   19.8506  -20.8201  -13.2626 C   0  0  0  0  0  0  0  0  0  0  0  0
   21.1148  -21.3212  -13.3677 C   0  0  0  0  0  0  0  0  0  0  0  0
   22.0216  -21.1405  -12.3304 C   0  0  0  0  0  0  0  0  0  0  0  0
   21.6111  -20.4498  -11.2088 C   0  0  0  0  0  0  0  0  0  0  0  0
   23.0341  -21.3396   -7.5060 C   0  0  0  0  0  0  0  0  0  0  0  0
   21.8698  -20.9270   -6.8576 O   0  0  0  0  0  0  0  0  0  0  0  0
   23.3091  -22.5539   -7.4647 O   0  0  0  0  0  0  0  0  0  0  0  0
  2  1  1  6
  3  2  1  0
  4  5  2  0
  4  3  1  0
  6  5  1  0
  7  8  2  0
  7  6  1  0
  8  4  1  0
  9  2  1  0
 10  9  2  0
 11  9  1  0
 12 11  1  0
 12 13  1  1
 13 14  1  0
 14 15  2  0
 15 16  1  0
 17 16  2  0
 18 17  1  0
 19 14  1  0
 19 18  2  0
 20 21  2  0
 20 12  1  0
 22 20  1  0
 23 22  1  0
 23 24  1  6
 24 25  1  0
 25 26  2  0
 25 33  1  0
 26 27  1  0
 27 28  1  0
 28 29  2  0
 29 30  1  0
 31 30  2  0
 32 31  1  0
 33 32  2  0
 33 28  1  0
 34 35  1  0
 34 23  1  0
 36 34  2  0
M  END
$$$$
