HFW.pdb
     RDKit          3D

 36 39  0  0  1  0  0  0  0  0999 V2000
   27.4841  -21.5442  -17.8270 N   0  0  0  0  0  0  0  0  0  0  0  0
   26.9224  -22.3638  -16.7374 C   0  0  1  0  0  0  0  0  0  0  0  0
   27.5022  -23.7454  -16.8746 C   0  0  0  0  0  0  0  0  0  0  0  0
   27.0424  -24.4499  -18.0681 C   0  0  0  0  0  0  0  0  0  0  0  0
   25.7010  -24.8426  -18.2079 C   0  0  0  0  0  0  0  0  0  0  0  0
   25.6248  -25.4523  -19.3957 N   0  0  0  0  0  0  0  0  0  0  0  0
   26.8346  -25.4607  -19.9984 C   0  0  0  0  0  0  0  0  0  0  0  0
   27.6833  -24.8465  -19.1750 N   0  0  0  0  0  0  0  0  0  0  0  0
   27.3582  -21.7737  -15.4306 C   0  0  0  0  0  0  0  0  0  0  0  0
   28.5312  -21.7931  -15.0045 O   0  0  0  0  0  0  0  0  0  0  0  0
   26.3919  -21.1365  -14.5884 N   0  0  0  0  0  0  0  0  0  0  0  0
   26.8148  -20.4848  -13.3642 C   0  0  1  0  0  0  0  0  0  0  0  0
   26.5498  -18.9991  -13.4009 C   0  0  0  0  0  0  0  0  0  0  0  0
   27.1531  -18.3363  -14.5847 C   0  0  0  0  0  0  0  0  0  0  0  0
   28.5025  -18.0437  -14.5859 C   0  0  0  0  0  0  0  0  0  0  0  0
   29.0232  -17.4278  -15.7119 C   0  0  0  0  0  0  0  0  0  0  0  0
   28.2338  -17.1084  -16.8090 C   0  0  0  0  0  0  0  0  0  0  0  0
   26.9016  -17.3983  -16.8055 C   0  0  0  0  0  0  0  0  0  0  0  0
   26.3714  -18.0182  -15.6753 C   0  0  0  0  0  0  0  0  0  0  0  0
   26.0790  -21.0213  -12.1835 C   0  0  0  0  0  0  0  0  0  0  0  0
   24.8727  -21.3755  -12.2346 O   0  0  0  0  0  0  0  0  0  0  0  0
   26.8029  -21.1234  -10.9642 N   0  0  0  0  0  0  0  0  0  0  0  0
   26.1903  -21.5872   -9.7317 C   0  0  1  0  0  0  0  0  0  0  0  0
   27.3470  -21.7145   -8.7307 C   0  0  0  0  0  0  0  0  0  0  0  0
   27.5086  -20.4916   -7.9354 C   0  0  0  0  0  0  0  0  0  0  0  0
   26.9764  -19.2334   -8.2025 C   0  0  0  0  0  0  0  0  0  0  0  0
   27.3603  -18.3853   -7.2309 N   0  0  0  0  0  0  0  0  0  0  0  0
   28.1243  -19.0788   -6.3538 C   0  0  0  0  0  0  0  0  0  0  0  0
   28.7599  -18.6879   -5.1935 C   0  0  0  0  0  0  0  0  0  0  0  0
   29.4899  -19.6234   -4.4751 C   0  0  0  0  0  0  0  0  0  0  0  0
   29.5927  -20.9185   -4.8903 C   0  0  0  0  0  0  0  0  0  0  0  0
   28.9577  -21.3259   -6.0572 C   0  0  0  0  0  0  0  0  0  0  0  0
   28.2315  -20.3954   -6.7718 C   0  0  0  0  0  0  0  0  0  0  0  0
   25.2293  -20.5620   -9.2686 C   0  0  0  0  0  0  0  0  0  0  0  0
   24.2098  -20.8513   -8.3614 O   0  0  0  0  0  0  0  0  0  0  0  0
   25.3060  -19.3900   -9.6841 O   0  0  0  0  0  0  0  0  0  0  0  0
  2  1  1  6
  3  2  1  0
  4  5  2  0
  4  3  1  0
  6  5  1  0
  7  8  2  0
  7  6  1  0
  8  4  1  0
  9  2  1  0
 10  9  2  0
 11  9  1  0
 12 11  1  0
 12 13  1  6
 13 14  1  0
 14 15  2  0
 15 16  1  0
 17 16  2  0
 18 17  1  0
 19 14  1  0
 19 18  2  0
 20 21  2  0
 20 12  1  0
 22 20  1  0
 23 22  1  0
 23 24  1  1
 24 25  1  0
 25 26  2  0
 25 33  1  0
 26 27  1  0
 27 28  1  0
 28 29  2  0
 29 30  1  0
 31 30  2  0
 32 31  1  0
 33 32  2  0
 33 28  1  0
 34 35  1  0
 34 23  1  0
 36 34  2  0
M  END
$$$$
