HFW.pdb
     RDKit          3D

 36 39  0  0  1  0  0  0  0  0999 V2000
   35.6939  -22.9103  -19.2316 N   0  0  0  0  0  0  0  0  0  0  0  0
   34.3945  -22.7801  -18.5466 C   0  0  1  0  0  0  0  0  0  0  0  0
   33.4216  -22.2080  -19.5416 C   0  0  0  0  0  0  0  0  0  0  0  0
   33.5918  -20.7740  -19.7582 C   0  0  0  0  0  0  0  0  0  0  0  0
   34.5285  -20.2857  -20.6842 C   0  0  0  0  0  0  0  0  0  0  0  0
   34.4265  -18.9532  -20.6329 N   0  0  0  0  0  0  0  0  0  0  0  0
   33.4858  -18.5880  -19.7336 C   0  0  0  0  0  0  0  0  0  0  0  0
   32.9899  -19.7095  -19.2125 N   0  0  0  0  0  0  0  0  0  0  0  0
   33.9368  -24.1479  -18.1399 C   0  0  0  0  0  0  0  0  0  0  0  0
   34.0120  -25.1612  -18.8650 O   0  0  0  0  0  0  0  0  0  0  0  0
   33.3705  -24.3436  -16.8398 N   0  0  0  0  0  0  0  0  0  0  0  0
   32.9546  -25.6682  -16.4222 C   0  0  1  0  0  0  0  0  0  0  0  0
   33.7689  -26.1678  -15.2533 C   0  0  0  0  0  0  0  0  0  0  0  0
   35.1840  -26.4389  -15.6121 C   0  0  0  0  0  0  0  0  0  0  0  0
   36.1357  -25.4585  -15.4131 C   0  0  0  0  0  0  0  0  0  0  0  0
   37.4434  -25.7557  -15.7595 C   0  0  0  0  0  0  0  0  0  0  0  0
   37.8039  -26.9881  -16.2887 C   0  0  0  0  0  0  0  0  0  0  0  0
   36.8624  -27.9546  -16.4844 C   0  0  0  0  0  0  0  0  0  0  0  0
   35.5444  -27.6618  -16.1378 C   0  0  0  0  0  0  0  0  0  0  0  0
   31.5294  -25.6749  -15.9843 C   0  0  0  0  0  0  0  0  0  0  0  0
   31.1351  -25.1017  -14.9359 O   0  0  0  0  0  0  0  0  0  0  0  0
   30.6037  -26.3679  -16.8113 N   0  0  0  0  0  0  0  0  0  0  0  0
   29.2026  -26.5149  -16.4581 C   0  0  1  0  0  0  0  0  0  0  0  0
   28.4543  -25.5227  -17.3592 C   0  0  0  0  0  0  0  0  0  0  0  0
   27.0033  -25.5926  -17.1495 C   0  0  0  0  0  0  0  0  0  0  0  0
   26.2461  -24.8684  -16.2332 C   0  0  0  0  0  0  0  0  0  0  0  0
   24.9551  -25.2265  -16.3587 N   0  0  0  0  0  0  0  0  0  0  0  0
   24.8778  -26.1620  -17.3347 C   0  0  0  0  0  0  0  0  0  0  0  0
   23.7999  -26.8498  -17.8526 C   0  0  0  0  0  0  0  0  0  0  0  0
   24.0106  -27.7694  -18.8695 C   0  0  0  0  0  0  0  0  0  0  0  0
   25.2579  -28.0078  -19.3674 C   0  0  0  0  0  0  0  0  0  0  0  0
   26.3525  -27.3221  -18.8551 C   0  0  0  0  0  0  0  0  0  0  0  0
   26.1430  -26.4074  -17.8436 C   0  0  0  0  0  0  0  0  0  0  0  0
   28.7814  -27.8989  -16.7684 C   0  0  0  0  0  0  0  0  0  0  0  0
   27.8187  -28.5719  -16.0156 O   0  0  0  0  0  0  0  0  0  0  0  0
   29.2845  -28.5126  -17.7287 O   0  0  0  0  0  0  0  0  0  0  0  0
  2  1  1  6
  3  2  1  0
  4  5  2  0
  4  3  1  0
  6  5  1  0
  7  8  2  0
  7  6  1  0
  8  4  1  0
  9  2  1  0
 10  9  2  0
 11  9  1  0
 12 11  1  0
 12 13  1  1
 13 14  1  0
 14 15  2  0
 15 16  1  0
 17 16  2  0
 18 17  1  0
 19 14  1  0
 19 18  2  0
 20 21  2  0
 20 12  1  0
 22 20  1  0
 23 22  1  0
 23 24  1  6
 24 25  1  0
 25 26  2  0
 25 33  1  0
 26 27  1  0
 27 28  1  0
 28 29  2  0
 29 30  1  0
 31 30  2  0
 32 31  1  0
 33 32  2  0
 33 28  1  0
 34 35  1  0
 34 23  1  0
 36 34  2  0
M  END
$$$$
