HFW.pdb
     RDKit          3D

 36 39  0  0  1  0  0  0  0  0999 V2000
   25.5265  -18.5308  -16.1785 N   0  0  0  0  0  0  0  0  0  0  0  0
   26.5512  -18.8642  -15.1717 C   0  0  1  0  0  0  0  0  0  0  0  0
   27.5333  -17.7247  -15.1413 C   0  0  0  0  0  0  0  0  0  0  0  0
   28.2464  -17.5418  -16.4024 C   0  0  0  0  0  0  0  0  0  0  0  0
   29.2383  -18.4475  -16.8136 C   0  0  0  0  0  0  0  0  0  0  0  0
   29.6794  -17.9906  -17.9906 N   0  0  0  0  0  0  0  0  0  0  0  0
   29.0222  -16.8599  -18.3321 C   0  0  0  0  0  0  0  0  0  0  0  0
   28.1552  -16.6035  -17.3534 N   0  0  0  0  0  0  0  0  0  0  0  0
   25.8814  -18.9737  -13.8356 C   0  0  0  0  0  0  0  0  0  0  0  0
   25.5103  -17.9982  -13.1510 O   0  0  0  0  0  0  0  0  0  0  0  0
   25.6341  -20.2677  -13.2757 N   0  0  0  0  0  0  0  0  0  0  0  0
   24.9181  -20.3897  -12.0208 C   0  0  1  0  0  0  0  0  0  0  0  0
   23.6664  -21.2203  -12.1692 C   0  0  0  0  0  0  0  0  0  0  0  0
   22.6370  -20.5634  -13.0139 C   0  0  0  0  0  0  0  0  0  0  0  0
   22.5390  -20.8981  -14.3499 C   0  0  0  0  0  0  0  0  0  0  0  0
   21.5630  -20.2626  -15.0994 C   0  0  0  0  0  0  0  0  0  0  0  0
   20.7052  -19.3209  -14.5461 C   0  0  0  0  0  0  0  0  0  0  0  0
   20.8038  -18.9919  -13.2267 C   0  0  0  0  0  0  0  0  0  0  0  0
   21.7841  -19.6280  -12.4668 C   0  0  0  0  0  0  0  0  0  0  0  0
   25.7546  -21.0586  -10.9835 C   0  0  0  0  0  0  0  0  0  0  0  0
   26.2344  -22.2120  -11.1335 O   0  0  0  0  0  0  0  0  0  0  0  0
   26.0004  -20.3324   -9.7862 N   0  0  0  0  0  0  0  0  0  0  0  0
   26.7413  -20.8967   -8.6717 C   0  0  1  0  0  0  0  0  0  0  0  0
   27.5681  -19.7328   -8.1078 C   0  0  0  0  0  0  0  0  0  0  0  0
   28.4575  -20.1769   -7.0280 C   0  0  0  0  0  0  0  0  0  0  0  0
   29.3606  -21.2357   -7.0587 C   0  0  0  0  0  0  0  0  0  0  0  0
   29.9810  -21.3109   -5.8670 N   0  0  0  0  0  0  0  0  0  0  0  0
   29.4905  -20.3227   -5.0817 C   0  0  0  0  0  0  0  0  0  0  0  0
   29.7842  -19.9621   -3.7829 C   0  0  0  0  0  0  0  0  0  0  0  0
   29.1186  -18.8866   -3.2134 C   0  0  0  0  0  0  0  0  0  0  0  0
   28.1820  -18.1793   -3.9083 C   0  0  0  0  0  0  0  0  0  0  0  0
   27.8764  -18.5315   -5.2173 C   0  0  0  0  0  0  0  0  0  0  0  0
   28.5384  -19.6014   -5.7838 C   0  0  0  0  0  0  0  0  0  0  0  0
   25.7754  -21.3714   -7.6563 C   0  0  0  0  0  0  0  0  0  0  0  0
   26.0965  -22.3610   -6.7269 O   0  0  0  0  0  0  0  0  0  0  0  0
   24.6273  -20.8909   -7.6026 O   0  0  0  0  0  0  0  0  0  0  0  0
  2  1  1  6
  3  2  1  0
  4  5  2  0
  4  3  1  0
  6  5  1  0
  7  8  2  0
  7  6  1  0
  8  4  1  0
  9  2  1  0
 10  9  2  0
 11  9  1  0
 12 11  1  0
 12 13  1  6
 13 14  1  0
 14 15  2  0
 15 16  1  0
 17 16  2  0
 18 17  1  0
 19 14  1  0
 19 18  2  0
 20 21  2  0
 20 12  1  0
 22 20  1  0
 23 22  1  0
 23 24  1  1
 24 25  1  0
 25 26  2  0
 25 33  1  0
 26 27  1  0
 27 28  1  0
 28 29  2  0
 29 30  1  0
 31 30  2  0
 32 31  1  0
 33 32  2  0
 33 28  1  0
 34 35  1  0
 34 23  1  0
 36 34  2  0
M  END
$$$$
