HFW.pdb
     RDKit          3D

 36 39  0  0  1  0  0  0  0  0999 V2000
   20.2263  -21.0469  -11.0432 N   0  0  0  0  0  0  0  0  0  0  0  0
   21.2241  -21.5786  -11.9899 C   0  0  1  0  0  0  0  0  0  0  0  0
   20.5652  -21.6453  -13.3410 C   0  0  0  0  0  0  0  0  0  0  0  0
   19.6330  -22.7611  -13.4755 C   0  0  0  0  0  0  0  0  0  0  0  0
   18.2551  -22.5854  -13.2663 C   0  0  0  0  0  0  0  0  0  0  0  0
   17.7030  -23.7869  -13.4666 N   0  0  0  0  0  0  0  0  0  0  0  0
   18.6531  -24.6935  -13.7863 C   0  0  0  0  0  0  0  0  0  0  0  0
   19.8199  -24.0502  -13.7864 N   0  0  0  0  0  0  0  0  0  0  0  0
   22.3750  -20.6207  -12.0494 C   0  0  0  0  0  0  0  0  0  0  0  0
   22.2618  -19.3786  -12.0003 O   0  0  0  0  0  0  0  0  0  0  0  0
   23.7081  -21.1280  -12.1702 N   0  0  0  0  0  0  0  0  0  0  0  0
   24.8324  -20.2129  -12.1957 C   0  0  1  0  0  0  0  0  0  0  0  0
   26.0830  -20.8473  -11.6366 C   0  0  0  0  0  0  0  0  0  0  0  0
   26.1625  -20.7552  -10.1568 C   0  0  0  0  0  0  0  0  0  0  0  0
   25.8431  -19.5663   -9.5315 C   0  0  0  0  0  0  0  0  0  0  0  0
   25.9287  -19.5263   -8.1497 C   0  0  0  0  0  0  0  0  0  0  0  0
   26.3192  -20.6302   -7.4031 C   0  0  0  0  0  0  0  0  0  0  0  0
   26.6341  -21.8032   -8.0227 C   0  0  0  0  0  0  0  0  0  0  0  0
   26.5500  -21.8500   -9.4132 C   0  0  0  0  0  0  0  0  0  0  0  0
   25.1539  -19.7894  -13.5887 C   0  0  0  0  0  0  0  0  0  0  0  0
   24.9633  -20.5297  -14.5880 O   0  0  0  0  0  0  0  0  0  0  0  0
   25.6974  -18.4865  -13.7576 N   0  0  0  0  0  0  0  0  0  0  0  0
   25.9326  -17.9050  -15.0675 C   0  0  1  0  0  0  0  0  0  0  0  0
   26.7634  -16.6415  -14.8034 C   0  0  0  0  0  0  0  0  0  0  0  0
   27.0872  -15.9389  -16.0507 C   0  0  0  0  0  0  0  0  0  0  0  0
   26.3274  -14.9663  -16.6945 C   0  0  0  0  0  0  0  0  0  0  0  0
   26.9752  -14.5770  -17.8078 N   0  0  0  0  0  0  0  0  0  0  0  0
   28.1291  -15.2817  -17.8834 C   0  0  0  0  0  0  0  0  0  0  0  0
   29.1452  -15.2663  -18.8163 C   0  0  0  0  0  0  0  0  0  0  0  0
   30.2336  -16.1088  -18.6438 C   0  0  0  0  0  0  0  0  0  0  0  0
   30.3206  -16.9504  -17.5741 C   0  0  0  0  0  0  0  0  0  0  0  0
   29.3043  -16.9763  -16.6268 C   0  0  0  0  0  0  0  0  0  0  0  0
   28.2217  -16.1383  -16.7983 C   0  0  0  0  0  0  0  0  0  0  0  0
   26.7144  -18.8663  -15.8760 C   0  0  0  0  0  0  0  0  0  0  0  0
   27.6287  -19.7513  -15.3042 O   0  0  0  0  0  0  0  0  0  0  0  0
   26.5748  -18.9124  -17.1131 O   0  0  0  0  0  0  0  0  0  0  0  0
  2  1  1  1
  3  2  1  0
  4  5  2  0
  4  3  1  0
  6  5  1  0
  7  8  2  0
  7  6  1  0
  8  4  1  0
  9  2  1  0
 10  9  2  0
 11  9  1  0
 12 11  1  0
 12 13  1  6
 13 14  1  0
 14 15  2  0
 15 16  1  0
 17 16  2  0
 18 17  1  0
 19 14  1  0
 19 18  2  0
 20 21  2  0
 20 12  1  0
 22 20  1  0
 23 22  1  0
 23 24  1  1
 24 25  1  0
 25 26  2  0
 25 33  1  0
 26 27  1  0
 27 28  1  0
 28 29  2  0
 29 30  1  0
 31 30  2  0
 32 31  1  0
 33 32  2  0
 33 28  1  0
 34 35  1  0
 34 23  1  0
 36 34  2  0
M  END
$$$$
