HFW.pdb
     RDKit          3D

 36 39  0  0  1  0  0  0  0  0999 V2000
   29.3508  -21.1975  -18.9090 N   0  0  0  0  0  0  0  0  0  0  0  0
   27.9834  -21.3131  -18.3691 C   0  0  1  0  0  0  0  0  0  0  0  0
   27.4810  -22.6876  -18.7188 C   0  0  0  0  0  0  0  0  0  0  0  0
   27.0824  -22.8195  -20.1173 C   0  0  0  0  0  0  0  0  0  0  0  0
   27.4712  -23.9323  -20.8813 C   0  0  0  0  0  0  0  0  0  0  0  0
   26.9456  -23.7383  -22.0957 N   0  0  0  0  0  0  0  0  0  0  0  0
   26.2566  -22.5760  -22.1297 C   0  0  0  0  0  0  0  0  0  0  0  0
   26.3518  -22.0321  -20.9170 N   0  0  0  0  0  0  0  0  0  0  0  0
   28.0520  -21.1777  -16.8783 C   0  0  0  0  0  0  0  0  0  0  0  0
   28.8881  -21.7576  -16.1554 O   0  0  0  0  0  0  0  0  0  0  0  0
   27.1120  -20.3348  -16.2036 N   0  0  0  0  0  0  0  0  0  0  0  0
   27.2438  -20.0967  -14.7795 C   0  0  1  0  0  0  0  0  0  0  0  0
   27.0935  -18.6333  -14.4407 C   0  0  0  0  0  0  0  0  0  0  0  0
   27.8289  -17.7474  -15.3784 C   0  0  0  0  0  0  0  0  0  0  0  0
   27.1298  -16.8262  -16.1328 C   0  0  0  0  0  0  0  0  0  0  0  0
   27.8563  -16.0189  -16.9923 C   0  0  0  0  0  0  0  0  0  0  0  0
   29.2370  -16.1170  -17.1053 C   0  0  0  0  0  0  0  0  0  0  0  0
   29.9251  -17.0274  -16.3593 C   0  0  0  0  0  0  0  0  0  0  0  0
   29.1998  -17.8430  -15.4924 C   0  0  0  0  0  0  0  0  0  0  0  0
   26.1938  -20.8236  -14.0099 C   0  0  0  0  0  0  0  0  0  0  0  0
   25.1010  -21.1838  -14.5191 O   0  0  0  0  0  0  0  0  0  0  0  0
   26.4735  -21.1054  -12.6447 N   0  0  0  0  0  0  0  0  0  0  0  0
   25.5781  -21.8896  -11.8124 C   0  0  1  0  0  0  0  0  0  0  0  0
   26.3956  -22.2401  -10.5613 C   0  0  0  0  0  0  0  0  0  0  0  0
   26.4523  -21.1140   -9.6217 C   0  0  0  0  0  0  0  0  0  0  0  0
   25.4303  -20.2224   -9.3084 C   0  0  0  0  0  0  0  0  0  0  0  0
   25.8891  -19.3375   -8.4045 N   0  0  0  0  0  0  0  0  0  0  0  0
   27.1797  -19.6490   -8.1380 C   0  0  0  0  0  0  0  0  0  0  0  0
   28.1006  -19.0660   -7.2923 C   0  0  0  0  0  0  0  0  0  0  0  0
   29.3778  -19.6011   -7.2121 C   0  0  0  0  0  0  0  0  0  0  0  0
   29.7421  -20.6890   -7.9497 C   0  0  0  0  0  0  0  0  0  0  0  0
   28.8247  -21.2863   -8.8055 C   0  0  0  0  0  0  0  0  0  0  0  0
   27.5542  -20.7540   -8.8854 C   0  0  0  0  0  0  0  0  0  0  0  0
   24.4202  -21.0464  -11.4419 C   0  0  0  0  0  0  0  0  0  0  0  0
   23.2302  -21.5867  -10.9538 O   0  0  0  0  0  0  0  0  0  0  0  0
   24.4775  -19.8074  -11.5579 O   0  0  0  0  0  0  0  0  0  0  0  0
  2  1  1  6
  3  2  1  0
  4  5  2  0
  4  3  1  0
  6  5  1  0
  7  8  2  0
  7  6  1  0
  8  4  1  0
  9  2  1  0
 10  9  2  0
 11  9  1  0
 12 11  1  0
 12 13  1  6
 13 14  1  0
 14 15  2  0
 15 16  1  0
 17 16  2  0
 18 17  1  0
 19 14  1  0
 19 18  2  0
 20 21  2  0
 20 12  1  0
 22 20  1  0
 23 22  1  0
 23 24  1  1
 24 25  1  0
 25 26  2  0
 25 33  1  0
 26 27  1  0
 27 28  1  0
 28 29  2  0
 29 30  1  0
 31 30  2  0
 32 31  1  0
 33 32  2  0
 33 28  1  0
 34 35  1  0
 34 23  1  0
 36 34  2  0
M  END
$$$$
