KHN.pdb
     RDKit          3D

 28 28  0  0  1  0  0  0  0  0999 V2000
   21.6388  -11.0364  -16.4125 N   0  0  0  0  0  0  0  0  0  0  0  0
   20.5743  -10.3550  -17.0938 C   0  0  1  0  0  0  0  0  0  0  0  0
   19.3791  -11.2309  -17.2232 C   0  0  0  0  0  0  0  0  0  0  0  0
   19.5864  -12.4385  -18.0367 C   0  0  0  0  0  0  0  0  0  0  0  0
   20.1828  -13.5894  -17.2868 C   0  0  0  0  0  0  0  0  0  0  0  0
   20.3456  -14.7153  -18.3435 C   0  0  0  0  0  0  0  0  0  0  0  0
   20.9864  -15.8119  -17.6743 N   0  0  0  0  0  0  0  0  0  0  0  0
   20.1327   -9.1427  -16.3017 C   0  0  0  0  0  0  0  0  0  0  0  0
   19.1614   -8.4530  -16.7061 O   0  0  0  0  0  0  0  0  0  0  0  0
   20.7929   -8.7590  -15.1010 N   0  0  0  0  0  0  0  0  0  0  0  0
   20.3591   -7.5701  -14.3962 C   0  0  1  0  0  0  0  0  0  0  0  0
   20.2387   -7.8025  -12.9069 C   0  0  0  0  0  0  0  0  0  0  0  0
   19.0093   -8.4994  -12.5275 C   0  0  0  0  0  0  0  0  0  0  0  0
   18.0007   -8.9568  -13.3353 C   0  0  0  0  0  0  0  0  0  0  0  0
   17.0900   -9.5274  -12.5321 N   0  0  0  0  0  0  0  0  0  0  0  0
   17.4875   -9.4458  -11.2523 C   0  0  0  0  0  0  0  0  0  0  0  0
   18.6643   -8.8136  -11.2691 N   0  0  0  0  0  0  0  0  0  0  0  0
   21.2722   -6.4138  -14.7028 C   0  0  0  0  0  0  0  0  0  0  0  0
   22.5185   -6.4979  -14.5376 O   0  0  0  0  0  0  0  0  0  0  0  0
   22.0591   -2.1913  -18.7737 N   0  0  0  0  0  0  0  0  0  0  0  0
   22.2647   -2.5888  -17.4210 C   0  0  0  0  0  0  0  0  0  0  0  0
   23.0882   -1.9483  -16.7632 O   0  0  0  0  0  0  0  0  0  0  0  0
   21.4964   -3.7117  -16.9151 C   0  0  0  0  0  0  0  0  0  0  0  0
   21.6672   -4.0276  -15.4478 C   0  0  2  0  0  0  0  0  0  0  0  0
   20.7663   -5.1820  -15.1904 N   0  0  0  0  0  0  0  0  0  0  0  0
   21.1536   -2.8885  -14.6629 C   0  0  0  0  0  0  0  0  0  0  0  0
   19.9947   -2.8911  -14.2231 O   0  0  0  0  0  0  0  0  0  0  0  0
   21.9690   -1.8052  -14.4125 O   0  0  0  0  0  0  0  0  0  0  0  0
  2  3  1  0
  2  1  1  1
  3  4  1  0
  5  4  1  0
  5  6  1  0
  7  6  1  0
  8  9  2  0
  8  2  1  0
 10  8  1  0
 11 10  1  0
 11 12  1  1
 13 12  1  0
 14 13  2  0
 15 14  1  0
 16 15  1  0
 16 17  2  0
 17 13  1  0
 18 11  1  0
 18 19  2  0
 21 20  1  0
 21 22  2  0
 23 21  1  0
 24 25  1  0
 24 23  1  6
 25 18  1  0
 26 24  1  0
 27 26  2  0
 28 26  1  0
M  END
$$$$
