KHN.pdb
     RDKit          3D

 28 28  0  0  1  0  0  0  0  0999 V2000
   10.0501  -20.4067   -0.2819 N   0  0  0  0  0  0  0  0  0  0  0  0
   11.2451  -19.7194    0.1199 C   0  0  1  0  0  0  0  0  0  0  0  0
   10.9204  -18.5300    0.9517 C   0  0  0  0  0  0  0  0  0  0  0  0
   10.3536  -17.3950    0.2077 C   0  0  0  0  0  0  0  0  0  0  0  0
   10.0764  -16.1867    1.0479 C   0  0  0  0  0  0  0  0  0  0  0  0
    9.5614  -15.1141    0.0504 C   0  0  0  0  0  0  0  0  0  0  0  0
    9.2127  -13.9632    0.8345 N   0  0  0  0  0  0  0  0  0  0  0  0
   12.1073  -20.6200    0.9788 C   0  0  0  0  0  0  0  0  0  0  0  0
   11.5660  -21.4820    1.7182 O   0  0  0  0  0  0  0  0  0  0  0  0
   13.5265  -20.5167    0.9720 N   0  0  0  0  0  0  0  0  0  0  0  0
   14.3165  -21.4865    1.7027 C   0  0  1  0  0  0  0  0  0  0  0  0
   15.5237  -21.9464    0.9169 C   0  0  0  0  0  0  0  0  0  0  0  0
   15.1779  -22.7301   -0.2693 C   0  0  0  0  0  0  0  0  0  0  0  0
   14.5249  -23.9332   -0.3397 C   0  0  0  0  0  0  0  0  0  0  0  0
   14.4402  -24.2523   -1.6401 N   0  0  0  0  0  0  0  0  0  0  0  0
   15.0145  -23.2967   -2.3883 C   0  0  0  0  0  0  0  0  0  0  0  0
   15.4603  -22.3732   -1.5320 N   0  0  0  0  0  0  0  0  0  0  0  0
   14.7090  -20.9390    3.0485 C   0  0  0  0  0  0  0  0  0  0  0  0
   15.1221  -19.7562    3.1825 O   0  0  0  0  0  0  0  0  0  0  0  0
   14.7103  -22.5034    8.7564 N   0  0  0  0  0  0  0  0  0  0  0  0
   14.2304  -21.4536    7.9213 C   0  0  0  0  0  0  0  0  0  0  0  0
   14.0378  -20.3555    8.4489 O   0  0  0  0  0  0  0  0  0  0  0  0
   14.0032  -21.7473    6.5180 C   0  0  0  0  0  0  0  0  0  0  0  0
   15.0167  -21.1865    5.5482 C   0  0  2  0  0  0  0  0  0  0  0  0
   14.6296  -21.7330    4.2208 N   0  0  0  0  0  0  0  0  0  0  0  0
   16.3406  -21.7461    5.8823 C   0  0  0  0  0  0  0  0  0  0  0  0
   16.7663  -22.7580    5.3067 O   0  0  0  0  0  0  0  0  0  0  0  0
   17.1181  -21.1395    6.8461 O   0  0  0  0  0  0  0  0  0  0  0  0
  2  3  1  0
  2  1  1  1
  3  4  1  0
  5  4  1  0
  5  6  1  0
  7  6  1  0
  8  9  2  0
  8  2  1  0
 10  8  1  0
 11 10  1  0
 11 12  1  6
 13 12  1  0
 14 13  2  0
 15 14  1  0
 16 15  1  0
 16 17  2  0
 17 13  1  0
 18 11  1  0
 18 19  2  0
 21 20  1  0
 21 22  2  0
 23 21  1  0
 24 25  1  0
 24 23  1  1
 25 18  1  0
 26 24  1  0
 27 26  2  0
 28 26  1  0
M  END
$$$$
