KHN.pdb
     RDKit          3D

 28 28  0  0  1  0  0  0  0  0999 V2000
   20.2636  -11.3976  -18.8680 N   0  0  0  0  0  0  0  0  0  0  0  0
   19.5165  -11.5939  -17.6575 C   0  0  1  0  0  0  0  0  0  0  0  0
   19.9591  -12.8270  -16.9534 C   0  0  0  0  0  0  0  0  0  0  0  0
   20.1666  -13.9928  -17.8256 C   0  0  0  0  0  0  0  0  0  0  0  0
   18.9090  -14.7208  -18.1876 C   0  0  0  0  0  0  0  0  0  0  0  0
   19.3659  -15.8658  -19.1314 C   0  0  0  0  0  0  0  0  0  0  0  0
   18.1734  -16.5418  -19.5581 N   0  0  0  0  0  0  0  0  0  0  0  0
   19.7538  -10.4455  -16.6999 C   0  0  0  0  0  0  0  0  0  0  0  0
   19.2232  -10.4642  -15.5594 O   0  0  0  0  0  0  0  0  0  0  0  0
   20.5687   -9.3355  -17.0585 N   0  0  0  0  0  0  0  0  0  0  0  0
   20.7478   -8.2480  -16.1185 C   0  0  1  0  0  0  0  0  0  0  0  0
   22.1996   -8.0517  -15.7439 C   0  0  0  0  0  0  0  0  0  0  0  0
   22.7167   -9.0994  -14.8631 C   0  0  0  0  0  0  0  0  0  0  0  0
   22.0443  -10.1524  -14.2993 C   0  0  0  0  0  0  0  0  0  0  0  0
   22.9394  -10.8391  -13.5730 N   0  0  0  0  0  0  0  0  0  0  0  0
   24.1468  -10.2581  -13.6589 C   0  0  0  0  0  0  0  0  0  0  0  0
   23.9911   -9.1949  -14.4527 N   0  0  0  0  0  0  0  0  0  0  0  0
   20.1402   -6.9809  -16.6573 C   0  0  0  0  0  0  0  0  0  0  0  0
   20.2903   -6.6394  -17.8608 O   0  0  0  0  0  0  0  0  0  0  0  0
   17.3666   -2.5039  -16.8140 N   0  0  0  0  0  0  0  0  0  0  0  0
   17.1365   -3.1419  -15.5611 C   0  0  0  0  0  0  0  0  0  0  0  0
   16.3468   -2.5965  -14.7863 O   0  0  0  0  0  0  0  0  0  0  0  0
   17.8423   -4.3801  -15.2857 C   0  0  0  0  0  0  0  0  0  0  0  0
   18.7733   -4.8706  -16.3696 C   0  0  2  0  0  0  0  0  0  0  0  0
   19.3735   -6.1200  -15.8316 N   0  0  0  0  0  0  0  0  0  0  0  0
   19.8664   -3.8912  -16.5233 C   0  0  0  0  0  0  0  0  0  0  0  0
   19.9000   -3.1244  -17.4966 O   0  0  0  0  0  0  0  0  0  0  0  0
   20.8653   -3.8240  -15.5753 O   0  0  0  0  0  0  0  0  0  0  0  0
  2  3  1  0
  2  1  1  6
  3  4  1  0
  5  4  1  0
  5  6  1  0
  7  6  1  0
  8  9  2  0
  8  2  1  0
 10  8  1  0
 11 10  1  0
 11 12  1  6
 13 12  1  0
 14 13  2  0
 15 14  1  0
 16 15  1  0
 16 17  2  0
 17 13  1  0
 18 11  1  0
 18 19  2  0
 21 20  1  0
 21 22  2  0
 23 21  1  0
 24 25  1  0
 24 23  1  1
 25 18  1  0
 26 24  1  0
 27 26  2  0
 28 26  1  0
M  END
$$$$
