KHN.pdb
     RDKit          3D

 28 28  0  0  1  0  0  0  0  0999 V2000
   23.6182  -19.0816  -17.8931 N   0  0  0  0  0  0  0  0  0  0  0  0
   24.0805  -18.7411  -16.5770 C   0  0  1  0  0  0  0  0  0  0  0  0
   25.3450  -17.9607  -16.6428 C   0  0  0  0  0  0  0  0  0  0  0  0
   25.6591  -17.4087  -17.9693 C   0  0  0  0  0  0  0  0  0  0  0  0
   26.9209  -16.6036  -18.0166 C   0  0  0  0  0  0  0  0  0  0  0  0
   27.9376  -17.4958  -18.7788 C   0  0  0  0  0  0  0  0  0  0  0  0
   29.1675  -16.7572  -18.8319 N   0  0  0  0  0  0  0  0  0  0  0  0
   23.0694  -17.8595  -15.8752 C   0  0  0  0  0  0  0  0  0  0  0  0
   23.2772  -17.4933  -14.6896 O   0  0  0  0  0  0  0  0  0  0  0  0
   21.8796  -17.4297  -16.5266 N   0  0  0  0  0  0  0  0  0  0  0  0
   20.9089  -16.6426  -15.7941 C   0  0  1  0  0  0  0  0  0  0  0  0
   20.7560  -15.2508  -16.3650 C   0  0  0  0  0  0  0  0  0  0  0  0
   21.8439  -14.3479  -15.9878 C   0  0  0  0  0  0  0  0  0  0  0  0
   22.8999  -14.5849  -15.1467 C   0  0  0  0  0  0  0  0  0  0  0  0
   23.6303  -13.4598  -15.1157 N   0  0  0  0  0  0  0  0  0  0  0  0
   23.0738  -12.5264  -15.9042 C   0  0  0  0  0  0  0  0  0  0  0  0
   21.9814  -13.0880  -16.4296 N   0  0  0  0  0  0  0  0  0  0  0  0
   19.5883  -17.3617  -15.7304 C   0  0  0  0  0  0  0  0  0  0  0  0
   19.2540  -18.2022  -16.6075 O   0  0  0  0  0  0  0  0  0  0  0  0
   17.7964  -20.3560  -13.6572 N   0  0  0  0  0  0  0  0  0  0  0  0
   17.2862  -19.4056  -12.7264 C   0  0  0  0  0  0  0  0  0  0  0  0
   17.0719  -19.7994  -11.5774 O   0  0  0  0  0  0  0  0  0  0  0  0
   17.0558  -18.0500  -13.1918 C   0  0  0  0  0  0  0  0  0  0  0  0
   17.3390  -17.7910  -14.6530 C   0  0  2  0  0  0  0  0  0  0  0  0
   18.6665  -17.1221  -14.6798 N   0  0  0  0  0  0  0  0  0  0  0  0
   16.3489  -16.8185  -15.1544 C   0  0  0  0  0  0  0  0  0  0  0  0
   16.5664  -15.5999  -15.0896 O   0  0  0  0  0  0  0  0  0  0  0  0
   15.1656  -17.2656  -15.7028 O   0  0  0  0  0  0  0  0  0  0  0  0
  2  3  1  0
  2  1  1  6
  3  4  1  0
  5  4  1  0
  5  6  1  0
  7  6  1  0
  8  9  2  0
  8  2  1  0
 10  8  1  0
 11 10  1  0
 11 12  1  6
 13 12  1  0
 14 13  2  0
 15 14  1  0
 16 15  1  0
 16 17  2  0
 17 13  1  0
 18 11  1  0
 18 19  2  0
 21 20  1  0
 21 22  2  0
 23 21  1  0
 24 25  1  0
 24 23  1  1
 25 18  1  0
 26 24  1  0
 27 26  2  0
 28 26  1  0
M  END
$$$$
