KHN.pdb
     RDKit          3D

 28 28  0  0  1  0  0  0  0  0999 V2000
   23.6893  -18.3774  -16.3096 N   0  0  0  0  0  0  0  0  0  0  0  0
   23.4605  -17.6756  -17.5412 C   0  0  1  0  0  0  0  0  0  0  0  0
   23.2297  -18.6273  -18.6607 C   0  0  0  0  0  0  0  0  0  0  0  0
   24.1281  -19.7916  -18.6736 C   0  0  0  0  0  0  0  0  0  0  0  0
   25.5044  -19.4998  -19.1868 C   0  0  0  0  0  0  0  0  0  0  0  0
   26.2222  -20.8763  -19.2147 C   0  0  0  0  0  0  0  0  0  0  0  0
   27.5636  -20.6269  -19.6612 N   0  0  0  0  0  0  0  0  0  0  0  0
   22.2124  -16.8247  -17.4386 C   0  0  0  0  0  0  0  0  0  0  0  0
   21.7090  -16.3273  -18.4787 O   0  0  0  0  0  0  0  0  0  0  0  0
   21.5877  -16.5703  -16.1856 N   0  0  0  0  0  0  0  0  0  0  0  0
   20.3763  -15.7773  -16.1398 C   0  0  1  0  0  0  0  0  0  0  0  0
   19.4345  -16.2380  -15.0502 C   0  0  0  0  0  0  0  0  0  0  0  0
   18.8213  -17.5375  -15.3265 C   0  0  0  0  0  0  0  0  0  0  0  0
   17.8360  -17.8444  -16.2286 C   0  0  0  0  0  0  0  0  0  0  0  0
   17.6072  -19.1618  -16.1188 N   0  0  0  0  0  0  0  0  0  0  0  0
   18.4101  -19.6934  -15.1831 C   0  0  0  0  0  0  0  0  0  0  0  0
   19.1461  -18.6842  -14.7092 N   0  0  0  0  0  0  0  0  0  0  0  0
   20.7086  -14.3160  -16.0013 C   0  0  0  0  0  0  0  0  0  0  0  0
   21.4732  -13.8987  -15.0910 O   0  0  0  0  0  0  0  0  0  0  0  0
   21.4078   -9.5034  -19.5645 N   0  0  0  0  0  0  0  0  0  0  0  0
   21.1402  -10.0126  -18.2611 C   0  0  0  0  0  0  0  0  0  0  0  0
   21.1957   -9.2158  -17.3212 O   0  0  0  0  0  0  0  0  0  0  0  0
   20.8234  -11.4232  -18.1309 C   0  0  0  0  0  0  0  0  0  0  0  0
   20.4909  -11.9047  -16.7382 C   0  0  2  0  0  0  0  0  0  0  0  0
   20.1742  -13.3494  -16.8907 N   0  0  0  0  0  0  0  0  0  0  0  0
   19.2555  -11.2306  -16.2945 C   0  0  0  0  0  0  0  0  0  0  0  0
   18.1574  -11.5289  -16.7861 O   0  0  0  0  0  0  0  0  0  0  0  0
   19.3178  -10.2561  -15.3210 O   0  0  0  0  0  0  0  0  0  0  0  0
  2  3  1  0
  2  1  1  1
  3  4  1  0
  5  4  1  0
  5  6  1  0
  7  6  1  0
  8  9  2  0
  8  2  1  0
 10  8  1  0
 11 10  1  0
 11 12  1  1
 13 12  1  0
 14 13  2  0
 15 14  1  0
 16 15  1  0
 16 17  2  0
 17 13  1  0
 18 11  1  0
 18 19  2  0
 21 20  1  0
 21 22  2  0
 23 21  1  0
 24 25  1  0
 24 23  1  6
 25 18  1  0
 26 24  1  0
 27 26  2  0
 28 26  1  0
M  END
$$$$
