KHN.pdb
     RDKit          3D

 28 28  0  0  1  0  0  0  0  0999 V2000
   23.2660  -11.2786  -20.0631 N   0  0  0  0  0  0  0  0  0  0  0  0
   22.4659  -11.3937  -18.8763 C   0  0  1  0  0  0  0  0  0  0  0  0
   22.5354  -12.7711  -18.3195 C   0  0  0  0  0  0  0  0  0  0  0  0
   22.4804  -13.8443  -19.3236 C   0  0  0  0  0  0  0  0  0  0  0  0
   22.6530  -15.2214  -18.7611 C   0  0  0  0  0  0  0  0  0  0  0  0
   22.7333  -16.1536  -20.0001 C   0  0  0  0  0  0  0  0  0  0  0  0
   22.9167  -17.4853  -19.4963 N   0  0  0  0  0  0  0  0  0  0  0  0
   22.9880  -10.4690  -17.7972 C   0  0  0  0  0  0  0  0  0  0  0  0
   22.4168  -10.4320  -16.6769 O   0  0  0  0  0  0  0  0  0  0  0  0
   24.1181   -9.6330  -18.0182 N   0  0  0  0  0  0  0  0  0  0  0  0
   24.6103   -8.7983  -16.9413 C   0  0  1  0  0  0  0  0  0  0  0  0
   26.1207   -8.7926  -16.8694 C   0  0  0  0  0  0  0  0  0  0  0  0
   26.6876  -10.0912  -16.5045 C   0  0  0  0  0  0  0  0  0  0  0  0
   26.0323  -11.2436  -16.1558 C   0  0  0  0  0  0  0  0  0  0  0  0
   26.9751  -12.1657  -15.9091 N   0  0  0  0  0  0  0  0  0  0  0  0
   28.1961  -11.6371  -16.0892 C   0  0  0  0  0  0  0  0  0  0  0  0
   28.0002  -10.3667  -16.4534 N   0  0  0  0  0  0  0  0  0  0  0  0
   24.0577   -7.4037  -17.0616 C   0  0  0  0  0  0  0  0  0  0  0  0
   24.0556   -6.7895  -18.1618 O   0  0  0  0  0  0  0  0  0  0  0  0
   19.8432   -6.8530  -14.5577 N   0  0  0  0  0  0  0  0  0  0  0  0
   20.5452   -6.0843  -15.5303 C   0  0  0  0  0  0  0  0  0  0  0  0
   20.0889   -6.0709  -16.6762 O   0  0  0  0  0  0  0  0  0  0  0  0
   21.7396   -5.3756  -15.1082 C   0  0  0  0  0  0  0  0  0  0  0  0
   22.8952   -5.3808  -16.0812 C   0  0  2  0  0  0  0  0  0  0  0  0
   23.5166   -6.7242  -15.9407 N   0  0  0  0  0  0  0  0  0  0  0  0
   23.8900   -4.3893  -15.6286 C   0  0  0  0  0  0  0  0  0  0  0  0
   24.9792   -4.7505  -15.1598 O   0  0  0  0  0  0  0  0  0  0  0  0
   23.6096   -3.0428  -15.7263 O   0  0  0  0  0  0  0  0  0  0  0  0
  2  3  1  0
  2  1  1  6
  3  4  1  0
  5  4  1  0
  5  6  1  0
  7  6  1  0
  8  9  2  0
  8  2  1  0
 10  8  1  0
 11 10  1  0
 11 12  1  6
 13 12  1  0
 14 13  2  0
 15 14  1  0
 16 15  1  0
 16 17  2  0
 17 13  1  0
 18 11  1  0
 18 19  2  0
 21 20  1  0
 21 22  2  0
 23 21  1  0
 24 25  1  0
 24 23  1  1
 25 18  1  0
 26 24  1  0
 27 26  2  0
 28 26  1  0
M  END
$$$$
