KHN.pdb
     RDKit          3D

 28 28  0  0  1  0  0  0  0  0999 V2000
   23.1118  -11.8333  -19.5643 N   0  0  0  0  0  0  0  0  0  0  0  0
   21.9589  -11.0891  -19.1416 C   0  0  1  0  0  0  0  0  0  0  0  0
   20.9046  -11.9959  -18.6140 C   0  0  0  0  0  0  0  0  0  0  0  0
   20.8102  -13.2939  -19.2989 C   0  0  0  0  0  0  0  0  0  0  0  0
   19.8428  -14.2502  -18.6725 C   0  0  0  0  0  0  0  0  0  0  0  0
   19.9261  -15.5329  -19.5432 C   0  0  0  0  0  0  0  0  0  0  0  0
   19.1382  -16.5300  -18.8753 N   0  0  0  0  0  0  0  0  0  0  0  0
   22.3228  -10.1517  -18.0098 C   0  0  0  0  0  0  0  0  0  0  0  0
   21.6319  -10.1449  -16.9585 O   0  0  0  0  0  0  0  0  0  0  0  0
   23.4358   -9.2701  -18.1041 N   0  0  0  0  0  0  0  0  0  0  0  0
   23.7473   -8.3922  -16.9947 C   0  0  1  0  0  0  0  0  0  0  0  0
   25.2311   -8.3404  -16.7080 C   0  0  0  0  0  0  0  0  0  0  0  0
   25.7715   -9.6109  -16.2236 C   0  0  0  0  0  0  0  0  0  0  0  0
   25.1059  -10.7807  -15.9641 C   0  0  0  0  0  0  0  0  0  0  0  0
   26.0240  -11.6631  -15.5415 N   0  0  0  0  0  0  0  0  0  0  0  0
   27.2393  -11.0927  -15.5255 C   0  0  0  0  0  0  0  0  0  0  0  0
   27.0652   -9.8368  -15.9462 N   0  0  0  0  0  0  0  0  0  0  0  0
   23.1831   -7.0180  -17.2364 C   0  0  0  0  0  0  0  0  0  0  0  0
   23.2394   -6.4741  -18.3715 O   0  0  0  0  0  0  0  0  0  0  0  0
   19.1004   -3.2215  -16.0330 N   0  0  0  0  0  0  0  0  0  0  0  0
   20.3653   -3.3701  -15.3945 C   0  0  0  0  0  0  0  0  0  0  0  0
   20.8545   -2.3664  -14.8702 O   0  0  0  0  0  0  0  0  0  0  0  0
   20.9856   -4.6824  -15.4052 C   0  0  0  0  0  0  0  0  0  0  0  0
   22.0892   -4.8884  -16.4161 C   0  0  2  0  0  0  0  0  0  0  0  0
   22.5648   -6.2797  -16.1954 N   0  0  0  0  0  0  0  0  0  0  0  0
   23.2061   -3.9855  -16.0773 C   0  0  0  0  0  0  0  0  0  0  0  0
   23.9288   -4.2097  -15.0954 O   0  0  0  0  0  0  0  0  0  0  0  0
   23.4534   -2.8773  -16.8594 O   0  0  0  0  0  0  0  0  0  0  0  0
  2  3  1  0
  2  1  1  1
  3  4  1  0
  5  4  1  0
  5  6  1  0
  7  6  1  0
  8  9  2  0
  8  2  1  0
 10  8  1  0
 11 10  1  0
 11 12  1  6
 13 12  1  0
 14 13  2  0
 15 14  1  0
 16 15  1  0
 16 17  2  0
 17 13  1  0
 18 11  1  0
 18 19  2  0
 21 20  1  0
 21 22  2  0
 23 21  1  0
 24 25  1  0
 24 23  1  1
 25 18  1  0
 26 24  1  0
 27 26  2  0
 28 26  1  0
M  END
$$$$
