KHN.pdb
     RDKit          3D

 28 28  0  0  1  0  0  0  0  0999 V2000
   27.1334  -19.9078  -17.5906 N   0  0  0  0  0  0  0  0  0  0  0  0
   25.7831  -19.5558  -17.9292 C   0  0  1  0  0  0  0  0  0  0  0  0
   25.4093  -20.1015  -19.2614 C   0  0  0  0  0  0  0  0  0  0  0  0
   26.2067  -19.5846  -20.3838 C   0  0  0  0  0  0  0  0  0  0  0  0
   27.1537  -20.5825  -20.9755 C   0  0  0  0  0  0  0  0  0  0  0  0
   27.9012  -19.8105  -22.0962 C   0  0  0  0  0  0  0  0  0  0  0  0
   28.9131  -20.6977  -22.5962 N   0  0  0  0  0  0  0  0  0  0  0  0
   24.8158  -20.1590  -16.9328 C   0  0  0  0  0  0  0  0  0  0  0  0
   24.4539  -21.3571  -17.0612 O   0  0  0  0  0  0  0  0  0  0  0  0
   24.3004  -19.4003  -15.8450 N   0  0  0  0  0  0  0  0  0  0  0  0
   23.4135  -20.0327  -14.8901 C   0  0  1  0  0  0  0  0  0  0  0  0
   23.5713  -19.4600  -13.4996 C   0  0  0  0  0  0  0  0  0  0  0  0
   24.2095  -20.3844  -12.5619 C   0  0  0  0  0  0  0  0  0  0  0  0
   24.6178  -21.6751  -12.7769 C   0  0  0  0  0  0  0  0  0  0  0  0
   25.1453  -22.1116  -11.6231 N   0  0  0  0  0  0  0  0  0  0  0  0
   25.0837  -21.1455  -10.6927 C   0  0  0  0  0  0  0  0  0  0  0  0
   24.5080  -20.0959  -11.2856 N   0  0  0  0  0  0  0  0  0  0  0  0
   21.9869  -19.9511  -15.3625 C   0  0  0  0  0  0  0  0  0  0  0  0
   21.5159  -18.8903  -15.8527 O   0  0  0  0  0  0  0  0  0  0  0  0
   17.0490  -21.3779  -16.4740 N   0  0  0  0  0  0  0  0  0  0  0  0
   17.9286  -22.4913  -16.6020 C   0  0  0  0  0  0  0  0  0  0  0  0
   17.4572  -23.5329  -17.0650 O   0  0  0  0  0  0  0  0  0  0  0  0
   19.3079  -22.3237  -16.1819 C   0  0  0  0  0  0  0  0  0  0  0  0
   19.6836  -20.9559  -15.6623 C   0  0  2  0  0  0  0  0  0  0  0  0
   21.1148  -21.0659  -15.2750 N   0  0  0  0  0  0  0  0  0  0  0  0
   18.9152  -20.6986  -14.4290 C   0  0  0  0  0  0  0  0  0  0  0  0
   17.6966  -20.4765  -14.4745 O   0  0  0  0  0  0  0  0  0  0  0  0
   19.5560  -20.7044  -13.2081 O   0  0  0  0  0  0  0  0  0  0  0  0
  2  3  1  0
  2  1  1  1
  3  4  1  0
  5  4  1  0
  5  6  1  0
  7  6  1  0
  8  9  2  0
  8  2  1  0
 10  8  1  0
 11 10  1  0
 11 12  1  1
 13 12  1  0
 14 13  2  0
 15 14  1  0
 16 15  1  0
 16 17  2  0
 17 13  1  0
 18 11  1  0
 18 19  2  0
 21 20  1  0
 21 22  2  0
 23 21  1  0
 24 25  1  0
 24 23  1  1
 25 18  1  0
 26 24  1  0
 27 26  2  0
 28 26  1  0
M  END
$$$$
