KHN.pdb
     RDKit          3D

 28 28  0  0  1  0  0  0  0  0999 V2000
   21.9913  -16.6359  -17.8615 N   0  0  0  0  0  0  0  0  0  0  0  0
   21.0915  -15.5315  -17.6810 C   0  0  1  0  0  0  0  0  0  0  0  0
   19.8370  -15.9712  -17.0138 C   0  0  0  0  0  0  0  0  0  0  0  0
   19.0321  -16.9291  -17.7867 C   0  0  0  0  0  0  0  0  0  0  0  0
   17.7889  -17.3895  -17.0902 C   0  0  0  0  0  0  0  0  0  0  0  0
   17.0787  -18.3198  -18.1104 C   0  0  0  0  0  0  0  0  0  0  0  0
   15.9286  -18.8567  -17.4396 N   0  0  0  0  0  0  0  0  0  0  0  0
   21.7134  -14.4875  -16.7780 C   0  0  0  0  0  0  0  0  0  0  0  0
   21.7185  -14.6630  -15.5323 O   0  0  0  0  0  0  0  0  0  0  0  0
   22.2978  -13.3021  -17.3055 N   0  0  0  0  0  0  0  0  0  0  0  0
   22.8813  -12.3310  -16.4028 C   0  0  1  0  0  0  0  0  0  0  0  0
   24.3313  -12.0504  -16.7273 C   0  0  0  0  0  0  0  0  0  0  0  0
   25.2084  -13.1988  -16.4974 C   0  0  0  0  0  0  0  0  0  0  0  0
   25.8477  -13.9857  -17.4199 C   0  0  0  0  0  0  0  0  0  0  0  0
   26.5359  -14.9087  -16.7311 N   0  0  0  0  0  0  0  0  0  0  0  0
   26.3533  -14.7319  -15.4127 C   0  0  0  0  0  0  0  0  0  0  0  0
   25.5381  -13.6808  -15.2889 N   0  0  0  0  0  0  0  0  0  0  0  0
   22.0638  -11.0674  -16.3890 C   0  0  0  0  0  0  0  0  0  0  0  0
   21.5525  -10.6032  -17.4429 O   0  0  0  0  0  0  0  0  0  0  0  0
   19.5708   -6.8292  -14.4605 N   0  0  0  0  0  0  0  0  0  0  0  0
   19.7714   -7.7861  -13.4242 C   0  0  0  0  0  0  0  0  0  0  0  0
   19.2602   -7.5464  -12.3276 O   0  0  0  0  0  0  0  0  0  0  0  0
   20.5575   -8.9678  -13.7289 C   0  0  0  0  0  0  0  0  0  0  0  0
   20.9799   -9.1326  -15.1700 C   0  0  2  0  0  0  0  0  0  0  0  0
   21.8359  -10.3481  -15.1884 N   0  0  0  0  0  0  0  0  0  0  0  0
   21.8363   -7.9888  -15.5384 C   0  0  0  0  0  0  0  0  0  0  0  0
   23.0676   -8.0498  -15.4097 O   0  0  0  0  0  0  0  0  0  0  0  0
   21.2648   -6.8355  -16.0327 O   0  0  0  0  0  0  0  0  0  0  0  0
  2  3  1  0
  2  1  1  1
  3  4  1  0
  5  4  1  0
  5  6  1  0
  7  6  1  0
  8  9  2  0
  8  2  1  0
 10  8  1  0
 11 10  1  0
 11 12  1  6
 13 12  1  0
 14 13  2  0
 15 14  1  0
 16 15  1  0
 16 17  2  0
 17 13  1  0
 18 11  1  0
 18 19  2  0
 21 20  1  0
 21 22  2  0
 23 21  1  0
 24 25  1  0
 24 23  1  1
 25 18  1  0
 26 24  1  0
 27 26  2  0
 28 26  1  0
M  END
$$$$
