KHN.pdb
     RDKit          3D

 28 28  0  0  1  0  0  0  0  0999 V2000
   22.7749  -11.2179  -18.0443 N   0  0  0  0  0  0  0  0  0  0  0  0
   21.8814  -10.3514  -18.7604 C   0  0  1  0  0  0  0  0  0  0  0  0
   20.9050  -11.1380  -19.5604 C   0  0  0  0  0  0  0  0  0  0  0  0
   21.4174  -12.4187  -20.0706 C   0  0  0  0  0  0  0  0  0  0  0  0
   20.3870  -13.2647  -20.7526 C   0  0  0  0  0  0  0  0  0  0  0  0
   21.1390  -14.5594  -21.1635 C   0  0  0  0  0  0  0  0  0  0  0  0
   20.1517  -15.4482  -21.7077 N   0  0  0  0  0  0  0  0  0  0  0  0
   21.0688   -9.5170  -17.7931 C   0  0  0  0  0  0  0  0  0  0  0  0
   20.2181   -8.7019  -18.2342 O   0  0  0  0  0  0  0  0  0  0  0  0
   21.2428   -9.6314  -16.3855 N   0  0  0  0  0  0  0  0  0  0  0  0
   20.5364   -8.7257  -15.5028 C   0  0  1  0  0  0  0  0  0  0  0  0
   19.9658   -9.4356  -14.2958 C   0  0  0  0  0  0  0  0  0  0  0  0
   18.7223  -10.1523  -14.5803 C   0  0  0  0  0  0  0  0  0  0  0  0
   18.0276  -10.2260  -15.7597 C   0  0  0  0  0  0  0  0  0  0  0  0
   16.9546  -10.9978  -15.5294 N   0  0  0  0  0  0  0  0  0  0  0  0
   16.9488  -11.4111  -14.2520 C   0  0  0  0  0  0  0  0  0  0  0  0
   18.0383  -10.8838  -13.6866 N   0  0  0  0  0  0  0  0  0  0  0  0
   21.4271   -7.5811  -15.1007 C   0  0  0  0  0  0  0  0  0  0  0  0
   22.6750   -7.7226  -14.9998 O   0  0  0  0  0  0  0  0  0  0  0  0
   23.3522   -2.8415  -14.6847 N   0  0  0  0  0  0  0  0  0  0  0  0
   23.3448   -3.6762  -15.8393 C   0  0  0  0  0  0  0  0  0  0  0  0
   24.0199   -3.3107  -16.8047 O   0  0  0  0  0  0  0  0  0  0  0  0
   22.5492   -4.8897  -15.7993 C   0  0  0  0  0  0  0  0  0  0  0  0
   21.7884   -5.1447  -14.5194 C   0  0  2  0  0  0  0  0  0  0  0  0
   20.8970   -6.2963  -14.8189 N   0  0  0  0  0  0  0  0  0  0  0  0
   20.9231   -3.9798  -14.2516 C   0  0  0  0  0  0  0  0  0  0  0  0
   21.4032   -2.9120  -13.8444 O   0  0  0  0  0  0  0  0  0  0  0  0
   19.5627   -4.0749  -14.4553 O   0  0  0  0  0  0  0  0  0  0  0  0
  2  3  1  0
  2  1  1  1
  3  4  1  0
  5  4  1  0
  5  6  1  0
  7  6  1  0
  8  9  2  0
  8  2  1  0
 10  8  1  0
 11 10  1  0
 11 12  1  1
 13 12  1  0
 14 13  2  0
 15 14  1  0
 16 15  1  0
 16 17  2  0
 17 13  1  0
 18 11  1  0
 18 19  2  0
 21 20  1  0
 21 22  2  0
 23 21  1  0
 24 25  1  0
 24 23  1  6
 25 18  1  0
 26 24  1  0
 27 26  2  0
 28 26  1  0
M  END
$$$$
