KHN.pdb
     RDKit          3D

 28 28  0  0  1  0  0  0  0  0999 V2000
   22.4954  -10.5094  -20.1496 N   0  0  0  0  0  0  0  0  0  0  0  0
   21.5626  -10.5755  -19.0600 C   0  0  1  0  0  0  0  0  0  0  0  0
   21.4307  -11.9689  -18.5566 C   0  0  0  0  0  0  0  0  0  0  0  0
   22.0219  -12.9963  -19.4272 C   0  0  0  0  0  0  0  0  0  0  0  0
   21.7653  -14.4023  -18.9799 C   0  0  0  0  0  0  0  0  0  0  0  0
   22.5121  -15.2931  -20.0092 C   0  0  0  0  0  0  0  0  0  0  0  0
   23.0213  -16.4193  -19.2790 N   0  0  0  0  0  0  0  0  0  0  0  0
   22.0544   -9.7440  -17.8943 C   0  0  0  0  0  0  0  0  0  0  0  0
   21.4218   -9.7580  -16.8069 O   0  0  0  0  0  0  0  0  0  0  0  0
   23.2239   -8.9399  -17.9965 N   0  0  0  0  0  0  0  0  0  0  0  0
   23.6178   -8.1072  -16.8785 C   0  0  1  0  0  0  0  0  0  0  0  0
   25.1164   -8.0948  -16.6773 C   0  0  0  0  0  0  0  0  0  0  0  0
   25.6470   -9.3727  -16.2013 C   0  0  0  0  0  0  0  0  0  0  0  0
   24.9656  -10.5231  -15.8996 C   0  0  0  0  0  0  0  0  0  0  0  0
   25.8799  -11.4228  -15.5062 N   0  0  0  0  0  0  0  0  0  0  0  0
   27.1080  -10.8819  -15.5491 C   0  0  0  0  0  0  0  0  0  0  0  0
   26.9457   -9.6268  -15.9770 N   0  0  0  0  0  0  0  0  0  0  0  0
   23.0707   -6.7147  -17.0408 C   0  0  0  0  0  0  0  0  0  0  0  0
   23.2449   -6.0590  -18.1025 O   0  0  0  0  0  0  0  0  0  0  0  0
   20.1643   -2.4350  -16.1886 N   0  0  0  0  0  0  0  0  0  0  0  0
   19.5854   -3.5924  -15.5928 C   0  0  0  0  0  0  0  0  0  0  0  0
   18.4448   -3.4820  -15.1363 O   0  0  0  0  0  0  0  0  0  0  0  0
   20.3722   -4.8119  -15.5646 C   0  0  0  0  0  0  0  0  0  0  0  0
   21.7438   -4.7335  -16.1929 C   0  0  2  0  0  0  0  0  0  0  0  0
   22.3363   -6.0840  -16.0044 N   0  0  0  0  0  0  0  0  0  0  0  0
   22.5606   -3.7846  -15.4119 C   0  0  0  0  0  0  0  0  0  0  0  0
   23.0732   -4.1238  -14.3355 O   0  0  0  0  0  0  0  0  0  0  0  0
   22.7593   -2.5033  -15.8810 O   0  0  0  0  0  0  0  0  0  0  0  0
  2  3  1  0
  2  1  1  6
  3  4  1  0
  5  4  1  0
  5  6  1  0
  7  6  1  0
  8  9  2  0
  8  2  1  0
 10  8  1  0
 11 10  1  0
 11 12  1  6
 13 12  1  0
 14 13  2  0
 15 14  1  0
 16 15  1  0
 16 17  2  0
 17 13  1  0
 18 11  1  0
 18 19  2  0
 21 20  1  0
 21 22  2  0
 23 21  1  0
 24 25  1  0
 24 23  1  1
 25 18  1  0
 26 24  1  0
 27 26  2  0
 28 26  1  0
M  END
$$$$
