IWW.pdb
     RDKit          3D

 37 40  0  0  1  0  0  0  0  0999 V2000
   27.2032  -21.6699   -8.7560 C   0  0  0  0  0  0  0  0  0  0  0  0
   27.7449  -21.5891  -10.1421 C   0  0  0  0  0  0  0  0  0  0  0  0
   26.7329  -21.0173  -11.1588 C   0  0  2  0  0  0  0  0  0  0  0  0
   25.4439  -21.7657  -11.0331 C   0  0  0  0  0  0  0  0  0  0  0  0
   27.2735  -20.9049  -12.5413 C   0  0  2  0  0  0  0  0  0  0  0  0
   28.5991  -20.4267  -12.6663 N   0  0  0  0  0  0  0  0  0  0  0  0
   26.2770  -20.1191  -13.3595 C   0  0  0  0  0  0  0  0  0  0  0  0
   26.0760  -18.9171  -13.0519 O   0  0  0  0  0  0  0  0  0  0  0  0
   25.5879  -20.6825  -14.4311 N   0  0  0  0  0  0  0  0  0  0  0  0
   24.4901  -20.1154  -15.1392 C   0  0  1  0  0  0  0  0  0  0  0  0
   24.9977  -19.8140  -16.5507 C   0  0  0  0  0  0  0  0  0  0  0  0
   26.2259  -19.0350  -16.6202 C   0  0  0  0  0  0  0  0  0  0  0  0
   27.5434  -19.4028  -16.5825 C   0  0  0  0  0  0  0  0  0  0  0  0
   28.2547  -18.2475  -16.6651 N   0  0  0  0  0  0  0  0  0  0  0  0
   27.4750  -17.1890  -16.7526 C   0  0  0  0  0  0  0  0  0  0  0  0
   27.6982  -15.8103  -16.8577 C   0  0  0  0  0  0  0  0  0  0  0  0
   26.6541  -14.9424  -16.9392 C   0  0  0  0  0  0  0  0  0  0  0  0
   25.3577  -15.3593  -16.9173 C   0  0  0  0  0  0  0  0  0  0  0  0
   25.1236  -16.7196  -16.8124 C   0  0  0  0  0  0  0  0  0  0  0  0
   26.1736  -17.6328  -16.7263 C   0  0  0  0  0  0  0  0  0  0  0  0
   23.2396  -20.9073  -15.1422 C   0  0  0  0  0  0  0  0  0  0  0  0
   23.2166  -22.1594  -14.9644 O   0  0  0  0  0  0  0  0  0  0  0  0
   21.9895  -20.2572  -15.3371 N   0  0  0  0  0  0  0  0  0  0  0  0
   20.6824  -20.8012  -15.2070 C   0  0  1  0  0  0  0  0  0  0  0  0
   20.3966  -21.3706  -13.8046 C   0  0  0  0  0  0  0  0  0  0  0  0
   20.5415  -20.2883  -12.8040 C   0  0  0  0  0  0  0  0  0  0  0  0
   20.5288  -18.9287  -13.0890 C   0  0  0  0  0  0  0  0  0  0  0  0
   20.6876  -18.2695  -11.9600 N   0  0  0  0  0  0  0  0  0  0  0  0
   20.8033  -19.1156  -10.9292 C   0  0  0  0  0  0  0  0  0  0  0  0
   20.9750  -18.8753   -9.5796 C   0  0  0  0  0  0  0  0  0  0  0  0
   21.0580  -19.9458   -8.7057 C   0  0  0  0  0  0  0  0  0  0  0  0
   20.9702  -21.2181   -9.2146 C   0  0  0  0  0  0  0  0  0  0  0  0
   20.7978  -21.4553  -10.5667 C   0  0  0  0  0  0  0  0  0  0  0  0
   20.7130  -20.3912  -11.4376 C   0  0  0  0  0  0  0  0  0  0  0  0
   19.5833  -19.9550  -15.6718 C   0  0  0  0  0  0  0  0  0  0  0  0
   18.2572  -20.3571  -15.6945 O   0  0  0  0  0  0  0  0  0  0  0  0
   19.8034  -18.7877  -16.0933 O   0  0  0  0  0  0  0  0  0  0  0  0
  2  1  1  0
  3  2  1  0
  3  4  1  6
  5  6  1  1
  5  3  1  0
  7  5  1  0
  7  8  2  0
  9  7  1  0
 10  9  1  0
 10 21  1  0
 11 12  1  0
 10 11  1  6
 12 20  1  0
 13 14  1  0
 13 12  2  0
 14 15  1  0
 15 20  2  0
 15 16  1  0
 16 17  2  0
 17 18  1  0
 19 18  2  0
 20 19  1  0
 21 22  2  0
 21 23  1  0
 23 24  1  0
 24 35  1  0
 24 25  1  1
 26 25  1  0
 27 26  2  0
 28 27  1  0
 29 28  1  0
 29 34  2  0
 30 29  1  0
 31 30  2  0
 31 32  1  0
 32 33  2  0
 33 34  1  0
 34 26  1  0
 35 37  2  0
 35 36  1  0
M  END
$$$$
