IWW.pdb
     RDKit          3D

 37 40  0  0  1  0  0  0  0  0999 V2000
   28.3671  -17.8958  -16.3513 C   0  0  0  0  0  0  0  0  0  0  0  0
   28.9906  -18.8969  -15.4400 C   0  0  0  0  0  0  0  0  0  0  0  0
   27.9806  -19.5507  -14.4719 C   0  0  2  0  0  0  0  0  0  0  0  0
   27.2536  -18.4745  -13.7299 C   0  0  0  0  0  0  0  0  0  0  0  0
   28.5728  -20.6220  -13.6246 C   0  0  2  0  0  0  0  0  0  0  0  0
   29.4418  -21.5328  -14.2703 N   0  0  0  0  0  0  0  0  0  0  0  0
   27.4427  -21.2982  -12.8861 C   0  0  0  0  0  0  0  0  0  0  0  0
   26.7287  -22.1167  -13.5188 O   0  0  0  0  0  0  0  0  0  0  0  0
   27.1771  -21.0443  -11.5424 N   0  0  0  0  0  0  0  0  0  0  0  0
   26.1104  -21.5761  -10.7628 C   0  0  1  0  0  0  0  0  0  0  0  0
   26.6616  -21.7599   -9.3475 C   0  0  0  0  0  0  0  0  0  0  0  0
   26.7386  -20.5478   -8.5443 C   0  0  0  0  0  0  0  0  0  0  0  0
   26.1303  -19.3287   -8.6711 C   0  0  0  0  0  0  0  0  0  0  0  0
   26.5957  -18.5719   -7.6424 N   0  0  0  0  0  0  0  0  0  0  0  0
   27.4477  -19.2327   -6.8851 C   0  0  0  0  0  0  0  0  0  0  0  0
   28.1881  -18.9218   -5.7376 C   0  0  0  0  0  0  0  0  0  0  0  0
   29.0027  -19.8485   -5.1651 C   0  0  0  0  0  0  0  0  0  0  0  0
   29.1445  -21.1049   -5.6713 C   0  0  0  0  0  0  0  0  0  0  0  0
   28.4190  -21.4243   -6.8062 C   0  0  0  0  0  0  0  0  0  0  0  0
   27.5769  -20.4949   -7.4153 C   0  0  0  0  0  0  0  0  0  0  0  0
   24.8444  -20.8095  -10.7844 C   0  0  0  0  0  0  0  0  0  0  0  0
   24.7719  -19.5900  -10.4565 O   0  0  0  0  0  0  0  0  0  0  0  0
   23.6403  -21.4412  -11.2018 N   0  0  0  0  0  0  0  0  0  0  0  0
   22.3438  -20.8720  -11.3297 C   0  0  1  0  0  0  0  0  0  0  0  0
   22.3481  -19.4973  -12.0245 C   0  0  0  0  0  0  0  0  0  0  0  0
   22.9265  -19.6419  -13.3803 C   0  0  0  0  0  0  0  0  0  0  0  0
   22.8287  -20.7775  -14.1744 C   0  0  0  0  0  0  0  0  0  0  0  0
   23.4632  -20.5458  -15.3050 N   0  0  0  0  0  0  0  0  0  0  0  0
   23.9802  -19.3111  -15.3139 C   0  0  0  0  0  0  0  0  0  0  0  0
   24.7088  -18.6450  -16.2804 C   0  0  0  0  0  0  0  0  0  0  0  0
   25.1248  -17.3465  -16.0408 C   0  0  0  0  0  0  0  0  0  0  0  0
   24.8002  -16.7631  -14.8410 C   0  0  0  0  0  0  0  0  0  0  0  0
   24.0701  -17.4328  -13.8753 C   0  0  0  0  0  0  0  0  0  0  0  0
   23.6535  -18.7243  -14.1128 C   0  0  0  0  0  0  0  0  0  0  0  0
   21.3089  -21.7449  -11.8838 C   0  0  0  0  0  0  0  0  0  0  0  0
   19.9630  -21.4166  -11.9226 O   0  0  0  0  0  0  0  0  0  0  0  0
   21.6056  -22.8742  -12.3583 O   0  0  0  0  0  0  0  0  0  0  0  0
  2  1  1  0
  3  2  1  0
  3  4  1  1
  5  6  1  6
  5  3  1  0
  7  5  1  0
  7  8  2  0
  9  7  1  0
 10  9  1  0
 10 21  1  0
 11 12  1  0
 10 11  1  1
 12 20  1  0
 13 14  1  0
 13 12  2  0
 14 15  1  0
 15 20  2  0
 15 16  1  0
 16 17  2  0
 17 18  1  0
 19 18  2  0
 20 19  1  0
 21 22  2  0
 21 23  1  0
 23 24  1  0
 24 35  1  0
 24 25  1  6
 26 25  1  0
 27 26  2  0
 28 27  1  0
 29 28  1  0
 29 34  2  0
 30 29  1  0
 31 30  2  0
 31 32  1  0
 32 33  2  0
 33 34  1  0
 34 26  1  0
 35 37  2  0
 35 36  1  0
M  END
$$$$
