IWW.pdb
     RDKit          3D

 37 40  0  0  1  0  0  0  0  0999 V2000
   29.7544  -22.3617  -16.5777 C   0  0  0  0  0  0  0  0  0  0  0  0
   29.2253  -21.5336  -15.4573 C   0  0  0  0  0  0  0  0  0  0  0  0
   28.1391  -20.5300  -15.9023 C   0  0  2  0  0  0  0  0  0  0  0  0
   28.6404  -19.7667  -17.0870 C   0  0  0  0  0  0  0  0  0  0  0  0
   27.6003  -19.7004  -14.7898 C   0  0  2  0  0  0  0  0  0  0  0  0
   28.5054  -18.8075  -14.1694 N   0  0  0  0  0  0  0  0  0  0  0  0
   26.9179  -20.6300  -13.8151 C   0  0  0  0  0  0  0  0  0  0  0  0
   26.0452  -21.4173  -14.2606 O   0  0  0  0  0  0  0  0  0  0  0  0
   27.2278  -20.6391  -12.4570 N   0  0  0  0  0  0  0  0  0  0  0  0
   26.4992  -21.2800  -11.4145 C   0  0  1  0  0  0  0  0  0  0  0  0
   27.4400  -21.3467  -10.2099 C   0  0  0  0  0  0  0  0  0  0  0  0
   26.9760  -20.6553   -9.0153 C   0  0  0  0  0  0  0  0  0  0  0  0
   25.8261  -19.9626   -8.7503 C   0  0  0  0  0  0  0  0  0  0  0  0
   25.9479  -19.5140   -7.4730 N   0  0  0  0  0  0  0  0  0  0  0  0
   27.0892  -19.8789   -6.9249 C   0  0  0  0  0  0  0  0  0  0  0  0
   27.6840  -19.6839   -5.6720 C   0  0  0  0  0  0  0  0  0  0  0  0
   28.9085  -20.2078   -5.3960 C   0  0  0  0  0  0  0  0  0  0  0  0
   29.6127  -20.9325   -6.3091 C   0  0  0  0  0  0  0  0  0  0  0  0
   29.0363  -21.1313   -7.5519 C   0  0  0  0  0  0  0  0  0  0  0  0
   27.7831  -20.6058   -7.8636 C   0  0  0  0  0  0  0  0  0  0  0  0
   25.1865  -20.6848  -11.0779 C   0  0  0  0  0  0  0  0  0  0  0  0
   25.0621  -19.6563  -10.3522 O   0  0  0  0  0  0  0  0  0  0  0  0
   23.9930  -21.2646  -11.5905 N   0  0  0  0  0  0  0  0  0  0  0  0
   22.6823  -20.7141  -11.6100 C   0  0  1  0  0  0  0  0  0  0  0  0
   22.6310  -19.2839  -12.1795 C   0  0  0  0  0  0  0  0  0  0  0  0
   22.5402  -19.3538  -13.6562 C   0  0  0  0  0  0  0  0  0  0  0  0
   21.7469  -20.2453  -14.3673 C   0  0  0  0  0  0  0  0  0  0  0  0
   21.9243  -20.0202  -15.6527 N   0  0  0  0  0  0  0  0  0  0  0  0
   22.7940  -19.0207  -15.8433 C   0  0  0  0  0  0  0  0  0  0  0  0
   23.2683  -18.4470  -17.0071 C   0  0  0  0  0  0  0  0  0  0  0  0
   24.1720  -17.4012  -16.9279 C   0  0  0  0  0  0  0  0  0  0  0  0
   24.5714  -16.9700  -15.6870 C   0  0  0  0  0  0  0  0  0  0  0  0
   24.0941  -17.5465  -14.5233 C   0  0  0  0  0  0  0  0  0  0  0  0
   23.1934  -18.5860  -14.6001 C   0  0  0  0  0  0  0  0  0  0  0  0
   21.6383  -21.5568  -12.1931 C   0  0  0  0  0  0  0  0  0  0  0  0
   20.2904  -21.4304  -11.8965 O   0  0  0  0  0  0  0  0  0  0  0  0
   21.9303  -22.4698  -13.0115 O   0  0  0  0  0  0  0  0  0  0  0  0
  2  1  1  0
  3  2  1  0
  3  4  1  6
  5  6  1  1
  5  3  1  0
  7  5  1  0
  7  8  2  0
  9  7  1  0
 10  9  1  0
 10 21  1  0
 11 12  1  0
 10 11  1  1
 12 20  1  0
 13 14  1  0
 13 12  2  0
 14 15  1  0
 15 20  2  0
 15 16  1  0
 16 17  2  0
 17 18  1  0
 19 18  2  0
 20 19  1  0
 21 22  2  0
 21 23  1  0
 23 24  1  0
 24 35  1  0
 24 25  1  6
 26 25  1  0
 27 26  2  0
 28 27  1  0
 29 28  1  0
 29 34  2  0
 30 29  1  0
 31 30  2  0
 31 32  1  0
 32 33  2  0
 33 34  1  0
 34 26  1  0
 35 37  2  0
 35 36  1  0
M  END
$$$$
