IWW.pdb
     RDKit          3D

 37 40  0  0  1  0  0  0  0  0999 V2000
   29.9876  -21.3381  -18.6770 C   0  0  0  0  0  0  0  0  0  0  0  0
   28.8173  -22.2470  -18.8372 C   0  0  0  0  0  0  0  0  0  0  0  0
   27.9072  -22.2929  -17.5905 C   0  0  2  0  0  0  0  0  0  0  0  0
   27.2238  -20.9709  -17.4401 C   0  0  0  0  0  0  0  0  0  0  0  0
   28.5913  -22.8004  -16.3696 C   0  0  2  0  0  0  0  0  0  0  0  0
   29.2198  -24.0635  -16.4744 N   0  0  0  0  0  0  0  0  0  0  0  0
   27.6085  -22.7169  -15.2265 C   0  0  0  0  0  0  0  0  0  0  0  0
   26.5908  -23.4535  -15.2663 O   0  0  0  0  0  0  0  0  0  0  0  0
   27.7991  -21.8600  -14.1447 N   0  0  0  0  0  0  0  0  0  0  0  0
   26.9514  -21.7076  -13.0105 C   0  0  1  0  0  0  0  0  0  0  0  0
   27.8161  -21.0976  -11.9056 C   0  0  0  0  0  0  0  0  0  0  0  0
   27.1028  -20.7057  -10.6982 C   0  0  0  0  0  0  0  0  0  0  0  0
   25.7934  -20.3747  -10.4784 C   0  0  0  0  0  0  0  0  0  0  0  0
   25.7027  -20.0733   -9.1561 N   0  0  0  0  0  0  0  0  0  0  0  0
   26.8602  -20.1942   -8.5383 C   0  0  0  0  0  0  0  0  0  0  0  0
   27.2938  -20.0094   -7.2195 C   0  0  0  0  0  0  0  0  0  0  0  0
   28.5927  -20.2269   -6.8791 C   0  0  0  0  0  0  0  0  0  0  0  0
   29.5266  -20.6233   -7.7876 C   0  0  0  0  0  0  0  0  0  0  0  0
   29.1109  -20.8083   -9.0950 C   0  0  0  0  0  0  0  0  0  0  0  0
   27.7865  -20.5923   -9.4735 C   0  0  0  0  0  0  0  0  0  0  0  0
   25.6977  -20.9529  -13.2327 C   0  0  0  0  0  0  0  0  0  0  0  0
   25.6760  -19.7674  -13.6732 O   0  0  0  0  0  0  0  0  0  0  0  0
   24.4435  -21.5666  -12.9615 N   0  0  0  0  0  0  0  0  0  0  0  0
   23.1446  -20.9943  -13.0456 C   0  0  1  0  0  0  0  0  0  0  0  0
   22.0221  -22.0441  -13.1468 C   0  0  0  0  0  0  0  0  0  0  0  0
   20.7209  -21.3498  -13.2835 C   0  0  0  0  0  0  0  0  0  0  0  0
   20.0914  -21.0605  -14.4876 C   0  0  0  0  0  0  0  0  0  0  0  0
   18.9622  -20.4366  -14.2228 N   0  0  0  0  0  0  0  0  0  0  0  0
   18.7977  -20.2941  -12.9020 C   0  0  0  0  0  0  0  0  0  0  0  0
   17.7730  -19.7164  -12.1776 C   0  0  0  0  0  0  0  0  0  0  0  0
   17.8419  -19.7071  -10.7949 C   0  0  0  0  0  0  0  0  0  0  0  0
   18.9358  -20.2726  -10.1875 C   0  0  0  0  0  0  0  0  0  0  0  0
   19.9602  -20.8507  -10.9159 C   0  0  0  0  0  0  0  0  0  0  0  0
   19.8924  -20.8627  -12.2918 C   0  0  0  0  0  0  0  0  0  0  0  0
   22.8267  -19.9695  -12.0512 C   0  0  0  0  0  0  0  0  0  0  0  0
   22.8936  -20.1764  -10.6825 O   0  0  0  0  0  0  0  0  0  0  0  0
   22.4581  -18.8183  -12.4084 O   0  0  0  0  0  0  0  0  0  0  0  0
  2  1  1  0
  3  2  1  0
  3  4  1  1
  5  6  1  6
  5  3  1  0
  7  5  1  0
  7  8  2  0
  9  7  1  0
 10  9  1  0
 10 21  1  0
 11 12  1  0
 10 11  1  1
 12 20  1  0
 13 14  1  0
 13 12  2  0
 14 15  1  0
 15 20  2  0
 15 16  1  0
 16 17  2  0
 17 18  1  0
 19 18  2  0
 20 19  1  0
 21 22  2  0
 21 23  1  0
 23 24  1  0
 24 35  1  0
 24 25  1  1
 26 25  1  0
 27 26  2  0
 28 27  1  0
 29 28  1  0
 29 34  2  0
 30 29  1  0
 31 30  2  0
 31 32  1  0
 32 33  2  0
 33 34  1  0
 34 26  1  0
 35 37  2  0
 35 36  1  0
M  END
$$$$
