IWW.pdb
     RDKit          3D

 37 40  0  0  1  0  0  0  0  0999 V2000
   28.6359  -17.4708  -16.1055 C   0  0  0  0  0  0  0  0  0  0  0  0
   29.1477  -18.7325  -15.4995 C   0  0  0  0  0  0  0  0  0  0  0  0
   28.1623  -19.3687  -14.4950 C   0  0  2  0  0  0  0  0  0  0  0  0
   27.7812  -18.3439  -13.4742 C   0  0  0  0  0  0  0  0  0  0  0  0
   28.6260  -20.6732  -13.9476 C   0  0  2  0  0  0  0  0  0  0  0  0
   29.1117  -21.6163  -14.8836 N   0  0  0  0  0  0  0  0  0  0  0  0
   27.5253  -21.2179  -13.0693 C   0  0  0  0  0  0  0  0  0  0  0  0
   26.5983  -21.8667  -13.6165 O   0  0  0  0  0  0  0  0  0  0  0  0
   27.5126  -21.0252  -11.6897 N   0  0  0  0  0  0  0  0  0  0  0  0
   26.5331  -21.4912  -10.7668 C   0  0  1  0  0  0  0  0  0  0  0  0
   27.2691  -21.7455   -9.4498 C   0  0  0  0  0  0  0  0  0  0  0  0
   27.1822  -20.6737   -8.4680 C   0  0  0  0  0  0  0  0  0  0  0  0
   26.5114  -19.4810   -8.4758 C   0  0  0  0  0  0  0  0  0  0  0  0
   26.8164  -18.8749   -7.2980 N   0  0  0  0  0  0  0  0  0  0  0  0
   27.6268  -19.6049   -6.5587 C   0  0  0  0  0  0  0  0  0  0  0  0
   28.2218  -19.4439   -5.3011 C   0  0  0  0  0  0  0  0  0  0  0  0
   29.0316  -20.4087   -4.7879 C   0  0  0  0  0  0  0  0  0  0  0  0
   29.3077  -21.5606   -5.4600 C   0  0  0  0  0  0  0  0  0  0  0  0
   28.7267  -21.7312   -6.7049 C   0  0  0  0  0  0  0  0  0  0  0  0
   27.8932  -20.7594   -7.2567 C   0  0  0  0  0  0  0  0  0  0  0  0
   25.3410  -20.6311  -10.5945 C   0  0  0  0  0  0  0  0  0  0  0  0
   25.4047  -19.4433  -10.1642 O   0  0  0  0  0  0  0  0  0  0  0  0
   24.0525  -21.1295  -10.9331 N   0  0  0  0  0  0  0  0  0  0  0  0
   22.8089  -20.4404  -10.9219 C   0  0  1  0  0  0  0  0  0  0  0  0
   22.8372  -19.1201  -11.7147 C   0  0  0  0  0  0  0  0  0  0  0  0
   22.9831  -19.4245  -13.1569 C   0  0  0  0  0  0  0  0  0  0  0  0
   22.6894  -20.6458  -13.7501 C   0  0  0  0  0  0  0  0  0  0  0  0
   22.9438  -20.5499  -15.0387 N   0  0  0  0  0  0  0  0  0  0  0  0
   23.3906  -19.3254  -15.3438 C   0  0  0  0  0  0  0  0  0  0  0  0
   23.7690  -18.7789  -16.5549 C   0  0  0  0  0  0  0  0  0  0  0  0
   24.1925  -17.4617  -16.6014 C   0  0  0  0  0  0  0  0  0  0  0  0
   24.2257  -16.7403  -15.4335 C   0  0  0  0  0  0  0  0  0  0  0  0
   23.8457  -17.2905  -14.2223 C   0  0  0  0  0  0  0  0  0  0  0  0
   23.4221  -18.6006  -14.1745 C   0  0  0  0  0  0  0  0  0  0  0  0
   21.6282  -21.2367  -11.2563 C   0  0  0  0  0  0  0  0  0  0  0  0
   20.3261  -20.7937  -11.0862 O   0  0  0  0  0  0  0  0  0  0  0  0
   21.7483  -22.4019  -11.7216 O   0  0  0  0  0  0  0  0  0  0  0  0
  2  1  1  0
  3  2  1  0
  3  4  1  1
  5  6  1  6
  5  3  1  0
  7  5  1  0
  7  8  2  0
  9  7  1  0
 10  9  1  0
 10 21  1  0
 11 12  1  0
 10 11  1  1
 12 20  1  0
 13 14  1  0
 13 12  2  0
 14 15  1  0
 15 20  2  0
 15 16  1  0
 16 17  2  0
 17 18  1  0
 19 18  2  0
 20 19  1  0
 21 22  2  0
 21 23  1  0
 23 24  1  0
 24 35  1  0
 24 25  1  6
 26 25  1  0
 27 26  2  0
 28 27  1  0
 29 28  1  0
 29 34  2  0
 30 29  1  0
 31 30  2  0
 31 32  1  0
 32 33  2  0
 33 34  1  0
 34 26  1  0
 35 37  2  0
 35 36  1  0
M  END
$$$$
