IWW.pdb
     RDKit          3D

 37 40  0  0  1  0  0  0  0  0999 V2000
   30.9968  -19.2497  -20.2078 C   0  0  0  0  0  0  0  0  0  0  0  0
   31.1899  -18.7253  -18.8262 C   0  0  0  0  0  0  0  0  0  0  0  0
   29.8641  -18.5277  -18.0593 C   0  0  2  0  0  0  0  0  0  0  0  0
   29.9291  -17.2390  -17.3026 C   0  0  0  0  0  0  0  0  0  0  0  0
   29.4519  -19.7157  -17.2625 C   0  0  2  0  0  0  0  0  0  0  0  0
   29.2271  -20.9135  -17.9810 N   0  0  0  0  0  0  0  0  0  0  0  0
   28.2789  -19.3064  -16.4046 C   0  0  0  0  0  0  0  0  0  0  0  0
   28.4606  -18.4095  -15.5429 O   0  0  0  0  0  0  0  0  0  0  0  0
   27.0198  -19.8861  -16.5432 N   0  0  0  0  0  0  0  0  0  0  0  0
   25.8641  -19.6283  -15.7518 C   0  0  1  0  0  0  0  0  0  0  0  0
   24.7245  -19.3465  -16.7330 C   0  0  0  0  0  0  0  0  0  0  0  0
   23.4807  -18.8870  -16.1312 C   0  0  0  0  0  0  0  0  0  0  0  0
   23.0688  -17.6487  -15.7196 C   0  0  0  0  0  0  0  0  0  0  0  0
   21.8192  -17.8216  -15.2135 N   0  0  0  0  0  0  0  0  0  0  0  0
   21.4244  -19.0768  -15.2820 C   0  0  0  0  0  0  0  0  0  0  0  0
   20.2605  -19.7622  -14.9119 C   0  0  0  0  0  0  0  0  0  0  0  0
   20.1462  -21.1008  -15.1242 C   0  0  0  0  0  0  0  0  0  0  0  0
   21.1423  -21.8353  -15.6927 C   0  0  0  0  0  0  0  0  0  0  0  0
   22.2986  -21.1697  -16.0619 C   0  0  0  0  0  0  0  0  0  0  0  0
   22.4446  -19.7986  -15.8559 C   0  0  0  0  0  0  0  0  0  0  0  0
   25.5132  -20.6658  -14.7563 C   0  0  0  0  0  0  0  0  0  0  0  0
   25.8111  -21.8867  -14.8995 O   0  0  0  0  0  0  0  0  0  0  0  0
   24.8220  -20.3024  -13.5674 N   0  0  0  0  0  0  0  0  0  0  0  0
   24.5220  -21.1129  -12.4385 C   0  0  1  0  0  0  0  0  0  0  0  0
   25.7667  -21.7689  -11.8117 C   0  0  0  0  0  0  0  0  0  0  0  0
   26.1311  -21.0350  -10.5778 C   0  0  0  0  0  0  0  0  0  0  0  0
   25.2631  -20.2524   -9.8269 C   0  0  0  0  0  0  0  0  0  0  0  0
   25.9335  -19.7544   -8.8085 N   0  0  0  0  0  0  0  0  0  0  0  0
   27.2075  -20.1644   -8.8336 C   0  0  0  0  0  0  0  0  0  0  0  0
   28.2568  -19.9019   -7.9742 C   0  0  0  0  0  0  0  0  0  0  0  0
   29.4957  -20.4667   -8.2248 C   0  0  0  0  0  0  0  0  0  0  0  0
   29.6406  -21.2705   -9.3285 C   0  0  0  0  0  0  0  0  0  0  0  0
   28.5875  -21.5317  -10.1870 C   0  0  0  0  0  0  0  0  0  0  0  0
   27.3535  -20.9721   -9.9382 C   0  0  0  0  0  0  0  0  0  0  0  0
   23.6698  -20.5044  -11.4169 C   0  0  0  0  0  0  0  0  0  0  0  0
   22.7928  -21.2207  -10.6178 O   0  0  0  0  0  0  0  0  0  0  0  0
   23.6914  -19.2599  -11.2183 O   0  0  0  0  0  0  0  0  0  0  0  0
  2  1  1  0
  3  2  1  0
  3  4  1  1
  5  6  1  6
  5  3  1  0
  7  5  1  0
  7  8  2  0
  9  7  1  0
 10  9  1  0
 10 21  1  0
 11 12  1  0
 10 11  1  6
 12 20  1  0
 13 14  1  0
 13 12  2  0
 14 15  1  0
 15 20  2  0
 15 16  1  0
 16 17  2  0
 17 18  1  0
 19 18  2  0
 20 19  1  0
 21 22  2  0
 21 23  1  0
 23 24  1  0
 24 35  1  0
 24 25  1  1
 26 25  1  0
 27 26  2  0
 28 27  1  0
 29 28  1  0
 29 34  2  0
 30 29  1  0
 31 30  2  0
 31 32  1  0
 32 33  2  0
 33 34  1  0
 34 26  1  0
 35 37  2  0
 35 36  1  0
M  END
$$$$
