IWW.pdb
     RDKit          3D

 37 40  0  0  1  0  0  0  0  0999 V2000
   31.4323  -19.3541  -18.6517 C   0  0  0  0  0  0  0  0  0  0  0  0
   29.9447  -19.4307  -18.6984 C   0  0  0  0  0  0  0  0  0  0  0  0
   29.2686  -18.9344  -17.4017 C   0  0  2  0  0  0  0  0  0  0  0  0
   29.8509  -19.6723  -16.2382 C   0  0  0  0  0  0  0  0  0  0  0  0
   27.7815  -18.9221  -17.4701 C   0  0  2  0  0  0  0  0  0  0  0  0
   27.2012  -18.1477  -18.5022 N   0  0  0  0  0  0  0  0  0  0  0  0
   27.2634  -18.5686  -16.0967 C   0  0  0  0  0  0  0  0  0  0  0  0
   27.6410  -17.4855  -15.5827 O   0  0  0  0  0  0  0  0  0  0  0  0
   26.3893  -19.3975  -15.3971 N   0  0  0  0  0  0  0  0  0  0  0  0
   25.9191  -19.2197  -14.0646 C   0  0  1  0  0  0  0  0  0  0  0  0
   24.4027  -19.0422  -14.1632 C   0  0  0  0  0  0  0  0  0  0  0  0
   23.9456  -18.1414  -15.2120 C   0  0  0  0  0  0  0  0  0  0  0  0
   23.2541  -18.3665  -16.3711 C   0  0  0  0  0  0  0  0  0  0  0  0
   23.1268  -17.1529  -16.9700 N   0  0  0  0  0  0  0  0  0  0  0  0
   23.6877  -16.1903  -16.2666 C   0  0  0  0  0  0  0  0  0  0  0  0
   23.8308  -14.8071  -16.4334 C   0  0  0  0  0  0  0  0  0  0  0  0
   24.4770  -14.0586  -15.4994 C   0  0  0  0  0  0  0  0  0  0  0  0
   25.0158  -14.6050  -14.3742 C   0  0  0  0  0  0  0  0  0  0  0  0
   24.8823  -15.9717  -14.1983 C   0  0  0  0  0  0  0  0  0  0  0  0
   24.2259  -16.7643  -15.1388 C   0  0  0  0  0  0  0  0  0  0  0  0
   26.3065  -20.2671  -13.0932 C   0  0  0  0  0  0  0  0  0  0  0  0
   26.5069  -21.4719  -13.4225 O   0  0  0  0  0  0  0  0  0  0  0  0
   26.4833  -19.9319  -11.7223 N   0  0  0  0  0  0  0  0  0  0  0  0
   26.7477  -20.8010  -10.6285 C   0  0  1  0  0  0  0  0  0  0  0  0
   27.9069  -20.3203   -9.7353 C   0  0  0  0  0  0  0  0  0  0  0  0
   27.5001  -20.4272   -8.3151 C   0  0  0  0  0  0  0  0  0  0  0  0
   26.2815  -20.9215   -7.8673 C   0  0  0  0  0  0  0  0  0  0  0  0
   26.2705  -20.8607   -6.5517 N   0  0  0  0  0  0  0  0  0  0  0  0
   27.4205  -20.3538   -6.0909 C   0  0  0  0  0  0  0  0  0  0  0  0
   27.8486  -20.1170   -4.7990 C   0  0  0  0  0  0  0  0  0  0  0  0
   29.1092  -19.5846   -4.5894 C   0  0  0  0  0  0  0  0  0  0  0  0
   29.8942  -19.3047   -5.6807 C   0  0  0  0  0  0  0  0  0  0  0  0
   29.4627  -19.5435   -6.9733 C   0  0  0  0  0  0  0  0  0  0  0  0
   28.2093  -20.0751   -7.1836 C   0  0  0  0  0  0  0  0  0  0  0  0
   25.5898  -21.2002   -9.8285 C   0  0  0  0  0  0  0  0  0  0  0  0
   25.5785  -22.2983   -8.9831 O   0  0  0  0  0  0  0  0  0  0  0  0
   24.5141  -20.5455   -9.8815 O   0  0  0  0  0  0  0  0  0  0  0  0
  2  1  1  0
  3  2  1  0
  3  4  1  1
  5  6  1  6
  5  3  1  0
  7  5  1  0
  7  8  2  0
  9  7  1  0
 10  9  1  0
 10 21  1  0
 11 12  1  0
 10 11  1  6
 12 20  1  0
 13 14  1  0
 13 12  2  0
 14 15  1  0
 15 20  2  0
 15 16  1  0
 16 17  2  0
 17 18  1  0
 19 18  2  0
 20 19  1  0
 21 22  2  0
 21 23  1  0
 23 24  1  0
 24 35  1  0
 24 25  1  1
 26 25  1  0
 27 26  2  0
 28 27  1  0
 29 28  1  0
 29 34  2  0
 30 29  1  0
 31 30  2  0
 31 32  1  0
 32 33  2  0
 33 34  1  0
 34 26  1  0
 35 37  2  0
 35 36  1  0
M  END
$$$$
