IWW.pdb
     RDKit          3D

 37 40  0  0  1  0  0  0  0  0999 V2000
   29.7300  -18.6494  -16.1655 C   0  0  0  0  0  0  0  0  0  0  0  0
   28.3067  -18.5981  -15.7264 C   0  0  0  0  0  0  0  0  0  0  0  0
   28.0450  -19.3755  -14.4180 C   0  0  2  0  0  0  0  0  0  0  0  0
   28.6885  -20.7221  -14.5170 C   0  0  0  0  0  0  0  0  0  0  0  0
   26.6157  -19.3801  -14.0014 C   0  0  2  0  0  0  0  0  0  0  0  0
   26.0052  -18.1172  -13.8181 N   0  0  0  0  0  0  0  0  0  0  0  0
   26.4935  -20.2816  -12.7963 C   0  0  0  0  0  0  0  0  0  0  0  0
   26.7149  -21.5092  -12.9510 O   0  0  0  0  0  0  0  0  0  0  0  0
   26.1498  -19.7949  -11.5371 N   0  0  0  0  0  0  0  0  0  0  0  0
   25.9453  -20.5543  -10.3497 C   0  0  1  0  0  0  0  0  0  0  0  0
   26.8112  -19.9045   -9.2687 C   0  0  0  0  0  0  0  0  0  0  0  0
   26.7214  -20.5105   -7.9477 C   0  0  0  0  0  0  0  0  0  0  0  0
   26.0690  -21.6261   -7.4978 C   0  0  0  0  0  0  0  0  0  0  0  0
   26.3225  -21.6927   -6.1640 N   0  0  0  0  0  0  0  0  0  0  0  0
   27.0858  -20.7005   -5.7530 C   0  0  0  0  0  0  0  0  0  0  0  0
   27.6215  -20.3204   -4.5161 C   0  0  0  0  0  0  0  0  0  0  0  0
   28.4030  -19.2122   -4.4092 C   0  0  0  0  0  0  0  0  0  0  0  0
   28.6966  -18.4228   -5.4794 C   0  0  0  0  0  0  0  0  0  0  0  0
   28.1720  -18.7870   -6.7076 C   0  0  0  0  0  0  0  0  0  0  0  0
   27.3673  -19.9168   -6.8475 C   0  0  0  0  0  0  0  0  0  0  0  0
   24.5387  -20.7276   -9.9230 C   0  0  0  0  0  0  0  0  0  0  0  0
   24.2045  -21.4118   -8.9129 O   0  0  0  0  0  0  0  0  0  0  0  0
   23.4937  -20.0968  -10.6531 N   0  0  0  0  0  0  0  0  0  0  0  0
   22.0908  -20.1840  -10.4394 C   0  0  1  0  0  0  0  0  0  0  0  0
   21.2780  -19.2292  -11.3340 C   0  0  0  0  0  0  0  0  0  0  0  0
   21.3786  -19.6811  -12.7410 C   0  0  0  0  0  0  0  0  0  0  0  0
   20.9446  -20.9112  -13.2188 C   0  0  0  0  0  0  0  0  0  0  0  0
   21.1993  -20.9650  -14.5098 N   0  0  0  0  0  0  0  0  0  0  0  0
   21.7795  -19.8328  -14.9261 C   0  0  0  0  0  0  0  0  0  0  0  0
   22.2089  -19.4478  -16.1815 C   0  0  0  0  0  0  0  0  0  0  0  0
   22.7783  -18.1971  -16.3490 C   0  0  0  0  0  0  0  0  0  0  0  0
   22.9010  -17.3785  -15.2534 C   0  0  0  0  0  0  0  0  0  0  0  0
   22.4695  -17.7670  -13.9976 C   0  0  0  0  0  0  0  0  0  0  0  0
   21.9009  -19.0105  -13.8294 C   0  0  0  0  0  0  0  0  0  0  0  0
   21.5210  -21.5314  -10.4436 C   0  0  0  0  0  0  0  0  0  0  0  0
   20.3296  -21.8665   -9.8199 O   0  0  0  0  0  0  0  0  0  0  0  0
   22.1130  -22.4788  -11.0272 O   0  0  0  0  0  0  0  0  0  0  0  0
  2  1  1  0
  3  2  1  0
  3  4  1  6
  5  6  1  1
  5  3  1  0
  7  5  1  0
  7  8  2  0
  9  7  1  0
 10  9  1  0
 10 21  1  0
 11 12  1  0
 10 11  1  1
 12 20  1  0
 13 14  1  0
 13 12  2  0
 14 15  1  0
 15 20  2  0
 15 16  1  0
 16 17  2  0
 17 18  1  0
 19 18  2  0
 20 19  1  0
 21 22  2  0
 21 23  1  0
 23 24  1  0
 24 35  1  0
 24 25  1  6
 26 25  1  0
 27 26  2  0
 28 27  1  0
 29 28  1  0
 29 34  2  0
 30 29  1  0
 31 30  2  0
 31 32  1  0
 32 33  2  0
 33 34  1  0
 34 26  1  0
 35 37  2  0
 35 36  1  0
M  END
$$$$
