IWW.pdb
     RDKit          3D

 37 40  0  0  1  0  0  0  0  0999 V2000
   28.1144  -18.1851  -17.9882 C   0  0  0  0  0  0  0  0  0  0  0  0
   28.8113  -19.2003  -17.1486 C   0  0  0  0  0  0  0  0  0  0  0  0
   27.8658  -19.9388  -16.1762 C   0  0  2  0  0  0  0  0  0  0  0  0
   27.2017  -18.9342  -15.2889 C   0  0  0  0  0  0  0  0  0  0  0  0
   28.5063  -21.0852  -15.4750 C   0  0  2  0  0  0  0  0  0  0  0  0
   29.2368  -21.9915  -16.2791 N   0  0  0  0  0  0  0  0  0  0  0  0
   27.4476  -21.7555  -14.6328 C   0  0  0  0  0  0  0  0  0  0  0  0
   26.6416  -22.5327  -15.2041 O   0  0  0  0  0  0  0  0  0  0  0  0
   27.3445  -21.5402  -13.2603 N   0  0  0  0  0  0  0  0  0  0  0  0
   26.4615  -22.1925  -12.3530 C   0  0  1  0  0  0  0  0  0  0  0  0
   27.1195  -22.1055  -10.9745 C   0  0  0  0  0  0  0  0  0  0  0  0
   26.5689  -21.0956  -10.0816 C   0  0  0  0  0  0  0  0  0  0  0  0
   25.3669  -20.4416  -10.0740 C   0  0  0  0  0  0  0  0  0  0  0  0
   25.4137  -19.5895   -9.0161 N   0  0  0  0  0  0  0  0  0  0  0  0
   26.5567  -19.6675   -8.3653 C   0  0  0  0  0  0  0  0  0  0  0  0
   27.0929  -19.0268   -7.2412 C   0  0  0  0  0  0  0  0  0  0  0  0
   28.3390  -19.3380   -6.7935 C   0  0  0  0  0  0  0  0  0  0  0  0
   29.1215  -20.2687   -7.4071 C   0  0  0  0  0  0  0  0  0  0  0  0
   28.6035  -20.9082   -8.5202 C   0  0  0  0  0  0  0  0  0  0  0  0
   27.3300  -20.6094   -9.0024 C   0  0  0  0  0  0  0  0  0  0  0  0
   25.0626  -21.7091  -12.3464 C   0  0  0  0  0  0  0  0  0  0  0  0
   24.1523  -22.2436  -11.6496 O   0  0  0  0  0  0  0  0  0  0  0  0
   24.6973  -20.5854  -13.1382 N   0  0  0  0  0  0  0  0  0  0  0  0
   23.3936  -20.1055  -13.4407 C   0  0  1  0  0  0  0  0  0  0  0  0
   23.3208  -18.5712  -13.5549 C   0  0  0  0  0  0  0  0  0  0  0  0
   21.9233  -18.1729  -13.8417 C   0  0  0  0  0  0  0  0  0  0  0  0
   20.9143  -18.0569  -12.8940 C   0  0  0  0  0  0  0  0  0  0  0  0
   19.8100  -17.6894  -13.5105 N   0  0  0  0  0  0  0  0  0  0  0  0
   20.0249  -17.5489  -14.8243 C   0  0  0  0  0  0  0  0  0  0  0  0
   19.1699  -17.1770  -15.8437 C   0  0  0  0  0  0  0  0  0  0  0  0
   19.6528  -17.0982  -17.1387 C   0  0  0  0  0  0  0  0  0  0  0  0
   20.9731  -17.3984  -17.3673 C   0  0  0  0  0  0  0  0  0  0  0  0
   21.8268  -17.7702  -16.3441 C   0  0  0  0  0  0  0  0  0  0  0  0
   21.3485  -17.8473  -15.0545 C   0  0  0  0  0  0  0  0  0  0  0  0
   22.7116  -20.7553  -14.5600 C   0  0  0  0  0  0  0  0  0  0  0  0
   21.3892  -21.1681  -14.5222 O   0  0  0  0  0  0  0  0  0  0  0  0
   23.3201  -20.9826  -15.6402 O   0  0  0  0  0  0  0  0  0  0  0  0
  2  1  1  0
  3  2  1  0
  3  4  1  1
  5  6  1  6
  5  3  1  0
  7  5  1  0
  7  8  2  0
  9  7  1  0
 10  9  1  0
 10 21  1  0
 11 12  1  0
 10 11  1  1
 12 20  1  0
 13 14  1  0
 13 12  2  0
 14 15  1  0
 15 20  2  0
 15 16  1  0
 16 17  2  0
 17 18  1  0
 19 18  2  0
 20 19  1  0
 21 22  2  0
 21 23  1  0
 23 24  1  0
 24 35  1  0
 24 25  1  6
 26 25  1  0
 27 26  2  0
 28 27  1  0
 29 28  1  0
 29 34  2  0
 30 29  1  0
 31 30  2  0
 31 32  1  0
 32 33  2  0
 33 34  1  0
 34 26  1  0
 35 37  2  0
 35 36  1  0
M  END
$$$$
