KCV.pdb
     RDKit          3D

 23 22  0  0  1  0  0  0  0  0999 V2000
    8.4500  -14.6646   20.4167 N   0  0  0  0  0  0  0  0  0  0  0  0
    7.6381  -15.1720   21.5025 C   0  0  1  0  0  0  0  0  0  0  0  0
    7.7059  -16.6691   21.5486 C   0  0  0  0  0  0  0  0  0  0  0  0
    7.2806  -17.2612   20.2391 C   0  0  0  0  0  0  0  0  0  0  0  0
    7.3583  -18.7738   20.2395 C   0  0  0  0  0  0  0  0  0  0  0  0
    6.7877  -19.3226   18.9425 C   0  0  0  0  0  0  0  0  0  0  0  0
    6.8847  -20.7637   18.9389 N   0  0  0  0  0  0  0  0  0  0  0  0
    8.1069  -14.5502   22.7739 C   0  0  0  0  0  0  0  0  0  0  0  0
    9.3458  -14.5442   23.0555 O   0  0  0  0  0  0  0  0  0  0  0  0
    7.2348  -13.9493   23.7134 N   0  0  0  0  0  0  0  0  0  0  0  0
    7.7178  -13.4324   25.0023 C   0  0  1  0  0  0  0  0  0  0  0  0
    6.6286  -12.6333   25.6930 C   0  0  0  0  0  0  0  0  0  0  0  0
    7.0752  -12.2297   27.3982 S   0  0  0  0  0  0  0  0  0  0  0  0
    8.1162  -14.6099   25.8172 C   0  0  0  0  0  0  0  0  0  0  0  0
    7.3144  -15.5729   26.0569 O   0  0  0  0  0  0  0  0  0  0  0  0
   10.9258  -16.9475   25.3306 C   0  0  0  0  0  0  0  0  0  0  0  0
   11.1180  -16.4670   26.7538 C   0  0  1  0  0  0  0  0  0  0  0  0
   12.1887  -15.4171   26.8463 C   0  0  0  0  0  0  0  0  0  0  0  0
    9.8039  -15.8730   27.2122 C   0  0  2  0  0  0  0  0  0  0  0  0
    9.4146  -14.7423   26.3834 N   0  0  0  0  0  0  0  0  0  0  0  0
    9.8656  -15.4312   28.6248 C   0  0  0  0  0  0  0  0  0  0  0  0
    9.7060  -14.2264   28.9350 O   0  0  0  0  0  0  0  0  0  0  0  0
   10.1016  -16.3372   29.6447 O   0  0  0  0  0  0  0  0  0  0  0  0
  2  8  1  0
  2  1  1  6
  3  2  1  0
  4  3  1  0
  5  4  1  0
  6  7  1  0
  6  5  1  0
  8  9  2  0
 10 11  1  0
 10  8  1  0
 11 12  1  1
 13 12  1  0
 14 15  2  0
 14 11  1  0
 17 16  1  6
 17 19  1  0
 18 17  1  0
 19 20  1  6
 20 14  1  0
 21 23  1  0
 21 19  1  0
 22 21  2  0
M  END
$$$$
