KCV.pdb
     RDKit          3D

 23 22  0  0  1  0  0  0  0  0999 V2000
    8.3553  -16.8879   18.7825 N   0  0  0  0  0  0  0  0  0  0  0  0
    8.4240  -15.5971   19.4343 C   0  0  1  0  0  0  0  0  0  0  0  0
    7.8847  -14.5280   18.5319 C   0  0  0  0  0  0  0  0  0  0  0  0
    8.4454  -14.6670   17.1489 C   0  0  0  0  0  0  0  0  0  0  0  0
    7.8115  -13.6991   16.1714 C   0  0  0  0  0  0  0  0  0  0  0  0
    8.4026  -13.8998   14.7860 C   0  0  0  0  0  0  0  0  0  0  0  0
    7.7382  -13.0314   13.8424 N   0  0  0  0  0  0  0  0  0  0  0  0
    7.6735  -15.6764   20.7202 C   0  0  0  0  0  0  0  0  0  0  0  0
    6.4809  -16.1144   20.7302 O   0  0  0  0  0  0  0  0  0  0  0  0
    8.2209  -15.2838   21.9654 N   0  0  0  0  0  0  0  0  0  0  0  0
    7.5199  -15.5288   23.2344 C   0  0  1  0  0  0  0  0  0  0  0  0
    7.6057  -16.9961   23.6108 C   0  0  0  0  0  0  0  0  0  0  0  0
    9.3149  -17.5147   23.8929 S   0  0  0  0  0  0  0  0  0  0  0  0
    8.1732  -14.6741   24.2601 C   0  0  0  0  0  0  0  0  0  0  0  0
    9.4183  -14.3986   24.2220 O   0  0  0  0  0  0  0  0  0  0  0  0
    6.7606  -11.3242   25.6351 C   0  0  0  0  0  0  0  0  0  0  0  0
    7.1258  -12.1798   26.8300 C   0  0  1  0  0  0  0  0  0  0  0  0
    5.9171  -12.8386   27.4322 C   0  0  0  0  0  0  0  0  0  0  0  0
    8.0806  -13.2493   26.3459 C   0  0  2  0  0  0  0  0  0  0  0  0
    7.4564  -14.1070   25.3503 N   0  0  0  0  0  0  0  0  0  0  0  0
    8.5715  -14.0911   27.4617 C   0  0  0  0  0  0  0  0  0  0  0  0
    8.2588  -15.3028   27.5460 O   0  0  0  0  0  0  0  0  0  0  0  0
    9.3910  -13.5633   28.4448 O   0  0  0  0  0  0  0  0  0  0  0  0
  2  8  1  0
  2  1  1  6
  3  2  1  0
  4  3  1  0
  5  4  1  0
  6  7  1  0
  6  5  1  0
  8  9  2  0
 10 11  1  0
 10  8  1  0
 11 12  1  1
 13 12  1  0
 14 15  2  0
 14 11  1  0
 17 16  1  6
 17 19  1  0
 18 17  1  0
 19 20  1  6
 20 14  1  0
 21 23  1  0
 21 19  1  0
 22 21  2  0
M  END
$$$$
