KCV.pdb
     RDKit          3D

 23 22  0  0  1  0  0  0  0  0999 V2000
    7.9351  -14.1457   20.1650 N   0  0  0  0  0  0  0  0  0  0  0  0
    6.9899  -14.3975   21.2322 C   0  0  1  0  0  0  0  0  0  0  0  0
    6.3683  -15.7522   21.0692 C   0  0  0  0  0  0  0  0  0  0  0  0
    7.4217  -16.8167   21.0090 C   0  0  0  0  0  0  0  0  0  0  0  0
    6.8295  -18.2059   20.8937 C   0  0  0  0  0  0  0  0  0  0  0  0
    7.9401  -19.2320   20.7425 C   0  0  0  0  0  0  0  0  0  0  0  0
    7.3681  -20.5467   20.5679 N   0  0  0  0  0  0  0  0  0  0  0  0
    7.7007  -14.2600   22.5354 C   0  0  0  0  0  0  0  0  0  0  0  0
    8.9316  -14.5637   22.6194 O   0  0  0  0  0  0  0  0  0  0  0  0
    7.0737  -13.7996   23.7183 N   0  0  0  0  0  0  0  0  0  0  0  0
    7.8066  -13.6691   24.9862 C   0  0  1  0  0  0  0  0  0  0  0  0
    6.9971  -12.8621   25.9840 C   0  0  0  0  0  0  0  0  0  0  0  0
    7.8351  -12.7409   27.5819 S   0  0  0  0  0  0  0  0  0  0  0  0
    8.0523  -15.0471   25.4863 C   0  0  0  0  0  0  0  0  0  0  0  0
    7.1178  -15.9097   25.5875 O   0  0  0  0  0  0  0  0  0  0  0  0
   11.8246  -16.7398   25.3924 C   0  0  0  0  0  0  0  0  0  0  0  0
   10.5690  -17.5813   25.4855 C   0  0  1  0  0  0  0  0  0  0  0  0
   10.8481  -18.9323   26.0807 C   0  0  0  0  0  0  0  0  0  0  0  0
    9.5938  -16.8421   26.3757 C   0  0  2  0  0  0  0  0  0  0  0  0
    9.3422  -15.4959   25.8845 N   0  0  0  0  0  0  0  0  0  0  0  0
   10.0820  -16.7579   27.7718 C   0  0  0  0  0  0  0  0  0  0  0  0
   10.4166  -15.6596   28.2767 O   0  0  0  0  0  0  0  0  0  0  0  0
   10.1830  -17.8913   28.5604 O   0  0  0  0  0  0  0  0  0  0  0  0
  2  8  1  0
  2  1  1  6
  3  2  1  0
  4  3  1  0
  5  4  1  0
  6  7  1  0
  6  5  1  0
  8  9  2  0
 10 11  1  0
 10  8  1  0
 11 12  1  1
 13 12  1  0
 14 15  2  0
 14 11  1  0
 17 16  1  1
 17 19  1  0
 18 17  1  0
 19 20  1  6
 20 14  1  0
 21 23  1  0
 21 19  1  0
 22 21  2  0
M  END
$$$$
