KCV.pdb
     RDKit          3D

 23 22  0  0  1  0  0  0  0  0999 V2000
    7.0626  -20.0952   20.7444 N   0  0  0  0  0  0  0  0  0  0  0  0
    8.0280  -19.4718   21.6247 C   0  0  1  0  0  0  0  0  0  0  0  0
    9.0982  -18.7903   20.8257 C   0  0  0  0  0  0  0  0  0  0  0  0
    9.5093  -19.6352   19.6580 C   0  0  0  0  0  0  0  0  0  0  0  0
   10.4943  -18.9249   18.7528 C   0  0  0  0  0  0  0  0  0  0  0  0
   10.7726  -19.7729   17.5229 C   0  0  0  0  0  0  0  0  0  0  0  0
   11.5503  -19.0124   16.5728 N   0  0  0  0  0  0  0  0  0  0  0  0
    7.3071  -18.5228   22.5206 C   0  0  0  0  0  0  0  0  0  0  0  0
    6.0761  -18.2783   22.3231 O   0  0  0  0  0  0  0  0  0  0  0  0
    7.9246  -17.8585   23.6077 N   0  0  0  0  0  0  0  0  0  0  0  0
    7.1775  -16.9477   24.4875 C   0  0  1  0  0  0  0  0  0  0  0  0
    6.5353  -17.7199   25.6248 C   0  0  0  0  0  0  0  0  0  0  0  0
    7.7748  -18.4664   26.7093 S   0  0  0  0  0  0  0  0  0  0  0  0
    8.1512  -15.9491   25.0014 C   0  0  0  0  0  0  0  0  0  0  0  0
    9.2310  -16.2925   25.5877 O   0  0  0  0  0  0  0  0  0  0  0  0
    6.9545  -12.0467   27.4896 C   0  0  0  0  0  0  0  0  0  0  0  0
    6.7262  -13.0010   26.3361 C   0  0  1  0  0  0  0  0  0  0  0  0
    6.1949  -12.2903   25.1237 C   0  0  0  0  0  0  0  0  0  0  0  0
    8.0612  -13.6268   25.9955 C   0  0  2  0  0  0  0  0  0  0  0  0
    7.9455  -14.5471   24.8746 N   0  0  0  0  0  0  0  0  0  0  0  0
    8.6372  -14.3520   27.1517 C   0  0  0  0  0  0  0  0  0  0  0  0
    9.6996  -13.9661   27.6954 O   0  0  0  0  0  0  0  0  0  0  0  0
    8.0180  -15.4784   27.6660 O   0  0  0  0  0  0  0  0  0  0  0  0
  2  8  1  0
  2  1  1  6
  3  2  1  0
  4  3  1  0
  5  4  1  0
  6  7  1  0
  6  5  1  0
  8  9  2  0
 10 11  1  0
 10  8  1  0
 11 12  1  1
 13 12  1  0
 14 15  2  0
 14 11  1  0
 17 16  1  1
 17 19  1  0
 18 17  1  0
 19 20  1  6
 20 14  1  0
 21 23  1  0
 21 19  1  0
 22 21  2  0
M  END
$$$$
