KCV.pdb
     RDKit          3D

 23 22  0  0  1  0  0  0  0  0999 V2000
    7.4346  -17.3283   19.2379 N   0  0  0  0  0  0  0  0  0  0  0  0
    8.2514  -16.5184   20.1170 C   0  0  1  0  0  0  0  0  0  0  0  0
    8.5745  -15.2066   19.4667 C   0  0  0  0  0  0  0  0  0  0  0  0
    7.4330  -14.7400   18.6148 C   0  0  0  0  0  0  0  0  0  0  0  0
    7.7213  -13.4135   17.9432 C   0  0  0  0  0  0  0  0  0  0  0  0
    8.8430  -13.5777   16.9312 C   0  0  0  0  0  0  0  0  0  0  0  0
    8.3417  -14.2451   15.7525 N   0  0  0  0  0  0  0  0  0  0  0  0
    7.5250  -16.3408   21.4067 C   0  0  0  0  0  0  0  0  0  0  0  0
    6.2547  -16.3198   21.4192 O   0  0  0  0  0  0  0  0  0  0  0  0
    8.1792  -16.1900   22.6532 N   0  0  0  0  0  0  0  0  0  0  0  0
    7.4373  -16.1661   23.9224 C   0  0  1  0  0  0  0  0  0  0  0  0
    7.3941  -17.5533   24.5355 C   0  0  0  0  0  0  0  0  0  0  0  0
    9.0433  -18.2871   24.6452 S   0  0  0  0  0  0  0  0  0  0  0  0
    8.1405  -15.2081   24.8152 C   0  0  0  0  0  0  0  0  0  0  0  0
    9.4091  -15.0734   24.8024 O   0  0  0  0  0  0  0  0  0  0  0  0
    7.0295  -11.5106   25.6260 C   0  0  0  0  0  0  0  0  0  0  0  0
    7.2612  -12.2430   26.9310 C   0  0  1  0  0  0  0  0  0  0  0  0
    5.9710  -12.7108   27.5425 C   0  0  0  0  0  0  0  0  0  0  0  0
    8.1277  -13.4458   26.6272 C   0  0  2  0  0  0  0  0  0  0  0  0
    7.4486  -14.3792   25.7414 N   0  0  0  0  0  0  0  0  0  0  0  0
    8.5239  -14.1615   27.8623 C   0  0  0  0  0  0  0  0  0  0  0  0
    8.1202  -15.3260   28.0949 O   0  0  0  0  0  0  0  0  0  0  0  0
    9.3526  -13.5641   28.7967 O   0  0  0  0  0  0  0  0  0  0  0  0
  2  8  1  0
  2  1  1  6
  3  2  1  0
  4  3  1  0
  5  4  1  0
  6  7  1  0
  6  5  1  0
  8  9  2  0
 10 11  1  0
 10  8  1  0
 11 12  1  1
 13 12  1  0
 14 15  2  0
 14 11  1  0
 17 16  1  6
 17 19  1  0
 18 17  1  0
 19 20  1  6
 20 14  1  0
 21 23  1  0
 21 19  1  0
 22 21  2  0
M  END
$$$$
