KCV.pdb
     RDKit          3D

 23 22  0  0  1  0  0  0  0  0999 V2000
    5.8189  -20.4731   21.5246 N   0  0  0  0  0  0  0  0  0  0  0  0
    5.6789  -19.0328   21.4800 C   0  0  1  0  0  0  0  0  0  0  0  0
    4.4706  -18.6511   20.6786 C   0  0  0  0  0  0  0  0  0  0  0  0
    3.4207  -19.7178   20.7588 C   0  0  0  0  0  0  0  0  0  0  0  0
    2.2094  -19.3976   19.9078 C   0  0  0  0  0  0  0  0  0  0  0  0
    1.1629  -20.4882   20.0643 C   0  0  0  0  0  0  0  0  0  0  0  0
    0.0360  -20.2089   19.2051 N   0  0  0  0  0  0  0  0  0  0  0  0
    5.6086  -18.5212   22.8785 C   0  0  0  0  0  0  0  0  0  0  0  0
    4.6768  -18.9122   23.6487 O   0  0  0  0  0  0  0  0  0  0  0  0
    6.5403  -17.6017   23.4179 N   0  0  0  0  0  0  0  0  0  0  0  0
    6.4653  -17.1483   24.8145 C   0  0  1  0  0  0  0  0  0  0  0  0
    6.9704  -18.2311   25.7496 C   0  0  0  0  0  0  0  0  0  0  0  0
    8.7661  -18.4187   25.6465 S   0  0  0  0  0  0  0  0  0  0  0  0
    7.2994  -15.9222   24.9153 C   0  0  0  0  0  0  0  0  0  0  0  0
    8.2889  -15.7080   24.1390 O   0  0  0  0  0  0  0  0  0  0  0  0
    5.9752  -12.6242   27.1679 C   0  0  0  0  0  0  0  0  0  0  0  0
    6.8844  -12.4627   25.9677 C   0  0  1  0  0  0  0  0  0  0  0  0
    7.7135  -11.2133   26.0626 C   0  0  0  0  0  0  0  0  0  0  0  0
    7.8043  -13.6636   25.9319 C   0  0  2  0  0  0  0  0  0  0  0  0
    7.0516  -14.9076   25.8813 N   0  0  0  0  0  0  0  0  0  0  0  0
    8.7060  -13.6982   27.1068 C   0  0  0  0  0  0  0  0  0  0  0  0
    8.5958  -14.5890   27.9829 O   0  0  0  0  0  0  0  0  0  0  0  0
    9.6977  -12.7463   27.2716 O   0  0  0  0  0  0  0  0  0  0  0  0
  2  8  1  0
  2  1  1  1
  3  2  1  0
  4  3  1  0
  5  4  1  0
  6  7  1  0
  6  5  1  0
  8  9  2  0
 10 11  1  0
 10  8  1  0
 11 12  1  1
 13 12  1  0
 14 15  2  0
 14 11  1  0
 17 16  1  1
 17 19  1  0
 18 17  1  0
 19 20  1  1
 20 14  1  0
 21 23  1  0
 21 19  1  0
 22 21  2  0
M  END
$$$$
