KCV.pdb
     RDKit          3D

 23 22  0  0  1  0  0  0  0  0999 V2000
    8.0993  -12.3875   19.7783 N   0  0  0  0  0  0  0  0  0  0  0  0
    7.6876  -13.6768   20.2922 C   0  0  1  0  0  0  0  0  0  0  0  0
    8.2595  -14.7795   19.4525 C   0  0  0  0  0  0  0  0  0  0  0  0
    7.5685  -14.8495   18.1244 C   0  0  0  0  0  0  0  0  0  0  0  0
    7.9630  -16.0805   17.3351 C   0  0  0  0  0  0  0  0  0  0  0  0
    7.1616  -16.1485   16.0458 C   0  0  0  0  0  0  0  0  0  0  0  0
    7.4254  -17.3993   15.3736 N   0  0  0  0  0  0  0  0  0  0  0  0
    8.1165  -13.7767   21.7166 C   0  0  0  0  0  0  0  0  0  0  0  0
    9.3273  -13.5522   22.0295 O   0  0  0  0  0  0  0  0  0  0  0  0
    7.2357  -14.1154   22.7719 N   0  0  0  0  0  0  0  0  0  0  0  0
    7.7054  -14.2716   24.1564 C   0  0  1  0  0  0  0  0  0  0  0  0
    6.5867  -13.9589   25.1325 C   0  0  0  0  0  0  0  0  0  0  0  0
    6.1969  -12.1932   25.1589 S   0  0  0  0  0  0  0  0  0  0  0  0
    8.1637  -15.6782   24.3003 C   0  0  0  0  0  0  0  0  0  0  0  0
    7.4541  -16.6665   23.9163 O   0  0  0  0  0  0  0  0  0  0  0  0
   10.7626  -17.5808   22.8294 C   0  0  0  0  0  0  0  0  0  0  0  0
   11.1049  -17.7035   24.2994 C   0  0  1  0  0  0  0  0  0  0  0  0
   12.1858  -16.7402   24.7008 C   0  0  0  0  0  0  0  0  0  0  0  0
    9.8494  -17.3909   25.0842 C   0  0  2  0  0  0  0  0  0  0  0  0
    9.4206  -16.0165   24.8743 N   0  0  0  0  0  0  0  0  0  0  0  0
   10.0406  -17.6154   26.5359 C   0  0  0  0  0  0  0  0  0  0  0  0
    9.9575  -16.6691   27.3549 O   0  0  0  0  0  0  0  0  0  0  0  0
   10.3171  -18.8784   27.0308 O   0  0  0  0  0  0  0  0  0  0  0  0
  2  8  1  0
  2  1  1  6
  3  2  1  0
  4  3  1  0
  5  4  1  0
  6  7  1  0
  6  5  1  0
  8  9  2  0
 10 11  1  0
 10  8  1  0
 11 12  1  1
 13 12  1  0
 14 15  2  0
 14 11  1  0
 17 16  1  6
 17 19  1  0
 18 17  1  0
 19 20  1  1
 20 14  1  0
 21 23  1  0
 21 19  1  0
 22 21  2  0
M  END
$$$$
