KCV.pdb
     RDKit          3D

 23 22  0  0  1  0  0  0  0  0999 V2000
    7.7733  -14.0522   20.0203 N   0  0  0  0  0  0  0  0  0  0  0  0
    7.8051  -15.0782   21.0411 C   0  0  1  0  0  0  0  0  0  0  0  0
    8.7709  -16.1607   20.6623 C   0  0  0  0  0  0  0  0  0  0  0  0
    8.6082  -16.5379   19.2210 C   0  0  0  0  0  0  0  0  0  0  0  0
    9.4188  -17.7630   18.8521 C   0  0  0  0  0  0  0  0  0  0  0  0
    9.0789  -18.2031   17.4379 C   0  0  0  0  0  0  0  0  0  0  0  0
    9.8174  -19.4000   17.1095 N   0  0  0  0  0  0  0  0  0  0  0  0
    8.1595  -14.4405   22.3413 C   0  0  0  0  0  0  0  0  0  0  0  0
    9.0649  -13.5501   22.3828 O   0  0  0  0  0  0  0  0  0  0  0  0
    7.5336  -14.7734   23.5668 N   0  0  0  0  0  0  0  0  0  0  0  0
    7.8842  -14.1010   24.8264 C   0  0  1  0  0  0  0  0  0  0  0  0
    6.6404  -13.8615   25.6617 C   0  0  0  0  0  0  0  0  0  0  0  0
    5.8261  -15.4132   26.1078 S   0  0  0  0  0  0  0  0  0  0  0  0
    8.8430  -14.9875   25.5363 C   0  0  0  0  0  0  0  0  0  0  0  0
    9.1816  -16.1284   25.0766 O   0  0  0  0  0  0  0  0  0  0  0  0
   11.4820  -13.3798   28.2744 C   0  0  0  0  0  0  0  0  0  0  0  0
   10.9952  -14.7584   28.6690 C   0  0  1  0  0  0  0  0  0  0  0  0
    9.8902  -14.6882   29.6845 C   0  0  0  0  0  0  0  0  0  0  0  0
   10.4729  -15.4294   27.4172 C   0  0  2  0  0  0  0  0  0  0  0  0
    9.4462  -14.6248   26.7727 N   0  0  0  0  0  0  0  0  0  0  0  0
    9.9165  -16.7715   27.7066 C   0  0  0  0  0  0  0  0  0  0  0  0
    8.6814  -16.9851   27.6611 O   0  0  0  0  0  0  0  0  0  0  0  0
   10.7456  -17.8301   28.0360 O   0  0  0  0  0  0  0  0  0  0  0  0
  2  8  1  0
  2  1  1  6
  3  2  1  0
  4  3  1  0
  5  4  1  0
  6  7  1  0
  6  5  1  0
  8  9  2  0
 10 11  1  0
 10  8  1  0
 11 12  1  1
 13 12  1  0
 14 15  2  0
 14 11  1  0
 17 16  1  6
 17 19  1  0
 18 17  1  0
 19 20  1  1
 20 14  1  0
 21 23  1  0
 21 19  1  0
 22 21  2  0
M  END
$$$$
