KCV.pdb
     RDKit          3D

 23 22  0  0  1  0  0  0  0  0999 V2000
    9.1240  -15.3261   20.4594 N   0  0  0  0  0  0  0  0  0  0  0  0
    8.2650  -15.8238   21.5131 C   0  0  1  0  0  0  0  0  0  0  0  0
    8.5032  -17.2878   21.7321 C   0  0  0  0  0  0  0  0  0  0  0  0
    7.9008  -18.0961   20.6229 C   0  0  0  0  0  0  0  0  0  0  0  0
    7.9993  -19.5858   20.8780 C   0  0  0  0  0  0  0  0  0  0  0  0
    7.3553  -20.3514   19.7342 C   0  0  0  0  0  0  0  0  0  0  0  0
    7.3091  -21.7588   20.0551 N   0  0  0  0  0  0  0  0  0  0  0  0
    8.5175  -15.0242   22.7459 C   0  0  0  0  0  0  0  0  0  0  0  0
    9.7043  -14.6858   23.0480 O   0  0  0  0  0  0  0  0  0  0  0  0
    7.4901  -14.6066   23.6258 N   0  0  0  0  0  0  0  0  0  0  0  0
    7.7746  -13.8209   24.8356 C   0  0  1  0  0  0  0  0  0  0  0  0
    6.5405  -13.0518   25.2686 C   0  0  0  0  0  0  0  0  0  0  0  0
    6.7349  -12.3547   26.9258 S   0  0  0  0  0  0  0  0  0  0  0  0
    8.2008  -14.7835   25.8849 C   0  0  0  0  0  0  0  0  0  0  0  0
    7.4983  -15.8010   26.1991 O   0  0  0  0  0  0  0  0  0  0  0  0
   11.1620  -16.8333   26.0325 C   0  0  0  0  0  0  0  0  0  0  0  0
   11.2210  -16.1147   27.3641 C   0  0  1  0  0  0  0  0  0  0  0  0
   12.2035  -14.9783   27.3394 C   0  0  0  0  0  0  0  0  0  0  0  0
    9.8389  -15.5658   27.6439 C   0  0  2  0  0  0  0  0  0  0  0  0
    9.4173  -14.6358   26.6075 N   0  0  0  0  0  0  0  0  0  0  0  0
    9.7770  -14.8799   28.9554 C   0  0  0  0  0  0  0  0  0  0  0  0
    9.5241  -13.6539   29.0348 O   0  0  0  0  0  0  0  0  0  0  0  0
    9.9969  -15.5738   30.1330 O   0  0  0  0  0  0  0  0  0  0  0  0
  2  8  1  0
  2  1  1  6
  3  2  1  0
  4  3  1  0
  5  4  1  0
  6  7  1  0
  6  5  1  0
  8  9  2  0
 10 11  1  0
 10  8  1  0
 11 12  1  1
 13 12  1  0
 14 15  2  0
 14 11  1  0
 17 16  1  6
 17 19  1  0
 18 17  1  0
 19 20  1  6
 20 14  1  0
 21 23  1  0
 21 19  1  0
 22 21  2  0
M  END
$$$$
