KCV.pdb
     RDKit          3D

 23 22  0  0  1  0  0  0  0  0999 V2000
    6.9315  -15.0410   20.4716 N   0  0  0  0  0  0  0  0  0  0  0  0
    7.8003  -15.8865   21.2630 C   0  0  1  0  0  0  0  0  0  0  0  0
    8.9585  -16.3614   20.4377 C   0  0  0  0  0  0  0  0  0  0  0  0
    8.5617  -17.5302   19.5875 C   0  0  0  0  0  0  0  0  0  0  0  0
    9.2736  -17.5369   18.2506 C   0  0  0  0  0  0  0  0  0  0  0  0
    8.8337  -18.7413   17.4351 C   0  0  0  0  0  0  0  0  0  0  0  0
    8.1642  -18.2984   16.2345 N   0  0  0  0  0  0  0  0  0  0  0  0
    8.2435  -15.1185   22.4615 C   0  0  0  0  0  0  0  0  0  0  0  0
    9.1181  -14.2050   22.3392 O   0  0  0  0  0  0  0  0  0  0  0  0
    7.7375  -15.3490   23.7635 N   0  0  0  0  0  0  0  0  0  0  0  0
    8.1716  -14.5497   24.9187 C   0  0  1  0  0  0  0  0  0  0  0  0
    6.9688  -14.0174   25.6750 C   0  0  0  0  0  0  0  0  0  0  0  0
    5.8328  -15.3443   26.1428 S   0  0  0  0  0  0  0  0  0  0  0  0
    8.9915  -15.4435   25.7780 C   0  0  0  0  0  0  0  0  0  0  0  0
    9.0138  -16.7087   25.6158 O   0  0  0  0  0  0  0  0  0  0  0  0
   12.3974  -14.0836   27.5612 C   0  0  0  0  0  0  0  0  0  0  0  0
   11.6161  -14.9911   28.4881 C   0  0  1  0  0  0  0  0  0  0  0  0
   10.8176  -14.2072   29.4907 C   0  0  0  0  0  0  0  0  0  0  0  0
   10.6703  -15.8058   27.6327 C   0  0  2  0  0  0  0  0  0  0  0  0
    9.8042  -14.9500   26.8362 N   0  0  0  0  0  0  0  0  0  0  0  0
    9.8280  -16.7069   28.4531 C   0  0  0  0  0  0  0  0  0  0  0  0
    8.5890  -16.5336   28.5424 O   0  0  0  0  0  0  0  0  0  0  0  0
   10.3855  -17.7680   29.1458 O   0  0  0  0  0  0  0  0  0  0  0  0
  2  8  1  0
  2  1  1  6
  3  2  1  0
  4  3  1  0
  5  4  1  0
  6  7  1  0
  6  5  1  0
  8  9  2  0
 10 11  1  0
 10  8  1  0
 11 12  1  1
 13 12  1  0
 14 15  2  0
 14 11  1  0
 17 16  1  6
 17 19  1  0
 18 17  1  0
 19 20  1  1
 20 14  1  0
 21 23  1  0
 21 19  1  0
 22 21  2  0
M  END
$$$$
