KCV.pdb
     RDKit          3D

 23 22  0  0  1  0  0  0  0  0999 V2000
    8.0077  -13.4935   20.1526 N   0  0  0  0  0  0  0  0  0  0  0  0
    7.0932  -14.0209   21.1432 C   0  0  1  0  0  0  0  0  0  0  0  0
    6.7099  -15.4296   20.8012 C   0  0  0  0  0  0  0  0  0  0  0  0
    7.2734  -15.8256   19.4701 C   0  0  0  0  0  0  0  0  0  0  0  0
    6.9356  -17.2563   19.1053 C   0  0  0  0  0  0  0  0  0  0  0  0
    7.4716  -17.5786   17.7204 C   0  0  0  0  0  0  0  0  0  0  0  0
    7.2355  -18.9711   17.4186 N   0  0  0  0  0  0  0  0  0  0  0  0
    7.7409  -13.9256   22.4826 C   0  0  0  0  0  0  0  0  0  0  0  0
    8.9885  -14.1363   22.5981 O   0  0  0  0  0  0  0  0  0  0  0  0
    7.0342  -13.6063   23.6671 N   0  0  0  0  0  0  0  0  0  0  0  0
    7.7085  -13.4978   24.9691 C   0  0  1  0  0  0  0  0  0  0  0  0
    6.8371  -12.7413   25.9542 C   0  0  0  0  0  0  0  0  0  0  0  0
    7.5357  -12.7682   27.6220 S   0  0  0  0  0  0  0  0  0  0  0  0
    7.9668  -14.8844   25.4381 C   0  0  0  0  0  0  0  0  0  0  0  0
    7.0531  -15.7744   25.4627 O   0  0  0  0  0  0  0  0  0  0  0  0
   11.7430  -16.4850   25.3273 C   0  0  0  0  0  0  0  0  0  0  0  0
   10.5052  -17.3554   25.3888 C   0  0  1  0  0  0  0  0  0  0  0  0
   10.8148  -18.7250   25.9231 C   0  0  0  0  0  0  0  0  0  0  0  0
    9.5198  -16.6759   26.3145 C   0  0  2  0  0  0  0  0  0  0  0  0
    9.2464  -15.3114   25.8898 N   0  0  0  0  0  0  0  0  0  0  0  0
   10.0084  -16.6523   27.7128 C   0  0  0  0  0  0  0  0  0  0  0  0
   10.1824  -17.7143   28.3570 O   0  0  0  0  0  0  0  0  0  0  0  0
   10.2875  -15.4550   28.3495 O   0  0  0  0  0  0  0  0  0  0  0  0
  2  8  1  0
  2  1  1  6
  3  2  1  0
  4  3  1  0
  5  4  1  0
  6  7  1  0
  6  5  1  0
  8  9  2  0
 10 11  1  0
 10  8  1  0
 11 12  1  1
 13 12  1  0
 14 15  2  0
 14 11  1  0
 17 16  1  1
 17 19  1  0
 18 17  1  0
 19 20  1  6
 20 14  1  0
 21 23  1  0
 21 19  1  0
 22 21  2  0
M  END
$$$$
