NDG.pdb
     RDKit          3D

 21 20  0  0  1  0  0  0  0  0999 V2000
   17.5182  -13.4069  -15.7842 N   0  0  0  0  0  0  0  0  0  0  0  0
   17.2864  -13.1934  -14.3742 C   0  0  0  0  0  0  0  0  0  0  0  0
   17.1173  -14.2318  -13.7099 O   0  0  0  0  0  0  0  0  0  0  0  0
   17.2581  -11.8594  -13.8023 C   0  0  0  0  0  0  0  0  0  0  0  0
   17.4982  -10.7138  -14.7666 C   0  0  2  0  0  0  0  0  0  0  0  0
   18.9205  -10.9128  -15.1819 N   0  0  0  0  0  0  0  0  0  0  0  0
   17.5063   -9.4529  -13.9858 C   0  0  0  0  0  0  0  0  0  0  0  0
   16.4326   -9.1553  -13.3660 O   0  0  0  0  0  0  0  0  0  0  0  0
   18.5612   -8.5488  -13.8462 N   0  0  0  0  0  0  0  0  0  0  0  0
   18.3893   -7.3185  -13.0627 C   0  0  1  0  0  0  0  0  0  0  0  0
   18.0552   -7.5881  -11.6396 C   0  0  0  0  0  0  0  0  0  0  0  0
   17.8983   -6.3885  -10.8115 C   0  0  0  0  0  0  0  0  0  0  0  0
   17.7435   -5.2268  -11.2070 O   0  0  0  0  0  0  0  0  0  0  0  0
   19.6022   -6.4734  -13.1838 C   0  0  0  0  0  0  0  0  0  0  0  0
   20.6557   -6.6914  -12.5360 O   0  0  0  0  0  0  0  0  0  0  0  0
   17.9274   -6.5821   -9.4169 O   0  0  0  0  0  0  0  0  0  0  0  0
   19.5718   -5.3658  -14.0737 N   0  0  0  0  0  0  0  0  0  0  0  0
   20.7155   -4.5258  -14.3288 C   0  0  0  0  0  0  0  0  0  0  0  0
   20.7905   -3.4983  -13.2663 C   0  0  0  0  0  0  0  0  0  0  0  0
   21.6824   -2.6201  -13.3238 O   0  0  0  0  0  0  0  0  0  0  0  0
   19.9014   -3.4693  -12.1962 O   0  0  0  0  0  0  0  0  0  0  0  0
  2  1  1  0
  3  2  2  0
  4  2  1  0
  5  4  1  0
  5  6  1  1
  7  5  1  0
  7  9  1  0
  8  7  2  0
 10  9  1  0
 10 14  1  0
 10 11  1  1
 12 11  1  0
 12 13  2  0
 14 15  2  0
 14 17  1  0
 16 12  1  0
 17 18  1  0
 18 19  1  0
 19 21  1  0
 20 19  2  0
M  END
$$$$
