NDG.pdb
     RDKit          3D

 21 20  0  0  1  0  0  0  0  0999 V2000
   25.3670  -10.5855  -15.4614 N   0  0  0  0  0  0  0  0  0  0  0  0
   23.9395  -10.6959  -15.6543 C   0  0  0  0  0  0  0  0  0  0  0  0
   23.4817  -11.8450  -15.5184 O   0  0  0  0  0  0  0  0  0  0  0  0
   23.1251   -9.5394  -15.9809 C   0  0  0  0  0  0  0  0  0  0  0  0
   21.6601   -9.8119  -16.2625 C   0  0  2  0  0  0  0  0  0  0  0  0
   21.6746  -10.3258  -17.6663 N   0  0  0  0  0  0  0  0  0  0  0  0
   20.9600   -8.5071  -16.3459 C   0  0  0  0  0  0  0  0  0  0  0  0
   20.9987   -7.9064  -17.4699 O   0  0  0  0  0  0  0  0  0  0  0  0
   20.2555   -7.8565  -15.3310 N   0  0  0  0  0  0  0  0  0  0  0  0
   19.4688   -6.6514  -15.6245 C   0  0  1  0  0  0  0  0  0  0  0  0
   18.0528   -6.7720  -15.1888 C   0  0  0  0  0  0  0  0  0  0  0  0
   17.2531   -7.7221  -15.9681 C   0  0  0  0  0  0  0  0  0  0  0  0
   17.2961   -7.9028  -17.1909 O   0  0  0  0  0  0  0  0  0  0  0  0
   20.1230   -5.4659  -15.0191 C   0  0  0  0  0  0  0  0  0  0  0  0
   19.6345   -4.3105  -15.0772 O   0  0  0  0  0  0  0  0  0  0  0  0
   16.3388   -8.5122  -15.2448 O   0  0  0  0  0  0  0  0  0  0  0  0
   21.3595   -5.6448  -14.3419 N   0  0  0  0  0  0  0  0  0  0  0  0
   22.0275   -4.5873  -13.6247 C   0  0  0  0  0  0  0  0  0  0  0  0
   22.6279   -3.6585  -14.6082 C   0  0  0  0  0  0  0  0  0  0  0  0
   22.5103   -3.9006  -15.8319 O   0  0  0  0  0  0  0  0  0  0  0  0
   23.3243   -2.5168  -14.2235 O   0  0  0  0  0  0  0  0  0  0  0  0
  2  1  1  0
  3  2  2  0
  4  2  1  0
  5  4  1  0
  5  6  1  6
  7  5  1  0
  7  9  1  0
  8  7  2  0
 10  9  1  0
 10 14  1  0
 10 11  1  1
 12 11  1  0
 12 13  2  0
 14 15  2  0
 14 17  1  0
 16 12  1  0
 17 18  1  0
 18 19  1  0
 19 21  1  0
 20 19  2  0
M  END
$$$$
