NDG.pdb
     RDKit          3D

 21 20  0  0  1  0  0  0  0  0999 V2000
   22.4574   -6.9134  -15.0615 N   0  0  0  0  0  0  0  0  0  0  0  0
   21.8550   -8.0048  -14.3314 C   0  0  0  0  0  0  0  0  0  0  0  0
   21.1701   -7.6617  -13.3507 O   0  0  0  0  0  0  0  0  0  0  0  0
   22.0497   -9.3864  -14.7323 C   0  0  0  0  0  0  0  0  0  0  0  0
   23.0747   -9.6272  -15.8237 C   0  0  2  0  0  0  0  0  0  0  0  0
   22.3729   -9.1579  -17.0575 N   0  0  0  0  0  0  0  0  0  0  0  0
   23.2150  -11.0926  -16.0040 C   0  0  0  0  0  0  0  0  0  0  0  0
   22.5047  -11.6286  -16.9172 O   0  0  0  0  0  0  0  0  0  0  0  0
   24.0426  -11.9597  -15.2878 N   0  0  0  0  0  0  0  0  0  0  0  0
   24.1493  -13.3737  -15.6704 C   0  0  1  0  0  0  0  0  0  0  0  0
   25.5069  -13.9303  -15.4320 C   0  0  0  0  0  0  0  0  0  0  0  0
   25.6911  -15.3092  -15.8946 C   0  0  0  0  0  0  0  0  0  0  0  0
   24.8380  -16.0405  -16.4115 O   0  0  0  0  0  0  0  0  0  0  0  0
   23.1089  -14.1632  -14.9675 C   0  0  0  0  0  0  0  0  0  0  0  0
   22.7996  -13.9712  -13.7656 O   0  0  0  0  0  0  0  0  0  0  0  0
   26.9780  -15.8577  -15.7317 O   0  0  0  0  0  0  0  0  0  0  0  0
   22.4300  -15.1840  -15.6864 N   0  0  0  0  0  0  0  0  0  0  0  0
   21.4267  -16.0334  -15.0942 C   0  0  0  0  0  0  0  0  0  0  0  0
   20.1162  -15.3532  -15.1942 C   0  0  0  0  0  0  0  0  0  0  0  0
   20.0278  -14.2833  -15.8403 O   0  0  0  0  0  0  0  0  0  0  0  0
   18.9679  -15.8599  -14.5931 O   0  0  0  0  0  0  0  0  0  0  0  0
  2  1  1  0
  3  2  2  0
  4  2  1  0
  5  4  1  0
  5  6  1  6
  7  5  1  0
  7  9  1  0
  8  7  2  0
 10  9  1  0
 10 14  1  0
 10 11  1  1
 12 11  1  0
 12 13  2  0
 14 15  2  0
 14 17  1  0
 16 12  1  0
 17 18  1  0
 18 19  1  0
 19 21  1  0
 20 19  2  0
M  END
$$$$
