NDG.pdb
     RDKit          3D

 21 20  0  0  1  0  0  0  0  0999 V2000
   15.2807  -11.1349  -15.0396 N   0  0  0  0  0  0  0  0  0  0  0  0
   14.4678  -10.2968  -14.1887 C   0  0  0  0  0  0  0  0  0  0  0  0
   13.2766  -10.6448  -14.0977 O   0  0  0  0  0  0  0  0  0  0  0  0
   15.0230   -9.1432  -13.5042 C   0  0  0  0  0  0  0  0  0  0  0  0
   16.4898   -8.8562  -13.7609 C   0  0  2  0  0  0  0  0  0  0  0  0
   17.1852   -9.9421  -13.0043 N   0  0  0  0  0  0  0  0  0  0  0  0
   16.8444   -7.6087  -13.0414 C   0  0  0  0  0  0  0  0  0  0  0  0
   16.3204   -6.5293  -13.4726 O   0  0  0  0  0  0  0  0  0  0  0  0
   17.6883   -7.4777  -11.9368 N   0  0  0  0  0  0  0  0  0  0  0  0
   17.9835   -6.1519  -11.3777 C   0  0  1  0  0  0  0  0  0  0  0  0
   17.7849   -6.0943   -9.9057 C   0  0  0  0  0  0  0  0  0  0  0  0
   16.3950   -5.8935   -9.4846 C   0  0  0  0  0  0  0  0  0  0  0  0
   15.4268   -5.6408  -10.2117 O   0  0  0  0  0  0  0  0  0  0  0  0
   19.3583   -5.7433  -11.7555 C   0  0  0  0  0  0  0  0  0  0  0  0
   19.8510   -4.6305  -11.4455 O   0  0  0  0  0  0  0  0  0  0  0  0
   16.1373   -6.0001   -8.1042 O   0  0  0  0  0  0  0  0  0  0  0  0
   20.1556   -6.6521  -12.5025 N   0  0  0  0  0  0  0  0  0  0  0  0
   21.5497   -6.4261  -12.7923 C   0  0  0  0  0  0  0  0  0  0  0  0
   21.6469   -5.5662  -13.9929 C   0  0  0  0  0  0  0  0  0  0  0  0
   21.1112   -5.9417  -15.0615 O   0  0  0  0  0  0  0  0  0  0  0  0
   22.3161   -4.3462  -13.9813 O   0  0  0  0  0  0  0  0  0  0  0  0
  2  1  1  0
  3  2  2  0
  4  2  1  0
  5  4  1  0
  5  6  1  1
  7  5  1  0
  7  9  1  0
  8  7  2  0
 10  9  1  0
 10 14  1  0
 10 11  1  1
 12 11  1  0
 12 13  2  0
 14 15  2  0
 14 17  1  0
 16 12  1  0
 17 18  1  0
 18 19  1  0
 19 21  1  0
 20 19  2  0
M  END
$$$$
