NDG.pdb
     RDKit          3D

 21 20  0  0  1  0  0  0  0  0999 V2000
   15.6975  -11.4194  -15.7615 N   0  0  0  0  0  0  0  0  0  0  0  0
   16.4022  -10.6346  -14.7742 C   0  0  0  0  0  0  0  0  0  0  0  0
   15.6931  -10.2037  -13.8469 O   0  0  0  0  0  0  0  0  0  0  0  0
   17.8281  -10.3832  -14.8797 C   0  0  0  0  0  0  0  0  0  0  0  0
   18.5016  -10.8766  -16.1457 C   0  0  2  0  0  0  0  0  0  0  0  0
   18.7128  -12.3312  -15.8724 N   0  0  0  0  0  0  0  0  0  0  0  0
   19.8670  -10.2995  -16.1920 C   0  0  0  0  0  0  0  0  0  0  0  0
   20.7458  -10.8455  -15.4470 O   0  0  0  0  0  0  0  0  0  0  0  0
   20.3066   -9.2227  -16.9645 N   0  0  0  0  0  0  0  0  0  0  0  0
   21.7358   -8.8920  -17.0371 C   0  0  1  0  0  0  0  0  0  0  0  0
   22.2388   -8.8302  -18.4344 C   0  0  0  0  0  0  0  0  0  0  0  0
   22.3413  -10.1302  -19.1044 C   0  0  0  0  0  0  0  0  0  0  0  0
   22.2285  -10.3536  -20.3157 O   0  0  0  0  0  0  0  0  0  0  0  0
   21.9946   -7.6245  -16.3114 C   0  0  0  0  0  0  0  0  0  0  0  0
   23.1265   -7.0830  -16.2621 O   0  0  0  0  0  0  0  0  0  0  0  0
   22.5952  -11.2421  -18.2783 O   0  0  0  0  0  0  0  0  0  0  0  0
   20.9123   -6.9930  -15.6409 N   0  0  0  0  0  0  0  0  0  0  0  0
   21.0078   -5.6830  -15.0464 C   0  0  0  0  0  0  0  0  0  0  0  0
   21.7296   -5.8020  -13.7599 C   0  0  0  0  0  0  0  0  0  0  0  0
   22.1640   -6.9212  -13.4013 O   0  0  0  0  0  0  0  0  0  0  0  0
   21.9465   -4.7097  -12.9254 O   0  0  0  0  0  0  0  0  0  0  0  0
  2  1  1  0
  3  2  2  0
  4  2  1  0
  5  4  1  0
  5  6  1  1
  7  5  1  0
  7  9  1  0
  8  7  2  0
 10  9  1  0
 10 14  1  0
 10 11  1  6
 12 11  1  0
 12 13  2  0
 14 15  2  0
 14 17  1  0
 16 12  1  0
 17 18  1  0
 18 19  1  0
 19 21  1  0
 20 19  2  0
M  END
$$$$
