NDG.pdb
     RDKit          3D

 21 20  0  0  1  0  0  0  0  0999 V2000
   15.2852   -9.2123  -17.8413 N   0  0  0  0  0  0  0  0  0  0  0  0
   16.6295   -9.4800  -17.3846 C   0  0  0  0  0  0  0  0  0  0  0  0
   17.0827  -10.5898  -17.7181 O   0  0  0  0  0  0  0  0  0  0  0  0
   17.3720   -8.5113  -16.5987 C   0  0  0  0  0  0  0  0  0  0  0  0
   18.6188   -9.0274  -15.9066 C   0  0  2  0  0  0  0  0  0  0  0  0
   18.0751   -9.7072  -14.6912 N   0  0  0  0  0  0  0  0  0  0  0  0
   19.3673   -7.8594  -15.3822 C   0  0  0  0  0  0  0  0  0  0  0  0
   19.0518   -7.4528  -14.2157 O   0  0  0  0  0  0  0  0  0  0  0  0
   20.3871   -7.1500  -16.0197 N   0  0  0  0  0  0  0  0  0  0  0  0
   21.0057   -5.9877  -15.3689 C   0  0  1  0  0  0  0  0  0  0  0  0
   22.2648   -6.3324  -14.6581 C   0  0  0  0  0  0  0  0  0  0  0  0
   22.0795   -7.1174  -13.4338 C   0  0  0  0  0  0  0  0  0  0  0  0
   21.6845   -6.7030  -12.3374 O   0  0  0  0  0  0  0  0  0  0  0  0
   21.2236   -4.9117  -16.3663 C   0  0  0  0  0  0  0  0  0  0  0  0
   22.0013   -5.0328  -17.3448 O   0  0  0  0  0  0  0  0  0  0  0  0
   22.3845   -8.4897  -13.5176 O   0  0  0  0  0  0  0  0  0  0  0  0
   20.5203   -3.6869  -16.2081 N   0  0  0  0  0  0  0  0  0  0  0  0
   20.7547   -2.5290  -17.0346 C   0  0  0  0  0  0  0  0  0  0  0  0
   19.8029   -1.4676  -16.6377 C   0  0  0  0  0  0  0  0  0  0  0  0
   18.8874   -1.7366  -15.8257 O   0  0  0  0  0  0  0  0  0  0  0  0
   19.8856   -0.1708  -17.1357 O   0  0  0  0  0  0  0  0  0  0  0  0
  2  1  1  0
  3  2  2  0
  4  2  1  0
  5  4  1  0
  5  6  1  1
  7  5  1  0
  7  9  1  0
  8  7  2  0
 10  9  1  0
 10 14  1  0
 10 11  1  6
 12 11  1  0
 12 13  2  0
 14 15  2  0
 14 17  1  0
 16 12  1  0
 17 18  1  0
 18 19  1  0
 19 21  1  0
 20 19  2  0
M  END
$$$$
