NDG.pdb
     RDKit          3D

 21 20  0  0  1  0  0  0  0  0999 V2000
   17.8260  -11.2766  -18.9751 N   0  0  0  0  0  0  0  0  0  0  0  0
   17.2904   -9.9387  -18.8732 C   0  0  0  0  0  0  0  0  0  0  0  0
   16.4334   -9.6529  -19.7290 O   0  0  0  0  0  0  0  0  0  0  0  0
   17.7353   -9.0185  -17.8423 C   0  0  0  0  0  0  0  0  0  0  0  0
   18.8434   -9.5170  -16.9348 C   0  0  2  0  0  0  0  0  0  0  0  0
   18.1189  -10.3956  -15.9662 N   0  0  0  0  0  0  0  0  0  0  0  0
   19.3189   -8.3714  -16.1219 C   0  0  0  0  0  0  0  0  0  0  0  0
   18.6084   -8.0499  -15.1132 O   0  0  0  0  0  0  0  0  0  0  0  0
   20.4639   -7.6002  -16.3315 N   0  0  0  0  0  0  0  0  0  0  0  0
   20.7873   -6.4862  -15.4306 C   0  0  1  0  0  0  0  0  0  0  0  0
   21.8279   -6.8422  -14.4307 C   0  0  0  0  0  0  0  0  0  0  0  0
   22.1896   -5.7572  -13.5134 C   0  0  0  0  0  0  0  0  0  0  0  0
   22.8448   -4.7432  -13.7825 O   0  0  0  0  0  0  0  0  0  0  0  0
   21.1829   -5.2977  -16.2249 C   0  0  0  0  0  0  0  0  0  0  0  0
   22.0779   -5.3299  -17.1051 O   0  0  0  0  0  0  0  0  0  0  0  0
   21.7423   -5.8857  -12.1842 O   0  0  0  0  0  0  0  0  0  0  0  0
   20.5191   -4.0653  -15.9792 N   0  0  0  0  0  0  0  0  0  0  0  0
   20.8870   -2.8282  -16.6217 C   0  0  0  0  0  0  0  0  0  0  0  0
   20.0296   -1.7472  -16.0862 C   0  0  0  0  0  0  0  0  0  0  0  0
   19.0787   -2.0388  -15.3242 O   0  0  0  0  0  0  0  0  0  0  0  0
   20.2401   -0.4077  -16.3988 O   0  0  0  0  0  0  0  0  0  0  0  0
  2  1  1  0
  3  2  2  0
  4  2  1  0
  5  4  1  0
  5  6  1  1
  7  5  1  0
  7  9  1  0
  8  7  2  0
 10  9  1  0
 10 14  1  0
 10 11  1  1
 12 11  1  0
 12 13  2  0
 14 15  2  0
 14 17  1  0
 16 12  1  0
 17 18  1  0
 18 19  1  0
 19 21  1  0
 20 19  2  0
M  END
$$$$
