NDG.pdb
     RDKit          3D

 21 20  0  0  1  0  0  0  0  0999 V2000
   19.0905  -25.5304  -12.8250 N   0  0  0  0  0  0  0  0  0  0  0  0
   20.4794  -25.9172  -12.7309 C   0  0  0  0  0  0  0  0  0  0  0  0
   20.6700  -27.1097  -12.4312 O   0  0  0  0  0  0  0  0  0  0  0  0
   21.5506  -24.9677  -12.9724 C   0  0  0  0  0  0  0  0  0  0  0  0
   21.1272  -23.5355  -13.2360 C   0  0  2  0  0  0  0  0  0  0  0  0
   20.4725  -23.6170  -14.5776 N   0  0  0  0  0  0  0  0  0  0  0  0
   22.3521  -22.7308  -13.4625 C   0  0  0  0  0  0  0  0  0  0  0  0
   22.9852  -22.3456  -12.4250 O   0  0  0  0  0  0  0  0  0  0  0  0
   22.8991  -22.3458  -14.6882 N   0  0  0  0  0  0  0  0  0  0  0  0
   24.0913  -21.4892  -14.7360 C   0  0  1  0  0  0  0  0  0  0  0  0
   25.1823  -22.0720  -15.5603 C   0  0  0  0  0  0  0  0  0  0  0  0
   26.4869  -21.4247  -15.3920 C   0  0  0  0  0  0  0  0  0  0  0  0
   26.7429  -20.4385  -14.6907 O   0  0  0  0  0  0  0  0  0  0  0  0
   23.7169  -20.1351  -15.2117 C   0  0  0  0  0  0  0  0  0  0  0  0
   24.5593  -19.2307  -15.4341 O   0  0  0  0  0  0  0  0  0  0  0  0
   27.5621  -21.9875  -16.1065 O   0  0  0  0  0  0  0  0  0  0  0  0
   22.3418  -19.8470  -15.4261 N   0  0  0  0  0  0  0  0  0  0  0  0
   21.8668  -18.5712  -15.9010 C   0  0  0  0  0  0  0  0  0  0  0  0
   21.0590  -17.9428  -14.8320 C   0  0  0  0  0  0  0  0  0  0  0  0
   20.9834  -18.4997  -13.7122 O   0  0  0  0  0  0  0  0  0  0  0  0
   20.3737  -16.7469  -15.0238 O   0  0  0  0  0  0  0  0  0  0  0  0
  2  1  1  0
  3  2  2  0
  4  2  1  0
  5  4  1  0
  5  6  1  6
  7  5  1  0
  7  9  1  0
  8  7  2  0
 10  9  1  0
 10 14  1  0
 10 11  1  6
 12 11  1  0
 12 13  2  0
 14 15  2  0
 14 17  1  0
 16 12  1  0
 17 18  1  0
 18 19  1  0
 19 21  1  0
 20 19  2  0
M  END
$$$$
