NDG.pdb
     RDKit          3D

 21 20  0  0  1  0  0  0  0  0999 V2000
   18.2821  -10.9130  -19.4951 N   0  0  0  0  0  0  0  0  0  0  0  0
   17.1559  -10.0081  -19.5104 C   0  0  0  0  0  0  0  0  0  0  0  0
   16.2347  -10.3343  -20.2806 O   0  0  0  0  0  0  0  0  0  0  0  0
   17.1268   -8.8170  -18.6810 C   0  0  0  0  0  0  0  0  0  0  0  0
   18.3499   -8.5739  -17.8180 C   0  0  2  0  0  0  0  0  0  0  0  0
   18.2029   -9.5871  -16.7285 N   0  0  0  0  0  0  0  0  0  0  0  0
   18.1792   -7.2652  -17.1413 C   0  0  0  0  0  0  0  0  0  0  0  0
   18.4112   -6.2240  -17.8397 O   0  0  0  0  0  0  0  0  0  0  0  0
   17.7880   -7.0384  -15.8203 N   0  0  0  0  0  0  0  0  0  0  0  0
   17.6466   -5.6685  -15.3098 C   0  0  1  0  0  0  0  0  0  0  0  0
   16.3452   -5.4433  -14.6278 C   0  0  0  0  0  0  0  0  0  0  0  0
   15.1989   -5.3031  -15.5310 C   0  0  0  0  0  0  0  0  0  0  0  0
   15.1339   -4.6002  -16.5466 O   0  0  0  0  0  0  0  0  0  0  0  0
   18.7881   -5.3448  -14.4196 C   0  0  0  0  0  0  0  0  0  0  0  0
   18.8660   -4.2738  -13.7687 O   0  0  0  0  0  0  0  0  0  0  0  0
   14.0501   -6.0497  -15.2053 O   0  0  0  0  0  0  0  0  0  0  0  0
   19.8425   -6.2898  -14.2971 N   0  0  0  0  0  0  0  0  0  0  0  0
   21.0010   -6.0770  -13.4656 C   0  0  0  0  0  0  0  0  0  0  0  0
   21.8876   -5.0998  -14.1359 C   0  0  0  0  0  0  0  0  0  0  0  0
   21.5602   -4.6408  -15.2548 O   0  0  0  0  0  0  0  0  0  0  0  0
   23.0815   -4.6670  -13.5669 O   0  0  0  0  0  0  0  0  0  0  0  0
  2  1  1  0
  3  2  2  0
  4  2  1  0
  5  4  1  0
  5  6  1  1
  7  5  1  0
  7  9  1  0
  8  7  2  0
 10  9  1  0
 10 14  1  0
 10 11  1  1
 12 11  1  0
 12 13  2  0
 14 15  2  0
 14 17  1  0
 16 12  1  0
 17 18  1  0
 18 19  1  0
 19 21  1  0
 20 19  2  0
M  END
$$$$
