NDG.pdb
     RDKit          3D

 21 20  0  0  1  0  0  0  0  0999 V2000
   15.4099  -12.5320  -15.6433 N   0  0  0  0  0  0  0  0  0  0  0  0
   14.6327  -11.7245  -14.7316 C   0  0  0  0  0  0  0  0  0  0  0  0
   13.4676  -12.1206  -14.5469 O   0  0  0  0  0  0  0  0  0  0  0  0
   15.1922  -10.5466  -14.0937 C   0  0  0  0  0  0  0  0  0  0  0  0
   16.6076  -10.1783  -14.4948 C   0  0  2  0  0  0  0  0  0  0  0  0
   17.4303  -11.2536  -13.8608 N   0  0  0  0  0  0  0  0  0  0  0  0
   16.9812   -8.9403  -13.7688 C   0  0  0  0  0  0  0  0  0  0  0  0
   16.4045   -7.8640  -14.1360 O   0  0  0  0  0  0  0  0  0  0  0  0
   17.8946   -8.8151  -12.7201 N   0  0  0  0  0  0  0  0  0  0  0  0
   18.1770   -7.4997  -12.1309 C   0  0  1  0  0  0  0  0  0  0  0  0
   17.7564   -7.4074  -10.7082 C   0  0  0  0  0  0  0  0  0  0  0  0
   18.0087   -6.1069  -10.0802 C   0  0  0  0  0  0  0  0  0  0  0  0
   18.3050   -5.0504  -10.6510 O   0  0  0  0  0  0  0  0  0  0  0  0
   19.6154   -7.1762  -12.2928 C   0  0  0  0  0  0  0  0  0  0  0  0
   20.5357   -7.9596  -11.9516 O   0  0  0  0  0  0  0  0  0  0  0  0
   17.9017   -6.0580   -8.6768 O   0  0  0  0  0  0  0  0  0  0  0  0
   19.9696   -5.9222  -12.8602 N   0  0  0  0  0  0  0  0  0  0  0  0
   21.3305   -5.5393  -13.1429 C   0  0  0  0  0  0  0  0  0  0  0  0
   21.3228   -4.1891  -13.7489 C   0  0  0  0  0  0  0  0  0  0  0  0
   22.4119   -3.6295  -14.0145 O   0  0  0  0  0  0  0  0  0  0  0  0
   20.1426   -3.5108  -14.0378 O   0  0  0  0  0  0  0  0  0  0  0  0
  2  1  1  0
  3  2  2  0
  4  2  1  0
  5  4  1  0
  5  6  1  1
  7  5  1  0
  7  9  1  0
  8  7  2  0
 10  9  1  0
 10 14  1  0
 10 11  1  1
 12 11  1  0
 12 13  2  0
 14 15  2  0
 14 17  1  0
 16 12  1  0
 17 18  1  0
 18 19  1  0
 19 21  1  0
 20 19  2  0
M  END
$$$$
