NDG.pdb
     RDKit          3D

 21 20  0  0  1  0  0  0  0  0999 V2000
   17.7281  -12.3926  -16.7425 N   0  0  0  0  0  0  0  0  0  0  0  0
   17.0770  -11.6519  -15.6868 C   0  0  0  0  0  0  0  0  0  0  0  0
   15.9361  -12.0534  -15.3945 O   0  0  0  0  0  0  0  0  0  0  0  0
   17.7263  -10.5296  -15.0338 C   0  0  0  0  0  0  0  0  0  0  0  0
   19.0635  -10.1043  -15.6092 C   0  0  2  0  0  0  0  0  0  0  0  0
   20.0045  -11.1387  -15.0804 N   0  0  0  0  0  0  0  0  0  0  0  0
   19.4706   -8.8459  -14.9382 C   0  0  0  0  0  0  0  0  0  0  0  0
   19.8801   -8.9443  -13.7348 O   0  0  0  0  0  0  0  0  0  0  0  0
   19.4611   -7.5571  -15.4754 N   0  0  0  0  0  0  0  0  0  0  0  0
   20.0434   -6.4343  -14.7287 C   0  0  1  0  0  0  0  0  0  0  0  0
   21.4924   -6.6198  -14.4538 C   0  0  0  0  0  0  0  0  0  0  0  0
   22.1389   -5.4819  -13.7931 C   0  0  0  0  0  0  0  0  0  0  0  0
   22.0803   -5.1870  -12.5933 O   0  0  0  0  0  0  0  0  0  0  0  0
   19.7872   -5.1648  -15.4516 C   0  0  0  0  0  0  0  0  0  0  0  0
   20.2250   -4.9341  -16.6058 O   0  0  0  0  0  0  0  0  0  0  0  0
   22.9084   -4.6354  -14.6145 O   0  0  0  0  0  0  0  0  0  0  0  0
   19.0104   -4.1628  -14.8095 N   0  0  0  0  0  0  0  0  0  0  0  0
   18.5708   -2.9594  -15.4709 C   0  0  0  0  0  0  0  0  0  0  0  0
   19.6556   -1.9558  -15.3905 C   0  0  0  0  0  0  0  0  0  0  0  0
   20.7062   -2.2364  -14.7683 O   0  0  0  0  0  0  0  0  0  0  0  0
   19.5531   -0.7014  -15.9842 O   0  0  0  0  0  0  0  0  0  0  0  0
  2  1  1  0
  3  2  2  0
  4  2  1  0
  5  4  1  0
  5  6  1  1
  7  5  1  0
  7  9  1  0
  8  7  2  0
 10  9  1  0
 10 14  1  0
 10 11  1  6
 12 11  1  0
 12 13  2  0
 14 15  2  0
 14 17  1  0
 16 12  1  0
 17 18  1  0
 18 19  1  0
 19 21  1  0
 20 19  2  0
M  END
$$$$
