NDG.pdb
     RDKit          3D

 21 20  0  0  1  0  0  0  0  0999 V2000
   22.2604  -13.5696  -17.9723 N   0  0  0  0  0  0  0  0  0  0  0  0
   20.8294  -13.4147  -18.0969 C   0  0  0  0  0  0  0  0  0  0  0  0
   20.2302  -14.4209  -18.5175 O   0  0  0  0  0  0  0  0  0  0  0  0
   20.1668  -12.1702  -17.7511 C   0  0  0  0  0  0  0  0  0  0  0  0
   21.0710  -11.0215  -17.3476 C   0  0  2  0  0  0  0  0  0  0  0  0
   21.6262  -11.4723  -16.0347 N   0  0  0  0  0  0  0  0  0  0  0  0
   20.2125   -9.8589  -17.0147 C   0  0  0  0  0  0  0  0  0  0  0  0
   19.6448   -9.2671  -17.9910 O   0  0  0  0  0  0  0  0  0  0  0  0
   19.9485   -9.3351  -15.7476 N   0  0  0  0  0  0  0  0  0  0  0  0
   19.0220   -8.2069  -15.5860 C   0  0  1  0  0  0  0  0  0  0  0  0
   17.9993   -8.4521  -14.5356 C   0  0  0  0  0  0  0  0  0  0  0  0
   17.0635   -9.5398  -14.8368 C   0  0  0  0  0  0  0  0  0  0  0  0
   16.6707   -9.8947  -15.9547 O   0  0  0  0  0  0  0  0  0  0  0  0
   19.7867   -6.9645  -15.3182 C   0  0  0  0  0  0  0  0  0  0  0  0
   19.2452   -5.8361  -15.2164 O   0  0  0  0  0  0  0  0  0  0  0  0
   16.5593  -10.2556  -13.7338 O   0  0  0  0  0  0  0  0  0  0  0  0
   21.1972   -7.0543  -15.1697 N   0  0  0  0  0  0  0  0  0  0  0  0
   22.0346   -5.9176  -14.8771 C   0  0  0  0  0  0  0  0  0  0  0  0
   21.9773   -5.6536  -13.4220 C   0  0  0  0  0  0  0  0  0  0  0  0
   22.6779   -4.7350  -12.9370 O   0  0  0  0  0  0  0  0  0  0  0  0
   21.1686   -6.3924  -12.5638 O   0  0  0  0  0  0  0  0  0  0  0  0
  2  1  1  0
  3  2  2  0
  4  2  1  0
  5  4  1  0
  5  6  1  1
  7  5  1  0
  7  9  1  0
  8  7  2  0
 10  9  1  0
 10 14  1  0
 10 11  1  1
 12 11  1  0
 12 13  2  0
 14 15  2  0
 14 17  1  0
 16 12  1  0
 17 18  1  0
 18 19  1  0
 19 21  1  0
 20 19  2  0
M  END
$$$$
