NDG.pdb
     RDKit          3D

 21 20  0  0  1  0  0  0  0  0999 V2000
   13.2338  -12.1158  -13.5920 N   0  0  0  0  0  0  0  0  0  0  0  0
   14.6143  -11.8120  -13.8907 C   0  0  0  0  0  0  0  0  0  0  0  0
   15.2638  -12.7568  -14.3743 O   0  0  0  0  0  0  0  0  0  0  0  0
   15.1754  -10.4975  -13.6363 C   0  0  0  0  0  0  0  0  0  0  0  0
   14.2441   -9.4860  -12.9967 C   0  0  2  0  0  0  0  0  0  0  0  0
   13.3764   -9.0564  -14.1359 N   0  0  0  0  0  0  0  0  0  0  0  0
   15.0409   -8.2827  -12.6551 C   0  0  0  0  0  0  0  0  0  0  0  0
   15.0404   -7.3338  -13.5068 O   0  0  0  0  0  0  0  0  0  0  0  0
   15.7942   -8.0644  -11.4999 N   0  0  0  0  0  0  0  0  0  0  0  0
   16.4967   -6.7904  -11.2980 C   0  0  1  0  0  0  0  0  0  0  0  0
   15.9293   -5.9952  -10.1777 C   0  0  0  0  0  0  0  0  0  0  0  0
   16.6191   -4.7279   -9.9179 C   0  0  0  0  0  0  0  0  0  0  0  0
   17.0396   -3.9241  -10.7587 O   0  0  0  0  0  0  0  0  0  0  0  0
   17.9456   -7.0419  -11.1047 C   0  0  0  0  0  0  0  0  0  0  0  0
   18.4121   -7.6057  -10.0842 O   0  0  0  0  0  0  0  0  0  0  0  0
   16.8238   -4.3921   -8.5656 O   0  0  0  0  0  0  0  0  0  0  0  0
   18.8482   -6.6261  -12.1206 N   0  0  0  0  0  0  0  0  0  0  0  0
   20.2670   -6.8771  -12.0677 C   0  0  0  0  0  0  0  0  0  0  0  0
   20.8878   -6.3266  -13.2932 C   0  0  0  0  0  0  0  0  0  0  0  0
   20.1544   -5.8696  -14.2005 O   0  0  0  0  0  0  0  0  0  0  0  0
   22.2666   -6.2966  -13.4790 O   0  0  0  0  0  0  0  0  0  0  0  0
  2  1  1  0
  3  2  2  0
  4  2  1  0
  5  4  1  0
  5  6  1  6
  7  5  1  0
  7  9  1  0
  8  7  2  0
 10  9  1  0
 10 14  1  0
 10 11  1  1
 12 11  1  0
 12 13  2  0
 14 15  2  0
 14 17  1  0
 16 12  1  0
 17 18  1  0
 18 19  1  0
 19 21  1  0
 20 19  2  0
M  END
$$$$
