NDG.pdb
     RDKit          3D

 21 20  0  0  1  0  0  0  0  0999 V2000
   28.2244   -9.5684  -17.6335 N   0  0  0  0  0  0  0  0  0  0  0  0
   26.8520   -9.8813  -17.9588 C   0  0  0  0  0  0  0  0  0  0  0  0
   26.7043  -10.8603  -18.7125 O   0  0  0  0  0  0  0  0  0  0  0  0
   25.7488   -9.0975  -17.4332 C   0  0  0  0  0  0  0  0  0  0  0  0
   24.3611   -9.5113  -17.8836 C   0  0  2  0  0  0  0  0  0  0  0  0
   24.2667   -8.9381  -19.2611 N   0  0  0  0  0  0  0  0  0  0  0  0
   23.3738   -8.7431  -17.0870 C   0  0  0  0  0  0  0  0  0  0  0  0
   22.8238   -7.7468  -17.6619 O   0  0  0  0  0  0  0  0  0  0  0  0
   22.9705   -8.9874  -15.7728 N   0  0  0  0  0  0  0  0  0  0  0  0
   21.9054   -8.1838  -15.1586 C   0  0  1  0  0  0  0  0  0  0  0  0
   20.9127   -9.0131  -14.4262 C   0  0  0  0  0  0  0  0  0  0  0  0
   20.2010   -9.9891  -15.2570 C   0  0  0  0  0  0  0  0  0  0  0  0
   19.6576   -9.7809  -16.3484 O   0  0  0  0  0  0  0  0  0  0  0  0
   22.5017   -7.1493  -14.2788 C   0  0  0  0  0  0  0  0  0  0  0  0
   23.5372   -7.3457  -13.5960 O   0  0  0  0  0  0  0  0  0  0  0  0
   20.1296  -11.3036  -14.7567 O   0  0  0  0  0  0  0  0  0  0  0  0
   21.8733   -5.8768  -14.2046 N   0  0  0  0  0  0  0  0  0  0  0  0
   22.3481   -4.8094  -13.3598 C   0  0  0  0  0  0  0  0  0  0  0  0
   21.4442   -3.6481  -13.5166 C   0  0  0  0  0  0  0  0  0  0  0  0
   20.5373   -3.6886  -14.3801 O   0  0  0  0  0  0  0  0  0  0  0  0
   21.5633   -2.5026  -12.7355 O   0  0  0  0  0  0  0  0  0  0  0  0
  2  1  1  0
  3  2  2  0
  4  2  1  0
  5  4  1  0
  5  6  1  6
  7  5  1  0
  7  9  1  0
  8  7  2  0
 10  9  1  0
 10 14  1  0
 10 11  1  1
 12 11  1  0
 12 13  2  0
 14 15  2  0
 14 17  1  0
 16 12  1  0
 17 18  1  0
 18 19  1  0
 19 21  1  0
 20 19  2  0
M  END
$$$$
