QMC.pdb
     RDKit          3D

 24 23  0  0  1  0  0  0  0  0999 V2000
   12.2089  -15.8206   17.8367 N   0  0  0  0  0  0  0  0  0  0  0  0
   11.2871  -16.8409   17.5153 C   0  0  0  0  0  0  0  0  0  0  0  0
   11.3726  -17.3833   16.4004 O   0  0  0  0  0  0  0  0  0  0  0  0
   10.2560  -17.2414   18.4775 C   0  0  0  0  0  0  0  0  0  0  0  0
   10.2504  -16.4908   19.7483 C   0  0  0  0  0  0  0  0  0  0  0  0
    9.8618  -17.2460   20.9848 C   0  0  2  0  0  0  0  0  0  0  0  0
    8.5582  -17.7873   20.9343 N   0  0  0  0  0  0  0  0  0  0  0  0
    9.9879  -16.3550   22.1990 C   0  0  0  0  0  0  0  0  0  0  0  0
   11.0243  -15.7229   22.4570 O   0  0  0  0  0  0  0  0  0  0  0  0
    6.2506  -12.0078   27.5798 C   0  0  0  0  0  0  0  0  0  0  0  0
    6.1362  -13.1492   26.1895 S   0  0  0  0  0  0  0  0  0  0  0  0
    7.7512  -13.9882   25.9658 C   0  0  0  0  0  0  0  0  0  0  0  0
    7.6208  -14.8766   24.7402 C   0  0  0  0  0  0  0  0  0  0  0  0
    8.9399  -15.3780   24.2500 C   0  0  2  0  0  0  0  0  0  0  0  0
    8.9094  -16.2044   23.1043 N   0  0  0  0  0  0  0  0  0  0  0  0
    9.6395  -15.9890   25.4033 C   0  0  0  0  0  0  0  0  0  0  0  0
    9.7869  -17.2398   25.4233 O   0  0  0  0  0  0  0  0  0  0  0  0
   10.1609  -15.2603   26.4969 N   0  0  0  0  0  0  0  0  0  0  0  0
   10.9516  -15.8831   27.5562 C   0  0  1  0  0  0  0  0  0  0  0  0
   11.3249  -14.8844   28.6249 C   0  0  0  0  0  0  0  0  0  0  0  0
   11.1407  -13.1811   27.9725 S   0  0  0  0  0  0  0  0  0  0  0  0
   10.1560  -16.9877   28.1430 C   0  0  0  0  0  0  0  0  0  0  0  0
   10.7441  -17.8689   29.0303 O   0  0  0  0  0  0  0  0  0  0  0  0
    8.9476  -17.1461   27.8525 O   0  0  0  0  0  0  0  0  0  0  0  0
  2  3  2  0
  2  1  1  0
  4  2  1  0
  5  4  1  0
  6  5  1  0
  6  7  1  6
  8  6  1  0
  9  8  2  0
 11 12  1  0
 11 10  1  0
 14 13  1  1
 13 12  1  0
 14 15  1  0
 15  8  1  0
 16 18  1  0
 16 14  1  0
 17 16  2  0
 19 22  1  0
 19 20  1  1
 19 18  1  0
 20 21  1  0
 22 23  1  0
 24 22  2  0
M  END
$$$$
