QMC.pdb
     RDKit          3D

 24 23  0  0  1  0  0  0  0  0999 V2000
    8.7383  -12.8944   17.5522 N   0  0  0  0  0  0  0  0  0  0  0  0
    8.1808  -14.1831   17.4020 C   0  0  0  0  0  0  0  0  0  0  0  0
    7.6403  -14.4694   16.3203 O   0  0  0  0  0  0  0  0  0  0  0  0
    8.2398  -15.1514   18.5012 C   0  0  0  0  0  0  0  0  0  0  0  0
    8.8132  -14.6429   19.7626 C   0  0  0  0  0  0  0  0  0  0  0  0
    8.8929  -15.6038   20.9117 C   0  0  2  0  0  0  0  0  0  0  0  0
    7.7781  -16.4655   21.0108 N   0  0  0  0  0  0  0  0  0  0  0  0
    9.0594  -14.8484   22.2101 C   0  0  0  0  0  0  0  0  0  0  0  0
    9.9343  -13.9828   22.3701 O   0  0  0  0  0  0  0  0  0  0  0  0
    6.9844  -11.4385   27.3619 C   0  0  0  0  0  0  0  0  0  0  0  0
    5.6705  -12.1801   26.3759 S   0  0  0  0  0  0  0  0  0  0  0  0
    6.4015  -12.9482   24.8800 C   0  0  0  0  0  0  0  0  0  0  0  0
    7.0829  -14.2294   25.3301 C   0  0  0  0  0  0  0  0  0  0  0  0
    8.3480  -14.5013   24.5835 C   0  0  2  0  0  0  0  0  0  0  0  0
    8.2084  -15.1035   23.3129 N   0  0  0  0  0  0  0  0  0  0  0  0
    9.2513  -15.2413   25.4942 C   0  0  0  0  0  0  0  0  0  0  0  0
    9.2233  -14.9663   26.7231 O   0  0  0  0  0  0  0  0  0  0  0  0
   10.1536  -16.2470   25.0784 N   0  0  0  0  0  0  0  0  0  0  0  0
   10.4907  -17.3994   25.9113 C   0  0  1  0  0  0  0  0  0  0  0  0
    9.2600  -18.1927   26.2786 C   0  0  0  0  0  0  0  0  0  0  0  0
    9.6645  -19.3791   27.6165 S   0  0  0  0  0  0  0  0  0  0  0  0
   11.4449  -18.2519   25.1626 C   0  0  0  0  0  0  0  0  0  0  0  0
   12.4268  -18.9506   25.8389 O   0  0  0  0  0  0  0  0  0  0  0  0
   11.3842  -18.3578   23.9157 O   0  0  0  0  0  0  0  0  0  0  0  0
  2  3  2  0
  2  1  1  0
  4  2  1  0
  5  4  1  0
  6  5  1  0
  6  7  1  1
  8  6  1  0
  9  8  2  0
 11 12  1  0
 11 10  1  0
 14 13  1  1
 13 12  1  0
 14 15  1  0
 15  8  1  0
 16 18  1  0
 16 14  1  0
 17 16  2  0
 19 22  1  0
 19 20  1  6
 19 18  1  0
 20 21  1  0
 22 23  1  0
 24 22  2  0
M  END
$$$$
