QMC.pdb
     RDKit          3D

 24 23  0  0  1  0  0  0  0  0999 V2000
    8.7276  -12.4042   19.2219 N   0  0  0  0  0  0  0  0  0  0  0  0
    8.4677  -13.5954   18.5094 C   0  0  0  0  0  0  0  0  0  0  0  0
    9.2271  -13.9012   17.5745 O   0  0  0  0  0  0  0  0  0  0  0  0
    7.3260  -14.4423   18.8683 C   0  0  0  0  0  0  0  0  0  0  0  0
    7.1231  -14.6513   20.3153 C   0  0  0  0  0  0  0  0  0  0  0  0
    7.9296  -15.7350   20.9675 C   0  0  2  0  0  0  0  0  0  0  0  0
    7.7026  -17.0186   20.4234 N   0  0  0  0  0  0  0  0  0  0  0  0
    7.6545  -15.7647   22.4533 C   0  0  0  0  0  0  0  0  0  0  0  0
    6.5039  -15.7525   22.9185 O   0  0  0  0  0  0  0  0  0  0  0  0
   10.9233  -15.1429   29.6825 C   0  0  0  0  0  0  0  0  0  0  0  0
   11.1187  -15.6293   27.9580 S   0  0  0  0  0  0  0  0  0  0  0  0
    9.5527  -15.3054   27.0607 C   0  0  0  0  0  0  0  0  0  0  0  0
    9.7759  -15.7261   25.6179 C   0  0  0  0  0  0  0  0  0  0  0  0
    8.6055  -15.4195   24.7415 C   0  0  2  0  0  0  0  0  0  0  0  0
    8.7176  -15.8087   23.3879 N   0  0  0  0  0  0  0  0  0  0  0  0
    8.2792  -13.9862   24.9212 C   0  0  0  0  0  0  0  0  0  0  0  0
    8.9871  -13.1295   24.3283 O   0  0  0  0  0  0  0  0  0  0  0  0
    7.2167  -13.5045   25.7198 N   0  0  0  0  0  0  0  0  0  0  0  0
    6.8851  -12.0850   25.8207 C   0  0  1  0  0  0  0  0  0  0  0  0
    5.4199  -11.8813   26.1217 C   0  0  0  0  0  0  0  0  0  0  0  0
    5.0627  -12.4033   27.8424 S   0  0  0  0  0  0  0  0  0  0  0  0
    7.7159  -11.4877   26.8934 C   0  0  0  0  0  0  0  0  0  0  0  0
    7.7310  -10.1180   27.0759 O   0  0  0  0  0  0  0  0  0  0  0  0
    8.4146  -12.2013   27.6500 O   0  0  0  0  0  0  0  0  0  0  0  0
  2  3  2  0
  2  1  1  0
  4  2  1  0
  5  4  1  0
  6  5  1  0
  6  7  1  6
  8  6  1  0
  9  8  2  0
 11 12  1  0
 11 10  1  0
 14 13  1  1
 13 12  1  0
 14 15  1  0
 15  8  1  0
 16 18  1  0
 16 14  1  0
 17 16  2  0
 19 22  1  0
 19 20  1  1
 19 18  1  0
 20 21  1  0
 22 23  1  0
 24 22  2  0
M  END
$$$$
