QMC.pdb
     RDKit          3D

 24 23  0  0  1  0  0  0  0  0999 V2000
   12.6869  -18.0831   19.0832 N   0  0  0  0  0  0  0  0  0  0  0  0
   11.6683  -19.0161   18.7903 C   0  0  0  0  0  0  0  0  0  0  0  0
   11.9101  -19.9139   17.9658 O   0  0  0  0  0  0  0  0  0  0  0  0
   10.3599  -18.9183   19.4445 C   0  0  0  0  0  0  0  0  0  0  0  0
   10.1753  -17.7428   20.3178 C   0  0  0  0  0  0  0  0  0  0  0  0
    9.7361  -18.0034   21.7283 C   0  0  2  0  0  0  0  0  0  0  0  0
    8.4197  -18.5050   21.8306 N   0  0  0  0  0  0  0  0  0  0  0  0
    9.8572  -16.7418   22.5517 C   0  0  0  0  0  0  0  0  0  0  0  0
   10.9108  -16.0894   22.6205 O   0  0  0  0  0  0  0  0  0  0  0  0
    6.0406  -11.5545   27.2330 C   0  0  0  0  0  0  0  0  0  0  0  0
    5.9597  -13.0544   26.2368 S   0  0  0  0  0  0  0  0  0  0  0  0
    7.6111  -13.3843   25.5113 C   0  0  0  0  0  0  0  0  0  0  0  0
    7.4911  -14.6675   24.7067 C   0  0  0  0  0  0  0  0  0  0  0  0
    8.7836  -15.0758   24.0786 C   0  0  2  0  0  0  0  0  0  0  0  0
    8.7538  -16.2469   23.2886 N   0  0  0  0  0  0  0  0  0  0  0  0
    9.8069  -15.1086   25.1486 C   0  0  0  0  0  0  0  0  0  0  0  0
   10.6009  -14.1361   25.2512 O   0  0  0  0  0  0  0  0  0  0  0  0
    9.9582  -16.1657   26.0750 N   0  0  0  0  0  0  0  0  0  0  0  0
   10.5134  -15.9706   27.4125 C   0  0  1  0  0  0  0  0  0  0  0  0
    9.6769  -15.0090   28.2216 C   0  0  0  0  0  0  0  0  0  0  0  0
   10.6541  -14.3795   29.6393 S   0  0  0  0  0  0  0  0  0  0  0  0
   10.5753  -17.2888   28.0879 C   0  0  0  0  0  0  0  0  0  0  0  0
   11.6057  -17.5696   28.9649 O   0  0  0  0  0  0  0  0  0  0  0  0
    9.7062  -18.1675   27.8825 O   0  0  0  0  0  0  0  0  0  0  0  0
  2  3  2  0
  2  1  1  0
  4  2  1  0
  5  4  1  0
  6  5  1  0
  6  7  1  6
  8  6  1  0
  9  8  2  0
 11 12  1  0
 11 10  1  0
 14 13  1  1
 13 12  1  0
 14 15  1  0
 15  8  1  0
 16 18  1  0
 16 14  1  0
 17 16  2  0
 19 22  1  0
 19 20  1  1
 19 18  1  0
 20 21  1  0
 22 23  1  0
 24 22  2  0
M  END
$$$$
