QMC.pdb
     RDKit          3D

 24 23  0  0  1  0  0  0  0  0999 V2000
    3.4236  -18.6735   19.5143 N   0  0  0  0  0  0  0  0  0  0  0  0
    3.9025  -20.0019   19.5266 C   0  0  0  0  0  0  0  0  0  0  0  0
    3.1667  -20.8983   19.0803 O   0  0  0  0  0  0  0  0  0  0  0  0
    5.2344  -20.3070   20.0578 C   0  0  0  0  0  0  0  0  0  0  0  0
    5.9948  -19.1477   20.5643 C   0  0  0  0  0  0  0  0  0  0  0  0
    6.5800  -19.2645   21.9405 C   0  0  2  0  0  0  0  0  0  0  0  0
    5.6350  -19.6061   22.9332 N   0  0  0  0  0  0  0  0  0  0  0  0
    7.2660  -17.9737   22.3247 C   0  0  0  0  0  0  0  0  0  0  0  0
    8.1313  -17.4411   21.6119 O   0  0  0  0  0  0  0  0  0  0  0  0
    7.3968  -11.5710   26.9616 C   0  0  0  0  0  0  0  0  0  0  0  0
    6.5279  -13.0618   26.4408 S   0  0  0  0  0  0  0  0  0  0  0  0
    7.6464  -14.0779   25.4021 C   0  0  0  0  0  0  0  0  0  0  0  0
    6.8470  -15.2863   24.9447 C   0  0  0  0  0  0  0  0  0  0  0  0
    7.6213  -16.1742   24.0262 C   0  0  2  0  0  0  0  0  0  0  0  0
    6.9417  -17.3108   23.5333 N   0  0  0  0  0  0  0  0  0  0  0  0
    8.9041  -16.4937   24.6936 C   0  0  0  0  0  0  0  0  0  0  0  0
    8.9150  -17.3915   25.5770 O   0  0  0  0  0  0  0  0  0  0  0  0
   10.1326  -15.8558   24.4066 N   0  0  0  0  0  0  0  0  0  0  0  0
   11.4258  -16.5074   24.6025 C   0  0  1  0  0  0  0  0  0  0  0  0
   12.5203  -15.8007   23.8398 C   0  0  0  0  0  0  0  0  0  0  0  0
   14.1145  -16.6681   24.0982 S   0  0  0  0  0  0  0  0  0  0  0  0
   11.7314  -16.5089   26.0531 C   0  0  0  0  0  0  0  0  0  0  0  0
   11.4933  -15.3788   26.8119 O   0  0  0  0  0  0  0  0  0  0  0  0
   12.2062  -17.5215   26.6179 O   0  0  0  0  0  0  0  0  0  0  0  0
  2  3  2  0
  2  1  1  0
  4  2  1  0
  5  4  1  0
  6  5  1  0
  6  7  1  1
  8  6  1  0
  9  8  2  0
 11 12  1  0
 11 10  1  0
 14 13  1  1
 13 12  1  0
 14 15  1  0
 15  8  1  0
 16 18  1  0
 16 14  1  0
 17 16  2  0
 19 22  1  0
 19 20  1  6
 19 18  1  0
 20 21  1  0
 22 23  1  0
 24 22  2  0
M  END
$$$$
