QMC.pdb
     RDKit          3D

 24 23  0  0  1  0  0  0  0  0999 V2000
    0.4164  -27.0087   27.6167 N   0  0  0  0  0  0  0  0  0  0  0  0
   -0.1480  -27.4834   26.4124 C   0  0  0  0  0  0  0  0  0  0  0  0
    0.4361  -28.3985   25.8078 O   0  0  0  0  0  0  0  0  0  0  0  0
   -1.3902  -26.9025   25.8940 C   0  0  0  0  0  0  0  0  0  0  0  0
   -1.9485  -25.7904   26.6877 C   0  0  0  0  0  0  0  0  0  0  0  0
   -3.1884  -25.1312   26.1600 C   0  0  2  0  0  0  0  0  0  0  0  0
   -3.2041  -24.9915   24.7546 N   0  0  0  0  0  0  0  0  0  0  0  0
   -3.3681  -23.7741   26.8006 C   0  0  0  0  0  0  0  0  0  0  0  0
   -2.7098  -23.4108   27.7880 O   0  0  0  0  0  0  0  0  0  0  0  0
   -2.8976  -18.8399   22.3157 C   0  0  0  0  0  0  0  0  0  0  0  0
   -4.2282  -19.1446   23.4927 S   0  0  0  0  0  0  0  0  0  0  0  0
   -3.6326  -20.2969   24.7887 C   0  0  0  0  0  0  0  0  0  0  0  0
   -4.7730  -20.4778   25.7762 C   0  0  0  0  0  0  0  0  0  0  0  0
   -4.4942  -21.5400   26.7889 C   0  0  2  0  0  0  0  0  0  0  0  0
   -4.3106  -22.8490   26.2895 N   0  0  0  0  0  0  0  0  0  0  0  0
   -5.5408  -21.4450   27.8323 C   0  0  0  0  0  0  0  0  0  0  0  0
   -5.7084  -20.3421   28.4171 O   0  0  0  0  0  0  0  0  0  0  0  0
   -6.3760  -22.5164   28.2236 N   0  0  0  0  0  0  0  0  0  0  0  0
   -7.4371  -22.3687   29.2174 C   0  0  1  0  0  0  0  0  0  0  0  0
   -8.7545  -22.0179   28.5691 C   0  0  0  0  0  0  0  0  0  0  0  0
  -10.0553  -21.8673   29.8520 S   0  0  0  0  0  0  0  0  0  0  0  0
   -7.5571  -23.6441   29.9634 C   0  0  0  0  0  0  0  0  0  0  0  0
   -7.9931  -23.6407   31.2748 O   0  0  0  0  0  0  0  0  0  0  0  0
   -7.2703  -24.7407   29.4297 O   0  0  0  0  0  0  0  0  0  0  0  0
  2  3  2  0
  2  1  1  0
  4  2  1  0
  5  4  1  0
  6  5  1  0
  6  7  1  6
  8  6  1  0
  9  8  2  0
 11 12  1  0
 11 10  1  0
 14 13  1  6
 13 12  1  0
 14 15  1  0
 15  8  1  0
 16 18  1  0
 16 14  1  0
 17 16  2  0
 19 22  1  0
 19 20  1  6
 19 18  1  0
 20 21  1  0
 22 23  1  0
 24 22  2  0
M  END
$$$$
