QMC.pdb
     RDKit          3D

 24 23  0  0  1  0  0  0  0  0999 V2000
    8.6547  -12.5895   17.9921 N   0  0  0  0  0  0  0  0  0  0  0  0
    8.0410  -13.7713   17.5221 C   0  0  0  0  0  0  0  0  0  0  0  0
    7.8766  -13.9037   16.2975 O   0  0  0  0  0  0  0  0  0  0  0  0
    7.6085  -14.8092   18.4629 C   0  0  0  0  0  0  0  0  0  0  0  0
    7.8841  -14.5286   19.8855 C   0  0  0  0  0  0  0  0  0  0  0  0
    8.5123  -15.6291   20.6884 C   0  0  2  0  0  0  0  0  0  0  0  0
    7.6367  -16.7023   20.9650 N   0  0  0  0  0  0  0  0  0  0  0  0
    9.0570  -15.0793   21.9865 C   0  0  0  0  0  0  0  0  0  0  0  0
   10.0019  -14.2756   22.0256 O   0  0  0  0  0  0  0  0  0  0  0  0
    5.6865  -13.0845   27.3873 C   0  0  0  0  0  0  0  0  0  0  0  0
    6.7198  -12.0951   26.2909 S   0  0  0  0  0  0  0  0  0  0  0  0
    7.1568  -13.0914   24.8150 C   0  0  0  0  0  0  0  0  0  0  0  0
    7.7350  -14.4016   25.3225 C   0  0  0  0  0  0  0  0  0  0  0  0
    8.8584  -14.9017   24.4742 C   0  0  2  0  0  0  0  0  0  0  0  0
    8.5001  -15.4666   23.2296 N   0  0  0  0  0  0  0  0  0  0  0  0
    9.6860  -15.7966   25.3152 C   0  0  0  0  0  0  0  0  0  0  0  0
    9.7647  -17.0139   25.0012 O   0  0  0  0  0  0  0  0  0  0  0  0
   10.4034  -15.3775   26.4590 N   0  0  0  0  0  0  0  0  0  0  0  0
   11.2115  -16.2915   27.2634 C   0  0  1  0  0  0  0  0  0  0  0  0
   11.8629  -15.5766   28.4225 C   0  0  0  0  0  0  0  0  0  0  0  0
   10.7190  -14.3091   29.0902 S   0  0  0  0  0  0  0  0  0  0  0  0
   10.3320  -17.3765   27.7601 C   0  0  0  0  0  0  0  0  0  0  0  0
   10.8805  -18.4838   28.3787 O   0  0  0  0  0  0  0  0  0  0  0  0
    9.0871  -17.3159   27.6326 O   0  0  0  0  0  0  0  0  0  0  0  0
  2  3  2  0
  2  1  1  0
  4  2  1  0
  5  4  1  0
  6  5  1  0
  6  7  1  1
  8  6  1  0
  9  8  2  0
 11 12  1  0
 11 10  1  0
 14 13  1  1
 13 12  1  0
 14 15  1  0
 15  8  1  0
 16 18  1  0
 16 14  1  0
 17 16  2  0
 19 22  1  0
 19 20  1  1
 19 18  1  0
 20 21  1  0
 22 23  1  0
 24 22  2  0
M  END
$$$$
