QMC.pdb
     RDKit          3D

 24 23  0  0  1  0  0  0  0  0999 V2000
    8.5309  -12.4697   18.7278 N   0  0  0  0  0  0  0  0  0  0  0  0
    8.2645  -13.6610   18.0180 C   0  0  0  0  0  0  0  0  0  0  0  0
    7.6363  -13.5825   16.9486 O   0  0  0  0  0  0  0  0  0  0  0  0
    8.7184  -14.9541   18.5389 C   0  0  0  0  0  0  0  0  0  0  0  0
    9.4720  -14.8965   19.8066 C   0  0  0  0  0  0  0  0  0  0  0  0
    9.2404  -16.0064   20.7888 C   0  0  2  0  0  0  0  0  0  0  0  0
    8.0303  -16.7051   20.5824 N   0  0  0  0  0  0  0  0  0  0  0  0
    9.2731  -15.4667   22.2001 C   0  0  0  0  0  0  0  0  0  0  0  0
   10.2113  -14.7759   22.6279 O   0  0  0  0  0  0  0  0  0  0  0  0
    6.2271  -11.4941   26.1860 C   0  0  0  0  0  0  0  0  0  0  0  0
    7.6464  -12.5851   26.3958 S   0  0  0  0  0  0  0  0  0  0  0  0
    7.0668  -14.3242   26.4399 C   0  0  0  0  0  0  0  0  0  0  0  0
    6.9444  -14.7851   24.9974 C   0  0  0  0  0  0  0  0  0  0  0  0
    8.2181  -15.3569   24.4660 C   0  0  2  0  0  0  0  0  0  0  0  0
    8.2158  -15.7327   23.1039 N   0  0  0  0  0  0  0  0  0  0  0  0
    8.6322  -16.4456   25.3805 C   0  0  0  0  0  0  0  0  0  0  0  0
    7.8536  -17.4222   25.5442 O   0  0  0  0  0  0  0  0  0  0  0  0
    9.8539  -16.4681   26.0916 N   0  0  0  0  0  0  0  0  0  0  0  0
   10.3112  -17.6372   26.8395 C   0  0  1  0  0  0  0  0  0  0  0  0
   11.7800  -17.8990   26.6088 C   0  0  0  0  0  0  0  0  0  0  0  0
   12.1248  -17.9500   24.8090 S   0  0  0  0  0  0  0  0  0  0  0  0
   10.0537  -17.3987   28.2797 C   0  0  0  0  0  0  0  0  0  0  0  0
   10.3727  -18.3694   29.2101 O   0  0  0  0  0  0  0  0  0  0  0  0
    9.5477  -16.3255   28.6822 O   0  0  0  0  0  0  0  0  0  0  0  0
  2  3  2  0
  2  1  1  0
  4  2  1  0
  5  4  1  0
  6  5  1  0
  6  7  1  6
  8  6  1  0
  9  8  2  0
 11 12  1  0
 11 10  1  0
 14 13  1  1
 13 12  1  0
 14 15  1  0
 15  8  1  0
 16 18  1  0
 16 14  1  0
 17 16  2  0
 19 22  1  0
 19 20  1  1
 19 18  1  0
 20 21  1  0
 22 23  1  0
 24 22  2  0
M  END
$$$$
