QMC.pdb
     RDKit          3D

 24 23  0  0  1  0  0  0  0  0999 V2000
    9.9336  -17.5835   17.4263 N   0  0  0  0  0  0  0  0  0  0  0  0
    8.5468  -17.3359   17.3286 C   0  0  0  0  0  0  0  0  0  0  0  0
    7.9512  -17.7120   16.3048 O   0  0  0  0  0  0  0  0  0  0  0  0
    7.8363  -16.6483   18.4111 C   0  0  0  0  0  0  0  0  0  0  0  0
    8.6749  -16.2235   19.5490 C   0  0  0  0  0  0  0  0  0  0  0  0
    8.2590  -16.6877   20.9134 C   0  0  2  0  0  0  0  0  0  0  0  0
    6.8627  -16.8423   21.0604 N   0  0  0  0  0  0  0  0  0  0  0  0
    8.7709  -15.7315   21.9660 C   0  0  0  0  0  0  0  0  0  0  0  0
    9.9715  -15.4346   22.0693 O   0  0  0  0  0  0  0  0  0  0  0  0
    5.0125  -12.7151   26.8220 C   0  0  0  0  0  0  0  0  0  0  0  0
    6.2939  -11.5700   26.2785 S   0  0  0  0  0  0  0  0  0  0  0  0
    7.7293  -12.5255   25.6550 C   0  0  0  0  0  0  0  0  0  0  0  0
    7.2293  -13.3631   24.4902 C   0  0  0  0  0  0  0  0  0  0  0  0
    8.2870  -14.2551   23.9270 C   0  0  2  0  0  0  0  0  0  0  0  0
    7.8847  -15.1268   22.8904 N   0  0  0  0  0  0  0  0  0  0  0  0
    8.9371  -14.9464   25.0640 C   0  0  0  0  0  0  0  0  0  0  0  0
    9.2746  -14.2652   26.0683 O   0  0  0  0  0  0  0  0  0  0  0  0
    9.2091  -16.3331   25.1037 N   0  0  0  0  0  0  0  0  0  0  0  0
    9.8318  -16.9833   26.2547 C   0  0  1  0  0  0  0  0  0  0  0  0
    8.8231  -17.2620   27.3427 C   0  0  0  0  0  0  0  0  0  0  0  0
    7.5249  -18.3907   26.7093 S   0  0  0  0  0  0  0  0  0  0  0  0
   10.4522  -18.2489   25.7953 C   0  0  0  0  0  0  0  0  0  0  0  0
   10.2827  -18.6690   24.4898 O   0  0  0  0  0  0  0  0  0  0  0  0
   11.1361  -18.9579   26.5695 O   0  0  0  0  0  0  0  0  0  0  0  0
  2  3  2  0
  2  1  1  0
  4  2  1  0
  5  4  1  0
  6  5  1  0
  6  7  1  6
  8  6  1  0
  9  8  2  0
 11 12  1  0
 11 10  1  0
 14 13  1  1
 13 12  1  0
 14 15  1  0
 15  8  1  0
 16 18  1  0
 16 14  1  0
 17 16  2  0
 19 22  1  0
 19 20  1  1
 19 18  1  0
 20 21  1  0
 22 23  1  0
 24 22  2  0
M  END
$$$$
