QMC.pdb
     RDKit          3D

 24 23  0  0  1  0  0  0  0  0999 V2000
   10.4906  -16.6287   17.5266 N   0  0  0  0  0  0  0  0  0  0  0  0
    9.0907  -16.6873   17.3509 C   0  0  0  0  0  0  0  0  0  0  0  0
    8.6494  -17.0540   16.2485 O   0  0  0  0  0  0  0  0  0  0  0  0
    8.1879  -16.3195   18.4459 C   0  0  0  0  0  0  0  0  0  0  0  0
    8.8445  -16.0138   19.7320 C   0  0  0  0  0  0  0  0  0  0  0  0
    8.4118  -16.8128   20.9255 C   0  0  2  0  0  0  0  0  0  0  0  0
    7.0153  -17.0111   21.0012 N   0  0  0  0  0  0  0  0  0  0  0  0
    8.8936  -16.1513   22.1961 C   0  0  0  0  0  0  0  0  0  0  0  0
   10.0908  -15.8974   22.4027 O   0  0  0  0  0  0  0  0  0  0  0  0
    6.5416  -11.1894   25.7784 C   0  0  0  0  0  0  0  0  0  0  0  0
    6.6849  -12.5167   26.9894 S   0  0  0  0  0  0  0  0  0  0  0  0
    7.9312  -13.7294   26.4077 C   0  0  0  0  0  0  0  0  0  0  0  0
    7.3872  -14.3418   25.1281 C   0  0  0  0  0  0  0  0  0  0  0  0
    8.3592  -15.2699   24.4758 C   0  0  2  0  0  0  0  0  0  0  0  0
    7.9816  -15.7891   23.2171 N   0  0  0  0  0  0  0  0  0  0  0  0
    8.7107  -16.3133   25.4662 C   0  0  0  0  0  0  0  0  0  0  0  0
    7.8680  -17.2163   25.7129 O   0  0  0  0  0  0  0  0  0  0  0  0
    9.9395  -16.3696   26.1629 N   0  0  0  0  0  0  0  0  0  0  0  0
   10.2896  -17.4690   27.0596 C   0  0  1  0  0  0  0  0  0  0  0  0
   11.5750  -18.1378   26.6360 C   0  0  0  0  0  0  0  0  0  0  0  0
   11.4092  -18.7694   24.9230 S   0  0  0  0  0  0  0  0  0  0  0  0
   10.4234  -16.9256   28.4324 C   0  0  0  0  0  0  0  0  0  0  0  0
   10.7040  -17.7724   29.4878 O   0  0  0  0  0  0  0  0  0  0  0  0
   10.2872  -15.7021   28.6650 O   0  0  0  0  0  0  0  0  0  0  0  0
  2  3  2  0
  2  1  1  0
  4  2  1  0
  5  4  1  0
  6  5  1  0
  6  7  1  1
  8  6  1  0
  9  8  2  0
 11 12  1  0
 11 10  1  0
 14 13  1  1
 13 12  1  0
 14 15  1  0
 15  8  1  0
 16 18  1  0
 16 14  1  0
 17 16  2  0
 19 22  1  0
 19 20  1  6
 19 18  1  0
 20 21  1  0
 22 23  1  0
 24 22  2  0
M  END
$$$$
