QMC.pdb
     RDKit          3D

 24 23  0  0  1  0  0  0  0  0999 V2000
    8.2377  -12.6603   18.1961 N   0  0  0  0  0  0  0  0  0  0  0  0
    8.2224  -13.9758   17.6830 C   0  0  0  0  0  0  0  0  0  0  0  0
    7.7094  -14.1679   16.5676 O   0  0  0  0  0  0  0  0  0  0  0  0
    8.7964  -15.0818   18.4555 C   0  0  0  0  0  0  0  0  0  0  0  0
    9.3043  -14.7224   19.7939 C   0  0  0  0  0  0  0  0  0  0  0  0
    9.2218  -15.7747   20.8598 C   0  0  2  0  0  0  0  0  0  0  0  0
    8.0286  -16.5297   20.8224 N   0  0  0  0  0  0  0  0  0  0  0  0
    9.3735  -15.1443   22.2250 C   0  0  0  0  0  0  0  0  0  0  0  0
   10.3546  -14.4492   22.5329 O   0  0  0  0  0  0  0  0  0  0  0  0
    6.6164  -11.0694   26.5331 C   0  0  0  0  0  0  0  0  0  0  0  0
    6.1389  -12.7334   27.0350 S   0  0  0  0  0  0  0  0  0  0  0  0
    7.4972  -13.8967   26.6301 C   0  0  0  0  0  0  0  0  0  0  0  0
    7.2650  -14.3669   25.2041 C   0  0  0  0  0  0  0  0  0  0  0  0
    8.5095  -14.8825   24.5583 C   0  0  2  0  0  0  0  0  0  0  0  0
    8.3847  -15.3255   23.2224 N   0  0  0  0  0  0  0  0  0  0  0  0
    9.0946  -15.8953   25.4666 C   0  0  0  0  0  0  0  0  0  0  0  0
    8.8039  -17.1071   25.2829 O   0  0  0  0  0  0  0  0  0  0  0  0
    9.9671  -15.5962   26.5379 N   0  0  0  0  0  0  0  0  0  0  0  0
   10.8225  -16.6018   27.1644 C   0  0  1  0  0  0  0  0  0  0  0  0
   11.9400  -15.9615   27.9520 C   0  0  0  0  0  0  0  0  0  0  0  0
   11.2427  -14.7789   29.1670 S   0  0  0  0  0  0  0  0  0  0  0  0
    9.9827  -17.4383   28.0547 C   0  0  0  0  0  0  0  0  0  0  0  0
   10.5238  -18.5482   28.6751 O   0  0  0  0  0  0  0  0  0  0  0  0
    8.7785  -17.1622   28.2630 O   0  0  0  0  0  0  0  0  0  0  0  0
  2  3  2  0
  2  1  1  0
  4  2  1  0
  5  4  1  0
  6  5  1  0
  6  7  1  1
  8  6  1  0
  9  8  2  0
 11 12  1  0
 11 10  1  0
 14 13  1  1
 13 12  1  0
 14 15  1  0
 15  8  1  0
 16 18  1  0
 16 14  1  0
 17 16  2  0
 19 22  1  0
 19 20  1  1
 19 18  1  0
 20 21  1  0
 22 23  1  0
 24 22  2  0
M  END
$$$$
