QMC.pdb
     RDKit          3D

 24 23  0  0  1  0  0  0  0  0999 V2000
    7.9639  -13.0995   17.8317 N   0  0  0  0  0  0  0  0  0  0  0  0
    8.3095  -14.3593   17.2956 C   0  0  0  0  0  0  0  0  0  0  0  0
    7.9551  -14.6234   16.1341 O   0  0  0  0  0  0  0  0  0  0  0  0
    9.0645  -15.3268   18.0977 C   0  0  0  0  0  0  0  0  0  0  0  0
    9.4149  -14.8824   19.4608 C   0  0  0  0  0  0  0  0  0  0  0  0
    9.4428  -15.9305   20.5337 C   0  0  2  0  0  0  0  0  0  0  0  0
    8.2916  -16.7485   20.5597 N   0  0  0  0  0  0  0  0  0  0  0  0
    9.6289  -15.2838   21.8870 C   0  0  0  0  0  0  0  0  0  0  0  0
   10.6003  -14.5578   22.1508 O   0  0  0  0  0  0  0  0  0  0  0  0
    6.2398  -11.6156   27.7795 C   0  0  0  0  0  0  0  0  0  0  0  0
    6.0354  -12.7252   26.3739 S   0  0  0  0  0  0  0  0  0  0  0  0
    7.6376  -13.5409   26.0136 C   0  0  0  0  0  0  0  0  0  0  0  0
    7.4569  -14.3158   24.7193 C   0  0  0  0  0  0  0  0  0  0  0  0
    8.7442  -14.8564   24.1879 C   0  0  2  0  0  0  0  0  0  0  0  0
    8.6853  -15.4847   22.9237 N   0  0  0  0  0  0  0  0  0  0  0  0
    9.3397  -15.7056   25.2448 C   0  0  0  0  0  0  0  0  0  0  0  0
    9.1512  -16.9500   25.1936 O   0  0  0  0  0  0  0  0  0  0  0  0
   10.1145  -15.2140   26.3203 N   0  0  0  0  0  0  0  0  0  0  0  0
   10.9033  -16.0853   27.1886 C   0  0  1  0  0  0  0  0  0  0  0  0
   11.5446  -15.3084   28.3130 C   0  0  0  0  0  0  0  0  0  0  0  0
   10.2850  -14.2668   29.1432 S   0  0  0  0  0  0  0  0  0  0  0  0
   10.0076  -17.1323   27.7355 C   0  0  0  0  0  0  0  0  0  0  0  0
   10.5406  -18.2278   28.3877 O   0  0  0  0  0  0  0  0  0  0  0  0
    8.7627  -17.0495   27.6211 O   0  0  0  0  0  0  0  0  0  0  0  0
  2  3  2  0
  2  1  1  0
  4  2  1  0
  5  4  1  0
  6  5  1  0
  6  7  1  1
  8  6  1  0
  9  8  2  0
 11 12  1  0
 11 10  1  0
 14 13  1  1
 13 12  1  0
 14 15  1  0
 15  8  1  0
 16 18  1  0
 16 14  1  0
 17 16  2  0
 19 22  1  0
 19 20  1  1
 19 18  1  0
 20 21  1  0
 22 23  1  0
 24 22  2  0
M  END
$$$$
