QMC.pdb
     RDKit          3D

 24 23  0  0  1  0  0  0  0  0999 V2000
    5.9378  -20.4236   23.1680 N   0  0  0  0  0  0  0  0  0  0  0  0
    7.3459  -20.3774   23.2626 C   0  0  0  0  0  0  0  0  0  0  0  0
    7.9348  -21.3448   23.7742 O   0  0  0  0  0  0  0  0  0  0  0  0
    8.0862  -19.2117   22.7701 C   0  0  0  0  0  0  0  0  0  0  0  0
    7.2618  -18.1484   22.1634 C   0  0  0  0  0  0  0  0  0  0  0  0
    7.9783  -16.9229   21.6787 C   0  0  2  0  0  0  0  0  0  0  0  0
    9.0247  -17.1977   20.7707 N   0  0  0  0  0  0  0  0  0  0  0  0
    8.5248  -16.1424   22.8519 C   0  0  0  0  0  0  0  0  0  0  0  0
    9.7301  -16.1406   23.1478 O   0  0  0  0  0  0  0  0  0  0  0  0
    5.2823  -11.3097   25.6016 C   0  0  0  0  0  0  0  0  0  0  0  0
    6.3636  -11.6531   27.0022 S   0  0  0  0  0  0  0  0  0  0  0  0
    7.6874  -12.8055   26.4716 C   0  0  0  0  0  0  0  0  0  0  0  0
    7.0904  -13.6987   25.3973 C   0  0  0  0  0  0  0  0  0  0  0  0
    8.0964  -14.6229   24.7928 C   0  0  2  0  0  0  0  0  0  0  0  0
    7.6676  -15.3695   23.6725 N   0  0  0  0  0  0  0  0  0  0  0  0
    8.6466  -15.4571   25.8858 C   0  0  0  0  0  0  0  0  0  0  0  0
    9.1528  -14.8813   26.8851 O   0  0  0  0  0  0  0  0  0  0  0  0
    8.6440  -16.8708   25.8883 N   0  0  0  0  0  0  0  0  0  0  0  0
    9.2018  -17.6599   26.9844 C   0  0  1  0  0  0  0  0  0  0  0  0
    8.2083  -18.6763   27.4931 C   0  0  0  0  0  0  0  0  0  0  0  0
    7.2691  -19.3823   26.0859 S   0  0  0  0  0  0  0  0  0  0  0  0
   10.4242  -18.3400   26.4936 C   0  0  0  0  0  0  0  0  0  0  0  0
   11.1867  -19.1023   27.3580 O   0  0  0  0  0  0  0  0  0  0  0  0
   10.7898  -18.2412   25.2994 O   0  0  0  0  0  0  0  0  0  0  0  0
  2  3  2  0
  2  1  1  0
  4  2  1  0
  5  4  1  0
  6  5  1  0
  6  7  1  6
  8  6  1  0
  9  8  2  0
 11 12  1  0
 11 10  1  0
 14 13  1  1
 13 12  1  0
 14 15  1  0
 15  8  1  0
 16 18  1  0
 16 14  1  0
 17 16  2  0
 19 22  1  0
 19 20  1  6
 19 18  1  0
 20 21  1  0
 22 23  1  0
 24 22  2  0
M  END
$$$$
