QMC.pdb
     RDKit          3D

 24 23  0  0  1  0  0  0  0  0999 V2000
    7.5811  -19.7722   20.1265 N   0  0  0  0  0  0  0  0  0  0  0  0
    8.0159  -18.9509   19.0633 C   0  0  0  0  0  0  0  0  0  0  0  0
    8.2628  -19.4846   17.9685 O   0  0  0  0  0  0  0  0  0  0  0  0
    8.1727  -17.5060   19.2562 C   0  0  0  0  0  0  0  0  0  0  0  0
    7.8947  -17.0158   20.6204 C   0  0  0  0  0  0  0  0  0  0  0  0
    8.0487  -15.5430   20.8603 C   0  0  2  0  0  0  0  0  0  0  0  0
    8.7920  -14.8785   19.8598 N   0  0  0  0  0  0  0  0  0  0  0  0
    8.6914  -15.3003   22.2066 C   0  0  0  0  0  0  0  0  0  0  0  0
    9.9193  -15.1885   22.3485 O   0  0  0  0  0  0  0  0  0  0  0  0
    7.2014  -11.6250   27.7885 C   0  0  0  0  0  0  0  0  0  0  0  0
    6.1247  -12.1001   26.4233 S   0  0  0  0  0  0  0  0  0  0  0  0
    7.1318  -12.8885   25.1094 C   0  0  0  0  0  0  0  0  0  0  0  0
    7.5559  -14.2494   25.6354 C   0  0  0  0  0  0  0  0  0  0  0  0
    8.4272  -14.9914   24.6752 C   0  0  2  0  0  0  0  0  0  0  0  0
    7.9033  -15.1889   23.3779 N   0  0  0  0  0  0  0  0  0  0  0  0
    8.8538  -16.2444   25.3393 C   0  0  0  0  0  0  0  0  0  0  0  0
    8.0011  -17.1561   25.5078 O   0  0  0  0  0  0  0  0  0  0  0  0
   10.1658  -16.4942   25.8030 N   0  0  0  0  0  0  0  0  0  0  0  0
   10.5643  -17.7681   26.3978 C   0  0  1  0  0  0  0  0  0  0  0  0
   11.9421  -18.1826   25.9410 C   0  0  0  0  0  0  0  0  0  0  0  0
   12.0680  -18.0127   24.1199 S   0  0  0  0  0  0  0  0  0  0  0  0
   10.5362  -17.6223   27.8728 C   0  0  0  0  0  0  0  0  0  0  0  0
   10.1835  -16.4137   28.4424 O   0  0  0  0  0  0  0  0  0  0  0  0
   10.8273  -18.5789   28.6277 O   0  0  0  0  0  0  0  0  0  0  0  0
  2  3  2  0
  2  1  1  0
  4  2  1  0
  5  4  1  0
  6  5  1  0
  6  7  1  6
  8  6  1  0
  9  8  2  0
 11 12  1  0
 11 10  1  0
 14 13  1  1
 13 12  1  0
 14 15  1  0
 15  8  1  0
 16 18  1  0
 16 14  1  0
 17 16  2  0
 19 22  1  0
 19 20  1  6
 19 18  1  0
 20 21  1  0
 22 23  1  0
 24 22  2  0
M  END
$$$$
