CYL.pdb
     RDKit          3D

 27 27  0  0  1  0  0  0  0  0999 V2000
   24.6145  -20.6199   -8.8262 N   0  0  0  0  0  0  0  0  0  0  0  0
   23.9715  -20.9691  -10.0640 C   0  0  1  0  0  0  0  0  0  0  0  0
   22.4923  -20.5697  -10.0498 C   0  0  0  0  0  0  0  0  0  0  0  0
   21.6910  -21.5938   -8.7771 S   0  0  0  0  0  0  0  0  0  0  0  0
   24.6078  -20.1896  -11.1579 C   0  0  0  0  0  0  0  0  0  0  0  0
   25.0612  -19.0321  -10.9634 O   0  0  0  0  0  0  0  0  0  0  0  0
   31.0792  -20.5092  -10.5916 O   0  0  0  0  0  0  0  0  0  0  0  0
   29.9767  -20.6376  -11.4037 C   0  0  0  0  0  0  0  0  0  0  0  0
   29.7872  -19.7115  -12.4079 C   0  0  0  0  0  0  0  0  0  0  0  0
   28.6754  -19.8570  -13.2123 C   0  0  0  0  0  0  0  0  0  0  0  0
   27.7613  -20.8963  -13.0348 C   0  0  0  0  0  0  0  0  0  0  0  0
   26.5959  -20.9683  -13.9000 C   0  0  0  0  0  0  0  0  0  0  0  0
   25.4632  -20.0879  -13.5447 C   0  0  2  0  0  0  0  0  0  0  0  0
   24.7095  -20.7550  -12.4485 N   0  0  0  0  0  0  0  0  0  0  0  0
   24.5134  -19.7088  -14.5707 C   0  0  0  0  0  0  0  0  0  0  0  0
   23.7493  -20.6243  -15.0362 O   0  0  0  0  0  0  0  0  0  0  0  0
   27.9843  -21.7885  -12.0332 C   0  0  0  0  0  0  0  0  0  0  0  0
   29.0882  -21.6773  -11.2042 C   0  0  0  0  0  0  0  0  0  0  0  0
   22.2198  -16.5075  -18.6616 C   0  0  0  0  0  0  0  0  0  0  0  0
   22.0450  -16.1752  -17.2194 C   0  0  2  0  0  0  0  0  0  0  0  0
   21.9791  -14.6397  -17.0627 C   0  0  0  0  0  0  0  0  0  0  0  0
   23.0347  -16.7183  -16.2619 C   0  0  0  0  0  0  0  0  0  0  0  0
   23.3093  -18.1808  -16.2102 C   0  0  2  0  0  0  0  0  0  0  0  0
   24.3144  -18.4198  -15.1342 N   0  0  0  0  0  0  0  0  0  0  0  0
   23.6937  -18.8748  -17.4248 C   0  0  0  0  0  0  0  0  0  0  0  0
   22.8974  -19.5999  -18.2846 O   0  0  0  0  0  0  0  0  0  0  0  0
   24.9335  -18.8380  -17.7762 O   0  0  0  0  0  0  0  0  0  0  0  0
  2  1  1  1
  3  2  1  0
  4  3  1  0
  5  2  1  0
  5  6  2  0
  7  8  1  0
  8 18  2  0
  9  8  1  0
  9 10  2  0
 10 11  1  0
 11 17  2  0
 11 12  1  0
 13 12  1  6
 13 14  1  0
 14  5  1  0
 15 13  1  0
 16 15  2  0
 18 17  1  0
 20 19  1  6
 21 20  1  0
 23 22  1  6
 22 20  1  0
 23 24  1  0
 24 15  1  0
 25 26  1  0
 25 23  1  0
 27 25  2  0
M  END
$$$$
