CYL.pdb
     RDKit          3D

 27 27  0  0  1  0  0  0  0  0999 V2000
   28.5594  -20.4148  -18.3267 N   0  0  0  0  0  0  0  0  0  0  0  0
   27.7890  -21.1180  -17.3368 C   0  0  1  0  0  0  0  0  0  0  0  0
   28.5122  -21.1382  -15.9861 C   0  0  0  0  0  0  0  0  0  0  0  0
   29.5921  -22.6026  -15.9983 S   0  0  0  0  0  0  0  0  0  0  0  0
   26.5171  -20.3793  -17.1225 C   0  0  0  0  0  0  0  0  0  0  0  0
   26.4694  -19.1230  -17.1720 O   0  0  0  0  0  0  0  0  0  0  0  0
   18.1981  -17.9614  -17.3310 O   0  0  0  0  0  0  0  0  0  0  0  0
   19.4435  -18.5377  -17.4226 C   0  0  0  0  0  0  0  0  0  0  0  0
   20.5167  -17.7371  -17.7533 C   0  0  0  0  0  0  0  0  0  0  0  0
   21.7581  -18.3332  -17.8405 C   0  0  0  0  0  0  0  0  0  0  0  0
   21.9454  -19.6962  -17.6066 C   0  0  0  0  0  0  0  0  0  0  0  0
   23.2768  -20.2613  -17.7477 C   0  0  0  0  0  0  0  0  0  0  0  0
   24.0569  -20.4142  -16.5018 C   0  0  2  0  0  0  0  0  0  0  0  0
   25.3303  -21.0979  -16.8566 N   0  0  0  0  0  0  0  0  0  0  0  0
   23.4697  -21.1211  -15.3821 C   0  0  0  0  0  0  0  0  0  0  0  0
   24.0153  -22.2235  -15.0272 O   0  0  0  0  0  0  0  0  0  0  0  0
   20.8615  -20.4508  -17.2831 C   0  0  0  0  0  0  0  0  0  0  0  0
   19.5988  -19.8904  -17.1855 C   0  0  0  0  0  0  0  0  0  0  0  0
   24.6158  -20.4832  -10.2342 C   0  0  0  0  0  0  0  0  0  0  0  0
   23.4770  -21.0847  -10.9841 C   0  0  2  0  0  0  0  0  0  0  0  0
   23.4825  -22.6137  -10.7631 C   0  0  0  0  0  0  0  0  0  0  0  0
   23.3821  -20.8047  -12.4346 C   0  0  0  0  0  0  0  0  0  0  0  0
   22.1650  -21.1935  -13.1991 C   0  0  2  0  0  0  0  0  0  0  0  0
   22.3433  -20.7345  -14.6072 N   0  0  0  0  0  0  0  0  0  0  0  0
   20.8590  -20.8044  -12.7016 C   0  0  0  0  0  0  0  0  0  0  0  0
   19.9626  -21.5552  -11.9722 O   0  0  0  0  0  0  0  0  0  0  0  0
   20.4439  -19.6115  -12.9599 O   0  0  0  0  0  0  0  0  0  0  0  0
  2  1  1  6
  3  2  1  0
  4  3  1  0
  5  2  1  0
  5  6  2  0
  7  8  1  0
  8 18  2  0
  9  8  1  0
  9 10  2  0
 10 11  1  0
 11 17  2  0
 11 12  1  0
 13 12  1  6
 13 14  1  0
 14  5  1  0
 15 13  1  0
 16 15  2  0
 18 17  1  0
 20 19  1  6
 21 20  1  0
 23 22  1  1
 22 20  1  0
 23 24  1  0
 24 15  1  0
 25 26  1  0
 25 23  1  0
 27 25  2  0
M  END
$$$$
