CYL.pdb
     RDKit          3D

 27 27  0  0  1  0  0  0  0  0999 V2000
   27.6642  -19.6193  -18.8817 N   0  0  0  0  0  0  0  0  0  0  0  0
   27.1422  -18.7180  -17.8902 C   0  0  1  0  0  0  0  0  0  0  0  0
   25.9694  -17.9040  -18.4467 C   0  0  0  0  0  0  0  0  0  0  0  0
   26.6597  -16.8060  -19.7229 S   0  0  0  0  0  0  0  0  0  0  0  0
   26.5996  -19.5236  -16.7652 C   0  0  0  0  0  0  0  0  0  0  0  0
   26.0163  -20.6208  -16.9628 O   0  0  0  0  0  0  0  0  0  0  0  0
   25.0706  -21.2610   -8.1925 O   0  0  0  0  0  0  0  0  0  0  0  0
   25.5679  -20.8177   -9.3957 C   0  0  0  0  0  0  0  0  0  0  0  0
   24.9221  -19.7787  -10.0324 C   0  0  0  0  0  0  0  0  0  0  0  0
   25.4359  -19.3479  -11.2385 C   0  0  0  0  0  0  0  0  0  0  0  0
   26.5677  -19.9277  -11.8131 C   0  0  0  0  0  0  0  0  0  0  0  0
   27.0335  -19.4431  -13.1015 C   0  0  0  0  0  0  0  0  0  0  0  0
   26.2137  -19.8136  -14.2740 C   0  0  2  0  0  0  0  0  0  0  0  0
   26.7382  -19.0528  -15.4406 N   0  0  0  0  0  0  0  0  0  0  0  0
   24.7792  -19.6179  -14.2242 C   0  0  0  0  0  0  0  0  0  0  0  0
   24.3221  -18.4911  -14.6245 O   0  0  0  0  0  0  0  0  0  0  0  0
   27.1752  -20.9498  -11.1534 C   0  0  0  0  0  0  0  0  0  0  0  0
   26.6907  -21.4113   -9.9408 C   0  0  0  0  0  0  0  0  0  0  0  0
   19.9106  -18.8071  -15.0817 C   0  0  0  0  0  0  0  0  0  0  0  0
   20.7729  -19.6684  -15.9393 C   0  0  2  0  0  0  0  0  0  0  0  0
   20.0095  -20.9696  -16.2720 C   0  0  0  0  0  0  0  0  0  0  0  0
   22.1215  -20.0128  -15.4353 C   0  0  0  0  0  0  0  0  0  0  0  0
   22.3370  -20.2910  -13.9885 C   0  0  2  0  0  0  0  0  0  0  0  0
   23.7932  -20.5407  -13.7827 N   0  0  0  0  0  0  0  0  0  0  0  0
   21.5500  -21.3217  -13.3383 C   0  0  0  0  0  0  0  0  0  0  0  0
   20.3502  -21.1904  -12.6732 O   0  0  0  0  0  0  0  0  0  0  0  0
   22.0006  -22.5294  -13.3572 O   0  0  0  0  0  0  0  0  0  0  0  0
  2  1  1  6
  3  2  1  0
  4  3  1  0
  5  2  1  0
  5  6  2  0
  7  8  1  0
  8 18  2  0
  9  8  1  0
  9 10  2  0
 10 11  1  0
 11 17  2  0
 11 12  1  0
 13 12  1  1
 13 14  1  0
 14  5  1  0
 15 13  1  0
 16 15  2  0
 18 17  1  0
 20 19  1  1
 21 20  1  0
 23 22  1  6
 22 20  1  0
 23 24  1  0
 24 15  1  0
 25 26  1  0
 25 23  1  0
 27 25  2  0
M  END
$$$$
