CYL.pdb
     RDKit          3D

 27 27  0  0  1  0  0  0  0  0999 V2000
   28.7641  -21.7453  -18.0417 N   0  0  0  0  0  0  0  0  0  0  0  0
   28.3748  -22.2736  -16.7622 C   0  0  1  0  0  0  0  0  0  0  0  0
   29.5668  -22.3268  -15.8009 C   0  0  0  0  0  0  0  0  0  0  0  0
   30.3537  -23.9498  -16.0403 S   0  0  0  0  0  0  0  0  0  0  0  0
   27.3849  -21.3462  -16.1548 C   0  0  0  0  0  0  0  0  0  0  0  0
   27.5214  -20.0975  -16.2286 O   0  0  0  0  0  0  0  0  0  0  0  0
   19.4662  -18.6456  -13.5482 O   0  0  0  0  0  0  0  0  0  0  0  0
   20.5845  -19.2355  -14.0893 C   0  0  0  0  0  0  0  0  0  0  0  0
   20.8685  -20.5422  -13.7513 C   0  0  0  0  0  0  0  0  0  0  0  0
   21.9946  -21.1169  -14.3042 C   0  0  0  0  0  0  0  0  0  0  0  0
   22.8315  -20.4203  -15.1770 C   0  0  0  0  0  0  0  0  0  0  0  0
   24.0180  -21.0798  -15.6959 C   0  0  0  0  0  0  0  0  0  0  0  0
   25.2324  -20.9935  -14.8580 C   0  0  2  0  0  0  0  0  0  0  0  0
   26.2621  -21.8715  -15.4773 N   0  0  0  0  0  0  0  0  0  0  0  0
   25.1470  -21.3316  -13.4521 C   0  0  0  0  0  0  0  0  0  0  0  0
   25.1319  -22.5738  -13.1427 O   0  0  0  0  0  0  0  0  0  0  0  0
   22.5165  -19.1339  -15.4849 C   0  0  0  0  0  0  0  0  0  0  0  0
   21.3951  -18.5210  -14.9510 C   0  0  0  0  0  0  0  0  0  0  0  0
   26.1713  -19.3278   -7.7162 C   0  0  0  0  0  0  0  0  0  0  0  0
   25.8200  -20.4688   -8.6081 C   0  0  2  0  0  0  0  0  0  0  0  0
   26.7414  -21.6645   -8.2797 C   0  0  0  0  0  0  0  0  0  0  0  0
   25.8354  -20.2317  -10.0693 C   0  0  0  0  0  0  0  0  0  0  0  0
   24.8634  -20.9287  -10.9561 C   0  0  2  0  0  0  0  0  0  0  0  0
   25.0820  -20.4395  -12.3482 N   0  0  0  0  0  0  0  0  0  0  0  0
   23.4513  -20.8984  -10.6250 C   0  0  0  0  0  0  0  0  0  0  0  0
   22.7148  -21.8340   -9.9310 O   0  0  0  0  0  0  0  0  0  0  0  0
   22.7590  -19.8848  -11.0190 O   0  0  0  0  0  0  0  0  0  0  0  0
  2  1  1  6
  3  2  1  0
  4  3  1  0
  5  2  1  0
  5  6  2  0
  7  8  1  0
  8 18  2  0
  9  8  1  0
  9 10  2  0
 10 11  1  0
 11 17  2  0
 11 12  1  0
 13 12  1  6
 13 14  1  0
 14  5  1  0
 15 13  1  0
 16 15  2  0
 18 17  1  0
 20 19  1  1
 21 20  1  0
 23 22  1  1
 22 20  1  0
 23 24  1  0
 24 15  1  0
 25 26  1  0
 25 23  1  0
 27 25  2  0
M  END
$$$$
