CYL.pdb
     RDKit          3D

 27 27  0  0  1  0  0  0  0  0999 V2000
   23.1395  -10.8529  -15.2131 N   0  0  0  0  0  0  0  0  0  0  0  0
   22.2771   -9.9232  -15.8910 C   0  0  1  0  0  0  0  0  0  0  0  0
   20.8547  -10.4791  -16.0154 C   0  0  0  0  0  0  0  0  0  0  0  0
   20.9648  -11.9514  -17.0788 S   0  0  0  0  0  0  0  0  0  0  0  0
   22.1771   -8.6909  -15.0660 C   0  0  0  0  0  0  0  0  0  0  0  0
   22.0487   -8.7448  -13.8154 O   0  0  0  0  0  0  0  0  0  0  0  0
   26.5751   -5.6914  -19.5876 O   0  0  0  0  0  0  0  0  0  0  0  0
   25.8677   -5.6945  -18.4082 C   0  0  0  0  0  0  0  0  0  0  0  0
   25.9667   -6.7959  -17.5840 C   0  0  0  0  0  0  0  0  0  0  0  0
   25.2498   -6.7806  -16.4051 C   0  0  0  0  0  0  0  0  0  0  0  0
   24.4462   -5.7001  -16.0386 C   0  0  0  0  0  0  0  0  0  0  0  0
   23.6945   -5.7673  -14.7967 C   0  0  0  0  0  0  0  0  0  0  0  0
   22.2745   -6.1599  -14.9132 C   0  0  2  0  0  0  0  0  0  0  0  0
   22.2267   -7.4263  -15.6934 N   0  0  0  0  0  0  0  0  0  0  0  0
   21.3316   -5.2351  -15.5084 C   0  0  0  0  0  0  0  0  0  0  0  0
   20.8552   -5.5349  -16.6581 O   0  0  0  0  0  0  0  0  0  0  0  0
   24.3757   -4.6335  -16.8790 C   0  0  0  0  0  0  0  0  0  0  0  0
   25.0799   -4.6101  -18.0713 C   0  0  0  0  0  0  0  0  0  0  0  0
   16.8230   -2.2349  -16.0176 C   0  0  0  0  0  0  0  0  0  0  0  0
   17.5303   -3.3498  -16.7086 C   0  0  2  0  0  0  0  0  0  0  0  0
   16.5076   -4.4546  -17.0549 C   0  0  0  0  0  0  0  0  0  0  0  0
   18.6905   -3.9609  -16.0216 C   0  0  0  0  0  0  0  0  0  0  0  0
   19.8949   -3.1447  -15.7055 C   0  0  2  0  0  0  0  0  0  0  0  0
   20.8541   -4.0130  -14.9631 N   0  0  0  0  0  0  0  0  0  0  0  0
   19.7331   -1.8732  -15.0259 C   0  0  0  0  0  0  0  0  0  0  0  0
   19.1729   -0.7102  -15.5084 O   0  0  0  0  0  0  0  0  0  0  0  0
   20.1624   -1.7758  -13.8142 O   0  0  0  0  0  0  0  0  0  0  0  0
  2  1  1  1
  3  2  1  0
  4  3  1  0
  5  2  1  0
  5  6  2  0
  7  8  1  0
  8 18  2  0
  9  8  1  0
  9 10  2  0
 10 11  1  0
 11 17  2  0
 11 12  1  0
 13 12  1  6
 13 14  1  0
 14  5  1  0
 15 13  1  0
 16 15  2  0
 18 17  1  0
 20 19  1  1
 21 20  1  0
 23 22  1  1
 22 20  1  0
 23 24  1  0
 24 15  1  0
 25 26  1  0
 25 23  1  0
 27 25  2  0
M  END
$$$$
