CYL.pdb
     RDKit          3D

 27 27  0  0  1  0  0  0  0  0999 V2000
   28.1659  -20.9031  -16.9203 N   0  0  0  0  0  0  0  0  0  0  0  0
   28.0498  -21.6852  -15.7192 C   0  0  1  0  0  0  0  0  0  0  0  0
   29.4092  -21.8449  -15.0305 C   0  0  0  0  0  0  0  0  0  0  0  0
   30.2762  -23.1877  -15.9000 S   0  0  0  0  0  0  0  0  0  0  0  0
   27.1781  -20.9509  -14.7653 C   0  0  0  0  0  0  0  0  0  0  0  0
   27.2808  -19.7073  -14.6034 O   0  0  0  0  0  0  0  0  0  0  0  0
   19.7800  -18.8338  -10.6249 O   0  0  0  0  0  0  0  0  0  0  0  0
   20.8010  -19.4505  -11.3095 C   0  0  0  0  0  0  0  0  0  0  0  0
   21.3619  -18.7952  -12.3857 C   0  0  0  0  0  0  0  0  0  0  0  0
   22.3851  -19.4298  -13.0600 C   0  0  0  0  0  0  0  0  0  0  0  0
   22.8524  -20.6900  -12.6846 C   0  0  0  0  0  0  0  0  0  0  0  0
   23.9120  -21.3112  -13.4612 C   0  0  0  0  0  0  0  0  0  0  0  0
   25.2955  -20.9760  -13.0640 C   0  0  2  0  0  0  0  0  0  0  0  0
   26.2094  -21.6589  -14.0196 N   0  0  0  0  0  0  0  0  0  0  0  0
   25.7413  -21.2887  -11.7217 C   0  0  0  0  0  0  0  0  0  0  0  0
   26.0886  -22.4971  -11.4807 O   0  0  0  0  0  0  0  0  0  0  0  0
   22.2726  -21.3024  -11.6180 C   0  0  0  0  0  0  0  0  0  0  0  0
   21.2432  -20.6990  -10.9148 C   0  0  0  0  0  0  0  0  0  0  0  0
   27.6434  -18.9187   -6.3311 C   0  0  0  0  0  0  0  0  0  0  0  0
   27.5631  -20.1104   -7.2224 C   0  0  2  0  0  0  0  0  0  0  0  0
   28.9447  -20.8006   -7.2629 C   0  0  0  0  0  0  0  0  0  0  0  0
   27.0833  -19.9042   -8.6075 C   0  0  0  0  0  0  0  0  0  0  0  0
   26.1742  -20.8958   -9.2456 C   0  0  2  0  0  0  0  0  0  0  0  0
   25.8496  -20.4034  -10.6157 N   0  0  0  0  0  0  0  0  0  0  0  0
   24.9649  -21.2994   -8.5533 C   0  0  0  0  0  0  0  0  0  0  0  0
   23.6878  -20.8030   -8.7015 O   0  0  0  0  0  0  0  0  0  0  0  0
   25.0560  -22.2362   -7.6724 O   0  0  0  0  0  0  0  0  0  0  0  0
  2  1  1  6
  3  2  1  0
  4  3  1  0
  5  2  1  0
  5  6  2  0
  7  8  1  0
  8 18  2  0
  9  8  1  0
  9 10  2  0
 10 11  1  0
 11 17  2  0
 11 12  1  0
 13 12  1  1
 13 14  1  0
 14  5  1  0
 15 13  1  0
 16 15  2  0
 18 17  1  0
 20 19  1  6
 21 20  1  0
 23 22  1  1
 22 20  1  0
 23 24  1  0
 24 15  1  0
 25 26  1  0
 25 23  1  0
 27 25  2  0
M  END
$$$$
