CYL.pdb
     RDKit          3D

 27 27  0  0  1  0  0  0  0  0999 V2000
   32.7505  -28.0333  -18.3653 N   0  0  0  0  0  0  0  0  0  0  0  0
   32.7316  -29.4372  -18.6759 C   0  0  1  0  0  0  0  0  0  0  0  0
   33.1782  -30.2750  -17.4732 C   0  0  0  0  0  0  0  0  0  0  0  0
   34.9914  -30.1445  -17.3953 S   0  0  0  0  0  0  0  0  0  0  0  0
   31.3289  -29.8329  -18.9672 C   0  0  0  0  0  0  0  0  0  0  0  0
   30.3532  -29.1961  -18.4921 O   0  0  0  0  0  0  0  0  0  0  0  0
   24.9281  -33.4913  -23.8663 O   0  0  0  0  0  0  0  0  0  0  0  0
   26.1102  -33.0716  -23.3024 C   0  0  0  0  0  0  0  0  0  0  0  0
   26.3169  -31.7180  -23.1373 C   0  0  0  0  0  0  0  0  0  0  0  0
   27.5088  -31.3163  -22.5698 C   0  0  0  0  0  0  0  0  0  0  0  0
   28.4855  -32.2291  -22.1693 C   0  0  0  0  0  0  0  0  0  0  0  0
   29.7303  -31.7318  -21.6080 C   0  0  0  0  0  0  0  0  0  0  0  0
   29.6971  -31.3510  -20.1804 C   0  0  2  0  0  0  0  0  0  0  0  0
   31.0774  -30.9489  -19.7961 N   0  0  0  0  0  0  0  0  0  0  0  0
   29.2253  -32.3108  -19.2034 C   0  0  0  0  0  0  0  0  0  0  0  0
   30.0928  -33.0873  -18.6709 O   0  0  0  0  0  0  0  0  0  0  0  0
   28.2430  -33.5549  -22.3494 C   0  0  0  0  0  0  0  0  0  0  0  0
   27.0594  -33.9986  -22.9153 C   0  0  0  0  0  0  0  0  0  0  0  0
   26.5573  -32.7198  -13.9986 C   0  0  0  0  0  0  0  0  0  0  0  0
   26.9290  -33.5173  -15.2014 C   0  0  2  0  0  0  0  0  0  0  0  0
   28.0578  -34.5013  -14.8218 C   0  0  0  0  0  0  0  0  0  0  0  0
   27.3196  -32.7795  -16.4239 C   0  0  0  0  0  0  0  0  0  0  0  0
   27.5584  -33.5084  -17.7000 C   0  0  2  0  0  0  0  0  0  0  0  0
   27.8931  -32.5001  -18.7471 N   0  0  0  0  0  0  0  0  0  0  0  0
   26.5522  -34.4316  -18.1899 C   0  0  0  0  0  0  0  0  0  0  0  0
   25.4157  -34.1516  -18.9173 O   0  0  0  0  0  0  0  0  0  0  0  0
   26.7007  -35.6846  -17.9257 O   0  0  0  0  0  0  0  0  0  0  0  0
  2  1  1  1
  3  2  1  0
  4  3  1  0
  5  2  1  0
  5  6  2  0
  7  8  1  0
  8 18  2  0
  9  8  1  0
  9 10  2  0
 10 11  1  0
 11 17  2  0
 11 12  1  0
 13 12  1  6
 13 14  1  0
 14  5  1  0
 15 13  1  0
 16 15  2  0
 18 17  1  0
 20 19  1  1
 21 20  1  0
 23 22  1  1
 22 20  1  0
 23 24  1  0
 24 15  1  0
 25 26  1  0
 25 23  1  0
 27 25  2  0
M  END
$$$$
