CYL.pdb
     RDKit          3D

 27 27  0  0  1  0  0  0  0  0999 V2000
   28.4522  -22.6915  -17.9364 N   0  0  0  0  0  0  0  0  0  0  0  0
   28.3518  -21.4403  -17.2348 C   0  0  1  0  0  0  0  0  0  0  0  0
   27.7029  -20.3652  -18.1129 C   0  0  0  0  0  0  0  0  0  0  0  0
   28.9413  -19.8991  -19.3618 S   0  0  0  0  0  0  0  0  0  0  0  0
   27.4521  -21.6298  -16.0670 C   0  0  0  0  0  0  0  0  0  0  0  0
   26.4735  -22.4194  -16.1115 O   0  0  0  0  0  0  0  0  0  0  0  0
   24.7164  -20.1547   -7.7220 O   0  0  0  0  0  0  0  0  0  0  0  0
   25.4197  -20.2501   -8.9001 C   0  0  0  0  0  0  0  0  0  0  0  0
   25.8670  -19.0894   -9.4957 C   0  0  0  0  0  0  0  0  0  0  0  0
   26.5707  -19.2054  -10.6770 C   0  0  0  0  0  0  0  0  0  0  0  0
   26.8327  -20.4426  -11.2669 C   0  0  0  0  0  0  0  0  0  0  0  0
   27.5527  -20.4860  -12.5285 C   0  0  0  0  0  0  0  0  0  0  0  0
   26.8136  -21.0369  -13.6837 C   0  0  2  0  0  0  0  0  0  0  0  0
   27.6952  -20.9101  -14.8760 N   0  0  0  0  0  0  0  0  0  0  0  0
   25.5203  -20.4813  -14.0259 C   0  0  0  0  0  0  0  0  0  0  0  0
   25.4949  -19.5196  -14.8706 O   0  0  0  0  0  0  0  0  0  0  0  0
   26.3743  -21.5632  -10.6479 C   0  0  0  0  0  0  0  0  0  0  0  0
   25.6642  -21.4893   -9.4612 C   0  0  0  0  0  0  0  0  0  0  0  0
   21.2705  -18.4664  -15.8474 C   0  0  0  0  0  0  0  0  0  0  0  0
   21.8869  -19.7436  -16.3054 C   0  0  2  0  0  0  0  0  0  0  0  0
   20.7863  -20.8227  -16.4097 C   0  0  0  0  0  0  0  0  0  0  0  0
   23.0211  -20.2819  -15.5211 C   0  0  0  0  0  0  0  0  0  0  0  0
   22.9858  -20.2602  -14.0327 C   0  0  2  0  0  0  0  0  0  0  0  0
   24.2479  -20.8811  -13.5361 N   0  0  0  0  0  0  0  0  0  0  0  0
   21.8401  -20.8202  -13.3410 C   0  0  0  0  0  0  0  0  0  0  0  0
   21.7372  -22.0366  -12.7015 O   0  0  0  0  0  0  0  0  0  0  0  0
   20.7562  -20.1234  -13.3031 O   0  0  0  0  0  0  0  0  0  0  0  0
  2  1  1  6
  3  2  1  0
  4  3  1  0
  5  2  1  0
  5  6  2  0
  7  8  1  0
  8 18  2  0
  9  8  1  0
  9 10  2  0
 10 11  1  0
 11 17  2  0
 11 12  1  0
 13 12  1  1
 13 14  1  0
 14  5  1  0
 15 13  1  0
 16 15  2  0
 18 17  1  0
 20 19  1  1
 21 20  1  0
 23 22  1  6
 22 20  1  0
 23 24  1  0
 24 15  1  0
 25 26  1  0
 25 23  1  0
 27 25  2  0
M  END
$$$$
