CYL.pdb
     RDKit          3D

 27 27  0  0  1  0  0  0  0  0999 V2000
   28.1310  -20.2730  -16.2533 N   0  0  0  0  0  0  0  0  0  0  0  0
   28.0429  -21.0986  -15.0792 C   0  0  1  0  0  0  0  0  0  0  0  0
   29.3978  -21.1969  -14.3703 C   0  0  0  0  0  0  0  0  0  0  0  0
   30.2834  -22.5900  -15.1356 S   0  0  0  0  0  0  0  0  0  0  0  0
   27.1116  -20.4496  -14.1198 C   0  0  0  0  0  0  0  0  0  0  0  0
   27.1170  -19.2047  -13.9373 O   0  0  0  0  0  0  0  0  0  0  0  0
   19.3979  -19.3177  -10.0809 O   0  0  0  0  0  0  0  0  0  0  0  0
   20.4976  -19.7429  -10.7892 C   0  0  0  0  0  0  0  0  0  0  0  0
   21.0324  -18.9017  -11.7424 C   0  0  0  0  0  0  0  0  0  0  0  0
   22.1354  -19.3458  -12.4426 C   0  0  0  0  0  0  0  0  0  0  0  0
   22.7069  -20.5978  -12.2117 C   0  0  0  0  0  0  0  0  0  0  0  0
   23.8487  -21.0117  -13.0097 C   0  0  0  0  0  0  0  0  0  0  0  0
   25.1803  -20.6428  -12.4853 C   0  0  2  0  0  0  0  0  0  0  0  0
   26.1962  -21.2425  -13.3925 N   0  0  0  0  0  0  0  0  0  0  0  0
   25.5298  -21.0030  -11.1264 C   0  0  0  0  0  0  0  0  0  0  0  0
   25.8221  -22.2279  -10.8961 O   0  0  0  0  0  0  0  0  0  0  0  0
   22.1496  -21.3970  -11.2633 C   0  0  0  0  0  0  0  0  0  0  0  0
   21.0422  -20.9882  -10.5389 C   0  0  0  0  0  0  0  0  0  0  0  0
   28.6380  -21.1037   -7.4086 C   0  0  0  0  0  0  0  0  0  0  0  0
   28.0248  -19.8049   -7.8059 C   0  0  2  0  0  0  0  0  0  0  0  0
   28.5888  -18.6864   -6.9017 C   0  0  0  0  0  0  0  0  0  0  0  0
   26.5472  -19.7165   -7.8221 C   0  0  0  0  0  0  0  0  0  0  0  0
   25.7426  -20.6900   -8.6106 C   0  0  2  0  0  0  0  0  0  0  0  0
   25.5959  -20.1489   -9.9929 N   0  0  0  0  0  0  0  0  0  0  0  0
   24.4574  -21.1281   -8.0997 C   0  0  0  0  0  0  0  0  0  0  0  0
   24.1941  -22.1315   -7.1925 O   0  0  0  0  0  0  0  0  0  0  0  0
   23.3994  -20.5310   -8.5309 O   0  0  0  0  0  0  0  0  0  0  0  0
  2  1  1  6
  3  2  1  0
  4  3  1  0
  5  2  1  0
  5  6  2  0
  7  8  1  0
  8 18  2  0
  9  8  1  0
  9 10  2  0
 10 11  1  0
 11 17  2  0
 11 12  1  0
 13 12  1  6
 13 14  1  0
 14  5  1  0
 15 13  1  0
 16 15  2  0
 18 17  1  0
 20 19  1  1
 21 20  1  0
 23 22  1  1
 22 20  1  0
 23 24  1  0
 24 15  1  0
 25 26  1  0
 25 23  1  0
 27 25  2  0
M  END
$$$$
