CYL.pdb
     RDKit          3D

 27 27  0  0  1  0  0  0  0  0999 V2000
   28.0845  -23.9300  -17.2449 N   0  0  0  0  0  0  0  0  0  0  0  0
   27.8771  -25.3394  -17.4409 C   0  0  1  0  0  0  0  0  0  0  0  0
   28.7466  -26.1636  -16.4857 C   0  0  0  0  0  0  0  0  0  0  0  0
   29.9063  -27.1064  -17.5235 S   0  0  0  0  0  0  0  0  0  0  0  0
   26.4645  -25.6557  -17.1036 C   0  0  0  0  0  0  0  0  0  0  0  0
   25.8836  -25.1133  -16.1281 O   0  0  0  0  0  0  0  0  0  0  0  0
   18.0306  -27.4082  -18.3413 O   0  0  0  0  0  0  0  0  0  0  0  0
   19.3717  -27.1100  -18.4042 C   0  0  0  0  0  0  0  0  0  0  0  0
   20.1786  -27.8748  -19.2204 C   0  0  0  0  0  0  0  0  0  0  0  0
   21.5213  -27.5605  -19.2703 C   0  0  0  0  0  0  0  0  0  0  0  0
   22.0662  -26.5105  -18.5301 C   0  0  0  0  0  0  0  0  0  0  0  0
   23.4951  -26.2575  -18.6080 C   0  0  0  0  0  0  0  0  0  0  0  0
   24.3355  -26.9426  -17.6037 C   0  0  2  0  0  0  0  0  0  0  0  0
   25.7513  -26.5858  -17.8920 N   0  0  0  0  0  0  0  0  0  0  0  0
   24.2564  -28.3837  -17.4801 C   0  0  0  0  0  0  0  0  0  0  0  0
   25.1927  -29.0750  -18.0134 O   0  0  0  0  0  0  0  0  0  0  0  0
   21.2368  -25.7806  -17.7374 C   0  0  0  0  0  0  0  0  0  0  0  0
   19.8834  -26.0641  -17.6596 C   0  0  0  0  0  0  0  0  0  0  0  0
   25.2679  -33.2315  -16.8222 C   0  0  0  0  0  0  0  0  0  0  0  0
   25.6535  -31.8074  -16.6125 C   0  0  2  0  0  0  0  0  0  0  0  0
   26.9666  -31.7574  -15.8002 C   0  0  0  0  0  0  0  0  0  0  0  0
   24.6592  -30.9095  -15.9827 C   0  0  0  0  0  0  0  0  0  0  0  0
   23.3660  -30.6223  -16.6624 C   0  0  2  0  0  0  0  0  0  0  0  0
   23.2519  -29.1436  -16.8226 N   0  0  0  0  0  0  0  0  0  0  0  0
   22.1387  -31.1680  -16.1141 C   0  0  0  0  0  0  0  0  0  0  0  0
   21.6315  -32.4418  -16.2531 O   0  0  0  0  0  0  0  0  0  0  0  0
   21.3946  -30.3903  -15.4046 O   0  0  0  0  0  0  0  0  0  0  0  0
  2  1  1  1
  3  2  1  0
  4  3  1  0
  5  2  1  0
  5  6  2  0
  7  8  1  0
  8 18  2  0
  9  8  1  0
  9 10  2  0
 10 11  1  0
 11 17  2  0
 11 12  1  0
 13 12  1  6
 13 14  1  0
 14  5  1  0
 15 13  1  0
 16 15  2  0
 18 17  1  0
 20 19  1  1
 21 20  1  0
 23 22  1  1
 22 20  1  0
 23 24  1  0
 24 15  1  0
 25 26  1  0
 25 23  1  0
 27 25  2  0
M  END
$$$$
