CYL.pdb
     RDKit          3D

 27 27  0  0  1  0  0  0  0  0999 V2000
   27.8715  -19.9659  -14.1490 N   0  0  0  0  0  0  0  0  0  0  0  0
   28.0507  -20.7164  -12.9356 C   0  0  1  0  0  0  0  0  0  0  0  0
   29.4244  -20.4426  -12.3146 C   0  0  0  0  0  0  0  0  0  0  0  0
   30.4479  -21.9084  -12.6534 S   0  0  0  0  0  0  0  0  0  0  0  0
   27.0418  -20.2546  -11.9467 C   0  0  0  0  0  0  0  0  0  0  0  0
   26.7209  -19.0417  -11.8514 O   0  0  0  0  0  0  0  0  0  0  0  0
   21.1041  -18.8684  -14.3051 O   0  0  0  0  0  0  0  0  0  0  0  0
   21.8526  -19.5167  -13.3506 C   0  0  0  0  0  0  0  0  0  0  0  0
   21.8068  -19.0546  -12.0520 C   0  0  0  0  0  0  0  0  0  0  0  0
   22.5644  -19.7179  -11.1086 C   0  0  0  0  0  0  0  0  0  0  0  0
   23.3568  -20.8198  -11.4335 C   0  0  0  0  0  0  0  0  0  0  0  0
   24.1532  -21.4491  -10.3935 C   0  0  0  0  0  0  0  0  0  0  0  0
   25.4316  -20.7873  -10.0592 C   0  0  2  0  0  0  0  0  0  0  0  0
   26.4247  -21.1936  -11.0904 N   0  0  0  0  0  0  0  0  0  0  0  0
   26.0251  -21.0125   -8.7571 C   0  0  0  0  0  0  0  0  0  0  0  0
   25.3955  -21.7754   -7.9444 O   0  0  0  0  0  0  0  0  0  0  0  0
   23.3744  -21.2440  -12.7252 C   0  0  0  0  0  0  0  0  0  0  0  0
   22.6282  -20.6055  -13.7017 C   0  0  0  0  0  0  0  0  0  0  0  0
   29.5405  -19.6052   -4.4887 C   0  0  0  0  0  0  0  0  0  0  0  0
   29.8977  -20.6151   -5.5247 C   0  0  2  0  0  0  0  0  0  0  0  0
   31.4175  -20.5431   -5.7926 C   0  0  0  0  0  0  0  0  0  0  0  0
   29.1749  -20.5639   -6.8155 C   0  0  0  0  0  0  0  0  0  0  0  0
   27.6968  -20.7385   -6.8590 C   0  0  2  0  0  0  0  0  0  0  0  0
   27.2474  -20.4867   -8.2589 N   0  0  0  0  0  0  0  0  0  0  0  0
   26.8670  -20.0054   -5.9216 C   0  0  0  0  0  0  0  0  0  0  0  0
   26.3616  -20.4307   -4.7120 O   0  0  0  0  0  0  0  0  0  0  0  0
   26.5313  -18.7986   -6.2260 O   0  0  0  0  0  0  0  0  0  0  0  0
  2  1  1  6
  3  2  1  0
  4  3  1  0
  5  2  1  0
  5  6  2  0
  7  8  1  0
  8 18  2  0
  9  8  1  0
  9 10  2  0
 10 11  1  0
 11 17  2  0
 11 12  1  0
 13 12  1  1
 13 14  1  0
 14  5  1  0
 15 13  1  0
 16 15  2  0
 18 17  1  0
 20 19  1  1
 21 20  1  0
 23 22  1  6
 22 20  1  0
 23 24  1  0
 24 15  1  0
 25 26  1  0
 25 23  1  0
 27 25  2  0
M  END
$$$$
