CYL.pdb
     RDKit          3D

 27 27  0  0  1  0  0  0  0  0999 V2000
   33.0922  -35.5223   -8.0261 N   0  0  0  0  0  0  0  0  0  0  0  0
   32.1084  -36.2153   -7.2389 C   0  0  1  0  0  0  0  0  0  0  0  0
   32.6419  -37.5672   -6.7535 C   0  0  0  0  0  0  0  0  0  0  0  0
   32.9186  -38.5793   -8.2401 S   0  0  0  0  0  0  0  0  0  0  0  0
   31.8318  -35.4097   -6.0209 C   0  0  0  0  0  0  0  0  0  0  0  0
   32.7623  -34.9110   -5.3364 O   0  0  0  0  0  0  0  0  0  0  0  0
   25.0668  -32.7672   -7.9421 O   0  0  0  0  0  0  0  0  0  0  0  0
   26.2305  -32.8349   -7.2123 C   0  0  0  0  0  0  0  0  0  0  0  0
   26.1572  -33.2217   -5.8905 C   0  0  0  0  0  0  0  0  0  0  0  0
   27.3352  -33.2837   -5.1747 C   0  0  0  0  0  0  0  0  0  0  0  0
   28.5691  -32.9707   -5.7466 C   0  0  0  0  0  0  0  0  0  0  0  0
   29.7649  -33.0276   -4.9228 C   0  0  0  0  0  0  0  0  0  0  0  0
   30.1547  -34.3648   -4.4288 C   0  0  2  0  0  0  0  0  0  0  0  0
   30.4956  -35.1947   -5.6162 N   0  0  0  0  0  0  0  0  0  0  0  0
   29.2229  -35.1168   -3.6135 C   0  0  0  0  0  0  0  0  0  0  0  0
   29.0160  -36.3403   -3.9282 O   0  0  0  0  0  0  0  0  0  0  0  0
   28.5984  -32.5936   -7.0527 C   0  0  0  0  0  0  0  0  0  0  0  0
   27.4382  -32.5190   -7.8054 C   0  0  0  0  0  0  0  0  0  0  0  0
   26.4142  -38.4658   -1.0821 C   0  0  0  0  0  0  0  0  0  0  0  0
   27.7203  -38.1297   -1.7162 C   0  0  2  0  0  0  0  0  0  0  0  0
   28.7423  -39.2376   -1.3778 C   0  0  0  0  0  0  0  0  0  0  0  0
   28.3163  -36.8099   -1.4091 C   0  0  0  0  0  0  0  0  0  0  0  0
   27.5764  -35.5570   -1.7246 C   0  0  2  0  0  0  0  0  0  0  0  0
   28.4976  -34.6597   -2.4805 N   0  0  0  0  0  0  0  0  0  0  0  0
   26.9257  -34.8272   -0.6529 C   0  0  0  0  0  0  0  0  0  0  0  0
   27.0835  -33.5046   -0.2993 O   0  0  0  0  0  0  0  0  0  0  0  0
   26.0893  -35.4648    0.0926 O   0  0  0  0  0  0  0  0  0  0  0  0
  2  1  1  6
  3  2  1  0
  4  3  1  0
  5  2  1  0
  5  6  2  0
  7  8  1  0
  8 18  2  0
  9  8  1  0
  9 10  2  0
 10 11  1  0
 11 17  2  0
 11 12  1  0
 13 12  1  6
 13 14  1  0
 14  5  1  0
 15 13  1  0
 16 15  2  0
 18 17  1  0
 20 19  1  1
 21 20  1  0
 23 22  1  1
 22 20  1  0
 23 24  1  0
 24 15  1  0
 25 26  1  0
 25 23  1  0
 27 25  2  0
M  END
$$$$
