NWK.pdb
     RDKit          3D

 32 33  0  0  1  0  0  0  0  0999 V2000
    8.8439  -16.6565   18.2993 N   0  0  0  0  0  0  0  0  0  0  0  0
    8.6007  -15.4141   18.9234 C   0  0  0  0  0  0  0  0  0  0  0  0
    8.3324  -14.4164   18.2310 O   0  0  0  0  0  0  0  0  0  0  0  0
    8.6657  -15.3052   20.3893 C   0  0  0  0  0  0  0  0  0  0  0  0
    9.1296  -16.6104   20.9604 C   0  0  2  0  0  0  0  0  0  0  0  0
    8.1717  -17.6722   20.7383 N   0  0  0  0  0  0  0  0  0  0  0  0
    9.4847  -16.4921   22.4061 C   0  0  0  0  0  0  0  0  0  0  0  0
   10.6471  -16.0257   22.6582 O   0  0  0  0  0  0  0  0  0  0  0  0
    8.6567  -16.8464   23.4701 N   0  0  0  0  0  0  0  0  0  0  0  0
    9.1083  -16.7291   24.8527 C   0  0  1  0  0  0  0  0  0  0  0  0
    7.9126  -16.5659   25.7646 C   0  0  0  0  0  0  0  0  0  0  0  0
    7.1636  -15.3126   25.5734 C   0  0  0  0  0  0  0  0  0  0  0  0
    5.8384  -15.3254   25.1141 C   0  0  0  0  0  0  0  0  0  0  0  0
    5.4193  -14.0539   25.0875 N   0  0  0  0  0  0  0  0  0  0  0  0
    6.3564  -13.1966   25.4900 C   0  0  0  0  0  0  0  0  0  0  0  0
    6.4272  -11.8278   25.6310 C   0  0  0  0  0  0  0  0  0  0  0  0
    7.5983  -11.2115   26.0793 C   0  0  0  0  0  0  0  0  0  0  0  0
    8.6740  -12.0090   26.3741 C   0  0  0  0  0  0  0  0  0  0  0  0
    8.6010  -13.3818   26.2326 C   0  0  0  0  0  0  0  0  0  0  0  0
    7.4576  -13.9969   25.7953 C   0  0  0  0  0  0  0  0  0  0  0  0
    9.9545  -17.8263   25.2990 C   0  0  0  0  0  0  0  0  0  0  0  0
    9.6457  -19.0145   25.0300 O   0  0  0  0  0  0  0  0  0  0  0  0
   11.1612  -17.6450   26.0525 N   0  0  0  0  0  0  0  0  0  0  0  0
   11.9838  -18.7528   26.4935 C   0  0  1  0  0  0  0  0  0  0  0  0
   13.4518  -18.4271   26.3415 C   0  0  0  0  0  0  0  0  0  0  0  0
   14.3227  -19.6030   26.7331 C   0  0  0  0  0  0  0  0  0  0  0  0
   15.7859  -19.2933   26.6122 C   0  0  0  0  0  0  0  0  0  0  0  0
   16.6240  -20.4951   26.9638 C   0  0  0  0  0  0  0  0  0  0  0  0
   18.0388  -20.1978   26.8446 N   0  0  0  0  0  0  0  0  0  0  0  0
   11.7577  -18.9638   27.9613 C   0  0  0  0  0  0  0  0  0  0  0  0
   11.2180  -18.0884   28.6744 O   0  0  0  0  0  0  0  0  0  0  0  0
   12.1502  -20.1489   28.5525 O   0  0  0  0  0  0  0  0  0  0  0  0
  2  1  1  0
  3  2  2  0
  4  2  1  0
  5  6  1  1
  5  4  1  0
  7  9  1  0
  7  5  1  0
  8  7  2  0
 10  9  1  0
 10 11  1  1
 11 12  1  0
 12 20  1  0
 13 12  2  0
 13 14  1  0
 14 15  1  0
 15 16  1  0
 16 17  2  0
 18 17  1  0
 19 18  2  0
 20 15  2  0
 20 19  1  0
 21 10  1  0
 22 21  2  0
 23 21  1  0
 24 30  1  0
 24 23  1  0
 24 25  1  1
 26 25  1  0
 26 27  1  0
 27 28  1  0
 29 28  1  0
 30 32  1  0
 31 30  2  0
M  END
$$$$
