NWK.pdb
     RDKit          3D

 32 33  0  0  1  0  0  0  0  0999 V2000
    9.1843  -14.9860   17.9257 N   0  0  0  0  0  0  0  0  0  0  0  0
    8.2147  -15.5116   18.8063 C   0  0  0  0  0  0  0  0  0  0  0  0
    7.2220  -16.1057   18.3497 O   0  0  0  0  0  0  0  0  0  0  0  0
    8.3826  -15.3544   20.2596 C   0  0  0  0  0  0  0  0  0  0  0  0
    8.8433  -16.6540   20.8459 C   0  0  2  0  0  0  0  0  0  0  0  0
    7.8589  -17.7025   20.6847 N   0  0  0  0  0  0  0  0  0  0  0  0
    9.2526  -16.5076   22.2746 C   0  0  0  0  0  0  0  0  0  0  0  0
   10.3203  -15.8376   22.4827 O   0  0  0  0  0  0  0  0  0  0  0  0
    8.5676  -17.0379   23.3668 N   0  0  0  0  0  0  0  0  0  0  0  0
    9.0932  -16.9153   24.7225 C   0  0  1  0  0  0  0  0  0  0  0  0
    7.9483  -16.7538   25.6976 C   0  0  0  0  0  0  0  0  0  0  0  0
    7.2134  -15.4838   25.5737 C   0  0  0  0  0  0  0  0  0  0  0  0
    5.8516  -15.4665   25.2384 C   0  0  0  0  0  0  0  0  0  0  0  0
    5.4607  -14.1858   25.2480 N   0  0  0  0  0  0  0  0  0  0  0  0
    6.4499  -13.3500   25.5609 C   0  0  0  0  0  0  0  0  0  0  0  0
    6.5643  -11.9832   25.6921 C   0  0  0  0  0  0  0  0  0  0  0  0
    7.7854  -11.3937   26.0294 C   0  0  0  0  0  0  0  0  0  0  0  0
    8.8654  -12.2154   26.2255 C   0  0  0  0  0  0  0  0  0  0  0  0
    8.7487  -13.5862   26.0940 C   0  0  0  0  0  0  0  0  0  0  0  0
    7.5562  -14.1752   25.7651 C   0  0  0  0  0  0  0  0  0  0  0  0
    9.9664  -18.0084   25.1249 C   0  0  0  0  0  0  0  0  0  0  0  0
    9.6221  -19.2006   24.9255 O   0  0  0  0  0  0  0  0  0  0  0  0
   11.2397  -17.8186   25.7568 N   0  0  0  0  0  0  0  0  0  0  0  0
   12.0833  -18.9222   26.1674 C   0  0  1  0  0  0  0  0  0  0  0  0
   13.5443  -18.5460   26.0760 C   0  0  0  0  0  0  0  0  0  0  0  0
   14.4382  -19.6907   26.5063 C   0  0  0  0  0  0  0  0  0  0  0  0
   15.8919  -19.3199   26.4778 C   0  0  0  0  0  0  0  0  0  0  0  0
   16.7562  -20.4895   26.8721 C   0  0  0  0  0  0  0  0  0  0  0  0
   18.1640  -20.1500   26.7877 N   0  0  0  0  0  0  0  0  0  0  0  0
   11.8219  -19.2131   27.6156 C   0  0  0  0  0  0  0  0  0  0  0  0
   11.1545  -18.4330   28.3313 O   0  0  0  0  0  0  0  0  0  0  0  0
   12.3245  -20.3668   28.1852 O   0  0  0  0  0  0  0  0  0  0  0  0
  2  1  1  0
  3  2  2  0
  4  2  1  0
  5  6  1  1
  5  4  1  0
  7  9  1  0
  7  5  1  0
  8  7  2  0
 10  9  1  0
 10 11  1  1
 11 12  1  0
 12 20  1  0
 13 12  2  0
 13 14  1  0
 14 15  1  0
 15 16  1  0
 16 17  2  0
 18 17  1  0
 19 18  2  0
 20 15  2  0
 20 19  1  0
 21 10  1  0
 22 21  2  0
 23 21  1  0
 24 30  1  0
 24 23  1  0
 24 25  1  1
 26 25  1  0
 26 27  1  0
 27 28  1  0
 29 28  1  0
 30 32  1  0
 31 30  2  0
M  END
$$$$
