NWK.pdb
     RDKit          3D

 32 33  0  0  1  0  0  0  0  0999 V2000
    9.9704  -18.7376   17.2913 N   0  0  0  0  0  0  0  0  0  0  0  0
   10.4632  -19.4290   18.4188 C   0  0  0  0  0  0  0  0  0  0  0  0
   10.8239  -20.6141   18.3085 O   0  0  0  0  0  0  0  0  0  0  0  0
   10.5478  -18.7448   19.7188 C   0  0  0  0  0  0  0  0  0  0  0  0
   10.1477  -17.3111   19.5481 C   0  0  2  0  0  0  0  0  0  0  0  0
   11.0784  -16.5826   18.7130 N   0  0  0  0  0  0  0  0  0  0  0  0
    9.9456  -16.6282   20.8607 C   0  0  0  0  0  0  0  0  0  0  0  0
   11.0091  -16.2823   21.4786 O   0  0  0  0  0  0  0  0  0  0  0  0
    8.7094  -16.3501   21.4418 N   0  0  0  0  0  0  0  0  0  0  0  0
    8.6099  -15.8643   22.8141 C   0  0  1  0  0  0  0  0  0  0  0  0
    7.2009  -15.3831   23.0808 C   0  0  0  0  0  0  0  0  0  0  0  0
    6.9812  -14.8543   24.4374 C   0  0  0  0  0  0  0  0  0  0  0  0
    6.5199  -15.6833   25.4704 C   0  0  0  0  0  0  0  0  0  0  0  0
    6.4650  -14.9355   26.5797 N   0  0  0  0  0  0  0  0  0  0  0  0
    6.8507  -13.6776   26.3698 C   0  0  0  0  0  0  0  0  0  0  0  0
    6.9622  -12.5501   27.1540 C   0  0  0  0  0  0  0  0  0  0  0  0
    7.3992  -11.3386   26.6121 C   0  0  0  0  0  0  0  0  0  0  0  0
    7.7132  -11.3054   25.2778 C   0  0  0  0  0  0  0  0  0  0  0  0
    7.6012  -12.4374   24.4928 C   0  0  0  0  0  0  0  0  0  0  0  0
    7.1752  -13.6309   25.0137 C   0  0  0  0  0  0  0  0  0  0  0  0
    9.0269  -16.8300   23.8204 C   0  0  0  0  0  0  0  0  0  0  0  0
    8.5872  -18.0070   23.7897 O   0  0  0  0  0  0  0  0  0  0  0  0
    9.9373  -16.5261   24.8861 N   0  0  0  0  0  0  0  0  0  0  0  0
   10.4301  -17.5304   25.8063 C   0  0  1  0  0  0  0  0  0  0  0  0
   11.8816  -17.8482   25.5295 C   0  0  0  0  0  0  0  0  0  0  0  0
   12.0825  -19.3249   25.2586 C   0  0  0  0  0  0  0  0  0  0  0  0
   13.5119  -19.6573   24.9456 C   0  0  0  0  0  0  0  0  0  0  0  0
   13.6646  -21.1154   24.5983 C   0  0  0  0  0  0  0  0  0  0  0  0
   15.0544  -21.4507   24.3525 N   0  0  0  0  0  0  0  0  0  0  0  0
   10.3885  -16.9689   27.1967 C   0  0  0  0  0  0  0  0  0  0  0  0
   10.8522  -17.5996   28.1731 O   0  0  0  0  0  0  0  0  0  0  0  0
    9.8272  -15.7263   27.4181 O   0  0  0  0  0  0  0  0  0  0  0  0
  2  1  1  0
  3  2  2  0
  4  2  1  0
  5  6  1  1
  5  4  1  0
  7  9  1  0
  7  5  1  0
  8  7  2  0
 10  9  1  0
 10 11  1  1
 11 12  1  0
 12 20  1  0
 13 12  2  0
 13 14  1  0
 14 15  1  0
 15 16  1  0
 16 17  2  0
 18 17  1  0
 19 18  2  0
 20 15  2  0
 20 19  1  0
 21 10  1  0
 22 21  2  0
 23 21  1  0
 24 30  1  0
 24 23  1  0
 24 25  1  6
 26 25  1  0
 26 27  1  0
 27 28  1  0
 29 28  1  0
 30 32  1  0
 31 30  2  0
M  END
$$$$
