NWK.pdb
     RDKit          3D

 32 33  0  0  1  0  0  0  0  0999 V2000
   11.6291  -18.5210   19.1369 N   0  0  0  0  0  0  0  0  0  0  0  0
   11.9308  -17.1510   19.2917 C   0  0  0  0  0  0  0  0  0  0  0  0
   12.6493  -16.5776   18.4539 O   0  0  0  0  0  0  0  0  0  0  0  0
   11.3943  -16.4079   20.4427 C   0  0  0  0  0  0  0  0  0  0  0  0
   10.4538  -17.2911   21.2045 C   0  0  2  0  0  0  0  0  0  0  0  0
    9.1454  -17.3509   20.5890 N   0  0  0  0  0  0  0  0  0  0  0  0
   10.3607  -16.8984   22.6423 C   0  0  0  0  0  0  0  0  0  0  0  0
   11.4252  -16.4158   23.1583 O   0  0  0  0  0  0  0  0  0  0  0  0
    9.2225  -17.0194   23.4380 N   0  0  0  0  0  0  0  0  0  0  0  0
    9.2676  -16.7464   24.8706 C   0  0  1  0  0  0  0  0  0  0  0  0
    7.8870  -16.3669   25.3583 C   0  0  0  0  0  0  0  0  0  0  0  0
    7.4096  -15.0567   24.8853 C   0  0  0  0  0  0  0  0  0  0  0  0
    6.9287  -14.8915   23.5781 C   0  0  0  0  0  0  0  0  0  0  0  0
    6.5307  -13.6182   23.4638 N   0  0  0  0  0  0  0  0  0  0  0  0
    6.7078  -12.9227   24.5863 C   0  0  0  0  0  0  0  0  0  0  0  0
    6.4778  -11.6196   24.9703 C   0  0  0  0  0  0  0  0  0  0  0  0
    6.7967  -11.1835   26.2589 C   0  0  0  0  0  0  0  0  0  0  0  0
    7.3450  -12.0905   27.1289 C   0  0  0  0  0  0  0  0  0  0  0  0
    7.5745  -13.3973   26.7422 C   0  0  0  0  0  0  0  0  0  0  0  0
    7.2645  -13.8362   25.4818 C   0  0  0  0  0  0  0  0  0  0  0  0
    9.8184  -17.8328   25.6679 C   0  0  0  0  0  0  0  0  0  0  0  0
    9.1717  -18.9001   25.8171 O   0  0  0  0  0  0  0  0  0  0  0  0
   11.0936  -17.7732   26.3214 N   0  0  0  0  0  0  0  0  0  0  0  0
   11.6337  -18.8772   27.0882 C   0  0  1  0  0  0  0  0  0  0  0  0
   13.1443  -18.8791   27.0383 C   0  0  0  0  0  0  0  0  0  0  0  0
   13.6554  -19.5574   25.7841 C   0  0  0  0  0  0  0  0  0  0  0  0
   15.1538  -19.6263   25.7440 C   0  0  0  0  0  0  0  0  0  0  0  0
   15.6270  -20.4274   24.5589 C   0  0  0  0  0  0  0  0  0  0  0  0
   17.0747  -20.4190   24.4676 N   0  0  0  0  0  0  0  0  0  0  0  0
   11.2687  -18.6838   28.5302 C   0  0  0  0  0  0  0  0  0  0  0  0
   11.5952  -19.5152   29.4068 O   0  0  0  0  0  0  0  0  0  0  0  0
   10.5549  -17.5648   28.9131 O   0  0  0  0  0  0  0  0  0  0  0  0
  2  1  1  0
  3  2  2  0
  4  2  1  0
  5  6  1  6
  5  4  1  0
  7  9  1  0
  7  5  1  0
  8  7  2  0
 10  9  1  0
 10 11  1  1
 11 12  1  0
 12 20  1  0
 13 12  2  0
 13 14  1  0
 14 15  1  0
 15 16  1  0
 16 17  2  0
 18 17  1  0
 19 18  2  0
 20 15  2  0
 20 19  1  0
 21 10  1  0
 22 21  2  0
 23 21  1  0
 24 30  1  0
 24 23  1  0
 24 25  1  1
 26 25  1  0
 26 27  1  0
 27 28  1  0
 29 28  1  0
 30 32  1  0
 31 30  2  0
M  END
$$$$
