NWK.pdb
     RDKit          3D

 32 33  0  0  1  0  0  0  0  0999 V2000
    8.4283  -18.8121   17.5852 N   0  0  0  0  0  0  0  0  0  0  0  0
    9.4602  -19.4097   18.3402 C   0  0  0  0  0  0  0  0  0  0  0  0
   10.1177  -20.3474   17.8552 O   0  0  0  0  0  0  0  0  0  0  0  0
    9.7531  -18.9209   19.6968 C   0  0  0  0  0  0  0  0  0  0  0  0
    8.8092  -17.8071   20.0338 C   0  0  2  0  0  0  0  0  0  0  0  0
    8.7106  -16.8361   18.9653 N   0  0  0  0  0  0  0  0  0  0  0  0
    9.1570  -17.1544   21.3312 C   0  0  0  0  0  0  0  0  0  0  0  0
   10.1601  -17.6460   21.9512 O   0  0  0  0  0  0  0  0  0  0  0  0
    8.4799  -16.0749   21.8963 N   0  0  0  0  0  0  0  0  0  0  0  0
    8.8520  -15.5492   23.2057 C   0  0  1  0  0  0  0  0  0  0  0  0
    7.9713  -14.3676   23.5467 C   0  0  0  0  0  0  0  0  0  0  0  0
    8.0692  -13.9146   24.9444 C   0  0  0  0  0  0  0  0  0  0  0  0
    9.1452  -14.3025   25.7563 C   0  0  0  0  0  0  0  0  0  0  0  0
    8.9798  -13.7017   26.9414 N   0  0  0  0  0  0  0  0  0  0  0  0
    7.8826  -12.9472   26.9853 C   0  0  0  0  0  0  0  0  0  0  0  0
    7.2805  -12.1599   27.9424 C   0  0  0  0  0  0  0  0  0  0  0  0
    6.0869  -11.4860   27.6714 C   0  0  0  0  0  0  0  0  0  0  0  0
    5.5331  -11.6319   26.4255 C   0  0  0  0  0  0  0  0  0  0  0  0
    6.1386  -12.4216   25.4665 C   0  0  0  0  0  0  0  0  0  0  0  0
    7.3098  -13.0857   25.7207 C   0  0  0  0  0  0  0  0  0  0  0  0
    8.8293  -16.5379   24.2739 C   0  0  0  0  0  0  0  0  0  0  0  0
    7.7850  -17.1983   24.5039 O   0  0  0  0  0  0  0  0  0  0  0  0
    9.9538  -16.8252   25.1164 N   0  0  0  0  0  0  0  0  0  0  0  0
   10.0012  -17.9760   25.9950 C   0  0  1  0  0  0  0  0  0  0  0  0
   11.1421  -18.8933   25.6195 C   0  0  0  0  0  0  0  0  0  0  0  0
   10.7229  -19.8929   24.5614 C   0  0  0  0  0  0  0  0  0  0  0  0
   11.8334  -20.8328   24.1939 C   0  0  0  0  0  0  0  0  0  0  0  0
   11.4066  -21.7705   23.0944 C   0  0  0  0  0  0  0  0  0  0  0  0
   12.4775  -22.6834   22.7421 N   0  0  0  0  0  0  0  0  0  0  0  0
   10.2928  -17.5038   27.3886 C   0  0  0  0  0  0  0  0  0  0  0  0
   10.6189  -16.3190   27.6251 O   0  0  0  0  0  0  0  0  0  0  0  0
   10.2028  -18.3886   28.4456 O   0  0  0  0  0  0  0  0  0  0  0  0
  2  1  1  0
  3  2  2  0
  4  2  1  0
  5  6  1  6
  5  4  1  0
  7  9  1  0
  7  5  1  0
  8  7  2  0
 10  9  1  0
 10 11  1  1
 11 12  1  0
 12 20  1  0
 13 12  2  0
 13 14  1  0
 14 15  1  0
 15 16  1  0
 16 17  2  0
 18 17  1  0
 19 18  2  0
 20 15  2  0
 20 19  1  0
 21 10  1  0
 22 21  2  0
 23 21  1  0
 24 30  1  0
 24 23  1  0
 24 25  1  6
 26 25  1  0
 26 27  1  0
 27 28  1  0
 29 28  1  0
 30 32  1  0
 31 30  2  0
M  END
$$$$
