NWK.pdb
     RDKit          3D

 32 33  0  0  1  0  0  0  0  0999 V2000
   10.0328  -16.9628   18.9338 N   0  0  0  0  0  0  0  0  0  0  0  0
    9.8054  -15.6704   19.4535 C   0  0  0  0  0  0  0  0  0  0  0  0
    9.7318  -14.6978   18.6819 O   0  0  0  0  0  0  0  0  0  0  0  0
    9.6566  -15.4799   20.9049 C   0  0  0  0  0  0  0  0  0  0  0  0
    9.8455  -16.7955   21.5966 C   0  0  2  0  0  0  0  0  0  0  0  0
    8.7831  -17.7288   21.2892 N   0  0  0  0  0  0  0  0  0  0  0  0
   10.0151  -16.6314   23.0712 C   0  0  0  0  0  0  0  0  0  0  0  0
   11.0679  -16.0120   23.4456 O   0  0  0  0  0  0  0  0  0  0  0  0
    9.1270  -17.0953   24.0404 N   0  0  0  0  0  0  0  0  0  0  0  0
    9.4386  -16.9963   25.4624 C   0  0  1  0  0  0  0  0  0  0  0  0
    8.1653  -16.7661   26.2458 C   0  0  0  0  0  0  0  0  0  0  0  0
    7.4339  -15.5418   25.8789 C   0  0  0  0  0  0  0  0  0  0  0  0
    6.2032  -15.6083   25.2095 C   0  0  0  0  0  0  0  0  0  0  0  0
    5.7696  -14.3505   25.0582 N   0  0  0  0  0  0  0  0  0  0  0  0
    6.6105  -13.4531   25.5706 C   0  0  0  0  0  0  0  0  0  0  0  0
    6.6304  -12.0783   25.6604 C   0  0  0  0  0  0  0  0  0  0  0  0
    7.6993  -11.4135   26.2670 C   0  0  0  0  0  0  0  0  0  0  0  0
    8.7270  -12.1697   26.7693 C   0  0  0  0  0  0  0  0  0  0  0  0
    8.7051  -13.5486   26.6788 C   0  0  0  0  0  0  0  0  0  0  0  0
    7.6616  -14.2110   26.0876 C   0  0  0  0  0  0  0  0  0  0  0  0
   10.1746  -18.1349   25.9926 C   0  0  0  0  0  0  0  0  0  0  0  0
    9.7761  -19.3060   25.7704 O   0  0  0  0  0  0  0  0  0  0  0  0
   11.3668  -18.0149   26.7806 N   0  0  0  0  0  0  0  0  0  0  0  0
   12.0933  -19.1631   27.2828 C   0  0  1  0  0  0  0  0  0  0  0  0
   13.5851  -18.9463   27.1730 C   0  0  0  0  0  0  0  0  0  0  0  0
   14.3575  -20.1350   27.7066 C   0  0  0  0  0  0  0  0  0  0  0  0
   15.8420  -19.9279   27.6361 C   0  0  0  0  0  0  0  0  0  0  0  0
   16.5576  -21.2276   27.3737 C   0  0  0  0  0  0  0  0  0  0  0  0
   17.9900  -21.0233   27.2705 N   0  0  0  0  0  0  0  0  0  0  0  0
   11.8045  -19.3106   28.7473 C   0  0  0  0  0  0  0  0  0  0  0  0
   12.3259  -20.2204   29.4304 O   0  0  0  0  0  0  0  0  0  0  0  0
   10.9437  -18.4273   29.3692 O   0  0  0  0  0  0  0  0  0  0  0  0
  2  1  1  0
  3  2  2  0
  4  2  1  0
  5  6  1  1
  5  4  1  0
  7  9  1  0
  7  5  1  0
  8  7  2  0
 10  9  1  0
 10 11  1  1
 11 12  1  0
 12 20  1  0
 13 12  2  0
 13 14  1  0
 14 15  1  0
 15 16  1  0
 16 17  2  0
 18 17  1  0
 19 18  2  0
 20 15  2  0
 20 19  1  0
 21 10  1  0
 22 21  2  0
 23 21  1  0
 24 30  1  0
 24 23  1  0
 24 25  1  1
 26 25  1  0
 26 27  1  0
 27 28  1  0
 29 28  1  0
 30 32  1  0
 31 30  2  0
M  END
$$$$
