NWK.pdb
     RDKit          3D

 32 33  0  0  1  0  0  0  0  0999 V2000
   11.7753  -18.0277   17.7716 N   0  0  0  0  0  0  0  0  0  0  0  0
   12.5046  -17.0210   18.4400 C   0  0  0  0  0  0  0  0  0  0  0  0
   13.1279  -16.1690   17.7823 O   0  0  0  0  0  0  0  0  0  0  0  0
   12.5239  -16.9840   19.9108 C   0  0  0  0  0  0  0  0  0  0  0  0
   11.1590  -17.3188   20.4302 C   0  0  2  0  0  0  0  0  0  0  0  0
   10.2178  -17.5737   19.3608 N   0  0  0  0  0  0  0  0  0  0  0  0
   10.6472  -16.2749   21.3674 C   0  0  0  0  0  0  0  0  0  0  0  0
   11.5204  -15.4658   21.8313 O   0  0  0  0  0  0  0  0  0  0  0  0
    9.3177  -16.1273   21.7600 N   0  0  0  0  0  0  0  0  0  0  0  0
    8.9709  -15.6310   23.0875 C   0  0  1  0  0  0  0  0  0  0  0  0
    7.4754  -15.4220   23.1760 C   0  0  0  0  0  0  0  0  0  0  0  0
    7.0033  -14.9222   24.4782 C   0  0  0  0  0  0  0  0  0  0  0  0
    6.2792  -15.7485   25.3501 C   0  0  0  0  0  0  0  0  0  0  0  0
    6.0346  -15.0343   26.4561 N   0  0  0  0  0  0  0  0  0  0  0  0
    6.5352  -13.8013   26.3915 C   0  0  0  0  0  0  0  0  0  0  0  0
    6.5468  -12.7103   27.2329 C   0  0  0  0  0  0  0  0  0  0  0  0
    7.1658  -11.5167   26.8530 C   0  0  0  0  0  0  0  0  0  0  0  0
    7.7607  -11.4636   25.6187 C   0  0  0  0  0  0  0  0  0  0  0  0
    7.7486  -12.5591   24.7762 C   0  0  0  0  0  0  0  0  0  0  0  0
    7.1459  -13.7349   25.1388 C   0  0  0  0  0  0  0  0  0  0  0  0
    9.4425  -16.4696   24.1800 C   0  0  0  0  0  0  0  0  0  0  0  0
    9.3417  -16.0766   25.3695 O   0  0  0  0  0  0  0  0  0  0  0  0
   10.0371  -17.7611   23.9924 N   0  0  0  0  0  0  0  0  0  0  0  0
   10.4914  -18.5826   25.0956 C   0  0  1  0  0  0  0  0  0  0  0  0
   11.1481  -19.8468   24.5906 C   0  0  0  0  0  0  0  0  0  0  0  0
   11.6131  -20.7235   25.7349 C   0  0  0  0  0  0  0  0  0  0  0  0
   12.4103  -21.9032   25.2611 C   0  0  0  0  0  0  0  0  0  0  0  0
   12.8989  -22.7280   26.4236 C   0  0  0  0  0  0  0  0  0  0  0  0
   11.7913  -23.3495   27.1246 N   0  0  0  0  0  0  0  0  0  0  0  0
   11.5553  -17.8354   25.8438 C   0  0  0  0  0  0  0  0  0  0  0  0
   11.5407  -17.7477   27.0921 O   0  0  0  0  0  0  0  0  0  0  0  0
   12.5817  -17.2247   25.1499 O   0  0  0  0  0  0  0  0  0  0  0  0
  2  1  1  0
  3  2  2  0
  4  2  1  0
  5  6  1  6
  5  4  1  0
  7  9  1  0
  7  5  1  0
  8  7  2  0
 10  9  1  0
 10 11  1  6
 11 12  1  0
 12 20  1  0
 13 12  2  0
 13 14  1  0
 14 15  1  0
 15 16  1  0
 16 17  2  0
 18 17  1  0
 19 18  2  0
 20 15  2  0
 20 19  1  0
 21 10  1  0
 22 21  2  0
 23 21  1  0
 24 30  1  0
 24 23  1  0
 24 25  1  6
 26 25  1  0
 26 27  1  0
 27 28  1  0
 29 28  1  0
 30 32  1  0
 31 30  2  0
M  END
$$$$
