NWK.pdb
     RDKit          3D

 32 33  0  0  1  0  0  0  0  0999 V2000
    8.2125  -15.8914   17.1137 N   0  0  0  0  0  0  0  0  0  0  0  0
    7.4802  -16.2145   18.2762 C   0  0  0  0  0  0  0  0  0  0  0  0
    6.4778  -16.9458   18.1922 O   0  0  0  0  0  0  0  0  0  0  0  0
    7.9059  -15.6848   19.5813 C   0  0  0  0  0  0  0  0  0  0  0  0
    8.4181  -16.8108   20.4269 C   0  0  2  0  0  0  0  0  0  0  0  0
    7.3728  -17.7498   20.7730 N   0  0  0  0  0  0  0  0  0  0  0  0
    9.1292  -16.3162   21.6433 C   0  0  0  0  0  0  0  0  0  0  0  0
   10.1364  -15.5594   21.4311 O   0  0  0  0  0  0  0  0  0  0  0  0
    8.7785  -16.6162   22.9587 N   0  0  0  0  0  0  0  0  0  0  0  0
    9.6735  -16.3098   24.0697 C   0  0  1  0  0  0  0  0  0  0  0  0
    8.9110  -16.3943   25.3733 C   0  0  0  0  0  0  0  0  0  0  0  0
    7.7814  -15.4562   25.4835 C   0  0  0  0  0  0  0  0  0  0  0  0
    6.4596  -15.8933   25.3134 C   0  0  0  0  0  0  0  0  0  0  0  0
    5.6661  -14.8340   25.5164 N   0  0  0  0  0  0  0  0  0  0  0  0
    6.3507  -13.7285   25.8065 C   0  0  0  0  0  0  0  0  0  0  0  0
    6.0160  -12.4203   26.0806 C   0  0  0  0  0  0  0  0  0  0  0  0
    7.0028  -11.4655   26.3393 C   0  0  0  0  0  0  0  0  0  0  0  0
    8.3130  -11.8690   26.3120 C   0  0  0  0  0  0  0  0  0  0  0  0
    8.6468  -13.1817   26.0373 C   0  0  0  0  0  0  0  0  0  0  0  0
    7.6877  -14.1266   25.7836 C   0  0  0  0  0  0  0  0  0  0  0  0
   10.8717  -17.1353   24.1157 C   0  0  0  0  0  0  0  0  0  0  0  0
   10.7986  -18.3707   23.8964 O   0  0  0  0  0  0  0  0  0  0  0  0
   12.1801  -16.6237   24.4041 N   0  0  0  0  0  0  0  0  0  0  0  0
   13.3895  -17.3837   24.1629 C   0  0  1  0  0  0  0  0  0  0  0  0
   14.1809  -16.7880   23.0214 C   0  0  0  0  0  0  0  0  0  0  0  0
   15.6636  -16.7630   23.3301 C   0  0  0  0  0  0  0  0  0  0  0  0
   16.4718  -16.1997   22.1982 C   0  0  0  0  0  0  0  0  0  0  0  0
   17.9453  -16.2482   22.5091 C   0  0  0  0  0  0  0  0  0  0  0  0
   18.7308  -15.7604   21.3914 N   0  0  0  0  0  0  0  0  0  0  0  0
   14.2698  -17.2812   25.3732 C   0  0  0  0  0  0  0  0  0  0  0  0
   15.3411  -17.9221   25.4613 O   0  0  0  0  0  0  0  0  0  0  0  0
   13.9004  -16.4628   26.4229 O   0  0  0  0  0  0  0  0  0  0  0  0
  2  1  1  0
  3  2  2  0
  4  2  1  0
  5  6  1  1
  5  4  1  0
  7  9  1  0
  7  5  1  0
  8  7  2  0
 10  9  1  0
 10 11  1  1
 11 12  1  0
 12 20  1  0
 13 12  2  0
 13 14  1  0
 14 15  1  0
 15 16  1  0
 16 17  2  0
 18 17  1  0
 19 18  2  0
 20 15  2  0
 20 19  1  0
 21 10  1  0
 22 21  2  0
 23 21  1  0
 24 30  1  0
 24 23  1  0
 24 25  1  6
 26 25  1  0
 26 27  1  0
 27 28  1  0
 29 28  1  0
 30 32  1  0
 31 30  2  0
M  END
$$$$
