NWK.pdb
     RDKit          3D

 32 33  0  0  1  0  0  0  0  0999 V2000
    8.0649  -15.2364   16.6583 N   0  0  0  0  0  0  0  0  0  0  0  0
    7.9863  -16.1510   17.7304 C   0  0  0  0  0  0  0  0  0  0  0  0
    7.3158  -17.1913   17.6079 O   0  0  0  0  0  0  0  0  0  0  0  0
    8.6975  -15.8696   18.9874 C   0  0  0  0  0  0  0  0  0  0  0  0
    7.7131  -15.8489   20.1167 C   0  0  2  0  0  0  0  0  0  0  0  0
    6.6762  -14.8595   19.9161 N   0  0  0  0  0  0  0  0  0  0  0  0
    8.3845  -15.6723   21.4389 C   0  0  0  0  0  0  0  0  0  0  0  0
    9.2593  -14.7432   21.5002 O   0  0  0  0  0  0  0  0  0  0  0  0
    8.1287  -16.4316   22.5797 N   0  0  0  0  0  0  0  0  0  0  0  0
    8.9697  -16.3214   23.7669 C   0  0  1  0  0  0  0  0  0  0  0  0
    8.1103  -16.4178   25.0079 C   0  0  0  0  0  0  0  0  0  0  0  0
    7.2636  -15.2395   25.2591 C   0  0  0  0  0  0  0  0  0  0  0  0
    5.8689  -15.3577   25.3497 C   0  0  0  0  0  0  0  0  0  0  0  0
    5.3884  -14.1388   25.6260 N   0  0  0  0  0  0  0  0  0  0  0  0
    6.3477  -13.2197   25.7256 C   0  0  0  0  0  0  0  0  0  0  0  0
    6.3756  -11.8652   25.9765 C   0  0  0  0  0  0  0  0  0  0  0  0
    7.5838  -11.1639   26.0011 C   0  0  0  0  0  0  0  0  0  0  0  0
    8.7399  -11.8634   25.7681 C   0  0  0  0  0  0  0  0  0  0  0  0
    8.7101  -13.2222   25.5171 C   0  0  0  0  0  0  0  0  0  0  0  0
    7.5315  -13.9202   25.4920 C   0  0  0  0  0  0  0  0  0  0  0  0
   10.0610  -17.2835   23.8163 C   0  0  0  0  0  0  0  0  0  0  0  0
    9.8234  -18.5154   23.7420 O   0  0  0  0  0  0  0  0  0  0  0  0
   11.4409  -16.9158   23.9491 N   0  0  0  0  0  0  0  0  0  0  0  0
   12.5185  -17.8821   23.8928 C   0  0  1  0  0  0  0  0  0  0  0  0
   13.8182  -17.2169   23.5018 C   0  0  0  0  0  0  0  0  0  0  0  0
   14.9189  -18.2356   23.2896 C   0  0  0  0  0  0  0  0  0  0  0  0
   16.1535  -17.6246   22.6947 C   0  0  0  0  0  0  0  0  0  0  0  0
   17.1993  -18.6745   22.4222 C   0  0  0  0  0  0  0  0  0  0  0  0
   18.3877  -18.0871   21.8333 N   0  0  0  0  0  0  0  0  0  0  0  0
   12.7370  -18.4379   25.2688 C   0  0  0  0  0  0  0  0  0  0  0  0
   12.2536  -17.8869   26.2832 O   0  0  0  0  0  0  0  0  0  0  0  0
   13.4881  -19.5854   25.4340 O   0  0  0  0  0  0  0  0  0  0  0  0
  2  1  1  0
  3  2  2  0
  4  2  1  0
  5  6  1  6
  5  4  1  0
  7  9  1  0
  7  5  1  0
  8  7  2  0
 10  9  1  0
 10 11  1  1
 11 12  1  0
 12 20  1  0
 13 12  2  0
 13 14  1  0
 14 15  1  0
 15 16  1  0
 16 17  2  0
 18 17  1  0
 19 18  2  0
 20 15  2  0
 20 19  1  0
 21 10  1  0
 22 21  2  0
 23 21  1  0
 24 30  1  0
 24 23  1  0
 24 25  1  1
 26 25  1  0
 26 27  1  0
 27 28  1  0
 29 28  1  0
 30 32  1  0
 31 30  2  0
M  END
$$$$
