NWK.pdb
     RDKit          3D

 32 33  0  0  1  0  0  0  0  0999 V2000
   10.3588  -15.3633   17.2016 N   0  0  0  0  0  0  0  0  0  0  0  0
    9.2883  -15.7092   18.0539 C   0  0  0  0  0  0  0  0  0  0  0  0
    8.2784  -16.2632   17.5846 O   0  0  0  0  0  0  0  0  0  0  0  0
    9.3719  -15.4130   19.4927 C   0  0  0  0  0  0  0  0  0  0  0  0
    9.5536  -16.6932   20.2497 C   0  0  2  0  0  0  0  0  0  0  0  0
    8.4785  -17.6293   20.0006 N   0  0  0  0  0  0  0  0  0  0  0  0
    9.7391  -16.4550   21.7122 C   0  0  0  0  0  0  0  0  0  0  0  0
   10.6936  -15.6683   22.0322 O   0  0  0  0  0  0  0  0  0  0  0  0
    8.9630  -17.0175   22.7244 N   0  0  0  0  0  0  0  0  0  0  0  0
    9.3039  -16.8332   24.1311 C   0  0  1  0  0  0  0  0  0  0  0  0
    8.0508  -16.5262   24.9206 C   0  0  0  0  0  0  0  0  0  0  0  0
    7.4718  -15.1981   24.6578 C   0  0  0  0  0  0  0  0  0  0  0  0
    6.6989  -14.9604   23.5118 C   0  0  0  0  0  0  0  0  0  0  0  0
    6.2808  -13.6900   23.5762 N   0  0  0  0  0  0  0  0  0  0  0  0
    6.7124  -13.0628   24.6695 C   0  0  0  0  0  0  0  0  0  0  0  0
    6.5739  -11.7907   25.1804 C   0  0  0  0  0  0  0  0  0  0  0  0
    7.1829  -11.4302   26.3852 C   0  0  0  0  0  0  0  0  0  0  0  0
    7.9221  -12.3795   27.0430 C   0  0  0  0  0  0  0  0  0  0  0  0
    8.0595  -13.6552   26.5294 C   0  0  0  0  0  0  0  0  0  0  0  0
    7.4657  -14.0201   25.3498 C   0  0  0  0  0  0  0  0  0  0  0  0
   10.0275  -17.9502   24.7210 C   0  0  0  0  0  0  0  0  0  0  0  0
    9.5190  -19.0995   24.7318 O   0  0  0  0  0  0  0  0  0  0  0  0
   11.3279  -17.8320   25.3140 N   0  0  0  0  0  0  0  0  0  0  0  0
   12.0018  -18.9434   25.9534 C   0  0  1  0  0  0  0  0  0  0  0  0
   13.4391  -18.5946   26.2645 C   0  0  0  0  0  0  0  0  0  0  0  0
   14.1491  -19.7401   26.9558 C   0  0  0  0  0  0  0  0  0  0  0  0
   15.5686  -19.4022   27.3059 C   0  0  0  0  0  0  0  0  0  0  0  0
   16.2293  -20.5386   28.0423 C   0  0  0  0  0  0  0  0  0  0  0  0
   17.5782  -20.1866   28.4434 N   0  0  0  0  0  0  0  0  0  0  0  0
   11.3452  -19.2058   27.2763 C   0  0  0  0  0  0  0  0  0  0  0  0
   11.1012  -20.3689   27.6684 O   0  0  0  0  0  0  0  0  0  0  0  0
   10.9964  -18.1463   28.0912 O   0  0  0  0  0  0  0  0  0  0  0  0
  2  1  1  0
  3  2  2  0
  4  2  1  0
  5  6  1  1
  5  4  1  0
  7  9  1  0
  7  5  1  0
  8  7  2  0
 10  9  1  0
 10 11  1  1
 11 12  1  0
 12 20  1  0
 13 12  2  0
 13 14  1  0
 14 15  1  0
 15 16  1  0
 16 17  2  0
 18 17  1  0
 19 18  2  0
 20 15  2  0
 20 19  1  0
 21 10  1  0
 22 21  2  0
 23 21  1  0
 24 30  1  0
 24 23  1  0
 24 25  1  1
 26 25  1  0
 26 27  1  0
 27 28  1  0
 29 28  1  0
 30 32  1  0
 31 30  2  0
M  END
$$$$
