WKG.pdb
     RDKit          3D

 28 29  0  0  1  0  0  0  0  0999 V2000
   26.7090  -22.1333  -10.2822 N   0  0  0  0  0  0  0  0  0  0  0  0
   26.0373  -20.8827   -9.9815 C   0  0  1  0  0  0  0  0  0  0  0  0
   27.1192  -19.8338   -9.8495 C   0  0  0  0  0  0  0  0  0  0  0  0
   28.1529  -20.1977   -8.8658 C   0  0  0  0  0  0  0  0  0  0  0  0
   29.3059  -20.8978   -9.1292 C   0  0  0  0  0  0  0  0  0  0  0  0
   29.9851  -21.0281   -7.9804 N   0  0  0  0  0  0  0  0  0  0  0  0
   29.3349  -20.4434   -6.9534 C   0  0  0  0  0  0  0  0  0  0  0  0
   29.6034  -20.3019   -5.6048 C   0  0  0  0  0  0  0  0  0  0  0  0
   28.7377  -19.6385   -4.7691 C   0  0  0  0  0  0  0  0  0  0  0  0
   27.5861  -19.1123   -5.3059 C   0  0  0  0  0  0  0  0  0  0  0  0
   27.3208  -19.2549   -6.6510 C   0  0  0  0  0  0  0  0  0  0  0  0
   28.1736  -19.9175   -7.5166 C   0  0  0  0  0  0  0  0  0  0  0  0
   25.0968  -20.5947  -11.0730 C   0  0  0  0  0  0  0  0  0  0  0  0
   24.5323  -19.4844  -11.1264 O   0  0  0  0  0  0  0  0  0  0  0  0
   24.8187  -21.5539  -12.0664 N   0  0  0  0  0  0  0  0  0  0  0  0
   24.0841  -21.2580  -13.2954 C   0  0  1  0  0  0  0  0  0  0  0  0
   24.5005  -22.1844  -14.4133 C   0  0  0  0  0  0  0  0  0  0  0  0
   25.6672  -21.6910  -15.2022 C   0  0  0  0  0  0  0  0  0  0  0  0
   27.0018  -22.0197  -14.6202 C   0  0  0  0  0  0  0  0  0  0  0  0
   28.1476  -21.3844  -15.3648 C   0  0  0  0  0  0  0  0  0  0  0  0
   29.4291  -21.6091  -14.7225 N   0  0  0  0  0  0  0  0  0  0  0  0
   22.6213  -21.4822  -13.0827 C   0  0  0  0  0  0  0  0  0  0  0  0
   21.8883  -21.4608  -14.0982 O   0  0  0  0  0  0  0  0  0  0  0  0
   22.0318  -21.7128  -11.8204 N   0  0  0  0  0  0  0  0  0  0  0  0
   20.6296  -21.9396  -11.6114 C   0  0  0  0  0  0  0  0  0  0  0  0
   19.8310  -20.7001  -11.6682 C   0  0  0  0  0  0  0  0  0  0  0  0
   19.6871  -20.0120  -10.6387 O   0  0  0  0  0  0  0  0  0  0  0  0
   19.2425  -20.2934  -12.8444 O   0  0  0  0  0  0  0  0  0  0  0  0
  2  1  1  6
  2  3  1  0
  2 13  1  0
  3  4  1  0
  4  5  2  0
  5  6  1  0
  7  6  1  0
  8  7  2  0
  9  8  1  0
 10 11  1  0
 10  9  2  0
 11 12  2  0
 12  4  1  0
 12  7  1  0
 13 15  1  0
 13 14  2  0
 15 16  1  0
 16 17  1  6
 18 17  1  0
 19 18  1  0
 20 19  1  0
 21 20  1  0
 22 24  1  0
 22 16  1  0
 23 22  2  0
 25 24  1  0
 26 28  1  0
 26 25  1  0
 27 26  2  0
M  END
$$$$
