WKG.pdb
     RDKit          3D

 28 29  0  0  1  0  0  0  0  0999 V2000
   27.7877  -21.4338  -10.0078 N   0  0  0  0  0  0  0  0  0  0  0  0
   26.4158  -21.0030   -9.8127 C   0  0  1  0  0  0  0  0  0  0  0  0
   26.4630  -19.8402   -8.8464 C   0  0  0  0  0  0  0  0  0  0  0  0
   26.6286  -20.2654   -7.4462 C   0  0  0  0  0  0  0  0  0  0  0  0
   25.7532  -21.0483   -6.7324 C   0  0  0  0  0  0  0  0  0  0  0  0
   26.2537  -21.2139   -5.4993 N   0  0  0  0  0  0  0  0  0  0  0  0
   27.4317  -20.5731   -5.3545 C   0  0  0  0  0  0  0  0  0  0  0  0
   28.3261  -20.4355   -4.3096 C   0  0  0  0  0  0  0  0  0  0  0  0
   29.4803  -19.7028   -4.4481 C   0  0  0  0  0  0  0  0  0  0  0  0
   29.7313  -19.1022   -5.6594 C   0  0  0  0  0  0  0  0  0  0  0  0
   28.8377  -19.2410   -6.6997 C   0  0  0  0  0  0  0  0  0  0  0  0
   27.6678  -19.9724   -6.5897 C   0  0  0  0  0  0  0  0  0  0  0  0
   25.8625  -20.6316  -11.1221 C   0  0  0  0  0  0  0  0  0  0  0  0
   26.3545  -19.6754  -11.7530 O   0  0  0  0  0  0  0  0  0  0  0  0
   24.7806  -21.3387  -11.6824 N   0  0  0  0  0  0  0  0  0  0  0  0
   24.1394  -20.9720  -12.9441 C   0  0  1  0  0  0  0  0  0  0  0  0
   24.0377  -22.1627  -13.8677 C   0  0  0  0  0  0  0  0  0  0  0  0
   25.3438  -22.5851  -14.4531 C   0  0  0  0  0  0  0  0  0  0  0  0
   25.2745  -23.7822  -15.3420 C   0  0  0  0  0  0  0  0  0  0  0  0
   26.5923  -24.1165  -15.9923 C   0  0  0  0  0  0  0  0  0  0  0  0
   26.5769  -25.4016  -16.6658 N   0  0  0  0  0  0  0  0  0  0  0  0
   22.7396  -20.5119  -12.6910 C   0  0  0  0  0  0  0  0  0  0  0  0
   22.0940  -21.1141  -11.8025 O   0  0  0  0  0  0  0  0  0  0  0  0
   22.1168  -19.4533  -13.3879 N   0  0  0  0  0  0  0  0  0  0  0  0
   20.8006  -18.9578  -13.0988 C   0  0  0  0  0  0  0  0  0  0  0  0
   19.7409  -19.6755  -13.8332 C   0  0  0  0  0  0  0  0  0  0  0  0
   19.8532  -20.9002  -14.0365 O   0  0  0  0  0  0  0  0  0  0  0  0
   18.6290  -19.0094  -14.2969 O   0  0  0  0  0  0  0  0  0  0  0  0
  2  1  1  6
  2  3  1  0
  2 13  1  0
  3  4  1  0
  4  5  2  0
  5  6  1  0
  7  6  1  0
  8  7  2  0
  9  8  1  0
 10 11  1  0
 10  9  2  0
 11 12  2  0
 12  4  1  0
 12  7  1  0
 13 15  1  0
 13 14  2  0
 15 16  1  0
 16 17  1  6
 18 17  1  0
 19 18  1  0
 20 19  1  0
 21 20  1  0
 22 24  1  0
 22 16  1  0
 23 22  2  0
 25 24  1  0
 26 28  1  0
 26 25  1  0
 27 26  2  0
M  END
$$$$
