WKG.pdb
     RDKit          3D

 28 29  0  0  1  0  0  0  0  0999 V2000
   26.9996  -22.6343  -10.8205 N   0  0  0  0  0  0  0  0  0  0  0  0
   26.2777  -21.4004  -10.5718 C   0  0  1  0  0  0  0  0  0  0  0  0
   27.3067  -20.2917  -10.5731 C   0  0  0  0  0  0  0  0  0  0  0  0
   28.2647  -20.3982   -9.4597 C   0  0  0  0  0  0  0  0  0  0  0  0
   29.5840  -20.7688   -9.5639 C   0  0  0  0  0  0  0  0  0  0  0  0
   30.1209  -20.7455   -8.3352 N   0  0  0  0  0  0  0  0  0  0  0  0
   29.2150  -20.3738   -7.4076 C   0  0  0  0  0  0  0  0  0  0  0  0
   29.2625  -20.1993   -6.0372 C   0  0  0  0  0  0  0  0  0  0  0  0
   28.1542  -19.8031   -5.3281 C   0  0  0  0  0  0  0  0  0  0  0  0
   26.9840  -19.5811   -6.0153 C   0  0  0  0  0  0  0  0  0  0  0  0
   26.9394  -19.7559   -7.3819 C   0  0  0  0  0  0  0  0  0  0  0  0
   28.0389  -20.1540   -8.1223 C   0  0  0  0  0  0  0  0  0  0  0  0
   25.2685  -21.2401  -11.6277 C   0  0  0  0  0  0  0  0  0  0  0  0
   25.5965  -21.3768  -12.8227 O   0  0  0  0  0  0  0  0  0  0  0  0
   23.9298  -20.9334  -11.3147 N   0  0  0  0  0  0  0  0  0  0  0  0
   22.8630  -20.8517  -12.3111 C   0  0  1  0  0  0  0  0  0  0  0  0
   21.5066  -21.0262  -11.6700 C   0  0  0  0  0  0  0  0  0  0  0  0
   21.0528  -22.4459  -11.5959 C   0  0  0  0  0  0  0  0  0  0  0  0
   19.6887  -22.6389  -11.0217 C   0  0  0  0  0  0  0  0  0  0  0  0
   19.3222  -24.0887  -10.8349 C   0  0  0  0  0  0  0  0  0  0  0  0
   18.4294  -24.3027   -9.7112 N   0  0  0  0  0  0  0  0  0  0  0  0
   22.8599  -19.4983  -12.9464 C   0  0  0  0  0  0  0  0  0  0  0  0
   22.6195  -18.5202  -12.2018 O   0  0  0  0  0  0  0  0  0  0  0  0
   23.1089  -19.2674  -14.3170 N   0  0  0  0  0  0  0  0  0  0  0  0
   23.1662  -17.9661  -14.9212 C   0  0  0  0  0  0  0  0  0  0  0  0
   23.4803  -18.0135  -16.3622 C   0  0  0  0  0  0  0  0  0  0  0  0
   23.6514  -19.1153  -16.9196 O   0  0  0  0  0  0  0  0  0  0  0  0
   23.5869  -16.8558  -17.0993 O   0  0  0  0  0  0  0  0  0  0  0  0
  2  1  1  6
  2  3  1  0
  2 13  1  0
  3  4  1  0
  4  5  2  0
  5  6  1  0
  7  6  1  0
  8  7  2  0
  9  8  1  0
 10 11  1  0
 10  9  2  0
 11 12  2  0
 12  4  1  0
 12  7  1  0
 13 15  1  0
 13 14  2  0
 15 16  1  0
 16 17  1  1
 18 17  1  0
 19 18  1  0
 20 19  1  0
 21 20  1  0
 22 24  1  0
 22 16  1  0
 23 22  2  0
 25 24  1  0
 26 28  1  0
 26 25  1  0
 27 26  2  0
M  END
$$$$
