WKG.pdb
     RDKit          3D

 28 29  0  0  1  0  0  0  0  0999 V2000
   24.0721  -18.8693  -18.0813 N   0  0  0  0  0  0  0  0  0  0  0  0
   24.5587  -18.2681  -16.8535 C   0  0  1  0  0  0  0  0  0  0  0  0
   23.3832  -17.5472  -16.2317 C   0  0  0  0  0  0  0  0  0  0  0  0
   23.2668  -16.1491  -16.6793 C   0  0  0  0  0  0  0  0  0  0  0  0
   22.2511  -15.6297  -17.4457 C   0  0  0  0  0  0  0  0  0  0  0  0
   22.5016  -14.3269  -17.6410 N   0  0  0  0  0  0  0  0  0  0  0  0
   23.6464  -13.9484  -17.0362 C   0  0  0  0  0  0  0  0  0  0  0  0
   24.3277  -12.7497  -16.9381 C   0  0  0  0  0  0  0  0  0  0  0  0
   25.5057  -12.6521  -16.2375 C   0  0  0  0  0  0  0  0  0  0  0  0
   25.9995  -13.7822  -15.6292 C   0  0  0  0  0  0  0  0  0  0  0  0
   25.3180  -14.9763  -15.7287 C   0  0  0  0  0  0  0  0  0  0  0  0
   24.1300  -15.1048  -16.4271 C   0  0  0  0  0  0  0  0  0  0  0  0
   25.0858  -19.3395  -15.9972 C   0  0  0  0  0  0  0  0  0  0  0  0
   25.0853  -20.5166  -16.4082 O   0  0  0  0  0  0  0  0  0  0  0  0
   25.5949  -19.0614  -14.7136 N   0  0  0  0  0  0  0  0  0  0  0  0
   26.2281  -20.0642  -13.8584 C   0  0  1  0  0  0  0  0  0  0  0  0
   27.0019  -19.4113  -12.7376 C   0  0  0  0  0  0  0  0  0  0  0  0
   27.7632  -20.3748  -11.8894 C   0  0  0  0  0  0  0  0  0  0  0  0
   28.8801  -21.0773  -12.5870 C   0  0  0  0  0  0  0  0  0  0  0  0
   29.6902  -21.9597  -11.6726 C   0  0  0  0  0  0  0  0  0  0  0  0
   30.6647  -22.7644  -12.3856 N   0  0  0  0  0  0  0  0  0  0  0  0
   25.1840  -20.9166  -13.2114 C   0  0  0  0  0  0  0  0  0  0  0  0
   25.5797  -21.7811  -12.3960 O   0  0  0  0  0  0  0  0  0  0  0  0
   23.7998  -20.8016  -13.4659 N   0  0  0  0  0  0  0  0  0  0  0  0
   22.7910  -21.6016  -12.8306 C   0  0  0  0  0  0  0  0  0  0  0  0
   21.7929  -20.7966  -12.1004 C   0  0  0  0  0  0  0  0  0  0  0  0
   21.8688  -19.5525  -12.1228 O   0  0  0  0  0  0  0  0  0  0  0  0
   20.7782  -21.4022  -11.3943 O   0  0  0  0  0  0  0  0  0  0  0  0
  2  1  1  6
  2  3  1  0
  2 13  1  0
  3  4  1  0
  4  5  2  0
  5  6  1  0
  7  6  1  0
  8  7  2  0
  9  8  1  0
 10 11  1  0
 10  9  2  0
 11 12  2  0
 12  4  1  0
 12  7  1  0
 13 15  1  0
 13 14  2  0
 15 16  1  0
 16 17  1  1
 18 17  1  0
 19 18  1  0
 20 19  1  0
 21 20  1  0
 22 24  1  0
 22 16  1  0
 23 22  2  0
 25 24  1  0
 26 28  1  0
 26 25  1  0
 27 26  2  0
M  END
$$$$
