WKG.pdb
     RDKit          3D

 28 29  0  0  1  0  0  0  0  0999 V2000
   27.9751  -21.3138  -10.5532 N   0  0  0  0  0  0  0  0  0  0  0  0
   26.6603  -21.0601   -9.9939 C   0  0  1  0  0  0  0  0  0  0  0  0
   26.8478  -20.0275   -8.9046 C   0  0  0  0  0  0  0  0  0  0  0  0
   28.0183  -20.2992   -8.0532 C   0  0  0  0  0  0  0  0  0  0  0  0
   29.1501  -20.9806   -8.4319 C   0  0  0  0  0  0  0  0  0  0  0  0
   29.9834  -21.0192   -7.3819 N   0  0  0  0  0  0  0  0  0  0  0  0
   29.4572  -20.3905   -6.3108 C   0  0  0  0  0  0  0  0  0  0  0  0
   29.9008  -20.1573   -5.0226 C   0  0  0  0  0  0  0  0  0  0  0  0
   29.1324  -19.4684   -4.1154 C   0  0  0  0  0  0  0  0  0  0  0  0
   27.8998  -19.0104   -4.5180 C   0  0  0  0  0  0  0  0  0  0  0  0
   27.4599  -19.2444   -5.8033 C   0  0  0  0  0  0  0  0  0  0  0  0
   28.2115  -19.9347   -6.7382 C   0  0  0  0  0  0  0  0  0  0  0  0
   25.7853  -20.5910  -11.0770 C   0  0  0  0  0  0  0  0  0  0  0  0
   26.1003  -19.5781  -11.7320 O   0  0  0  0  0  0  0  0  0  0  0  0
   24.5903  -21.2672  -11.3920 N   0  0  0  0  0  0  0  0  0  0  0  0
   23.7042  -20.8784  -12.4879 C   0  0  1  0  0  0  0  0  0  0  0  0
   23.4733  -22.0322  -13.4349 C   0  0  0  0  0  0  0  0  0  0  0  0
   24.7171  -22.5323  -14.0906 C   0  0  0  0  0  0  0  0  0  0  0  0
   25.3010  -21.6127  -15.1110 C   0  0  0  0  0  0  0  0  0  0  0  0
   26.5689  -22.1412  -15.7309 C   0  0  0  0  0  0  0  0  0  0  0  0
   27.2106  -21.1783  -16.6065 N   0  0  0  0  0  0  0  0  0  0  0  0
   22.3623  -20.4978  -11.9495 C   0  0  0  0  0  0  0  0  0  0  0  0
   21.9426  -21.1405  -10.9597 O   0  0  0  0  0  0  0  0  0  0  0  0
   21.5565  -19.4706  -12.4876 N   0  0  0  0  0  0  0  0  0  0  0  0
   20.3254  -19.0180  -11.9037 C   0  0  0  0  0  0  0  0  0  0  0  0
   19.1711  -19.8625  -12.2671 C   0  0  0  0  0  0  0  0  0  0  0  0
   19.3337  -20.8314  -13.0343 O   0  0  0  0  0  0  0  0  0  0  0  0
   17.9161  -19.5937  -11.7692 O   0  0  0  0  0  0  0  0  0  0  0  0
  2  1  1  6
  2  3  1  0
  2 13  1  0
  3  4  1  0
  4  5  2  0
  5  6  1  0
  7  6  1  0
  8  7  2  0
  9  8  1  0
 10 11  1  0
 10  9  2  0
 11 12  2  0
 12  4  1  0
 12  7  1  0
 13 15  1  0
 13 14  2  0
 15 16  1  0
 16 17  1  6
 18 17  1  0
 19 18  1  0
 20 19  1  0
 21 20  1  0
 22 24  1  0
 22 16  1  0
 23 22  2  0
 25 24  1  0
 26 28  1  0
 26 25  1  0
 27 26  2  0
M  END
$$$$
