WKG.pdb
     RDKit          3D

 28 29  0  0  1  0  0  0  0  0999 V2000
   24.9364  -21.1940   -8.6519 N   0  0  0  0  0  0  0  0  0  0  0  0
   25.9777  -20.3503   -9.2082 C   0  0  1  0  0  0  0  0  0  0  0  0
   27.2517  -20.6947   -8.4690 C   0  0  0  0  0  0  0  0  0  0  0  0
   27.4489  -19.8807   -7.2577 C   0  0  0  0  0  0  0  0  0  0  0  0
   26.7809  -18.7201   -6.9485 C   0  0  0  0  0  0  0  0  0  0  0  0
   27.2383  -18.2787   -5.7677 N   0  0  0  0  0  0  0  0  0  0  0  0
   28.1883  -19.0964   -5.2695 C   0  0  0  0  0  0  0  0  0  0  0  0
   28.9529  -19.0878   -4.1180 C   0  0  0  0  0  0  0  0  0  0  0  0
   29.8709  -20.0776   -3.8617 C   0  0  0  0  0  0  0  0  0  0  0  0
   30.0162  -21.0881   -4.7830 C   0  0  0  0  0  0  0  0  0  0  0  0
   29.2524  -21.0943   -5.9305 C   0  0  0  0  0  0  0  0  0  0  0  0
   28.3205  -20.1114   -6.2153 C   0  0  0  0  0  0  0  0  0  0  0  0
   26.0657  -20.6226  -10.6494 C   0  0  0  0  0  0  0  0  0  0  0  0
   26.3275  -21.7751  -11.0464 O   0  0  0  0  0  0  0  0  0  0  0  0
   25.8589  -19.6012  -11.5972 N   0  0  0  0  0  0  0  0  0  0  0  0
   25.8409  -19.8277  -13.0415 C   0  0  1  0  0  0  0  0  0  0  0  0
   25.4296  -18.5772  -13.7821 C   0  0  0  0  0  0  0  0  0  0  0  0
   25.2650  -18.7737  -15.2523 C   0  0  0  0  0  0  0  0  0  0  0  0
   24.0691  -19.5745  -15.6478 C   0  0  0  0  0  0  0  0  0  0  0  0
   23.9494  -19.7674  -17.1375 C   0  0  0  0  0  0  0  0  0  0  0  0
   22.9021  -20.7037  -17.5009 N   0  0  0  0  0  0  0  0  0  0  0  0
   27.2143  -20.1716  -13.5218 C   0  0  0  0  0  0  0  0  0  0  0  0
   28.1745  -19.5922  -12.9639 O   0  0  0  0  0  0  0  0  0  0  0  0
   27.4826  -21.0983  -14.5529 N   0  0  0  0  0  0  0  0  0  0  0  0
   28.8005  -21.4634  -14.9902 C   0  0  0  0  0  0  0  0  0  0  0  0
   28.7902  -22.4028  -16.1281 C   0  0  0  0  0  0  0  0  0  0  0  0
   29.8692  -22.8182  -16.5941 O   0  0  0  0  0  0  0  0  0  0  0  0
   27.6033  -22.8267  -16.6820 O   0  0  0  0  0  0  0  0  0  0  0  0
  2  1  1  1
  2  3  1  0
  2 13  1  0
  3  4  1  0
  4  5  2  0
  5  6  1  0
  7  6  1  0
  8  7  2  0
  9  8  1  0
 10 11  1  0
 10  9  2  0
 11 12  2  0
 12  4  1  0
 12  7  1  0
 13 15  1  0
 13 14  2  0
 15 16  1  0
 16 17  1  6
 18 17  1  0
 19 18  1  0
 20 19  1  0
 21 20  1  0
 22 24  1  0
 22 16  1  0
 23 22  2  0
 25 24  1  0
 26 28  1  0
 26 25  1  0
 27 26  2  0
M  END
$$$$
