WKG.pdb
     RDKit          3D

 28 29  0  0  1  0  0  0  0  0999 V2000
   27.2840  -19.0230  -10.0448 N   0  0  0  0  0  0  0  0  0  0  0  0
   26.6892  -20.3025   -9.7056 C   0  0  1  0  0  0  0  0  0  0  0  0
   26.1100  -20.1532   -8.3162 C   0  0  0  0  0  0  0  0  0  0  0  0
   27.0749  -19.6025   -7.3496 C   0  0  0  0  0  0  0  0  0  0  0  0
   27.4385  -18.2820   -7.2364 C   0  0  0  0  0  0  0  0  0  0  0  0
   28.3355  -18.1810   -6.2447 N   0  0  0  0  0  0  0  0  0  0  0  0
   28.5905  -19.3818   -5.6856 C   0  0  0  0  0  0  0  0  0  0  0  0
   29.4137  -19.8060   -4.6594 C   0  0  0  0  0  0  0  0  0  0  0  0
   29.4749  -21.1287   -4.2921 C   0  0  0  0  0  0  0  0  0  0  0  0
   28.6929  -22.0324   -4.9725 C   0  0  0  0  0  0  0  0  0  0  0  0
   27.8729  -21.6065   -5.9955 C   0  0  0  0  0  0  0  0  0  0  0  0
   27.7904  -20.2817   -6.3873 C   0  0  0  0  0  0  0  0  0  0  0  0
   25.6691  -20.6148  -10.7159 C   0  0  0  0  0  0  0  0  0  0  0  0
   24.4814  -20.2926  -10.5160 O   0  0  0  0  0  0  0  0  0  0  0  0
   26.0084  -21.2748  -11.9132 N   0  0  0  0  0  0  0  0  0  0  0  0
   25.1660  -21.2694  -13.1082 C   0  0  1  0  0  0  0  0  0  0  0  0
   25.9956  -21.4449  -14.3581 C   0  0  0  0  0  0  0  0  0  0  0  0
   25.2250  -21.2654  -15.6234 C   0  0  0  0  0  0  0  0  0  0  0  0
   26.0210  -21.4455  -16.8731 C   0  0  0  0  0  0  0  0  0  0  0  0
   25.2742  -21.0383  -18.1171 C   0  0  0  0  0  0  0  0  0  0  0  0
   26.0941  -21.1053  -19.3124 N   0  0  0  0  0  0  0  0  0  0  0  0
   24.2136  -22.4212  -13.0671 C   0  0  0  0  0  0  0  0  0  0  0  0
   24.6876  -23.5417  -12.7694 O   0  0  0  0  0  0  0  0  0  0  0  0
   22.8324  -22.3155  -13.3412 N   0  0  0  0  0  0  0  0  0  0  0  0
   21.9315  -23.4318  -13.4009 C   0  0  0  0  0  0  0  0  0  0  0  0
   20.5369  -23.0325  -13.6713 C   0  0  0  0  0  0  0  0  0  0  0  0
   20.2470  -21.8228  -13.7527 O   0  0  0  0  0  0  0  0  0  0  0  0
   19.5512  -23.9794  -13.8349 O   0  0  0  0  0  0  0  0  0  0  0  0
  2  1  1  6
  2  3  1  0
  2 13  1  0
  3  4  1  0
  4  5  2  0
  5  6  1  0
  7  6  1  0
  8  7  2  0
  9  8  1  0
 10 11  1  0
 10  9  2  0
 11 12  2  0
 12  4  1  0
 12  7  1  0
 13 15  1  0
 13 14  2  0
 15 16  1  0
 16 17  1  6
 18 17  1  0
 19 18  1  0
 20 19  1  0
 21 20  1  0
 22 24  1  0
 22 16  1  0
 23 22  2  0
 25 24  1  0
 26 28  1  0
 26 25  1  0
 27 26  2  0
M  END
$$$$
