WKG.pdb
     RDKit          3D

 28 29  0  0  1  0  0  0  0  0999 V2000
   24.9232  -22.0030  -10.3249 N   0  0  0  0  0  0  0  0  0  0  0  0
   24.9199  -20.6976  -10.9586 C   0  0  1  0  0  0  0  0  0  0  0  0
   26.3143  -20.4799  -11.5031 C   0  0  0  0  0  0  0  0  0  0  0  0
   27.3603  -20.6370  -10.4785 C   0  0  0  0  0  0  0  0  0  0  0  0
   28.5924  -21.2162  -10.6663 C   0  0  0  0  0  0  0  0  0  0  0  0
   29.2557  -21.1701   -9.5017 N   0  0  0  0  0  0  0  0  0  0  0  0
   28.5186  -20.5827   -8.5368 C   0  0  0  0  0  0  0  0  0  0  0  0
   28.7379  -20.2993   -7.2018 C   0  0  0  0  0  0  0  0  0  0  0  0
   27.7820  -19.6753   -6.4369 C   0  0  0  0  0  0  0  0  0  0  0  0
   26.5898  -19.3343   -7.0315 C   0  0  0  0  0  0  0  0  0  0  0  0
   26.3738  -19.6182   -8.3631 C   0  0  0  0  0  0  0  0  0  0  0  0
   27.3174  -20.2454   -9.1579 C   0  0  0  0  0  0  0  0  0  0  0  0
   23.8936  -20.7021  -12.0101 C   0  0  0  0  0  0  0  0  0  0  0  0
   23.1082  -21.6658  -12.1038 O   0  0  0  0  0  0  0  0  0  0  0  0
   23.7788  -19.6328  -12.9199 N   0  0  0  0  0  0  0  0  0  0  0  0
   22.6613  -19.4767  -13.8497 C   0  0  1  0  0  0  0  0  0  0  0  0
   22.7551  -18.1670  -14.5963 C   0  0  0  0  0  0  0  0  0  0  0  0
   21.5562  -17.8614  -15.4307 C   0  0  0  0  0  0  0  0  0  0  0  0
   21.5817  -16.5275  -16.0999 C   0  0  0  0  0  0  0  0  0  0  0  0
   20.2900  -16.1882  -16.7982 C   0  0  0  0  0  0  0  0  0  0  0  0
   20.3054  -14.8672  -17.3984 N   0  0  0  0  0  0  0  0  0  0  0  0
   22.7017  -20.5566  -14.8829 C   0  0  0  0  0  0  0  0  0  0  0  0
   23.8060  -20.7805  -15.4298 O   0  0  0  0  0  0  0  0  0  0  0  0
   21.5811  -21.3243  -15.2687 N   0  0  0  0  0  0  0  0  0  0  0  0
   21.6048  -22.3353  -16.2879 C   0  0  0  0  0  0  0  0  0  0  0  0
   22.0349  -23.6531  -15.7818 C   0  0  0  0  0  0  0  0  0  0  0  0
   23.2384  -23.8518  -15.5250 O   0  0  0  0  0  0  0  0  0  0  0  0
   21.1233  -24.6665  -15.5895 O   0  0  0  0  0  0  0  0  0  0  0  0
  2  1  1  6
  2  3  1  0
  2 13  1  0
  3  4  1  0
  4  5  2  0
  5  6  1  0
  7  6  1  0
  8  7  2  0
  9  8  1  0
 10 11  1  0
 10  9  2  0
 11 12  2  0
 12  4  1  0
 12  7  1  0
 13 15  1  0
 13 14  2  0
 15 16  1  0
 16 17  1  6
 18 17  1  0
 19 18  1  0
 20 19  1  0
 21 20  1  0
 22 24  1  0
 22 16  1  0
 23 22  2  0
 25 24  1  0
 26 28  1  0
 26 25  1  0
 27 26  2  0
M  END
$$$$
