WKG.pdb
     RDKit          3D

 28 29  0  0  1  0  0  0  0  0999 V2000
   28.1757  -21.0647  -11.1930 N   0  0  0  0  0  0  0  0  0  0  0  0
   26.9096  -21.1009  -10.4847 C   0  0  1  0  0  0  0  0  0  0  0  0
   27.0165  -20.0949   -9.3602 C   0  0  0  0  0  0  0  0  0  0  0  0
   28.1082  -20.4003   -8.4203 C   0  0  0  0  0  0  0  0  0  0  0  0
   29.2204  -21.1593   -8.6954 C   0  0  0  0  0  0  0  0  0  0  0  0
   29.9769  -21.2053   -7.5891 N   0  0  0  0  0  0  0  0  0  0  0  0
   29.4178  -20.5071   -6.5795 C   0  0  0  0  0  0  0  0  0  0  0  0
   29.7862  -20.2506   -5.2721 C   0  0  0  0  0  0  0  0  0  0  0  0
   29.0005  -19.4847   -4.4450 C   0  0  0  0  0  0  0  0  0  0  0  0
   27.8276  -18.9726   -4.9482 C   0  0  0  0  0  0  0  0  0  0  0  0
   27.4626  -19.2300   -6.2523 C   0  0  0  0  0  0  0  0  0  0  0  0
   28.2333  -19.9975   -7.1082 C   0  0  0  0  0  0  0  0  0  0  0  0
   25.8418  -20.7743  -11.4397 C   0  0  0  0  0  0  0  0  0  0  0  0
   25.8494  -19.6726  -12.0232 O   0  0  0  0  0  0  0  0  0  0  0  0
   24.8035  -21.6869  -11.7109 N   0  0  0  0  0  0  0  0  0  0  0  0
   23.7501  -21.4463  -12.6958 C   0  0  1  0  0  0  0  0  0  0  0  0
   23.3328  -22.7321  -13.3695 C   0  0  0  0  0  0  0  0  0  0  0  0
   23.9588  -22.9424  -14.7078 C   0  0  0  0  0  0  0  0  0  0  0  0
   24.9519  -24.0551  -14.7674 C   0  0  0  0  0  0  0  0  0  0  0  0
   25.5148  -24.2757  -16.1478 C   0  0  0  0  0  0  0  0  0  0  0  0
   26.5550  -25.2870  -16.1759 N   0  0  0  0  0  0  0  0  0  0  0  0
   22.5306  -20.9083  -12.0184 C   0  0  0  0  0  0  0  0  0  0  0  0
   22.2142  -21.4238  -10.9216 O   0  0  0  0  0  0  0  0  0  0  0  0
   21.7302  -19.8684  -12.5398 N   0  0  0  0  0  0  0  0  0  0  0  0
   20.6497  -19.2449  -11.8290 C   0  0  0  0  0  0  0  0  0  0  0  0
   19.3820  -19.9923  -11.9372 C   0  0  0  0  0  0  0  0  0  0  0  0
   19.3377  -21.0352  -12.6187 O   0  0  0  0  0  0  0  0  0  0  0  0
   18.2467  -19.5523  -11.2948 O   0  0  0  0  0  0  0  0  0  0  0  0
  2  1  1  6
  2  3  1  0
  2 13  1  0
  3  4  1  0
  4  5  2  0
  5  6  1  0
  7  6  1  0
  8  7  2  0
  9  8  1  0
 10 11  1  0
 10  9  2  0
 11 12  2  0
 12  4  1  0
 12  7  1  0
 13 15  1  0
 13 14  2  0
 15 16  1  0
 16 17  1  1
 18 17  1  0
 19 18  1  0
 20 19  1  0
 21 20  1  0
 22 24  1  0
 22 16  1  0
 23 22  2  0
 25 24  1  0
 26 28  1  0
 26 25  1  0
 27 26  2  0
M  END
$$$$
