WKG.pdb
     RDKit          3D

 28 29  0  0  1  0  0  0  0  0999 V2000
   22.3217  -18.5922  -18.3071 N   0  0  0  0  0  0  0  0  0  0  0  0
   22.0917  -19.1481  -16.9865 C   0  0  1  0  0  0  0  0  0  0  0  0
   20.6165  -18.9775  -16.6986 C   0  0  0  0  0  0  0  0  0  0  0  0
   20.2908  -17.6531  -16.1431 C   0  0  0  0  0  0  0  0  0  0  0  0
   20.0041  -16.5223  -16.8697 C   0  0  0  0  0  0  0  0  0  0  0  0
   19.7616  -15.5242  -16.0076 N   0  0  0  0  0  0  0  0  0  0  0  0
   19.8737  -15.9383  -14.7288 C   0  0  0  0  0  0  0  0  0  0  0  0
   19.7275  -15.3158  -13.5033 C   0  0  0  0  0  0  0  0  0  0  0  0
   19.9069  -16.0025  -12.3267 C   0  0  0  0  0  0  0  0  0  0  0  0
   20.2384  -17.3355  -12.3923 C   0  0  0  0  0  0  0  0  0  0  0  0
   20.3835  -17.9537  -13.6158 C   0  0  0  0  0  0  0  0  0  0  0  0
   20.2091  -17.2881  -14.8167 C   0  0  0  0  0  0  0  0  0  0  0  0
   22.5078  -20.5571  -17.0046 C   0  0  0  0  0  0  0  0  0  0  0  0
   22.2475  -21.2664  -17.9963 O   0  0  0  0  0  0  0  0  0  0  0  0
   23.1994  -21.1259  -15.9171 N   0  0  0  0  0  0  0  0  0  0  0  0
   23.4951  -22.5532  -15.8022 C   0  0  1  0  0  0  0  0  0  0  0  0
   24.8015  -22.7805  -15.0791 C   0  0  0  0  0  0  0  0  0  0  0  0
   25.2321  -24.2090  -15.0466 C   0  0  0  0  0  0  0  0  0  0  0  0
   26.1190  -24.6223  -16.1737 C   0  0  0  0  0  0  0  0  0  0  0  0
   26.4898  -26.0824  -16.1335 C   0  0  0  0  0  0  0  0  0  0  0  0
   27.1946  -26.5166  -17.3252 N   0  0  0  0  0  0  0  0  0  0  0  0
   22.4383  -23.2300  -14.9895 C   0  0  0  0  0  0  0  0  0  0  0  0
   22.2388  -22.7893  -13.8341 O   0  0  0  0  0  0  0  0  0  0  0  0
   21.6663  -24.3205  -15.4466 N   0  0  0  0  0  0  0  0  0  0  0  0
   20.6853  -25.0062  -14.6537 C   0  0  0  0  0  0  0  0  0  0  0  0
   21.1998  -26.2508  -14.0506 C   0  0  0  0  0  0  0  0  0  0  0  0
   22.3891  -26.5776  -14.2319 O   0  0  0  0  0  0  0  0  0  0  0  0
   20.3828  -27.0562  -13.2898 O   0  0  0  0  0  0  0  0  0  0  0  0
  2  1  1  6
  2  3  1  0
  2 13  1  0
  3  4  1  0
  4  5  2  0
  5  6  1  0
  7  6  1  0
  8  7  2  0
  9  8  1  0
 10 11  1  0
 10  9  2  0
 11 12  2  0
 12  4  1  0
 12  7  1  0
 13 15  1  0
 13 14  2  0
 15 16  1  0
 16 17  1  1
 18 17  1  0
 19 18  1  0
 20 19  1  0
 21 20  1  0
 22 24  1  0
 22 16  1  0
 23 22  2  0
 25 24  1  0
 26 28  1  0
 26 25  1  0
 27 26  2  0
M  END
$$$$
