WKG.pdb
     RDKit          3D

 28 29  0  0  1  0  0  0  0  0999 V2000
   27.0097  -22.0309  -10.1005 N   0  0  0  0  0  0  0  0  0  0  0  0
   26.1518  -20.8987   -9.8039 C   0  0  1  0  0  0  0  0  0  0  0  0
   26.9667  -19.9533   -8.9494 C   0  0  0  0  0  0  0  0  0  0  0  0
   26.9146  -20.2875   -7.5161 C   0  0  0  0  0  0  0  0  0  0  0  0
   26.0233  -21.1476   -6.9206 C   0  0  0  0  0  0  0  0  0  0  0  0
   26.2970  -21.1874   -5.6084 N   0  0  0  0  0  0  0  0  0  0  0  0
   27.3376  -20.3878   -5.2967 C   0  0  0  0  0  0  0  0  0  0  0  0
   27.9932  -20.0832   -4.1186 C   0  0  0  0  0  0  0  0  0  0  0  0
   29.0530  -19.2089   -4.0954 C   0  0  0  0  0  0  0  0  0  0  0  0
   29.4533  -18.6362   -5.2799 C   0  0  0  0  0  0  0  0  0  0  0  0
   28.7977  -18.9417   -6.4533 C   0  0  0  0  0  0  0  0  0  0  0  0
   27.7278  -19.8182   -6.5073 C   0  0  0  0  0  0  0  0  0  0  0  0
   25.7332  -20.2963  -11.0770 C   0  0  0  0  0  0  0  0  0  0  0  0
   26.1135  -19.1462  -11.3719 O   0  0  0  0  0  0  0  0  0  0  0  0
   24.9057  -20.9966  -11.9765 N   0  0  0  0  0  0  0  0  0  0  0  0
   24.5053  -20.4757  -13.2826 C   0  0  1  0  0  0  0  0  0  0  0  0
   25.1522  -21.2582  -14.4009 C   0  0  0  0  0  0  0  0  0  0  0  0
   25.6037  -20.4135  -15.5453 C   0  0  0  0  0  0  0  0  0  0  0  0
   26.6680  -19.4219  -15.2110 C   0  0  0  0  0  0  0  0  0  0  0  0
   27.1455  -18.6372  -16.4057 C   0  0  0  0  0  0  0  0  0  0  0  0
   28.1883  -17.6847  -16.0726 N   0  0  0  0  0  0  0  0  0  0  0  0
   23.0284  -20.6246  -13.4611 C   0  0  0  0  0  0  0  0  0  0  0  0
   22.5279  -21.7339  -13.1647 O   0  0  0  0  0  0  0  0  0  0  0  0
   22.1820  -19.5997  -13.9378 N   0  0  0  0  0  0  0  0  0  0  0  0
   20.7660  -19.7423  -14.1274 C   0  0  0  0  0  0  0  0  0  0  0  0
   20.0861  -20.3389  -12.9616 C   0  0  0  0  0  0  0  0  0  0  0  0
   19.5020  -21.4335  -13.0824 O   0  0  0  0  0  0  0  0  0  0  0  0
   20.0885  -19.7017  -11.7413 O   0  0  0  0  0  0  0  0  0  0  0  0
  2  1  1  6
  2  3  1  0
  2 13  1  0
  3  4  1  0
  4  5  2  0
  5  6  1  0
  7  6  1  0
  8  7  2  0
  9  8  1  0
 10 11  1  0
 10  9  2  0
 11 12  2  0
 12  4  1  0
 12  7  1  0
 13 15  1  0
 13 14  2  0
 15 16  1  0
 16 17  1  6
 18 17  1  0
 19 18  1  0
 20 19  1  0
 21 20  1  0
 22 24  1  0
 22 16  1  0
 23 22  2  0
 25 24  1  0
 26 28  1  0
 26 25  1  0
 27 26  2  0
M  END
$$$$
