WKG.pdb
     RDKit          3D

 28 29  0  0  1  0  0  0  0  0999 V2000
   22.9467  -19.4211  -17.3435 N   0  0  0  0  0  0  0  0  0  0  0  0
   23.5184  -18.9133  -16.1102 C   0  0  1  0  0  0  0  0  0  0  0  0
   22.3733  -18.7682  -15.1326 C   0  0  0  0  0  0  0  0  0  0  0  0
   21.4086  -17.7291  -15.5306 C   0  0  0  0  0  0  0  0  0  0  0  0
   21.7173  -16.4431  -15.9046 C   0  0  0  0  0  0  0  0  0  0  0  0
   20.5721  -15.8073  -16.1921 N   0  0  0  0  0  0  0  0  0  0  0  0
   19.5043  -16.6145  -16.0263 C   0  0  0  0  0  0  0  0  0  0  0  0
   18.1416  -16.4463  -16.1858 C   0  0  0  0  0  0  0  0  0  0  0  0
   17.2607  -17.4713  -15.9376 C   0  0  0  0  0  0  0  0  0  0  0  0
   17.7664  -18.6811  -15.5229 C   0  0  0  0  0  0  0  0  0  0  0  0
   19.1258  -18.8460  -15.3647 C   0  0  0  0  0  0  0  0  0  0  0  0
   20.0365  -17.8323  -15.6070 C   0  0  0  0  0  0  0  0  0  0  0  0
   24.5387  -19.8665  -15.6527 C   0  0  0  0  0  0  0  0  0  0  0  0
   24.2362  -21.0647  -15.4875 O   0  0  0  0  0  0  0  0  0  0  0  0
   25.8599  -19.4510  -15.3956 N   0  0  0  0  0  0  0  0  0  0  0  0
   26.9260  -20.3569  -14.9707 C   0  0  1  0  0  0  0  0  0  0  0  0
   28.2825  -19.7126  -15.1322 C   0  0  0  0  0  0  0  0  0  0  0  0
   29.4226  -20.6154  -14.7970 C   0  0  0  0  0  0  0  0  0  0  0  0
   29.5423  -21.8231  -15.6658 C   0  0  0  0  0  0  0  0  0  0  0  0
   30.7673  -22.6492  -15.3694 C   0  0  0  0  0  0  0  0  0  0  0  0
   30.7800  -23.9123  -16.0836 N   0  0  0  0  0  0  0  0  0  0  0  0
   26.7782  -20.6734  -13.5170 C   0  0  0  0  0  0  0  0  0  0  0  0
   27.4199  -21.6565  -13.0801 O   0  0  0  0  0  0  0  0  0  0  0  0
   25.9682  -19.9366  -12.6254 N   0  0  0  0  0  0  0  0  0  0  0  0
   25.9312  -20.1446  -11.2053 C   0  0  0  0  0  0  0  0  0  0  0  0
   24.7246  -20.8682  -10.7604 C   0  0  0  0  0  0  0  0  0  0  0  0
   23.9134  -21.2923  -11.6066 O   0  0  0  0  0  0  0  0  0  0  0  0
   24.4831  -21.0810   -9.4220 O   0  0  0  0  0  0  0  0  0  0  0  0
  2  1  1  6
  2  3  1  0
  2 13  1  0
  3  4  1  0
  4  5  2  0
  5  6  1  0
  7  6  1  0
  8  7  2  0
  9  8  1  0
 10 11  1  0
 10  9  2  0
 11 12  2  0
 12  4  1  0
 12  7  1  0
 13 15  1  0
 13 14  2  0
 15 16  1  0
 16 17  1  1
 18 17  1  0
 19 18  1  0
 20 19  1  0
 21 20  1  0
 22 24  1  0
 22 16  1  0
 23 22  2  0
 25 24  1  0
 26 28  1  0
 26 25  1  0
 27 26  2  0
M  END
$$$$
