DTF.pdb
     RDKit          3D

 27 27  0  0  1  0  0  0  0  0999 V2000
   16.8963  -10.4069  -15.2207 N   0  0  0  0  0  0  0  0  0  0  0  0
   18.1683  -10.7188  -15.8614 C   0  0  1  0  0  0  0  0  0  0  0  0
   17.9973  -11.7671  -16.9197 C   0  0  0  0  0  0  0  0  0  0  0  0
   17.8010  -13.0746  -16.2650 C   0  0  0  0  0  0  0  0  0  0  0  0
   17.0052  -13.1672  -15.3047 O   0  0  0  0  0  0  0  0  0  0  0  0
   18.7502   -9.4712  -16.3609 C   0  0  0  0  0  0  0  0  0  0  0  0
   19.7353   -9.4839  -17.1716 O   0  0  0  0  0  0  0  0  0  0  0  0
   18.4686  -14.2181  -16.6734 O   0  0  0  0  0  0  0  0  0  0  0  0
   16.9586   -6.9319  -18.2931 C   0  0  0  0  0  0  0  0  0  0  0  0
   17.4534   -6.2968  -17.0378 C   0  0  1  0  0  0  0  0  0  0  0  0
   16.4417   -6.4657  -16.0579 O   0  0  0  0  0  0  0  0  0  0  0  0
   18.6780   -6.9430  -16.4383 C   0  0  2  0  0  0  0  0  0  0  0  0
   18.2016   -8.2379  -15.9294 N   0  0  0  0  0  0  0  0  0  0  0  0
   19.2819   -6.1863  -15.3322 C   0  0  0  0  0  0  0  0  0  0  0  0
   18.7295   -6.2557  -14.1929 O   0  0  0  0  0  0  0  0  0  0  0  0
   20.4334   -5.3796  -15.4164 N   0  0  0  0  0  0  0  0  0  0  0  0
   20.9792   -4.7244  -14.2347 C   0  0  1  0  0  0  0  0  0  0  0  0
   22.3488   -5.2139  -13.9083 C   0  0  0  0  0  0  0  0  0  0  0  0
   22.3596   -6.6597  -13.6308 C   0  0  0  0  0  0  0  0  0  0  0  0
   22.8806   -7.4866  -14.6256 C   0  0  0  0  0  0  0  0  0  0  0  0
   22.9352   -8.8429  -14.4168 C   0  0  0  0  0  0  0  0  0  0  0  0
   22.4860   -9.4084  -13.2440 C   0  0  0  0  0  0  0  0  0  0  0  0
   21.9683   -8.6178  -12.2473 C   0  0  0  0  0  0  0  0  0  0  0  0
   21.9190   -7.2526  -12.4700 C   0  0  0  0  0  0  0  0  0  0  0  0
   21.0096   -3.2756  -14.4880 C   0  0  0  0  0  0  0  0  0  0  0  0
   20.7009   -2.7272  -15.5712 O   0  0  0  0  0  0  0  0  0  0  0  0
   21.4069   -2.4228  -13.4679 O   0  0  0  0  0  0  0  0  0  0  0  0
  2  1  1  6
  2  3  1  0
  3  4  1  0
  4  5  2  0
  6  2  1  0
  7  6  2  0
  8  4  1  0
 10  9  1  6
 10 12  1  0
 11 10  1  0
 12 13  1  1
 13  6  1  0
 14 16  1  0
 14 12  1  0
 15 14  2  0
 17 16  1  0
 18 19  1  0
 17 18  1  6
 19 24  2  0
 19 20  1  0
 20 21  2  0
 21 22  1  0
 23 22  2  0
 24 23  1  0
 25 27  1  0
 25 17  1  0
 26 25  2  0
M  END
$$$$
