DTF.pdb
     RDKit          3D

 27 27  0  0  1  0  0  0  0  0999 V2000
   18.0679  -11.6403  -15.1775 N   0  0  0  0  0  0  0  0  0  0  0  0
   16.8774  -11.1086  -14.5252 C   0  0  1  0  0  0  0  0  0  0  0  0
   15.9561  -12.2124  -14.0995 C   0  0  0  0  0  0  0  0  0  0  0  0
   15.2003  -12.6802  -15.2771 C   0  0  0  0  0  0  0  0  0  0  0  0
   14.4015  -13.6346  -15.1547 O   0  0  0  0  0  0  0  0  0  0  0  0
   17.3039  -10.2435  -13.4232 C   0  0  0  0  0  0  0  0  0  0  0  0
   18.1908  -10.6286  -12.5908 O   0  0  0  0  0  0  0  0  0  0  0  0
   15.3394  -12.1005  -16.5279 O   0  0  0  0  0  0  0  0  0  0  0  0
   18.7974   -6.9865  -13.8587 C   0  0  0  0  0  0  0  0  0  0  0  0
   17.5824   -6.7870  -13.0173 C   0  0  1  0  0  0  0  0  0  0  0  0
   16.5084   -6.4972  -13.8975 O   0  0  0  0  0  0  0  0  0  0  0  0
   17.1314   -8.0069  -12.2524 C   0  0  2  0  0  0  0  0  0  0  0  0
   16.7147   -8.9615  -13.2905 N   0  0  0  0  0  0  0  0  0  0  0  0
   16.0032   -7.7673  -11.3411 C   0  0  0  0  0  0  0  0  0  0  0  0
   14.8305   -7.8174  -11.8208 O   0  0  0  0  0  0  0  0  0  0  0  0
   16.1002   -7.4840   -9.9648 N   0  0  0  0  0  0  0  0  0  0  0  0
   14.9251   -7.1015   -9.1924 C   0  0  1  0  0  0  0  0  0  0  0  0
   15.0608   -7.4663   -7.7535 C   0  0  0  0  0  0  0  0  0  0  0  0
   13.8551   -7.1144   -6.9855 C   0  0  0  0  0  0  0  0  0  0  0  0
   13.9166   -5.9523   -6.2168 C   0  0  0  0  0  0  0  0  0  0  0  0
   12.8164   -5.5617   -5.4936 C   0  0  0  0  0  0  0  0  0  0  0  0
   11.6491   -6.2927   -5.5091 C   0  0  0  0  0  0  0  0  0  0  0  0
   11.5606   -7.4410   -6.2574 C   0  0  0  0  0  0  0  0  0  0  0  0
   12.6761   -7.8237   -6.9819 C   0  0  0  0  0  0  0  0  0  0  0  0
   14.7419   -5.6481   -9.3280 C   0  0  0  0  0  0  0  0  0  0  0  0
   15.6667   -4.8031   -9.3338 O   0  0  0  0  0  0  0  0  0  0  0  0
   13.4568   -5.1420   -9.4618 O   0  0  0  0  0  0  0  0  0  0  0  0
  2  1  1  1
  2  3  1  0
  3  4  1  0
  4  5  2  0
  6  2  1  0
  7  6  2  0
  8  4  1  0
 10  9  1  6
 10 12  1  0
 11 10  1  0
 12 13  1  6
 13  6  1  0
 14 16  1  0
 14 12  1  0
 15 14  2  0
 17 16  1  0
 18 19  1  0
 17 18  1  1
 19 24  2  0
 19 20  1  0
 20 21  2  0
 21 22  1  0
 23 22  2  0
 24 23  1  0
 25 27  1  0
 25 17  1  0
 26 25  2  0
M  END
$$$$
