DTF.pdb
     RDKit          3D

 27 27  0  0  1  0  0  0  0  0999 V2000
   17.7074  -11.8865  -14.8807 N   0  0  0  0  0  0  0  0  0  0  0  0
   17.1390  -11.0495  -15.9304 C   0  0  1  0  0  0  0  0  0  0  0  0
   15.7637  -11.5137  -16.3060 C   0  0  0  0  0  0  0  0  0  0  0  0
   15.8327  -12.9350  -16.6960 C   0  0  0  0  0  0  0  0  0  0  0  0
   16.9295  -13.5335  -16.6440 O   0  0  0  0  0  0  0  0  0  0  0  0
   17.1853   -9.6557  -15.4833 C   0  0  0  0  0  0  0  0  0  0  0  0
   16.4498   -8.7663  -16.0272 O   0  0  0  0  0  0  0  0  0  0  0  0
   14.7209  -13.6435  -17.1225 O   0  0  0  0  0  0  0  0  0  0  0  0
   17.5567   -9.0225  -11.6926 C   0  0  0  0  0  0  0  0  0  0  0  0
   17.2573   -7.9455  -12.6797 C   0  0  1  0  0  0  0  0  0  0  0  0
   17.5125   -6.7072  -12.0363 O   0  0  0  0  0  0  0  0  0  0  0  0
   18.1474   -7.9340  -13.8979 C   0  0  2  0  0  0  0  0  0  0  0  0
   18.0647   -9.3027  -14.4296 N   0  0  0  0  0  0  0  0  0  0  0  0
   19.5541   -7.6132  -13.6171 C   0  0  0  0  0  0  0  0  0  0  0  0
   20.2718   -8.5084  -13.0773 O   0  0  0  0  0  0  0  0  0  0  0  0
   20.1923   -6.3887  -13.8949 N   0  0  0  0  0  0  0  0  0  0  0  0
   21.6209   -6.2172  -13.6638 C   0  0  1  0  0  0  0  0  0  0  0  0
   22.3936   -6.1983  -14.9383 C   0  0  0  0  0  0  0  0  0  0  0  0
   21.8821   -5.1807  -15.8713 C   0  0  0  0  0  0  0  0  0  0  0  0
   22.6698   -4.0447  -16.0557 C   0  0  0  0  0  0  0  0  0  0  0  0
   22.2546   -3.0691  -16.9285 C   0  0  0  0  0  0  0  0  0  0  0  0
   21.0743   -3.1859  -17.6289 C   0  0  0  0  0  0  0  0  0  0  0  0
   20.2792   -4.2940  -17.4668 C   0  0  0  0  0  0  0  0  0  0  0  0
   20.7089   -5.2701  -16.5845 C   0  0  0  0  0  0  0  0  0  0  0  0
   21.8182   -4.9536  -12.9369 C   0  0  0  0  0  0  0  0  0  0  0  0
   20.9215   -4.1116  -12.6996 O   0  0  0  0  0  0  0  0  0  0  0  0
   23.0847   -4.6405  -12.4641 O   0  0  0  0  0  0  0  0  0  0  0  0
  2  1  1  1
  2  3  1  0
  3  4  1  0
  4  5  2  0
  6  2  1  0
  7  6  2  0
  8  4  1  0
 10  9  1  1
 10 12  1  0
 11 10  1  0
 12 13  1  1
 13  6  1  0
 14 16  1  0
 14 12  1  0
 15 14  2  0
 17 16  1  0
 18 19  1  0
 17 18  1  6
 19 24  2  0
 19 20  1  0
 20 21  2  0
 21 22  1  0
 23 22  2  0
 24 23  1  0
 25 27  1  0
 25 17  1  0
 26 25  2  0
M  END
$$$$
