DTF.pdb
     RDKit          3D

 27 27  0  0  1  0  0  0  0  0999 V2000
   19.0880  -14.5625  -17.0654 N   0  0  0  0  0  0  0  0  0  0  0  0
   18.2924  -13.3752  -16.7774 C   0  0  1  0  0  0  0  0  0  0  0  0
   17.6392  -13.4761  -15.4315 C   0  0  0  0  0  0  0  0  0  0  0  0
   16.7336  -14.6408  -15.4297 C   0  0  0  0  0  0  0  0  0  0  0  0
   16.8461  -15.5048  -14.5326 O   0  0  0  0  0  0  0  0  0  0  0  0
   19.1515  -12.1984  -16.9251 C   0  0  0  0  0  0  0  0  0  0  0  0
   20.4146  -12.2828  -16.7665 O   0  0  0  0  0  0  0  0  0  0  0  0
   15.7520  -14.8206  -16.3911 O   0  0  0  0  0  0  0  0  0  0  0  0
   19.2643   -7.7029  -18.9579 C   0  0  0  0  0  0  0  0  0  0  0  0
   18.6942   -9.0381  -18.6172 C   0  0  1  0  0  0  0  0  0  0  0  0
   18.9379   -9.8907  -19.7244 O   0  0  0  0  0  0  0  0  0  0  0  0
   19.3517   -9.7309  -17.4492 C   0  0  2  0  0  0  0  0  0  0  0  0
   18.5583  -10.9530  -17.2494 N   0  0  0  0  0  0  0  0  0  0  0  0
   19.3513   -8.9504  -16.2037 C   0  0  0  0  0  0  0  0  0  0  0  0
   18.2601   -8.8493  -15.5657 O   0  0  0  0  0  0  0  0  0  0  0  0
   20.4632   -8.2943  -15.6408 N   0  0  0  0  0  0  0  0  0  0  0  0
   20.3369   -7.5237  -14.4104 C   0  0  1  0  0  0  0  0  0  0  0  0
   21.6238   -7.4539  -13.6615 C   0  0  0  0  0  0  0  0  0  0  0  0
   22.7510   -7.1123  -14.5447 C   0  0  0  0  0  0  0  0  0  0  0  0
   22.9921   -5.7556  -14.7598 C   0  0  0  0  0  0  0  0  0  0  0  0
   24.0419   -5.3743  -15.5589 C   0  0  0  0  0  0  0  0  0  0  0  0
   24.8657   -6.3030  -16.1555 C   0  0  0  0  0  0  0  0  0  0  0  0
   24.6515   -7.6456  -15.9607 C   0  0  0  0  0  0  0  0  0  0  0  0
   23.5905   -8.0169  -15.1532 C   0  0  0  0  0  0  0  0  0  0  0  0
   19.8861   -6.1686  -14.7637 C   0  0  0  0  0  0  0  0  0  0  0  0
   19.9182   -5.6762  -15.9152 O   0  0  0  0  0  0  0  0  0  0  0  0
   19.3807   -5.3467  -13.7664 O   0  0  0  0  0  0  0  0  0  0  0  0
  2  1  1  1
  2  3  1  0
  3  4  1  0
  4  5  2  0
  6  2  1  0
  7  6  2  0
  8  4  1  0
 10  9  1  6
 10 12  1  0
 11 10  1  0
 12 13  1  1
 13  6  1  0
 14 16  1  0
 14 12  1  0
 15 14  2  0
 17 16  1  0
 18 19  1  0
 17 18  1  6
 19 24  2  0
 19 20  1  0
 20 21  2  0
 21 22  1  0
 23 22  2  0
 24 23  1  0
 25 27  1  0
 25 17  1  0
 26 25  2  0
M  END
$$$$
