DTF.pdb
     RDKit          3D

 27 27  0  0  1  0  0  0  0  0999 V2000
   36.6002  -10.4670  -15.8432 N   0  0  0  0  0  0  0  0  0  0  0  0
   35.6756  -10.3047  -16.9587 C   0  0  1  0  0  0  0  0  0  0  0  0
   35.4330  -11.6109  -17.6537 C   0  0  0  0  0  0  0  0  0  0  0  0
   36.6935  -12.0581  -18.2768 C   0  0  0  0  0  0  0  0  0  0  0  0
   37.7253  -11.3645  -18.1414 O   0  0  0  0  0  0  0  0  0  0  0  0
   34.4540   -9.6728  -16.4557 C   0  0  0  0  0  0  0  0  0  0  0  0
   33.9487  -10.0177  -15.3360 O   0  0  0  0  0  0  0  0  0  0  0  0
   36.7840  -13.2275  -19.0144 O   0  0  0  0  0  0  0  0  0  0  0  0
   33.9116   -6.6079  -15.1249 C   0  0  0  0  0  0  0  0  0  0  0  0
   33.0698   -6.6144  -16.3559 C   0  0  1  0  0  0  0  0  0  0  0  0
   33.8826   -6.1456  -17.4197 O   0  0  0  0  0  0  0  0  0  0  0  0
   32.6060   -7.9792  -16.8018 C   0  0  2  0  0  0  0  0  0  0  0  0
   33.8335   -8.6641  -17.2341 N   0  0  0  0  0  0  0  0  0  0  0  0
   31.6501   -7.9590  -17.9182 C   0  0  0  0  0  0  0  0  0  0  0  0
   32.1107   -8.0383  -19.0970 O   0  0  0  0  0  0  0  0  0  0  0  0
   30.2498   -7.8596  -17.8036 N   0  0  0  0  0  0  0  0  0  0  0  0
   29.3962   -7.8838  -18.9845 C   0  0  1  0  0  0  0  0  0  0  0  0
   28.3876   -8.9796  -18.9211 C   0  0  0  0  0  0  0  0  0  0  0  0
   29.0042  -10.3009  -19.1251 C   0  0  0  0  0  0  0  0  0  0  0  0
   29.1654  -10.7221  -20.4448 C   0  0  0  0  0  0  0  0  0  0  0  0
   29.7522  -11.9374  -20.6992 C   0  0  0  0  0  0  0  0  0  0  0  0
   30.1870  -12.7536  -19.6784 C   0  0  0  0  0  0  0  0  0  0  0  0
   30.0410  -12.3637  -18.3695 C   0  0  0  0  0  0  0  0  0  0  0  0
   29.4484  -11.1367  -18.1265 C   0  0  0  0  0  0  0  0  0  0  0  0
   28.7189   -6.5818  -19.0860 C   0  0  0  0  0  0  0  0  0  0  0  0
   28.7798   -5.6695  -18.2297 O   0  0  0  0  0  0  0  0  0  0  0  0
   27.9446   -6.3122  -20.2056 O   0  0  0  0  0  0  0  0  0  0  0  0
  2  1  1  1
  2  3  1  0
  3  4  1  0
  4  5  2  0
  6  2  1  0
  7  6  2  0
  8  4  1  0
 10  9  1  1
 10 12  1  0
 11 10  1  0
 12 13  1  6
 13  6  1  0
 14 16  1  0
 14 12  1  0
 15 14  2  0
 17 16  1  0
 18 19  1  0
 17 18  1  1
 19 24  2  0
 19 20  1  0
 20 21  2  0
 21 22  1  0
 23 22  2  0
 24 23  1  0
 25 27  1  0
 25 17  1  0
 26 25  2  0
M  END
$$$$
