DTF.pdb
     RDKit          3D

 27 27  0  0  1  0  0  0  0  0999 V2000
   21.8232  -11.5266  -21.6260 N   0  0  0  0  0  0  0  0  0  0  0  0
   22.3624  -10.6592  -20.5856 C   0  0  1  0  0  0  0  0  0  0  0  0
   22.8874   -9.3806  -21.1667 C   0  0  0  0  0  0  0  0  0  0  0  0
   24.0187   -9.6948  -22.0602 C   0  0  0  0  0  0  0  0  0  0  0  0
   24.4791  -10.8574  -22.0825 O   0  0  0  0  0  0  0  0  0  0  0  0
   21.3263  -10.4595  -19.5701 C   0  0  0  0  0  0  0  0  0  0  0  0
   20.1953  -11.0428  -19.6616 O   0  0  0  0  0  0  0  0  0  0  0  0
   24.5997   -8.7456  -22.8857 O   0  0  0  0  0  0  0  0  0  0  0  0
   20.1682  -11.9175  -17.7599 C   0  0  0  0  0  0  0  0  0  0  0  0
   20.5813  -10.8791  -16.7724 C   0  0  1  0  0  0  0  0  0  0  0  0
   21.8992  -11.1995  -16.3568 O   0  0  0  0  0  0  0  0  0  0  0  0
   20.6848   -9.4797  -17.3269 C   0  0  2  0  0  0  0  0  0  0  0  0
   21.5968   -9.6028  -18.4741 N   0  0  0  0  0  0  0  0  0  0  0  0
   21.2314   -8.4935  -16.3840 C   0  0  0  0  0  0  0  0  0  0  0  0
   20.6538   -8.3588  -15.2632 O   0  0  0  0  0  0  0  0  0  0  0  0
   22.3530   -7.6714  -16.6078 N   0  0  0  0  0  0  0  0  0  0  0  0
   22.8233   -6.7477  -15.5835 C   0  0  1  0  0  0  0  0  0  0  0  0
   24.3100   -6.6418  -15.5684 C   0  0  0  0  0  0  0  0  0  0  0  0
   24.9521   -7.9610  -15.6906 C   0  0  0  0  0  0  0  0  0  0  0  0
   24.7257   -8.8683  -14.6560 C   0  0  0  0  0  0  0  0  0  0  0  0
   25.2823  -10.1220  -14.7229 C   0  0  0  0  0  0  0  0  0  0  0  0
   26.0620  -10.5064  -15.7914 C   0  0  0  0  0  0  0  0  0  0  0  0
   26.3012   -9.6331  -16.8242 C   0  0  0  0  0  0  0  0  0  0  0  0
   25.7344   -8.3729  -16.7448 C   0  0  0  0  0  0  0  0  0  0  0  0
   22.2275   -5.4290  -15.8485 C   0  0  0  0  0  0  0  0  0  0  0  0
   21.5739   -5.1268  -16.8736 O   0  0  0  0  0  0  0  0  0  0  0  0
   22.3838   -4.4195  -14.9092 O   0  0  0  0  0  0  0  0  0  0  0  0
  2  1  1  6
  2  3  1  0
  3  4  1  0
  4  5  2  0
  6  2  1  0
  7  6  2  0
  8  4  1  0
 10  9  1  6
 10 12  1  0
 11 10  1  0
 12 13  1  6
 13  6  1  0
 14 16  1  0
 14 12  1  0
 15 14  2  0
 17 16  1  0
 18 19  1  0
 17 18  1  6
 19 24  2  0
 19 20  1  0
 20 21  2  0
 21 22  1  0
 23 22  2  0
 24 23  1  0
 25 27  1  0
 25 17  1  0
 26 25  2  0
M  END
$$$$
