DTF.pdb
     RDKit          3D

 27 27  0  0  1  0  0  0  0  0999 V2000
   15.8208  -13.4169  -20.0753 N   0  0  0  0  0  0  0  0  0  0  0  0
   15.8419  -12.6485  -18.8364 C   0  0  1  0  0  0  0  0  0  0  0  0
   16.2979  -13.4932  -17.6846 C   0  0  0  0  0  0  0  0  0  0  0  0
   15.4011  -14.6589  -17.5668 C   0  0  0  0  0  0  0  0  0  0  0  0
   14.2004  -14.4819  -17.2652 O   0  0  0  0  0  0  0  0  0  0  0  0
   16.6633  -11.4549  -19.0491 C   0  0  0  0  0  0  0  0  0  0  0  0
   17.6344  -11.4643  -19.8765 O   0  0  0  0  0  0  0  0  0  0  0  0
   15.8376  -15.9568  -17.7785 O   0  0  0  0  0  0  0  0  0  0  0  0
   15.3888   -8.1705  -20.0657 C   0  0  0  0  0  0  0  0  0  0  0  0
   16.1177   -7.9794  -18.7788 C   0  0  1  0  0  0  0  0  0  0  0  0
   15.1607   -8.0873  -17.7373 O   0  0  0  0  0  0  0  0  0  0  0  0
   17.1443   -9.0400  -18.4660 C   0  0  2  0  0  0  0  0  0  0  0  0
   16.3643  -10.2780  -18.3185 N   0  0  0  0  0  0  0  0  0  0  0  0
   17.9037   -8.8020  -17.2302 C   0  0  0  0  0  0  0  0  0  0  0  0
   17.4433   -9.2774  -16.1485 O   0  0  0  0  0  0  0  0  0  0  0  0
   19.1127   -8.0865  -17.1297 N   0  0  0  0  0  0  0  0  0  0  0  0
   19.7275   -7.8294  -15.8336 C   0  0  1  0  0  0  0  0  0  0  0  0
   21.2141   -7.9199  -15.8939 C   0  0  0  0  0  0  0  0  0  0  0  0
   21.8322   -7.6196  -14.5919 C   0  0  0  0  0  0  0  0  0  0  0  0
   22.1249   -6.2816  -14.3289 C   0  0  0  0  0  0  0  0  0  0  0  0
   22.6846   -5.9369  -13.1231 C   0  0  0  0  0  0  0  0  0  0  0  0
   22.9648   -6.8843  -12.1634 C   0  0  0  0  0  0  0  0  0  0  0  0
   22.6867   -8.2091  -12.3956 C   0  0  0  0  0  0  0  0  0  0  0  0
   22.1226   -8.5435  -13.6146 C   0  0  0  0  0  0  0  0  0  0  0  0
   19.3226   -6.4852  -15.3940 C   0  0  0  0  0  0  0  0  0  0  0  0
   19.1117   -5.5119  -16.1540 O   0  0  0  0  0  0  0  0  0  0  0  0
   19.1523   -6.2440  -14.0381 O   0  0  0  0  0  0  0  0  0  0  0  0
  2  1  1  6
  2  3  1  0
  3  4  1  0
  4  5  2  0
  6  2  1  0
  7  6  2  0
  8  4  1  0
 10  9  1  6
 10 12  1  0
 11 10  1  0
 12 13  1  1
 13  6  1  0
 14 16  1  0
 14 12  1  0
 15 14  2  0
 17 16  1  0
 18 19  1  0
 17 18  1  6
 19 24  2  0
 19 20  1  0
 20 21  2  0
 21 22  1  0
 23 22  2  0
 24 23  1  0
 25 27  1  0
 25 17  1  0
 26 25  2  0
M  END
$$$$
