DTF.pdb
     RDKit          3D

 27 27  0  0  1  0  0  0  0  0999 V2000
   13.6849  -22.3871    5.0991 N   0  0  0  0  0  0  0  0  0  0  0  0
   14.3876  -21.1655    5.4724 C   0  0  1  0  0  0  0  0  0  0  0  0
   14.0537  -20.7576    6.8760 C   0  0  0  0  0  0  0  0  0  0  0  0
   12.8699  -19.8774    6.8453 C   0  0  0  0  0  0  0  0  0  0  0  0
   12.3010  -19.6512    5.7549 O   0  0  0  0  0  0  0  0  0  0  0  0
   15.8200  -21.3714    5.2470 C   0  0  0  0  0  0  0  0  0  0  0  0
   16.2462  -22.4012    4.6260 O   0  0  0  0  0  0  0  0  0  0  0  0
   12.3555  -19.2837    7.9867 O   0  0  0  0  0  0  0  0  0  0  0  0
   17.3753  -21.1915    3.1278 C   0  0  0  0  0  0  0  0  0  0  0  0
   18.2322  -20.2592    3.9155 C   0  0  1  0  0  0  0  0  0  0  0  0
   17.7325  -18.9494    3.6987 O   0  0  0  0  0  0  0  0  0  0  0  0
   18.1707  -20.4491    5.4111 C   0  0  2  0  0  0  0  0  0  0  0  0
   16.7360  -20.4045    5.7311 N   0  0  0  0  0  0  0  0  0  0  0  0
   18.8663  -19.4093    6.1827 C   0  0  0  0  0  0  0  0  0  0  0  0
   18.4104  -18.2271    6.1332 O   0  0  0  0  0  0  0  0  0  0  0  0
   20.0077  -19.6021    6.9851 N   0  0  0  0  0  0  0  0  0  0  0  0
   20.6837  -18.4739    7.6126 C   0  0  1  0  0  0  0  0  0  0  0  0
   21.8037  -18.9140    8.4923 C   0  0  0  0  0  0  0  0  0  0  0  0
   22.4524  -17.7741    9.1610 C   0  0  0  0  0  0  0  0  0  0  0  0
   21.8261  -17.2762   10.3033 C   0  0  0  0  0  0  0  0  0  0  0  0
   22.3941  -16.2259   10.9818 C   0  0  0  0  0  0  0  0  0  0  0  0
   23.5720  -15.6501   10.5597 C   0  0  0  0  0  0  0  0  0  0  0  0
   24.2103  -16.1205    9.4382 C   0  0  0  0  0  0  0  0  0  0  0  0
   23.6278  -17.1795    8.7636 C   0  0  0  0  0  0  0  0  0  0  0  0
   21.1949  -17.5972    6.5477 C   0  0  0  0  0  0  0  0  0  0  0  0
   21.8731  -17.9773    5.5654 O   0  0  0  0  0  0  0  0  0  0  0  0
   20.9217  -16.2379    6.6067 O   0  0  0  0  0  0  0  0  0  0  0  0
  2  1  1  1
  2  3  1  0
  3  4  1  0
  4  5  2  0
  6  2  1  0
  7  6  2  0
  8  4  1  0
 10  9  1  6
 10 12  1  0
 11 10  1  0
 12 13  1  1
 13  6  1  0
 14 16  1  0
 14 12  1  0
 15 14  2  0
 17 16  1  0
 18 19  1  0
 17 18  1  6
 19 24  2  0
 19 20  1  0
 20 21  2  0
 21 22  1  0
 23 22  2  0
 24 23  1  0
 25 27  1  0
 25 17  1  0
 26 25  2  0
M  END
$$$$
