DTF.pdb
     RDKit          3D

 27 27  0  0  1  0  0  0  0  0999 V2000
   17.3011  -10.7627  -20.3838 N   0  0  0  0  0  0  0  0  0  0  0  0
   18.0775  -10.5463  -19.1690 C   0  0  1  0  0  0  0  0  0  0  0  0
   19.0580  -11.6591  -18.9491 C   0  0  0  0  0  0  0  0  0  0  0  0
   18.3201  -12.8653  -18.5279 C   0  0  0  0  0  0  0  0  0  0  0  0
   18.0456  -13.7440  -19.3743 O   0  0  0  0  0  0  0  0  0  0  0  0
   18.7009   -9.2236  -19.2507 C   0  0  0  0  0  0  0  0  0  0  0  0
   18.8213   -8.6218  -20.3692 O   0  0  0  0  0  0  0  0  0  0  0  0
   17.9133  -13.0686  -17.2190 O   0  0  0  0  0  0  0  0  0  0  0  0
   18.0727   -6.5500  -19.8466 C   0  0  0  0  0  0  0  0  0  0  0  0
   18.5263   -6.3785  -18.4364 C   0  0  1  0  0  0  0  0  0  0  0  0
   17.4630   -6.8072  -17.6010 O   0  0  0  0  0  0  0  0  0  0  0  0
   19.6983   -7.2403  -18.0361 C   0  0  2  0  0  0  0  0  0  0  0  0
   19.1734   -8.6139  -18.0618 N   0  0  0  0  0  0  0  0  0  0  0  0
   20.2295   -6.9555  -16.6955 C   0  0  0  0  0  0  0  0  0  0  0  0
   19.5388   -7.3126  -15.6939 O   0  0  0  0  0  0  0  0  0  0  0  0
   21.4513   -6.3149  -16.4112 N   0  0  0  0  0  0  0  0  0  0  0  0
   21.9185   -6.1639  -15.0391 C   0  0  1  0  0  0  0  0  0  0  0  0
   23.2682   -6.7646  -14.8404 C   0  0  0  0  0  0  0  0  0  0  0  0
   24.1753   -6.4494  -15.9563 C   0  0  0  0  0  0  0  0  0  0  0  0
   24.2436   -7.3801  -16.9928 C   0  0  0  0  0  0  0  0  0  0  0  0
   25.0577   -7.1323  -18.0706 C   0  0  0  0  0  0  0  0  0  0  0  0
   25.8114   -5.9823  -18.1532 C   0  0  0  0  0  0  0  0  0  0  0  0
   25.7632   -5.0487  -17.1470 C   0  0  0  0  0  0  0  0  0  0  0  0
   24.9388   -5.3101  -16.0664 C   0  0  0  0  0  0  0  0  0  0  0  0
   21.9557   -4.7274  -14.7242 C   0  0  0  0  0  0  0  0  0  0  0  0
   22.2750   -4.2414  -13.6146 O   0  0  0  0  0  0  0  0  0  0  0  0
   21.6161   -3.8135  -15.7117 O   0  0  0  0  0  0  0  0  0  0  0  0
  2  1  1  6
  2  3  1  0
  3  4  1  0
  4  5  2  0
  6  2  1  0
  7  6  2  0
  8  4  1  0
 10  9  1  6
 10 12  1  0
 11 10  1  0
 12 13  1  1
 13  6  1  0
 14 16  1  0
 14 12  1  0
 15 14  2  0
 17 16  1  0
 18 19  1  0
 17 18  1  6
 19 24  2  0
 19 20  1  0
 20 21  2  0
 21 22  1  0
 23 22  2  0
 24 23  1  0
 25 27  1  0
 25 17  1  0
 26 25  2  0
M  END
$$$$
