DTF.pdb
     RDKit          3D

 27 27  0  0  1  0  0  0  0  0999 V2000
   26.1094  -20.7700  -14.4703 N   0  0  0  0  0  0  0  0  0  0  0  0
   25.9754  -20.6929  -15.9200 C   0  0  1  0  0  0  0  0  0  0  0  0
   27.1483  -21.3275  -16.6054 C   0  0  0  0  0  0  0  0  0  0  0  0
   28.3278  -20.4587  -16.4292 C   0  0  0  0  0  0  0  0  0  0  0  0
   29.4251  -20.8064  -16.9181 O   0  0  0  0  0  0  0  0  0  0  0  0
   24.6883  -21.2821  -16.2953 C   0  0  0  0  0  0  0  0  0  0  0  0
   24.3565  -21.4104  -17.5206 O   0  0  0  0  0  0  0  0  0  0  0  0
   28.2710  -19.2598  -15.7370 O   0  0  0  0  0  0  0  0  0  0  0  0
   23.5428  -24.5806  -15.5909 C   0  0  0  0  0  0  0  0  0  0  0  0
   22.5330  -23.6729  -14.9742 C   0  0  1  0  0  0  0  0  0  0  0  0
   22.9176  -23.4777  -13.6228 O   0  0  0  0  0  0  0  0  0  0  0  0
   22.4834  -22.2841  -15.5619 C   0  0  2  0  0  0  0  0  0  0  0  0
   23.8070  -21.7122  -15.2723 N   0  0  0  0  0  0  0  0  0  0  0  0
   21.4490  -21.4169  -14.9802 C   0  0  0  0  0  0  0  0  0  0  0  0
   21.8128  -20.5366  -14.1432 O   0  0  0  0  0  0  0  0  0  0  0  0
   20.0712  -21.4693  -15.2676 N   0  0  0  0  0  0  0  0  0  0  0  0
   19.1364  -20.5481  -14.6341 C   0  0  1  0  0  0  0  0  0  0  0  0
   19.1852  -19.1921  -15.2513 C   0  0  0  0  0  0  0  0  0  0  0  0
   18.9375  -19.2437  -16.7017 C   0  0  0  0  0  0  0  0  0  0  0  0
   17.6089  -19.1535  -17.1158 C   0  0  0  0  0  0  0  0  0  0  0  0
   17.3164  -19.1763  -18.4575 C   0  0  0  0  0  0  0  0  0  0  0  0
   18.3075  -19.2868  -19.4076 C   0  0  0  0  0  0  0  0  0  0  0  0
   19.6243  -19.3771  -19.0280 C   0  0  0  0  0  0  0  0  0  0  0  0
   19.9059  -19.3527  -17.6730 C   0  0  0  0  0  0  0  0  0  0  0  0
   17.7830  -21.1105  -14.7612 C   0  0  0  0  0  0  0  0  0  0  0  0
   17.4878  -22.1357  -15.4177 O   0  0  0  0  0  0  0  0  0  0  0  0
   16.7293  -20.4794  -14.1154 O   0  0  0  0  0  0  0  0  0  0  0  0
  2  1  1  1
  2  3  1  0
  3  4  1  0
  4  5  2  0
  6  2  1  0
  7  6  2  0
  8  4  1  0
 10  9  1  6
 10 12  1  0
 11 10  1  0
 12 13  1  1
 13  6  1  0
 14 16  1  0
 14 12  1  0
 15 14  2  0
 17 16  1  0
 18 19  1  0
 17 18  1  6
 19 24  2  0
 19 20  1  0
 20 21  2  0
 21 22  1  0
 23 22  2  0
 24 23  1  0
 25 27  1  0
 25 17  1  0
 26 25  2  0
M  END
$$$$
