DTF.pdb
     RDKit          3D

 27 27  0  0  1  0  0  0  0  0999 V2000
   27.0770  -19.1189  -18.2693 N   0  0  0  0  0  0  0  0  0  0  0  0
   28.3417  -19.6036  -17.7297 C   0  0  1  0  0  0  0  0  0  0  0  0
   29.5027  -19.0805  -18.5213 C   0  0  0  0  0  0  0  0  0  0  0  0
   29.4321  -19.6320  -19.8880 C   0  0  0  0  0  0  0  0  0  0  0  0
   28.3177  -19.7652  -20.4396 O   0  0  0  0  0  0  0  0  0  0  0  0
   28.3983  -19.2573  -16.3078 C   0  0  0  0  0  0  0  0  0  0  0  0
   29.2327  -18.3951  -15.8742 O   0  0  0  0  0  0  0  0  0  0  0  0
   30.5612  -20.0133  -20.5948 O   0  0  0  0  0  0  0  0  0  0  0  0
   27.7081  -17.1231  -14.9144 C   0  0  0  0  0  0  0  0  0  0  0  0
   26.8418  -18.0405  -14.1196 C   0  0  1  0  0  0  0  0  0  0  0  0
   25.6054  -18.1468  -14.8070 O   0  0  0  0  0  0  0  0  0  0  0  0
   27.3448  -19.4593  -14.0160 C   0  0  2  0  0  0  0  0  0  0  0  0
   27.5073  -19.8970  -15.4106 N   0  0  0  0  0  0  0  0  0  0  0  0
   26.4265  -20.3787  -13.3291 C   0  0  0  0  0  0  0  0  0  0  0  0
   25.6472  -21.0822  -14.0403 O   0  0  0  0  0  0  0  0  0  0  0  0
   26.3274  -20.5576  -11.9356 N   0  0  0  0  0  0  0  0  0  0  0  0
   25.3822  -21.5094  -11.3660 C   0  0  1  0  0  0  0  0  0  0  0  0
   25.9065  -22.1384  -10.1205 C   0  0  0  0  0  0  0  0  0  0  0  0
   26.6342  -21.1693   -9.2845 C   0  0  0  0  0  0  0  0  0  0  0  0
   25.8627  -20.2736   -8.5446 C   0  0  0  0  0  0  0  0  0  0  0  0
   26.4843  -19.3583   -7.7310 C   0  0  0  0  0  0  0  0  0  0  0  0
   27.8567  -19.3033   -7.6279 C   0  0  0  0  0  0  0  0  0  0  0  0
   28.6409  -20.1734   -8.3451 C   0  0  0  0  0  0  0  0  0  0  0  0
   28.0023  -21.0911   -9.1610 C   0  0  0  0  0  0  0  0  0  0  0  0
   24.1292  -20.7938  -11.0795 C   0  0  0  0  0  0  0  0  0  0  0  0
   23.9779  -19.5520  -11.1446 O   0  0  0  0  0  0  0  0  0  0  0  0
   23.0091  -21.5226  -10.7054 O   0  0  0  0  0  0  0  0  0  0  0  0
  2  1  1  6
  2  3  1  0
  3  4  1  0
  4  5  2  0
  6  2  1  0
  7  6  2  0
  8  4  1  0
 10  9  1  6
 10 12  1  0
 11 10  1  0
 12 13  1  6
 13  6  1  0
 14 16  1  0
 14 12  1  0
 15 14  2  0
 17 16  1  0
 18 19  1  0
 17 18  1  1
 19 24  2  0
 19 20  1  0
 20 21  2  0
 21 22  1  0
 23 22  2  0
 24 23  1  0
 25 27  1  0
 25 17  1  0
 26 25  2  0
M  END
$$$$
