DTF.pdb
     RDKit          3D

 27 27  0  0  1  0  0  0  0  0999 V2000
   18.6409  -14.6818  -17.8344 N   0  0  0  0  0  0  0  0  0  0  0  0
   18.2844  -13.7837  -16.7426 C   0  0  1  0  0  0  0  0  0  0  0  0
   18.4235  -14.4659  -15.4147 C   0  0  0  0  0  0  0  0  0  0  0  0
   17.2776  -15.3760  -15.2265 C   0  0  0  0  0  0  0  0  0  0  0  0
   16.9560  -15.7275  -14.0703 O   0  0  0  0  0  0  0  0  0  0  0  0
   19.0919  -12.5680  -16.8644 C   0  0  0  0  0  0  0  0  0  0  0  0
   20.3189  -12.6259  -17.2094 O   0  0  0  0  0  0  0  0  0  0  0  0
   16.5335  -15.8638  -16.2888 O   0  0  0  0  0  0  0  0  0  0  0  0
   18.3849   -9.7580  -19.1000 C   0  0  0  0  0  0  0  0  0  0  0  0
   18.3940   -9.2377  -17.7025 C   0  0  1  0  0  0  0  0  0  0  0  0
   17.0656   -9.3315  -17.2137 O   0  0  0  0  0  0  0  0  0  0  0  0
   19.2174  -10.0443  -16.7289 C   0  0  2  0  0  0  0  0  0  0  0  0
   18.4893  -11.3147  -16.5921 N   0  0  0  0  0  0  0  0  0  0  0  0
   19.3609   -9.4289  -15.4019 C   0  0  0  0  0  0  0  0  0  0  0  0
   18.5124   -9.7337  -14.5102 O   0  0  0  0  0  0  0  0  0  0  0  0
   20.3661   -8.5199  -15.0183 N   0  0  0  0  0  0  0  0  0  0  0  0
   20.4010   -7.9631  -13.6720 C   0  0  1  0  0  0  0  0  0  0  0  0
   21.7959   -7.7295  -13.2013 C   0  0  0  0  0  0  0  0  0  0  0  0
   22.5852   -6.9736  -14.1878 C   0  0  0  0  0  0  0  0  0  0  0  0
   22.5577   -5.5832  -14.0821 C   0  0  0  0  0  0  0  0  0  0  0  0
   23.2896   -4.8243  -14.9621 C   0  0  0  0  0  0  0  0  0  0  0  0
   24.0532   -5.4054  -15.9504 C   0  0  0  0  0  0  0  0  0  0  0  0
   24.0987   -6.7722  -16.0772 C   0  0  0  0  0  0  0  0  0  0  0  0
   23.3569   -7.5258  -15.1841 C   0  0  0  0  0  0  0  0  0  0  0  0
   19.6543   -6.6957  -13.6818 C   0  0  0  0  0  0  0  0  0  0  0  0
   19.2864   -6.0844  -14.7115 O   0  0  0  0  0  0  0  0  0  0  0  0
   19.3156   -6.1054  -12.4724 O   0  0  0  0  0  0  0  0  0  0  0  0
  2  1  1  6
  2  3  1  0
  3  4  1  0
  4  5  2  0
  6  2  1  0
  7  6  2  0
  8  4  1  0
 10  9  1  6
 10 12  1  0
 11 10  1  0
 12 13  1  1
 13  6  1  0
 14 16  1  0
 14 12  1  0
 15 14  2  0
 17 16  1  0
 18 19  1  0
 17 18  1  6
 19 24  2  0
 19 20  1  0
 20 21  2  0
 21 22  1  0
 23 22  2  0
 24 23  1  0
 25 27  1  0
 25 17  1  0
 26 25  2  0
M  END
$$$$
