DTF.pdb
     RDKit          3D

 27 27  0  0  1  0  0  0  0  0999 V2000
   19.8100   -7.3661  -22.6031 N   0  0  0  0  0  0  0  0  0  0  0  0
   21.0075   -7.9377  -21.9991 C   0  0  1  0  0  0  0  0  0  0  0  0
   22.0624   -8.1975  -23.0324 C   0  0  0  0  0  0  0  0  0  0  0  0
   21.7120   -9.4268  -23.7693 C   0  0  0  0  0  0  0  0  0  0  0  0
   20.8681   -9.3711  -24.6906 O   0  0  0  0  0  0  0  0  0  0  0  0
   21.4486   -7.0490  -20.9218 C   0  0  0  0  0  0  0  0  0  0  0  0
   22.5620   -7.2383  -20.3283 O   0  0  0  0  0  0  0  0  0  0  0  0
   22.2849  -10.6550  -23.4809 O   0  0  0  0  0  0  0  0  0  0  0  0
   18.6571   -4.0598  -19.4946 C   0  0  0  0  0  0  0  0  0  0  0  0
   20.1080   -3.8116  -19.7334 C   0  0  1  0  0  0  0  0  0  0  0  0
   20.5301   -2.8524  -18.7773 O   0  0  0  0  0  0  0  0  0  0  0  0
   21.0038   -5.0032  -19.5006 C   0  0  2  0  0  0  0  0  0  0  0  0
   20.6169   -5.9662  -20.5426 N   0  0  0  0  0  0  0  0  0  0  0  0
   20.8432   -5.6332  -18.1824 C   0  0  0  0  0  0  0  0  0  0  0  0
   19.8895   -6.4546  -18.0282 O   0  0  0  0  0  0  0  0  0  0  0  0
   21.6594   -5.4102  -17.0564 N   0  0  0  0  0  0  0  0  0  0  0  0
   21.4080   -6.1009  -15.7981 C   0  0  1  0  0  0  0  0  0  0  0  0
   22.6734   -6.4753  -15.1049 C   0  0  0  0  0  0  0  0  0  0  0  0
   22.4172   -7.2767  -13.8968 C   0  0  0  0  0  0  0  0  0  0  0  0
   22.6775   -8.6441  -13.9829 C   0  0  0  0  0  0  0  0  0  0  0  0
   22.4762   -9.4408  -12.8825 C   0  0  0  0  0  0  0  0  0  0  0  0
   22.0216   -8.9199  -11.6912 C   0  0  0  0  0  0  0  0  0  0  0  0
   21.7574   -7.5768  -11.5782 C   0  0  0  0  0  0  0  0  0  0  0  0
   21.9645   -6.7847  -12.6943 C   0  0  0  0  0  0  0  0  0  0  0  0
   20.6083   -5.2125  -14.9405 C   0  0  0  0  0  0  0  0  0  0  0  0
   20.6818   -3.9619  -14.9320 O   0  0  0  0  0  0  0  0  0  0  0  0
   19.6920   -5.7723  -14.0614 O   0  0  0  0  0  0  0  0  0  0  0  0
  2  1  1  6
  2  3  1  0
  3  4  1  0
  4  5  2  0
  6  2  1  0
  7  6  2  0
  8  4  1  0
 10  9  1  1
 10 12  1  0
 11 10  1  0
 12 13  1  6
 13  6  1  0
 14 16  1  0
 14 12  1  0
 15 14  2  0
 17 16  1  0
 18 19  1  0
 17 18  1  1
 19 24  2  0
 19 20  1  0
 20 21  2  0
 21 22  1  0
 23 22  2  0
 24 23  1  0
 25 27  1  0
 25 17  1  0
 26 25  2  0
M  END
$$$$
