DTF.pdb
     RDKit          3D

 27 27  0  0  1  0  0  0  0  0999 V2000
   22.1464  -20.5546  -15.0565 N   0  0  0  0  0  0  0  0  0  0  0  0
   22.0017  -20.1124  -13.6749 C   0  0  1  0  0  0  0  0  0  0  0  0
   20.5566  -20.0151  -13.2873 C   0  0  0  0  0  0  0  0  0  0  0  0
   20.2859  -18.6474  -12.8046 C   0  0  0  0  0  0  0  0  0  0  0  0
   21.0712  -17.7226  -13.1077 O   0  0  0  0  0  0  0  0  0  0  0  0
   22.7785  -21.0126  -12.8198 C   0  0  0  0  0  0  0  0  0  0  0  0
   22.2824  -22.1102  -12.3992 O   0  0  0  0  0  0  0  0  0  0  0  0
   19.1855  -18.3401  -12.0206 O   0  0  0  0  0  0  0  0  0  0  0  0
   25.2276  -22.9220  -13.7633 C   0  0  0  0  0  0  0  0  0  0  0  0
   25.9029  -22.1496  -12.6810 C   0  0  1  0  0  0  0  0  0  0  0  0
   26.5531  -21.0495  -13.2968 O   0  0  0  0  0  0  0  0  0  0  0  0
   24.9729  -21.5265  -11.6693 C   0  0  2  0  0  0  0  0  0  0  0  0
   24.0999  -20.6472  -12.4614 N   0  0  0  0  0  0  0  0  0  0  0  0
   25.6486  -20.7274  -10.6372 C   0  0  0  0  0  0  0  0  0  0  0  0
   25.6015  -19.4642  -10.7377 O   0  0  0  0  0  0  0  0  0  0  0  0
   26.3536  -21.2368   -9.5294 N   0  0  0  0  0  0  0  0  0  0  0  0
   27.1412  -20.3596   -8.6726 C   0  0  1  0  0  0  0  0  0  0  0  0
   26.6082  -20.3136   -7.2813 C   0  0  0  0  0  0  0  0  0  0  0  0
   27.5900  -19.7514   -6.3393 C   0  0  0  0  0  0  0  0  0  0  0  0
   28.4336  -20.6568   -5.6962 C   0  0  0  0  0  0  0  0  0  0  0  0
   29.3833  -20.1906   -4.8205 C   0  0  0  0  0  0  0  0  0  0  0  0
   29.5233  -18.8451   -4.5611 C   0  0  0  0  0  0  0  0  0  0  0  0
   28.7062  -17.9313   -5.1806 C   0  0  0  0  0  0  0  0  0  0  0  0
   27.7534  -18.4139   -6.0609 C   0  0  0  0  0  0  0  0  0  0  0  0
   28.5273  -20.8524   -8.6645 C   0  0  0  0  0  0  0  0  0  0  0  0
   28.8744  -22.0304   -8.9120 O   0  0  0  0  0  0  0  0  0  0  0  0
   29.5535  -19.9683   -8.3629 O   0  0  0  0  0  0  0  0  0  0  0  0
  2  1  1  6
  2  3  1  0
  3  4  1  0
  4  5  2  0
  6  2  1  0
  7  6  2  0
  8  4  1  0
 10  9  1  6
 10 12  1  0
 11 10  1  0
 12 13  1  6
 13  6  1  0
 14 16  1  0
 14 12  1  0
 15 14  2  0
 17 16  1  0
 18 19  1  0
 17 18  1  1
 19 24  2  0
 19 20  1  0
 20 21  2  0
 21 22  1  0
 23 22  2  0
 24 23  1  0
 25 27  1  0
 25 17  1  0
 26 25  2  0
M  END
$$$$
