DTF.pdb
     RDKit          3D

 27 27  0  0  1  0  0  0  0  0999 V2000
   17.8043  -11.4495  -18.5801 N   0  0  0  0  0  0  0  0  0  0  0  0
   18.2337  -10.9602  -17.2756 C   0  0  1  0  0  0  0  0  0  0  0  0
   19.2225  -11.8954  -16.6466 C   0  0  0  0  0  0  0  0  0  0  0  0
   18.5254  -13.1403  -16.2707 C   0  0  0  0  0  0  0  0  0  0  0  0
   18.9667  -14.2378  -16.6764 O   0  0  0  0  0  0  0  0  0  0  0  0
   18.7400   -9.5958  -17.4396 C   0  0  0  0  0  0  0  0  0  0  0  0
   19.3526   -9.2455  -18.5025 O   0  0  0  0  0  0  0  0  0  0  0  0
   17.3890  -13.1454  -15.4778 O   0  0  0  0  0  0  0  0  0  0  0  0
   16.9188   -6.6849  -17.8752 C   0  0  0  0  0  0  0  0  0  0  0  0
   17.6768   -6.4770  -16.6078 C   0  0  1  0  0  0  0  0  0  0  0  0
   16.8689   -6.9726  -15.5524 O   0  0  0  0  0  0  0  0  0  0  0  0
   18.9645   -7.2562  -16.5019 C   0  0  2  0  0  0  0  0  0  0  0  0
   18.5397   -8.6600  -16.3944 N   0  0  0  0  0  0  0  0  0  0  0  0
   19.7855   -6.9130  -15.3321 C   0  0  0  0  0  0  0  0  0  0  0  0
   19.5013   -7.4614  -14.2246 O   0  0  0  0  0  0  0  0  0  0  0  0
   20.8752   -6.0206  -15.3221 N   0  0  0  0  0  0  0  0  0  0  0  0
   21.6985   -5.8542  -14.1312 C   0  0  1  0  0  0  0  0  0  0  0  0
   22.9867   -6.5968  -14.2356 C   0  0  0  0  0  0  0  0  0  0  0  0
   23.7032   -6.2737  -15.4805 C   0  0  0  0  0  0  0  0  0  0  0  0
   23.4867   -7.1198  -16.5678 C   0  0  0  0  0  0  0  0  0  0  0  0
   24.1123   -6.8586  -17.7622 C   0  0  0  0  0  0  0  0  0  0  0  0
   24.9517   -5.7769  -17.9127 C   0  0  0  0  0  0  0  0  0  0  0  0
   25.1826   -4.9271  -16.8587 C   0  0  0  0  0  0  0  0  0  0  0  0
   24.5461   -5.2012  -15.6606 C   0  0  0  0  0  0  0  0  0  0  0  0
   21.9589   -4.4174  -13.9524 C   0  0  0  0  0  0  0  0  0  0  0  0
   21.5959   -3.5158  -14.7428 O   0  0  0  0  0  0  0  0  0  0  0  0
   22.6589   -3.9953  -12.8310 O   0  0  0  0  0  0  0  0  0  0  0  0
  2  1  1  6
  2  3  1  0
  3  4  1  0
  4  5  2  0
  6  2  1  0
  7  6  2  0
  8  4  1  0
 10  9  1  6
 10 12  1  0
 11 10  1  0
 12 13  1  1
 13  6  1  0
 14 16  1  0
 14 12  1  0
 15 14  2  0
 17 16  1  0
 18 19  1  0
 17 18  1  6
 19 24  2  0
 19 20  1  0
 20 21  2  0
 21 22  1  0
 23 22  2  0
 24 23  1  0
 25 27  1  0
 25 17  1  0
 26 25  2  0
M  END
$$$$
