LLH.pdb
     RDKit          3D

 27 27  0  0  1  0  0  0  0  0999 V2000
    7.7053  -12.1940   19.1214 C   0  0  0  0  0  0  0  0  0  0  0  0
    7.8879  -13.6678   19.4698 C   0  0  1  0  0  0  0  0  0  0  0  0
    8.5151  -14.4089   18.3215 C   0  0  0  0  0  0  0  0  0  0  0  0
    8.7989  -13.7277   20.6601 C   0  0  0  0  0  0  0  0  0  0  0  0
    8.5428  -15.0327   21.3853 C   0  0  2  0  0  0  0  0  0  0  0  0
    7.2104  -15.5042   21.2359 N   0  0  0  0  0  0  0  0  0  0  0  0
    8.8820  -14.8302   22.7992 C   0  0  0  0  0  0  0  0  0  0  0  0
   10.0110  -14.3421   23.0761 O   0  0  0  0  0  0  0  0  0  0  0  0
    5.5981  -12.1293   25.9191 C   0  0  0  0  0  0  0  0  0  0  0  0
    6.9098  -12.7165   25.4321 C   0  0  1  0  0  0  0  0  0  0  0  0
    8.0303  -11.9464   26.1362 C   0  0  0  0  0  0  0  0  0  0  0  0
    7.0145  -14.1843   25.7889 C   0  0  0  0  0  0  0  0  0  0  0  0
    8.2036  -14.8408   25.2025 C   0  0  2  0  0  0  0  0  0  0  0  0
    7.9591  -15.1770   23.8121 N   0  0  0  0  0  0  0  0  0  0  0  0
    8.6782  -16.0460   25.8914 C   0  0  0  0  0  0  0  0  0  0  0  0
    9.2331  -15.8941   27.0127 O   0  0  0  0  0  0  0  0  0  0  0  0
    8.5670  -17.3555   25.4078 N   0  0  0  0  0  0  0  0  0  0  0  0
    9.7628  -18.1334   25.1920 C   0  0  1  0  0  0  0  0  0  0  0  0
   10.4709  -17.5201   24.0058 C   0  0  0  0  0  0  0  0  0  0  0  0
   11.7153  -18.2440   23.6557 C   0  0  0  0  0  0  0  0  0  0  0  0
   12.2034  -19.3292   24.3477 C   0  0  0  0  0  0  0  0  0  0  0  0
   13.3417  -19.7084   23.7416 N   0  0  0  0  0  0  0  0  0  0  0  0
   13.5637  -18.8754   22.6875 C   0  0  0  0  0  0  0  0  0  0  0  0
   12.5703  -17.9714   22.6252 N   0  0  0  0  0  0  0  0  0  0  0  0
   10.5781  -18.2115   26.4066 C   0  0  0  0  0  0  0  0  0  0  0  0
   10.5714  -19.2618   27.0986 O   0  0  0  0  0  0  0  0  0  0  0  0
   11.3694  -17.1608   26.8319 O   0  0  0  0  0  0  0  0  0  0  0  0
  2  4  1  0
  2  1  1  6
  3  2  1  0
  5  4  1  0
  5  6  1  1
  7  8  2  0
  7  5  1  0
 10  9  1  1
 10 12  1  0
 11 10  1  0
 13 12  1  1
 13 14  1  0
 14  7  1  0
 15 13  1  0
 15 17  1  0
 16 15  2  0
 18 17  1  0
 18 25  1  0
 18 19  1  6
 19 20  1  0
 20 21  2  0
 21 22  1  0
 23 22  1  0
 24 20  1  0
 24 23  2  0
 25 27  1  0
 26 25  2  0
M  END
$$$$
