LLH.pdb
     RDKit          3D

 27 27  0  0  1  0  0  0  0  0999 V2000
    6.0081  -16.2033   20.5158 C   0  0  0  0  0  0  0  0  0  0  0  0
    7.2833  -16.9457   20.9026 C   0  0  1  0  0  0  0  0  0  0  0  0
    7.1533  -18.4129   20.6003 C   0  0  0  0  0  0  0  0  0  0  0  0
    8.3960  -16.3635   20.0821 C   0  0  0  0  0  0  0  0  0  0  0  0
    8.5208  -14.8947   20.4306 C   0  0  2  0  0  0  0  0  0  0  0  0
    9.4929  -14.2142   19.6484 N   0  0  0  0  0  0  0  0  0  0  0  0
    8.8279  -14.8015   21.8631 C   0  0  0  0  0  0  0  0  0  0  0  0
   10.0068  -15.0477   22.2360 O   0  0  0  0  0  0  0  0  0  0  0  0
    8.2769  -12.2781   26.6203 C   0  0  0  0  0  0  0  0  0  0  0  0
    7.2252  -13.3361   26.3425 C   0  0  1  0  0  0  0  0  0  0  0  0
    5.9228  -12.8469   26.9817 C   0  0  0  0  0  0  0  0  0  0  0  0
    7.0126  -13.5142   24.8539 C   0  0  0  0  0  0  0  0  0  0  0  0
    8.1264  -14.2263   24.1897 C   0  0  2  0  0  0  0  0  0  0  0  0
    7.8203  -14.4447   22.7881 N   0  0  0  0  0  0  0  0  0  0  0  0
    8.5125  -15.5115   24.7827 C   0  0  0  0  0  0  0  0  0  0  0  0
    7.6816  -16.4565   24.7137 O   0  0  0  0  0  0  0  0  0  0  0  0
    9.7299  -15.7790   25.4211 N   0  0  0  0  0  0  0  0  0  0  0  0
    9.9512  -17.0797   26.0049 C   0  0  1  0  0  0  0  0  0  0  0  0
   11.2822  -17.5690   25.4817 C   0  0  0  0  0  0  0  0  0  0  0  0
   11.1642  -18.2084   24.1504 C   0  0  0  0  0  0  0  0  0  0  0  0
    9.9826  -18.3499   23.4587 C   0  0  0  0  0  0  0  0  0  0  0  0
   10.2698  -18.9753   22.3041 N   0  0  0  0  0  0  0  0  0  0  0  0
   11.6087  -19.2218   22.2721 C   0  0  0  0  0  0  0  0  0  0  0  0
   12.1685  -18.7547   23.4018 N   0  0  0  0  0  0  0  0  0  0  0  0
    9.8575  -17.0346   27.4661 C   0  0  0  0  0  0  0  0  0  0  0  0
    9.6647  -15.9360   28.0475 O   0  0  0  0  0  0  0  0  0  0  0  0
    9.9737  -18.1691   28.2474 O   0  0  0  0  0  0  0  0  0  0  0  0
  2  4  1  0
  2  1  1  6
  3  2  1  0
  5  4  1  0
  5  6  1  6
  7  8  2  0
  7  5  1  0
 10  9  1  6
 10 12  1  0
 11 10  1  0
 13 12  1  1
 13 14  1  0
 14  7  1  0
 15 13  1  0
 15 17  1  0
 16 15  2  0
 18 17  1  0
 18 25  1  0
 18 19  1  1
 19 20  1  0
 20 21  2  0
 21 22  1  0
 23 22  1  0
 24 20  1  0
 24 23  2  0
 25 27  1  0
 26 25  2  0
M  END
$$$$
