LLH.pdb
     RDKit          3D

 27 27  0  0  1  0  0  0  0  0999 V2000
    5.7799  -11.5555   25.9422 C   0  0  0  0  0  0  0  0  0  0  0  0
    6.7785  -12.7036   26.0500 C   0  0  1  0  0  0  0  0  0  0  0  0
    7.6282  -12.5514   27.2812 C   0  0  0  0  0  0  0  0  0  0  0  0
    5.9815  -13.9707   26.1467 C   0  0  0  0  0  0  0  0  0  0  0  0
    6.9417  -15.1395   26.0674 C   0  0  2  0  0  0  0  0  0  0  0  0
    8.1103  -14.9586   26.8559 N   0  0  0  0  0  0  0  0  0  0  0  0
    7.2783  -15.3440   24.6533 C   0  0  0  0  0  0  0  0  0  0  0  0
    6.4678  -15.9911   23.9364 O   0  0  0  0  0  0  0  0  0  0  0  0
    8.1328  -12.1765   20.8615 C   0  0  0  0  0  0  0  0  0  0  0  0
    7.8830  -13.4446   21.6565 C   0  0  1  0  0  0  0  0  0  0  0  0
    6.9507  -14.3204   20.8151 C   0  0  0  0  0  0  0  0  0  0  0  0
    9.1754  -14.1924   21.9082 C   0  0  0  0  0  0  0  0  0  0  0  0
    9.0227  -15.3090   22.8666 C   0  0  2  0  0  0  0  0  0  0  0  0
    8.4811  -14.8244   24.1227 N   0  0  0  0  0  0  0  0  0  0  0  0
   10.2374  -16.0795   23.1552 C   0  0  0  0  0  0  0  0  0  0  0  0
   11.2745  -15.7977   22.4972 O   0  0  0  0  0  0  0  0  0  0  0  0
   10.3432  -17.1051   24.1030 N   0  0  0  0  0  0  0  0  0  0  0  0
   11.6244  -17.7286   24.3297 C   0  0  1  0  0  0  0  0  0  0  0  0
   11.7089  -18.0198   25.8104 C   0  0  0  0  0  0  0  0  0  0  0  0
   11.4162  -16.8259   26.6376 C   0  0  0  0  0  0  0  0  0  0  0  0
   11.3463  -15.5409   26.1492 C   0  0  0  0  0  0  0  0  0  0  0  0
   11.0674  -14.7350   27.1883 N   0  0  0  0  0  0  0  0  0  0  0  0
   10.9642  -15.5014   28.3091 C   0  0  0  0  0  0  0  0  0  0  0  0
   11.1767  -16.7883   27.9824 N   0  0  0  0  0  0  0  0  0  0  0  0
   11.8086  -18.9025   23.4729 C   0  0  0  0  0  0  0  0  0  0  0  0
   12.8785  -19.5609   23.5346 O   0  0  0  0  0  0  0  0  0  0  0  0
   10.8384  -19.3252   22.5835 O   0  0  0  0  0  0  0  0  0  0  0  0
  2  4  1  0
  2  1  1  1
  3  2  1  0
  5  4  1  0
  5  6  1  1
  7  8  2  0
  7  5  1  0
 10  9  1  6
 10 12  1  0
 11 10  1  0
 13 12  1  6
 13 14  1  0
 14  7  1  0
 15 13  1  0
 15 17  1  0
 16 15  2  0
 18 17  1  0
 18 25  1  0
 18 19  1  1
 19 20  1  0
 20 21  2  0
 21 22  1  0
 23 22  1  0
 24 20  1  0
 24 23  2  0
 25 27  1  0
 26 25  2  0
M  END
$$$$
