LLH.pdb
     RDKit          3D

 27 27  0  0  1  0  0  0  0  0999 V2000
    7.6493  -11.9710   19.1803 C   0  0  0  0  0  0  0  0  0  0  0  0
    7.8288  -13.4025   19.6758 C   0  0  1  0  0  0  0  0  0  0  0  0
    8.5579  -14.2288   18.6526 C   0  0  0  0  0  0  0  0  0  0  0  0
    8.6432  -13.3326   20.9335 C   0  0  0  0  0  0  0  0  0  0  0  0
    8.7348  -14.7283   21.5149 C   0  0  2  0  0  0  0  0  0  0  0  0
    7.5333  -15.4741   21.3726 N   0  0  0  0  0  0  0  0  0  0  0  0
    9.1186  -14.5985   22.9259 C   0  0  0  0  0  0  0  0  0  0  0  0
   10.1909  -13.9937   23.1975 O   0  0  0  0  0  0  0  0  0  0  0  0
    5.8697  -12.8414   26.7061 C   0  0  0  0  0  0  0  0  0  0  0  0
    7.1097  -13.2002   25.9084 C   0  0  1  0  0  0  0  0  0  0  0  0
    8.2267  -12.2643   26.3779 C   0  0  0  0  0  0  0  0  0  0  0  0
    7.5232  -14.6348   26.1615 C   0  0  0  0  0  0  0  0  0  0  0  0
    8.6783  -15.0593   25.3404 C   0  0  2  0  0  0  0  0  0  0  0  0
    8.2994  -15.1413   23.9420 N   0  0  0  0  0  0  0  0  0  0  0  0
    9.3071  -16.3286   25.7226 C   0  0  0  0  0  0  0  0  0  0  0  0
    9.1266  -16.7348   26.9018 O   0  0  0  0  0  0  0  0  0  0  0  0
   10.0937  -17.1302   24.8859 N   0  0  0  0  0  0  0  0  0  0  0  0
   10.6722  -18.3439   25.4093 C   0  0  1  0  0  0  0  0  0  0  0  0
   10.7016  -19.3366   24.2700 C   0  0  0  0  0  0  0  0  0  0  0  0
    9.3934  -19.4457   23.5830 C   0  0  0  0  0  0  0  0  0  0  0  0
    8.1757  -19.2606   24.1975 C   0  0  0  0  0  0  0  0  0  0  0  0
    7.2267  -19.4436   23.2633 N   0  0  0  0  0  0  0  0  0  0  0  0
    7.8387  -19.7384   22.0831 C   0  0  0  0  0  0  0  0  0  0  0  0
    9.1705  -19.7424   22.2679 N   0  0  0  0  0  0  0  0  0  0  0  0
   11.9777  -18.0936   26.0249 C   0  0  0  0  0  0  0  0  0  0  0  0
   12.4837  -16.9432   25.9737 O   0  0  0  0  0  0  0  0  0  0  0  0
   12.6898  -19.0862   26.6719 O   0  0  0  0  0  0  0  0  0  0  0  0
  2  4  1  0
  2  1  1  6
  3  2  1  0
  5  4  1  0
  5  6  1  1
  7  8  2  0
  7  5  1  0
 10  9  1  1
 10 12  1  0
 11 10  1  0
 13 12  1  1
 13 14  1  0
 14  7  1  0
 15 13  1  0
 15 17  1  0
 16 15  2  0
 18 17  1  0
 18 25  1  0
 18 19  1  6
 19 20  1  0
 20 21  2  0
 21 22  1  0
 23 22  1  0
 24 20  1  0
 24 23  2  0
 25 27  1  0
 26 25  2  0
M  END
$$$$
