LLH.pdb
     RDKit          3D

 27 27  0  0  1  0  0  0  0  0999 V2000
    8.4028  -12.2828   20.0413 C   0  0  0  0  0  0  0  0  0  0  0  0
    7.9211  -13.4902   20.8393 C   0  0  1  0  0  0  0  0  0  0  0  0
    6.6327  -14.0190   20.2723 C   0  0  0  0  0  0  0  0  0  0  0  0
    8.9846  -14.5422   20.7283 C   0  0  0  0  0  0  0  0  0  0  0  0
    8.7229  -15.5917   21.7886 C   0  0  2  0  0  0  0  0  0  0  0  0
    7.3754  -16.0430   21.8093 N   0  0  0  0  0  0  0  0  0  0  0  0
    9.1155  -15.0234   23.0840 C   0  0  0  0  0  0  0  0  0  0  0  0
   10.2876  -14.5755   23.2064 O   0  0  0  0  0  0  0  0  0  0  0  0
    5.5121  -12.2564   26.5426 C   0  0  0  0  0  0  0  0  0  0  0  0
    6.7635  -12.5980   25.7552 C   0  0  1  0  0  0  0  0  0  0  0  0
    7.8120  -11.5385   26.1051 C   0  0  0  0  0  0  0  0  0  0  0  0
    7.2906  -13.9650   26.1375 C   0  0  0  0  0  0  0  0  0  0  0  0
    8.5249  -14.3352   25.4107 C   0  0  2  0  0  0  0  0  0  0  0  0
    8.1950  -14.9855   24.1561 N   0  0  0  0  0  0  0  0  0  0  0  0
    9.4680  -15.1909   26.1392 C   0  0  0  0  0  0  0  0  0  0  0  0
    9.6146  -14.9762   27.3723 O   0  0  0  0  0  0  0  0  0  0  0  0
   10.2222  -16.2297   25.5793 N   0  0  0  0  0  0  0  0  0  0  0  0
   10.4756  -17.4180   26.3572 C   0  0  1  0  0  0  0  0  0  0  0  0
    9.1266  -18.0022   26.7086 C   0  0  0  0  0  0  0  0  0  0  0  0
    9.2373  -19.3407   27.3342 C   0  0  0  0  0  0  0  0  0  0  0  0
   10.4259  -19.9982   27.5566 C   0  0  0  0  0  0  0  0  0  0  0  0
   10.1277  -21.1758   28.1321 N   0  0  0  0  0  0  0  0  0  0  0  0
    8.7751  -21.2555   28.2684 C   0  0  0  0  0  0  0  0  0  0  0  0
    8.2176  -20.1330   27.7813 N   0  0  0  0  0  0  0  0  0  0  0  0
   11.3671  -18.3413   25.6509 C   0  0  0  0  0  0  0  0  0  0  0  0
   11.7277  -19.4109   26.2059 O   0  0  0  0  0  0  0  0  0  0  0  0
   11.8369  -18.0824   24.3769 O   0  0  0  0  0  0  0  0  0  0  0  0
  2  4  1  0
  2  1  1  6
  3  2  1  0
  5  4  1  0
  5  6  1  1
  7  8  2  0
  7  5  1  0
 10  9  1  1
 10 12  1  0
 11 10  1  0
 13 12  1  1
 13 14  1  0
 14  7  1  0
 15 13  1  0
 15 17  1  0
 16 15  2  0
 18 17  1  0
 18 25  1  0
 18 19  1  6
 19 20  1  0
 20 21  2  0
 21 22  1  0
 23 22  1  0
 24 20  1  0
 24 23  2  0
 25 27  1  0
 26 25  2  0
M  END
$$$$
