LLH.pdb
     RDKit          3D

 27 27  0  0  1  0  0  0  0  0999 V2000
    7.5593  -12.7054   18.7483 C   0  0  0  0  0  0  0  0  0  0  0  0
    7.6084  -14.0889   19.3887 C   0  0  1  0  0  0  0  0  0  0  0  0
    7.7319  -15.1551   18.3355 C   0  0  0  0  0  0  0  0  0  0  0  0
    8.8184  -14.1196   20.2747 C   0  0  0  0  0  0  0  0  0  0  0  0
    8.6829  -15.2968   21.2182 C   0  0  2  0  0  0  0  0  0  0  0  0
    7.4320  -15.9623   21.1073 N   0  0  0  0  0  0  0  0  0  0  0  0
    8.9051  -14.8019   22.5823 C   0  0  0  0  0  0  0  0  0  0  0  0
    9.9855  -14.2004   22.8283 O   0  0  0  0  0  0  0  0  0  0  0  0
    5.7565  -11.8842   26.5760 C   0  0  0  0  0  0  0  0  0  0  0  0
    7.0551  -12.4465   26.0282 C   0  0  1  0  0  0  0  0  0  0  0  0
    7.9849  -12.6650   27.2249 C   0  0  0  0  0  0  0  0  0  0  0  0
    6.8232  -13.7701   25.3302 C   0  0  0  0  0  0  0  0  0  0  0  0
    8.0776  -14.4319   24.9092 C   0  0  2  0  0  0  0  0  0  0  0  0
    7.9265  -15.0009   23.5828 N   0  0  0  0  0  0  0  0  0  0  0  0
    8.5846  -15.4779   25.8043 C   0  0  0  0  0  0  0  0  0  0  0  0
    7.8026  -16.4219   26.0968 O   0  0  0  0  0  0  0  0  0  0  0  0
    9.8680  -15.5172   26.3635 N   0  0  0  0  0  0  0  0  0  0  0  0
   10.3614  -16.7560   26.9144 C   0  0  1  0  0  0  0  0  0  0  0  0
    9.2001  -17.7234   26.9149 C   0  0  0  0  0  0  0  0  0  0  0  0
    9.5654  -19.0429   27.4812 C   0  0  0  0  0  0  0  0  0  0  0  0
   10.7998  -19.3467   28.0089 C   0  0  0  0  0  0  0  0  0  0  0  0
   10.7545  -20.6271   28.4157 N   0  0  0  0  0  0  0  0  0  0  0  0
    9.5129  -21.1179   28.1478 C   0  0  0  0  0  0  0  0  0  0  0  0
    8.7736  -20.1528   27.5733 N   0  0  0  0  0  0  0  0  0  0  0  0
   11.5424  -17.2322   26.1903 C   0  0  0  0  0  0  0  0  0  0  0  0
   12.4071  -17.9227   26.7882 O   0  0  0  0  0  0  0  0  0  0  0  0
   11.7505  -16.9500   24.8531 O   0  0  0  0  0  0  0  0  0  0  0  0
  2  4  1  0
  2  1  1  6
  3  2  1  0
  5  4  1  0
  5  6  1  1
  7  8  2  0
  7  5  1  0
 10  9  1  1
 10 12  1  0
 11 10  1  0
 13 12  1  1
 13 14  1  0
 14  7  1  0
 15 13  1  0
 15 17  1  0
 16 15  2  0
 18 17  1  0
 18 25  1  0
 18 19  1  6
 19 20  1  0
 20 21  2  0
 21 22  1  0
 23 22  1  0
 24 20  1  0
 24 23  2  0
 25 27  1  0
 26 25  2  0
M  END
$$$$
