LLH.pdb
     RDKit          3D

 27 27  0  0  1  0  0  0  0  0999 V2000
    7.6961  -20.2125   20.7534 C   0  0  0  0  0  0  0  0  0  0  0  0
    7.5502  -18.7436   20.3688 C   0  0  1  0  0  0  0  0  0  0  0  0
    6.1111  -18.4112   20.0869 C   0  0  0  0  0  0  0  0  0  0  0  0
    8.0301  -17.9344   21.5371 C   0  0  0  0  0  0  0  0  0  0  0  0
    7.9334  -16.4686   21.1676 C   0  0  2  0  0  0  0  0  0  0  0  0
    8.5801  -16.1564   19.9411 N   0  0  0  0  0  0  0  0  0  0  0  0
    8.4941  -15.6913   22.2796 C   0  0  0  0  0  0  0  0  0  0  0  0
    9.6708  -15.2533   22.1654 O   0  0  0  0  0  0  0  0  0  0  0  0
    6.0929  -12.1720   26.7038 C   0  0  0  0  0  0  0  0  0  0  0  0
    7.3300  -12.8497   26.1444 C   0  0  1  0  0  0  0  0  0  0  0  0
    7.9719  -13.6256   27.2977 C   0  0  0  0  0  0  0  0  0  0  0  0
    6.9670  -13.8155   25.0360 C   0  0  0  0  0  0  0  0  0  0  0  0
    8.1453  -14.4767   24.4335 C   0  0  2  0  0  0  0  0  0  0  0  0
    7.7252  -15.4479   23.4405 N   0  0  0  0  0  0  0  0  0  0  0  0
    9.0589  -15.1408   25.3698 C   0  0  0  0  0  0  0  0  0  0  0  0
    9.5947  -14.4300   26.2619 O   0  0  0  0  0  0  0  0  0  0  0  0
    9.3878  -16.5020   25.3568 N   0  0  0  0  0  0  0  0  0  0  0  0
   10.5064  -16.9665   26.1408 C   0  0  1  0  0  0  0  0  0  0  0  0
   11.7074  -16.1600   25.7030 C   0  0  0  0  0  0  0  0  0  0  0  0
   12.2312  -16.5970   24.3878 C   0  0  0  0  0  0  0  0  0  0  0  0
   11.6322  -17.5445   23.5891 C   0  0  0  0  0  0  0  0  0  0  0  0
   12.3929  -17.6761   22.4887 N   0  0  0  0  0  0  0  0  0  0  0  0
   13.4510  -16.8256   22.5954 C   0  0  0  0  0  0  0  0  0  0  0  0
   13.3618  -16.1572   23.7588 N   0  0  0  0  0  0  0  0  0  0  0  0
   10.2222  -16.8942   27.5760 C   0  0  0  0  0  0  0  0  0  0  0  0
   10.4120  -17.9027   28.3034 O   0  0  0  0  0  0  0  0  0  0  0  0
    9.7459  -15.7435   28.1760 O   0  0  0  0  0  0  0  0  0  0  0  0
  2  4  1  0
  2  1  1  1
  3  2  1  0
  5  4  1  0
  5  6  1  6
  7  8  2  0
  7  5  1  0
 10  9  1  1
 10 12  1  0
 11 10  1  0
 13 12  1  1
 13 14  1  0
 14  7  1  0
 15 13  1  0
 15 17  1  0
 16 15  2  0
 18 17  1  0
 18 25  1  0
 18 19  1  1
 19 20  1  0
 20 21  2  0
 21 22  1  0
 23 22  1  0
 24 20  1  0
 24 23  2  0
 25 27  1  0
 26 25  2  0
M  END
$$$$
