LLH.pdb
     RDKit          3D

 27 27  0  0  1  0  0  0  0  0999 V2000
    6.5547  -13.0197   26.4247 C   0  0  0  0  0  0  0  0  0  0  0  0
    7.9011  -13.7143   26.2464 C   0  0  1  0  0  0  0  0  0  0  0  0
    8.9382  -13.0950   27.1419 C   0  0  0  0  0  0  0  0  0  0  0  0
    7.7068  -15.1521   26.6272 C   0  0  0  0  0  0  0  0  0  0  0  0
    6.7183  -15.7676   25.6584 C   0  0  2  0  0  0  0  0  0  0  0  0
    6.1932  -17.0095   26.1077 N   0  0  0  0  0  0  0  0  0  0  0  0
    7.3948  -15.9112   24.3635 C   0  0  0  0  0  0  0  0  0  0  0  0
    7.7279  -17.0689   23.9915 O   0  0  0  0  0  0  0  0  0  0  0  0
    7.3598  -12.4259   19.2776 C   0  0  0  0  0  0  0  0  0  0  0  0
    7.8082  -13.7092   19.9519 C   0  0  1  0  0  0  0  0  0  0  0  0
    9.2931  -13.8882   19.6243 C   0  0  0  0  0  0  0  0  0  0  0  0
    7.6368  -13.6233   21.4539 C   0  0  0  0  0  0  0  0  0  0  0  0
    7.9323  -14.8972   22.1456 C   0  0  2  0  0  0  0  0  0  0  0  0
    7.6592  -14.7748   23.5655 N   0  0  0  0  0  0  0  0  0  0  0  0
    9.2943  -15.4172   21.9815 C   0  0  0  0  0  0  0  0  0  0  0  0
    9.5900  -15.9320   20.8699 O   0  0  0  0  0  0  0  0  0  0  0  0
   10.2976  -15.3904   22.9582 N   0  0  0  0  0  0  0  0  0  0  0  0
   11.4763  -16.2038   22.7833 C   0  0  1  0  0  0  0  0  0  0  0  0
   12.6360  -15.2524   22.5976 C   0  0  0  0  0  0  0  0  0  0  0  0
   12.9141  -14.9742   21.1692 C   0  0  0  0  0  0  0  0  0  0  0  0
   12.1106  -15.3805   20.1281 C   0  0  0  0  0  0  0  0  0  0  0  0
   12.6846  -14.9506   18.9912 N   0  0  0  0  0  0  0  0  0  0  0  0
   13.8285  -14.2860   19.3136 C   0  0  0  0  0  0  0  0  0  0  0  0
   13.9796  -14.2944   20.6497 N   0  0  0  0  0  0  0  0  0  0  0  0
   11.6439  -17.1500   23.8891 C   0  0  0  0  0  0  0  0  0  0  0  0
   12.6801  -17.8600   23.9538 O   0  0  0  0  0  0  0  0  0  0  0  0
   10.6942  -17.2980   24.8826 O   0  0  0  0  0  0  0  0  0  0  0  0
  2  4  1  0
  2  1  1  1
  3  2  1  0
  5  4  1  0
  5  6  1  1
  7  8  2  0
  7  5  1  0
 10  9  1  6
 10 12  1  0
 11 10  1  0
 13 12  1  6
 13 14  1  0
 14  7  1  0
 15 13  1  0
 15 17  1  0
 16 15  2  0
 18 17  1  0
 18 25  1  0
 18 19  1  1
 19 20  1  0
 20 21  2  0
 21 22  1  0
 23 22  1  0
 24 20  1  0
 24 23  2  0
 25 27  1  0
 26 25  2  0
M  END
$$$$
