LLH.pdb
     RDKit          3D

 27 27  0  0  1  0  0  0  0  0999 V2000
    8.0637  -19.4630   20.2662 C   0  0  0  0  0  0  0  0  0  0  0  0
    8.2343  -17.9740   19.9821 C   0  0  1  0  0  0  0  0  0  0  0  0
    6.9503  -17.3831   19.4689 C   0  0  0  0  0  0  0  0  0  0  0  0
    8.6016  -17.3189   21.2805 C   0  0  0  0  0  0  0  0  0  0  0  0
    8.6423  -15.8211   21.0586 C   0  0  2  0  0  0  0  0  0  0  0  0
    9.5620  -15.4295   20.0484 N   0  0  0  0  0  0  0  0  0  0  0  0
    8.9610  -15.1890   22.3447 C   0  0  0  0  0  0  0  0  0  0  0  0
   10.1706  -15.1313   22.6956 O   0  0  0  0  0  0  0  0  0  0  0  0
    8.2776  -11.5803   26.2750 C   0  0  0  0  0  0  0  0  0  0  0  0
    7.2644  -12.7093   26.3131 C   0  0  1  0  0  0  0  0  0  0  0  0
    5.9465  -12.1073   26.8081 C   0  0  0  0  0  0  0  0  0  0  0  0
    7.0552  -13.2993   24.9344 C   0  0  0  0  0  0  0  0  0  0  0  0
    8.2171  -14.0792   24.4545 C   0  0  2  0  0  0  0  0  0  0  0  0
    7.9307  -14.6636   23.1574 N   0  0  0  0  0  0  0  0  0  0  0  0
    8.6889  -15.1447   25.3458 C   0  0  0  0  0  0  0  0  0  0  0  0
    8.0784  -16.2466   25.3085 O   0  0  0  0  0  0  0  0  0  0  0  0
    9.7636  -15.0417   26.2378 N   0  0  0  0  0  0  0  0  0  0  0  0
   10.2563  -16.2299   26.8913 C   0  0  1  0  0  0  0  0  0  0  0  0
   11.6315  -16.4979   26.3243 C   0  0  0  0  0  0  0  0  0  0  0  0
   11.6199  -17.5664   25.2979 C   0  0  0  0  0  0  0  0  0  0  0  0
   10.5000  -18.2760   24.9282 C   0  0  0  0  0  0  0  0  0  0  0  0
   10.8788  -19.1530   23.9826 N   0  0  0  0  0  0  0  0  0  0  0  0
   12.2135  -18.9962   23.7630 C   0  0  0  0  0  0  0  0  0  0  0  0
   12.6795  -18.0236   24.5661 N   0  0  0  0  0  0  0  0  0  0  0  0
   10.2214  -16.0935   28.3495 C   0  0  0  0  0  0  0  0  0  0  0  0
   10.2125  -14.9491   28.8712 O   0  0  0  0  0  0  0  0  0  0  0  0
   10.1970  -17.1894   29.1917 O   0  0  0  0  0  0  0  0  0  0  0  0
  2  4  1  0
  2  1  1  1
  3  2  1  0
  5  4  1  0
  5  6  1  6
  7  8  2  0
  7  5  1  0
 10  9  1  6
 10 12  1  0
 11 10  1  0
 13 12  1  1
 13 14  1  0
 14  7  1  0
 15 13  1  0
 15 17  1  0
 16 15  2  0
 18 17  1  0
 18 25  1  0
 18 19  1  6
 19 20  1  0
 20 21  2  0
 21 22  1  0
 23 22  1  0
 24 20  1  0
 24 23  2  0
 25 27  1  0
 26 25  2  0
M  END
$$$$
