LLH.pdb
     RDKit          3D

 27 27  0  0  1  0  0  0  0  0999 V2000
    7.6966  -19.3318   21.2786 C   0  0  0  0  0  0  0  0  0  0  0  0
    7.2761  -17.8818   21.0606 C   0  0  1  0  0  0  0  0  0  0  0  0
    5.7814  -17.7779   20.9338 C   0  0  0  0  0  0  0  0  0  0  0  0
    7.7303  -17.1079   22.2627 C   0  0  0  0  0  0  0  0  0  0  0  0
    7.3462  -15.6564   22.0625 C   0  0  2  0  0  0  0  0  0  0  0  0
    7.6276  -15.1781   20.7541 N   0  0  0  0  0  0  0  0  0  0  0  0
    8.0466  -14.8659   23.0820 C   0  0  0  0  0  0  0  0  0  0  0  0
    9.1922  -14.4186   22.8047 O   0  0  0  0  0  0  0  0  0  0  0  0
    5.5279  -11.4895   26.6654 C   0  0  0  0  0  0  0  0  0  0  0  0
    6.5250  -12.1062   25.7019 C   0  0  1  0  0  0  0  0  0  0  0  0
    7.5588  -11.0240   25.3790 C   0  0  0  0  0  0  0  0  0  0  0  0
    7.2260  -13.2924   26.3298 C   0  0  0  0  0  0  0  0  0  0  0  0
    8.1677  -13.9647   25.4078 C   0  0  2  0  0  0  0  0  0  0  0  0
    7.4417  -14.6202   24.3358 N   0  0  0  0  0  0  0  0  0  0  0  0
    9.0745  -14.9443   26.0165 C   0  0  0  0  0  0  0  0  0  0  0  0
    9.2559  -14.8734   27.2616 O   0  0  0  0  0  0  0  0  0  0  0  0
    9.7584  -15.9551   25.3296 N   0  0  0  0  0  0  0  0  0  0  0  0
   10.5106  -16.9335   26.0770 C   0  0  1  0  0  0  0  0  0  0  0  0
    9.5439  -17.5772   27.0443 C   0  0  0  0  0  0  0  0  0  0  0  0
   10.1528  -18.7096   27.7805 C   0  0  0  0  0  0  0  0  0  0  0  0
   11.4776  -19.0721   27.6903 C   0  0  0  0  0  0  0  0  0  0  0  0
   11.6543  -20.1369   28.4913 N   0  0  0  0  0  0  0  0  0  0  0  0
   10.4608  -20.4372   29.0740 C   0  0  0  0  0  0  0  0  0  0  0  0
    9.5307  -19.5664   28.6444 N   0  0  0  0  0  0  0  0  0  0  0  0
   11.1935  -17.8776   25.1891 C   0  0  0  0  0  0  0  0  0  0  0  0
   10.9280  -17.8846   23.9596 O   0  0  0  0  0  0  0  0  0  0  0  0
   12.1348  -18.7771   25.6535 O   0  0  0  0  0  0  0  0  0  0  0  0
  2  4  1  0
  2  1  1  1
  3  2  1  0
  5  4  1  0
  5  6  1  6
  7  8  2  0
  7  5  1  0
 10  9  1  1
 10 12  1  0
 11 10  1  0
 13 12  1  1
 13 14  1  0
 14  7  1  0
 15 13  1  0
 15 17  1  0
 16 15  2  0
 18 17  1  0
 18 25  1  0
 18 19  1  1
 19 20  1  0
 20 21  2  0
 21 22  1  0
 23 22  1  0
 24 20  1  0
 24 23  2  0
 25 27  1  0
 26 25  2  0
M  END
$$$$
