LLH.pdb
     RDKit          3D

 27 27  0  0  1  0  0  0  0  0999 V2000
    6.2072  -15.0697   18.8799 C   0  0  0  0  0  0  0  0  0  0  0  0
    7.6262  -14.6523   19.2527 C   0  0  1  0  0  0  0  0  0  0  0  0
    7.7252  -13.1560   19.3640 C   0  0  0  0  0  0  0  0  0  0  0  0
    7.9308  -15.2732   20.5838 C   0  0  0  0  0  0  0  0  0  0  0  0
    9.2649  -14.7372   21.0605 C   0  0  2  0  0  0  0  0  0  0  0  0
   10.3766  -15.3867   20.4589 N   0  0  0  0  0  0  0  0  0  0  0  0
    9.2991  -14.8648   22.5226 C   0  0  0  0  0  0  0  0  0  0  0  0
   10.2399  -15.5256   23.0401 O   0  0  0  0  0  0  0  0  0  0  0  0
    8.4954  -12.7576   27.4146 C   0  0  0  0  0  0  0  0  0  0  0  0
    7.2715  -13.4585   26.8548 C   0  0  1  0  0  0  0  0  0  0  0  0
    6.0486  -12.6839   27.3535 C   0  0  0  0  0  0  0  0  0  0  0  0
    7.2836  -13.4481   25.3407 C   0  0  0  0  0  0  0  0  0  0  0  0
    8.3981  -14.2316   24.7639 C   0  0  2  0  0  0  0  0  0  0  0  0
    8.2988  -14.2587   23.3163 N   0  0  0  0  0  0  0  0  0  0  0  0
    8.5291  -15.6122   25.2426 C   0  0  0  0  0  0  0  0  0  0  0  0
    7.5186  -16.3591   25.1462 O   0  0  0  0  0  0  0  0  0  0  0  0
    9.6851  -16.1730   25.7996 N   0  0  0  0  0  0  0  0  0  0  0  0
    9.6621  -17.5461   26.2422 C   0  0  1  0  0  0  0  0  0  0  0  0
   10.8541  -18.2259   25.6085 C   0  0  0  0  0  0  0  0  0  0  0  0
   10.7155  -18.3527   24.1388 C   0  0  0  0  0  0  0  0  0  0  0  0
    9.5951  -18.8378   23.5033 C   0  0  0  0  0  0  0  0  0  0  0  0
    9.8416  -18.8056   22.1823 N   0  0  0  0  0  0  0  0  0  0  0  0
   11.0951  -18.3088   21.9925 C   0  0  0  0  0  0  0  0  0  0  0  0
   11.6416  -18.0270   23.1883 N   0  0  0  0  0  0  0  0  0  0  0  0
    9.6223  -17.6378   27.7037 C   0  0  0  0  0  0  0  0  0  0  0  0
    9.7994  -16.6060   28.4008 O   0  0  0  0  0  0  0  0  0  0  0  0
    9.3936  -18.8321   28.3612 O   0  0  0  0  0  0  0  0  0  0  0  0
  2  4  1  0
  2  1  1  1
  3  2  1  0
  5  4  1  0
  5  6  1  6
  7  8  2  0
  7  5  1  0
 10  9  1  1
 10 12  1  0
 11 10  1  0
 13 12  1  1
 13 14  1  0
 14  7  1  0
 15 13  1  0
 15 17  1  0
 16 15  2  0
 18 17  1  0
 18 25  1  0
 18 19  1  1
 19 20  1  0
 20 21  2  0
 21 22  1  0
 23 22  1  0
 24 20  1  0
 24 23  2  0
 25 27  1  0
 26 25  2  0
M  END
$$$$
