LLH.pdb
     RDKit          3D

 27 27  0  0  1  0  0  0  0  0999 V2000
    5.5987  -11.9205   26.4989 C   0  0  0  0  0  0  0  0  0  0  0  0
    6.8662  -12.7627   26.3938 C   0  0  1  0  0  0  0  0  0  0  0  0
    7.7589  -12.5252   27.5803 C   0  0  0  0  0  0  0  0  0  0  0  0
    6.4373  -14.2000   26.3713 C   0  0  0  0  0  0  0  0  0  0  0  0
    7.6524  -15.0504   26.0637 C   0  0  2  0  0  0  0  0  0  0  0  0
    8.8748  -14.4457   26.4633 N   0  0  0  0  0  0  0  0  0  0  0  0
    7.6435  -15.3352   24.6236 C   0  0  0  0  0  0  0  0  0  0  0  0
    6.7397  -16.0893   24.1719 O   0  0  0  0  0  0  0  0  0  0  0  0
    7.4148  -12.1677   20.7753 C   0  0  0  0  0  0  0  0  0  0  0  0
    7.3875  -13.4610   21.5685 C   0  0  1  0  0  0  0  0  0  0  0  0
    6.2644  -14.3196   20.9807 C   0  0  0  0  0  0  0  0  0  0  0  0
    8.7005  -14.2046   21.4420 C   0  0  0  0  0  0  0  0  0  0  0  0
    8.8535  -15.2862   22.4397 C   0  0  2  0  0  0  0  0  0  0  0  0
    8.6268  -14.7729   23.7780 N   0  0  0  0  0  0  0  0  0  0  0  0
   10.1386  -15.9938   22.4291 C   0  0  0  0  0  0  0  0  0  0  0  0
   10.4844  -16.5550   21.3550 O   0  0  0  0  0  0  0  0  0  0  0  0
   11.0171  -16.0994   23.5146 N   0  0  0  0  0  0  0  0  0  0  0  0
   12.3164  -16.6949   23.3172 C   0  0  1  0  0  0  0  0  0  0  0  0
   13.3314  -15.7033   23.8379 C   0  0  0  0  0  0  0  0  0  0  0  0
   14.7250  -16.1656   23.6388 C   0  0  0  0  0  0  0  0  0  0  0  0
   15.0724  -17.3265   22.9861 C   0  0  0  0  0  0  0  0  0  0  0  0
   16.4138  -17.4093   23.0081 N   0  0  0  0  0  0  0  0  0  0  0  0
   16.8995  -16.3189   23.6634 C   0  0  0  0  0  0  0  0  0  0  0  0
   15.8703  -15.5476   24.0555 N   0  0  0  0  0  0  0  0  0  0  0  0
   12.3978  -18.0212   23.9338 C   0  0  0  0  0  0  0  0  0  0  0  0
   11.4345  -18.4541   24.6168 O   0  0  0  0  0  0  0  0  0  0  0  0
   13.5087  -18.8320   23.7940 O   0  0  0  0  0  0  0  0  0  0  0  0
  2  4  1  0
  2  1  1  1
  3  2  1  0
  5  4  1  0
  5  6  1  6
  7  8  2  0
  7  5  1  0
 10  9  1  6
 10 12  1  0
 11 10  1  0
 13 12  1  6
 13 14  1  0
 14  7  1  0
 15 13  1  0
 15 17  1  0
 16 15  2  0
 18 17  1  0
 18 25  1  0
 18 19  1  1
 19 20  1  0
 20 21  2  0
 21 22  1  0
 23 22  1  0
 24 20  1  0
 24 23  2  0
 25 27  1  0
 26 25  2  0
M  END
$$$$
