QRR.pdb
     RDKit          3D

 32 31  0  0  1  0  0  0  0  0999 V2000
   19.2047  -22.0014   -9.0398 N   0  0  0  0  0  0  0  0  0  0  0  0
   17.8777  -22.4141   -9.2692 C   0  0  0  0  0  0  0  0  0  0  0  0
   17.0098  -21.5527   -9.5802 O   0  0  0  0  0  0  0  0  0  0  0  0
   17.5460  -23.8522   -9.1372 C   0  0  0  0  0  0  0  0  0  0  0  0
   18.7286  -24.6715   -8.7160 C   0  0  0  0  0  0  0  0  0  0  0  0
   18.2320  -26.1099   -8.5050 C   0  0  2  0  0  0  0  0  0  0  0  0
   17.4691  -26.5435   -9.6588 N   0  0  0  0  0  0  0  0  0  0  0  0
   17.3629  -26.1809   -7.3128 C   0  0  0  0  0  0  0  0  0  0  0  0
   16.1278  -26.0624   -7.4439 O   0  0  0  0  0  0  0  0  0  0  0  0
   17.4362  -25.8342    1.1207 N   0  0  0  0  0  0  0  0  0  0  0  0
   17.5447  -27.2444    1.1232 C   0  0  0  0  0  0  0  0  0  0  0  0
   17.9325  -27.8869    2.1695 N   0  0  0  0  0  0  0  0  0  0  0  0
   17.2289  -28.0086   -0.0786 N   0  0  0  0  0  0  0  0  0  0  0  0
   17.9257  -27.7058   -1.2810 C   0  0  0  0  0  0  0  0  0  0  0  0
   17.0830  -27.4732   -2.4745 C   0  0  0  0  0  0  0  0  0  0  0  0
   17.8253  -27.2250   -3.7286 C   0  0  0  0  0  0  0  0  0  0  0  0
   17.1159  -26.5562   -4.8256 C   0  0  2  0  0  0  0  0  0  0  0  0
   17.9220  -26.3816   -6.0216 N   0  0  0  0  0  0  0  0  0  0  0  0
   16.7719  -25.1620   -4.3219 C   0  0  0  0  0  0  0  0  0  0  0  0
   17.6632  -24.3296   -4.1438 O   0  0  0  0  0  0  0  0  0  0  0  0
   18.0214  -28.9208    2.2097 N   0  0  0  0  0  0  0  0  0  0  0  0
    9.8741  -20.3620   -6.9291 C   0  0  0  0  0  0  0  0  0  0  0  0
   11.2189  -20.2156   -7.3721 N   0  0  0  0  0  0  0  0  0  0  0  0
   11.4645  -19.7997   -8.5863 N   0  0  0  0  0  0  0  0  0  0  0  0
   12.3324  -20.4983   -6.5480 C   0  0  0  0  0  0  0  0  0  0  0  0
   12.4500  -21.7173   -5.8262 C   0  0  0  0  0  0  0  0  0  0  0  0
   13.7014  -21.8771   -5.0154 C   0  0  0  0  0  0  0  0  0  0  0  0
   13.7428  -23.2486   -4.3848 C   0  0  2  0  0  0  0  0  0  0  0  0
   14.9792  -23.5553   -3.6131 N   0  0  0  0  0  0  0  0  0  0  0  0
   15.4229  -24.8818   -4.0780 C   0  0  0  0  0  0  0  0  0  0  0  0
   14.6728  -23.6293   -2.1551 O   0  0  0  0  0  0  0  0  0  0  0  0
   14.6182  -24.7120   -1.5356 O   0  0  0  0  0  0  0  0  0  0  0  0
  2  1  1  0
  3  2  2  0
  4  2  1  0
  5  4  1  0
  6  5  1  0
  6  7  1  6
  8  9  2  0
  8  6  1  0
 10 11  1  0
 11 12  2  0
 13 11  1  0
 14 13  1  0
 15 14  1  0
 15 16  1  0
 17 16  1  1
 17 18  1  0
 18  8  1  0
 19 20  2  0
 19 17  1  0
 21 22  1  0
 22 24  1  0
 23 22  2  0
 24 25  1  0
 26 27  1  0
 26 25  1  0
 28 29  1  0
 28 27  1  6
 29 19  1  0
 30 28  1  0
 31 30  2  0
 32 30  1  0
M  END
$$$$
