QRR.pdb
     RDKit          3D

 32 31  0  0  1  0  0  0  0  0999 V2000
   16.4001  -24.1344  -15.6139 N   0  0  0  0  0  0  0  0  0  0  0  0
   16.8662  -24.1237  -14.2848 C   0  0  0  0  0  0  0  0  0  0  0  0
   16.0330  -24.1841  -13.3393 O   0  0  0  0  0  0  0  0  0  0  0  0
   18.3258  -24.0421  -14.0424 C   0  0  0  0  0  0  0  0  0  0  0  0
   18.7575  -22.6660  -13.6337 C   0  0  0  0  0  0  0  0  0  0  0  0
   19.8676  -22.2321  -14.6031 C   0  0  2  0  0  0  0  0  0  0  0  0
   20.5379  -23.3994  -15.1410 N   0  0  0  0  0  0  0  0  0  0  0  0
   20.8645  -21.4001  -13.8992 C   0  0  0  0  0  0  0  0  0  0  0  0
   20.4898  -20.3861  -13.2762 O   0  0  0  0  0  0  0  0  0  0  0  0
   28.4895  -21.5802   -8.9917 N   0  0  0  0  0  0  0  0  0  0  0  0
   27.2583  -20.8871   -9.0566 C   0  0  0  0  0  0  0  0  0  0  0  0
   26.5683  -20.6420   -7.9975 N   0  0  0  0  0  0  0  0  0  0  0  0
   26.7314  -20.4423  -10.3421 N   0  0  0  0  0  0  0  0  0  0  0  0
   26.1652  -21.4097  -11.2177 C   0  0  0  0  0  0  0  0  0  0  0  0
   25.6726  -20.8965  -12.5149 C   0  0  0  0  0  0  0  0  0  0  0  0
   24.5416  -21.6481  -13.0988 C   0  0  0  0  0  0  0  0  0  0  0  0
   23.2774  -20.9329  -13.3092 C   0  0  2  0  0  0  0  0  0  0  0  0
   22.2431  -21.7446  -13.9274 N   0  0  0  0  0  0  0  0  0  0  0  0
   23.5851  -19.8020  -14.2798 C   0  0  0  0  0  0  0  0  0  0  0  0
   24.0259  -20.0518  -15.4033 O   0  0  0  0  0  0  0  0  0  0  0  0
   25.6923  -20.0842   -7.9978 N   0  0  0  0  0  0  0  0  0  0  0  0
   29.1864  -15.9834  -18.1945 C   0  0  0  0  0  0  0  0  0  0  0  0
   28.4458  -16.4494  -17.0718 N   0  0  0  0  0  0  0  0  0  0  0  0
   28.0828  -17.7029  -17.0041 N   0  0  0  0  0  0  0  0  0  0  0  0
   28.0756  -15.6101  -15.9959 C   0  0  0  0  0  0  0  0  0  0  0  0
   26.9987  -15.9274  -15.1240 C   0  0  0  0  0  0  0  0  0  0  0  0
   25.7144  -16.3214  -15.7903 C   0  0  0  0  0  0  0  0  0  0  0  0
   25.0971  -17.5008  -15.0772 C   0  0  2  0  0  0  0  0  0  0  0  0
   23.6740  -17.3254  -14.6747 N   0  0  0  0  0  0  0  0  0  0  0  0
   23.3466  -18.4953  -13.8399 C   0  0  0  0  0  0  0  0  0  0  0  0
   22.7930  -17.3260  -15.8784 O   0  0  0  0  0  0  0  0  0  0  0  0
   22.5302  -18.3667  -16.5162 O   0  0  0  0  0  0  0  0  0  0  0  0
  2  1  1  0
  3  2  2  0
  4  2  1  0
  5  4  1  0
  6  5  1  0
  6  7  1  1
  8  9  2  0
  8  6  1  0
 10 11  1  0
 11 12  2  0
 13 11  1  0
 14 13  1  0
 15 14  1  0
 15 16  1  0
 17 16  1  6
 17 18  1  0
 18  8  1  0
 19 20  2  0
 19 17  1  0
 21 22  1  0
 22 24  1  0
 23 22  2  0
 24 25  1  0
 26 27  1  0
 26 25  1  0
 28 29  1  0
 28 27  1  1
 29 19  1  0
 30 28  1  0
 31 30  2  0
 32 30  1  0
M  END
$$$$
