QRR.pdb
     RDKit          3D

 32 31  0  0  1  0  0  0  0  0999 V2000
   24.0279  -30.5309   -2.9975 N   0  0  0  0  0  0  0  0  0  0  0  0
   23.3944  -31.6979   -2.5275 C   0  0  0  0  0  0  0  0  0  0  0  0
   24.0606  -32.7653   -2.4340 O   0  0  0  0  0  0  0  0  0  0  0  0
   21.9612  -31.6306   -2.1571 C   0  0  0  0  0  0  0  0  0  0  0  0
   21.3741  -30.2735   -2.4035 C   0  0  0  0  0  0  0  0  0  0  0  0
   19.8836  -30.3511   -2.0390 C   0  0  2  0  0  0  0  0  0  0  0  0
   19.1682  -31.1122   -3.0440 N   0  0  0  0  0  0  0  0  0  0  0  0
   19.3021  -28.9949   -1.9738 C   0  0  0  0  0  0  0  0  0  0  0  0
   19.7102  -28.1913   -1.1110 O   0  0  0  0  0  0  0  0  0  0  0  0
   14.8876  -24.3432   -8.0975 N   0  0  0  0  0  0  0  0  0  0  0  0
   14.5992  -23.5962   -6.9316 C   0  0  0  0  0  0  0  0  0  0  0  0
   13.8763  -22.5316   -6.9771 N   0  0  0  0  0  0  0  0  0  0  0  0
   15.1327  -24.0137   -5.6397 N   0  0  0  0  0  0  0  0  0  0  0  0
   15.8536  -25.2375   -5.5639 C   0  0  0  0  0  0  0  0  0  0  0  0
   16.3222  -25.6283   -4.2161 C   0  0  0  0  0  0  0  0  0  0  0  0
   17.0860  -26.8926   -4.1591 C   0  0  0  0  0  0  0  0  0  0  0  0
   17.6772  -27.2803   -2.8729 C   0  0  2  0  0  0  0  0  0  0  0  0
   18.2835  -28.6006   -2.8833 N   0  0  0  0  0  0  0  0  0  0  0  0
   16.5288  -27.3337   -1.8759 C   0  0  0  0  0  0  0  0  0  0  0  0
   15.7957  -28.3231   -1.8267 O   0  0  0  0  0  0  0  0  0  0  0  0
   13.6756  -21.9367   -6.1499 N   0  0  0  0  0  0  0  0  0  0  0  0
   16.2428  -20.6214    3.5751 C   0  0  0  0  0  0  0  0  0  0  0  0
   15.3906  -20.4119    2.4544 N   0  0  0  0  0  0  0  0  0  0  0  0
   14.8986  -19.2239    2.2216 N   0  0  0  0  0  0  0  0  0  0  0  0
   15.0417  -21.4441    1.5533 C   0  0  0  0  0  0  0  0  0  0  0  0
   15.4733  -22.7862    1.7357 C   0  0  0  0  0  0  0  0  0  0  0  0
   15.0378  -23.7603    0.6820 C   0  0  0  0  0  0  0  0  0  0  0  0
   15.6663  -25.1110    0.9284 C   0  0  1  0  0  0  0  0  0  0  0  0
   15.2754  -26.1782   -0.0343 N   0  0  0  0  0  0  0  0  0  0  0  0
   16.3537  -26.2267   -1.0381 C   0  0  0  0  0  0  0  0  0  0  0  0
   13.9965  -25.8184   -0.7126 O   0  0  0  0  0  0  0  0  0  0  0  0
   13.9569  -25.0900   -1.7258 O   0  0  0  0  0  0  0  0  0  0  0  0
  2  1  1  0
  3  2  2  0
  4  2  1  0
  5  4  1  0
  6  5  1  0
  6  7  1  6
  8  9  2  0
  8  6  1  0
 10 11  1  0
 11 12  2  0
 13 11  1  0
 14 13  1  0
 15 14  1  0
 15 16  1  0
 17 16  1  6
 17 18  1  0
 18  8  1  0
 19 20  2  0
 19 17  1  0
 21 22  1  0
 22 24  1  0
 23 22  2  0
 24 25  1  0
 26 27  1  0
 26 25  1  0
 28 29  1  0
 28 27  1  1
 29 19  1  0
 30 28  1  0
 31 30  2  0
 32 30  1  0
M  END
$$$$
