QRR.pdb
     RDKit          3D

 32 31  0  0  1  0  0  0  0  0999 V2000
   27.3780  -24.6746  -15.8863 N   0  0  0  0  0  0  0  0  0  0  0  0
   27.7375  -23.4231  -16.4233 C   0  0  0  0  0  0  0  0  0  0  0  0
   28.5375  -23.3779  -17.3980 O   0  0  0  0  0  0  0  0  0  0  0  0
   27.1603  -22.1977  -15.8226 C   0  0  0  0  0  0  0  0  0  0  0  0
   26.2728  -22.5022  -14.6535 C   0  0  0  0  0  0  0  0  0  0  0  0
   24.8693  -22.7849  -15.2109 C   0  0  2  0  0  0  0  0  0  0  0  0
   24.7725  -22.3019  -16.5741 N   0  0  0  0  0  0  0  0  0  0  0  0
   23.8474  -22.0982  -14.3949 C   0  0  0  0  0  0  0  0  0  0  0  0
   23.7774  -22.3328  -13.1715 O   0  0  0  0  0  0  0  0  0  0  0  0
   22.6873  -15.1628  -15.6352 N   0  0  0  0  0  0  0  0  0  0  0  0
   24.0327  -15.5487  -15.4315 C   0  0  0  0  0  0  0  0  0  0  0  0
   24.9230  -14.7033  -15.0434 N   0  0  0  0  0  0  0  0  0  0  0  0
   24.4476  -16.9262  -15.6733 N   0  0  0  0  0  0  0  0  0  0  0  0
   23.4445  -17.9240  -15.8192 C   0  0  0  0  0  0  0  0  0  0  0  0
   22.5205  -18.0826  -14.6747 C   0  0  0  0  0  0  0  0  0  0  0  0
   21.5418  -19.1827  -14.8058 C   0  0  0  0  0  0  0  0  0  0  0  0
   21.9015  -20.4919  -14.2485 C   0  0  2  0  0  0  0  0  0  0  0  0
   22.9456  -21.1761  -14.9919 N   0  0  0  0  0  0  0  0  0  0  0  0
   20.6528  -21.3556  -14.3517 C   0  0  0  0  0  0  0  0  0  0  0  0
   20.3440  -21.8734  -15.4267 O   0  0  0  0  0  0  0  0  0  0  0  0
   25.9054  -14.9611  -14.8268 N   0  0  0  0  0  0  0  0  0  0  0  0
   18.8339  -24.3986   -7.2100 C   0  0  0  0  0  0  0  0  0  0  0  0
   17.5485  -24.2911   -7.8117 N   0  0  0  0  0  0  0  0  0  0  0  0
   16.4799  -24.6078   -7.1295 N   0  0  0  0  0  0  0  0  0  0  0  0
   17.3588  -23.8449   -9.1399 C   0  0  0  0  0  0  0  0  0  0  0  0
   17.6770  -24.6553  -10.2636 C   0  0  0  0  0  0  0  0  0  0  0  0
   17.5355  -23.9970  -11.6035 C   0  0  0  0  0  0  0  0  0  0  0  0
   18.6899  -23.0541  -11.8461 C   0  0  2  0  0  0  0  0  0  0  0  0
   18.6865  -22.3742  -13.1712 N   0  0  0  0  0  0  0  0  0  0  0  0
   19.8924  -21.5267  -13.1897 C   0  0  0  0  0  0  0  0  0  0  0  0
   17.4808  -21.5059  -13.3029 O   0  0  0  0  0  0  0  0  0  0  0  0
   17.4363  -20.3461  -12.8425 O   0  0  0  0  0  0  0  0  0  0  0  0
  2  1  1  0
  3  2  2  0
  4  2  1  0
  5  4  1  0
  6  5  1  0
  6  7  1  6
  8  9  2  0
  8  6  1  0
 10 11  1  0
 11 12  2  0
 13 11  1  0
 14 13  1  0
 15 14  1  0
 15 16  1  0
 17 16  1  6
 17 18  1  0
 18  8  1  0
 19 20  2  0
 19 17  1  0
 21 22  1  0
 22 24  1  0
 23 22  2  0
 24 25  1  0
 26 27  1  0
 26 25  1  0
 28 29  1  0
 28 27  1  6
 29 19  1  0
 30 28  1  0
 31 30  2  0
 32 30  1  0
M  END
$$$$
