QRR.pdb
     RDKit          3D

 32 31  0  0  1  0  0  0  0  0999 V2000
   27.6717  -26.6064  -15.7751 N   0  0  0  0  0  0  0  0  0  0  0  0
   27.7560  -25.4428  -16.5643 C   0  0  0  0  0  0  0  0  0  0  0  0
   28.8888  -24.9408  -16.8024 O   0  0  0  0  0  0  0  0  0  0  0  0
   26.5056  -24.8466  -17.0904 C   0  0  0  0  0  0  0  0  0  0  0  0
   25.2855  -25.5815  -16.6229 C   0  0  0  0  0  0  0  0  0  0  0  0
   24.0668  -24.8701  -17.2304 C   0  0  2  0  0  0  0  0  0  0  0  0
   24.4990  -23.9278  -18.2435 N   0  0  0  0  0  0  0  0  0  0  0  0
   23.3320  -24.1311  -16.1836 C   0  0  0  0  0  0  0  0  0  0  0  0
   22.8480  -24.7531  -15.2163 O   0  0  0  0  0  0  0  0  0  0  0  0
   19.2482  -18.1326  -14.9104 N   0  0  0  0  0  0  0  0  0  0  0  0
   19.9009  -17.3141  -13.9593 C   0  0  0  0  0  0  0  0  0  0  0  0
   19.2371  -16.5726  -13.1423 N   0  0  0  0  0  0  0  0  0  0  0  0
   21.3578  -17.2822  -13.8925 N   0  0  0  0  0  0  0  0  0  0  0  0
   22.0976  -18.1526  -14.7400 C   0  0  0  0  0  0  0  0  0  0  0  0
   21.9054  -19.6004  -14.5042 C   0  0  0  0  0  0  0  0  0  0  0  0
   22.6578  -20.4900  -15.4139 C   0  0  0  0  0  0  0  0  0  0  0  0
   22.4706  -21.9384  -15.2683 C   0  0  2  0  0  0  0  0  0  0  0  0
   23.1722  -22.7216  -16.2709 N   0  0  0  0  0  0  0  0  0  0  0  0
   20.9848  -22.1975  -15.4710 C   0  0  0  0  0  0  0  0  0  0  0  0
   20.4594  -21.9725  -16.5629 O   0  0  0  0  0  0  0  0  0  0  0  0
   19.6758  -15.8659  -12.5206 N   0  0  0  0  0  0  0  0  0  0  0  0
   21.0168  -28.1122  -13.1534 C   0  0  0  0  0  0  0  0  0  0  0  0
   20.3691  -27.3674  -12.1278 N   0  0  0  0  0  0  0  0  0  0  0  0
   20.9179  -27.2704  -10.9458 N   0  0  0  0  0  0  0  0  0  0  0  0
   19.1350  -26.7059  -12.3238 C   0  0  0  0  0  0  0  0  0  0  0  0
   18.4832  -26.6781  -13.5868 C   0  0  0  0  0  0  0  0  0  0  0  0
   18.7955  -25.4968  -14.4561 C   0  0  0  0  0  0  0  0  0  0  0  0
   18.5939  -24.2140  -13.6854 C   0  0  2  0  0  0  0  0  0  0  0  0
   18.8180  -22.9640  -14.4636 N   0  0  0  0  0  0  0  0  0  0  0  0
   20.2644  -22.6931  -14.3787 C   0  0  0  0  0  0  0  0  0  0  0  0
   18.0743  -21.8293  -13.8434 O   0  0  0  0  0  0  0  0  0  0  0  0
   16.8434  -21.6769  -13.9860 O   0  0  0  0  0  0  0  0  0  0  0  0
  2  1  1  0
  3  2  2  0
  4  2  1  0
  5  4  1  0
  6  5  1  0
  6  7  1  6
  8  9  2  0
  8  6  1  0
 10 11  1  0
 11 12  2  0
 13 11  1  0
 14 13  1  0
 15 14  1  0
 15 16  1  0
 17 16  1  6
 17 18  1  0
 18  8  1  0
 19 20  2  0
 19 17  1  0
 21 22  1  0
 22 24  1  0
 23 22  2  0
 24 25  1  0
 26 27  1  0
 26 25  1  0
 28 29  1  0
 28 27  1  6
 29 19  1  0
 30 28  1  0
 31 30  2  0
 32 30  1  0
M  END
$$$$
