QRR.pdb
     RDKit          3D

 32 31  0  0  1  0  0  0  0  0999 V2000
   16.8125  -19.1674  -11.9312 N   0  0  0  0  0  0  0  0  0  0  0  0
   17.9443  -19.4395  -12.7242 C   0  0  0  0  0  0  0  0  0  0  0  0
   18.4011  -18.5353  -13.4764 O   0  0  0  0  0  0  0  0  0  0  0  0
   18.5621  -20.7841  -12.6465 C   0  0  0  0  0  0  0  0  0  0  0  0
   17.8944  -21.6578  -11.6276 C   0  0  0  0  0  0  0  0  0  0  0  0
   18.7428  -22.9319  -11.4968 C   0  0  2  0  0  0  0  0  0  0  0  0
   18.9584  -23.5185  -12.8048 N   0  0  0  0  0  0  0  0  0  0  0  0
   18.0511  -23.9215  -10.6459 C   0  0  0  0  0  0  0  0  0  0  0  0
   16.8298  -24.1220  -10.8040 O   0  0  0  0  0  0  0  0  0  0  0  0
   21.1218  -31.2822  -10.5316 N   0  0  0  0  0  0  0  0  0  0  0  0
   19.9749  -31.0633   -9.7333 C   0  0  0  0  0  0  0  0  0  0  0  0
   19.4309  -32.0180   -9.0621 N   0  0  0  0  0  0  0  0  0  0  0  0
   19.3689  -29.7381   -9.6639 N   0  0  0  0  0  0  0  0  0  0  0  0
   19.8918  -28.7060  -10.4912 C   0  0  0  0  0  0  0  0  0  0  0  0
   19.2170  -27.3933  -10.3899 C   0  0  0  0  0  0  0  0  0  0  0  0
   18.7960  -27.0074   -9.0265 C   0  0  0  0  0  0  0  0  0  0  0  0
   18.1632  -25.6951   -8.8488 C   0  0  2  0  0  0  0  0  0  0  0  0
   18.7644  -24.6436   -9.6510 N   0  0  0  0  0  0  0  0  0  0  0  0
   18.3798  -25.3125   -7.3919 C   0  0  0  0  0  0  0  0  0  0  0  0
   19.4933  -24.9545   -7.0037 O   0  0  0  0  0  0  0  0  0  0  0  0
   18.5540  -31.9106   -8.5163 N   0  0  0  0  0  0  0  0  0  0  0  0
   11.7095  -22.7403   -2.5059 C   0  0  0  0  0  0  0  0  0  0  0  0
   12.5474  -22.3050   -3.5711 N   0  0  0  0  0  0  0  0  0  0  0  0
   12.0835  -21.4780   -4.4703 N   0  0  0  0  0  0  0  0  0  0  0  0
   13.8900  -22.7256   -3.7110 C   0  0  0  0  0  0  0  0  0  0  0  0
   14.4201  -23.8223   -2.9783 C   0  0  0  0  0  0  0  0  0  0  0  0
   15.8483  -24.1731   -3.2713 C   0  0  0  0  0  0  0  0  0  0  0  0
   15.9951  -24.6034   -4.7113 C   0  0  1  0  0  0  0  0  0  0  0  0
   17.3691  -25.0129   -5.1145 N   0  0  0  0  0  0  0  0  0  0  0  0
   17.2744  -25.3866   -6.5372 C   0  0  0  0  0  0  0  0  0  0  0  0
   17.8050  -26.2030   -4.3279 O   0  0  0  0  0  0  0  0  0  0  0  0
   17.6740  -27.3705   -4.7505 O   0  0  0  0  0  0  0  0  0  0  0  0
  2  1  1  0
  3  2  2  0
  4  2  1  0
  5  4  1  0
  6  5  1  0
  6  7  1  6
  8  9  2  0
  8  6  1  0
 10 11  1  0
 11 12  2  0
 13 11  1  0
 14 13  1  0
 15 14  1  0
 15 16  1  0
 17 16  1  1
 17 18  1  0
 18  8  1  0
 19 20  2  0
 19 17  1  0
 21 22  1  0
 22 24  1  0
 23 22  2  0
 24 25  1  0
 26 27  1  0
 26 25  1  0
 28 29  1  0
 28 27  1  6
 29 19  1  0
 30 28  1  0
 31 30  2  0
 32 30  1  0
M  END
$$$$
