QRR.pdb
     RDKit          3D

 32 31  0  0  1  0  0  0  0  0999 V2000
   30.9452  -26.0107  -18.1702 N   0  0  0  0  0  0  0  0  0  0  0  0
   31.2595  -24.7923  -18.8032 C   0  0  0  0  0  0  0  0  0  0  0  0
   32.1311  -24.7790  -19.7153 O   0  0  0  0  0  0  0  0  0  0  0  0
   30.5517  -23.5633  -18.3741 C   0  0  0  0  0  0  0  0  0  0  0  0
   29.5487  -23.8336  -17.2932 C   0  0  0  0  0  0  0  0  0  0  0  0
   28.3967  -22.8350  -17.4832 C   0  0  2  0  0  0  0  0  0  0  0  0
   28.9234  -21.5403  -17.8672 N   0  0  0  0  0  0  0  0  0  0  0  0
   27.6411  -22.6806  -16.2235 C   0  0  0  0  0  0  0  0  0  0  0  0
   27.1122  -23.6804  -15.6969 O   0  0  0  0  0  0  0  0  0  0  0  0
   25.6923  -19.5249   -8.8742 N   0  0  0  0  0  0  0  0  0  0  0  0
   24.7835  -20.3518   -9.5747 C   0  0  0  0  0  0  0  0  0  0  0  0
   23.5518  -20.4540   -9.2133 N   0  0  0  0  0  0  0  0  0  0  0  0
   25.2314  -21.1263  -10.7269 N   0  0  0  0  0  0  0  0  0  0  0  0
   26.5128  -20.8481  -11.2780 C   0  0  0  0  0  0  0  0  0  0  0  0
   26.5570  -19.7829  -12.3036 C   0  0  0  0  0  0  0  0  0  0  0  0
   27.2972  -20.1280  -13.5358 C   0  0  0  0  0  0  0  0  0  0  0  0
   26.7461  -21.1822  -14.3954 C   0  0  2  0  0  0  0  0  0  0  0  0
   27.5118  -21.4052  -15.6098 N   0  0  0  0  0  0  0  0  0  0  0  0
   25.3688  -20.7012  -14.8283 C   0  0  0  0  0  0  0  0  0  0  0  0
   25.2466  -19.6358  -15.4358 O   0  0  0  0  0  0  0  0  0  0  0  0
   22.8517  -21.0351   -9.7139 N   0  0  0  0  0  0  0  0  0  0  0  0
   16.9132  -22.8425  -12.7171 C   0  0  0  0  0  0  0  0  0  0  0  0
   17.4328  -23.5151  -13.8589 N   0  0  0  0  0  0  0  0  0  0  0  0
   16.6284  -24.1735  -14.6508 N   0  0  0  0  0  0  0  0  0  0  0  0
   18.8062  -23.5061  -14.1947 C   0  0  0  0  0  0  0  0  0  0  0  0
   19.7778  -22.8498  -13.3910 C   0  0  0  0  0  0  0  0  0  0  0  0
   20.5465  -21.7517  -14.0633 C   0  0  0  0  0  0  0  0  0  0  0  0
   22.0231  -22.0675  -14.0546 C   0  0  1  0  0  0  0  0  0  0  0  0
   22.8886  -21.0755  -14.7512 N   0  0  0  0  0  0  0  0  0  0  0  0
   24.2750  -21.5130  -14.5082 C   0  0  0  0  0  0  0  0  0  0  0  0
   22.6970  -19.7189  -14.1611 O   0  0  0  0  0  0  0  0  0  0  0  0
   23.0954  -19.4240  -13.0152 O   0  0  0  0  0  0  0  0  0  0  0  0
  2  1  1  0
  3  2  2  0
  4  2  1  0
  5  4  1  0
  6  5  1  0
  6  7  1  1
  8  9  2  0
  8  6  1  0
 10 11  1  0
 11 12  2  0
 13 11  1  0
 14 13  1  0
 15 14  1  0
 15 16  1  0
 17 16  1  1
 17 18  1  0
 18  8  1  0
 19 20  2  0
 19 17  1  0
 21 22  1  0
 22 24  1  0
 23 22  2  0
 24 25  1  0
 26 27  1  0
 26 25  1  0
 28 29  1  0
 28 27  1  6
 29 19  1  0
 30 28  1  0
 31 30  2  0
 32 30  1  0
M  END
$$$$
