QRR.pdb
     RDKit          3D

 32 31  0  0  1  0  0  0  0  0999 V2000
   28.6860  -26.5508  -16.9015 N   0  0  0  0  0  0  0  0  0  0  0  0
   29.5091  -25.4326  -17.1378 C   0  0  0  0  0  0  0  0  0  0  0  0
   30.7232  -25.6123  -17.4304 O   0  0  0  0  0  0  0  0  0  0  0  0
   28.9175  -24.0779  -17.0347 C   0  0  0  0  0  0  0  0  0  0  0  0
   27.4698  -24.1185  -16.6474 C   0  0  0  0  0  0  0  0  0  0  0  0
   26.9841  -22.6639  -16.5550 C   0  0  2  0  0  0  0  0  0  0  0  0
   28.1020  -21.7868  -16.2685 N   0  0  0  0  0  0  0  0  0  0  0  0
   25.9883  -22.5254  -15.4728 C   0  0  0  0  0  0  0  0  0  0  0  0
   24.9077  -23.1445  -15.5482 O   0  0  0  0  0  0  0  0  0  0  0  0
   23.0703  -20.1023   -8.5614 N   0  0  0  0  0  0  0  0  0  0  0  0
   24.1875  -20.6618   -7.8988 C   0  0  0  0  0  0  0  0  0  0  0  0
   24.0851  -21.1693   -6.7198 N   0  0  0  0  0  0  0  0  0  0  0  0
   25.4981  -20.6633   -8.5395 N   0  0  0  0  0  0  0  0  0  0  0  0
   25.6574  -19.9603   -9.7657 C   0  0  0  0  0  0  0  0  0  0  0  0
   24.9952  -20.5606  -10.9447 C   0  0  0  0  0  0  0  0  0  0  0  0
   25.8984  -20.9122  -12.0608 C   0  0  0  0  0  0  0  0  0  0  0  0
   25.3031  -21.4985  -13.2673 C   0  0  2  0  0  0  0  0  0  0  0  0
   26.2512  -21.6936  -14.3507 N   0  0  0  0  0  0  0  0  0  0  0  0
   24.2719  -20.4953  -13.7633 C   0  0  0  0  0  0  0  0  0  0  0  0
   24.6083  -19.3394  -14.0272 O   0  0  0  0  0  0  0  0  0  0  0  0
   24.8887  -21.5573   -6.1887 N   0  0  0  0  0  0  0  0  0  0  0  0
   20.3030  -21.1658  -20.7258 C   0  0  0  0  0  0  0  0  0  0  0  0
   21.0631  -19.9767  -20.5406 N   0  0  0  0  0  0  0  0  0  0  0  0
   21.4406  -19.2754  -21.5766 N   0  0  0  0  0  0  0  0  0  0  0  0
   21.4380  -19.4976  -19.2642 C   0  0  0  0  0  0  0  0  0  0  0  0
   21.1220  -20.1997  -18.0693 C   0  0  0  0  0  0  0  0  0  0  0  0
   21.6627  -19.6071  -16.8023 C   0  0  0  0  0  0  0  0  0  0  0  0
   21.4071  -20.5374  -15.6406 C   0  0  2  0  0  0  0  0  0  0  0  0
   21.8667  -20.0385  -14.3147 N   0  0  0  0  0  0  0  0  0  0  0  0
   22.9537  -20.9439  -13.9008 C   0  0  0  0  0  0  0  0  0  0  0  0
   20.7592  -20.1225  -13.3191 O   0  0  0  0  0  0  0  0  0  0  0  0
   20.6736  -21.0506  -12.4882 O   0  0  0  0  0  0  0  0  0  0  0  0
  2  1  1  0
  3  2  2  0
  4  2  1  0
  5  4  1  0
  6  5  1  0
  6  7  1  1
  8  9  2  0
  8  6  1  0
 10 11  1  0
 11 12  2  0
 13 11  1  0
 14 13  1  0
 15 14  1  0
 15 16  1  0
 17 16  1  1
 17 18  1  0
 18  8  1  0
 19 20  2  0
 19 17  1  0
 21 22  1  0
 22 24  1  0
 23 22  2  0
 24 25  1  0
 26 27  1  0
 26 25  1  0
 28 29  1  0
 28 27  1  6
 29 19  1  0
 30 28  1  0
 31 30  2  0
 32 30  1  0
M  END
$$$$
