PPD.pdb
     RDKit          3D

 23 24  0  0  1  0  0  0  0  0999 V2000
   28.3378  -20.7258  -15.0580 N   0  0  0  0  0  0  0  0  0  0  0  0
   28.6021  -19.6622  -15.9716 C   0  0  0  0  0  0  0  0  0  0  0  0
   27.8464  -18.4603  -15.4926 C   0  0  0  0  0  0  0  0  0  0  0  0
   27.3718  -18.7877  -14.1142 C   0  0  0  0  0  0  0  0  0  0  0  0
   27.7170  -20.2273  -13.8797 C   0  0  1  0  0  0  0  0  0  0  0  0
   26.4887  -20.9628  -13.4771 C   0  0  0  0  0  0  0  0  0  0  0  0
   25.9866  -21.8596  -14.2173 O   0  0  0  0  0  0  0  0  0  0  0  0
   25.8124  -20.6942  -12.2353 N   0  0  0  0  0  0  0  0  0  0  0  0
   26.2849  -19.7794  -11.2546 C   0  0  0  0  0  0  0  0  0  0  0  0
   25.3640  -19.9335  -10.0696 C   0  0  0  0  0  0  0  0  0  0  0  0
   24.6892  -21.3007  -10.3062 C   0  0  0  0  0  0  0  0  0  0  0  0
   24.5825  -21.2799  -11.7899 C   0  0  1  0  0  0  0  0  0  0  0  0
   23.3858  -20.5751  -12.3052 C   0  0  0  0  0  0  0  0  0  0  0  0
   23.3551  -19.3271  -12.5394 O   0  0  0  0  0  0  0  0  0  0  0  0
   22.2085  -21.2901  -12.5584 N   0  0  0  0  0  0  0  0  0  0  0  0
   21.0898  -20.7643  -13.3507 C   0  0  1  0  0  0  0  0  0  0  0  0
   20.6900  -21.6940  -14.4313 C   0  0  0  0  0  0  0  0  0  0  0  0
   19.5797  -21.1496  -15.2200 C   0  0  0  0  0  0  0  0  0  0  0  0
   19.6740  -20.0413  -15.7807 O   0  0  0  0  0  0  0  0  0  0  0  0
   19.9466  -20.5990  -12.3961 C   0  0  0  0  0  0  0  0  0  0  0  0
   19.7569  -21.2881  -11.2320 O   0  0  0  0  0  0  0  0  0  0  0  0
   18.3693  -21.8218  -15.3917 O   0  0  0  0  0  0  0  0  0  0  0  0
   19.0402  -19.7326  -12.6725 O   0  0  0  0  0  0  0  0  0  0  0  0
  2  1  1  0
  3  2  1  0
  4  3  1  0
  4  5  1  0
  5  6  1  6
  5  1  1  0
  6  7  2  0
  8 12  1  0
  8  6  1  0
  9 10  1  0
  9  8  1  0
 10 11  1  0
 11 12  1  0
 13 15  1  0
 12 13  1  1
 14 13  2  0
 16 15  1  0
 16 17  1  6
 17 18  1  0
 18 19  2  0
 18 22  1  0
 20 16  1  0
 21 20  1  0
 23 20  2  0
M  END
$$$$
