PPD.pdb
     RDKit          3D

 23 24  0  0  1  0  0  0  0  0999 V2000
   22.5276  -13.9426  -17.8712 N   0  0  0  0  0  0  0  0  0  0  0  0
   21.9806  -14.1870  -19.1660 C   0  0  0  0  0  0  0  0  0  0  0  0
   22.3498  -13.0244  -20.0363 C   0  0  0  0  0  0  0  0  0  0  0  0
   23.3729  -12.2434  -19.2776 C   0  0  0  0  0  0  0  0  0  0  0  0
   23.4602  -12.8701  -17.9188 C   0  0  1  0  0  0  0  0  0  0  0  0
   23.2420  -11.8231  -16.8854 C   0  0  0  0  0  0  0  0  0  0  0  0
   22.1092  -11.6601  -16.3430 O   0  0  0  0  0  0  0  0  0  0  0  0
   24.2994  -10.9476  -16.4529 N   0  0  0  0  0  0  0  0  0  0  0  0
   25.5995  -10.9267  -17.0285 C   0  0  0  0  0  0  0  0  0  0  0  0
   26.4137   -9.9876  -16.1733 C   0  0  0  0  0  0  0  0  0  0  0  0
   25.6075   -9.8961  -14.8610 C   0  0  0  0  0  0  0  0  0  0  0  0
   24.2248   -9.9733  -15.4044 C   0  0  1  0  0  0  0  0  0  0  0  0
   23.6749   -8.6750  -15.8587 C   0  0  0  0  0  0  0  0  0  0  0  0
   23.8298   -8.2226  -17.0354 O   0  0  0  0  0  0  0  0  0  0  0  0
   22.9412   -7.8777  -14.9715 N   0  0  0  0  0  0  0  0  0  0  0  0
   22.1971   -6.6789  -15.3774 C   0  0  1  0  0  0  0  0  0  0  0  0
   20.7441   -6.8173  -15.1294 C   0  0  0  0  0  0  0  0  0  0  0  0
   20.0193   -5.6005  -15.5104 C   0  0  0  0  0  0  0  0  0  0  0  0
   19.8726   -5.2897  -16.7077 O   0  0  0  0  0  0  0  0  0  0  0  0
   22.7335   -5.5551  -14.5436 C   0  0  0  0  0  0  0  0  0  0  0  0
   23.4727   -5.6752  -13.4012 O   0  0  0  0  0  0  0  0  0  0  0  0
   19.4577   -4.7280  -14.5779 O   0  0  0  0  0  0  0  0  0  0  0  0
   22.4903   -4.3499  -14.9135 O   0  0  0  0  0  0  0  0  0  0  0  0
  2  1  1  0
  3  2  1  0
  4  3  1  0
  4  5  1  0
  5  6  1  1
  5  1  1  0
  6  7  2  0
  8 12  1  0
  8  6  1  0
  9 10  1  0
  9  8  1  0
 10 11  1  0
 11 12  1  0
 13 15  1  0
 12 13  1  6
 14 13  2  0
 16 15  1  0
 16 17  1  1
 17 18  1  0
 18 19  2  0
 18 22  1  0
 20 16  1  0
 21 20  1  0
 23 20  2  0
M  END
$$$$
