PPD.pdb
     RDKit          3D

 23 24  0  0  1  0  0  0  0  0999 V2000
   29.8068  -22.1567  -11.7461 N   0  0  0  0  0  0  0  0  0  0  0  0
   30.5674  -21.6048  -12.8197 C   0  0  0  0  0  0  0  0  0  0  0  0
   30.0206  -20.2386  -13.1017 C   0  0  0  0  0  0  0  0  0  0  0  0
   29.1111  -19.9097  -11.9628 C   0  0  0  0  0  0  0  0  0  0  0  0
   29.0176  -21.1494  -11.1257 C   0  0  1  0  0  0  0  0  0  0  0  0
   27.5859  -21.5133  -10.9534 C   0  0  0  0  0  0  0  0  0  0  0  0
   27.0828  -22.5075  -11.5555 O   0  0  0  0  0  0  0  0  0  0  0  0
   26.7055  -20.7589  -10.1005 N   0  0  0  0  0  0  0  0  0  0  0  0
   27.0870  -19.5737   -9.4136 C   0  0  0  0  0  0  0  0  0  0  0  0
   25.9191  -19.2170   -8.5275 C   0  0  0  0  0  0  0  0  0  0  0  0
   25.1137  -20.5299   -8.4378 C   0  0  0  0  0  0  0  0  0  0  0  0
   25.3346  -21.0597   -9.8102 C   0  0  1  0  0  0  0  0  0  0  0  0
   24.3975  -20.5284  -10.8270 C   0  0  0  0  0  0  0  0  0  0  0  0
   24.6089  -19.4624  -11.4845 O   0  0  0  0  0  0  0  0  0  0  0  0
   23.2060  -21.2103  -11.1036 N   0  0  0  0  0  0  0  0  0  0  0  0
   22.5476  -21.2018  -12.4159 C   0  0  1  0  0  0  0  0  0  0  0  0
   21.7369  -22.4205  -12.6378 C   0  0  0  0  0  0  0  0  0  0  0  0
   20.9701  -22.3317  -13.8850 C   0  0  0  0  0  0  0  0  0  0  0  0
   21.5071  -21.9504  -14.9423 O   0  0  0  0  0  0  0  0  0  0  0  0
   21.6467  -20.0042  -12.4206 C   0  0  0  0  0  0  0  0  0  0  0  0
   21.2240  -19.3127  -13.5202 O   0  0  0  0  0  0  0  0  0  0  0  0
   19.6172  -22.6612  -13.9694 O   0  0  0  0  0  0  0  0  0  0  0  0
   21.2138  -19.5609  -11.2960 O   0  0  0  0  0  0  0  0  0  0  0  0
  2  1  1  0
  3  2  1  0
  4  3  1  0
  4  5  1  0
  5  6  1  6
  5  1  1  0
  6  7  2  0
  8 12  1  0
  8  6  1  0
  9 10  1  0
  9  8  1  0
 10 11  1  0
 11 12  1  0
 13 15  1  0
 12 13  1  6
 14 13  2  0
 16 15  1  0
 16 17  1  1
 17 18  1  0
 18 19  2  0
 18 22  1  0
 20 16  1  0
 21 20  1  0
 23 20  2  0
M  END
$$$$
