PPD.pdb
     RDKit          3D

 23 24  0  0  1  0  0  0  0  0999 V2000
   21.1429  -15.6373  -17.9847 N   0  0  0  0  0  0  0  0  0  0  0  0
   20.9756  -15.8556  -19.3847 C   0  0  0  0  0  0  0  0  0  0  0  0
   21.6954  -14.7534  -20.1004 C   0  0  0  0  0  0  0  0  0  0  0  0
   22.5250  -14.0587  -19.0700 C   0  0  0  0  0  0  0  0  0  0  0  0
   22.1501  -14.6612  -17.7498 C   0  0  1  0  0  0  0  0  0  0  0  0
   21.7448  -13.5760  -16.8172 C   0  0  0  0  0  0  0  0  0  0  0  0
   20.5243  -13.3087  -16.6096 O   0  0  0  0  0  0  0  0  0  0  0  0
   22.7121  -12.7793  -16.1092 N   0  0  0  0  0  0  0  0  0  0  0  0
   24.1187  -12.9010  -16.2780 C   0  0  0  0  0  0  0  0  0  0  0  0
   24.7380  -11.9999  -15.2384 C   0  0  0  0  0  0  0  0  0  0  0  0
   23.5985  -11.7763  -14.2226 C   0  0  0  0  0  0  0  0  0  0  0  0
   22.4328  -11.7548  -15.1466 C   0  0  1  0  0  0  0  0  0  0  0  0
   22.1697  -10.4350  -15.7656 C   0  0  0  0  0  0  0  0  0  0  0  0
   22.7014  -10.0542  -16.8545 O   0  0  0  0  0  0  0  0  0  0  0  0
   21.2951   -9.5340  -15.1457 N   0  0  0  0  0  0  0  0  0  0  0  0
   20.8482   -8.2778  -15.7604 C   0  0  1  0  0  0  0  0  0  0  0  0
   19.4066   -8.3066  -16.0964 C   0  0  0  0  0  0  0  0  0  0  0  0
   18.9788   -7.0501  -16.7204 C   0  0  0  0  0  0  0  0  0  0  0  0
   19.6773   -6.4953  -17.5897 O   0  0  0  0  0  0  0  0  0  0  0  0
   21.0946   -7.2065  -14.7420 C   0  0  0  0  0  0  0  0  0  0  0  0
   21.4696   -7.3951  -13.4421 O   0  0  0  0  0  0  0  0  0  0  0  0
   17.7866   -6.4055  -16.3894 O   0  0  0  0  0  0  0  0  0  0  0  0
   20.9461   -5.9812  -15.0959 O   0  0  0  0  0  0  0  0  0  0  0  0
  2  1  1  0
  3  2  1  0
  4  3  1  0
  4  5  1  0
  5  6  1  1
  5  1  1  0
  6  7  2  0
  8 12  1  0
  8  6  1  0
  9 10  1  0
  9  8  1  0
 10 11  1  0
 11 12  1  0
 13 15  1  0
 12 13  1  6
 14 13  2  0
 16 15  1  0
 16 17  1  1
 17 18  1  0
 18 19  2  0
 18 22  1  0
 20 16  1  0
 21 20  1  0
 23 20  2  0
M  END
$$$$
