PPD.pdb
     RDKit          3D

 23 24  0  0  1  0  0  0  0  0999 V2000
   18.2168  -12.5314  -15.6438 N   0  0  0  0  0  0  0  0  0  0  0  0
   17.7633  -13.2043  -16.8173 C   0  0  0  0  0  0  0  0  0  0  0  0
   18.2940  -12.4524  -17.9997 C   0  0  0  0  0  0  0  0  0  0  0  0
   19.3075  -11.4939  -17.4643 C   0  0  0  0  0  0  0  0  0  0  0  0
   19.2309  -11.5894  -15.9704 C   0  0  1  0  0  0  0  0  0  0  0  0
   19.0090  -10.2312  -15.4068 C   0  0  0  0  0  0  0  0  0  0  0  0
   17.8639   -9.8624  -15.0108 O   0  0  0  0  0  0  0  0  0  0  0  0
   20.0764   -9.2734  -15.2847 N   0  0  0  0  0  0  0  0  0  0  0  0
   21.3956   -9.4871  -15.7704 C   0  0  0  0  0  0  0  0  0  0  0  0
   22.2073   -8.3095  -15.2901 C   0  0  0  0  0  0  0  0  0  0  0  0
   21.3593   -7.7249  -14.1414 C   0  0  0  0  0  0  0  0  0  0  0  0
   19.9945   -7.9782  -14.6765 C   0  0  1  0  0  0  0  0  0  0  0  0
   19.4995   -6.9338  -15.6031 C   0  0  0  0  0  0  0  0  0  0  0  0
   19.4425   -7.0857  -16.8629 O   0  0  0  0  0  0  0  0  0  0  0  0
   19.0639   -5.7019  -15.0995 N   0  0  0  0  0  0  0  0  0  0  0  0
   18.0213   -4.8849  -15.7328 C   0  0  1  0  0  0  0  0  0  0  0  0
   16.6610   -5.3337  -15.3586 C   0  0  0  0  0  0  0  0  0  0  0  0
   15.6339   -4.4524  -15.9239 C   0  0  0  0  0  0  0  0  0  0  0  0
   15.0131   -3.6470  -15.2044 O   0  0  0  0  0  0  0  0  0  0  0  0
   18.2315   -3.4863  -15.2371 C   0  0  0  0  0  0  0  0  0  0  0  0
   19.0019   -3.1109  -14.1735 O   0  0  0  0  0  0  0  0  0  0  0  0
   15.2903   -4.4567  -17.2760 O   0  0  0  0  0  0  0  0  0  0  0  0
   17.6422   -2.5253  -15.8517 O   0  0  0  0  0  0  0  0  0  0  0  0
  2  1  1  0
  3  2  1  0
  4  3  1  0
  4  5  1  0
  5  6  1  1
  5  1  1  0
  6  7  2  0
  8 12  1  0
  8  6  1  0
  9 10  1  0
  9  8  1  0
 10 11  1  0
 11 12  1  0
 13 15  1  0
 12 13  1  6
 14 13  2  0
 16 15  1  0
 16 17  1  1
 17 18  1  0
 18 19  2  0
 18 22  1  0
 20 16  1  0
 21 20  1  0
 23 20  2  0
M  END
$$$$
