PPD.pdb
     RDKit          3D

 23 24  0  0  1  0  0  0  0  0999 V2000
   23.4697  -20.2838  -15.8545 N   0  0  0  0  0  0  0  0  0  0  0  0
   22.9084  -20.9485  -16.9853 C   0  0  0  0  0  0  0  0  0  0  0  0
   23.1740  -20.0933  -18.1867 C   0  0  0  0  0  0  0  0  0  0  0  0
   24.1594  -19.0576  -17.7521 C   0  0  0  0  0  0  0  0  0  0  0  0
   24.3241  -19.2264  -16.2719 C   0  0  1  0  0  0  0  0  0  0  0  0
   24.0601  -17.9254  -15.6015 C   0  0  0  0  0  0  0  0  0  0  0  0
   23.0068  -17.7363  -14.9242 O   0  0  0  0  0  0  0  0  0  0  0  0
   24.9812  -16.8228  -15.6886 N   0  0  0  0  0  0  0  0  0  0  0  0
   26.1915  -16.8551  -16.4343 C   0  0  0  0  0  0  0  0  0  0  0  0
   26.9058  -15.5648  -16.1166 C   0  0  0  0  0  0  0  0  0  0  0  0
   26.2330  -15.0856  -14.8135 C   0  0  0  0  0  0  0  0  0  0  0  0
   24.8390  -15.5413  -15.0629 C   0  0  1  0  0  0  0  0  0  0  0  0
   24.0217  -14.5961  -15.8586 C   0  0  0  0  0  0  0  0  0  0  0  0
   23.9089  -14.6604  -17.1221 O   0  0  0  0  0  0  0  0  0  0  0  0
   23.3237  -13.5648  -15.2181 N   0  0  0  0  0  0  0  0  0  0  0  0
   22.2758  -12.7654  -15.8648 C   0  0  1  0  0  0  0  0  0  0  0  0
   21.4891  -11.9839  -14.8838 C   0  0  0  0  0  0  0  0  0  0  0  0
   20.4121  -11.2343  -15.5390 C   0  0  0  0  0  0  0  0  0  0  0  0
   19.9151  -11.6300  -16.6104 O   0  0  0  0  0  0  0  0  0  0  0  0
   22.9839  -11.8229  -16.7900 C   0  0  0  0  0  0  0  0  0  0  0  0
   22.4951  -11.3166  -17.9608 O   0  0  0  0  0  0  0  0  0  0  0  0
   19.8835  -10.0531  -15.0179 O   0  0  0  0  0  0  0  0  0  0  0  0
   24.1680  -11.4358  -16.4790 O   0  0  0  0  0  0  0  0  0  0  0  0
  2  1  1  0
  3  2  1  0
  4  3  1  0
  4  5  1  0
  5  6  1  1
  5  1  1  0
  6  7  2  0
  8 12  1  0
  8  6  1  0
  9 10  1  0
  9  8  1  0
 10 11  1  0
 11 12  1  0
 13 15  1  0
 12 13  1  6
 14 13  2  0
 16 15  1  0
 16 17  1  1
 17 18  1  0
 18 19  2  0
 18 22  1  0
 20 16  1  0
 21 20  1  0
 23 20  2  0
M  END
$$$$
