PPD.pdb
     RDKit          3D

 23 24  0  0  1  0  0  0  0  0999 V2000
   28.2841  -20.8921  -15.1465 N   0  0  0  0  0  0  0  0  0  0  0  0
   28.6648  -19.8263  -16.0153 C   0  0  0  0  0  0  0  0  0  0  0  0
   28.0713  -18.5650  -15.4658 C   0  0  0  0  0  0  0  0  0  0  0  0
   27.5803  -18.8977  -14.0944 C   0  0  0  0  0  0  0  0  0  0  0  0
   27.7477  -20.3786  -13.9338 C   0  0  1  0  0  0  0  0  0  0  0  0
   26.4437  -20.9756  -13.5402 C   0  0  0  0  0  0  0  0  0  0  0  0
   25.8230  -21.7664  -14.3106 O   0  0  0  0  0  0  0  0  0  0  0  0
   25.8249  -20.6865  -12.2732 N   0  0  0  0  0  0  0  0  0  0  0  0
   26.3912  -19.8308  -11.2889 C   0  0  0  0  0  0  0  0  0  0  0  0
   25.4958  -19.9441  -10.0799 C   0  0  0  0  0  0  0  0  0  0  0  0
   24.7159  -21.2528  -10.3239 C   0  0  0  0  0  0  0  0  0  0  0  0
   24.5685  -21.1909  -11.8029 C   0  0  1  0  0  0  0  0  0  0  0  0
   23.4125  -20.3894  -12.2673 C   0  0  0  0  0  0  0  0  0  0  0  0
   23.4337  -19.1234  -12.3679 O   0  0  0  0  0  0  0  0  0  0  0  0
   22.2172  -21.0270  -12.6220 N   0  0  0  0  0  0  0  0  0  0  0  0
   21.2435  -20.4665  -13.5672 C   0  0  1  0  0  0  0  0  0  0  0  0
   21.2136  -21.2167  -14.8432 C   0  0  0  0  0  0  0  0  0  0  0  0
   20.1725  -20.7036  -15.7398 C   0  0  0  0  0  0  0  0  0  0  0  0
   19.7103  -19.5559  -15.5955 O   0  0  0  0  0  0  0  0  0  0  0  0
   19.9062  -20.5771  -12.9001 C   0  0  0  0  0  0  0  0  0  0  0  0
   18.8098  -19.8014  -13.1495 O   0  0  0  0  0  0  0  0  0  0  0  0
   19.6411  -21.4500  -16.7917 O   0  0  0  0  0  0  0  0  0  0  0  0
   19.7445  -21.4796  -12.0014 O   0  0  0  0  0  0  0  0  0  0  0  0
  2  1  1  0
  3  2  1  0
  4  3  1  0
  4  5  1  0
  5  6  1  6
  5  1  1  0
  6  7  2  0
  8 12  1  0
  8  6  1  0
  9 10  1  0
  9  8  1  0
 10 11  1  0
 11 12  1  0
 13 15  1  0
 12 13  1  1
 14 13  2  0
 16 15  1  0
 16 17  1  6
 17 18  1  0
 18 19  2  0
 18 22  1  0
 20 16  1  0
 21 20  1  0
 23 20  2  0
M  END
$$$$
