PPD.pdb
     RDKit          3D

 23 24  0  0  1  0  0  0  0  0999 V2000
   27.9955  -24.0541  -16.2934 N   0  0  0  0  0  0  0  0  0  0  0  0
   27.7509  -25.4450  -16.4964 C   0  0  0  0  0  0  0  0  0  0  0  0
   26.4192  -25.5732  -17.1712 C   0  0  0  0  0  0  0  0  0  0  0  0
   26.0396  -24.1965  -17.6104 C   0  0  0  0  0  0  0  0  0  0  0  0
   27.0736  -23.2719  -17.0422 C   0  0  1  0  0  0  0  0  0  0  0  0
   26.3950  -22.2071  -16.2566 C   0  0  0  0  0  0  0  0  0  0  0  0
   26.4300  -22.2001  -14.9905 O   0  0  0  0  0  0  0  0  0  0  0  0
   25.6684  -21.1385  -16.8905 N   0  0  0  0  0  0  0  0  0  0  0  0
   25.5367  -20.9929  -18.2988 C   0  0  0  0  0  0  0  0  0  0  0  0
   24.8441  -19.6698  -18.5134 C   0  0  0  0  0  0  0  0  0  0  0  0
   25.0515  -18.9276  -17.1768 C   0  0  0  0  0  0  0  0  0  0  0  0
   24.9701  -20.0740  -16.2322 C   0  0  1  0  0  0  0  0  0  0  0  0
   23.5904  -20.4430  -15.8387 C   0  0  0  0  0  0  0  0  0  0  0  0
   22.8945  -21.3084  -16.4552 O   0  0  0  0  0  0  0  0  0  0  0  0
   22.9896  -19.8254  -14.7347 N   0  0  0  0  0  0  0  0  0  0  0  0
   21.7780  -20.3308  -14.0773 C   0  0  1  0  0  0  0  0  0  0  0  0
   21.8614  -20.2246  -12.6030 C   0  0  0  0  0  0  0  0  0  0  0  0
   20.6580  -20.7630  -11.9602 C   0  0  0  0  0  0  0  0  0  0  0  0
   19.7841  -21.3510  -12.6251 O   0  0  0  0  0  0  0  0  0  0  0  0
   20.6508  -19.4746  -14.5691 C   0  0  0  0  0  0  0  0  0  0  0  0
   19.3439  -19.8508  -14.6976 O   0  0  0  0  0  0  0  0  0  0  0  0
   20.4161  -20.6550  -10.5905 O   0  0  0  0  0  0  0  0  0  0  0  0
   20.9075  -18.2640  -14.9114 O   0  0  0  0  0  0  0  0  0  0  0  0
  2  1  1  0
  3  2  1  0
  4  3  1  0
  4  5  1  0
  5  6  1  1
  5  1  1  0
  6  7  2  0
  8 12  1  0
  8  6  1  0
  9 10  1  0
  9  8  1  0
 10 11  1  0
 11 12  1  0
 13 15  1  0
 12 13  1  6
 14 13  2  0
 16 15  1  0
 16 17  1  1
 17 18  1  0
 18 19  2  0
 18 22  1  0
 20 16  1  0
 21 20  1  0
 23 20  2  0
M  END
$$$$
