PPD.pdb
     RDKit          3D

 23 24  0  0  1  0  0  0  0  0999 V2000
   19.2924  -13.7621  -16.7256 N   0  0  0  0  0  0  0  0  0  0  0  0
   17.8794  -13.9304  -16.8289 C   0  0  0  0  0  0  0  0  0  0  0  0
   17.3395  -12.7484  -17.5749 C   0  0  0  0  0  0  0  0  0  0  0  0
   18.5235  -12.0410  -18.1492 C   0  0  0  0  0  0  0  0  0  0  0  0
   19.7352  -12.7264  -17.5938 C   0  0  1  0  0  0  0  0  0  0  0  0
   20.6109  -11.7154  -16.9435 C   0  0  0  0  0  0  0  0  0  0  0  0
   20.6066  -11.5519  -15.6875 O   0  0  0  0  0  0  0  0  0  0  0  0
   21.5006  -10.8769  -17.7030 N   0  0  0  0  0  0  0  0  0  0  0  0
   21.5447  -10.8464  -19.1239 C   0  0  0  0  0  0  0  0  0  0  0  0
   22.7132   -9.9614  -19.4811 C   0  0  0  0  0  0  0  0  0  0  0  0
   23.5514   -9.9222  -18.1863 C   0  0  0  0  0  0  0  0  0  0  0  0
   22.4610   -9.9535  -17.1747 C   0  0  1  0  0  0  0  0  0  0  0  0
   21.8790   -8.6271  -16.8644 C   0  0  0  0  0  0  0  0  0  0  0  0
   20.8197   -8.1833  -17.4069 O   0  0  0  0  0  0  0  0  0  0  0  0
   22.5026   -7.7915  -15.9295 N   0  0  0  0  0  0  0  0  0  0  0  0
   21.9021   -6.5556  -15.4125 C   0  0  1  0  0  0  0  0  0  0  0  0
   22.5445   -6.1104  -14.1551 C   0  0  0  0  0  0  0  0  0  0  0  0
   21.9775   -4.8416  -13.6862 C   0  0  0  0  0  0  0  0  0  0  0  0
   22.6753   -3.8118  -13.6227 O   0  0  0  0  0  0  0  0  0  0  0  0
   22.1172   -5.5155  -16.4697 C   0  0  0  0  0  0  0  0  0  0  0  0
   21.3547   -4.4013  -16.6771 O   0  0  0  0  0  0  0  0  0  0  0  0
   20.6473   -4.7056  -13.2883 O   0  0  0  0  0  0  0  0  0  0  0  0
   23.1068   -5.6586  -17.2751 O   0  0  0  0  0  0  0  0  0  0  0  0
  2  1  1  0
  3  2  1  0
  4  3  1  0
  4  5  1  0
  5  6  1  1
  5  1  1  0
  6  7  2  0
  8 12  1  0
  8  6  1  0
  9 10  1  0
  9  8  1  0
 10 11  1  0
 11 12  1  0
 13 15  1  0
 12 13  1  6
 14 13  2  0
 16 15  1  0
 16 17  1  1
 17 18  1  0
 18 19  2  0
 18 22  1  0
 20 16  1  0
 21 20  1  0
 23 20  2  0
M  END
$$$$
