PPD.pdb
     RDKit          3D

 23 24  0  0  1  0  0  0  0  0999 V2000
   19.4240  -13.0898  -17.3636 N   0  0  0  0  0  0  0  0  0  0  0  0
   18.7412  -13.0771  -18.6163 C   0  0  0  0  0  0  0  0  0  0  0  0
   19.3595  -11.9995  -19.4539 C   0  0  0  0  0  0  0  0  0  0  0  0
   20.6109  -11.5887  -18.7485 C   0  0  0  0  0  0  0  0  0  0  0  0
   20.6140  -12.3146  -17.4371 C   0  0  1  0  0  0  0  0  0  0  0  0
   20.7707  -11.3281  -16.3354 C   0  0  0  0  0  0  0  0  0  0  0  0
   19.7745  -10.9304  -15.6618 O   0  0  0  0  0  0  0  0  0  0  0  0
   22.0530  -10.7784  -15.9817 N   0  0  0  0  0  0  0  0  0  0  0  0
   23.2686  -11.1084  -16.6415 C   0  0  0  0  0  0  0  0  0  0  0  0
   24.3628  -10.4348  -15.8507 C   0  0  0  0  0  0  0  0  0  0  0  0
   23.7003  -10.1377  -14.4894 C   0  0  0  0  0  0  0  0  0  0  0  0
   22.3164   -9.8297  -14.9401 C   0  0  1  0  0  0  0  0  0  0  0  0
   22.1133   -8.4268  -15.3701 C   0  0  0  0  0  0  0  0  0  0  0  0
   22.2138   -8.0430  -16.5767 O   0  0  0  0  0  0  0  0  0  0  0  0
   21.7932   -7.4451  -14.4240 N   0  0  0  0  0  0  0  0  0  0  0  0
   21.3645   -6.0851  -14.7735 C   0  0  1  0  0  0  0  0  0  0  0  0
   19.8904   -5.9481  -14.7630 C   0  0  0  0  0  0  0  0  0  0  0  0
   19.4800   -4.5736  -15.0689 C   0  0  0  0  0  0  0  0  0  0  0  0
   19.9470   -3.9686  -16.0525 O   0  0  0  0  0  0  0  0  0  0  0  0
   21.9497   -5.1840  -13.7289 C   0  0  0  0  0  0  0  0  0  0  0  0
   22.5106   -5.5726  -12.5456 O   0  0  0  0  0  0  0  0  0  0  0  0
   18.5589   -3.8665  -14.2957 O   0  0  0  0  0  0  0  0  0  0  0  0
   21.9365   -3.9172  -13.9378 O   0  0  0  0  0  0  0  0  0  0  0  0
  2  1  1  0
  3  2  1  0
  4  3  1  0
  4  5  1  0
  5  6  1  1
  5  1  1  0
  6  7  2  0
  8 12  1  0
  8  6  1  0
  9 10  1  0
  9  8  1  0
 10 11  1  0
 11 12  1  0
 13 15  1  0
 12 13  1  6
 14 13  2  0
 16 15  1  0
 16 17  1  1
 17 18  1  0
 18 19  2  0
 18 22  1  0
 20 16  1  0
 21 20  1  0
 23 20  2  0
M  END
$$$$
