PPD.pdb
     RDKit          3D

 23 24  0  0  1  0  0  0  0  0999 V2000
   19.0110  -12.7221  -17.2835 N   0  0  0  0  0  0  0  0  0  0  0  0
   18.5638  -12.7615  -18.6378 C   0  0  0  0  0  0  0  0  0  0  0  0
   19.5439  -11.9786  -19.4574 C   0  0  0  0  0  0  0  0  0  0  0  0
   20.7241  -11.7331  -18.5746 C   0  0  0  0  0  0  0  0  0  0  0  0
   20.3442  -12.2322  -17.2133 C   0  0  1  0  0  0  0  0  0  0  0  0
   20.5440  -11.1417  -16.2221 C   0  0  0  0  0  0  0  0  0  0  0  0
   19.5617  -10.5095  -15.7326 O   0  0  0  0  0  0  0  0  0  0  0  0
   21.8545  -10.7514  -15.7726 N   0  0  0  0  0  0  0  0  0  0  0  0
   23.0615  -11.3510  -16.2259 C   0  0  0  0  0  0  0  0  0  0  0  0
   24.1610  -10.7506  -15.3851 C   0  0  0  0  0  0  0  0  0  0  0  0
   23.4140  -10.1716  -14.1657 C   0  0  0  0  0  0  0  0  0  0  0  0
   22.1591   -9.7203  -14.8249 C   0  0  1  0  0  0  0  0  0  0  0  0
   22.2432   -8.3753  -15.4399 C   0  0  0  0  0  0  0  0  0  0  0  0
   22.3039   -8.1815  -16.6938 O   0  0  0  0  0  0  0  0  0  0  0  0
   22.2596   -7.2349  -14.6273 N   0  0  0  0  0  0  0  0  0  0  0  0
   21.9246   -5.8879  -15.1059 C   0  0  1  0  0  0  0  0  0  0  0  0
   20.4818   -5.7492  -15.4075 C   0  0  0  0  0  0  0  0  0  0  0  0
   20.1581   -4.3900  -15.8537 C   0  0  0  0  0  0  0  0  0  0  0  0
   19.4726   -3.6286  -15.1452 O   0  0  0  0  0  0  0  0  0  0  0  0
   22.2871   -4.9503  -13.9946 C   0  0  0  0  0  0  0  0  0  0  0  0
   22.4784   -5.2831  -12.6837 O   0  0  0  0  0  0  0  0  0  0  0  0
   20.5866   -3.8697  -17.0751 O   0  0  0  0  0  0  0  0  0  0  0  0
   22.4392   -3.7056  -14.2706 O   0  0  0  0  0  0  0  0  0  0  0  0
  2  1  1  0
  3  2  1  0
  4  3  1  0
  4  5  1  0
  5  6  1  1
  5  1  1  0
  6  7  2  0
  8 12  1  0
  8  6  1  0
  9 10  1  0
  9  8  1  0
 10 11  1  0
 11 12  1  0
 13 15  1  0
 12 13  1  6
 14 13  2  0
 16 15  1  0
 16 17  1  1
 17 18  1  0
 18 19  2  0
 18 22  1  0
 20 16  1  0
 21 20  1  0
 23 20  2  0
M  END
$$$$
