PPD.pdb
     RDKit          3D

 23 24  0  0  1  0  0  0  0  0999 V2000
   29.1302  -21.3806  -13.7953 N   0  0  0  0  0  0  0  0  0  0  0  0
   29.5951  -20.5434  -14.8530 C   0  0  0  0  0  0  0  0  0  0  0  0
   28.8324  -19.2560  -14.7751 C   0  0  0  0  0  0  0  0  0  0  0  0
   28.1210  -19.2711  -13.4613 C   0  0  0  0  0  0  0  0  0  0  0  0
   28.3495  -20.6307  -12.8731 C   0  0  1  0  0  0  0  0  0  0  0  0
   27.0360  -21.2446  -12.5422 C   0  0  0  0  0  0  0  0  0  0  0  0
   26.5850  -22.2282  -13.2005 O   0  0  0  0  0  0  0  0  0  0  0  0
   26.2160  -20.7550  -11.4653 N   0  0  0  0  0  0  0  0  0  0  0  0
   26.6046  -19.7112  -10.5815 C   0  0  0  0  0  0  0  0  0  0  0  0
   25.5258  -19.6391   -9.5292 C   0  0  0  0  0  0  0  0  0  0  0  0
   24.8113  -21.0017   -9.6441 C   0  0  0  0  0  0  0  0  0  0  0  0
   24.9058  -21.2171  -11.1130 C   0  0  1  0  0  0  0  0  0  0  0  0
   23.8314  -20.5629  -11.8954 C   0  0  0  0  0  0  0  0  0  0  0  0
   23.7687  -19.3086  -12.0857 O   0  0  0  0  0  0  0  0  0  0  0  0
   22.8148  -21.3361  -12.4695 N   0  0  0  0  0  0  0  0  0  0  0  0
   21.9035  -20.8424  -13.5094 C   0  0  1  0  0  0  0  0  0  0  0  0
   21.6688  -21.8522  -14.5664 C   0  0  0  0  0  0  0  0  0  0  0  0
   22.8869  -22.1049  -15.3432 C   0  0  0  0  0  0  0  0  0  0  0  0
   23.6258  -21.1678  -15.7003 O   0  0  0  0  0  0  0  0  0  0  0  0
   20.6078  -20.5435  -12.8183 C   0  0  0  0  0  0  0  0  0  0  0  0
   19.5205  -19.9253  -13.3674 O   0  0  0  0  0  0  0  0  0  0  0  0
   23.2913  -23.3839  -15.7262 O   0  0  0  0  0  0  0  0  0  0  0  0
   20.4770  -20.8899  -11.5889 O   0  0  0  0  0  0  0  0  0  0  0  0
  2  1  1  0
  3  2  1  0
  4  3  1  0
  4  5  1  0
  5  6  1  6
  5  1  1  0
  6  7  2  0
  8 12  1  0
  8  6  1  0
  9 10  1  0
  9  8  1  0
 10 11  1  0
 11 12  1  0
 13 15  1  0
 12 13  1  6
 14 13  2  0
 16 15  1  0
 16 17  1  6
 17 18  1  0
 18 19  2  0
 18 22  1  0
 20 16  1  0
 21 20  1  0
 23 20  2  0
M  END
$$$$
