NKE.pdb
     RDKit          3D

 27 26  0  0  1  0  0  0  0  0999 V2000
   26.3345  -14.2806  -16.1196 N   0  0  0  0  0  0  0  0  0  0  0  0
   26.7848  -12.9432  -15.9780 C   0  0  0  0  0  0  0  0  0  0  0  0
   27.9470  -12.7271  -15.5299 O   0  0  0  0  0  0  0  0  0  0  0  0
   25.9837  -11.7491  -16.3212 C   0  0  0  0  0  0  0  0  0  0  0  0
   24.6534  -12.0990  -16.9480 C   0  0  2  0  0  0  0  0  0  0  0  0
   24.9346  -12.7071  -18.2341 N   0  0  0  0  0  0  0  0  0  0  0  0
   23.8889  -10.8564  -17.1603 C   0  0  0  0  0  0  0  0  0  0  0  0
   24.3663   -9.9381  -17.9111 O   0  0  0  0  0  0  0  0  0  0  0  0
   22.6313  -10.6198  -16.5670 N   0  0  0  0  0  0  0  0  0  0  0  0
   21.8677   -9.4394  -16.8755 C   0  0  1  0  0  0  0  0  0  0  0  0
   20.4159   -9.8268  -16.9354 C   0  0  0  0  0  0  0  0  0  0  0  0
   19.9267  -10.0358  -18.3372 C   0  0  0  0  0  0  0  0  0  0  0  0
   19.5847  -11.4671  -18.5838 C   0  0  0  0  0  0  0  0  0  0  0  0
   19.0774  -11.7237  -19.9761 C   0  0  0  0  0  0  0  0  0  0  0  0
   18.8694  -13.1178  -20.2502 N   0  0  0  0  0  0  0  0  0  0  0  0
   22.0433   -8.4244  -15.7995 C   0  0  0  0  0  0  0  0  0  0  0  0
   22.2458   -8.7336  -14.6058 O   0  0  0  0  0  0  0  0  0  0  0  0
   21.9844   -7.0418  -16.1068 N   0  0  0  0  0  0  0  0  0  0  0  0
   22.1990   -5.9444  -15.2425 C   0  0  1  0  0  0  0  0  0  0  0  0
   22.2584   -4.5759  -15.8441 C   0  0  0  0  0  0  0  0  0  0  0  0
   22.5087   -3.5173  -14.8086 C   0  0  0  0  0  0  0  0  0  0  0  0
   22.5174   -2.1902  -15.5291 C   0  0  0  0  0  0  0  0  0  0  0  0
   22.5319   -2.0936  -16.7751 O   0  0  0  0  0  0  0  0  0  0  0  0
   21.2527   -5.9897  -14.1309 C   0  0  0  0  0  0  0  0  0  0  0  0
   20.0401   -6.2079  -14.3663 O   0  0  0  0  0  0  0  0  0  0  0  0
   22.5089   -1.0187  -14.7940 O   0  0  0  0  0  0  0  0  0  0  0  0
   21.6259   -5.8019  -12.8085 O   0  0  0  0  0  0  0  0  0  0  0  0
  2  1  1  0
  3  2  2  0
  4  2  1  0
  5  4  1  0
  5  6  1  6
  7  8  2  0
  7  5  1  0
  9  7  1  0
 10  9  1  0
 10 11  1  1
 12 11  1  0
 13 12  1  0
 13 14  1  0
 14 15  1  0
 16 10  1  0
 17 16  2  0
 18 16  1  0
 19 18  1  0
 19 20  1  6
 20 21  1  0
 21 22  1  0
 22 26  1  0
 23 22  2  0
 24 19  1  0
 25 24  2  0
 27 24  1  0
M  END
$$$$
