NKE.pdb
     RDKit          3D

 27 26  0  0  1  0  0  0  0  0999 V2000
   17.2652  -16.2624  -14.8382 N   0  0  0  0  0  0  0  0  0  0  0  0
   16.8085  -15.6396  -16.0278 C   0  0  0  0  0  0  0  0  0  0  0  0
   16.5504  -16.3534  -17.0387 O   0  0  0  0  0  0  0  0  0  0  0  0
   16.6045  -14.1840  -16.1857 C   0  0  0  0  0  0  0  0  0  0  0  0
   16.9121  -13.4111  -14.9235 C   0  0  2  0  0  0  0  0  0  0  0  0
   15.9193  -13.7918  -13.9375 N   0  0  0  0  0  0  0  0  0  0  0  0
   16.7806  -11.9702  -15.2070 C   0  0  0  0  0  0  0  0  0  0  0  0
   17.5367  -11.4240  -16.0815 O   0  0  0  0  0  0  0  0  0  0  0  0
   15.8452  -11.1427  -14.5514 N   0  0  0  0  0  0  0  0  0  0  0  0
   15.7782   -9.7299  -14.8186 C   0  0  1  0  0  0  0  0  0  0  0  0
   14.5315   -9.1927  -14.1719 C   0  0  0  0  0  0  0  0  0  0  0  0
   13.2865   -9.5354  -14.9338 C   0  0  0  0  0  0  0  0  0  0  0  0
   12.0714   -8.9944  -14.2573 C   0  0  0  0  0  0  0  0  0  0  0  0
   10.7989   -9.2843  -15.0044 C   0  0  0  0  0  0  0  0  0  0  0  0
    9.6218   -8.8860  -14.2848 N   0  0  0  0  0  0  0  0  0  0  0  0
   16.9565   -9.0427  -14.2203 C   0  0  0  0  0  0  0  0  0  0  0  0
   17.3711   -9.2925  -13.0683 O   0  0  0  0  0  0  0  0  0  0  0  0
   17.6603   -8.0595  -14.9601 N   0  0  0  0  0  0  0  0  0  0  0  0
   18.8419   -7.3732  -14.5991 C   0  0  1  0  0  0  0  0  0  0  0  0
   20.1498   -7.9306  -15.0649 C   0  0  0  0  0  0  0  0  0  0  0  0
   21.3169   -7.1760  -14.4957 C   0  0  0  0  0  0  0  0  0  0  0  0
   22.5673   -7.8151  -15.0510 C   0  0  0  0  0  0  0  0  0  0  0  0
   22.9284   -8.9737  -14.7521 O   0  0  0  0  0  0  0  0  0  0  0  0
   18.7226   -5.9576  -14.9384 C   0  0  0  0  0  0  0  0  0  0  0  0
   17.8882   -5.6031  -15.8054 O   0  0  0  0  0  0  0  0  0  0  0  0
   23.3608   -7.1018  -15.9310 O   0  0  0  0  0  0  0  0  0  0  0  0
   19.4925   -4.9679  -14.3461 O   0  0  0  0  0  0  0  0  0  0  0  0
  2  1  1  0
  3  2  2  0
  4  2  1  0
  5  4  1  0
  5  6  1  1
  7  8  2  0
  7  5  1  0
  9  7  1  0
 10  9  1  0
 10 11  1  1
 12 11  1  0
 13 12  1  0
 13 14  1  0
 14 15  1  0
 16 10  1  0
 17 16  2  0
 18 16  1  0
 19 18  1  0
 19 20  1  6
 20 21  1  0
 21 22  1  0
 22 26  1  0
 23 22  2  0
 24 19  1  0
 25 24  2  0
 27 24  1  0
M  END
$$$$
