NKE.pdb
     RDKit          3D

 27 26  0  0  1  0  0  0  0  0999 V2000
   27.5333  -17.3136  -21.3779 N   0  0  0  0  0  0  0  0  0  0  0  0
   27.3981  -17.5723  -19.9899 C   0  0  0  0  0  0  0  0  0  0  0  0
   27.7521  -18.6970  -19.5340 O   0  0  0  0  0  0  0  0  0  0  0  0
   26.8622  -16.6072  -19.0066 C   0  0  0  0  0  0  0  0  0  0  0  0
   26.5566  -15.2592  -19.6186 C   0  0  2  0  0  0  0  0  0  0  0  0
   27.6436  -14.3701  -19.2568 N   0  0  0  0  0  0  0  0  0  0  0  0
   25.3027  -14.7480  -19.0353 C   0  0  0  0  0  0  0  0  0  0  0  0
   25.2803  -14.3645  -17.8158 O   0  0  0  0  0  0  0  0  0  0  0  0
   24.0993  -14.6571  -19.7654 N   0  0  0  0  0  0  0  0  0  0  0  0
   22.8835  -14.1924  -19.1509 C   0  0  1  0  0  0  0  0  0  0  0  0
   22.3449  -13.0610  -19.9823 C   0  0  0  0  0  0  0  0  0  0  0  0
   21.0947  -12.4625  -19.4105 C   0  0  0  0  0  0  0  0  0  0  0  0
   20.6256  -11.3053  -20.2275 C   0  0  0  0  0  0  0  0  0  0  0  0
   19.3959  -10.6449  -19.6680 C   0  0  0  0  0  0  0  0  0  0  0  0
   19.0733   -9.4095  -20.3251 N   0  0  0  0  0  0  0  0  0  0  0  0
   21.8739  -15.2873  -19.1292 C   0  0  0  0  0  0  0  0  0  0  0  0
   21.6369  -16.0074  -20.1226 O   0  0  0  0  0  0  0  0  0  0  0  0
   21.1330  -15.5510  -17.9498 N   0  0  0  0  0  0  0  0  0  0  0  0
   20.1135  -16.5100  -17.7540 C   0  0  1  0  0  0  0  0  0  0  0  0
   19.6637  -16.7832  -16.3536 C   0  0  0  0  0  0  0  0  0  0  0  0
   18.6277  -17.8691  -16.2978 C   0  0  0  0  0  0  0  0  0  0  0  0
   18.1338  -17.9334  -14.8723 C   0  0  0  0  0  0  0  0  0  0  0  0
   18.4420  -17.0854  -14.0075 O   0  0  0  0  0  0  0  0  0  0  0  0
   18.9771  -16.2177  -18.6239 C   0  0  0  0  0  0  0  0  0  0  0  0
   18.5418  -15.0431  -18.6902 O   0  0  0  0  0  0  0  0  0  0  0  0
   17.3023  -18.9697  -14.4881 O   0  0  0  0  0  0  0  0  0  0  0  0
   18.3425  -17.1816  -19.3928 O   0  0  0  0  0  0  0  0  0  0  0  0
  2  1  1  0
  3  2  2  0
  4  2  1  0
  5  4  1  0
  5  6  1  1
  7  8  2  0
  7  5  1  0
  9  7  1  0
 10  9  1  0
 10 11  1  6
 12 11  1  0
 13 12  1  0
 13 14  1  0
 14 15  1  0
 16 10  1  0
 17 16  2  0
 18 16  1  0
 19 18  1  0
 19 20  1  1
 20 21  1  0
 21 22  1  0
 22 26  1  0
 23 22  2  0
 24 19  1  0
 25 24  2  0
 27 24  1  0
M  END
$$$$
