NKE.pdb
     RDKit          3D

 27 26  0  0  1  0  0  0  0  0999 V2000
   14.7004  -11.9997  -18.1116 N   0  0  0  0  0  0  0  0  0  0  0  0
   14.7442  -11.2446  -16.9118 C   0  0  0  0  0  0  0  0  0  0  0  0
   13.6948  -10.6679  -16.5065 O   0  0  0  0  0  0  0  0  0  0  0  0
   15.9501  -11.0725  -16.0742 C   0  0  0  0  0  0  0  0  0  0  0  0
   17.1692  -11.7469  -16.6606 C   0  0  2  0  0  0  0  0  0  0  0  0
   17.1059  -13.1457  -16.2834 N   0  0  0  0  0  0  0  0  0  0  0  0
   18.3759  -11.1428  -16.0667 C   0  0  0  0  0  0  0  0  0  0  0  0
   18.3735  -10.8008  -14.8347 O   0  0  0  0  0  0  0  0  0  0  0  0
   19.5594  -10.9161  -16.7998 N   0  0  0  0  0  0  0  0  0  0  0  0
   20.7094  -10.2984  -16.1936 C   0  0  1  0  0  0  0  0  0  0  0  0
   21.9349  -10.7886  -16.9141 C   0  0  0  0  0  0  0  0  0  0  0  0
   22.2180  -12.2390  -16.6606 C   0  0  0  0  0  0  0  0  0  0  0  0
   23.3057  -12.7420  -17.5496 C   0  0  0  0  0  0  0  0  0  0  0  0
   23.6022  -14.2032  -17.3545 C   0  0  0  0  0  0  0  0  0  0  0  0
   24.6169  -14.6943  -18.2442 N   0  0  0  0  0  0  0  0  0  0  0  0
   20.6308   -8.8187  -16.3448 C   0  0  0  0  0  0  0  0  0  0  0  0
   20.3560   -8.2643  -17.4305 O   0  0  0  0  0  0  0  0  0  0  0  0
   20.8717   -7.9742  -15.2320 N   0  0  0  0  0  0  0  0  0  0  0  0
   20.8333   -6.5623  -15.1815 C   0  0  1  0  0  0  0  0  0  0  0  0
   19.5055   -5.8887  -15.3269 C   0  0  0  0  0  0  0  0  0  0  0  0
   19.6176   -4.3953  -15.2138 C   0  0  0  0  0  0  0  0  0  0  0  0
   18.2234   -3.8363  -15.3688 C   0  0  0  0  0  0  0  0  0  0  0  0
   17.6628   -3.1539  -14.4846 O   0  0  0  0  0  0  0  0  0  0  0  0
   21.5388   -6.0842  -13.9954 C   0  0  0  0  0  0  0  0  0  0  0  0
   21.7659   -6.8815  -13.0539 O   0  0  0  0  0  0  0  0  0  0  0  0
   17.5202   -4.0800  -16.5346 O   0  0  0  0  0  0  0  0  0  0  0  0
   21.9786   -4.7771  -13.8495 O   0  0  0  0  0  0  0  0  0  0  0  0
  2  1  1  0
  3  2  2  0
  4  2  1  0
  5  4  1  0
  5  6  1  1
  7  8  2  0
  7  5  1  0
  9  7  1  0
 10  9  1  0
 10 11  1  6
 12 11  1  0
 13 12  1  0
 13 14  1  0
 14 15  1  0
 16 10  1  0
 17 16  2  0
 18 16  1  0
 19 18  1  0
 19 20  1  1
 20 21  1  0
 21 22  1  0
 22 26  1  0
 23 22  2  0
 24 19  1  0
 25 24  2  0
 27 24  1  0
M  END
$$$$
