NKE.pdb
     RDKit          3D

 27 26  0  0  1  0  0  0  0  0999 V2000
   12.3366  -10.0090  -16.5293 N   0  0  0  0  0  0  0  0  0  0  0  0
   13.5146  -10.5750  -17.0804 C   0  0  0  0  0  0  0  0  0  0  0  0
   13.4452  -11.1982  -18.1781 O   0  0  0  0  0  0  0  0  0  0  0  0
   14.8532  -10.4931  -16.4583 C   0  0  0  0  0  0  0  0  0  0  0  0
   15.6552  -11.7629  -16.6297 C   0  0  2  0  0  0  0  0  0  0  0  0
   15.1370  -12.7265  -15.6779 N   0  0  0  0  0  0  0  0  0  0  0  0
   17.0656  -11.4789  -16.3072 C   0  0  0  0  0  0  0  0  0  0  0  0
   17.3923  -11.1652  -15.1116 O   0  0  0  0  0  0  0  0  0  0  0  0
   18.0973  -11.5356  -17.2673 N   0  0  0  0  0  0  0  0  0  0  0  0
   19.4754  -11.3445  -16.8981 C   0  0  1  0  0  0  0  0  0  0  0  0
   20.3254  -12.1551  -17.8371 C   0  0  0  0  0  0  0  0  0  0  0  0
   21.7841  -12.1024  -17.4943 C   0  0  0  0  0  0  0  0  0  0  0  0
   22.6084  -12.7965  -18.5265 C   0  0  0  0  0  0  0  0  0  0  0  0
   24.0774  -12.8032  -18.2052 C   0  0  0  0  0  0  0  0  0  0  0  0
   24.8412  -13.6421  -19.0855 N   0  0  0  0  0  0  0  0  0  0  0  0
   19.8462   -9.9091  -17.0425 C   0  0  0  0  0  0  0  0  0  0  0  0
   19.5488   -9.2327  -18.0502 O   0  0  0  0  0  0  0  0  0  0  0  0
   20.5662   -9.2515  -16.0136 N   0  0  0  0  0  0  0  0  0  0  0  0
   20.9848   -7.9025  -15.9643 C   0  0  1  0  0  0  0  0  0  0  0  0
   21.4492   -7.3572  -14.6509 C   0  0  0  0  0  0  0  0  0  0  0  0
   21.8985   -5.9285  -14.7629 C   0  0  0  0  0  0  0  0  0  0  0  0
   22.2350   -5.4622  -13.3666 C   0  0  0  0  0  0  0  0  0  0  0  0
   22.1442   -6.2015  -12.3630 O   0  0  0  0  0  0  0  0  0  0  0  0
   21.9633   -7.6429  -17.0172 C   0  0  0  0  0  0  0  0  0  0  0  0
   21.8104   -6.6469  -17.7643 O   0  0  0  0  0  0  0  0  0  0  0  0
   22.6646   -4.1623  -13.1701 O   0  0  0  0  0  0  0  0  0  0  0  0
   23.0694   -8.4489  -17.2407 O   0  0  0  0  0  0  0  0  0  0  0  0
  2  1  1  0
  3  2  2  0
  4  2  1  0
  5  4  1  0
  5  6  1  1
  7  8  2  0
  7  5  1  0
  9  7  1  0
 10  9  1  0
 10 11  1  6
 12 11  1  0
 13 12  1  0
 13 14  1  0
 14 15  1  0
 16 10  1  0
 17 16  2  0
 18 16  1  0
 19 18  1  0
 19 20  1  1
 20 21  1  0
 21 22  1  0
 22 26  1  0
 23 22  2  0
 24 19  1  0
 25 24  2  0
 27 24  1  0
M  END
$$$$
