NKE.pdb
     RDKit          3D

 27 26  0  0  1  0  0  0  0  0999 V2000
   16.0147  -13.1479  -12.5905 N   0  0  0  0  0  0  0  0  0  0  0  0
   16.0752  -12.3364  -11.4288 C   0  0  0  0  0  0  0  0  0  0  0  0
   16.0981  -12.8875  -10.2912 O   0  0  0  0  0  0  0  0  0  0  0  0
   16.1147  -10.8587  -11.4406 C   0  0  0  0  0  0  0  0  0  0  0  0
   15.1027  -10.2401  -10.5035 C   0  0  2  0  0  0  0  0  0  0  0  0
   13.7876  -10.5883  -11.0058 N   0  0  0  0  0  0  0  0  0  0  0  0
   15.2587   -8.7745  -10.5392 C   0  0  0  0  0  0  0  0  0  0  0  0
   14.9473   -8.1288  -11.5980 O   0  0  0  0  0  0  0  0  0  0  0  0
   15.7437   -8.0288   -9.4445 N   0  0  0  0  0  0  0  0  0  0  0  0
   15.8449   -6.5941   -9.5015 C   0  0  1  0  0  0  0  0  0  0  0  0
   15.3302   -6.0395   -8.2020 C   0  0  0  0  0  0  0  0  0  0  0  0
   13.8339   -5.9543   -8.1574 C   0  0  0  0  0  0  0  0  0  0  0  0
   13.3671   -5.2700   -6.9163 C   0  0  0  0  0  0  0  0  0  0  0  0
   11.8826   -5.0306   -6.8944 C   0  0  0  0  0  0  0  0  0  0  0  0
   11.4208   -4.4791   -5.6515 N   0  0  0  0  0  0  0  0  0  0  0  0
   17.2702   -6.1907   -9.6576 C   0  0  0  0  0  0  0  0  0  0  0  0
   18.1907   -6.6830   -8.9708 O   0  0  0  0  0  0  0  0  0  0  0  0
   17.6332   -5.2107  -10.6154 N   0  0  0  0  0  0  0  0  0  0  0  0
   18.8274   -5.1221  -11.3660 C   0  0  1  0  0  0  0  0  0  0  0  0
   19.3938   -6.3828  -11.9388 C   0  0  0  0  0  0  0  0  0  0  0  0
   20.6407   -6.1272  -12.7360 C   0  0  0  0  0  0  0  0  0  0  0  0
   21.1815   -7.4746  -13.1511 C   0  0  0  0  0  0  0  0  0  0  0  0
   21.4347   -7.7685  -14.3392 O   0  0  0  0  0  0  0  0  0  0  0  0
   18.6992   -4.0897  -12.3912 C   0  0  0  0  0  0  0  0  0  0  0  0
   17.5630   -3.8154  -12.8466 O   0  0  0  0  0  0  0  0  0  0  0  0
   21.4134   -8.4392  -12.1874 O   0  0  0  0  0  0  0  0  0  0  0  0
   19.7807   -3.3845  -12.8973 O   0  0  0  0  0  0  0  0  0  0  0  0
  2  1  1  0
  3  2  2  0
  4  2  1  0
  5  4  1  0
  5  6  1  6
  7  8  2  0
  7  5  1  0
  9  7  1  0
 10  9  1  0
 10 11  1  1
 12 11  1  0
 13 12  1  0
 13 14  1  0
 14 15  1  0
 16 10  1  0
 17 16  2  0
 18 16  1  0
 19 18  1  0
 19 20  1  6
 20 21  1  0
 21 22  1  0
 22 26  1  0
 23 22  2  0
 24 19  1  0
 25 24  2  0
 27 24  1  0
M  END
$$$$
