NKE.pdb
     RDKit          3D

 27 26  0  0  1  0  0  0  0  0999 V2000
   15.8482  -14.2210  -15.1483 N   0  0  0  0  0  0  0  0  0  0  0  0
   17.2042  -14.5057  -14.8453 C   0  0  0  0  0  0  0  0  0  0  0  0
   17.4802  -15.5203  -14.1434 O   0  0  0  0  0  0  0  0  0  0  0  0
   18.3519  -13.6901  -15.2957 C   0  0  0  0  0  0  0  0  0  0  0  0
   17.9265  -12.4310  -16.0159 C   0  0  2  0  0  0  0  0  0  0  0  0
   17.3213  -12.8399  -17.2687 N   0  0  0  0  0  0  0  0  0  0  0  0
   19.1251  -11.6216  -16.3023 C   0  0  0  0  0  0  0  0  0  0  0  0
   19.9283  -11.3198  -15.3543 O   0  0  0  0  0  0  0  0  0  0  0  0
   19.4412  -11.1513  -17.5939 N   0  0  0  0  0  0  0  0  0  0  0  0
   20.6102  -10.3462  -17.8326 C   0  0  1  0  0  0  0  0  0  0  0  0
   20.9238  -10.4052  -19.3021 C   0  0  0  0  0  0  0  0  0  0  0  0
   21.5181  -11.7174  -19.7182 C   0  0  0  0  0  0  0  0  0  0  0  0
   21.8573  -11.7218  -21.1713 C   0  0  0  0  0  0  0  0  0  0  0  0
   22.4037  -13.0392  -21.6481 C   0  0  0  0  0  0  0  0  0  0  0  0
   22.6296  -13.0737  -23.0658 N   0  0  0  0  0  0  0  0  0  0  0  0
   20.3361   -8.9295  -17.4630 C   0  0  0  0  0  0  0  0  0  0  0  0
   19.2621   -8.3545  -17.7409 O   0  0  0  0  0  0  0  0  0  0  0  0
   21.3117   -8.1726  -16.7667 N   0  0  0  0  0  0  0  0  0  0  0  0
   21.2183   -6.8403  -16.3044 C   0  0  1  0  0  0  0  0  0  0  0  0
   21.8054   -6.5165  -14.9670 C   0  0  0  0  0  0  0  0  0  0  0  0
   21.5275   -5.0979  -14.5599 C   0  0  0  0  0  0  0  0  0  0  0  0
   22.0762   -4.9252  -13.1636 C   0  0  0  0  0  0  0  0  0  0  0  0
   21.5130   -5.3910  -12.1498 O   0  0  0  0  0  0  0  0  0  0  0  0
   21.7037   -5.9194  -17.3289 C   0  0  0  0  0  0  0  0  0  0  0  0
   22.5819   -6.3078  -18.1361 O   0  0  0  0  0  0  0  0  0  0  0  0
   23.2536   -4.2232  -12.9790 O   0  0  0  0  0  0  0  0  0  0  0  0
   21.2406   -4.6190  -17.4612 O   0  0  0  0  0  0  0  0  0  0  0  0
  2  1  1  0
  3  2  2  0
  4  2  1  0
  5  4  1  0
  5  6  1  6
  7  8  2  0
  7  5  1  0
  9  7  1  0
 10  9  1  0
 10 11  1  6
 12 11  1  0
 13 12  1  0
 13 14  1  0
 14 15  1  0
 16 10  1  0
 17 16  2  0
 18 16  1  0
 19 18  1  0
 19 20  1  1
 20 21  1  0
 21 22  1  0
 22 26  1  0
 23 22  2  0
 24 19  1  0
 25 24  2  0
 27 24  1  0
M  END
$$$$
