NKE.pdb
     RDKit          3D

 27 26  0  0  1  0  0  0  0  0999 V2000
   29.0298  -19.3716  -18.5352 N   0  0  0  0  0  0  0  0  0  0  0  0
   28.9216  -20.7459  -18.2015 C   0  0  0  0  0  0  0  0  0  0  0  0
   29.6167  -21.5915  -18.8340 O   0  0  0  0  0  0  0  0  0  0  0  0
   28.0381  -21.2841  -17.1456 C   0  0  0  0  0  0  0  0  0  0  0  0
   27.2088  -20.2123  -16.4758 C   0  0  2  0  0  0  0  0  0  0  0  0
   28.1333  -19.2807  -15.8590 N   0  0  0  0  0  0  0  0  0  0  0  0
   26.3848  -20.8385  -15.4258 C   0  0  0  0  0  0  0  0  0  0  0  0
   25.5150  -21.7202  -15.7434 O   0  0  0  0  0  0  0  0  0  0  0  0
   26.5061  -20.5106  -14.0593 N   0  0  0  0  0  0  0  0  0  0  0  0
   25.5358  -20.9548  -13.0934 C   0  0  1  0  0  0  0  0  0  0  0  0
   26.0475  -20.6026  -11.7240 C   0  0  0  0  0  0  0  0  0  0  0  0
   25.1358  -21.0620  -10.6259 C   0  0  0  0  0  0  0  0  0  0  0  0
   25.6659  -20.6771   -9.2853 C   0  0  0  0  0  0  0  0  0  0  0  0
   24.7772  -21.1074   -8.1510 C   0  0  0  0  0  0  0  0  0  0  0  0
   25.2344  -20.6425   -6.8716 N   0  0  0  0  0  0  0  0  0  0  0  0
   24.2417  -20.2502  -13.3116 C   0  0  0  0  0  0  0  0  0  0  0  0
   24.1516  -19.0051  -13.3678 O   0  0  0  0  0  0  0  0  0  0  0  0
   23.0433  -20.9913  -13.4659 N   0  0  0  0  0  0  0  0  0  0  0  0
   21.7431  -20.5055  -13.7323 C   0  0  1  0  0  0  0  0  0  0  0  0
   21.2938  -20.4420  -15.1578 C   0  0  0  0  0  0  0  0  0  0  0  0
   19.9293  -19.8286  -15.2902 C   0  0  0  0  0  0  0  0  0  0  0  0
   19.5758  -19.8543  -16.7581 C   0  0  0  0  0  0  0  0  0  0  0  0
   19.8353  -20.8240  -17.5026 O   0  0  0  0  0  0  0  0  0  0  0  0
   20.7665  -21.2075  -12.9036 C   0  0  0  0  0  0  0  0  0  0  0  0
   19.8240  -20.5613  -12.3861 O   0  0  0  0  0  0  0  0  0  0  0  0
   18.9358  -18.7651  -17.3213 O   0  0  0  0  0  0  0  0  0  0  0  0
   20.8238  -22.5702  -12.6530 O   0  0  0  0  0  0  0  0  0  0  0  0
  2  1  1  0
  3  2  2  0
  4  2  1  0
  5  4  1  0
  5  6  1  1
  7  8  2  0
  7  5  1  0
  9  7  1  0
 10  9  1  0
 10 11  1  1
 12 11  1  0
 13 12  1  0
 13 14  1  0
 14 15  1  0
 16 10  1  0
 17 16  2  0
 18 16  1  0
 19 18  1  0
 19 20  1  6
 20 21  1  0
 21 22  1  0
 22 26  1  0
 23 22  2  0
 24 19  1  0
 25 24  2  0
 27 24  1  0
M  END
$$$$
