NKE.pdb
     RDKit          3D

 27 26  0  0  1  0  0  0  0  0999 V2000
   11.9034   -6.6377   -7.0469 N   0  0  0  0  0  0  0  0  0  0  0  0
   13.1959   -6.0633   -7.1530 C   0  0  0  0  0  0  0  0  0  0  0  0
   13.4155   -4.9352   -6.6264 O   0  0  0  0  0  0  0  0  0  0  0  0
   14.3379   -6.6939   -7.8484 C   0  0  0  0  0  0  0  0  0  0  0  0
   14.0037   -8.0619   -8.3979 C   0  0  2  0  0  0  0  0  0  0  0  0
   13.9567   -8.9742   -7.2717 N   0  0  0  0  0  0  0  0  0  0  0  0
   15.0818   -8.4811   -9.3120 C   0  0  0  0  0  0  0  0  0  0  0  0
   16.1943   -8.8926   -8.8346 O   0  0  0  0  0  0  0  0  0  0  0  0
   14.9503   -8.4522  -10.7160 N   0  0  0  0  0  0  0  0  0  0  0  0
   15.9950   -8.9421  -11.5765 C   0  0  1  0  0  0  0  0  0  0  0  0
   15.3819   -9.9155  -12.5449 C   0  0  0  0  0  0  0  0  0  0  0  0
   16.3859  -10.5109  -13.4859 C   0  0  0  0  0  0  0  0  0  0  0  0
   15.7467  -11.4938  -14.4090 C   0  0  0  0  0  0  0  0  0  0  0  0
   16.7351  -12.2145  -15.2836 C   0  0  0  0  0  0  0  0  0  0  0  0
   16.1112  -13.1119  -16.2151 N   0  0  0  0  0  0  0  0  0  0  0  0
   16.5880   -7.8150  -12.3489 C   0  0  0  0  0  0  0  0  0  0  0  0
   15.8927   -6.9533  -12.9280 O   0  0  0  0  0  0  0  0  0  0  0  0
   17.9957   -7.6839  -12.4520 N   0  0  0  0  0  0  0  0  0  0  0  0
   18.7335   -6.6941  -13.1402 C   0  0  1  0  0  0  0  0  0  0  0  0
   20.2166   -6.6605  -12.9474 C   0  0  0  0  0  0  0  0  0  0  0  0
   20.8559   -5.5303  -13.7021 C   0  0  0  0  0  0  0  0  0  0  0  0
   22.3456   -5.6404  -13.4809 C   0  0  0  0  0  0  0  0  0  0  0  0
   22.8616   -6.5152  -12.7524 O   0  0  0  0  0  0  0  0  0  0  0  0
   18.3876   -6.7077  -14.5592 C   0  0  0  0  0  0  0  0  0  0  0  0
   18.3622   -7.8010  -15.1737 O   0  0  0  0  0  0  0  0  0  0  0  0
   23.1926   -4.7419  -14.1040 O   0  0  0  0  0  0  0  0  0  0  0  0
   18.0808   -5.5612  -15.2764 O   0  0  0  0  0  0  0  0  0  0  0  0
  2  1  1  0
  3  2  2  0
  4  2  1  0
  5  4  1  0
  5  6  1  1
  7  8  2  0
  7  5  1  0
  9  7  1  0
 10  9  1  0
 10 11  1  6
 12 11  1  0
 13 12  1  0
 13 14  1  0
 14 15  1  0
 16 10  1  0
 17 16  2  0
 18 16  1  0
 19 18  1  0
 19 20  1  6
 20 21  1  0
 21 22  1  0
 22 26  1  0
 23 22  2  0
 24 19  1  0
 25 24  2  0
 27 24  1  0
M  END
$$$$
