NKE.pdb
     RDKit          3D

 27 26  0  0  1  0  0  0  0  0999 V2000
   29.9070  -23.8427  -17.6997 N   0  0  0  0  0  0  0  0  0  0  0  0
   29.9308  -22.4335  -17.8589 C   0  0  0  0  0  0  0  0  0  0  0  0
   30.9504  -21.8869  -18.3688 O   0  0  0  0  0  0  0  0  0  0  0  0
   28.8305  -21.5277  -17.4663 C   0  0  0  0  0  0  0  0  0  0  0  0
   27.7358  -22.2362  -16.7017 C   0  0  2  0  0  0  0  0  0  0  0  0
   26.9536  -22.9815  -17.6689 N   0  0  0  0  0  0  0  0  0  0  0  0
   26.8739  -21.2248  -16.0630 C   0  0  0  0  0  0  0  0  0  0  0  0
   27.3364  -20.5065  -15.1116 O   0  0  0  0  0  0  0  0  0  0  0  0
   25.5369  -21.0012  -16.4527 N   0  0  0  0  0  0  0  0  0  0  0  0
   24.7076  -20.0435  -15.7694 C   0  0  1  0  0  0  0  0  0  0  0  0
   23.6033  -19.6335  -16.7041 C   0  0  0  0  0  0  0  0  0  0  0  0
   24.0598  -18.6673  -17.7560 C   0  0  0  0  0  0  0  0  0  0  0  0
   22.9389  -18.2863  -18.6643 C   0  0  0  0  0  0  0  0  0  0  0  0
   23.3444  -17.2987  -19.7235 C   0  0  0  0  0  0  0  0  0  0  0  0
   22.2747  -16.9687  -20.6229 N   0  0  0  0  0  0  0  0  0  0  0  0
   24.0990  -20.6678  -14.5617 C   0  0  0  0  0  0  0  0  0  0  0  0
   23.6431  -21.8313  -14.5597 O   0  0  0  0  0  0  0  0  0  0  0  0
   24.0173  -19.9408  -13.3475 N   0  0  0  0  0  0  0  0  0  0  0  0
   23.5257  -20.3797  -12.0972 C   0  0  1  0  0  0  0  0  0  0  0  0
   24.1107  -19.7760  -10.8597 C   0  0  0  0  0  0  0  0  0  0  0  0
   23.4496  -20.2948   -9.6149 C   0  0  0  0  0  0  0  0  0  0  0  0
   24.5093  -21.0263   -8.8260 C   0  0  0  0  0  0  0  0  0  0  0  0
   25.7204  -21.0066   -9.1339 O   0  0  0  0  0  0  0  0  0  0  0  0
   22.0671  -20.3073  -12.0791 C   0  0  0  0  0  0  0  0  0  0  0  0
   21.4922  -19.3677  -12.6794 O   0  0  0  0  0  0  0  0  0  0  0  0
   24.1420  -21.7560   -7.7099 O   0  0  0  0  0  0  0  0  0  0  0  0
   21.2693  -21.2339  -11.4248 O   0  0  0  0  0  0  0  0  0  0  0  0
  2  1  1  0
  3  2  2  0
  4  2  1  0
  5  4  1  0
  5  6  1  6
  7  8  2  0
  7  5  1  0
  9  7  1  0
 10  9  1  0
 10 11  1  6
 12 11  1  0
 13 12  1  0
 13 14  1  0
 14 15  1  0
 16 10  1  0
 17 16  2  0
 18 16  1  0
 19 18  1  0
 19 20  1  1
 20 21  1  0
 21 22  1  0
 22 26  1  0
 23 22  2  0
 24 19  1  0
 25 24  2  0
 27 24  1  0
M  END
$$$$
