NKE.pdb
     RDKit          3D

 27 26  0  0  1  0  0  0  0  0999 V2000
   17.3016  -14.4406  -11.5162 N   0  0  0  0  0  0  0  0  0  0  0  0
   16.0719  -13.9035  -11.9756 C   0  0  0  0  0  0  0  0  0  0  0  0
   15.1068  -14.6850  -12.2124 O   0  0  0  0  0  0  0  0  0  0  0  0
   15.8204  -12.4651  -12.2061 C   0  0  0  0  0  0  0  0  0  0  0  0
   14.9230  -11.8535  -11.1545 C   0  0  2  0  0  0  0  0  0  0  0  0
   13.5592  -12.2031  -11.5018 N   0  0  0  0  0  0  0  0  0  0  0  0
   15.0706  -10.3873  -11.2011 C   0  0  0  0  0  0  0  0  0  0  0  0
   14.8881   -9.7659  -12.3035 O   0  0  0  0  0  0  0  0  0  0  0  0
   15.4099   -9.6152  -10.0705 N   0  0  0  0  0  0  0  0  0  0  0  0
   15.4430   -8.1774  -10.1278 C   0  0  1  0  0  0  0  0  0  0  0  0
   14.9693   -7.6478   -8.8025 C   0  0  0  0  0  0  0  0  0  0  0  0
   14.9280   -6.1497   -8.7555 C   0  0  0  0  0  0  0  0  0  0  0  0
   14.3612   -5.6639   -7.4635 C   0  0  0  0  0  0  0  0  0  0  0  0
   14.2403   -4.1665   -7.3954 C   0  0  0  0  0  0  0  0  0  0  0  0
   13.6786   -3.7039   -6.1574 N   0  0  0  0  0  0  0  0  0  0  0  0
   16.8390   -7.7095  -10.3536 C   0  0  0  0  0  0  0  0  0  0  0  0
   17.8027   -8.0996   -9.6603 O   0  0  0  0  0  0  0  0  0  0  0  0
   17.1222   -6.7837  -11.3890 N   0  0  0  0  0  0  0  0  0  0  0  0
   18.3845   -6.3875  -11.8863 C   0  0  1  0  0  0  0  0  0  0  0  0
   19.1654   -7.3767  -12.6924 C   0  0  0  0  0  0  0  0  0  0  0  0
   20.4933   -6.8249  -13.1260 C   0  0  0  0  0  0  0  0  0  0  0  0
   21.2179   -7.9368  -13.8464 C   0  0  0  0  0  0  0  0  0  0  0  0
   20.7518   -9.0911  -13.9578 O   0  0  0  0  0  0  0  0  0  0  0  0
   18.2685   -5.1117  -12.5879 C   0  0  0  0  0  0  0  0  0  0  0  0
   17.1497   -4.7534  -13.0279 O   0  0  0  0  0  0  0  0  0  0  0  0
   22.4535   -7.6852  -14.4146 O   0  0  0  0  0  0  0  0  0  0  0  0
   19.3432   -4.2608  -12.7980 O   0  0  0  0  0  0  0  0  0  0  0  0
  2  1  1  0
  3  2  2  0
  4  2  1  0
  5  4  1  0
  5  6  1  6
  7  8  2  0
  7  5  1  0
  9  7  1  0
 10  9  1  0
 10 11  1  1
 12 11  1  0
 13 12  1  0
 13 14  1  0
 14 15  1  0
 16 10  1  0
 17 16  2  0
 18 16  1  0
 19 18  1  0
 19 20  1  6
 20 21  1  0
 21 22  1  0
 22 26  1  0
 23 22  2  0
 24 19  1  0
 25 24  2  0
 27 24  1  0
M  END
$$$$
