NKE.pdb
     RDKit          3D

 27 26  0  0  1  0  0  0  0  0999 V2000
   14.7324  -12.8517  -16.1095 N   0  0  0  0  0  0  0  0  0  0  0  0
   15.3278  -11.8226  -15.3361 C   0  0  0  0  0  0  0  0  0  0  0  0
   14.5882  -11.0510  -14.6610 O   0  0  0  0  0  0  0  0  0  0  0  0
   16.7824  -11.5723  -15.2533 C   0  0  0  0  0  0  0  0  0  0  0  0
   17.5791  -12.4415  -16.1993 C   0  0  2  0  0  0  0  0  0  0  0  0
   17.8193  -13.7008  -15.5215 N   0  0  0  0  0  0  0  0  0  0  0  0
   18.8719  -11.7861  -16.4689 C   0  0  0  0  0  0  0  0  0  0  0  0
   19.7397  -11.6864  -15.5352 O   0  0  0  0  0  0  0  0  0  0  0  0
   19.2114  -11.2508  -17.7290 N   0  0  0  0  0  0  0  0  0  0  0  0
   20.4727  -10.5928  -17.9481 C   0  0  1  0  0  0  0  0  0  0  0  0
   20.8685  -10.8114  -19.3823 C   0  0  0  0  0  0  0  0  0  0  0  0
   22.1826  -10.1768  -19.7267 C   0  0  0  0  0  0  0  0  0  0  0  0
   22.6047  -10.5248  -21.1149 C   0  0  0  0  0  0  0  0  0  0  0  0
   23.9564   -9.9749  -21.4785 C   0  0  0  0  0  0  0  0  0  0  0  0
   24.4225  -10.4304  -22.7580 N   0  0  0  0  0  0  0  0  0  0  0  0
   20.3300   -9.1288  -17.7136 C   0  0  0  0  0  0  0  0  0  0  0  0
   19.3132   -8.4863  -18.0525 O   0  0  0  0  0  0  0  0  0  0  0  0
   21.3712   -8.4028  -17.0825 N   0  0  0  0  0  0  0  0  0  0  0  0
   21.3797   -7.0431  -16.6972 C   0  0  1  0  0  0  0  0  0  0  0  0
   21.6388   -6.7206  -15.2594 C   0  0  0  0  0  0  0  0  0  0  0  0
   21.6381   -5.2401  -15.0067 C   0  0  0  0  0  0  0  0  0  0  0  0
   21.9581   -5.0433  -13.5441 C   0  0  0  0  0  0  0  0  0  0  0  0
   21.1707   -5.3617  -12.6273 O   0  0  0  0  0  0  0  0  0  0  0  0
   22.2624   -6.2792  -17.5750 C   0  0  0  0  0  0  0  0  0  0  0  0
   23.2921   -6.8271  -18.0366 O   0  0  0  0  0  0  0  0  0  0  0  0
   23.1722   -4.4872  -13.1839 O   0  0  0  0  0  0  0  0  0  0  0  0
   22.0218   -4.9610  -17.9323 O   0  0  0  0  0  0  0  0  0  0  0  0
  2  1  1  0
  3  2  2  0
  4  2  1  0
  5  4  1  0
  5  6  1  1
  7  8  2  0
  7  5  1  0
  9  7  1  0
 10  9  1  0
 10 11  1  6
 12 11  1  0
 13 12  1  0
 13 14  1  0
 14 15  1  0
 16 10  1  0
 17 16  2  0
 18 16  1  0
 19 18  1  0
 19 20  1  1
 20 21  1  0
 21 22  1  0
 22 26  1  0
 23 22  2  0
 24 19  1  0
 25 24  2  0
 27 24  1  0
M  END
$$$$
