NKE.pdb
     RDKit          3D

 27 26  0  0  1  0  0  0  0  0999 V2000
   25.3692  -20.4647   -7.7488 N   0  0  0  0  0  0  0  0  0  0  0  0
   24.2048  -20.6414   -8.5391 C   0  0  0  0  0  0  0  0  0  0  0  0
   23.0881  -20.7964   -7.9671 O   0  0  0  0  0  0  0  0  0  0  0  0
   24.1906  -20.6595  -10.0172 C   0  0  0  0  0  0  0  0  0  0  0  0
   25.5789  -20.7038  -10.6137 C   0  0  2  0  0  0  0  0  0  0  0  0
   26.3243  -19.5989  -10.0422 N   0  0  0  0  0  0  0  0  0  0  0  0
   25.4739  -20.5102  -12.0715 C   0  0  0  0  0  0  0  0  0  0  0  0
   24.6891  -19.6149  -12.5379 O   0  0  0  0  0  0  0  0  0  0  0  0
   26.2083  -21.2759  -13.0009 N   0  0  0  0  0  0  0  0  0  0  0  0
   26.1631  -20.9883  -14.4105 C   0  0  1  0  0  0  0  0  0  0  0  0
   27.3921  -21.5779  -15.0454 C   0  0  0  0  0  0  0  0  0  0  0  0
   27.4229  -21.3962  -16.5334 C   0  0  0  0  0  0  0  0  0  0  0  0
   28.6000  -22.0849  -17.1389 C   0  0  0  0  0  0  0  0  0  0  0  0
   28.8782  -21.6508  -18.5515 C   0  0  0  0  0  0  0  0  0  0  0  0
   27.7457  -21.8068  -19.4206 N   0  0  0  0  0  0  0  0  0  0  0  0
   24.9626  -21.6244  -15.0211 C   0  0  0  0  0  0  0  0  0  0  0  0
   24.6430  -22.8126  -14.8028 O   0  0  0  0  0  0  0  0  0  0  0  0
   24.1257  -20.8806  -15.8904 N   0  0  0  0  0  0  0  0  0  0  0  0
   22.8842  -21.2625  -16.4475 C   0  0  1  0  0  0  0  0  0  0  0  0
   21.7760  -20.2574  -16.4524 C   0  0  0  0  0  0  0  0  0  0  0  0
   20.5113  -20.8184  -17.0367 C   0  0  0  0  0  0  0  0  0  0  0  0
   19.5088  -19.6900  -17.0813 C   0  0  0  0  0  0  0  0  0  0  0  0
   19.7838  -18.5225  -16.7299 O   0  0  0  0  0  0  0  0  0  0  0  0
   23.0856  -21.8301  -17.7781 C   0  0  0  0  0  0  0  0  0  0  0  0
   23.9809  -21.3559  -18.5179 O   0  0  0  0  0  0  0  0  0  0  0  0
   18.2241  -19.9407  -17.5282 O   0  0  0  0  0  0  0  0  0  0  0  0
   22.3304  -22.8806  -18.2772 O   0  0  0  0  0  0  0  0  0  0  0  0
  2  1  1  0
  3  2  2  0
  4  2  1  0
  5  4  1  0
  5  6  1  1
  7  8  2  0
  7  5  1  0
  9  7  1  0
 10  9  1  0
 10 11  1  6
 12 11  1  0
 13 12  1  0
 13 14  1  0
 14 15  1  0
 16 10  1  0
 17 16  2  0
 18 16  1  0
 19 18  1  0
 19 20  1  6
 20 21  1  0
 21 22  1  0
 22 26  1  0
 23 22  2  0
 24 19  1  0
 25 24  2  0
 27 24  1  0
M  END
$$$$
