FVW.pdb
     RDKit          3D

 33 35  0  0  1  0  0  0  0  0999 V2000
    6.9821  -17.1504   20.5946 N   0  0  0  0  0  0  0  0  0  0  0  0
    7.9579  -16.3066   21.2945 C   0  0  1  0  0  0  0  0  0  0  0  0
    7.2431  -15.1417   21.8924 C   0  0  0  0  0  0  0  0  0  0  0  0
    7.4400  -13.9465   21.0326 C   0  0  0  0  0  0  0  0  0  0  0  0
    6.5400  -13.6724   20.0250 C   0  0  0  0  0  0  0  0  0  0  0  0
    6.7131  -12.5634   19.2371 C   0  0  0  0  0  0  0  0  0  0  0  0
    7.7668  -11.7012   19.4171 C   0  0  0  0  0  0  0  0  0  0  0  0
    8.6581  -11.9971   20.4359 C   0  0  0  0  0  0  0  0  0  0  0  0
    8.5062  -13.1024   21.2390 C   0  0  0  0  0  0  0  0  0  0  0  0
    8.6738  -17.1676   22.2619 C   0  0  0  0  0  0  0  0  0  0  0  0
    8.0900  -18.0525   22.9466 O   0  0  0  0  0  0  0  0  0  0  0  0
   12.0112  -19.0335   21.6973 C   0  0  0  0  0  0  0  0  0  0  0  0
   12.1632  -18.2375   22.9763 C   0  0  2  0  0  0  0  0  0  0  0  0
   12.8055  -19.1567   24.0188 C   0  0  0  0  0  0  0  0  0  0  0  0
   10.8121  -17.8261   23.4517 C   0  0  2  0  0  0  0  0  0  0  0  0
   10.0756  -17.0516   22.4833 N   0  0  0  0  0  0  0  0  0  0  0  0
   10.7763  -17.1568   24.7438 C   0  0  0  0  0  0  0  0  0  0  0  0
   11.2835  -16.0073   24.8395 O   0  0  0  0  0  0  0  0  0  0  0  0
   10.1928  -17.7360   25.9200 N   0  0  0  0  0  0  0  0  0  0  0  0
   10.2750  -16.9974   27.1514 C   0  0  1  0  0  0  0  0  0  0  0  0
    8.9243  -16.8403   27.8121 C   0  0  0  0  0  0  0  0  0  0  0  0
    8.0087  -16.1524   26.8796 C   0  0  0  0  0  0  0  0  0  0  0  0
    7.0395  -16.7368   26.0936 C   0  0  0  0  0  0  0  0  0  0  0  0
    6.4072  -15.7724   25.3661 N   0  0  0  0  0  0  0  0  0  0  0  0
    6.9509  -14.5770   25.6685 C   0  0  0  0  0  0  0  0  0  0  0  0
    6.6427  -13.3254   25.1870 C   0  0  0  0  0  0  0  0  0  0  0  0
    7.3575  -12.2434   25.6603 C   0  0  0  0  0  0  0  0  0  0  0  0
    8.3598  -12.4412   26.6011 C   0  0  0  0  0  0  0  0  0  0  0  0
    8.6474  -13.6968   27.0648 C   0  0  0  0  0  0  0  0  0  0  0  0
    7.9504  -14.7996   26.6108 C   0  0  0  0  0  0  0  0  0  0  0  0
   11.2476  -17.6798   28.0644 C   0  0  0  0  0  0  0  0  0  0  0  0
   11.5039  -17.1444   29.1623 O   0  0  0  0  0  0  0  0  0  0  0  0
   11.8589  -18.8858   27.7082 O   0  0  0  0  0  0  0  0  0  0  0  0
  2  3  1  0
  2  1  1  1
  4  3  1  0
  5  4  2  0
  6  5  1  0
  7  6  2  0
  7  8  1  0
  8  9  2  0
  9  4  1  0
 10 16  1  0
 10  2  1  0
 11 10  2  0
 13 14  1  1
 13 12  1  0
 15 13  1  0
 15 16  1  6
 17 15  1  0
 17 18  2  0
 19 17  1  0
 20 21  1  1
 20 19  1  0
 22 21  1  0
 22 30  1  0
 23 22  2  0
 24 23  1  0
 24 25  1  0
 25 26  1  0
 25 30  2  0
 26 27  2  0
 27 28  1  0
 29 28  2  0
 30 29  1  0
 31 20  1  0
 31 33  1  0
 32 31  2  0
M  END
$$$$
