FVW.pdb
     RDKit          3D

 33 35  0  0  1  0  0  0  0  0999 V2000
    9.6660  -18.9645   17.6867 N   0  0  0  0  0  0  0  0  0  0  0  0
    8.7476  -18.7729   18.8153 C   0  0  1  0  0  0  0  0  0  0  0  0
    8.7412  -20.0131   19.6443 C   0  0  0  0  0  0  0  0  0  0  0  0
    8.0990  -21.1142   18.8815 C   0  0  0  0  0  0  0  0  0  0  0  0
    6.7361  -21.0999   18.6753 C   0  0  0  0  0  0  0  0  0  0  0  0
    6.1422  -22.1092   17.9617 C   0  0  0  0  0  0  0  0  0  0  0  0
    6.8663  -23.1510   17.4359 C   0  0  0  0  0  0  0  0  0  0  0  0
    8.2343  -23.1439   17.6559 C   0  0  0  0  0  0  0  0  0  0  0  0
    8.8528  -22.1436   18.3677 C   0  0  0  0  0  0  0  0  0  0  0  0
    9.1699  -17.5453   19.5256 C   0  0  0  0  0  0  0  0  0  0  0  0
   10.3617  -17.1303   19.5168 O   0  0  0  0  0  0  0  0  0  0  0  0
    6.6719  -14.3460   19.9053 C   0  0  0  0  0  0  0  0  0  0  0  0
    7.3999  -14.6476   21.1981 C   0  0  2  0  0  0  0  0  0  0  0  0
    7.8686  -13.3140   21.7863 C   0  0  0  0  0  0  0  0  0  0  0  0
    8.5883  -15.4946   20.8961 C   0  0  2  0  0  0  0  0  0  0  0  0
    8.2527  -16.7493   20.2692 N   0  0  0  0  0  0  0  0  0  0  0  0
    9.4930  -15.7308   22.0117 C   0  0  0  0  0  0  0  0  0  0  0  0
   10.6430  -15.2173   21.9719 O   0  0  0  0  0  0  0  0  0  0  0  0
    9.1463  -16.5195   23.1593 N   0  0  0  0  0  0  0  0  0  0  0  0
   10.0648  -16.5465   24.2657 C   0  0  1  0  0  0  0  0  0  0  0  0
   10.3468  -15.1627   24.8053 C   0  0  0  0  0  0  0  0  0  0  0  0
    9.1423  -14.6602   25.4966 C   0  0  0  0  0  0  0  0  0  0  0  0
    7.8311  -14.8845   25.1373 C   0  0  0  0  0  0  0  0  0  0  0  0
    7.0073  -14.2495   26.0189 N   0  0  0  0  0  0  0  0  0  0  0  0
    7.7632  -13.6200   26.9399 C   0  0  0  0  0  0  0  0  0  0  0  0
    7.3786  -12.8551   28.0171 C   0  0  0  0  0  0  0  0  0  0  0  0
    8.3593  -12.3099   28.8213 C   0  0  0  0  0  0  0  0  0  0  0  0
    9.6964  -12.5437   28.5275 C   0  0  0  0  0  0  0  0  0  0  0  0
   10.0536  -13.3086   27.4497 C   0  0  0  0  0  0  0  0  0  0  0  0
    9.0960  -13.8678   26.6260 C   0  0  0  0  0  0  0  0  0  0  0  0
    9.5144  -17.4417   25.3338 C   0  0  0  0  0  0  0  0  0  0  0  0
   10.1607  -17.5638   26.3944 O   0  0  0  0  0  0  0  0  0  0  0  0
    8.3085  -18.1279   25.1599 O   0  0  0  0  0  0  0  0  0  0  0  0
  2  3  1  0
  2  1  1  6
  4  3  1  0
  5  4  2  0
  6  5  1  0
  7  6  2  0
  7  8  1  0
  8  9  2  0
  9  4  1  0
 10 16  1  0
 10  2  1  0
 11 10  2  0
 13 14  1  6
 13 12  1  0
 15 13  1  0
 15 16  1  1
 17 15  1  0
 17 18  2  0
 19 17  1  0
 20 21  1  1
 20 19  1  0
 22 21  1  0
 22 30  1  0
 23 22  2  0
 24 23  1  0
 24 25  1  0
 25 26  1  0
 25 30  2  0
 26 27  2  0
 27 28  1  0
 29 28  2  0
 30 29  1  0
 31 20  1  0
 31 33  1  0
 32 31  2  0
M  END
$$$$
