FVW.pdb
     RDKit          3D

 33 35  0  0  1  0  0  0  0  0999 V2000
    5.5628  -17.3212   21.2618 N   0  0  0  0  0  0  0  0  0  0  0  0
    6.7789  -16.5491   21.5426 C   0  0  1  0  0  0  0  0  0  0  0  0
    6.4023  -15.1214   21.7548 C   0  0  0  0  0  0  0  0  0  0  0  0
    7.1570  -14.2646   20.8044 C   0  0  0  0  0  0  0  0  0  0  0  0
    8.3357  -13.6724   21.2045 C   0  0  0  0  0  0  0  0  0  0  0  0
    9.0403  -12.8902   20.3256 C   0  0  0  0  0  0  0  0  0  0  0  0
    8.6085  -12.6711   19.0404 C   0  0  0  0  0  0  0  0  0  0  0  0
    7.4214  -13.2767   18.6610 C   0  0  0  0  0  0  0  0  0  0  0  0
    6.6973  -14.0651   19.5235 C   0  0  0  0  0  0  0  0  0  0  0  0
    7.4588  -17.1956   22.6870 C   0  0  0  0  0  0  0  0  0  0  0  0
    6.8491  -17.5283   23.7407 O   0  0  0  0  0  0  0  0  0  0  0  0
    8.9261  -20.4485   23.0064 C   0  0  0  0  0  0  0  0  0  0  0  0
   10.0849  -19.5141   23.2827 C   0  0  2  0  0  0  0  0  0  0  0  0
   10.9080  -20.1230   24.4210 C   0  0  0  0  0  0  0  0  0  0  0  0
    9.5468  -18.1945   23.7187 C   0  0  2  0  0  0  0  0  0  0  0  0
    8.8530  -17.4850   22.6721 N   0  0  0  0  0  0  0  0  0  0  0  0
   10.5036  -17.3058   24.3618 C   0  0  0  0  0  0  0  0  0  0  0  0
   11.3793  -16.7477   23.6480 O   0  0  0  0  0  0  0  0  0  0  0  0
   10.5051  -17.0290   25.7699 N   0  0  0  0  0  0  0  0  0  0  0  0
   11.5809  -16.2378   26.3039 C   0  0  1  0  0  0  0  0  0  0  0  0
   11.2853  -14.7566   26.2380 C   0  0  0  0  0  0  0  0  0  0  0  0
   10.1197  -14.4592   27.0947 C   0  0  0  0  0  0  0  0  0  0  0  0
   10.0547  -14.5696   28.4667 C   0  0  0  0  0  0  0  0  0  0  0  0
    8.8088  -14.2111   28.8891 N   0  0  0  0  0  0  0  0  0  0  0  0
    8.0694  -13.8717   27.8149 C   0  0  0  0  0  0  0  0  0  0  0  0
    6.7619  -13.4483   27.7474 C   0  0  0  0  0  0  0  0  0  0  0  0
    6.2261  -13.1602   26.5082 C   0  0  0  0  0  0  0  0  0  0  0  0
    7.0108  -13.3027   25.3712 C   0  0  0  0  0  0  0  0  0  0  0  0
    8.3095  -13.7256   25.4646 C   0  0  0  0  0  0  0  0  0  0  0  0
    8.8745  -14.0218   26.6898 C   0  0  0  0  0  0  0  0  0  0  0  0
   11.8530  -16.6729   27.7117 C   0  0  0  0  0  0  0  0  0  0  0  0
   10.9975  -17.3739   28.2899 O   0  0  0  0  0  0  0  0  0  0  0  0
   13.0310  -16.3103   28.3720 O   0  0  0  0  0  0  0  0  0  0  0  0
  2  3  1  0
  2  1  1  1
  4  3  1  0
  5  4  2  0
  6  5  1  0
  7  6  2  0
  7  8  1  0
  8  9  2  0
  9  4  1  0
 10 16  1  0
 10  2  1  0
 11 10  2  0
 13 14  1  1
 13 12  1  0
 15 13  1  0
 15 16  1  6
 17 15  1  0
 17 18  2  0
 19 17  1  0
 20 21  1  1
 20 19  1  0
 22 21  1  0
 22 30  1  0
 23 22  2  0
 24 23  1  0
 24 25  1  0
 25 26  1  0
 25 30  2  0
 26 27  2  0
 27 28  1  0
 29 28  2  0
 30 29  1  0
 31 20  1  0
 31 33  1  0
 32 31  2  0
M  END
$$$$
