FVW.pdb
     RDKit          3D

 33 35  0  0  1  0  0  0  0  0999 V2000
    5.5087  -19.5230   20.7517 N   0  0  0  0  0  0  0  0  0  0  0  0
    6.0127  -18.3400   21.4591 C   0  0  1  0  0  0  0  0  0  0  0  0
    5.3527  -18.2624   22.7946 C   0  0  0  0  0  0  0  0  0  0  0  0
    5.8695  -17.0820   23.5337 C   0  0  0  0  0  0  0  0  0  0  0  0
    6.2045  -17.2013   24.8655 C   0  0  0  0  0  0  0  0  0  0  0  0
    6.6927  -16.1161   25.5472 C   0  0  0  0  0  0  0  0  0  0  0  0
    6.8632  -14.8947   24.9430 C   0  0  0  0  0  0  0  0  0  0  0  0
    6.5199  -14.7990   23.6040 C   0  0  0  0  0  0  0  0  0  0  0  0
    6.0287  -15.8722   22.8991 C   0  0  0  0  0  0  0  0  0  0  0  0
    7.4886  -18.4405   21.4932 C   0  0  0  0  0  0  0  0  0  0  0  0
    8.0908  -19.4735   21.8969 O   0  0  0  0  0  0  0  0  0  0  0  0
    9.7312  -18.0332   18.6064 C   0  0  0  0  0  0  0  0  0  0  0  0
   10.2969  -17.0813   19.6388 C   0  0  2  0  0  0  0  0  0  0  0  0
   11.8189  -17.2480   19.6359 C   0  0  0  0  0  0  0  0  0  0  0  0
    9.7658  -17.4537   20.9805 C   0  0  2  0  0  0  0  0  0  0  0  0
    8.3287  -17.3713   21.0704 N   0  0  0  0  0  0  0  0  0  0  0  0
   10.3678  -16.7612   22.1104 C   0  0  0  0  0  0  0  0  0  0  0  0
   10.8853  -15.6290   21.9149 O   0  0  0  0  0  0  0  0  0  0  0  0
   10.4050  -17.2986   23.4404 N   0  0  0  0  0  0  0  0  0  0  0  0
   11.1814  -16.6028   24.4311 C   0  0  1  0  0  0  0  0  0  0  0  0
   10.7207  -15.1747   24.6155 C   0  0  0  0  0  0  0  0  0  0  0  0
    9.3695  -15.1774   25.2117 C   0  0  0  0  0  0  0  0  0  0  0  0
    8.6192  -16.2826   25.5498 C   0  0  0  0  0  0  0  0  0  0  0  0
    7.4251  -15.8756   26.0670 N   0  0  0  0  0  0  0  0  0  0  0  0
    7.3916  -14.5284   26.0686 C   0  0  0  0  0  0  0  0  0  0  0  0
    6.3984  -13.6755   26.4921 C   0  0  0  0  0  0  0  0  0  0  0  0
    6.6086  -12.3153   26.3852 C   0  0  0  0  0  0  0  0  0  0  0  0
    7.8046  -11.8449   25.8587 C   0  0  0  0  0  0  0  0  0  0  0  0
    8.7777  -12.7142   25.4443 C   0  0  0  0  0  0  0  0  0  0  0  0
    8.5975  -14.0805   25.5380 C   0  0  0  0  0  0  0  0  0  0  0  0
   11.1180  -17.3624   25.7211 C   0  0  0  0  0  0  0  0  0  0  0  0
   10.3017  -18.3017   25.8150 O   0  0  0  0  0  0  0  0  0  0  0  0
   11.9468  -17.0379   26.7996 O   0  0  0  0  0  0  0  0  0  0  0  0
  2  3  1  0
  2  1  1  1
  4  3  1  0
  5  4  2  0
  6  5  1  0
  7  6  2  0
  7  8  1  0
  8  9  2  0
  9  4  1  0
 10 16  1  0
 10  2  1  0
 11 10  2  0
 13 14  1  1
 13 12  1  0
 15 13  1  0
 15 16  1  6
 17 15  1  0
 17 18  2  0
 19 17  1  0
 20 21  1  1
 20 19  1  0
 22 21  1  0
 22 30  1  0
 23 22  2  0
 24 23  1  0
 24 25  1  0
 25 26  1  0
 25 30  2  0
 26 27  2  0
 27 28  1  0
 29 28  2  0
 30 29  1  0
 31 20  1  0
 31 33  1  0
 32 31  2  0
M  END
$$$$
