FVW.pdb
     RDKit          3D

 33 35  0  0  1  0  0  0  0  0999 V2000
   10.1028  -18.3036   18.8638 N   0  0  0  0  0  0  0  0  0  0  0  0
   11.3511  -17.5770   19.1239 C   0  0  1  0  0  0  0  0  0  0  0  0
   11.9539  -17.1770   17.8193 C   0  0  0  0  0  0  0  0  0  0  0  0
   11.3155  -17.9489   16.7224 C   0  0  0  0  0  0  0  0  0  0  0  0
   11.5673  -19.2985   16.5987 C   0  0  0  0  0  0  0  0  0  0  0  0
   10.9703  -20.0158   15.5939 C   0  0  0  0  0  0  0  0  0  0  0  0
   10.1168  -19.4304   14.6911 C   0  0  0  0  0  0  0  0  0  0  0  0
    9.8789  -18.0731   14.8354 C   0  0  0  0  0  0  0  0  0  0  0  0
   10.4651  -17.3325   15.8343 C   0  0  0  0  0  0  0  0  0  0  0  0
   11.0293  -16.4574   20.0364 C   0  0  0  0  0  0  0  0  0  0  0  0
   11.9093  -15.6730   20.4870 O   0  0  0  0  0  0  0  0  0  0  0  0
    7.6732  -14.1631   20.0128 C   0  0  0  0  0  0  0  0  0  0  0  0
    7.9237  -14.7681   21.3780 C   0  0  2  0  0  0  0  0  0  0  0  0
    7.6737  -13.6750   22.4205 C   0  0  0  0  0  0  0  0  0  0  0  0
    9.3460  -15.2055   21.4580 C   0  0  2  0  0  0  0  0  0  0  0  0
    9.6982  -16.1924   20.4670 N   0  0  0  0  0  0  0  0  0  0  0  0
    9.7961  -15.6467   22.7701 C   0  0  0  0  0  0  0  0  0  0  0  0
   10.9398  -15.2929   23.1634 O   0  0  0  0  0  0  0  0  0  0  0  0
    9.0062  -16.4657   23.6445 N   0  0  0  0  0  0  0  0  0  0  0  0
    9.4443  -16.6229   25.0053 C   0  0  1  0  0  0  0  0  0  0  0  0
    9.4205  -15.3163   25.7655 C   0  0  0  0  0  0  0  0  0  0  0  0
    8.0350  -14.8066   25.8046 C   0  0  0  0  0  0  0  0  0  0  0  0
    6.8864  -15.5176   25.5326 C   0  0  0  0  0  0  0  0  0  0  0  0
    5.8057  -14.6977   25.6698 N   0  0  0  0  0  0  0  0  0  0  0  0
    6.2362  -13.4712   26.0253 C   0  0  0  0  0  0  0  0  0  0  0  0
    5.5156  -12.3256   26.2733 C   0  0  0  0  0  0  0  0  0  0  0  0
    6.2006  -11.1797   26.6242 C   0  0  0  0  0  0  0  0  0  0  0  0
    7.5860  -11.2097   26.7178 C   0  0  0  0  0  0  0  0  0  0  0  0
    8.2804  -12.3624   26.4661 C   0  0  0  0  0  0  0  0  0  0  0  0
    7.6239  -13.5253   26.1128 C   0  0  0  0  0  0  0  0  0  0  0  0
    8.5892  -17.6545   25.6760 C   0  0  0  0  0  0  0  0  0  0  0  0
    7.6057  -18.1038   25.0526 O   0  0  0  0  0  0  0  0  0  0  0  0
    8.8747  -18.1110   26.9664 O   0  0  0  0  0  0  0  0  0  0  0  0
  2  3  1  0
  2  1  1  6
  4  3  1  0
  5  4  2  0
  6  5  1  0
  7  6  2  0
  7  8  1  0
  8  9  2  0
  9  4  1  0
 10 16  1  0
 10  2  1  0
 11 10  2  0
 13 14  1  1
 13 12  1  0
 15 13  1  0
 15 16  1  6
 17 15  1  0
 17 18  2  0
 19 17  1  0
 20 21  1  1
 20 19  1  0
 22 21  1  0
 22 30  1  0
 23 22  2  0
 24 23  1  0
 24 25  1  0
 25 26  1  0
 25 30  2  0
 26 27  2  0
 27 28  1  0
 29 28  2  0
 30 29  1  0
 31 20  1  0
 31 33  1  0
 32 31  2  0
M  END
$$$$
