FVW.pdb
     RDKit          3D

 33 35  0  0  1  0  0  0  0  0999 V2000
    5.0322  -17.8083   24.7735 N   0  0  0  0  0  0  0  0  0  0  0  0
    5.6405  -16.4742   24.8386 C   0  0  1  0  0  0  0  0  0  0  0  0
    5.7910  -16.0852   26.2709 C   0  0  0  0  0  0  0  0  0  0  0  0
    6.2763  -14.6837   26.3540 C   0  0  0  0  0  0  0  0  0  0  0  0
    6.6864  -14.0323   25.2104 C   0  0  0  0  0  0  0  0  0  0  0  0
    7.1241  -12.7347   25.2826 C   0  0  0  0  0  0  0  0  0  0  0  0
    7.1701  -12.0483   26.4712 C   0  0  0  0  0  0  0  0  0  0  0  0
    6.7530  -12.7234   27.6071 C   0  0  0  0  0  0  0  0  0  0  0  0
    6.3100  -14.0239   27.5605 C   0  0  0  0  0  0  0  0  0  0  0  0
    6.9016  -16.5250   24.0661 C   0  0  0  0  0  0  0  0  0  0  0  0
    7.7104  -17.4903   24.1473 O   0  0  0  0  0  0  0  0  0  0  0  0
    7.2028  -14.9971   20.2944 C   0  0  0  0  0  0  0  0  0  0  0  0
    8.3722  -14.5934   21.1673 C   0  0  2  0  0  0  0  0  0  0  0  0
    9.6446  -14.7286   20.3265 C   0  0  0  0  0  0  0  0  0  0  0  0
    8.4510  -15.5240   22.3286 C   0  0  2  0  0  0  0  0  0  0  0  0
    7.2853  -15.4813   23.1767 N   0  0  0  0  0  0  0  0  0  0  0  0
    9.6531  -15.4151   23.1422 C   0  0  0  0  0  0  0  0  0  0  0  0
    9.8961  -14.3174   23.7113 O   0  0  0  0  0  0  0  0  0  0  0  0
   10.5809  -16.4930   23.3329 N   0  0  0  0  0  0  0  0  0  0  0  0
   11.7907  -16.2248   24.0628 C   0  0  1  0  0  0  0  0  0  0  0  0
   11.9033  -17.0727   25.3094 C   0  0  0  0  0  0  0  0  0  0  0  0
   10.7858  -16.7452   26.2177 C   0  0  0  0  0  0  0  0  0  0  0  0
    9.7017  -17.5430   26.5128 C   0  0  0  0  0  0  0  0  0  0  0  0
    8.8849  -16.8883   27.3864 N   0  0  0  0  0  0  0  0  0  0  0  0
    9.4223  -15.6832   27.6601 C   0  0  0  0  0  0  0  0  0  0  0  0
    8.9584  -14.6811   28.4810 C   0  0  0  0  0  0  0  0  0  0  0  0
    9.7025  -13.5237   28.5924 C   0  0  0  0  0  0  0  0  0  0  0  0
   10.8889  -13.3992   27.8811 C   0  0  0  0  0  0  0  0  0  0  0  0
   11.3293  -14.4109   27.0707 C   0  0  0  0  0  0  0  0  0  0  0  0
   10.6075  -15.5811   26.9380 C   0  0  0  0  0  0  0  0  0  0  0  0
   12.9641  -16.4383   23.1558 C   0  0  0  0  0  0  0  0  0  0  0  0
   12.7610  -16.9523   22.0368 O   0  0  0  0  0  0  0  0  0  0  0  0
   14.2584  -16.0751   23.5404 O   0  0  0  0  0  0  0  0  0  0  0  0
  2  3  1  0
  2  1  1  1
  4  3  1  0
  5  4  2  0
  6  5  1  0
  7  6  2  0
  7  8  1  0
  8  9  2  0
  9  4  1  0
 10 16  1  0
 10  2  1  0
 11 10  2  0
 13 14  1  6
 13 12  1  0
 15 13  1  0
 15 16  1  1
 17 15  1  0
 17 18  2  0
 19 17  1  0
 20 21  1  1
 20 19  1  0
 22 21  1  0
 22 30  1  0
 23 22  2  0
 24 23  1  0
 24 25  1  0
 25 26  1  0
 25 30  2  0
 26 27  2  0
 27 28  1  0
 29 28  2  0
 30 29  1  0
 31 20  1  0
 31 33  1  0
 32 31  2  0
M  END
$$$$
