FVW.pdb
     RDKit          3D

 33 35  0  0  1  0  0  0  0  0999 V2000
    8.0311  -19.4346   18.8647 N   0  0  0  0  0  0  0  0  0  0  0  0
    7.6093  -18.9546   20.1860 C   0  0  1  0  0  0  0  0  0  0  0  0
    7.9361  -19.9970   21.2017 C   0  0  0  0  0  0  0  0  0  0  0  0
    7.1095  -21.2060   20.9530 C   0  0  0  0  0  0  0  0  0  0  0  0
    7.7157  -22.3815   20.5644 C   0  0  0  0  0  0  0  0  0  0  0  0
    6.9563  -23.5021   20.3451 C   0  0  0  0  0  0  0  0  0  0  0  0
    5.5918  -23.4972   20.5007 C   0  0  0  0  0  0  0  0  0  0  0  0
    5.0049  -22.3046   20.8919 C   0  0  0  0  0  0  0  0  0  0  0  0
    5.7445  -21.1680   21.1178 C   0  0  0  0  0  0  0  0  0  0  0  0
    8.2533  -17.6405   20.4055 C   0  0  0  0  0  0  0  0  0  0  0  0
    9.4575  -17.4144   20.1030 O   0  0  0  0  0  0  0  0  0  0  0  0
    7.1763  -14.2511   19.2926 C   0  0  0  0  0  0  0  0  0  0  0  0
    7.3685  -14.1039   20.7872 C   0  0  2  0  0  0  0  0  0  0  0  0
    8.1664  -12.8192   21.0260 C   0  0  0  0  0  0  0  0  0  0  0  0
    8.1519  -15.2678   21.2896 C   0  0  2  0  0  0  0  0  0  0  0  0
    7.5511  -16.5408   20.9757 N   0  0  0  0  0  0  0  0  0  0  0  0
    8.5043  -15.2272   22.7013 C   0  0  0  0  0  0  0  0  0  0  0  0
    7.6145  -14.9065   23.5339 O   0  0  0  0  0  0  0  0  0  0  0  0
    9.8147  -15.5335   23.1997 N   0  0  0  0  0  0  0  0  0  0  0  0
   10.0813  -15.2998   24.5936 C   0  0  1  0  0  0  0  0  0  0  0  0
    9.2175  -16.1577   25.4900 C   0  0  0  0  0  0  0  0  0  0  0  0
    7.8871  -15.5302   25.6214 C   0  0  0  0  0  0  0  0  0  0  0  0
    6.6828  -16.0549   25.2052 C   0  0  0  0  0  0  0  0  0  0  0  0
    5.6830  -15.1749   25.4968 N   0  0  0  0  0  0  0  0  0  0  0  0
    6.2204  -14.0926   26.0934 C   0  0  0  0  0  0  0  0  0  0  0  0
    5.6073  -12.9530   26.5610 C   0  0  0  0  0  0  0  0  0  0  0  0
    6.3903  -11.9737   27.1386 C   0  0  0  0  0  0  0  0  0  0  0  0
    7.7634  -12.1598   27.2333 C   0  0  0  0  0  0  0  0  0  0  0  0
    8.3497  -13.3030   26.7604 C   0  0  0  0  0  0  0  0  0  0  0  0
    7.5936  -14.3011   26.1772 C   0  0  0  0  0  0  0  0  0  0  0  0
   11.5371  -15.5370   24.8573 C   0  0  0  0  0  0  0  0  0  0  0  0
   12.2499  -15.9443   23.9172 O   0  0  0  0  0  0  0  0  0  0  0  0
   12.0956  -15.3115   26.1192 O   0  0  0  0  0  0  0  0  0  0  0  0
  2  3  1  0
  2  1  1  6
  4  3  1  0
  5  4  2  0
  6  5  1  0
  7  6  2  0
  7  8  1  0
  8  9  2  0
  9  4  1  0
 10 16  1  0
 10  2  1  0
 11 10  2  0
 13 14  1  6
 13 12  1  0
 15 13  1  0
 15 16  1  1
 17 15  1  0
 17 18  2  0
 19 17  1  0
 20 21  1  1
 20 19  1  0
 22 21  1  0
 22 30  1  0
 23 22  2  0
 24 23  1  0
 24 25  1  0
 25 26  1  0
 25 30  2  0
 26 27  2  0
 27 28  1  0
 29 28  2  0
 30 29  1  0
 31 20  1  0
 31 33  1  0
 32 31  2  0
M  END
$$$$
