FVW.pdb
     RDKit          3D

 33 35  0  0  1  0  0  0  0  0999 V2000
   12.0820  -17.2306   17.7013 N   0  0  0  0  0  0  0  0  0  0  0  0
   11.4203  -17.9210   18.8146 C   0  0  1  0  0  0  0  0  0  0  0  0
   12.3869  -18.8773   19.4282 C   0  0  0  0  0  0  0  0  0  0  0  0
   12.4796  -20.0962   18.5843 C   0  0  0  0  0  0  0  0  0  0  0  0
   13.6293  -20.3453   17.8657 C   0  0  0  0  0  0  0  0  0  0  0  0
   13.7220  -21.4757   17.0948 C   0  0  0  0  0  0  0  0  0  0  0  0
   12.6954  -22.3840   17.0104 C   0  0  0  0  0  0  0  0  0  0  0  0
   11.5501  -22.1126   17.7415 C   0  0  0  0  0  0  0  0  0  0  0  0
   11.4332  -20.9866   18.5214 C   0  0  0  0  0  0  0  0  0  0  0  0
   10.8970  -16.8831   19.7303 C   0  0  0  0  0  0  0  0  0  0  0  0
   11.5310  -15.8233   19.9904 O   0  0  0  0  0  0  0  0  0  0  0  0
    7.6961  -14.9014   19.6466 C   0  0  0  0  0  0  0  0  0  0  0  0
    7.6938  -15.6414   20.9675 C   0  0  2  0  0  0  0  0  0  0  0  0
    7.1835  -14.6734   22.0384 C   0  0  0  0  0  0  0  0  0  0  0  0
    9.0901  -16.0446   21.2968 C   0  0  2  0  0  0  0  0  0  0  0  0
    9.6371  -17.0149   20.3806 N   0  0  0  0  0  0  0  0  0  0  0  0
    9.3118  -16.4848   22.6664 C   0  0  0  0  0  0  0  0  0  0  0  0
    9.6239  -17.6890   22.8676 O   0  0  0  0  0  0  0  0  0  0  0  0
    9.1942  -15.6197   23.8054 N   0  0  0  0  0  0  0  0  0  0  0  0
    9.5739  -16.1379   25.0921 C   0  0  1  0  0  0  0  0  0  0  0  0
    9.5023  -15.0842   26.1738 C   0  0  0  0  0  0  0  0  0  0  0  0
    8.1370  -14.5222   26.2097 C   0  0  0  0  0  0  0  0  0  0  0  0
    6.9617  -15.1932   25.9505 C   0  0  0  0  0  0  0  0  0  0  0  0
    5.9129  -14.3315   26.0795 N   0  0  0  0  0  0  0  0  0  0  0  0
    6.3903  -13.1174   26.4172 C   0  0  0  0  0  0  0  0  0  0  0  0
    5.7139  -11.9423   26.6516 C   0  0  0  0  0  0  0  0  0  0  0  0
    6.4427  -10.8183   26.9852 C   0  0  0  0  0  0  0  0  0  0  0  0
    7.8262  -10.8991   27.0755 C   0  0  0  0  0  0  0  0  0  0  0  0
    8.4760  -12.0804   26.8376 C   0  0  0  0  0  0  0  0  0  0  0  0
    7.7753  -13.2224   26.5017 C   0  0  0  0  0  0  0  0  0  0  0  0
    8.7016  -17.3110   25.4213 C   0  0  0  0  0  0  0  0  0  0  0  0
    7.6186  -17.4320   24.8130 O   0  0  0  0  0  0  0  0  0  0  0  0
    9.0795  -18.2534   26.3826 O   0  0  0  0  0  0  0  0  0  0  0  0
  2  3  1  0
  2  1  1  6
  4  3  1  0
  5  4  2  0
  6  5  1  0
  7  6  2  0
  7  8  1  0
  8  9  2  0
  9  4  1  0
 10 16  1  0
 10  2  1  0
 11 10  2  0
 13 14  1  1
 13 12  1  0
 15 13  1  0
 15 16  1  6
 17 15  1  0
 17 18  2  0
 19 17  1  0
 20 21  1  1
 20 19  1  0
 22 21  1  0
 22 30  1  0
 23 22  2  0
 24 23  1  0
 24 25  1  0
 25 26  1  0
 25 30  2  0
 26 27  2  0
 27 28  1  0
 29 28  2  0
 30 29  1  0
 31 20  1  0
 31 33  1  0
 32 31  2  0
M  END
$$$$
