FVW.pdb
     RDKit          3D

 33 35  0  0  1  0  0  0  0  0999 V2000
    8.0717  -17.4004   17.0109 N   0  0  0  0  0  0  0  0  0  0  0  0
    8.3596  -16.3572   18.0022 C   0  0  1  0  0  0  0  0  0  0  0  0
    7.2250  -15.3889   18.0228 C   0  0  0  0  0  0  0  0  0  0  0  0
    7.4536  -14.3821   19.0909 C   0  0  0  0  0  0  0  0  0  0  0  0
    6.8884  -14.5638   20.3350 C   0  0  0  0  0  0  0  0  0  0  0  0
    7.1071  -13.6417   21.3262 C   0  0  0  0  0  0  0  0  0  0  0  0
    7.8810  -12.5256   21.1227 C   0  0  0  0  0  0  0  0  0  0  0  0
    8.4387  -12.3644   19.8646 C   0  0  0  0  0  0  0  0  0  0  0  0
    8.2342  -13.2746   18.8548 C   0  0  0  0  0  0  0  0  0  0  0  0
    8.6310  -17.0336   19.2901 C   0  0  0  0  0  0  0  0  0  0  0  0
    7.8156  -17.8372   19.8212 O   0  0  0  0  0  0  0  0  0  0  0  0
   11.0458  -19.4874   19.9258 C   0  0  0  0  0  0  0  0  0  0  0  0
   11.4011  -18.4485   20.9683 C   0  0  2  0  0  0  0  0  0  0  0  0
   11.7255  -19.1902   22.2678 C   0  0  0  0  0  0  0  0  0  0  0  0
   10.2218  -17.5647   21.1897 C   0  0  2  0  0  0  0  0  0  0  0  0
    9.8366  -16.8193   20.0167 N   0  0  0  0  0  0  0  0  0  0  0  0
   10.3134  -16.6674   22.3322 C   0  0  0  0  0  0  0  0  0  0  0  0
   10.8395  -15.5345   22.1659 O   0  0  0  0  0  0  0  0  0  0  0  0
    9.8357  -17.0027   23.6431 N   0  0  0  0  0  0  0  0  0  0  0  0
   10.0869  -16.0757   24.7137 C   0  0  1  0  0  0  0  0  0  0  0  0
    9.4032  -14.7464   24.4877 C   0  0  0  0  0  0  0  0  0  0  0  0
    8.1561  -14.7053   25.2776 C   0  0  0  0  0  0  0  0  0  0  0  0
    7.2483  -15.7292   25.4400 C   0  0  0  0  0  0  0  0  0  0  0  0
    6.2251  -15.3027   26.2339 N   0  0  0  0  0  0  0  0  0  0  0  0
    6.4565  -14.0228   26.5864 C   0  0  0  0  0  0  0  0  0  0  0  0
    5.7054  -13.1793   27.3723 C   0  0  0  0  0  0  0  0  0  0  0  0
    6.1640  -11.8946   27.5847 C   0  0  0  0  0  0  0  0  0  0  0  0
    7.3596  -11.4882   27.0067 C   0  0  0  0  0  0  0  0  0  0  0  0
    8.0889  -12.3467   26.2285 C   0  0  0  0  0  0  0  0  0  0  0  0
    7.6569  -13.6381   25.9971 C   0  0  0  0  0  0  0  0  0  0  0  0
    9.6509  -16.6952   26.0065 C   0  0  0  0  0  0  0  0  0  0  0  0
    8.9181  -17.7045   25.9614 O   0  0  0  0  0  0  0  0  0  0  0  0
   10.0480  -16.1667   27.2386 O   0  0  0  0  0  0  0  0  0  0  0  0
  2  3  1  0
  2  1  1  6
  4  3  1  0
  5  4  2  0
  6  5  1  0
  7  6  2  0
  7  8  1  0
  8  9  2  0
  9  4  1  0
 10 16  1  0
 10  2  1  0
 11 10  2  0
 13 14  1  1
 13 12  1  0
 15 13  1  0
 15 16  1  6
 17 15  1  0
 17 18  2  0
 19 17  1  0
 20 21  1  6
 20 19  1  0
 22 21  1  0
 22 30  1  0
 23 22  2  0
 24 23  1  0
 24 25  1  0
 25 26  1  0
 25 30  2  0
 26 27  2  0
 27 28  1  0
 29 28  2  0
 30 29  1  0
 31 20  1  0
 31 33  1  0
 32 31  2  0
M  END
$$$$
