FVW.pdb
     RDKit          3D

 33 35  0  0  1  0  0  0  0  0999 V2000
    6.2448  -19.6929   20.1313 N   0  0  0  0  0  0  0  0  0  0  0  0
    6.5536  -19.1849   21.4732 C   0  0  1  0  0  0  0  0  0  0  0  0
    7.0672  -20.3109   22.3059 C   0  0  0  0  0  0  0  0  0  0  0  0
    7.2816  -19.8387   23.6979 C   0  0  0  0  0  0  0  0  0  0  0  0
    8.5638  -19.7108   24.1874 C   0  0  0  0  0  0  0  0  0  0  0  0
    8.7649  -19.2641   25.4683 C   0  0  0  0  0  0  0  0  0  0  0  0
    7.7195  -18.9340   26.2955 C   0  0  0  0  0  0  0  0  0  0  0  0
    6.4400  -19.0706   25.7816 C   0  0  0  0  0  0  0  0  0  0  0  0
    6.2126  -19.5160   24.5011 C   0  0  0  0  0  0  0  0  0  0  0  0
    7.4862  -18.0474   21.3116 C   0  0  0  0  0  0  0  0  0  0  0  0
    8.5241  -18.1152   20.5969 O   0  0  0  0  0  0  0  0  0  0  0  0
    6.2300  -14.5562   20.2447 C   0  0  0  0  0  0  0  0  0  0  0  0
    7.0708  -14.3977   21.4938 C   0  0  2  0  0  0  0  0  0  0  0  0
    7.9204  -13.1356   21.3217 C   0  0  0  0  0  0  0  0  0  0  0  0
    7.9695  -15.5794   21.6233 C   0  0  2  0  0  0  0  0  0  0  0  0
    7.2707  -16.7963   21.9565 N   0  0  0  0  0  0  0  0  0  0  0  0
    9.1087  -15.4094   22.5132 C   0  0  0  0  0  0  0  0  0  0  0  0
    9.9000  -14.4520   22.3003 O   0  0  0  0  0  0  0  0  0  0  0  0
    9.3821  -16.2753   23.6244 N   0  0  0  0  0  0  0  0  0  0  0  0
   10.4844  -15.9439   24.4867 C   0  0  1  0  0  0  0  0  0  0  0  0
   10.3422  -14.5639   25.0876 C   0  0  0  0  0  0  0  0  0  0  0  0
    9.0763  -14.4962   25.8452 C   0  0  0  0  0  0  0  0  0  0  0  0
    8.5879  -15.4406   26.7217 C   0  0  0  0  0  0  0  0  0  0  0  0
    7.3890  -15.0196   27.2158 N   0  0  0  0  0  0  0  0  0  0  0  0
    7.0953  -13.8211   26.6741 C   0  0  0  0  0  0  0  0  0  0  0  0
    5.9977  -13.0146   26.8697 C   0  0  0  0  0  0  0  0  0  0  0  0
    5.9298  -11.8176   26.1854 C   0  0  0  0  0  0  0  0  0  0  0  0
    6.9597  -11.4593   25.3252 C   0  0  0  0  0  0  0  0  0  0  0  0
    8.0416  -12.2792   25.1478 C   0  0  0  0  0  0  0  0  0  0  0  0
    8.1388  -13.4832   25.8179 C   0  0  0  0  0  0  0  0  0  0  0  0
   10.5990  -16.9893   25.5540 C   0  0  0  0  0  0  0  0  0  0  0  0
    9.6616  -17.8020   25.6891 O   0  0  0  0  0  0  0  0  0  0  0  0
   11.7220  -17.0639   26.3838 O   0  0  0  0  0  0  0  0  0  0  0  0
  2  3  1  0
  2  1  1  6
  4  3  1  0
  5  4  2  0
  6  5  1  0
  7  6  2  0
  7  8  1  0
  8  9  2  0
  9  4  1  0
 10 16  1  0
 10  2  1  0
 11 10  2  0
 13 14  1  6
 13 12  1  0
 15 13  1  0
 15 16  1  1
 17 15  1  0
 17 18  2  0
 19 17  1  0
 20 21  1  1
 20 19  1  0
 22 21  1  0
 22 30  1  0
 23 22  2  0
 24 23  1  0
 24 25  1  0
 25 26  1  0
 25 30  2  0
 26 27  2  0
 27 28  1  0
 29 28  2  0
 30 29  1  0
 31 20  1  0
 31 33  1  0
 32 31  2  0
M  END
$$$$
