FVW.pdb
     RDKit          3D

 33 35  0  0  1  0  0  0  0  0999 V2000
    6.8137  -17.1822   18.1995 N   0  0  0  0  0  0  0  0  0  0  0  0
    8.0258  -17.3676   19.0060 C   0  0  1  0  0  0  0  0  0  0  0  0
    8.9566  -16.2324   18.7407 C   0  0  0  0  0  0  0  0  0  0  0  0
    8.3548  -14.9715   19.2452 C   0  0  0  0  0  0  0  0  0  0  0  0
    8.9936  -14.2566   20.2357 C   0  0  0  0  0  0  0  0  0  0  0  0
    8.4461  -13.0863   20.6953 C   0  0  0  0  0  0  0  0  0  0  0  0
    7.2657  -12.5914   20.1976 C   0  0  0  0  0  0  0  0  0  0  0  0
    6.6420  -13.3270   19.2027 C   0  0  0  0  0  0  0  0  0  0  0  0
    7.1708  -14.5027   18.7254 C   0  0  0  0  0  0  0  0  0  0  0  0
    7.6008  -17.5146   20.4158 C   0  0  0  0  0  0  0  0  0  0  0  0
    6.5617  -16.9638   20.8738 O   0  0  0  0  0  0  0  0  0  0  0  0
    6.3612  -20.2341   22.3863 C   0  0  0  0  0  0  0  0  0  0  0  0
    7.6328  -19.8444   23.1098 C   0  0  2  0  0  0  0  0  0  0  0  0
    7.3485  -19.9121   24.6127 C   0  0  0  0  0  0  0  0  0  0  0  0
    7.9880  -18.4449   22.7409 C   0  0  2  0  0  0  0  0  0  0  0  0
    8.3419  -18.2913   21.3512 N   0  0  0  0  0  0  0  0  0  0  0  0
    8.9971  -17.8104   23.5763 C   0  0  0  0  0  0  0  0  0  0  0  0
   10.2117  -18.0348   23.3267 O   0  0  0  0  0  0  0  0  0  0  0  0
    8.6842  -16.9398   24.6733 N   0  0  0  0  0  0  0  0  0  0  0  0
    9.7711  -16.4292   25.4647 C   0  0  1  0  0  0  0  0  0  0  0  0
    9.6833  -14.9317   25.6535 C   0  0  0  0  0  0  0  0  0  0  0  0
    8.2623  -14.5293   25.6605 C   0  0  0  0  0  0  0  0  0  0  0  0
    7.1701  -15.3560   25.5110 C   0  0  0  0  0  0  0  0  0  0  0  0
    6.0297  -14.6107   25.5677 N   0  0  0  0  0  0  0  0  0  0  0  0
    6.3665  -13.3188   25.7511 C   0  0  0  0  0  0  0  0  0  0  0  0
    5.5608  -12.2095   25.8667 C   0  0  0  0  0  0  0  0  0  0  0  0
    6.1577  -10.9783   26.0498 C   0  0  0  0  0  0  0  0  0  0  0  0
    7.5422  -10.8892   26.1124 C   0  0  0  0  0  0  0  0  0  0  0  0
    8.3223  -12.0081   25.9947 C   0  0  0  0  0  0  0  0  0  0  0  0
    7.7553  -13.2541   25.8107 C   0  0  0  0  0  0  0  0  0  0  0  0
    9.7893  -17.1404   26.7834 C   0  0  0  0  0  0  0  0  0  0  0  0
    8.7761  -17.7858   27.1215 O   0  0  0  0  0  0  0  0  0  0  0  0
   10.9064  -17.0909   27.6230 O   0  0  0  0  0  0  0  0  0  0  0  0
  2  3  1  0
  2  1  1  6
  4  3  1  0
  5  4  2  0
  6  5  1  0
  7  6  2  0
  7  8  1  0
  8  9  2  0
  9  4  1  0
 10 16  1  0
 10  2  1  0
 11 10  2  0
 13 14  1  1
 13 12  1  0
 15 13  1  0
 15 16  1  6
 17 15  1  0
 17 18  2  0
 19 17  1  0
 20 21  1  1
 20 19  1  0
 22 21  1  0
 22 30  1  0
 23 22  2  0
 24 23  1  0
 24 25  1  0
 25 26  1  0
 25 30  2  0
 26 27  2  0
 27 28  1  0
 29 28  2  0
 30 29  1  0
 31 20  1  0
 31 33  1  0
 32 31  2  0
M  END
$$$$
