FVW.pdb
     RDKit          3D

 33 35  0  0  1  0  0  0  0  0999 V2000
    6.9748  -17.9345   19.4692 N   0  0  0  0  0  0  0  0  0  0  0  0
    7.4744  -16.7674   20.2057 C   0  0  1  0  0  0  0  0  0  0  0  0
    6.3261  -15.8656   20.5113 C   0  0  0  0  0  0  0  0  0  0  0  0
    6.8211  -14.6578   21.2203 C   0  0  0  0  0  0  0  0  0  0  0  0
    6.9559  -14.6764   22.5920 C   0  0  0  0  0  0  0  0  0  0  0  0
    7.4235  -13.5666   23.2480 C   0  0  0  0  0  0  0  0  0  0  0  0
    7.7683  -12.4181   22.5785 C   0  0  0  0  0  0  0  0  0  0  0  0
    7.6246  -12.4230   21.2004 C   0  0  0  0  0  0  0  0  0  0  0  0
    7.1582  -13.5228   20.5201 C   0  0  0  0  0  0  0  0  0  0  0  0
    8.2087  -17.2713   21.3875 C   0  0  0  0  0  0  0  0  0  0  0  0
    7.7595  -18.1908   22.1260 O   0  0  0  0  0  0  0  0  0  0  0  0
   12.3586  -16.3073   21.8275 C   0  0  0  0  0  0  0  0  0  0  0  0
   11.7209  -17.6238   22.2178 C   0  0  2  0  0  0  0  0  0  0  0  0
   11.6219  -18.4819   20.9537 C   0  0  0  0  0  0  0  0  0  0  0  0
   10.3501  -17.3598   22.7395 C   0  0  2  0  0  0  0  0  0  0  0  0
    9.4764  -16.7473   21.7692 N   0  0  0  0  0  0  0  0  0  0  0  0
   10.2847  -16.6219   23.9924 C   0  0  0  0  0  0  0  0  0  0  0  0
   10.6178  -15.4066   23.9923 O   0  0  0  0  0  0  0  0  0  0  0  0
    9.8599  -17.2041   25.2334 N   0  0  0  0  0  0  0  0  0  0  0  0
   10.1516  -16.4945   26.4499 C   0  0  1  0  0  0  0  0  0  0  0  0
    8.9270  -16.3315   27.3214 C   0  0  0  0  0  0  0  0  0  0  0  0
    7.8973  -15.5849   26.5709 C   0  0  0  0  0  0  0  0  0  0  0  0
    6.8547  -16.1198   25.8459 C   0  0  0  0  0  0  0  0  0  0  0  0
    6.1249  -15.1094   25.2932 N   0  0  0  0  0  0  0  0  0  0  0  0
    6.6777  -13.9328   25.6485 C   0  0  0  0  0  0  0  0  0  0  0  0
    6.2928  -12.6506   25.3306 C   0  0  0  0  0  0  0  0  0  0  0  0
    7.0373  -11.5982   25.8242 C   0  0  0  0  0  0  0  0  0  0  0  0
    8.1451  -11.8554   26.6214 C   0  0  0  0  0  0  0  0  0  0  0  0
    8.5076  -13.1405   26.9236 C   0  0  0  0  0  0  0  0  0  0  0  0
    7.7833  -14.2149   26.4450 C   0  0  0  0  0  0  0  0  0  0  0  0
   11.2447  -17.2119   27.1818 C   0  0  0  0  0  0  0  0  0  0  0  0
   11.5929  -18.3373   26.7698 O   0  0  0  0  0  0  0  0  0  0  0  0
   11.8673  -16.6461   28.2987 O   0  0  0  0  0  0  0  0  0  0  0  0
  2  3  1  0
  2  1  1  1
  4  3  1  0
  5  4  2  0
  6  5  1  0
  7  6  2  0
  7  8  1  0
  8  9  2  0
  9  4  1  0
 10 16  1  0
 10  2  1  0
 11 10  2  0
 13 14  1  6
 13 12  1  0
 15 13  1  0
 15 16  1  6
 17 15  1  0
 17 18  2  0
 19 17  1  0
 20 21  1  1
 20 19  1  0
 22 21  1  0
 22 30  1  0
 23 22  2  0
 24 23  1  0
 24 25  1  0
 25 26  1  0
 25 30  2  0
 26 27  2  0
 27 28  1  0
 29 28  2  0
 30 29  1  0
 31 20  1  0
 31 33  1  0
 32 31  2  0
M  END
$$$$
