NCA.pdb
     RDKit          3D

 20 19  0  0  1  0  0  0  0  0999 V2000
   19.3092  -14.9570  -18.3826 N   0  0  0  0  0  0  0  0  0  0  0  0
   19.4563  -13.5564  -18.6828 C   0  0  0  0  0  0  0  0  0  0  0  0
   18.9948  -13.1675  -19.7614 O   0  0  0  0  0  0  0  0  0  0  0  0
   20.1304  -12.7304  -17.6962 C   0  0  0  0  0  0  0  0  0  0  0  0
   20.1435  -11.2477  -17.9275 C   0  0  2  0  0  0  0  0  0  0  0  0
   21.0677  -11.0276  -19.0816 N   0  0  0  0  0  0  0  0  0  0  0  0
   20.6802  -10.4458  -16.8252 C   0  0  0  0  0  0  0  0  0  0  0  0
   20.1575  -10.6190  -15.6659 O   0  0  0  0  0  0  0  0  0  0  0  0
   21.7168   -9.5021  -16.8952 N   0  0  0  0  0  0  0  0  0  0  0  0
   22.2069   -8.8283  -15.6865 C   0  0  1  0  0  0  0  0  0  0  0  0
   23.7061   -9.0548  -15.5888 C   0  0  0  0  0  0  0  0  0  0  0  0
   24.0716  -10.6413  -14.8268 S   0  0  0  0  0  0  0  0  0  0  0  0
   21.8371   -7.4017  -15.8134 C   0  0  0  0  0  0  0  0  0  0  0  0
   22.0183   -6.8128  -16.9273 O   0  0  0  0  0  0  0  0  0  0  0  0
   19.6773   -4.7974  -14.3370 C   0  0  0  0  0  0  0  0  0  0  0  0
   20.9503   -5.2097  -15.0364 C   0  0  2  0  0  0  0  0  0  0  0  0
   21.2802   -6.6026  -14.7786 N   0  0  0  0  0  0  0  0  0  0  0  0
   22.0354   -4.3627  -14.4966 C   0  0  0  0  0  0  0  0  0  0  0  0
   22.7973   -4.8174  -13.6156 O   0  0  0  0  0  0  0  0  0  0  0  0
   22.2167   -3.0717  -14.9560 O   0  0  0  0  0  0  0  0  0  0  0  0
  1  2  1  0
  2  3  2  0
  4  2  1  0
  5  7  1  0
  5  4  1  0
  5  6  1  6
  7  8  2  0
  9 10  1  0
  9  7  1  0
 10 13  1  0
 11 12  1  0
 10 11  1  6
 13 17  1  0
 13 14  2  0
 16 15  1  1
 16 18  1  0
 17 16  1  0
 18 19  2  0
 18 20  1  0
M  END
$$$$
