NCA.pdb
     RDKit          3D

 20 19  0  0  1  0  0  0  0  0999 V2000
   15.6040  -12.0210  -12.7196 N   0  0  0  0  0  0  0  0  0  0  0  0
   15.4240  -12.0101  -11.2911 C   0  0  0  0  0  0  0  0  0  0  0  0
   14.8403  -12.9810  -10.7968 O   0  0  0  0  0  0  0  0  0  0  0  0
   15.9418  -10.8650  -10.5627 C   0  0  0  0  0  0  0  0  0  0  0  0
   16.6156   -9.7857  -11.3585 C   0  0  2  0  0  0  0  0  0  0  0  0
   18.0079  -10.2727  -11.6011 N   0  0  0  0  0  0  0  0  0  0  0  0
   16.7547   -8.4970  -10.6756 C   0  0  0  0  0  0  0  0  0  0  0  0
   17.6053   -8.4308   -9.7168 O   0  0  0  0  0  0  0  0  0  0  0  0
   16.0573   -7.3125  -10.9590 N   0  0  0  0  0  0  0  0  0  0  0  0
   16.2901   -6.0935  -10.1745 C   0  0  1  0  0  0  0  0  0  0  0  0
   16.5059   -4.9397  -11.1391 C   0  0  0  0  0  0  0  0  0  0  0  0
   16.5254   -3.3661  -10.2702 S   0  0  0  0  0  0  0  0  0  0  0  0
   15.1086   -5.9149   -9.3027 C   0  0  0  0  0  0  0  0  0  0  0  0
   13.9508   -6.1564   -9.7733 O   0  0  0  0  0  0  0  0  0  0  0  0
   14.1565   -5.1649   -5.7248 C   0  0  0  0  0  0  0  0  0  0  0  0
   13.9050   -5.3280   -7.2046 C   0  0  2  0  0  0  0  0  0  0  0  0
   15.1451   -5.4879   -7.9477 N   0  0  0  0  0  0  0  0  0  0  0  0
   13.2352   -4.0943   -7.6690 C   0  0  0  0  0  0  0  0  0  0  0  0
   13.8682   -3.2681   -8.3618 O   0  0  0  0  0  0  0  0  0  0  0  0
   11.9150   -3.8444   -7.3450 O   0  0  0  0  0  0  0  0  0  0  0  0
  1  2  1  0
  2  3  2  0
  4  2  1  0
  5  7  1  0
  5  4  1  0
  5  6  1  1
  7  8  2  0
  9 10  1  0
  9  7  1  0
 10 13  1  0
 11 12  1  0
 10 11  1  6
 13 17  1  0
 13 14  2  0
 16 15  1  1
 16 18  1  0
 17 16  1  0
 18 19  2  0
 18 20  1  0
M  END
$$$$
