NCA.pdb
     RDKit          3D

 20 19  0  0  1  0  0  0  0  0999 V2000
   20.3324  -16.6833  -16.3242 N   0  0  0  0  0  0  0  0  0  0  0  0
   19.5568  -15.7924  -15.5008 C   0  0  0  0  0  0  0  0  0  0  0  0
   19.1881  -16.2280  -14.4045 O   0  0  0  0  0  0  0  0  0  0  0  0
   19.2787  -14.4684  -16.0298 C   0  0  0  0  0  0  0  0  0  0  0  0
   17.9156  -13.8942  -15.7761 C   0  0  2  0  0  0  0  0  0  0  0  0
   16.9940  -14.6173  -16.7047 N   0  0  0  0  0  0  0  0  0  0  0  0
   17.7662  -12.4710  -16.0904 C   0  0  0  0  0  0  0  0  0  0  0  0
   17.4388  -12.1679  -17.2937 O   0  0  0  0  0  0  0  0  0  0  0  0
   17.9387  -11.3905  -15.2115 N   0  0  0  0  0  0  0  0  0  0  0  0
   17.6744  -10.0136  -15.6472 C   0  0  1  0  0  0  0  0  0  0  0  0
   16.5727   -9.4398  -14.7724 C   0  0  0  0  0  0  0  0  0  0  0  0
   14.9946  -10.2267  -15.1214 S   0  0  0  0  0  0  0  0  0  0  0  0
   18.9530   -9.2782  -15.5367 C   0  0  0  0  0  0  0  0  0  0  0  0
   19.6235   -9.3624  -14.4580 O   0  0  0  0  0  0  0  0  0  0  0  0
   21.3554   -7.2076  -17.5938 C   0  0  0  0  0  0  0  0  0  0  0  0
   20.7994   -7.8065  -16.3242 C   0  0  2  0  0  0  0  0  0  0  0  0
   19.5217   -8.4629  -16.5524 N   0  0  0  0  0  0  0  0  0  0  0  0
   20.5918   -6.6927  -15.3741 C   0  0  0  0  0  0  0  0  0  0  0  0
   21.5768   -6.0595  -14.9359 O   0  0  0  0  0  0  0  0  0  0  0  0
   19.3186   -6.3436  -14.9646 O   0  0  0  0  0  0  0  0  0  0  0  0
  1  2  1  0
  2  3  2  0
  4  2  1  0
  5  7  1  0
  5  4  1  0
  5  6  1  6
  7  8  2  0
  9 10  1  0
  9  7  1  0
 10 13  1  0
 11 12  1  0
 10 11  1  1
 13 17  1  0
 13 14  2  0
 16 15  1  6
 16 18  1  0
 17 16  1  0
 18 19  2  0
 18 20  1  0
M  END
$$$$
