NCA.pdb
     RDKit          3D

 20 19  0  0  1  0  0  0  0  0999 V2000
   18.2249  -11.6488  -19.0864 N   0  0  0  0  0  0  0  0  0  0  0  0
   17.3946  -10.4866  -18.9041 C   0  0  0  0  0  0  0  0  0  0  0  0
   16.5506  -10.2635  -19.7790 O   0  0  0  0  0  0  0  0  0  0  0  0
   17.6222   -9.6849  -17.7143 C   0  0  0  0  0  0  0  0  0  0  0  0
   18.7087  -10.1279  -16.7787 C   0  0  2  0  0  0  0  0  0  0  0  0
   18.1034  -11.2068  -15.9396 N   0  0  0  0  0  0  0  0  0  0  0  0
   19.1823   -9.1077  -15.8399 C   0  0  0  0  0  0  0  0  0  0  0  0
   18.4437   -8.8623  -14.8195 O   0  0  0  0  0  0  0  0  0  0  0  0
   20.3691   -8.3639  -15.9306 N   0  0  0  0  0  0  0  0  0  0  0  0
   20.7523   -7.4222  -14.8714 C   0  0  1  0  0  0  0  0  0  0  0  0
   22.1824   -7.7256  -14.4580 C   0  0  0  0  0  0  0  0  0  0  0  0
   22.8046   -6.4799  -13.3211 S   0  0  0  0  0  0  0  0  0  0  0  0
   20.5791   -6.0621  -15.4265 C   0  0  0  0  0  0  0  0  0  0  0  0
   20.9788   -5.8222  -16.6110 O   0  0  0  0  0  0  0  0  0  0  0  0
   18.6298   -2.9330  -14.9564 C   0  0  0  0  0  0  0  0  0  0  0  0
   19.8622   -3.6786  -15.4091 C   0  0  2  0  0  0  0  0  0  0  0  0
   19.9892   -4.9650  -14.7423 N   0  0  0  0  0  0  0  0  0  0  0  0
   21.0296   -2.8458  -15.0486 C   0  0  0  0  0  0  0  0  0  0  0  0
   21.8322   -3.2466  -14.1777 O   0  0  0  0  0  0  0  0  0  0  0  0
   21.2433   -1.6272  -15.6650 O   0  0  0  0  0  0  0  0  0  0  0  0
  1  2  1  0
  2  3  2  0
  4  2  1  0
  5  7  1  0
  5  4  1  0
  5  6  1  1
  7  8  2  0
  9 10  1  0
  9  7  1  0
 10 13  1  0
 11 12  1  0
 10 11  1  6
 13 17  1  0
 13 14  2  0
 16 15  1  1
 16 18  1  0
 17 16  1  0
 18 19  2  0
 18 20  1  0
M  END
$$$$
