NCA.pdb
     RDKit          3D

 20 19  0  0  1  0  0  0  0  0999 V2000
   13.8372  -14.9027  -14.2507 N   0  0  0  0  0  0  0  0  0  0  0  0
   13.9393  -13.6652  -14.9797 C   0  0  0  0  0  0  0  0  0  0  0  0
   13.1714  -13.5189  -15.9371 O   0  0  0  0  0  0  0  0  0  0  0  0
   14.9306  -12.7047  -14.5271 C   0  0  0  0  0  0  0  0  0  0  0  0
   15.6308  -11.8877  -15.5732 C   0  0  2  0  0  0  0  0  0  0  0  0
   16.5439  -12.8360  -16.2814 N   0  0  0  0  0  0  0  0  0  0  0  0
   16.4861  -10.8139  -15.0617 C   0  0  0  0  0  0  0  0  0  0  0  0
   16.5786  -10.6953  -13.7871 O   0  0  0  0  0  0  0  0  0  0  0  0
   17.2273   -9.8930  -15.8182 N   0  0  0  0  0  0  0  0  0  0  0  0
   18.1128   -8.9200  -15.1665 C   0  0  1  0  0  0  0  0  0  0  0  0
   19.5238   -9.1361  -15.6867 C   0  0  0  0  0  0  0  0  0  0  0  0
   20.3457  -10.4622  -14.7938 S   0  0  0  0  0  0  0  0  0  0  0  0
   17.5735   -7.5779  -15.4760 C   0  0  0  0  0  0  0  0  0  0  0  0
   17.2940   -7.2873  -16.6834 O   0  0  0  0  0  0  0  0  0  0  0  0
   15.8870   -4.6675  -13.8964 C   0  0  0  0  0  0  0  0  0  0  0  0
   16.7710   -5.2799  -14.9561 C   0  0  2  0  0  0  0  0  0  0  0  0
   17.3288   -6.5517  -14.5238 N   0  0  0  0  0  0  0  0  0  0  0  0
   17.8838   -4.3351  -15.1915 C   0  0  0  0  0  0  0  0  0  0  0  0
   19.0358   -4.6238  -14.8004 O   0  0  0  0  0  0  0  0  0  0  0  0
   17.6638   -3.1344  -15.8399 O   0  0  0  0  0  0  0  0  0  0  0  0
  1  2  1  0
  2  3  2  0
  4  2  1  0
  5  7  1  0
  5  4  1  0
  5  6  1  1
  7  8  2  0
  9 10  1  0
  9  7  1  0
 10 13  1  0
 11 12  1  0
 10 11  1  6
 13 17  1  0
 13 14  2  0
 16 15  1  1
 16 18  1  0
 17 16  1  0
 18 19  2  0
 18 20  1  0
M  END
$$$$
