NCA.pdb
     RDKit          3D

 20 19  0  0  1  0  0  0  0  0999 V2000
   12.7225   -5.7670   -7.8944 N   0  0  0  0  0  0  0  0  0  0  0  0
   13.8788   -6.0016   -7.0689 C   0  0  0  0  0  0  0  0  0  0  0  0
   13.8937   -5.4496   -5.9632 O   0  0  0  0  0  0  0  0  0  0  0  0
   14.9186   -6.8613   -7.6071 C   0  0  0  0  0  0  0  0  0  0  0  0
   14.6931   -7.4511   -8.9686 C   0  0  2  0  0  0  0  0  0  0  0  0
   13.8964   -8.6955   -8.7423 N   0  0  0  0  0  0  0  0  0  0  0  0
   15.9038   -7.8731   -9.6775 C   0  0  0  0  0  0  0  0  0  0  0  0
   16.4130   -9.0035   -9.3459 O   0  0  0  0  0  0  0  0  0  0  0  0
   16.5736   -7.1736  -10.6933 N   0  0  0  0  0  0  0  0  0  0  0  0
   17.6832   -7.7915  -11.4299 C   0  0  1  0  0  0  0  0  0  0  0  0
   17.1043   -8.5724  -12.5974 C   0  0  0  0  0  0  0  0  0  0  0  0
   15.8172   -7.6324  -13.4288 S   0  0  0  0  0  0  0  0  0  0  0  0
   18.5820   -6.6935  -11.8477 C   0  0  0  0  0  0  0  0  0  0  0  0
   18.0762   -5.5759  -12.1873 O   0  0  0  0  0  0  0  0  0  0  0  0
   22.2465   -5.8161  -12.1618 C   0  0  0  0  0  0  0  0  0  0  0  0
   20.7669   -5.6400  -12.4057 C   0  0  2  0  0  0  0  0  0  0  0  0
   19.9998   -6.7702  -11.9059 N   0  0  0  0  0  0  0  0  0  0  0  0
   20.5760   -5.5537  -13.8694 C   0  0  0  0  0  0  0  0  0  0  0  0
   20.1308   -6.5398  -14.4960 O   0  0  0  0  0  0  0  0  0  0  0  0
   20.8851   -4.3929  -14.5533 O   0  0  0  0  0  0  0  0  0  0  0  0
  1  2  1  0
  2  3  2  0
  4  2  1  0
  5  7  1  0
  5  4  1  0
  5  6  1  1
  7  8  2  0
  9 10  1  0
  9  7  1  0
 10 13  1  0
 11 12  1  0
 10 11  1  6
 13 17  1  0
 13 14  2  0
 16 15  1  6
 16 18  1  0
 17 16  1  0
 18 19  2  0
 18 20  1  0
M  END
$$$$
