NCA.pdb
     RDKit          3D

 20 19  0  0  1  0  0  0  0  0999 V2000
   13.3556  -12.5399  -17.8322 N   0  0  0  0  0  0  0  0  0  0  0  0
   14.6369  -11.9044  -17.9987 C   0  0  0  0  0  0  0  0  0  0  0  0
   15.0467  -11.7745  -19.1575 O   0  0  0  0  0  0  0  0  0  0  0  0
   15.3294  -11.4752  -16.7961 C   0  0  0  0  0  0  0  0  0  0  0  0
   16.8284  -11.4210  -16.8426 C   0  0  2  0  0  0  0  0  0  0  0  0
   17.2973  -12.7104  -16.2493 N   0  0  0  0  0  0  0  0  0  0  0  0
   17.4429  -10.3622  -16.0379 C   0  0  0  0  0  0  0  0  0  0  0  0
   17.9317  -10.6997  -14.9003 O   0  0  0  0  0  0  0  0  0  0  0  0
   17.5622   -9.0058  -16.3781 N   0  0  0  0  0  0  0  0  0  0  0  0
   18.3101   -8.0761  -15.5226 C   0  0  1  0  0  0  0  0  0  0  0  0
   19.7601   -8.5277  -15.4810 C   0  0  0  0  0  0  0  0  0  0  0  0
   20.7976   -7.2967  -14.6812 S   0  0  0  0  0  0  0  0  0  0  0  0
   18.1332   -6.7267  -16.1021 C   0  0  0  0  0  0  0  0  0  0  0  0
   18.4670   -6.5256  -17.3139 O   0  0  0  0  0  0  0  0  0  0  0  0
   16.2630   -3.5481  -15.4746 C   0  0  0  0  0  0  0  0  0  0  0  0
   17.3455   -4.3659  -16.1373 C   0  0  2  0  0  0  0  0  0  0  0  0
   17.6084   -5.5997  -15.4134 N   0  0  0  0  0  0  0  0  0  0  0  0
   18.5755   -3.5453  -16.1285 C   0  0  0  0  0  0  0  0  0  0  0  0
   19.5626   -3.9145  -15.4557 O   0  0  0  0  0  0  0  0  0  0  0  0
   18.6457   -2.3728  -16.8571 O   0  0  0  0  0  0  0  0  0  0  0  0
  1  2  1  0
  2  3  2  0
  4  2  1  0
  5  7  1  0
  5  4  1  0
  5  6  1  1
  7  8  2  0
  9 10  1  0
  9  7  1  0
 10 13  1  0
 11 12  1  0
 10 11  1  6
 13 17  1  0
 13 14  2  0
 16 15  1  1
 16 18  1  0
 17 16  1  0
 18 19  2  0
 18 20  1  0
M  END
$$$$
