NCA.pdb
     RDKit          3D

 20 19  0  0  1  0  0  0  0  0999 V2000
   24.8707  -22.6709  -17.6122 N   0  0  0  0  0  0  0  0  0  0  0  0
   26.1661  -22.1052  -17.3381 C   0  0  0  0  0  0  0  0  0  0  0  0
   26.2250  -20.8750  -17.2345 O   0  0  0  0  0  0  0  0  0  0  0  0
   27.2819  -23.0263  -17.2088 C   0  0  0  0  0  0  0  0  0  0  0  0
   26.9830  -24.4936  -17.3081 C   0  0  2  0  0  0  0  0  0  0  0  0
   26.4670  -24.8922  -15.9630 N   0  0  0  0  0  0  0  0  0  0  0  0
   28.1411  -25.3535  -17.5645 C   0  0  0  0  0  0  0  0  0  0  0  0
   28.5990  -25.3777  -18.7632 O   0  0  0  0  0  0  0  0  0  0  0  0
   28.8160  -26.1591  -16.6343 N   0  0  0  0  0  0  0  0  0  0  0  0
   30.0310  -26.8918  -17.0116 C   0  0  1  0  0  0  0  0  0  0  0  0
   31.1097  -26.5869  -15.9861 C   0  0  0  0  0  0  0  0  0  0  0  0
   30.9777  -24.8951  -15.3929 S   0  0  0  0  0  0  0  0  0  0  0  0
   29.6653  -28.3239  -17.0689 C   0  0  0  0  0  0  0  0  0  0  0  0
   28.9232  -28.8095  -16.1559 O   0  0  0  0  0  0  0  0  0  0  0  0
   28.2506  -30.7645  -18.6766 C   0  0  0  0  0  0  0  0  0  0  0  0
   29.6121  -30.6144  -18.0414 C   0  0  2  0  0  0  0  0  0  0  0  0
   30.0753  -29.2362  -18.0785 N   0  0  0  0  0  0  0  0  0  0  0  0
   30.5503  -31.4462  -18.8251 C   0  0  0  0  0  0  0  0  0  0  0  0
   31.3538  -30.9006  -19.6124 O   0  0  0  0  0  0  0  0  0  0  0  0
   30.5483  -32.8224  -18.6966 O   0  0  0  0  0  0  0  0  0  0  0  0
  1  2  1  0
  2  3  2  0
  4  2  1  0
  5  7  1  0
  5  4  1  0
  5  6  1  1
  7  8  2  0
  9 10  1  0
  9  7  1  0
 10 13  1  0
 11 12  1  0
 10 11  1  1
 13 17  1  0
 13 14  2  0
 16 15  1  6
 16 18  1  0
 17 16  1  0
 18 19  2  0
 18 20  1  0
M  END
$$$$
