NCA.pdb
     RDKit          3D

 20 19  0  0  1  0  0  0  0  0999 V2000
   26.8576  -23.9002  -15.5881 N   0  0  0  0  0  0  0  0  0  0  0  0
   26.9424  -22.4898  -15.3105 C   0  0  0  0  0  0  0  0  0  0  0  0
   27.7832  -21.8470  -15.9489 O   0  0  0  0  0  0  0  0  0  0  0  0
   26.0370  -21.9518  -14.3100 C   0  0  0  0  0  0  0  0  0  0  0  0
   24.7245  -21.4032  -14.7881 C   0  0  2  0  0  0  0  0  0  0  0  0
   25.0584  -20.1538  -15.5376 N   0  0  0  0  0  0  0  0  0  0  0  0
   23.7914  -21.0008  -13.7328 C   0  0  0  0  0  0  0  0  0  0  0  0
   24.2186  -20.1603  -12.8621 O   0  0  0  0  0  0  0  0  0  0  0  0
   22.4663  -21.4331  -13.5685 N   0  0  0  0  0  0  0  0  0  0  0  0
   21.6247  -20.8951  -12.4925 C   0  0  1  0  0  0  0  0  0  0  0  0
   21.4654  -19.4005  -12.7137 C   0  0  0  0  0  0  0  0  0  0  0  0
   20.5636  -18.6391  -11.3578 S   0  0  0  0  0  0  0  0  0  0  0  0
   20.3445  -21.6343  -12.5419 C   0  0  0  0  0  0  0  0  0  0  0  0
   19.7163  -21.7098  -13.6464 O   0  0  0  0  0  0  0  0  0  0  0  0
   18.1487  -23.8559  -10.4083 C   0  0  0  0  0  0  0  0  0  0  0  0
   18.5202  -23.0686  -11.6419 C   0  0  2  0  0  0  0  0  0  0  0  0
   19.7317  -22.2895  -11.4397 N   0  0  0  0  0  0  0  0  0  0  0  0
   17.4039  -22.1381  -11.9148 C   0  0  0  0  0  0  0  0  0  0  0  0
   17.5172  -20.9292  -11.6167 O   0  0  0  0  0  0  0  0  0  0  0  0
   16.2347  -22.5912  -12.4965 O   0  0  0  0  0  0  0  0  0  0  0  0
  1  2  1  0
  2  3  2  0
  4  2  1  0
  5  7  1  0
  5  4  1  0
  5  6  1  6
  7  8  2  0
  9 10  1  0
  9  7  1  0
 10 13  1  0
 11 12  1  0
 10 11  1  6
 13 17  1  0
 13 14  2  0
 16 15  1  1
 16 18  1  0
 17 16  1  0
 18 19  2  0
 18 20  1  0
M  END
$$$$
