NCA.pdb
     RDKit          3D

 20 19  0  0  1  0  0  0  0  0999 V2000
   25.2040  -35.8955   -9.9809 N   0  0  0  0  0  0  0  0  0  0  0  0
   26.4887  -35.2454   -9.9953 C   0  0  0  0  0  0  0  0  0  0  0  0
   27.2649  -35.5678  -10.9015 O   0  0  0  0  0  0  0  0  0  0  0  0
   26.7560  -34.2740   -8.9489 C   0  0  0  0  0  0  0  0  0  0  0  0
   25.6469  -33.9740   -7.9834 C   0  0  2  0  0  0  0  0  0  0  0  0
   24.9183  -32.8019   -8.5576 N   0  0  0  0  0  0  0  0  0  0  0  0
   26.0754  -33.5631   -6.6441 C   0  0  0  0  0  0  0  0  0  0  0  0
   25.8688  -32.3407   -6.3120 O   0  0  0  0  0  0  0  0  0  0  0  0
   26.6893  -34.3671   -5.6711 N   0  0  0  0  0  0  0  0  0  0  0  0
   26.8984  -33.8717   -4.3050 C   0  0  1  0  0  0  0  0  0  0  0  0
   25.5385  -33.6425   -3.6674 C   0  0  0  0  0  0  0  0  0  0  0  0
   25.7074  -32.9683   -2.0096 S   0  0  0  0  0  0  0  0  0  0  0  0
   27.7110  -34.8883   -3.6021 C   0  0  0  0  0  0  0  0  0  0  0  0
   27.2697  -36.0789   -3.5128 O   0  0  0  0  0  0  0  0  0  0  0  0
   31.0958  -35.4058   -2.0155 C   0  0  0  0  0  0  0  0  0  0  0  0
   29.6429  -35.7248   -2.2742 C   0  0  2  0  0  0  0  0  0  0  0  0
   28.9771  -34.6547   -3.0002 N   0  0  0  0  0  0  0  0  0  0  0  0
   28.9904  -35.8742   -0.9558 C   0  0  0  0  0  0  0  0  0  0  0  0
   28.1159  -35.0545   -0.6001 O   0  0  0  0  0  0  0  0  0  0  0  0
   29.3375  -36.9118   -0.1111 O   0  0  0  0  0  0  0  0  0  0  0  0
  1  2  1  0
  2  3  2  0
  4  2  1  0
  5  7  1  0
  5  4  1  0
  5  6  1  6
  7  8  2  0
  9 10  1  0
  9  7  1  0
 10 13  1  0
 11 12  1  0
 10 11  1  1
 13 17  1  0
 13 14  2  0
 16 15  1  1
 16 18  1  0
 17 16  1  0
 18 19  2  0
 18 20  1  0
M  END
$$$$
