NCA.pdb
     RDKit          3D

 20 19  0  0  1  0  0  0  0  0999 V2000
   16.6927   -9.8537  -17.5164 N   0  0  0  0  0  0  0  0  0  0  0  0
   15.9229   -9.4444  -16.3704 C   0  0  0  0  0  0  0  0  0  0  0  0
   14.6942   -9.5413  -16.4626 O   0  0  0  0  0  0  0  0  0  0  0  0
   16.6556   -8.9568  -15.2148 C   0  0  0  0  0  0  0  0  0  0  0  0
   18.1526   -8.9146  -15.3119 C   0  0  2  0  0  0  0  0  0  0  0  0
   18.6294  -10.2211  -14.7639 N   0  0  0  0  0  0  0  0  0  0  0  0
   18.8044   -7.8795  -14.5056 C   0  0  0  0  0  0  0  0  0  0  0  0
   18.6334   -7.9325  -13.2347 O   0  0  0  0  0  0  0  0  0  0  0  0
   19.6075   -6.8275  -14.9726 N   0  0  0  0  0  0  0  0  0  0  0  0
   20.2738   -5.9137  -14.0364 C   0  0  1  0  0  0  0  0  0  0  0  0
   21.7221   -6.3500  -13.8935 C   0  0  0  0  0  0  0  0  0  0  0  0
   22.6806   -5.1237  -12.9941 S   0  0  0  0  0  0  0  0  0  0  0  0
   20.1247   -4.5508  -14.5914 C   0  0  0  0  0  0  0  0  0  0  0  0
   20.4804   -4.3303  -15.7935 O   0  0  0  0  0  0  0  0  0  0  0  0
   18.6738   -1.1603  -13.8311 C   0  0  0  0  0  0  0  0  0  0  0  0
   19.6349   -2.1121  -14.5020 C   0  0  2  0  0  0  0  0  0  0  0  0
   19.6044   -3.4305  -13.8885 N   0  0  0  0  0  0  0  0  0  0  0  0
   20.9913   -1.5478  -14.3350 C   0  0  0  0  0  0  0  0  0  0  0  0
   21.8417   -2.1669  -13.6591 O   0  0  0  0  0  0  0  0  0  0  0  0
   21.3298   -0.3415  -14.9189 O   0  0  0  0  0  0  0  0  0  0  0  0
  1  2  1  0
  2  3  2  0
  4  2  1  0
  5  7  1  0
  5  4  1  0
  5  6  1  1
  7  8  2  0
  9 10  1  0
  9  7  1  0
 10 13  1  0
 11 12  1  0
 10 11  1  6
 13 17  1  0
 13 14  2  0
 16 15  1  1
 16 18  1  0
 17 16  1  0
 18 19  2  0
 18 20  1  0
M  END
$$$$
