NCA.pdb
     RDKit          3D

 20 19  0  0  1  0  0  0  0  0999 V2000
   17.7578  -14.2755  -18.5069 N   0  0  0  0  0  0  0  0  0  0  0  0
   16.6152  -13.9522  -17.6925 C   0  0  0  0  0  0  0  0  0  0  0  0
   15.5450  -14.4897  -17.9977 O   0  0  0  0  0  0  0  0  0  0  0  0
   16.8218  -13.0279  -16.5911 C   0  0  0  0  0  0  0  0  0  0  0  0
   18.2157  -12.5189  -16.3670 C   0  0  2  0  0  0  0  0  0  0  0  0
   18.8802  -13.5335  -15.4933 N   0  0  0  0  0  0  0  0  0  0  0  0
   18.3104  -11.2462  -15.6475 C   0  0  0  0  0  0  0  0  0  0  0  0
   17.6891  -11.1584  -14.5280 O   0  0  0  0  0  0  0  0  0  0  0  0
   19.0163  -10.1012  -16.0481 N   0  0  0  0  0  0  0  0  0  0  0  0
   19.0718   -8.9105  -15.1911 C   0  0  1  0  0  0  0  0  0  0  0  0
   20.3018   -9.0170  -14.3057 C   0  0  0  0  0  0  0  0  0  0  0  0
   21.7295   -9.5712  -15.2470 S   0  0  0  0  0  0  0  0  0  0  0  0
   19.0982   -7.7373  -16.0916 C   0  0  0  0  0  0  0  0  0  0  0  0
   19.6587   -7.8438  -17.2295 O   0  0  0  0  0  0  0  0  0  0  0  0
   17.7173   -4.2477  -16.4579 C   0  0  0  0  0  0  0  0  0  0  0  0
   18.6795   -5.3739  -16.7504 C   0  0  2  0  0  0  0  0  0  0  0  0
   18.5384   -6.4644  -15.7984 N   0  0  0  0  0  0  0  0  0  0  0  0
   20.0450   -4.8197  -16.6302 C   0  0  0  0  0  0  0  0  0  0  0  0
   20.7794   -5.1795  -15.6844 O   0  0  0  0  0  0  0  0  0  0  0  0
   20.5190   -3.9067  -17.5535 O   0  0  0  0  0  0  0  0  0  0  0  0
  1  2  1  0
  2  3  2  0
  4  2  1  0
  5  7  1  0
  5  4  1  0
  5  6  1  1
  7  8  2  0
  9 10  1  0
  9  7  1  0
 10 13  1  0
 11 12  1  0
 10 11  1  6
 13 17  1  0
 13 14  2  0
 16 15  1  1
 16 18  1  0
 17 16  1  0
 18 19  2  0
 18 20  1  0
M  END
$$$$
