NCA.pdb
     RDKit          3D

 20 19  0  0  1  0  0  0  0  0999 V2000
   16.1004  -15.7451  -13.9497 N   0  0  0  0  0  0  0  0  0  0  0  0
   17.3621  -15.8532  -14.6351 C   0  0  0  0  0  0  0  0  0  0  0  0
   18.0591  -16.8375  -14.3650 O   0  0  0  0  0  0  0  0  0  0  0  0
   17.7009  -14.8011  -15.5776 C   0  0  0  0  0  0  0  0  0  0  0  0
   16.7332  -13.6632  -15.7218 C   0  0  2  0  0  0  0  0  0  0  0  0
   15.6529  -14.1643  -16.6253 N   0  0  0  0  0  0  0  0  0  0  0  0
   17.2696  -12.4616  -16.3659 C   0  0  0  0  0  0  0  0  0  0  0  0
   17.5356  -12.5377  -17.6191 O   0  0  0  0  0  0  0  0  0  0  0  0
   17.5235  -11.2215  -15.7597 N   0  0  0  0  0  0  0  0  0  0  0  0
   18.0170  -10.0840  -16.5459 C   0  0  1  0  0  0  0  0  0  0  0  0
   16.8502   -9.1493  -16.8165 C   0  0  0  0  0  0  0  0  0  0  0  0
   17.0854   -7.5677  -15.9953 S   0  0  0  0  0  0  0  0  0  0  0  0
   19.0990   -9.4567  -15.7563 C   0  0  0  0  0  0  0  0  0  0  0  0
   18.9974   -9.4200  -14.4880 O   0  0  0  0  0  0  0  0  0  0  0  0
   22.5871   -8.0561  -16.1536 C   0  0  0  0  0  0  0  0  0  0  0  0
   21.3183   -8.3860  -15.4048 C   0  0  2  0  0  0  0  0  0  0  0  0
   20.2780   -8.8750  -16.2960 N   0  0  0  0  0  0  0  0  0  0  0  0
   20.8473   -7.1330  -14.7766 C   0  0  0  0  0  0  0  0  0  0  0  0
   19.9823   -6.4376  -15.3523 O   0  0  0  0  0  0  0  0  0  0  0  0
   21.3541   -6.7215  -13.5582 O   0  0  0  0  0  0  0  0  0  0  0  0
  1  2  1  0
  2  3  2  0
  4  2  1  0
  5  7  1  0
  5  4  1  0
  5  6  1  6
  7  8  2  0
  9 10  1  0
  9  7  1  0
 10 13  1  0
 11 12  1  0
 10 11  1  1
 13 17  1  0
 13 14  2  0
 16 15  1  6
 16 18  1  0
 17 16  1  0
 18 19  2  0
 18 20  1  0
M  END
$$$$
