AQN.pdb
     RDKit          3D

 23 22  0  0  1  0  0  0  0  0999 V2000
    7.1442  -12.5291   19.2784 C   0  0  0  0  0  0  0  0  0  0  0  0
    8.5925  -12.9752   19.1186 C   0  0  2  0  0  0  0  0  0  0  0  0
    8.8008  -13.1113   17.6768 N   0  0  0  0  0  0  0  0  0  0  0  0
    8.8081  -14.3096   19.7780 C   0  0  0  0  0  0  0  0  0  0  0  0
    8.5652  -14.4905   20.9922 O   0  0  0  0  0  0  0  0  0  0  0  0
    8.2315  -19.7136   17.0882 N   0  0  0  0  0  0  0  0  0  0  0  0
    7.5460  -18.4943   17.0237 C   0  0  0  0  0  0  0  0  0  0  0  0
    6.5874  -18.3449   16.2365 O   0  0  0  0  0  0  0  0  0  0  0  0
    7.9821  -17.3763   17.9125 C   0  0  0  0  0  0  0  0  0  0  0  0
    9.0638  -17.8209   18.8526 C   0  0  0  0  0  0  0  0  0  0  0  0
    9.5470  -16.6866   19.6779 C   0  0  2  0  0  0  0  0  0  0  0  0
    9.2968  -15.4032   19.0291 N   0  0  0  0  0  0  0  0  0  0  0  0
   10.9433  -16.8058   20.0686 C   0  0  0  0  0  0  0  0  0  0  0  0
   11.6013  -17.8580   20.0694 O   0  0  0  0  0  0  0  0  0  0  0  0
   13.9145  -15.8281   18.2823 N   0  0  0  0  0  0  0  0  0  0  0  0
   14.2487  -14.6870   19.0544 C   0  0  0  0  0  0  0  0  0  0  0  0
   14.9402  -13.7738   18.5324 O   0  0  0  0  0  0  0  0  0  0  0  0
   13.8163  -14.5210   20.4617 C   0  0  0  0  0  0  0  0  0  0  0  0
   13.0142  -15.7108   20.9617 C   0  0  2  0  0  0  0  0  0  0  0  0
   11.6587  -15.6235   20.4975 N   0  0  0  0  0  0  0  0  0  0  0  0
   13.0634  -15.8062   22.4427 C   0  0  0  0  0  0  0  0  0  0  0  0
   12.0096  -15.5915   23.0948 O   0  0  0  0  0  0  0  0  0  0  0  0
   14.2200  -16.1205   23.1261 O   0  0  0  0  0  0  0  0  0  0  0  0
  2  1  1  6
  2  4  1  0
  3  2  1  0
  4  5  2  0
  6  7  1  0
  7  9  1  0
  8  7  2  0
  9 10  1  0
 11 10  1  6
 11 13  1  0
 12  4  1  0
 12 11  1  0
 13 14  2  0
 16 15  1  0
 16 18  1  0
 17 16  2  0
 19 18  1  1
 19 21  1  0
 20 13  1  0
 20 19  1  0
 21 22  2  0
 21 23  1  0
M  END
$$$$
