AQN.pdb
     RDKit          3D

 23 22  0  0  1  0  0  0  0  0999 V2000
    7.6588  -12.5202   19.1218 C   0  0  0  0  0  0  0  0  0  0  0  0
    8.2397  -13.9277   19.1808 C   0  0  2  0  0  0  0  0  0  0  0  0
    7.1205  -14.8231   18.8867 N   0  0  0  0  0  0  0  0  0  0  0  0
    8.7616  -14.2243   20.5598 C   0  0  0  0  0  0  0  0  0  0  0  0
    9.8023  -13.6860   20.9993 O   0  0  0  0  0  0  0  0  0  0  0  0
    7.4149  -17.7237   26.9226 N   0  0  0  0  0  0  0  0  0  0  0  0
    7.0272  -16.9152   25.8471 C   0  0  0  0  0  0  0  0  0  0  0  0
    5.8193  -16.6788   25.6324 O   0  0  0  0  0  0  0  0  0  0  0  0
    8.0839  -16.3411   24.9615 C   0  0  0  0  0  0  0  0  0  0  0  0
    7.5323  -16.0025   23.6079 C   0  0  0  0  0  0  0  0  0  0  0  0
    8.5835  -15.4183   22.7390 C   0  0  2  0  0  0  0  0  0  0  0  0
    8.0776  -15.1304   21.4004 N   0  0  0  0  0  0  0  0  0  0  0  0
    9.7951  -16.2209   22.6732 C   0  0  0  0  0  0  0  0  0  0  0  0
    9.9307  -17.2636   22.0141 O   0  0  0  0  0  0  0  0  0  0  0  0
   14.8020  -17.5405   22.1552 N   0  0  0  0  0  0  0  0  0  0  0  0
   14.6267  -16.3408   22.8900 C   0  0  0  0  0  0  0  0  0  0  0  0
   15.6051  -15.8560   23.5163 O   0  0  0  0  0  0  0  0  0  0  0  0
   13.3302  -15.6264   22.9543 C   0  0  0  0  0  0  0  0  0  0  0  0
   12.1864  -16.5439   23.3531 C   0  0  2  0  0  0  0  0  0  0  0  0
   10.9594  -15.8025   23.4235 N   0  0  0  0  0  0  0  0  0  0  0  0
   12.4701  -17.2252   24.6416 C   0  0  0  0  0  0  0  0  0  0  0  0
   13.4795  -17.9714   24.7182 O   0  0  0  0  0  0  0  0  0  0  0  0
   11.6682  -17.0692   25.7534 O   0  0  0  0  0  0  0  0  0  0  0  0
  2  1  1  1
  2  4  1  0
  3  2  1  0
  4  5  2  0
  6  7  1  0
  7  9  1  0
  8  7  2  0
  9 10  1  0
 11 10  1  1
 11 13  1  0
 12  4  1  0
 12 11  1  0
 13 14  2  0
 16 15  1  0
 16 18  1  0
 17 16  2  0
 19 18  1  1
 19 21  1  0
 20 13  1  0
 20 19  1  0
 21 22  2  0
 21 23  1  0
M  END
$$$$
