AQN.pdb
     RDKit          3D

 23 22  0  0  1  0  0  0  0  0999 V2000
    2.1212  -19.8273   19.1171 C   0  0  0  0  0  0  0  0  0  0  0  0
    2.2721  -20.1480   17.6351 C   0  0  2  0  0  0  0  0  0  0  0  0
    1.5836  -21.4244   17.4412 N   0  0  0  0  0  0  0  0  0  0  0  0
    3.7238  -20.3092   17.2766 C   0  0  0  0  0  0  0  0  0  0  0  0
    4.3306  -21.3883   17.4587 O   0  0  0  0  0  0  0  0  0  0  0  0
    6.9669  -17.5720   12.8663 N   0  0  0  0  0  0  0  0  0  0  0  0
    7.9813  -18.2591   13.5441 C   0  0  0  0  0  0  0  0  0  0  0  0
    9.0950  -18.4398   13.0075 O   0  0  0  0  0  0  0  0  0  0  0  0
    7.7073  -18.7721   14.9197 C   0  0  0  0  0  0  0  0  0  0  0  0
    6.3020  -18.4621   15.3444 C   0  0  0  0  0  0  0  0  0  0  0  0
    5.8713  -19.3595   16.4445 C   0  0  2  0  0  0  0  0  0  0  0  0
    4.4436  -19.2293   16.7184 N   0  0  0  0  0  0  0  0  0  0  0  0
    6.6493  -19.1992   17.6633 C   0  0  0  0  0  0  0  0  0  0  0  0
    6.4197  -18.3703   18.5579 O   0  0  0  0  0  0  0  0  0  0  0  0
    9.1363  -21.4700   22.2635 N   0  0  0  0  0  0  0  0  0  0  0  0
    9.6100  -21.2048   20.9538 C   0  0  0  0  0  0  0  0  0  0  0  0
   10.8194  -20.8973   20.7891 O   0  0  0  0  0  0  0  0  0  0  0  0
    8.7357  -21.2739   19.7597 C   0  0  0  0  0  0  0  0  0  0  0  0
    8.5905  -19.9257   19.0738 C   0  0  2  0  0  0  0  0  0  0  0  0
    7.7922  -20.0577   17.8881 N   0  0  0  0  0  0  0  0  0  0  0  0
    9.9175  -19.3392   18.7580 C   0  0  0  0  0  0  0  0  0  0  0  0
   10.5242  -19.7408   17.7322 O   0  0  0  0  0  0  0  0  0  0  0  0
   10.5064  -18.3730   19.5475 O   0  0  0  0  0  0  0  0  0  0  0  0
  2  1  1  1
  2  4  1  0
  3  2  1  0
  4  5  2  0
  6  7  1  0
  7  9  1  0
  8  7  2  0
  9 10  1  0
 11 10  1  6
 11 13  1  0
 12  4  1  0
 12 11  1  0
 13 14  2  0
 16 15  1  0
 16 18  1  0
 17 16  2  0
 19 18  1  6
 19 21  1  0
 20 13  1  0
 20 19  1  0
 21 22  2  0
 21 23  1  0
M  END
$$$$
