AQN.pdb
     RDKit          3D

 23 22  0  0  1  0  0  0  0  0999 V2000
    7.3479  -11.6751   27.1563 C   0  0  0  0  0  0  0  0  0  0  0  0
    6.2385  -12.0079   26.1660 C   0  0  2  0  0  0  0  0  0  0  0  0
    5.1257  -12.4990   26.9792 N   0  0  0  0  0  0  0  0  0  0  0  0
    6.6813  -13.0944   25.2251 C   0  0  0  0  0  0  0  0  0  0  0  0
    6.5826  -14.3052   25.5251 O   0  0  0  0  0  0  0  0  0  0  0  0
    8.0220  -12.5906   19.0524 N   0  0  0  0  0  0  0  0  0  0  0  0
    8.2092  -13.9541   19.3102 C   0  0  0  0  0  0  0  0  0  0  0  0
    8.4128  -14.7560   18.3740 O   0  0  0  0  0  0  0  0  0  0  0  0
    8.1608  -14.4319   20.7243 C   0  0  0  0  0  0  0  0  0  0  0  0
    7.7907  -13.3193   21.6605 C   0  0  0  0  0  0  0  0  0  0  0  0
    7.6573  -13.8197   23.0508 C   0  0  2  0  0  0  0  0  0  0  0  0
    7.2263  -12.7657   23.9639 N   0  0  0  0  0  0  0  0  0  0  0  0
    8.8552  -14.4782   23.5487 C   0  0  0  0  0  0  0  0  0  0  0  0
    9.8115  -13.9094   24.0983 O   0  0  0  0  0  0  0  0  0  0  0  0
   10.6971  -19.9164   25.4508 N   0  0  0  0  0  0  0  0  0  0  0  0
   10.6747  -18.5005   25.5203 C   0  0  0  0  0  0  0  0  0  0  0  0
   11.6221  -17.8989   26.0902 O   0  0  0  0  0  0  0  0  0  0  0  0
    9.5746  -17.6907   24.9466 C   0  0  0  0  0  0  0  0  0  0  0  0
   10.0837  -16.6166   23.9998 C   0  0  2  0  0  0  0  0  0  0  0  0
    8.9798  -15.9132   23.4107 N   0  0  0  0  0  0  0  0  0  0  0  0
   10.9627  -17.1973   22.9534 C   0  0  0  0  0  0  0  0  0  0  0  0
   12.0752  -17.6721   23.2977 O   0  0  0  0  0  0  0  0  0  0  0  0
   10.6036  -17.2338   21.6218 O   0  0  0  0  0  0  0  0  0  0  0  0
  2  1  1  1
  2  4  1  0
  3  2  1  0
  4  5  2  0
  6  7  1  0
  7  9  1  0
  8  7  2  0
  9 10  1  0
 11 10  1  6
 11 13  1  0
 12  4  1  0
 12 11  1  0
 13 14  2  0
 16 15  1  0
 16 18  1  0
 17 16  2  0
 19 18  1  1
 19 21  1  0
 20 13  1  0
 20 19  1  0
 21 22  2  0
 21 23  1  0
M  END
$$$$
