AQN.pdb
     RDKit          3D

 23 22  0  0  1  0  0  0  0  0999 V2000
   10.3298  -20.0726   15.9915 C   0  0  0  0  0  0  0  0  0  0  0  0
    9.9051  -18.7016   15.4794 C   0  0  2  0  0  0  0  0  0  0  0  0
   10.7675  -18.4320   14.3286 N   0  0  0  0  0  0  0  0  0  0  0  0
   10.1394  -17.6515   16.5303 C   0  0  0  0  0  0  0  0  0  0  0  0
   11.2416  -17.0704   16.6456 O   0  0  0  0  0  0  0  0  0  0  0  0
    9.3173  -12.1276   19.1240 N   0  0  0  0  0  0  0  0  0  0  0  0
    8.4826  -13.1619   18.6835 C   0  0  0  0  0  0  0  0  0  0  0  0
    7.9325  -13.1015   17.5633 O   0  0  0  0  0  0  0  0  0  0  0  0
    8.2617  -14.3378   19.5772 C   0  0  0  0  0  0  0  0  0  0  0  0
    8.0219  -15.5869   18.7811 C   0  0  0  0  0  0  0  0  0  0  0  0
    9.3055  -16.2208   18.3915 C   0  0  2  0  0  0  0  0  0  0  0  0
    9.1043  -17.2939   17.4228 N   0  0  0  0  0  0  0  0  0  0  0  0
   10.0910  -16.6861   19.5241 C   0  0  0  0  0  0  0  0  0  0  0  0
    9.9723  -17.7921   20.0743 O   0  0  0  0  0  0  0  0  0  0  0  0
   14.6372  -14.8320   23.3561 N   0  0  0  0  0  0  0  0  0  0  0  0
   13.9525  -15.7409   22.5105 C   0  0  0  0  0  0  0  0  0  0  0  0
   14.1029  -16.9778   22.6891 O   0  0  0  0  0  0  0  0  0  0  0  0
   13.0598  -15.2946   21.4155 C   0  0  0  0  0  0  0  0  0  0  0  0
   11.8708  -16.2222   21.2278 C   0  0  2  0  0  0  0  0  0  0  0  0
   11.1039  -15.8175   20.0839 N   0  0  0  0  0  0  0  0  0  0  0  0
   11.0247  -16.2626   22.4473 C   0  0  0  0  0  0  0  0  0  0  0  0
   10.8267  -17.3719   23.0057 O   0  0  0  0  0  0  0  0  0  0  0  0
   10.4501  -15.1305   22.9872 O   0  0  0  0  0  0  0  0  0  0  0  0
  2  1  1  1
  2  4  1  0
  3  2  1  0
  4  5  2  0
  6  7  1  0
  7  9  1  0
  8  7  2  0
  9 10  1  0
 11 10  1  1
 11 13  1  0
 12  4  1  0
 12 11  1  0
 13 14  2  0
 16 15  1  0
 16 18  1  0
 17 16  2  0
 19 18  1  1
 19 21  1  0
 20 13  1  0
 20 19  1  0
 21 22  2  0
 21 23  1  0
M  END
$$$$
