AQN.pdb
     RDKit          3D

 23 22  0  0  1  0  0  0  0  0999 V2000
   12.9483  -19.3648   16.5853 C   0  0  0  0  0  0  0  0  0  0  0  0
   11.7046  -19.8984   17.2857 C   0  0  2  0  0  0  0  0  0  0  0  0
   10.5794  -19.1937   16.6708 N   0  0  0  0  0  0  0  0  0  0  0  0
   11.7480  -19.5757   18.7539 C   0  0  0  0  0  0  0  0  0  0  0  0
   11.6970  -18.3967   19.1703 O   0  0  0  0  0  0  0  0  0  0  0  0
   10.4711  -23.5674   23.2901 N   0  0  0  0  0  0  0  0  0  0  0  0
    9.5300  -22.6274   22.8527 C   0  0  0  0  0  0  0  0  0  0  0  0
    8.3111  -22.8021   23.0648 O   0  0  0  0  0  0  0  0  0  0  0  0
   10.0098  -21.4130   22.1280 C   0  0  0  0  0  0  0  0  0  0  0  0
   11.5027  -21.4255   21.9775 C   0  0  0  0  0  0  0  0  0  0  0  0
   11.9586  -20.2970   21.1291 C   0  0  2  0  0  0  0  0  0  0  0  0
   11.8489  -20.6124   19.7082 N   0  0  0  0  0  0  0  0  0  0  0  0
   13.2974  -19.8299   21.4542 C   0  0  0  0  0  0  0  0  0  0  0  0
   14.2915  -19.9307   20.7181 O   0  0  0  0  0  0  0  0  0  0  0  0
   17.3722  -16.7757   21.8290 N   0  0  0  0  0  0  0  0  0  0  0  0
   16.0763  -16.4772   22.3206 C   0  0  0  0  0  0  0  0  0  0  0  0
   15.9135  -15.4601   23.0440 O   0  0  0  0  0  0  0  0  0  0  0  0
   14.8946  -17.3181   22.0179 C   0  0  0  0  0  0  0  0  0  0  0  0
   14.7512  -18.4799   22.9869 C   0  0  2  0  0  0  0  0  0  0  0  0
   13.5301  -19.1895   22.7307 N   0  0  0  0  0  0  0  0  0  0  0  0
   14.8090  -18.0134   24.3953 C   0  0  0  0  0  0  0  0  0  0  0  0
   15.9358  -17.8468   24.9283 O   0  0  0  0  0  0  0  0  0  0  0  0
   13.6743  -17.7574   25.1373 O   0  0  0  0  0  0  0  0  0  0  0  0
  2  1  1  6
  2  4  1  0
  3  2  1  0
  4  5  2  0
  6  7  1  0
  7  9  1  0
  8  7  2  0
  9 10  1  0
 11 10  1  1
 11 13  1  0
 12  4  1  0
 12 11  1  0
 13 14  2  0
 16 15  1  0
 16 18  1  0
 17 16  2  0
 19 18  1  6
 19 21  1  0
 20 13  1  0
 20 19  1  0
 21 22  2  0
 21 23  1  0
M  END
$$$$
