AQN.pdb
     RDKit          3D

 23 22  0  0  1  0  0  0  0  0999 V2000
    8.7264  -12.6248   20.1330 C   0  0  0  0  0  0  0  0  0  0  0  0
    8.0395  -13.9607   19.8767 C   0  0  2  0  0  0  0  0  0  0  0  0
    6.8801  -13.6478   19.0407 N   0  0  0  0  0  0  0  0  0  0  0  0
    7.5681  -14.5669   21.1698 C   0  0  0  0  0  0  0  0  0  0  0  0
    6.6393  -14.0570   21.8355 O   0  0  0  0  0  0  0  0  0  0  0  0
    7.0434  -20.4689   22.7383 N   0  0  0  0  0  0  0  0  0  0  0  0
    6.7299  -19.8366   23.9477 C   0  0  0  0  0  0  0  0  0  0  0  0
    6.2411  -20.4859   24.8966 O   0  0  0  0  0  0  0  0  0  0  0  0
    6.9903  -18.3721   24.0821 C   0  0  0  0  0  0  0  0  0  0  0  0
    7.3962  -17.7705   22.7689 C   0  0  0  0  0  0  0  0  0  0  0  0
    7.7172  -16.3302   22.9232 C   0  0  2  0  0  0  0  0  0  0  0  0
    8.1734  -15.7423   21.6675 N   0  0  0  0  0  0  0  0  0  0  0  0
    8.6611  -16.0571   23.9960 C   0  0  0  0  0  0  0  0  0  0  0  0
    9.8955  -16.1487   23.9069 O   0  0  0  0  0  0  0  0  0  0  0  0
    9.0438  -13.0250   29.4055 N   0  0  0  0  0  0  0  0  0  0  0  0
    9.4117  -13.9154   28.3655 C   0  0  0  0  0  0  0  0  0  0  0  0
   10.5598  -14.4313   28.3766 O   0  0  0  0  0  0  0  0  0  0  0  0
    8.4958  -14.2681   27.2555 C   0  0  0  0  0  0  0  0  0  0  0  0
    9.0568  -15.3723   26.3750 C   0  0  2  0  0  0  0  0  0  0  0  0
    8.1590  -15.6419   25.2880 N   0  0  0  0  0  0  0  0  0  0  0  0
    9.3222  -16.6029   27.1624 C   0  0  0  0  0  0  0  0  0  0  0  0
   10.2519  -16.5866   28.0092 O   0  0  0  0  0  0  0  0  0  0  0  0
    8.5880  -17.7594   26.9981 O   0  0  0  0  0  0  0  0  0  0  0  0
  2  1  1  1
  2  4  1  0
  3  2  1  0
  4  5  2  0
  6  7  1  0
  7  9  1  0
  8  7  2  0
  9 10  1  0
 11 10  1  6
 11 13  1  0
 12  4  1  0
 12 11  1  0
 13 14  2  0
 16 15  1  0
 16 18  1  0
 17 16  2  0
 19 18  1  1
 19 21  1  0
 20 13  1  0
 20 19  1  0
 21 22  2  0
 21 23  1  0
M  END
$$$$
