AQN.pdb
     RDKit          3D

 23 22  0  0  1  0  0  0  0  0999 V2000
    7.3183  -14.9961   19.0477 C   0  0  0  0  0  0  0  0  0  0  0  0
    7.4732  -13.6743   19.7901 C   0  0  2  0  0  0  0  0  0  0  0  0
    8.4157  -12.8887   18.9929 N   0  0  0  0  0  0  0  0  0  0  0  0
    8.0536  -13.9040   21.1583 C   0  0  0  0  0  0  0  0  0  0  0  0
    9.2679  -14.1571   21.3240 O   0  0  0  0  0  0  0  0  0  0  0  0
    5.4540  -12.1139   26.6219 N   0  0  0  0  0  0  0  0  0  0  0  0
    6.7148  -12.5788   27.0157 C   0  0  0  0  0  0  0  0  0  0  0  0
    7.0937  -12.4626   28.2006 O   0  0  0  0  0  0  0  0  0  0  0  0
    7.5980  -13.2154   25.9934 C   0  0  0  0  0  0  0  0  0  0  0  0
    6.9542  -13.2048   24.6381 C   0  0  0  0  0  0  0  0  0  0  0  0
    7.8148  -13.8835   23.6380 C   0  0  2  0  0  0  0  0  0  0  0  0
    7.2276  -13.8380   22.3025 N   0  0  0  0  0  0  0  0  0  0  0  0
    8.1655  -15.2472   24.0034 C   0  0  0  0  0  0  0  0  0  0  0  0
    7.4083  -16.2277   23.9294 O   0  0  0  0  0  0  0  0  0  0  0  0
   10.6244  -18.2215   22.0817 N   0  0  0  0  0  0  0  0  0  0  0  0
   11.2215  -17.2001   22.8629 C   0  0  0  0  0  0  0  0  0  0  0  0
   11.7794  -16.2316   22.2841 O   0  0  0  0  0  0  0  0  0  0  0  0
   11.2179  -17.2233   24.3443 C   0  0  0  0  0  0  0  0  0  0  0  0
    9.8645  -16.8452   24.9228 C   0  0  2  0  0  0  0  0  0  0  0  0
    9.4968  -15.5244   24.4979 N   0  0  0  0  0  0  0  0  0  0  0  0
    9.8679  -16.9449   26.4042 C   0  0  0  0  0  0  0  0  0  0  0  0
   10.0952  -18.0639   26.9315 O   0  0  0  0  0  0  0  0  0  0  0  0
    9.6313  -15.8575   27.2197 O   0  0  0  0  0  0  0  0  0  0  0  0
  2  1  1  6
  2  4  1  0
  3  2  1  0
  4  5  2  0
  6  7  1  0
  7  9  1  0
  8  7  2  0
  9 10  1  0
 11 10  1  1
 11 13  1  0
 12  4  1  0
 12 11  1  0
 13 14  2  0
 16 15  1  0
 16 18  1  0
 17 16  2  0
 19 18  1  1
 19 21  1  0
 20 13  1  0
 20 19  1  0
 21 22  2  0
 21 23  1  0
M  END
$$$$
