AQN.pdb
     RDKit          3D

 23 22  0  0  1  0  0  0  0  0999 V2000
    8.2173  -15.0137   17.4554 C   0  0  0  0  0  0  0  0  0  0  0  0
    7.8145  -13.9940   18.5137 C   0  0  2  0  0  0  0  0  0  0  0  0
    8.1167  -12.6870   17.9294 N   0  0  0  0  0  0  0  0  0  0  0  0
    8.6330  -14.1794   19.7617 C   0  0  0  0  0  0  0  0  0  0  0  0
    9.7788  -13.6895   19.8760 O   0  0  0  0  0  0  0  0  0  0  0  0
    6.8471  -16.8783   25.2475 N   0  0  0  0  0  0  0  0  0  0  0  0
    8.1391  -16.4126   25.5208 C   0  0  0  0  0  0  0  0  0  0  0  0
    8.6204  -16.5105   26.6696 O   0  0  0  0  0  0  0  0  0  0  0  0
    8.9305  -15.7967   24.4141 C   0  0  0  0  0  0  0  0  0  0  0  0
    8.1048  -15.6571   23.1691 C   0  0  0  0  0  0  0  0  0  0  0  0
    8.9183  -15.1164   22.0523 C   0  0  2  0  0  0  0  0  0  0  0  0
    8.1176  -14.9218   20.8475 N   0  0  0  0  0  0  0  0  0  0  0  0
   10.1055  -15.9059   21.7632 C   0  0  0  0  0  0  0  0  0  0  0  0
   10.1089  -17.0368   21.2521 O   0  0  0  0  0  0  0  0  0  0  0  0
   13.2380  -13.4747   19.4316 N   0  0  0  0  0  0  0  0  0  0  0  0
   13.3232  -14.8318   19.8327 C   0  0  0  0  0  0  0  0  0  0  0  0
   13.0987  -15.7370   18.9872 O   0  0  0  0  0  0  0  0  0  0  0  0
   13.6674  -15.2351   21.2162 C   0  0  0  0  0  0  0  0  0  0  0  0
   12.6021  -16.1216   21.8394 C   0  0  2  0  0  0  0  0  0  0  0  0
   11.4081  -15.3630   22.0828 N   0  0  0  0  0  0  0  0  0  0  0  0
   13.0945  -16.7530   23.0898 C   0  0  0  0  0  0  0  0  0  0  0  0
   14.1589  -17.4214   23.0476 O   0  0  0  0  0  0  0  0  0  0  0  0
   12.4278  -16.6330   24.2917 O   0  0  0  0  0  0  0  0  0  0  0  0
  2  1  1  6
  2  4  1  0
  3  2  1  0
  4  5  2  0
  6  7  1  0
  7  9  1  0
  8  7  2  0
  9 10  1  0
 11 10  1  1
 11 13  1  0
 12  4  1  0
 12 11  1  0
 13 14  2  0
 16 15  1  0
 16 18  1  0
 17 16  2  0
 19 18  1  1
 19 21  1  0
 20 13  1  0
 20 19  1  0
 21 22  2  0
 21 23  1  0
M  END
$$$$
