AQN.pdb
     RDKit          3D

 23 22  0  0  1  0  0  0  0  0999 V2000
    7.8137  -21.1251   20.8655 C   0  0  0  0  0  0  0  0  0  0  0  0
    7.8616  -20.2760   19.6011 C   0  0  2  0  0  0  0  0  0  0  0  0
    8.5387  -21.1036   18.6023 N   0  0  0  0  0  0  0  0  0  0  0  0
    8.6654  -19.0268   19.8361 C   0  0  0  0  0  0  0  0  0  0  0  0
    9.9025  -18.9957   19.6501 O   0  0  0  0  0  0  0  0  0  0  0  0
    6.6424  -13.1140   19.5615 N   0  0  0  0  0  0  0  0  0  0  0  0
    8.0374  -13.0014   19.6037 C   0  0  0  0  0  0  0  0  0  0  0  0
    8.5972  -11.9222   19.3155 O   0  0  0  0  0  0  0  0  0  0  0  0
    8.8436  -14.1947   19.9992 C   0  0  0  0  0  0  0  0  0  0  0  0
    7.9793  -15.4145   20.1290 C   0  0  0  0  0  0  0  0  0  0  0  0
    8.7980  -16.6128   20.4371 C   0  0  2  0  0  0  0  0  0  0  0  0
    8.0311  -17.8446   20.2784 N   0  0  0  0  0  0  0  0  0  0  0  0
    9.4320  -16.5624   21.7455 C   0  0  0  0  0  0  0  0  0  0  0  0
    8.9580  -17.0323   22.7917 O   0  0  0  0  0  0  0  0  0  0  0  0
   12.1642  -18.8633   25.5064 N   0  0  0  0  0  0  0  0  0  0  0  0
   11.4164  -17.8358   24.8779 C   0  0  0  0  0  0  0  0  0  0  0  0
   10.8068  -16.9965   25.5908 O   0  0  0  0  0  0  0  0  0  0  0  0
   11.3196  -17.7060   23.4052 C   0  0  0  0  0  0  0  0  0  0  0  0
   11.6252  -16.2952   22.9303 C   0  0  2  0  0  0  0  0  0  0  0  0
   10.7220  -15.9207   21.8795 N   0  0  0  0  0  0  0  0  0  0  0  0
   13.0368  -16.1731   22.4861 C   0  0  0  0  0  0  0  0  0  0  0  0
   13.8292  -15.4872   23.1812 O   0  0  0  0  0  0  0  0  0  0  0  0
   13.5079  -16.7831   21.3418 O   0  0  0  0  0  0  0  0  0  0  0  0
  2  1  1  1
  2  4  1  0
  3  2  1  0
  4  5  2  0
  6  7  1  0
  7  9  1  0
  8  7  2  0
  9 10  1  0
 11 10  1  1
 11 13  1  0
 12  4  1  0
 12 11  1  0
 13 14  2  0
 16 15  1  0
 16 18  1  0
 17 16  2  0
 19 18  1  6
 19 21  1  0
 20 13  1  0
 20 19  1  0
 21 22  2  0
 21 23  1  0
M  END
$$$$
