AQN.pdb
     RDKit          3D

 23 22  0  0  1  0  0  0  0  0999 V2000
    6.7787  -20.2316   21.7128 C   0  0  0  0  0  0  0  0  0  0  0  0
    6.6310  -19.3374   20.4878 C   0  0  2  0  0  0  0  0  0  0  0  0
    6.7000  -20.2390   19.3375 N   0  0  0  0  0  0  0  0  0  0  0  0
    7.7662  -18.3537   20.4144 C   0  0  0  0  0  0  0  0  0  0  0  0
    8.9494  -18.7255   20.2477 O   0  0  0  0  0  0  0  0  0  0  0  0
    7.2444  -12.3161   19.1869 N   0  0  0  0  0  0  0  0  0  0  0  0
    7.3456  -13.3450   18.2424 C   0  0  0  0  0  0  0  0  0  0  0  0
    6.9672  -13.1667   17.0651 O   0  0  0  0  0  0  0  0  0  0  0  0
    7.9135  -14.6589   18.6685 C   0  0  0  0  0  0  0  0  0  0  0  0
    8.2144  -14.6688   20.1384 C   0  0  0  0  0  0  0  0  0  0  0  0
    8.6271  -16.0221   20.5851 C   0  0  2  0  0  0  0  0  0  0  0  0
    7.5168  -16.9683   20.5338 N   0  0  0  0  0  0  0  0  0  0  0  0
    9.2576  -16.0340   21.8960 C   0  0  0  0  0  0  0  0  0  0  0  0
    8.7908  -15.5150   22.9221 O   0  0  0  0  0  0  0  0  0  0  0  0
   12.6690  -16.8410   25.7392 N   0  0  0  0  0  0  0  0  0  0  0  0
   11.8942  -17.9489   25.3125 C   0  0  0  0  0  0  0  0  0  0  0  0
   11.8867  -18.9974   26.0091 O   0  0  0  0  0  0  0  0  0  0  0  0
   11.0860  -17.9268   24.0710 C   0  0  0  0  0  0  0  0  0  0  0  0
   11.2470  -16.6259   23.3022 C   0  0  2  0  0  0  0  0  0  0  0  0
   10.5344  -16.6954   22.0582 N   0  0  0  0  0  0  0  0  0  0  0  0
   12.6803  -16.3106   23.0765 C   0  0  0  0  0  0  0  0  0  0  0  0
   13.4336  -16.1860   24.0758 O   0  0  0  0  0  0  0  0  0  0  0  0
   13.2127  -16.1499   21.8139 O   0  0  0  0  0  0  0  0  0  0  0  0
  2  1  1  1
  2  4  1  0
  3  2  1  0
  4  5  2  0
  6  7  1  0
  7  9  1  0
  8  7  2  0
  9 10  1  0
 11 10  1  1
 11 13  1  0
 12  4  1  0
 12 11  1  0
 13 14  2  0
 16 15  1  0
 16 18  1  0
 17 16  2  0
 19 18  1  6
 19 21  1  0
 20 13  1  0
 20 19  1  0
 21 22  2  0
 21 23  1  0
M  END
$$$$
