AQN.pdb
     RDKit          3D

 23 22  0  0  1  0  0  0  0  0999 V2000
    9.2902  -13.6436   18.0443 C   0  0  0  0  0  0  0  0  0  0  0  0
    7.9353  -13.6102   18.7409 C   0  0  2  0  0  0  0  0  0  0  0  0
    7.7353  -12.2155   19.1358 N   0  0  0  0  0  0  0  0  0  0  0  0
    7.9544  -14.4751   19.9711 C   0  0  0  0  0  0  0  0  0  0  0  0
    8.4307  -14.0680   21.0543 O   0  0  0  0  0  0  0  0  0  0  0  0
    4.3919  -19.7402   22.9653 N   0  0  0  0  0  0  0  0  0  0  0  0
    5.4876  -19.7352   22.0935 C   0  0  0  0  0  0  0  0  0  0  0  0
    5.6278  -20.6401   21.2435 O   0  0  0  0  0  0  0  0  0  0  0  0
    6.4853  -18.6289   22.1989 C   0  0  0  0  0  0  0  0  0  0  0  0
    6.4144  -17.7192   21.0078 C   0  0  0  0  0  0  0  0  0  0  0  0
    7.3767  -16.5977   21.1403 C   0  0  2  0  0  0  0  0  0  0  0  0
    7.4271  -15.7850   19.9289 N   0  0  0  0  0  0  0  0  0  0  0  0
    8.7111  -17.0209   21.5359 C   0  0  0  0  0  0  0  0  0  0  0  0
    9.5739  -17.4824   20.7725 O   0  0  0  0  0  0  0  0  0  0  0  0
   13.7501  -15.4344   23.6863 N   0  0  0  0  0  0  0  0  0  0  0  0
   12.7896  -16.4227   23.3534 C   0  0  0  0  0  0  0  0  0  0  0  0
   13.1381  -17.6319   23.3236 O   0  0  0  0  0  0  0  0  0  0  0  0
   11.3809  -16.0915   23.0356 C   0  0  0  0  0  0  0  0  0  0  0  0
   10.4358  -17.2413   23.3420 C   0  0  2  0  0  0  0  0  0  0  0  0
    9.1030  -16.9105   22.9244 N   0  0  0  0  0  0  0  0  0  0  0  0
   10.4689  -17.5924   24.7844 C   0  0  0  0  0  0  0  0  0  0  0  0
   11.4358  -18.2705   25.2166 O   0  0  0  0  0  0  0  0  0  0  0  0
    9.4797  -17.2026   25.6637 O   0  0  0  0  0  0  0  0  0  0  0  0
  2  1  1  1
  2  4  1  0
  3  2  1  0
  4  5  2  0
  6  7  1  0
  7  9  1  0
  8  7  2  0
  9 10  1  0
 11 10  1  6
 11 13  1  0
 12  4  1  0
 12 11  1  0
 13 14  2  0
 16 15  1  0
 16 18  1  0
 17 16  2  0
 19 18  1  1
 19 21  1  0
 20 13  1  0
 20 19  1  0
 21 22  2  0
 21 23  1  0
M  END
$$$$
