ICW.pdb
     RDKit          3D

 29 30  0  0  1  0  0  0  0  0999 V2000
   27.1118  -15.0503  -17.0360 C   0  0  0  0  0  0  0  0  0  0  0  0
   27.8883  -16.1931  -16.4299 C   0  0  0  0  0  0  0  0  0  0  0  0
   27.1141  -16.8765  -15.3233 C   0  0  2  0  0  0  0  0  0  0  0  0
   28.1408  -17.3198  -14.2851 C   0  0  0  0  0  0  0  0  0  0  0  0
   26.3780  -18.0767  -15.8446 C   0  0  2  0  0  0  0  0  0  0  0  0
   25.5102  -17.6632  -16.9123 N   0  0  0  0  0  0  0  0  0  0  0  0
   25.6843  -18.8336  -14.7924 C   0  0  0  0  0  0  0  0  0  0  0  0
   24.6003  -18.4522  -14.2665 O   0  0  0  0  0  0  0  0  0  0  0  0
   26.1857  -20.0820  -14.2690 N   0  0  0  0  0  0  0  0  0  0  0  0
   25.4964  -20.8380  -13.2716 C   0  0  1  0  0  0  0  0  0  0  0  0
   25.1063  -22.1911  -13.7941 C   0  0  0  0  0  0  0  0  0  0  0  0
   24.3476  -23.2509  -12.5694 S   0  0  0  0  0  0  0  0  0  0  0  0
   26.2197  -20.9066  -11.9777 C   0  0  0  0  0  0  0  0  0  0  0  0
   27.3267  -21.5022  -11.9426 O   0  0  0  0  0  0  0  0  0  0  0  0
   25.7563  -20.3492  -10.7705 N   0  0  0  0  0  0  0  0  0  0  0  0
   26.0782  -20.8645   -9.4524 C   0  0  1  0  0  0  0  0  0  0  0  0
   26.8097  -19.7514   -8.7341 C   0  0  0  0  0  0  0  0  0  0  0  0
   27.9133  -20.2382   -7.9003 C   0  0  0  0  0  0  0  0  0  0  0  0
   28.8478  -21.2039   -8.2029 C   0  0  0  0  0  0  0  0  0  0  0  0
   29.6952  -21.3632   -7.1724 N   0  0  0  0  0  0  0  0  0  0  0  0
   29.3577  -20.5195   -6.1614 C   0  0  0  0  0  0  0  0  0  0  0  0
   29.8845  -20.2836   -4.9106 C   0  0  0  0  0  0  0  0  0  0  0  0
   29.3300  -19.3496   -4.0735 C   0  0  0  0  0  0  0  0  0  0  0  0
   28.2274  -18.6507   -4.5188 C   0  0  0  0  0  0  0  0  0  0  0  0
   27.6905  -18.8771   -5.7680 C   0  0  0  0  0  0  0  0  0  0  0  0
   28.2462  -19.8255   -6.6297 C   0  0  0  0  0  0  0  0  0  0  0  0
   24.8445  -21.2657   -8.7738 C   0  0  0  0  0  0  0  0  0  0  0  0
   23.6321  -20.6811   -9.0964 O   0  0  0  0  0  0  0  0  0  0  0  0
   24.8756  -22.1485   -7.8881 O   0  0  0  0  0  0  0  0  0  0  0  0
  2  1  1  0
  3  4  1  1
  3  2  1  0
  5  6  1  6
  5  3  1  0
  7  5  1  0
  8  7  2  0
  9  7  1  0
 10  9  1  0
 10 11  1  6
 12 11  1  0
 13 10  1  0
 13 14  2  0
 15 13  1  0
 16 15  1  0
 16 17  1  1
 17 18  1  0
 18 26  1  0
 18 19  2  0
 19 20  1  0
 21 22  2  0
 21 20  1  0
 23 22  1  0
 24 23  2  0
 25 24  1  0
 25 26  2  0
 26 21  1  0
 27 16  1  0
 28 27  1  0
 29 27  2  0
M  END
$$$$
