ICW.pdb
     RDKit          3D

 29 30  0  0  1  0  0  0  0  0999 V2000
   28.8998  -16.2061  -16.5878 C   0  0  0  0  0  0  0  0  0  0  0  0
   27.6354  -17.0265  -16.6574 C   0  0  0  0  0  0  0  0  0  0  0  0
   27.0805  -17.3248  -15.2811 C   0  0  2  0  0  0  0  0  0  0  0  0
   28.1844  -18.0486  -14.5156 C   0  0  0  0  0  0  0  0  0  0  0  0
   25.8698  -18.2082  -15.3699 C   0  0  2  0  0  0  0  0  0  0  0  0
   24.8795  -17.5605  -16.1848 N   0  0  0  0  0  0  0  0  0  0  0  0
   25.3586  -18.6249  -14.0560 C   0  0  0  0  0  0  0  0  0  0  0  0
   24.6764  -17.8688  -13.3078 O   0  0  0  0  0  0  0  0  0  0  0  0
   25.5943  -19.9394  -13.5077 N   0  0  0  0  0  0  0  0  0  0  0  0
   25.1283  -20.3367  -12.2168 C   0  0  1  0  0  0  0  0  0  0  0  0
   24.0907  -21.4172  -12.3270 C   0  0  0  0  0  0  0  0  0  0  0  0
   24.7705  -23.0555  -12.5564 S   0  0  0  0  0  0  0  0  0  0  0  0
   26.2215  -20.6816  -11.2746 C   0  0  0  0  0  0  0  0  0  0  0  0
   27.2463  -21.2505  -11.7304 O   0  0  0  0  0  0  0  0  0  0  0  0
   26.2000  -20.4179   -9.8916 N   0  0  0  0  0  0  0  0  0  0  0  0
   26.8686  -21.2296   -8.8913 C   0  0  1  0  0  0  0  0  0  0  0  0
   28.1655  -20.5180   -8.5722 C   0  0  0  0  0  0  0  0  0  0  0  0
   28.0515  -19.6090   -7.4273 C   0  0  0  0  0  0  0  0  0  0  0  0
   27.4722  -18.3599   -7.3857 C   0  0  0  0  0  0  0  0  0  0  0  0
   27.5715  -17.8476   -6.1475 N   0  0  0  0  0  0  0  0  0  0  0  0
   28.2122  -18.7274   -5.3331 C   0  0  0  0  0  0  0  0  0  0  0  0
   28.5660  -18.6989   -4.0020 C   0  0  0  0  0  0  0  0  0  0  0  0
   29.2245  -19.7526   -3.4218 C   0  0  0  0  0  0  0  0  0  0  0  0
   29.5240  -20.8449   -4.2090 C   0  0  0  0  0  0  0  0  0  0  0  0
   29.1757  -20.8860   -5.5420 C   0  0  0  0  0  0  0  0  0  0  0  0
   28.5049  -19.8193   -6.1444 C   0  0  0  0  0  0  0  0  0  0  0  0
   25.9974  -21.3762   -7.7239 C   0  0  0  0  0  0  0  0  0  0  0  0
   26.3950  -22.1224   -6.6281 O   0  0  0  0  0  0  0  0  0  0  0  0
   24.8755  -20.8231   -7.7063 O   0  0  0  0  0  0  0  0  0  0  0  0
  2  1  1  0
  3  4  1  1
  3  2  1  0
  5  6  1  1
  5  3  1  0
  7  5  1  0
  8  7  2  0
  9  7  1  0
 10  9  1  0
 10 11  1  6
 12 11  1  0
 13 10  1  0
 13 14  2  0
 15 13  1  0
 16 15  1  0
 16 17  1  1
 17 18  1  0
 18 26  1  0
 18 19  2  0
 19 20  1  0
 21 22  2  0
 21 20  1  0
 23 22  1  0
 24 23  2  0
 25 24  1  0
 25 26  2  0
 26 21  1  0
 27 16  1  0
 28 27  1  0
 29 27  2  0
M  END
$$$$
