ICW.pdb
     RDKit          3D

 29 30  0  0  1  0  0  0  0  0999 V2000
   27.1473  -14.2355  -15.8878 C   0  0  0  0  0  0  0  0  0  0  0  0
   26.6714  -15.5850  -16.3662 C   0  0  0  0  0  0  0  0  0  0  0  0
   26.1299  -16.4268  -15.2308 C   0  0  2  0  0  0  0  0  0  0  0  0
   27.3179  -16.7606  -14.3332 C   0  0  0  0  0  0  0  0  0  0  0  0
   25.5196  -17.6974  -15.7477 C   0  0  2  0  0  0  0  0  0  0  0  0
   24.5206  -17.3693  -16.7268 N   0  0  0  0  0  0  0  0  0  0  0  0
   25.0201  -18.5767  -14.6806 C   0  0  0  0  0  0  0  0  0  0  0  0
   23.8635  -18.4712  -14.1823 O   0  0  0  0  0  0  0  0  0  0  0  0
   25.8129  -19.6394  -14.1097 N   0  0  0  0  0  0  0  0  0  0  0  0
   25.3006  -20.5541  -13.1388 C   0  0  1  0  0  0  0  0  0  0  0  0
   24.9489  -21.8705  -13.7710 C   0  0  0  0  0  0  0  0  0  0  0  0
   24.5413  -23.1545  -12.5946 S   0  0  0  0  0  0  0  0  0  0  0  0
   26.1736  -20.7017  -11.9480 C   0  0  0  0  0  0  0  0  0  0  0  0
   27.3302  -21.1685  -12.1089 O   0  0  0  0  0  0  0  0  0  0  0  0
   25.8023  -20.3550  -10.6348 N   0  0  0  0  0  0  0  0  0  0  0  0
   26.4534  -20.8570   -9.4388 C   0  0  1  0  0  0  0  0  0  0  0  0
   27.3331  -19.7326   -8.9368 C   0  0  0  0  0  0  0  0  0  0  0  0
   28.2719  -20.1629   -7.8958 C   0  0  0  0  0  0  0  0  0  0  0  0
   29.2201  -21.1598   -7.9631 C   0  0  0  0  0  0  0  0  0  0  0  0
   29.8816  -21.2453   -6.7967 N   0  0  0  0  0  0  0  0  0  0  0  0
   29.4021  -20.3197   -5.9243 C   0  0  0  0  0  0  0  0  0  0  0  0
   29.7206  -19.9901   -4.6251 C   0  0  0  0  0  0  0  0  0  0  0  0
   29.0580  -18.9861   -3.9667 C   0  0  0  0  0  0  0  0  0  0  0  0
   28.0611  -18.3132   -4.6420 C   0  0  0  0  0  0  0  0  0  0  0  0
   27.7327  -18.6331   -5.9419 C   0  0  0  0  0  0  0  0  0  0  0  0
   28.4002  -19.6534   -6.6232 C   0  0  0  0  0  0  0  0  0  0  0  0
   25.4367  -21.2619   -8.4664 C   0  0  0  0  0  0  0  0  0  0  0  0
   24.3948  -22.0966   -8.8315 O   0  0  0  0  0  0  0  0  0  0  0  0
   25.5011  -20.8530   -7.2859 O   0  0  0  0  0  0  0  0  0  0  0  0
  2  1  1  0
  3  4  1  1
  3  2  1  0
  5  6  1  6
  5  3  1  0
  7  5  1  0
  8  7  2  0
  9  7  1  0
 10  9  1  0
 10 11  1  6
 12 11  1  0
 13 10  1  0
 13 14  2  0
 15 13  1  0
 16 15  1  0
 16 17  1  1
 17 18  1  0
 18 26  1  0
 18 19  2  0
 19 20  1  0
 21 22  2  0
 21 20  1  0
 23 22  1  0
 24 23  2  0
 25 24  1  0
 25 26  2  0
 26 21  1  0
 27 16  1  0
 28 27  1  0
 29 27  2  0
M  END
$$$$
