ICW.pdb
     RDKit          3D

 29 30  0  0  1  0  0  0  0  0999 V2000
   28.7995  -16.1328  -15.8927 C   0  0  0  0  0  0  0  0  0  0  0  0
   27.3195  -16.1186  -16.1857 C   0  0  0  0  0  0  0  0  0  0  0  0
   26.5376  -16.9348  -15.1789 C   0  0  2  0  0  0  0  0  0  0  0  0
   26.6948  -16.2312  -13.8340 C   0  0  0  0  0  0  0  0  0  0  0  0
   27.0810  -18.3309  -15.0808 C   0  0  2  0  0  0  0  0  0  0  0  0
   27.1615  -18.8929  -16.4006 N   0  0  0  0  0  0  0  0  0  0  0  0
   26.3398  -19.1764  -14.1337 C   0  0  0  0  0  0  0  0  0  0  0  0
   25.0790  -19.2621  -14.1236 O   0  0  0  0  0  0  0  0  0  0  0  0
   26.9933  -19.9834  -13.1310 N   0  0  0  0  0  0  0  0  0  0  0  0
   26.2808  -20.8553  -12.2513 C   0  0  1  0  0  0  0  0  0  0  0  0
   26.4912  -22.2935  -12.6303 C   0  0  0  0  0  0  0  0  0  0  0  0
   25.6086  -23.4536  -11.5942 S   0  0  0  0  0  0  0  0  0  0  0  0
   26.5479  -20.5928  -10.8155 C   0  0  0  0  0  0  0  0  0  0  0  0
   27.7268  -20.7147  -10.3947 O   0  0  0  0  0  0  0  0  0  0  0  0
   25.5709  -20.2129   -9.8754 N   0  0  0  0  0  0  0  0  0  0  0  0
   25.3376  -20.8929   -8.6146 C   0  0  1  0  0  0  0  0  0  0  0  0
   25.3897  -19.8234   -7.5453 C   0  0  0  0  0  0  0  0  0  0  0  0
   26.7425  -19.3029   -7.3233 C   0  0  0  0  0  0  0  0  0  0  0  0
   27.3830  -18.2826   -7.9914 C   0  0  0  0  0  0  0  0  0  0  0  0
   28.6170  -18.1073   -7.4895 N   0  0  0  0  0  0  0  0  0  0  0  0
   28.8370  -18.9939   -6.4828 C   0  0  0  0  0  0  0  0  0  0  0  0
   29.9097  -19.2355   -5.6528 C   0  0  0  0  0  0  0  0  0  0  0  0
   29.8588  -20.2188   -4.6983 C   0  0  0  0  0  0  0  0  0  0  0  0
   28.7015  -20.9615   -4.5911 C   0  0  0  0  0  0  0  0  0  0  0  0
   27.6211  -20.7299   -5.4153 C   0  0  0  0  0  0  0  0  0  0  0  0
   27.6607  -19.7315   -6.3912 C   0  0  0  0  0  0  0  0  0  0  0  0
   24.0476  -21.5832   -8.6670 C   0  0  0  0  0  0  0  0  0  0  0  0
   23.6094  -22.3549   -7.6049 O   0  0  0  0  0  0  0  0  0  0  0  0
   23.3234  -21.4808   -9.6818 O   0  0  0  0  0  0  0  0  0  0  0  0
  2  1  1  0
  3  4  1  1
  3  2  1  0
  5  6  1  6
  5  3  1  0
  7  5  1  0
  8  7  2  0
  9  7  1  0
 10  9  1  0
 10 11  1  6
 12 11  1  0
 13 10  1  0
 13 14  2  0
 15 13  1  0
 16 15  1  0
 16 17  1  1
 17 18  1  0
 18 26  1  0
 18 19  2  0
 19 20  1  0
 21 22  2  0
 21 20  1  0
 23 22  1  0
 24 23  2  0
 25 24  1  0
 25 26  2  0
 26 21  1  0
 27 16  1  0
 28 27  1  0
 29 27  2  0
M  END
$$$$
