ICW.pdb
     RDKit          3D

 29 30  0  0  1  0  0  0  0  0999 V2000
   29.8303  -18.6678  -18.0335 C   0  0  0  0  0  0  0  0  0  0  0  0
   29.2365  -17.2934  -17.8469 C   0  0  0  0  0  0  0  0  0  0  0  0
   28.2805  -17.2467  -16.6744 C   0  0  2  0  0  0  0  0  0  0  0  0
   29.0819  -17.6626  -15.4442 C   0  0  0  0  0  0  0  0  0  0  0  0
   27.1380  -18.1999  -16.8743 C   0  0  2  0  0  0  0  0  0  0  0  0
   26.4581  -17.8625  -18.0942 N   0  0  0  0  0  0  0  0  0  0  0  0
   26.2407  -18.2812  -15.7127 C   0  0  0  0  0  0  0  0  0  0  0  0
   25.6359  -17.2799  -15.2345 O   0  0  0  0  0  0  0  0  0  0  0  0
   25.9738  -19.5179  -15.0174 N   0  0  0  0  0  0  0  0  0  0  0  0
   25.1272  -19.5954  -13.8690 C   0  0  1  0  0  0  0  0  0  0  0  0
   23.7705  -20.1268  -14.2340 C   0  0  0  0  0  0  0  0  0  0  0  0
   22.7218  -20.4679  -12.8260 S   0  0  0  0  0  0  0  0  0  0  0  0
   25.7423  -20.3199  -12.7295 C   0  0  0  0  0  0  0  0  0  0  0  0
   26.1009  -21.5128  -12.9031 O   0  0  0  0  0  0  0  0  0  0  0  0
   25.9585  -19.7681  -11.4522 N   0  0  0  0  0  0  0  0  0  0  0  0
   26.1228  -20.5477  -10.2391 C   0  0  1  0  0  0  0  0  0  0  0  0
   26.8587  -19.6551   -9.2634 C   0  0  0  0  0  0  0  0  0  0  0  0
   26.9075  -20.2097   -7.9068 C   0  0  0  0  0  0  0  0  0  0  0  0
   26.2768  -21.3347   -7.4233 C   0  0  0  0  0  0  0  0  0  0  0  0
   26.5745  -21.5068   -6.1244 N   0  0  0  0  0  0  0  0  0  0  0  0
   27.4033  -20.5145   -5.7046 C   0  0  0  0  0  0  0  0  0  0  0  0
   27.9952  -20.2250   -4.4947 C   0  0  0  0  0  0  0  0  0  0  0  0
   28.8077  -19.1301   -4.3481 C   0  0  0  0  0  0  0  0  0  0  0  0
   29.0171  -18.3241   -5.4477 C   0  0  0  0  0  0  0  0  0  0  0  0
   28.4310  -18.6026   -6.6638 C   0  0  0  0  0  0  0  0  0  0  0  0
   27.6016  -19.7146   -6.8257 C   0  0  0  0  0  0  0  0  0  0  0  0
   24.8080  -20.9649   -9.7487 C   0  0  0  0  0  0  0  0  0  0  0  0
   24.6343  -22.1926   -9.1336 O   0  0  0  0  0  0  0  0  0  0  0  0
   23.8207  -20.2085   -9.8826 O   0  0  0  0  0  0  0  0  0  0  0  0
  2  1  1  0
  3  4  1  1
  3  2  1  0
  5  6  1  6
  5  3  1  0
  7  5  1  0
  8  7  2  0
  9  7  1  0
 10  9  1  0
 10 11  1  6
 12 11  1  0
 13 10  1  0
 13 14  2  0
 15 13  1  0
 16 15  1  0
 16 17  1  1
 17 18  1  0
 18 26  1  0
 18 19  2  0
 19 20  1  0
 21 22  2  0
 21 20  1  0
 23 22  1  0
 24 23  2  0
 25 24  1  0
 25 26  2  0
 26 21  1  0
 27 16  1  0
 28 27  1  0
 29 27  2  0
M  END
$$$$
