ICW.pdb
     RDKit          3D

 29 30  0  0  1  0  0  0  0  0999 V2000
   22.0151  -21.6723  -17.4380 C   0  0  0  0  0  0  0  0  0  0  0  0
   23.2457  -20.8317  -17.2023 C   0  0  0  0  0  0  0  0  0  0  0  0
   23.9874  -21.2558  -15.9529 C   0  0  2  0  0  0  0  0  0  0  0  0
   23.7789  -20.1460  -14.9266 C   0  0  0  0  0  0  0  0  0  0  0  0
   25.4547  -21.4158  -16.2273 C   0  0  2  0  0  0  0  0  0  0  0  0
   25.6352  -22.4529  -17.2050 N   0  0  0  0  0  0  0  0  0  0  0  0
   26.2533  -21.6199  -15.0100 C   0  0  0  0  0  0  0  0  0  0  0  0
   26.3275  -22.7294  -14.4095 O   0  0  0  0  0  0  0  0  0  0  0  0
   27.0235  -20.5648  -14.3955 N   0  0  0  0  0  0  0  0  0  0  0  0
   27.6645  -20.7099  -13.1268 C   0  0  1  0  0  0  0  0  0  0  0  0
   28.8094  -19.7475  -12.9878 C   0  0  0  0  0  0  0  0  0  0  0  0
   29.6605  -19.8539  -11.4184 S   0  0  0  0  0  0  0  0  0  0  0  0
   26.7241  -20.6560  -11.9803 C   0  0  0  0  0  0  0  0  0  0  0  0
   25.7978  -19.8058  -12.0064 O   0  0  0  0  0  0  0  0  0  0  0  0
   26.7894  -21.4940  -10.8506 N   0  0  0  0  0  0  0  0  0  0  0  0
   25.8900  -21.4108   -9.7145 C   0  0  1  0  0  0  0  0  0  0  0  0
   26.7219  -21.7459   -8.4956 C   0  0  0  0  0  0  0  0  0  0  0  0
   27.0946  -20.5617   -7.7152 C   0  0  0  0  0  0  0  0  0  0  0  0
   26.7693  -19.2452   -7.9569 C   0  0  0  0  0  0  0  0  0  0  0  0
   27.3034  -18.4576   -7.0083 N   0  0  0  0  0  0  0  0  0  0  0  0
   27.9937  -19.2137   -6.1142 C   0  0  0  0  0  0  0  0  0  0  0  0
   28.7135  -18.9139   -4.9784 C   0  0  0  0  0  0  0  0  0  0  0  0
   29.3243  -19.8998   -4.2467 C   0  0  0  0  0  0  0  0  0  0  0  0
   29.1984  -21.2034   -4.6795 C   0  0  0  0  0  0  0  0  0  0  0  0
   28.4811  -21.5168   -5.8141 C   0  0  0  0  0  0  0  0  0  0  0  0
   27.8545  -20.5218   -6.5678 C   0  0  0  0  0  0  0  0  0  0  0  0
   25.3069  -20.0692   -9.6546 C   0  0  0  0  0  0  0  0  0  0  0  0
   24.0037  -19.8778   -9.2295 O   0  0  0  0  0  0  0  0  0  0  0  0
   25.9877  -19.0749   -9.9903 O   0  0  0  0  0  0  0  0  0  0  0  0
  2  1  1  0
  3  4  1  1
  3  2  1  0
  5  6  1  6
  5  3  1  0
  7  5  1  0
  8  7  2  0
  9  7  1  0
 10  9  1  0
 10 11  1  1
 12 11  1  0
 13 10  1  0
 13 14  2  0
 15 13  1  0
 16 15  1  0
 16 17  1  1
 17 18  1  0
 18 26  1  0
 18 19  2  0
 19 20  1  0
 21 22  2  0
 21 20  1  0
 23 22  1  0
 24 23  2  0
 25 24  1  0
 25 26  2  0
 26 21  1  0
 27 16  1  0
 28 27  1  0
 29 27  2  0
M  END
$$$$
