ICW.pdb
     RDKit          3D

 29 30  0  0  1  0  0  0  0  0999 V2000
   29.9982  -22.2105  -15.6755 C   0  0  0  0  0  0  0  0  0  0  0  0
   29.6482  -20.8689  -16.2707 C   0  0  0  0  0  0  0  0  0  0  0  0
   28.5958  -20.1480  -15.4560 C   0  0  2  0  0  0  0  0  0  0  0  0
   29.1245  -20.0808  -14.0261 C   0  0  0  0  0  0  0  0  0  0  0  0
   27.2950  -20.8975  -15.4748 C   0  0  2  0  0  0  0  0  0  0  0  0
   26.8364  -21.0001  -16.8325 N   0  0  0  0  0  0  0  0  0  0  0  0
   26.2885  -20.3349  -14.5628 C   0  0  0  0  0  0  0  0  0  0  0  0
   25.6615  -19.2637  -14.8006 O   0  0  0  0  0  0  0  0  0  0  0  0
   25.9303  -20.9621  -13.3129 N   0  0  0  0  0  0  0  0  0  0  0  0
   24.9469  -20.4226  -12.4278 C   0  0  1  0  0  0  0  0  0  0  0  0
   23.5846  -20.4396  -13.0604 C   0  0  0  0  0  0  0  0  0  0  0  0
   22.2839  -19.8222  -11.9993 S   0  0  0  0  0  0  0  0  0  0  0  0
   24.9635  -21.0408  -11.0789 C   0  0  0  0  0  0  0  0  0  0  0  0
   24.8450  -22.2898  -10.9923 O   0  0  0  0  0  0  0  0  0  0  0  0
   25.1035  -20.3279   -9.8728 N   0  0  0  0  0  0  0  0  0  0  0  0
   25.0257  -20.9261   -8.5527 C   0  0  1  0  0  0  0  0  0  0  0  0
   25.6815  -19.9430   -7.6074 C   0  0  0  0  0  0  0  0  0  0  0  0
   27.1135  -20.1979   -7.4213 C   0  0  0  0  0  0  0  0  0  0  0  0
   27.9870  -20.8214   -8.2849 C   0  0  0  0  0  0  0  0  0  0  0  0
   29.2177  -20.8591   -7.7468 N   0  0  0  0  0  0  0  0  0  0  0  0
   29.2052  -20.2693   -6.5222 C   0  0  0  0  0  0  0  0  0  0  0  0
   30.1754  -20.0460   -5.5700 C   0  0  0  0  0  0  0  0  0  0  0  0
   29.8781  -19.4102   -4.3920 C   0  0  0  0  0  0  0  0  0  0  0  0
   28.5778  -18.9990   -4.1853 C   0  0  0  0  0  0  0  0  0  0  0  0
   27.5977  -19.2162   -5.1299 C   0  0  0  0  0  0  0  0  0  0  0  0
   27.8880  -19.8626   -6.3335 C   0  0  0  0  0  0  0  0  0  0  0  0
   23.6240  -21.1871   -8.2202 C   0  0  0  0  0  0  0  0  0  0  0  0
   23.2837  -22.0989   -7.2361 O   0  0  0  0  0  0  0  0  0  0  0  0
   22.7131  -20.5829   -8.8285 O   0  0  0  0  0  0  0  0  0  0  0  0
  2  1  1  0
  3  4  1  1
  3  2  1  0
  5  6  1  6
  5  3  1  0
  7  5  1  0
  8  7  2  0
  9  7  1  0
 10  9  1  0
 10 11  1  6
 12 11  1  0
 13 10  1  0
 13 14  2  0
 15 13  1  0
 16 15  1  0
 16 17  1  1
 17 18  1  0
 18 26  1  0
 18 19  2  0
 19 20  1  0
 21 22  2  0
 21 20  1  0
 23 22  1  0
 24 23  2  0
 25 24  1  0
 25 26  2  0
 26 21  1  0
 27 16  1  0
 28 27  1  0
 29 27  2  0
M  END
$$$$
