ICW.pdb
     RDKit          3D

 29 30  0  0  1  0  0  0  0  0999 V2000
   24.8536  -23.7951  -19.1328 C   0  0  0  0  0  0  0  0  0  0  0  0
   24.1625  -23.4424  -17.8388 C   0  0  0  0  0  0  0  0  0  0  0  0
   25.1329  -23.3855  -16.6786 C   0  0  2  0  0  0  0  0  0  0  0  0
   24.3106  -23.0358  -15.4417 C   0  0  0  0  0  0  0  0  0  0  0  0
   26.1762  -22.3292  -16.9021 C   0  0  2  0  0  0  0  0  0  0  0  0
   27.0224  -22.7335  -17.9905 N   0  0  0  0  0  0  0  0  0  0  0  0
   26.9225  -21.9843  -15.6833 C   0  0  0  0  0  0  0  0  0  0  0  0
   27.8224  -22.7227  -15.1912 O   0  0  0  0  0  0  0  0  0  0  0  0
   26.6888  -20.7674  -14.9429 N   0  0  0  0  0  0  0  0  0  0  0  0
   27.3898  -20.4438  -13.7406 C   0  0  1  0  0  0  0  0  0  0  0  0
   27.9181  -19.0384  -13.7859 C   0  0  0  0  0  0  0  0  0  0  0  0
   26.6573  -17.7829  -13.6044 S   0  0  0  0  0  0  0  0  0  0  0  0
   26.6123  -20.7276  -12.5090 C   0  0  0  0  0  0  0  0  0  0  0  0
   25.3590  -20.6369  -12.5591 O   0  0  0  0  0  0  0  0  0  0  0  0
   27.1766  -21.0953  -11.2724 N   0  0  0  0  0  0  0  0  0  0  0  0
   26.4208  -21.2719  -10.0461 C   0  0  1  0  0  0  0  0  0  0  0  0
   27.4405  -21.5328   -8.9588 C   0  0  0  0  0  0  0  0  0  0  0  0
   27.4855  -20.4690   -7.9506 C   0  0  0  0  0  0  0  0  0  0  0  0
   26.7339  -19.3160   -7.8947 C   0  0  0  0  0  0  0  0  0  0  0  0
   27.0739  -18.5970   -6.8118 N   0  0  0  0  0  0  0  0  0  0  0  0
   28.0512  -19.2391   -6.1187 C   0  0  0  0  0  0  0  0  0  0  0  0
   28.7404  -18.9447   -4.9627 C   0  0  0  0  0  0  0  0  0  0  0  0
   29.7012  -19.7934   -4.4757 C   0  0  0  0  0  0  0  0  0  0  0  0
   29.9599  -20.9530   -5.1763 C   0  0  0  0  0  0  0  0  0  0  0  0
   29.2775  -21.2593   -6.3342 C   0  0  0  0  0  0  0  0  0  0  0  0
   28.2969  -20.4032   -6.8403 C   0  0  0  0  0  0  0  0  0  0  0  0
   25.6154  -20.0752   -9.7959 C   0  0  0  0  0  0  0  0  0  0  0  0
   24.3833  -20.1639   -9.1716 O   0  0  0  0  0  0  0  0  0  0  0  0
   26.0376  -18.9514  -10.1476 O   0  0  0  0  0  0  0  0  0  0  0  0
  2  1  1  0
  3  4  1  1
  3  2  1  0
  5  6  1  6
  5  3  1  0
  7  5  1  0
  8  7  2  0
  9  7  1  0
 10  9  1  0
 10 11  1  6
 12 11  1  0
 13 10  1  0
 13 14  2  0
 15 13  1  0
 16 15  1  0
 16 17  1  1
 17 18  1  0
 18 26  1  0
 18 19  2  0
 19 20  1  0
 21 22  2  0
 21 20  1  0
 23 22  1  0
 24 23  2  0
 25 24  1  0
 25 26  2  0
 26 21  1  0
 27 16  1  0
 28 27  1  0
 29 27  2  0
M  END
$$$$
