ICW.pdb
     RDKit          3D

 29 30  0  0  1  0  0  0  0  0999 V2000
   25.2542  -19.2087  -18.1310 C   0  0  0  0  0  0  0  0  0  0  0  0
   24.1182  -19.7437  -17.2945 C   0  0  0  0  0  0  0  0  0  0  0  0
   24.1836  -19.2420  -15.8680 C   0  0  2  0  0  0  0  0  0  0  0  0
   25.4688  -19.8054  -15.2683 C   0  0  0  0  0  0  0  0  0  0  0  0
   23.0054  -19.7263  -15.0735 C   0  0  2  0  0  0  0  0  0  0  0  0
   21.7978  -19.3488  -15.7544 N   0  0  0  0  0  0  0  0  0  0  0  0
   23.0379  -19.2971  -13.6678 C   0  0  0  0  0  0  0  0  0  0  0  0
   22.6202  -18.1694  -13.2792 O   0  0  0  0  0  0  0  0  0  0  0  0
   23.5524  -20.1318  -12.6084 N   0  0  0  0  0  0  0  0  0  0  0  0
   23.2126  -19.9389  -11.2340 C   0  0  1  0  0  0  0  0  0  0  0  0
   21.7344  -19.7302  -11.0681 C   0  0  0  0  0  0  0  0  0  0  0  0
   21.2438  -19.3066   -9.4012 S   0  0  0  0  0  0  0  0  0  0  0  0
   23.7497  -20.9937  -10.3391 C   0  0  0  0  0  0  0  0  0  0  0  0
   23.0300  -21.9965  -10.0981 O   0  0  0  0  0  0  0  0  0  0  0  0
   25.0191  -20.9582   -9.7310 N   0  0  0  0  0  0  0  0  0  0  0  0
   25.2514  -21.1198   -8.3075 C   0  0  1  0  0  0  0  0  0  0  0  0
   25.3340  -19.7216   -7.7345 C   0  0  0  0  0  0  0  0  0  0  0  0
   26.6973  -19.3407   -7.3518 C   0  0  0  0  0  0  0  0  0  0  0  0
   27.5310  -18.4306   -7.9635 C   0  0  0  0  0  0  0  0  0  0  0  0
   28.7017  -18.3655   -7.3073 N   0  0  0  0  0  0  0  0  0  0  0  0
   28.6872  -19.2193   -6.2497 C   0  0  0  0  0  0  0  0  0  0  0  0
   29.6090  -19.5342   -5.2756 C   0  0  0  0  0  0  0  0  0  0  0  0
   29.3232  -20.4572   -4.3025 C   0  0  0  0  0  0  0  0  0  0  0  0
   28.0846  -21.0637   -4.3252 C   0  0  0  0  0  0  0  0  0  0  0  0
   27.1534  -20.7576   -5.2943 C   0  0  0  0  0  0  0  0  0  0  0  0
   27.4324  -19.8194   -6.2906 C   0  0  0  0  0  0  0  0  0  0  0  0
   24.1654  -21.9104   -7.7253 C   0  0  0  0  0  0  0  0  0  0  0  0
   24.4190  -23.1240   -7.1100 O   0  0  0  0  0  0  0  0  0  0  0  0
   22.9877  -21.4923   -7.7796 O   0  0  0  0  0  0  0  0  0  0  0  0
  2  1  1  0
  3  4  1  1
  3  2  1  0
  5  6  1  6
  5  3  1  0
  7  5  1  0
  8  7  2  0
  9  7  1  0
 10  9  1  0
 10 11  1  6
 12 11  1  0
 13 10  1  0
 13 14  2  0
 15 13  1  0
 16 15  1  0
 16 17  1  1
 17 18  1  0
 18 26  1  0
 18 19  2  0
 19 20  1  0
 21 22  2  0
 21 20  1  0
 23 22  1  0
 24 23  2  0
 25 24  1  0
 25 26  2  0
 26 21  1  0
 27 16  1  0
 28 27  1  0
 29 27  2  0
M  END
$$$$
