ICW.pdb
     RDKit          3D

 29 30  0  0  1  0  0  0  0  0999 V2000
   28.9383  -15.4829  -17.9184 C   0  0  0  0  0  0  0  0  0  0  0  0
   28.1897  -16.7796  -17.7319 C   0  0  0  0  0  0  0  0  0  0  0  0
   27.5793  -16.8845  -16.3508 C   0  0  2  0  0  0  0  0  0  0  0  0
   28.2501  -18.0735  -15.6690 C   0  0  0  0  0  0  0  0  0  0  0  0
   26.0995  -17.1239  -16.4341 C   0  0  2  0  0  0  0  0  0  0  0  0
   25.4836  -16.0067  -17.0950 N   0  0  0  0  0  0  0  0  0  0  0  0
   25.4889  -17.4385  -15.1344 C   0  0  0  0  0  0  0  0  0  0  0  0
   25.0631  -16.5542  -14.3382 O   0  0  0  0  0  0  0  0  0  0  0  0
   25.3238  -18.7905  -14.6561 N   0  0  0  0  0  0  0  0  0  0  0  0
   24.8049  -19.0975  -13.3607 C   0  0  1  0  0  0  0  0  0  0  0  0
   23.3695  -19.5322  -13.4437 C   0  0  0  0  0  0  0  0  0  0  0  0
   22.7108  -20.1589  -11.9036 S   0  0  0  0  0  0  0  0  0  0  0  0
   25.6510  -20.0463  -12.5953 C   0  0  0  0  0  0  0  0  0  0  0  0
   25.9986  -21.1195  -13.1511 O   0  0  0  0  0  0  0  0  0  0  0  0
   26.1004  -19.8353  -11.2777 N   0  0  0  0  0  0  0  0  0  0  0  0
   26.9459  -20.7574  -10.5419 C   0  0  1  0  0  0  0  0  0  0  0  0
   27.6219  -19.9378   -9.4643 C   0  0  0  0  0  0  0  0  0  0  0  0
   27.0601  -20.1736   -8.1304 C   0  0  0  0  0  0  0  0  0  0  0  0
   25.9414  -20.9034   -7.7941 C   0  0  0  0  0  0  0  0  0  0  0  0
   25.7591  -20.8793   -6.4631 N   0  0  0  0  0  0  0  0  0  0  0  0
   26.7383  -20.1418   -5.8756 C   0  0  0  0  0  0  0  0  0  0  0  0
   27.0141  -19.8061   -4.5683 C   0  0  0  0  0  0  0  0  0  0  0  0
   28.0973  -19.0274   -4.2509 C   0  0  0  0  0  0  0  0  0  0  0  0
   28.9056  -18.5880   -5.2785 C   0  0  0  0  0  0  0  0  0  0  0  0
   28.6407  -18.9167   -6.5907 C   0  0  0  0  0  0  0  0  0  0  0  0
   27.5407  -19.7090   -6.9268 C   0  0  0  0  0  0  0  0  0  0  0  0
   26.1251  -21.8424  -10.0013 C   0  0  0  0  0  0  0  0  0  0  0  0
   26.6741  -23.0840   -9.7317 O   0  0  0  0  0  0  0  0  0  0  0  0
   24.9089  -21.6552   -9.7763 O   0  0  0  0  0  0  0  0  0  0  0  0
  2  1  1  0
  3  4  1  6
  3  2  1  0
  5  6  1  1
  5  3  1  0
  7  5  1  0
  8  7  2  0
  9  7  1  0
 10  9  1  0
 10 11  1  6
 12 11  1  0
 13 10  1  0
 13 14  2  0
 15 13  1  0
 16 15  1  0
 16 17  1  1
 17 18  1  0
 18 26  1  0
 18 19  2  0
 19 20  1  0
 21 22  2  0
 21 20  1  0
 23 22  1  0
 24 23  2  0
 25 24  1  0
 25 26  2  0
 26 21  1  0
 27 16  1  0
 28 27  1  0
 29 27  2  0
M  END
$$$$
