ICW.pdb
     RDKit          3D

 29 30  0  0  1  0  0  0  0  0999 V2000
   21.7425  -24.5156  -16.7858 C   0  0  0  0  0  0  0  0  0  0  0  0
   23.0601  -23.8661  -17.1303 C   0  0  0  0  0  0  0  0  0  0  0  0
   23.8971  -23.6004  -15.8975 C   0  0  2  0  0  0  0  0  0  0  0  0
   23.1301  -22.5777  -15.0643 C   0  0  0  0  0  0  0  0  0  0  0  0
   25.2388  -23.0390  -16.2698 C   0  0  2  0  0  0  0  0  0  0  0  0
   25.9309  -23.9928  -17.0916 N   0  0  0  0  0  0  0  0  0  0  0  0
   26.0239  -22.5948  -15.1089 C   0  0  0  0  0  0  0  0  0  0  0  0
   26.4760  -23.3883  -14.2353 O   0  0  0  0  0  0  0  0  0  0  0  0
   26.3456  -21.2083  -14.8683 N   0  0  0  0  0  0  0  0  0  0  0  0
   27.0136  -20.7603  -13.6873 C   0  0  1  0  0  0  0  0  0  0  0  0
   27.6146  -19.3989  -13.8912 C   0  0  0  0  0  0  0  0  0  0  0  0
   28.2628  -18.6605  -12.3968 S   0  0  0  0  0  0  0  0  0  0  0  0
   26.1741  -20.8426  -12.4666 C   0  0  0  0  0  0  0  0  0  0  0  0
   24.9827  -20.4453  -12.5326 O   0  0  0  0  0  0  0  0  0  0  0  0
   26.6138  -21.3375  -11.2239 N   0  0  0  0  0  0  0  0  0  0  0  0
   25.8013  -21.3747  -10.0218 C   0  0  1  0  0  0  0  0  0  0  0  0
   26.7349  -21.7642   -8.8964 C   0  0  0  0  0  0  0  0  0  0  0  0
   27.0379  -20.6490   -7.9937 C   0  0  0  0  0  0  0  0  0  0  0  0
   26.5763  -19.3528   -8.0563 C   0  0  0  0  0  0  0  0  0  0  0  0
   27.0867  -18.6330   -7.0431 N   0  0  0  0  0  0  0  0  0  0  0  0
   27.8954  -19.4160   -6.2811 C   0  0  0  0  0  0  0  0  0  0  0  0
   28.6473  -19.1815   -5.1508 C   0  0  0  0  0  0  0  0  0  0  0  0
   29.3894  -20.1803   -4.5744 C   0  0  0  0  0  0  0  0  0  0  0  0
   29.3628  -21.4296   -5.1584 C   0  0  0  0  0  0  0  0  0  0  0  0
   28.6148  -21.6774   -6.2894 C   0  0  0  0  0  0  0  0  0  0  0  0
   27.8549  -20.6686   -6.8857 C   0  0  0  0  0  0  0  0  0  0  0  0
   25.1777  -20.0660   -9.8171 C   0  0  0  0  0  0  0  0  0  0  0  0
   23.9684  -19.9496   -9.1540 O   0  0  0  0  0  0  0  0  0  0  0  0
   25.7375  -19.0319  -10.2438 O   0  0  0  0  0  0  0  0  0  0  0  0
  2  1  1  0
  3  4  1  1
  3  2  1  0
  5  6  1  1
  5  3  1  0
  7  5  1  0
  8  7  2  0
  9  7  1  0
 10  9  1  0
 10 11  1  6
 12 11  1  0
 13 10  1  0
 13 14  2  0
 15 13  1  0
 16 15  1  0
 16 17  1  1
 17 18  1  0
 18 26  1  0
 18 19  2  0
 19 20  1  0
 21 22  2  0
 21 20  1  0
 23 22  1  0
 24 23  2  0
 25 24  1  0
 25 26  2  0
 26 21  1  0
 27 16  1  0
 28 27  1  0
 29 27  2  0
M  END
$$$$
