ICW.pdb
     RDKit          3D

 29 30  0  0  1  0  0  0  0  0999 V2000
   24.6908  -26.2130  -17.2939 C   0  0  0  0  0  0  0  0  0  0  0  0
   25.1607  -24.8354  -17.6913 C   0  0  0  0  0  0  0  0  0  0  0  0
   26.0953  -24.2394  -16.6607 C   0  0  2  0  0  0  0  0  0  0  0  0
   25.3014  -24.1390  -15.3614 C   0  0  0  0  0  0  0  0  0  0  0  0
   26.5513  -22.8708  -17.0766 C   0  0  2  0  0  0  0  0  0  0  0  0
   27.3911  -22.9922  -18.2360 N   0  0  0  0  0  0  0  0  0  0  0  0
   27.1760  -22.1109  -15.9840 C   0  0  0  0  0  0  0  0  0  0  0  0
   28.2355  -22.4801  -15.4025 O   0  0  0  0  0  0  0  0  0  0  0  0
   26.6288  -20.8732  -15.4815 N   0  0  0  0  0  0  0  0  0  0  0  0
   27.1387  -20.2139  -14.3209 C   0  0  1  0  0  0  0  0  0  0  0  0
   27.1847  -18.7261  -14.5224 C   0  0  0  0  0  0  0  0  0  0  0  0
   27.3607  -17.7936  -13.0065 S   0  0  0  0  0  0  0  0  0  0  0  0
   26.4467  -20.6045  -13.0678 C   0  0  0  0  0  0  0  0  0  0  0  0
   25.1896  -20.6415  -13.0657 O   0  0  0  0  0  0  0  0  0  0  0  0
   27.0970  -20.9414  -11.8652 N   0  0  0  0  0  0  0  0  0  0  0  0
   26.4146  -21.2429  -10.6203 C   0  0  1  0  0  0  0  0  0  0  0  0
   27.4988  -21.4165   -9.5790 C   0  0  0  0  0  0  0  0  0  0  0  0
   27.2176  -20.6923   -8.3353 C   0  0  0  0  0  0  0  0  0  0  0  0
   26.1514  -19.8673   -8.0524 C   0  0  0  0  0  0  0  0  0  0  0  0
   26.2560  -19.3935   -6.7994 N   0  0  0  0  0  0  0  0  0  0  0  0
   27.3812  -19.8811   -6.2130 C   0  0  0  0  0  0  0  0  0  0  0  0
   27.9472  -19.7148   -4.9681 C   0  0  0  0  0  0  0  0  0  0  0  0
   29.1197  -20.3426   -4.6339 C   0  0  0  0  0  0  0  0  0  0  0  0
   29.7189  -21.1473   -5.5804 C   0  0  0  0  0  0  0  0  0  0  0  0
   29.1631  -21.3221   -6.8296 C   0  0  0  0  0  0  0  0  0  0  0  0
   27.9695  -20.6882   -7.1819 C   0  0  0  0  0  0  0  0  0  0  0  0
   25.4866  -20.1568  -10.3003 C   0  0  0  0  0  0  0  0  0  0  0  0
   24.2401  -20.4214   -9.7598 O   0  0  0  0  0  0  0  0  0  0  0  0
   25.8149  -18.9689  -10.5147 O   0  0  0  0  0  0  0  0  0  0  0  0
  2  1  1  0
  3  4  1  1
  3  2  1  0
  5  6  1  6
  5  3  1  0
  7  5  1  0
  8  7  2  0
  9  7  1  0
 10  9  1  0
 10 11  1  6
 12 11  1  0
 13 10  1  0
 13 14  2  0
 15 13  1  0
 16 15  1  0
 16 17  1  1
 17 18  1  0
 18 26  1  0
 18 19  2  0
 19 20  1  0
 21 22  2  0
 21 20  1  0
 23 22  1  0
 24 23  2  0
 25 24  1  0
 25 26  2  0
 26 21  1  0
 27 16  1  0
 28 27  1  0
 29 27  2  0
M  END
$$$$
