DGH.pdb
     RDKit          3D

 23 23  0  0  1  0  0  0  0  0999 V2000
   20.4019   -3.1611  -15.5156 N   0  0  0  0  0  0  0  0  0  0  0  0
   21.8190   -3.2808  -15.7055 C   0  0  1  0  0  0  0  0  0  0  0  0
   22.6067   -3.0539  -14.4364 C   0  0  0  0  0  0  0  0  0  0  0  0
   22.3182   -1.7048  -13.9190 C   0  0  0  0  0  0  0  0  0  0  0  0
   22.5125   -0.7061  -14.6377 O   0  0  0  0  0  0  0  0  0  0  0  0
   22.1592   -4.5819  -16.3372 C   0  0  0  0  0  0  0  0  0  0  0  0
   23.3325   -4.8589  -16.7181 O   0  0  0  0  0  0  0  0  0  0  0  0
   21.8335   -1.5407  -12.6420 O   0  0  0  0  0  0  0  0  0  0  0  0
   21.1405   -5.5658  -16.5291 N   0  0  0  0  0  0  0  0  0  0  0  0
   21.4056   -6.8637  -17.0834 C   0  0  0  0  0  0  0  0  0  0  0  0
   20.2385   -7.7364  -17.2248 C   0  0  0  0  0  0  0  0  0  0  0  0
   20.3378   -8.7959  -17.9389 O   0  0  0  0  0  0  0  0  0  0  0  0
   19.0175   -7.4295  -16.5951 N   0  0  0  0  0  0  0  0  0  0  0  0
   17.8350   -8.2885  -16.9062 C   0  0  1  0  0  0  0  0  0  0  0  0
   17.6255   -9.0978  -15.6748 C   0  0  0  0  0  0  0  0  0  0  0  0
   18.5828  -10.2016  -15.5644 C   0  0  0  0  0  0  0  0  0  0  0  0
   18.6027  -11.3745  -16.2531 C   0  0  0  0  0  0  0  0  0  0  0  0
   19.7262  -12.0490  -15.8648 N   0  0  0  0  0  0  0  0  0  0  0  0
   20.3493  -11.2803  -14.9671 C   0  0  0  0  0  0  0  0  0  0  0  0
   19.6802  -10.1436  -14.7586 N   0  0  0  0  0  0  0  0  0  0  0  0
   16.7361   -7.2912  -17.1124 C   0  0  0  0  0  0  0  0  0  0  0  0
   15.5416   -7.6886  -17.3214 O   0  0  0  0  0  0  0  0  0  0  0  0
   16.9584   -5.9623  -17.0887 O   0  0  0  0  0  0  0  0  0  0  0  0
  2  1  1  1
  2  6  1  0
  2  3  1  0
  3  4  1  0
  4  8  1  0
  4  5  2  0
  6  9  1  0
  7  6  2  0
  9 10  1  0
 10 11  1  0
 11 13  1  0
 11 12  2  0
 13 14  1  0
 14 21  1  0
 14 15  1  1
 16 17  2  0
 16 15  1  0
 18 17  1  0
 19 20  2  0
 19 18  1  0
 20 16  1  0
 21 22  2  0
 21 23  1  0
M  END
$$$$
