DGH.pdb
     RDKit          3D

 23 23  0  0  1  0  0  0  0  0999 V2000
   16.4217  -23.6668    4.7800 N   0  0  0  0  0  0  0  0  0  0  0  0
   16.3496  -22.9869    3.5187 C   0  0  1  0  0  0  0  0  0  0  0  0
   15.4217  -23.6615    2.5357 C   0  0  0  0  0  0  0  0  0  0  0  0
   16.1087  -24.8167    1.9318 C   0  0  0  0  0  0  0  0  0  0  0  0
   17.2133  -25.1863    2.3732 O   0  0  0  0  0  0  0  0  0  0  0  0
   16.0000  -21.5554    3.7096 C   0  0  0  0  0  0  0  0  0  0  0  0
   15.9505  -20.7401    2.7445 O   0  0  0  0  0  0  0  0  0  0  0  0
   15.5355  -25.4921    0.8794 O   0  0  0  0  0  0  0  0  0  0  0  0
   15.7064  -21.0649    5.0194 N   0  0  0  0  0  0  0  0  0  0  0  0
   15.3492  -19.6982    5.2775 C   0  0  0  0  0  0  0  0  0  0  0  0
   16.4523  -18.8277    5.6889 C   0  0  0  0  0  0  0  0  0  0  0  0
   17.6269  -19.3267    5.8064 O   0  0  0  0  0  0  0  0  0  0  0  0
   16.2426  -17.4621    5.9581 N   0  0  0  0  0  0  0  0  0  0  0  0
   17.4157  -16.6482    6.3993 C   0  0  1  0  0  0  0  0  0  0  0  0
   17.1917  -15.3081    5.7915 C   0  0  0  0  0  0  0  0  0  0  0  0
   17.6259  -15.2512    4.3932 C   0  0  0  0  0  0  0  0  0  0  0  0
   18.1307  -16.2532    3.6241 C   0  0  0  0  0  0  0  0  0  0  0  0
   18.3146  -15.7427    2.3697 N   0  0  0  0  0  0  0  0  0  0  0  0
   17.9217  -14.4663    2.4089 C   0  0  0  0  0  0  0  0  0  0  0  0
   17.4943  -14.1308    3.6288 N   0  0  0  0  0  0  0  0  0  0  0  0
   17.2658  -16.6172    7.8897 C   0  0  0  0  0  0  0  0  0  0  0  0
   16.2392  -17.1374    8.4410 O   0  0  0  0  0  0  0  0  0  0  0  0
   18.1871  -16.0493    8.6926 O   0  0  0  0  0  0  0  0  0  0  0  0
  2  1  1  1
  2  6  1  0
  2  3  1  0
  3  4  1  0
  4  8  1  0
  4  5  2  0
  6  9  1  0
  7  6  2  0
  9 10  1  0
 10 11  1  0
 11 13  1  0
 11 12  2  0
 13 14  1  0
 14 21  1  0
 14 15  1  6
 16 17  2  0
 16 15  1  0
 18 17  1  0
 19 20  2  0
 19 18  1  0
 20 16  1  0
 21 22  2  0
 21 23  1  0
M  END
$$$$
