DGH.pdb
     RDKit          3D

 23 23  0  0  1  0  0  0  0  0999 V2000
   25.0415   -6.8514  -20.1206 N   0  0  0  0  0  0  0  0  0  0  0  0
   24.0808   -6.2605  -21.0073 C   0  0  1  0  0  0  0  0  0  0  0  0
   24.3630   -6.5507  -22.4628 C   0  0  0  0  0  0  0  0  0  0  0  0
   25.4880   -5.7142  -22.9167 C   0  0  0  0  0  0  0  0  0  0  0  0
   25.9632   -4.8446  -22.1621 O   0  0  0  0  0  0  0  0  0  0  0  0
   22.6993   -6.6538  -20.6273 C   0  0  0  0  0  0  0  0  0  0  0  0
   21.6809   -6.1808  -21.2082 O   0  0  0  0  0  0  0  0  0  0  0  0
   26.0188   -5.8885  -24.1739 O   0  0  0  0  0  0  0  0  0  0  0  0
   22.4943   -7.5967  -19.5730 N   0  0  0  0  0  0  0  0  0  0  0  0
   21.1886   -7.9969  -19.1289 C   0  0  0  0  0  0  0  0  0  0  0  0
   21.0969   -8.3884  -17.7211 C   0  0  0  0  0  0  0  0  0  0  0  0
   19.9773   -8.8155  -17.2666 O   0  0  0  0  0  0  0  0  0  0  0  0
   22.2110   -8.3003  -16.8653 N   0  0  0  0  0  0  0  0  0  0  0  0
   22.0299   -8.7038  -15.4378 C   0  0  1  0  0  0  0  0  0  0  0  0
   23.3302   -9.3182  -15.0543 C   0  0  0  0  0  0  0  0  0  0  0  0
   23.5689  -10.5906  -15.7406 C   0  0  0  0  0  0  0  0  0  0  0  0
   22.8171  -11.1828  -16.7073 C   0  0  0  0  0  0  0  0  0  0  0  0
   23.4796  -12.3139  -17.0944 N   0  0  0  0  0  0  0  0  0  0  0  0
   24.5980  -12.3768  -16.3662 C   0  0  0  0  0  0  0  0  0  0  0  0
   24.6867  -11.3406  -15.5285 N   0  0  0  0  0  0  0  0  0  0  0  0
   21.8034   -7.3965  -14.7419 C   0  0  0  0  0  0  0  0  0  0  0  0
   21.9323   -6.2998  -15.3815 O   0  0  0  0  0  0  0  0  0  0  0  0
   21.4641   -7.3252  -13.4397 O   0  0  0  0  0  0  0  0  0  0  0  0
  2  1  1  1
  2  6  1  0
  2  3  1  0
  3  4  1  0
  4  8  1  0
  4  5  2  0
  6  9  1  0
  7  6  2  0
  9 10  1  0
 10 11  1  0
 11 13  1  0
 11 12  2  0
 13 14  1  0
 14 21  1  0
 14 15  1  1
 16 17  2  0
 16 15  1  0
 18 17  1  0
 19 20  2  0
 19 18  1  0
 20 16  1  0
 21 22  2  0
 21 23  1  0
M  END
$$$$
