DGH.pdb
     RDKit          3D

 23 23  0  0  1  0  0  0  0  0999 V2000
   17.5437  -13.6119  -16.0245 N   0  0  0  0  0  0  0  0  0  0  0  0
   16.5694  -12.8488  -16.7504 C   0  0  1  0  0  0  0  0  0  0  0  0
   15.2771  -12.6641  -15.9901 C   0  0  0  0  0  0  0  0  0  0  0  0
   14.7438  -13.9836  -15.6085 C   0  0  0  0  0  0  0  0  0  0  0  0
   14.9586  -14.9758  -16.3303 O   0  0  0  0  0  0  0  0  0  0  0  0
   17.1379  -11.5484  -17.1904 C   0  0  0  0  0  0  0  0  0  0  0  0
   16.4699  -10.7170  -17.8695 O   0  0  0  0  0  0  0  0  0  0  0  0
   14.0074  -14.1271  -14.4554 O   0  0  0  0  0  0  0  0  0  0  0  0
   18.4820  -11.2079  -16.8445 N   0  0  0  0  0  0  0  0  0  0  0  0
   19.1027   -9.9778  -17.2491 C   0  0  0  0  0  0  0  0  0  0  0  0
   19.4140   -9.0450  -16.1644 C   0  0  0  0  0  0  0  0  0  0  0  0
   18.9253   -9.2612  -14.9996 O   0  0  0  0  0  0  0  0  0  0  0  0
   20.2334   -7.9211  -16.3813 N   0  0  0  0  0  0  0  0  0  0  0  0
   20.5812   -7.0713  -15.2023 C   0  0  1  0  0  0  0  0  0  0  0  0
   22.0686   -7.0174  -15.2051 C   0  0  0  0  0  0  0  0  0  0  0  0
   22.6737   -8.3233  -14.9305 C   0  0  0  0  0  0  0  0  0  0  0  0
   22.2021   -9.3228  -14.1375 C   0  0  0  0  0  0  0  0  0  0  0  0
   23.0687  -10.3729  -14.2570 N   0  0  0  0  0  0  0  0  0  0  0  0
   24.0266   -9.9906  -15.1063 C   0  0  0  0  0  0  0  0  0  0  0  0
   23.8182   -8.7444  -15.5386 N   0  0  0  0  0  0  0  0  0  0  0  0
   19.9739   -5.7461  -15.5484 C   0  0  0  0  0  0  0  0  0  0  0  0
   19.4935   -5.5466  -16.7136 O   0  0  0  0  0  0  0  0  0  0  0  0
   19.9132   -4.7309  -14.6642 O   0  0  0  0  0  0  0  0  0  0  0  0
  2  1  1  1
  2  6  1  0
  2  3  1  0
  3  4  1  0
  4  8  1  0
  4  5  2  0
  6  9  1  0
  7  6  2  0
  9 10  1  0
 10 11  1  0
 11 13  1  0
 11 12  2  0
 13 14  1  0
 14 21  1  0
 14 15  1  6
 16 17  2  0
 16 15  1  0
 18 17  1  0
 19 20  2  0
 19 18  1  0
 20 16  1  0
 21 22  2  0
 21 23  1  0
M  END
$$$$
