DGH.pdb
     RDKit          3D

 23 23  0  0  1  0  0  0  0  0999 V2000
   25.3353  -35.1305   -3.5397 N   0  0  0  0  0  0  0  0  0  0  0  0
   26.2777  -34.5679   -4.4638 C   0  0  1  0  0  0  0  0  0  0  0  0
   26.6919  -33.1607   -4.1026 C   0  0  0  0  0  0  0  0  0  0  0  0
   25.5452  -32.4539   -3.5053 C   0  0  0  0  0  0  0  0  0  0  0  0
   24.4057  -32.9536   -3.5622 O   0  0  0  0  0  0  0  0  0  0  0  0
   27.4538  -35.4610   -4.6282 C   0  0  0  0  0  0  0  0  0  0  0  0
   28.3785  -35.2113   -5.4534 O   0  0  0  0  0  0  0  0  0  0  0  0
   25.7261  -31.2405   -2.8827 O   0  0  0  0  0  0  0  0  0  0  0  0
   27.5616  -36.6458   -3.8363 N   0  0  0  0  0  0  0  0  0  0  0  0
   28.6758  -37.5468   -3.9303 C   0  0  0  0  0  0  0  0  0  0  0  0
   29.8230  -37.2173   -3.0823 C   0  0  0  0  0  0  0  0  0  0  0  0
   30.7879  -38.0555   -2.9892 O   0  0  0  0  0  0  0  0  0  0  0  0
   29.8797  -36.0040   -2.3708 N   0  0  0  0  0  0  0  0  0  0  0  0
   31.1209  -35.7066   -1.5936 C   0  0  1  0  0  0  0  0  0  0  0  0
   31.6061  -34.4115   -2.1437 C   0  0  0  0  0  0  0  0  0  0  0  0
   32.3051  -34.5760   -3.4210 C   0  0  0  0  0  0  0  0  0  0  0  0
   32.4954  -35.7156   -4.1390 C   0  0  0  0  0  0  0  0  0  0  0  0
   33.1316  -35.3599   -5.2952 N   0  0  0  0  0  0  0  0  0  0  0  0
   33.3063  -34.0361   -5.2505 C   0  0  0  0  0  0  0  0  0  0  0  0
   32.8136  -33.5229   -4.1204 N   0  0  0  0  0  0  0  0  0  0  0  0
   30.6160  -35.5627   -0.1903 C   0  0  0  0  0  0  0  0  0  0  0  0
   29.3736  -35.3682    0.0265 O   0  0  0  0  0  0  0  0  0  0  0  0
   31.4349  -35.6288    0.8780 O   0  0  0  0  0  0  0  0  0  0  0  0
  2  1  1  1
  2  6  1  0
  2  3  1  0
  3  4  1  0
  4  8  1  0
  4  5  2  0
  6  9  1  0
  7  6  2  0
  9 10  1  0
 10 11  1  0
 11 13  1  0
 11 12  2  0
 13 14  1  0
 14 21  1  0
 14 15  1  6
 16 17  2  0
 16 15  1  0
 18 17  1  0
 19 20  2  0
 19 18  1  0
 20 16  1  0
 21 22  2  0
 21 23  1  0
M  END
$$$$
