DGH.pdb
     RDKit          3D

 23 23  0  0  1  0  0  0  0  0999 V2000
   18.6145   -9.1280  -16.0061 N   0  0  0  0  0  0  0  0  0  0  0  0
   19.7215   -9.7060  -15.2999 C   0  0  1  0  0  0  0  0  0  0  0  0
   20.3702  -10.8463  -16.0492 C   0  0  0  0  0  0  0  0  0  0  0  0
   19.3603  -11.8824  -16.3284 C   0  0  0  0  0  0  0  0  0  0  0  0
   18.2207  -11.7923  -15.8336 O   0  0  0  0  0  0  0  0  0  0  0  0
   20.7109   -8.6632  -14.9241 C   0  0  0  0  0  0  0  0  0  0  0  0
   21.9009   -8.9478  -14.6059 O   0  0  0  0  0  0  0  0  0  0  0  0
   19.6696  -12.9528  -17.1352 O   0  0  0  0  0  0  0  0  0  0  0  0
   20.3238   -7.2875  -14.9161 N   0  0  0  0  0  0  0  0  0  0  0  0
   21.2316   -6.2248  -14.5863 C   0  0  0  0  0  0  0  0  0  0  0  0
   21.7588   -5.4727  -15.7265 C   0  0  0  0  0  0  0  0  0  0  0  0
   22.5030   -4.4527  -15.5075 O   0  0  0  0  0  0  0  0  0  0  0  0
   21.4601   -5.8490  -17.0496 N   0  0  0  0  0  0  0  0  0  0  0  0
   22.0458   -5.0348  -18.1574 C   0  0  1  0  0  0  0  0  0  0  0  0
   22.5924   -6.0382  -19.1113 C   0  0  0  0  0  0  0  0  0  0  0  0
   23.8681   -6.5993  -18.6588 C   0  0  0  0  0  0  0  0  0  0  0  0
   24.0828   -7.5593  -17.7193 C   0  0  0  0  0  0  0  0  0  0  0  0
   25.4267   -7.8075  -17.6989 N   0  0  0  0  0  0  0  0  0  0  0  0
   25.9830   -7.0066  -18.6121 C   0  0  0  0  0  0  0  0  0  0  0  0
   25.0615   -6.2544  -19.2190 N   0  0  0  0  0  0  0  0  0  0  0  0
   20.8548   -4.3209  -18.7199 C   0  0  0  0  0  0  0  0  0  0  0  0
   19.6909   -4.5464  -18.2476 O   0  0  0  0  0  0  0  0  0  0  0  0
   20.9598   -3.4323  -19.7276 O   0  0  0  0  0  0  0  0  0  0  0  0
  2  1  1  6
  2  6  1  0
  2  3  1  0
  3  4  1  0
  4  8  1  0
  4  5  2  0
  6  9  1  0
  7  6  2  0
  9 10  1  0
 10 11  1  0
 11 13  1  0
 11 12  2  0
 13 14  1  0
 14 21  1  0
 14 15  1  6
 16 17  2  0
 16 15  1  0
 18 17  1  0
 19 20  2  0
 19 18  1  0
 20 16  1  0
 21 22  2  0
 21 23  1  0
M  END
$$$$
