DGH.pdb
     RDKit          3D

 23 23  0  0  1  0  0  0  0  0999 V2000
   19.6808  -11.2915  -15.4569 N   0  0  0  0  0  0  0  0  0  0  0  0
   18.3860  -10.9420  -15.9666 C   0  0  1  0  0  0  0  0  0  0  0  0
   17.3047  -11.9104  -15.5476 C   0  0  0  0  0  0  0  0  0  0  0  0
   17.6897  -13.2743  -15.9509 C   0  0  0  0  0  0  0  0  0  0  0  0
   17.8605  -14.1555  -15.0873 O   0  0  0  0  0  0  0  0  0  0  0  0
   18.0378   -9.5425  -15.6091 C   0  0  0  0  0  0  0  0  0  0  0  0
   16.9564   -9.2461  -15.0249 O   0  0  0  0  0  0  0  0  0  0  0  0
   17.8622  -13.5816  -17.2807 O   0  0  0  0  0  0  0  0  0  0  0  0
   18.9419   -8.4825  -15.9277 N   0  0  0  0  0  0  0  0  0  0  0  0
   18.7172   -7.1211  -15.5301 C   0  0  0  0  0  0  0  0  0  0  0  0
   19.7987   -6.1871  -15.8491 C   0  0  0  0  0  0  0  0  0  0  0  0
   19.6387   -4.9411  -15.5955 O   0  0  0  0  0  0  0  0  0  0  0  0
   21.0012   -6.6339  -16.4286 N   0  0  0  0  0  0  0  0  0  0  0  0
   21.9671   -5.6036  -16.9173 C   0  0  1  0  0  0  0  0  0  0  0  0
   22.8033   -5.2805  -15.7291 C   0  0  0  0  0  0  0  0  0  0  0  0
   23.9989   -4.5107  -16.0824 C   0  0  0  0  0  0  0  0  0  0  0  0
   25.3003   -4.9043  -16.0392 C   0  0  0  0  0  0  0  0  0  0  0  0
   26.0481   -3.8739  -16.5363 N   0  0  0  0  0  0  0  0  0  0  0  0
   25.1956   -2.8990  -16.8644 C   0  0  0  0  0  0  0  0  0  0  0  0
   23.9349   -3.2524  -16.6015 N   0  0  0  0  0  0  0  0  0  0  0  0
   22.7460   -6.3387  -17.9648 C   0  0  0  0  0  0  0  0  0  0  0  0
   23.6277   -5.7263  -18.6549 O   0  0  0  0  0  0  0  0  0  0  0  0
   22.5510   -7.6478  -18.2185 O   0  0  0  0  0  0  0  0  0  0  0  0
  2  1  1  1
  2  6  1  0
  2  3  1  0
  3  4  1  0
  4  8  1  0
  4  5  2  0
  6  9  1  0
  7  6  2  0
  9 10  1  0
 10 11  1  0
 11 13  1  0
 11 12  2  0
 13 14  1  0
 14 21  1  0
 14 15  1  1
 16 17  2  0
 16 15  1  0
 18 17  1  0
 19 20  2  0
 19 18  1  0
 20 16  1  0
 21 22  2  0
 21 23  1  0
M  END
$$$$
