DGH.pdb
     RDKit          3D

 23 23  0  0  1  0  0  0  0  0999 V2000
   22.5046  -11.1531  -19.9405 N   0  0  0  0  0  0  0  0  0  0  0  0
   22.9542  -11.6761  -18.6824 C   0  0  1  0  0  0  0  0  0  0  0  0
   24.3077  -12.3417  -18.7686 C   0  0  0  0  0  0  0  0  0  0  0  0
   24.1801  -13.6104  -19.5071 C   0  0  0  0  0  0  0  0  0  0  0  0
   23.1651  -13.8332  -20.1939 O   0  0  0  0  0  0  0  0  0  0  0  0
   22.9256  -10.6248  -17.6328 C   0  0  0  0  0  0  0  0  0  0  0  0
   23.1325  -10.8855  -16.4130 O   0  0  0  0  0  0  0  0  0  0  0  0
   25.1790  -14.5541  -19.4424 O   0  0  0  0  0  0  0  0  0  0  0  0
   22.6574   -9.2683  -17.9939 N   0  0  0  0  0  0  0  0  0  0  0  0
   22.5181   -8.2173  -17.0253 C   0  0  0  0  0  0  0  0  0  0  0  0
   21.2136   -8.1410  -16.3648 C   0  0  0  0  0  0  0  0  0  0  0  0
   20.1518   -8.1636  -17.0819 O   0  0  0  0  0  0  0  0  0  0  0  0
   21.1097   -8.0409  -14.9645 N   0  0  0  0  0  0  0  0  0  0  0  0
   19.7410   -7.9837  -14.3673 C   0  0  1  0  0  0  0  0  0  0  0  0
   19.7366   -9.0579  -13.3371 C   0  0  0  0  0  0  0  0  0  0  0  0
   18.5181   -9.0440  -12.5233 C   0  0  0  0  0  0  0  0  0  0  0  0
   17.4207   -8.2519  -12.6591 C   0  0  0  0  0  0  0  0  0  0  0  0
   16.5135   -8.6585  -11.7212 N   0  0  0  0  0  0  0  0  0  0  0  0
   17.0737   -9.6708  -11.0531 C   0  0  0  0  0  0  0  0  0  0  0  0
   18.2983   -9.9347  -11.5157 N   0  0  0  0  0  0  0  0  0  0  0  0
   19.6967   -6.6189  -13.7508 C   0  0  0  0  0  0  0  0  0  0  0  0
   20.7774   -6.0433  -13.3911 O   0  0  0  0  0  0  0  0  0  0  0  0
   18.5395   -5.9576  -13.5522 O   0  0  0  0  0  0  0  0  0  0  0  0
  2  1  1  6
  2  6  1  0
  2  3  1  0
  3  4  1  0
  4  8  1  0
  4  5  2  0
  6  9  1  0
  7  6  2  0
  9 10  1  0
 10 11  1  0
 11 13  1  0
 11 12  2  0
 13 14  1  0
 14 21  1  0
 14 15  1  1
 16 17  2  0
 16 15  1  0
 18 17  1  0
 19 20  2  0
 19 18  1  0
 20 16  1  0
 21 22  2  0
 21 23  1  0
M  END
$$$$
