DGH.pdb
     RDKit          3D

 23 23  0  0  1  0  0  0  0  0999 V2000
   21.9962   -6.9906  -22.2394 N   0  0  0  0  0  0  0  0  0  0  0  0
   21.7085   -7.4055  -20.8964 C   0  0  1  0  0  0  0  0  0  0  0  0
   22.9439   -7.8040  -20.1234 C   0  0  0  0  0  0  0  0  0  0  0  0
   23.5553   -8.9849  -20.7580 C   0  0  0  0  0  0  0  0  0  0  0  0
   23.0593   -9.4625  -21.7960 O   0  0  0  0  0  0  0  0  0  0  0  0
   20.9238   -6.3673  -20.1795 C   0  0  0  0  0  0  0  0  0  0  0  0
   20.4753   -5.3396  -20.7635 O   0  0  0  0  0  0  0  0  0  0  0  0
   24.6751   -9.5656  -20.2089 O   0  0  0  0  0  0  0  0  0  0  0  0
   20.6565   -6.5173  -18.7836 N   0  0  0  0  0  0  0  0  0  0  0  0
   19.8250   -5.6070  -18.0474 C   0  0  0  0  0  0  0  0  0  0  0  0
   19.7037   -5.8856  -16.6151 C   0  0  0  0  0  0  0  0  0  0  0  0
   19.0138   -5.0909  -15.8838 O   0  0  0  0  0  0  0  0  0  0  0  0
   20.3313   -7.0034  -16.0336 N   0  0  0  0  0  0  0  0  0  0  0  0
   20.1803   -7.2023  -14.5602 C   0  0  1  0  0  0  0  0  0  0  0  0
   18.8567   -7.8650  -14.4053 C   0  0  0  0  0  0  0  0  0  0  0  0
   18.8204   -9.1895  -15.0309 C   0  0  0  0  0  0  0  0  0  0  0  0
   19.8159   -9.8385  -15.6929 C   0  0  0  0  0  0  0  0  0  0  0  0
   19.3369  -11.0743  -16.0266 N   0  0  0  0  0  0  0  0  0  0  0  0
   18.0851  -11.1428  -15.5648 C   0  0  0  0  0  0  0  0  0  0  0  0
   17.7353  -10.0099  -14.9504 N   0  0  0  0  0  0  0  0  0  0  0  0
   21.3103   -8.1272  -14.2253 C   0  0  0  0  0  0  0  0  0  0  0  0
   22.0838   -8.5532  -15.1466 O   0  0  0  0  0  0  0  0  0  0  0  0
   21.5505   -8.5411  -12.9655 O   0  0  0  0  0  0  0  0  0  0  0  0
  2  1  1  6
  2  6  1  0
  2  3  1  0
  3  4  1  0
  4  8  1  0
  4  5  2  0
  6  9  1  0
  7  6  2  0
  9 10  1  0
 10 11  1  0
 11 13  1  0
 11 12  2  0
 13 14  1  0
 14 21  1  0
 14 15  1  6
 16 17  2  0
 16 15  1  0
 18 17  1  0
 19 20  2  0
 19 18  1  0
 20 16  1  0
 21 22  2  0
 21 23  1  0
M  END
$$$$
