DGH.pdb
     RDKit          3D

 23 23  0  0  1  0  0  0  0  0999 V2000
   21.0505  -13.7613  -21.0799 N   0  0  0  0  0  0  0  0  0  0  0  0
   21.5677  -13.7465  -19.7418 C   0  0  1  0  0  0  0  0  0  0  0  0
   22.5236  -14.8833  -19.4649 C   0  0  0  0  0  0  0  0  0  0  0  0
   21.7841  -16.1576  -19.4876 C   0  0  0  0  0  0  0  0  0  0  0  0
   20.5521  -16.1674  -19.3046 O   0  0  0  0  0  0  0  0  0  0  0  0
   22.1763  -12.4285  -19.4252 C   0  0  0  0  0  0  0  0  0  0  0  0
   23.4283  -12.2577  -19.3839 O   0  0  0  0  0  0  0  0  0  0  0  0
   22.4487  -17.3413  -19.7105 O   0  0  0  0  0  0  0  0  0  0  0  0
   21.3355  -11.3047  -19.1559 N   0  0  0  0  0  0  0  0  0  0  0  0
   21.8518  -10.0137  -18.7971 C   0  0  0  0  0  0  0  0  0  0  0  0
   22.0235   -9.7828  -17.3615 C   0  0  0  0  0  0  0  0  0  0  0  0
   21.5690  -10.6495  -16.5341 O   0  0  0  0  0  0  0  0  0  0  0  0
   22.6727   -8.6301  -16.8805 N   0  0  0  0  0  0  0  0  0  0  0  0
   22.7582   -8.4420  -15.4005 C   0  0  1  0  0  0  0  0  0  0  0  0
   24.1632   -8.0147  -15.1577 C   0  0  0  0  0  0  0  0  0  0  0  0
   25.1167   -9.1144  -15.3267 C   0  0  0  0  0  0  0  0  0  0  0  0
   24.9692  -10.4212  -14.9792 C   0  0  0  0  0  0  0  0  0  0  0  0
   26.0891  -11.0787  -15.4051 N   0  0  0  0  0  0  0  0  0  0  0  0
   26.8731  -10.1698  -15.9916 C   0  0  0  0  0  0  0  0  0  0  0  0
   26.3117   -8.9585  -15.9629 N   0  0  0  0  0  0  0  0  0  0  0  0
   21.7850   -7.3325  -15.1428 C   0  0  0  0  0  0  0  0  0  0  0  0
   21.2220   -6.7347  -16.1197 O   0  0  0  0  0  0  0  0  0  0  0  0
   21.4720   -6.9265  -13.8965 O   0  0  0  0  0  0  0  0  0  0  0  0
  2  1  1  6
  2  6  1  0
  2  3  1  0
  3  4  1  0
  4  8  1  0
  4  5  2  0
  6  9  1  0
  7  6  2  0
  9 10  1  0
 10 11  1  0
 11 13  1  0
 11 12  2  0
 13 14  1  0
 14 21  1  0
 14 15  1  6
 16 17  2  0
 16 15  1  0
 18 17  1  0
 19 20  2  0
 19 18  1  0
 20 16  1  0
 21 22  2  0
 21 23  1  0
M  END
$$$$
