DGH.pdb
     RDKit          3D

 23 23  0  0  1  0  0  0  0  0999 V2000
   25.1566  -33.2614   -5.8177 N   0  0  0  0  0  0  0  0  0  0  0  0
   26.1003  -33.8425   -6.7289 C   0  0  1  0  0  0  0  0  0  0  0  0
   26.7927  -32.8175   -7.5963 C   0  0  0  0  0  0  0  0  0  0  0  0
   25.8011  -32.1757   -8.4772 C   0  0  0  0  0  0  0  0  0  0  0  0
   24.9281  -31.4297   -7.9947 O   0  0  0  0  0  0  0  0  0  0  0  0
   27.0761  -34.6976   -6.0047 C   0  0  0  0  0  0  0  0  0  0  0  0
   26.9491  -35.9536   -5.9356 O   0  0  0  0  0  0  0  0  0  0  0  0
   25.8338  -32.3961   -9.8347 O   0  0  0  0  0  0  0  0  0  0  0  0
   28.2019  -34.0993   -5.3589 N   0  0  0  0  0  0  0  0  0  0  0  0
   29.2012  -34.8650   -4.6680 C   0  0  0  0  0  0  0  0  0  0  0  0
   28.8031  -35.3781   -3.3558 C   0  0  0  0  0  0  0  0  0  0  0  0
   27.7212  -34.9460   -2.8218 O   0  0  0  0  0  0  0  0  0  0  0  0
   29.5869  -36.3294   -2.6760 N   0  0  0  0  0  0  0  0  0  0  0  0
   29.0869  -36.8378   -1.3627 C   0  0  1  0  0  0  0  0  0  0  0  0
   29.9005  -38.0557   -1.0980 C   0  0  0  0  0  0  0  0  0  0  0  0
   29.6514  -38.6131    0.2340 C   0  0  0  0  0  0  0  0  0  0  0  0
   28.5210  -39.2066    0.7033 C   0  0  0  0  0  0  0  0  0  0  0  0
   28.7903  -39.6356    1.9728 N   0  0  0  0  0  0  0  0  0  0  0  0
   30.0560  -39.2986    2.2358 C   0  0  0  0  0  0  0  0  0  0  0  0
   30.6141  -38.6726    1.1966 N   0  0  0  0  0  0  0  0  0  0  0  0
   29.4238  -35.7251   -0.4177 C   0  0  0  0  0  0  0  0  0  0  0  0
   28.7118  -35.5315    0.6235 O   0  0  0  0  0  0  0  0  0  0  0  0
   30.4682  -34.8988   -0.6242 O   0  0  0  0  0  0  0  0  0  0  0  0
  2  1  1  1
  2  6  1  0
  2  3  1  0
  3  4  1  0
  4  8  1  0
  4  5  2  0
  6  9  1  0
  7  6  2  0
  9 10  1  0
 10 11  1  0
 11 13  1  0
 11 12  2  0
 13 14  1  0
 14 21  1  0
 14 15  1  1
 16 17  2  0
 16 15  1  0
 18 17  1  0
 19 20  2  0
 19 18  1  0
 20 16  1  0
 21 22  2  0
 21 23  1  0
M  END
$$$$
