DGH.pdb
     RDKit          3D

 23 23  0  0  1  0  0  0  0  0999 V2000
   27.9540  -33.1566    2.1492 N   0  0  0  0  0  0  0  0  0  0  0  0
   28.5367  -33.8534    3.2597 C   0  0  1  0  0  0  0  0  0  0  0  0
   30.0382  -33.9832    3.1540 C   0  0  0  0  0  0  0  0  0  0  0  0
   30.3726  -34.8486    2.0092 C   0  0  0  0  0  0  0  0  0  0  0  0
   29.4646  -35.3404    1.3127 O   0  0  0  0  0  0  0  0  0  0  0  0
   28.1290  -33.2317    4.5461 C   0  0  0  0  0  0  0  0  0  0  0  0
   28.3014  -33.8094    5.6575 O   0  0  0  0  0  0  0  0  0  0  0  0
   31.6866  -35.1176    1.7037 O   0  0  0  0  0  0  0  0  0  0  0  0
   27.5206  -31.9385    4.5482 N   0  0  0  0  0  0  0  0  0  0  0  0
   27.0320  -31.3094    5.7431 C   0  0  0  0  0  0  0  0  0  0  0  0
   25.6647  -31.6661    6.1265 C   0  0  0  0  0  0  0  0  0  0  0  0
   25.1036  -31.0318    7.0883 O   0  0  0  0  0  0  0  0  0  0  0  0
   24.9640  -32.6898    5.4612 N   0  0  0  0  0  0  0  0  0  0  0  0
   23.5633  -32.9754    5.8965 C   0  0  1  0  0  0  0  0  0  0  0  0
   22.7435  -32.7864    4.6687 C   0  0  0  0  0  0  0  0  0  0  0  0
   22.3175  -31.3955    4.4923 C   0  0  0  0  0  0  0  0  0  0  0  0
   21.4412  -30.6785    5.2461 C   0  0  0  0  0  0  0  0  0  0  0  0
   21.4250  -29.4078    4.7430 N   0  0  0  0  0  0  0  0  0  0  0  0
   22.2786  -29.3865    3.7155 C   0  0  0  0  0  0  0  0  0  0  0  0
   22.8429  -30.5830    3.5328 N   0  0  0  0  0  0  0  0  0  0  0  0
   23.6236  -34.4138    6.3114 C   0  0  0  0  0  0  0  0  0  0  0  0
   24.4969  -35.1915    5.8006 O   0  0  0  0  0  0  0  0  0  0  0  0
   22.7754  -34.9357    7.2193 O   0  0  0  0  0  0  0  0  0  0  0  0
  2  1  1  6
  2  6  1  0
  2  3  1  0
  3  4  1  0
  4  8  1  0
  4  5  2  0
  6  9  1  0
  7  6  2  0
  9 10  1  0
 10 11  1  0
 11 13  1  0
 11 12  2  0
 13 14  1  0
 14 21  1  0
 14 15  1  6
 16 17  2  0
 16 15  1  0
 18 17  1  0
 19 20  2  0
 19 18  1  0
 20 16  1  0
 21 22  2  0
 21 23  1  0
M  END
$$$$
