DGH.pdb
     RDKit          3D

 23 23  0  0  1  0  0  0  0  0999 V2000
   17.3683   -4.5066  -13.7261 N   0  0  0  0  0  0  0  0  0  0  0  0
   16.5135   -4.6690  -14.8668 C   0  0  1  0  0  0  0  0  0  0  0  0
   16.3052   -3.3859  -15.6369 C   0  0  0  0  0  0  0  0  0  0  0  0
   15.6440   -2.3977  -14.7666 C   0  0  0  0  0  0  0  0  0  0  0  0
   16.3059   -1.7743  -13.9153 O   0  0  0  0  0  0  0  0  0  0  0  0
   17.0059   -5.7619  -15.7447 C   0  0  0  0  0  0  0  0  0  0  0  0
   16.4068   -6.0933  -16.8076 O   0  0  0  0  0  0  0  0  0  0  0  0
   14.2949   -2.1584  -14.8889 O   0  0  0  0  0  0  0  0  0  0  0  0
   18.1942   -6.4738  -15.3932 N   0  0  0  0  0  0  0  0  0  0  0  0
   18.6967   -7.5781  -16.1614 C   0  0  0  0  0  0  0  0  0  0  0  0
   20.1482   -7.6014  -16.3523 C   0  0  0  0  0  0  0  0  0  0  0  0
   20.8595   -6.6767  -15.8219 O   0  0  0  0  0  0  0  0  0  0  0  0
   20.7686   -8.6150  -17.1067 N   0  0  0  0  0  0  0  0  0  0  0  0
   22.2623   -8.6537  -17.1310 C   0  0  1  0  0  0  0  0  0  0  0  0
   22.6508   -9.0033  -15.7374 C   0  0  0  0  0  0  0  0  0  0  0  0
   24.0739   -9.3325  -15.6219 C   0  0  0  0  0  0  0  0  0  0  0  0
   25.0381   -9.2592  -16.5786 C   0  0  0  0  0  0  0  0  0  0  0  0
   26.2220   -9.5910  -15.9816 N   0  0  0  0  0  0  0  0  0  0  0  0
   25.9505   -9.8509  -14.6996 C   0  0  0  0  0  0  0  0  0  0  0  0
   24.6483   -9.7029  -14.4430 N   0  0  0  0  0  0  0  0  0  0  0  0
   22.5572   -9.7674  -18.0887 C   0  0  0  0  0  0  0  0  0  0  0  0
   21.8524  -10.8311  -18.0706 O   0  0  0  0  0  0  0  0  0  0  0  0
   23.5585   -9.6955  -18.9878 O   0  0  0  0  0  0  0  0  0  0  0  0
  2  1  1  1
  2  6  1  0
  2  3  1  0
  3  4  1  0
  4  8  1  0
  4  5  2  0
  6  9  1  0
  7  6  2  0
  9 10  1  0
 10 11  1  0
 11 13  1  0
 11 12  2  0
 13 14  1  0
 14 21  1  0
 14 15  1  1
 16 17  2  0
 16 15  1  0
 18 17  1  0
 19 20  2  0
 19 18  1  0
 20 16  1  0
 21 22  2  0
 21 23  1  0
M  END
$$$$
