WFG.pdb
     RDKit          3D

 30 32  0  0  1  0  0  0  0  0999 V2000
    5.8728  -19.6009   22.5596 N   0  0  0  0  0  0  0  0  0  0  0  0
    6.5488  -19.1087   23.7437 C   0  0  1  0  0  0  0  0  0  0  0  0
    7.9017  -19.7738   23.9082 C   0  0  0  0  0  0  0  0  0  0  0  0
    7.9016  -20.8273   24.9489 C   0  0  0  0  0  0  0  0  0  0  0  0
    7.8405  -22.1949   24.8501 C   0  0  0  0  0  0  0  0  0  0  0  0
    7.8674  -22.7687   26.0676 N   0  0  0  0  0  0  0  0  0  0  0  0
    7.9475  -21.7756   27.0024 C   0  0  0  0  0  0  0  0  0  0  0  0
    8.0038  -21.8330   28.3718 C   0  0  0  0  0  0  0  0  0  0  0  0
    8.0841  -20.6809   29.1108 C   0  0  0  0  0  0  0  0  0  0  0  0
    8.1085  -19.4740   28.4723 C   0  0  0  0  0  0  0  0  0  0  0  0
    8.0518  -19.4198   27.0963 C   0  0  0  0  0  0  0  0  0  0  0  0
    7.9689  -20.5731   26.3051 C   0  0  0  0  0  0  0  0  0  0  0  0
    6.6685  -17.6397   23.6526 C   0  0  0  0  0  0  0  0  0  0  0  0
    6.6743  -17.0390   22.5526 O   0  0  0  0  0  0  0  0  0  0  0  0
    6.7847  -16.8057   24.8274 N   0  0  0  0  0  0  0  0  0  0  0  0
    6.8484  -15.3621   24.7040 C   0  0  1  0  0  0  0  0  0  0  0  0
    6.4593  -14.8098   26.0861 C   0  0  0  0  0  0  0  0  0  0  0  0
    6.6738  -13.3593   26.2041 C   0  0  0  0  0  0  0  0  0  0  0  0
    7.8501  -12.8900   26.7738 C   0  0  0  0  0  0  0  0  0  0  0  0
    8.0519  -11.5072   26.8675 C   0  0  0  0  0  0  0  0  0  0  0  0
    7.1141  -10.6322   26.4091 C   0  0  0  0  0  0  0  0  0  0  0  0
    5.9342  -11.0800   25.8370 C   0  0  0  0  0  0  0  0  0  0  0  0
    5.7465  -12.4743   25.7495 C   0  0  0  0  0  0  0  0  0  0  0  0
    8.2256  -14.9470   24.4294 C   0  0  0  0  0  0  0  0  0  0  0  0
    8.5391  -13.7335   24.1857 O   0  0  0  0  0  0  0  0  0  0  0  0
    9.2751  -15.9209   24.4289 N   0  0  0  0  0  0  0  0  0  0  0  0
   10.6208  -15.5558   23.9935 C   0  0  0  0  0  0  0  0  0  0  0  0
   11.5030  -16.7586   24.0463 C   0  0  0  0  0  0  0  0  0  0  0  0
   12.8543  -16.6844   23.8005 O   0  0  0  0  0  0  0  0  0  0  0  0
   10.9962  -17.8776   24.3248 O   0  0  0  0  0  0  0  0  0  0  0  0
  2  3  1  0
  2  1  1  6
  2 13  1  0
  3  4  1  0
  4 12  1  0
  4  5  2  0
  5  6  1  0
  7  6  1  0
  7  8  2  0
  9  8  1  0
 10  9  2  0
 11 12  2  0
 11 10  1  0
 12  7  1  0
 13 14  2  0
 15 13  1  0
 15 16  1  0
 16 24  1  0
 16 17  1  1
 18 17  1  0
 19 18  2  0
 20 19  1  0
 21 22  1  0
 21 20  2  0
 22 23  2  0
 23 18  1  0
 24 25  2  0
 26 24  1  0
 26 27  1  0
 28 29  1  0
 28 27  1  0
 30 28  2  0
M  END
$$$$
