WFG.pdb
     RDKit          3D

 30 32  0  0  1  0  0  0  0  0999 V2000
    6.3737  -19.3605   21.2675 N   0  0  0  0  0  0  0  0  0  0  0  0
    6.4037  -19.0937   22.6920 C   0  0  1  0  0  0  0  0  0  0  0  0
    7.2383  -20.1313   23.4177 C   0  0  0  0  0  0  0  0  0  0  0  0
    6.4658  -20.8821   24.4338 C   0  0  0  0  0  0  0  0  0  0  0  0
    5.4504  -21.7964   24.3031 C   0  0  0  0  0  0  0  0  0  0  0  0
    5.0350  -22.2322   25.5072 N   0  0  0  0  0  0  0  0  0  0  0  0
    5.7795  -21.6039   26.4651 C   0  0  0  0  0  0  0  0  0  0  0  0
    5.7494  -21.7004   27.8331 C   0  0  0  0  0  0  0  0  0  0  0  0
    6.6114  -20.9585   28.5990 C   0  0  0  0  0  0  0  0  0  0  0  0
    7.5019  -20.1221   27.9887 C   0  0  0  0  0  0  0  0  0  0  0  0
    7.5294  -20.0275   26.6140 C   0  0  0  0  0  0  0  0  0  0  0  0
    6.6659  -20.7678   25.7959 C   0  0  0  0  0  0  0  0  0  0  0  0
    6.9160  -17.7266   22.9138 C   0  0  0  0  0  0  0  0  0  0  0  0
    7.7256  -17.1829   22.1265 O   0  0  0  0  0  0  0  0  0  0  0  0
    6.5131  -16.9322   24.0521 N   0  0  0  0  0  0  0  0  0  0  0  0
    7.0721  -15.6111   24.2649 C   0  0  1  0  0  0  0  0  0  0  0  0
    6.1416  -14.9251   25.2799 C   0  0  0  0  0  0  0  0  0  0  0  0
    6.5864  -13.5699   25.6395 C   0  0  0  0  0  0  0  0  0  0  0  0
    5.7773  -12.7801   26.4458 C   0  0  0  0  0  0  0  0  0  0  0  0
    6.2166  -11.4970   26.7954 C   0  0  0  0  0  0  0  0  0  0  0  0
    7.4165  -11.0260   26.3554 C   0  0  0  0  0  0  0  0  0  0  0  0
    8.2387  -11.7982   25.5506 C   0  0  0  0  0  0  0  0  0  0  0  0
    7.7826  -13.0872   25.2083 C   0  0  0  0  0  0  0  0  0  0  0  0
    8.3963  -15.7249   24.8799 C   0  0  0  0  0  0  0  0  0  0  0  0
    8.5637  -16.1566   26.0697 O   0  0  0  0  0  0  0  0  0  0  0  0
    9.5599  -15.3433   24.1380 N   0  0  0  0  0  0  0  0  0  0  0  0
   10.8817  -15.4000   24.7573 C   0  0  0  0  0  0  0  0  0  0  0  0
   11.8650  -15.9512   23.7790 C   0  0  0  0  0  0  0  0  0  0  0  0
   13.2095  -16.0271   24.0591 O   0  0  0  0  0  0  0  0  0  0  0  0
   11.4527  -16.3604   22.6614 O   0  0  0  0  0  0  0  0  0  0  0  0
  2  3  1  0
  2  1  1  6
  2 13  1  0
  3  4  1  0
  4 12  1  0
  4  5  2  0
  5  6  1  0
  7  6  1  0
  7  8  2  0
  9  8  1  0
 10  9  2  0
 11 12  2  0
 11 10  1  0
 12  7  1  0
 13 14  2  0
 15 13  1  0
 15 16  1  0
 16 24  1  0
 16 17  1  1
 18 17  1  0
 19 18  2  0
 20 19  1  0
 21 22  1  0
 21 20  2  0
 22 23  2  0
 23 18  1  0
 24 25  2  0
 26 24  1  0
 26 27  1  0
 28 29  1  0
 28 27  1  0
 30 28  2  0
M  END
$$$$
