WFG.pdb
     RDKit          3D

 30 32  0  0  1  0  0  0  0  0999 V2000
    8.4077  -17.0719   22.7900 N   0  0  0  0  0  0  0  0  0  0  0  0
    8.9664  -15.7395   22.9092 C   0  0  1  0  0  0  0  0  0  0  0  0
    7.8938  -14.6854   22.7143 C   0  0  0  0  0  0  0  0  0  0  0  0
    7.3832  -14.6347   21.3253 C   0  0  0  0  0  0  0  0  0  0  0  0
    6.3598  -15.3146   20.7134 C   0  0  0  0  0  0  0  0  0  0  0  0
    6.2438  -14.9527   19.4219 N   0  0  0  0  0  0  0  0  0  0  0  0
    7.2019  -14.0154   19.1569 C   0  0  0  0  0  0  0  0  0  0  0  0
    7.4998  -13.3366   18.0027 C   0  0  0  0  0  0  0  0  0  0  0  0
    8.5242  -12.4256   17.9795 C   0  0  0  0  0  0  0  0  0  0  0  0
    9.2463  -12.1980   19.1161 C   0  0  0  0  0  0  0  0  0  0  0  0
    8.9443  -12.8817   20.2741 C   0  0  0  0  0  0  0  0  0  0  0  0
    7.9062  -13.8205   20.3394 C   0  0  0  0  0  0  0  0  0  0  0  0
    9.6270  -15.6118   24.2237 C   0  0  0  0  0  0  0  0  0  0  0  0
   10.4611  -14.7080   24.4648 O   0  0  0  0  0  0  0  0  0  0  0  0
    9.3498  -16.5211   25.3126 N   0  0  0  0  0  0  0  0  0  0  0  0
    9.8063  -16.2236   26.6566 C   0  0  1  0  0  0  0  0  0  0  0  0
    8.5369  -15.9046   27.4650 C   0  0  0  0  0  0  0  0  0  0  0  0
    8.0278  -14.5466   27.2192 C   0  0  0  0  0  0  0  0  0  0  0  0
    8.8433  -13.4554   27.4892 C   0  0  0  0  0  0  0  0  0  0  0  0
    8.3552  -12.1671   27.2371 C   0  0  0  0  0  0  0  0  0  0  0  0
    7.1026  -11.9809   26.7355 C   0  0  0  0  0  0  0  0  0  0  0  0
    6.2735  -13.0561   26.4590 C   0  0  0  0  0  0  0  0  0  0  0  0
    6.7797  -14.3460   26.7175 C   0  0  0  0  0  0  0  0  0  0  0  0
   10.4235  -17.4132   27.2466 C   0  0  0  0  0  0  0  0  0  0  0  0
   10.7431  -17.4779   28.4810 O   0  0  0  0  0  0  0  0  0  0  0  0
   10.6877  -18.5575   26.4276 N   0  0  0  0  0  0  0  0  0  0  0  0
   11.2759  -19.7617   27.0090 C   0  0  0  0  0  0  0  0  0  0  0  0
   12.7630  -19.6870   26.9064 C   0  0  0  0  0  0  0  0  0  0  0  0
   13.5741  -20.7340   27.2778 O   0  0  0  0  0  0  0  0  0  0  0  0
   13.2939  -18.6331   26.4658 O   0  0  0  0  0  0  0  0  0  0  0  0
  2  3  1  0
  2  1  1  1
  2 13  1  0
  3  4  1  0
  4 12  1  0
  4  5  2  0
  5  6  1  0
  7  6  1  0
  7  8  2  0
  9  8  1  0
 10  9  2  0
 11 12  2  0
 11 10  1  0
 12  7  1  0
 13 14  2  0
 15 13  1  0
 15 16  1  0
 16 24  1  0
 16 17  1  1
 18 17  1  0
 19 18  2  0
 20 19  1  0
 21 22  1  0
 21 20  2  0
 22 23  2  0
 23 18  1  0
 24 25  2  0
 26 24  1  0
 26 27  1  0
 28 29  1  0
 28 27  1  0
 30 28  2  0
M  END
$$$$
