WFG.pdb
     RDKit          3D

 30 32  0  0  1  0  0  0  0  0999 V2000
    8.5561  -16.8790   22.8404 N   0  0  0  0  0  0  0  0  0  0  0  0
    9.1394  -15.5607   22.9925 C   0  0  1  0  0  0  0  0  0  0  0  0
    8.0885  -14.4820   22.8146 C   0  0  0  0  0  0  0  0  0  0  0  0
    7.4453  -14.5205   21.4813 C   0  0  0  0  0  0  0  0  0  0  0  0
    6.3282  -15.1819   21.0358 C   0  0  0  0  0  0  0  0  0  0  0  0
    6.1046  -14.9288   19.7326 N   0  0  0  0  0  0  0  0  0  0  0  0
    7.0841  -14.0849   19.2909 C   0  0  0  0  0  0  0  0  0  0  0  0
    7.3039  -13.5325   18.0546 C   0  0  0  0  0  0  0  0  0  0  0  0
    8.3719  -12.6976   17.8488 C   0  0  0  0  0  0  0  0  0  0  0  0
    9.2160  -12.4191   18.8856 C   0  0  0  0  0  0  0  0  0  0  0  0
    8.9923  -12.9759   20.1264 C   0  0  0  0  0  0  0  0  0  0  0  0
    7.9133  -13.8336   20.3779 C   0  0  0  0  0  0  0  0  0  0  0  0
    9.7937  -15.4747   24.3136 C   0  0  0  0  0  0  0  0  0  0  0  0
   10.6273  -14.5796   24.5869 O   0  0  0  0  0  0  0  0  0  0  0  0
    9.5107  -16.4175   25.3721 N   0  0  0  0  0  0  0  0  0  0  0  0
    9.9457  -16.1543   26.7303 C   0  0  1  0  0  0  0  0  0  0  0  0
    8.6570  -15.9947   27.5553 C   0  0  0  0  0  0  0  0  0  0  0  0
    7.9734  -14.7159   27.3076 C   0  0  0  0  0  0  0  0  0  0  0  0
    8.5991  -13.5295   27.6676 C   0  0  0  0  0  0  0  0  0  0  0  0
    7.9469  -12.3164   27.4135 C   0  0  0  0  0  0  0  0  0  0  0  0
    6.7195  -12.2940   26.8234 C   0  0  0  0  0  0  0  0  0  0  0  0
    6.0786  -13.4663   26.4563 C   0  0  0  0  0  0  0  0  0  0  0  0
    6.7484  -14.6786   26.7181 C   0  0  0  0  0  0  0  0  0  0  0  0
   10.6696  -17.3144   27.2540 C   0  0  0  0  0  0  0  0  0  0  0  0
   10.8427  -17.5061   28.5044 O   0  0  0  0  0  0  0  0  0  0  0  0
   11.2121  -18.2820   26.3487 N   0  0  0  0  0  0  0  0  0  0  0  0
   11.8521  -19.4923   26.8581 C   0  0  0  0  0  0  0  0  0  0  0  0
   12.3719  -20.2981   25.7143 C   0  0  0  0  0  0  0  0  0  0  0  0
   12.9158  -21.5491   25.8900 O   0  0  0  0  0  0  0  0  0  0  0  0
   12.3110  -19.8193   24.5509 O   0  0  0  0  0  0  0  0  0  0  0  0
  2  3  1  0
  2  1  1  1
  2 13  1  0
  3  4  1  0
  4 12  1  0
  4  5  2  0
  5  6  1  0
  7  6  1  0
  7  8  2  0
  9  8  1  0
 10  9  2  0
 11 12  2  0
 11 10  1  0
 12  7  1  0
 13 14  2  0
 15 13  1  0
 15 16  1  0
 16 24  1  0
 16 17  1  1
 18 17  1  0
 19 18  2  0
 20 19  1  0
 21 22  1  0
 21 20  2  0
 22 23  2  0
 23 18  1  0
 24 25  2  0
 26 24  1  0
 26 27  1  0
 28 29  1  0
 28 27  1  0
 30 28  2  0
M  END
$$$$
