WFG.pdb
     RDKit          3D

 30 32  0  0  1  0  0  0  0  0999 V2000
    8.1727  -17.6657   23.2073 N   0  0  0  0  0  0  0  0  0  0  0  0
    8.5578  -16.4116   22.5905 C   0  0  1  0  0  0  0  0  0  0  0  0
    7.4493  -15.3847   22.7184 C   0  0  0  0  0  0  0  0  0  0  0  0
    7.0105  -15.1838   24.1184 C   0  0  0  0  0  0  0  0  0  0  0  0
    6.5884  -16.0782   25.0701 C   0  0  0  0  0  0  0  0  0  0  0  0
    6.2827  -15.4503   26.2211 N   0  0  0  0  0  0  0  0  0  0  0  0
    6.5009  -14.1132   26.0451 C   0  0  0  0  0  0  0  0  0  0  0  0
    6.3445  -13.0564   26.9057 C   0  0  0  0  0  0  0  0  0  0  0  0
    6.6346  -11.7805   26.4959 C   0  0  0  0  0  0  0  0  0  0  0  0
    7.0820  -11.5694   25.2230 C   0  0  0  0  0  0  0  0  0  0  0  0
    7.2381  -12.6335   24.3609 C   0  0  0  0  0  0  0  0  0  0  0  0
    6.9525  -13.9516   24.7403 C   0  0  0  0  0  0  0  0  0  0  0  0
    9.8146  -15.9399   23.2059 C   0  0  0  0  0  0  0  0  0  0  0  0
   10.3688  -14.8723   22.8538 O   0  0  0  0  0  0  0  0  0  0  0  0
   10.4806  -16.6808   24.2531 N   0  0  0  0  0  0  0  0  0  0  0  0
   11.6706  -16.1502   24.8900 C   0  0  1  0  0  0  0  0  0  0  0  0
   11.6566  -16.7059   26.3245 C   0  0  0  0  0  0  0  0  0  0  0  0
   10.9679  -15.8193   27.2751 C   0  0  0  0  0  0  0  0  0  0  0  0
   10.6059  -16.3101   28.5228 C   0  0  0  0  0  0  0  0  0  0  0  0
    9.9646  -15.4538   29.4266 C   0  0  0  0  0  0  0  0  0  0  0  0
    9.6977  -14.1603   29.0936 C   0  0  0  0  0  0  0  0  0  0  0  0
   10.0511  -13.6512   27.8542 C   0  0  0  0  0  0  0  0  0  0  0  0
   10.6963  -14.5254   26.9563 C   0  0  0  0  0  0  0  0  0  0  0  0
   12.8656  -16.6701   24.2221 C   0  0  0  0  0  0  0  0  0  0  0  0
   14.0446  -16.4535   24.6619 O   0  0  0  0  0  0  0  0  0  0  0  0
   12.7306  -17.4524   23.0305 N   0  0  0  0  0  0  0  0  0  0  0  0
   13.9152  -17.9562   22.3399 C   0  0  0  0  0  0  0  0  0  0  0  0
   13.4949  -18.8513   21.2220 C   0  0  0  0  0  0  0  0  0  0  0  0
   13.2711  -20.1957   21.4076 O   0  0  0  0  0  0  0  0  0  0  0  0
   13.3393  -18.3621   20.0717 O   0  0  0  0  0  0  0  0  0  0  0  0
  2  3  1  0
  2  1  1  1
  2 13  1  0
  3  4  1  0
  4 12  1  0
  4  5  2  0
  5  6  1  0
  7  6  1  0
  7  8  2  0
  9  8  1  0
 10  9  2  0
 11 12  2  0
 11 10  1  0
 12  7  1  0
 13 14  2  0
 15 13  1  0
 15 16  1  0
 16 24  1  0
 16 17  1  1
 18 17  1  0
 19 18  2  0
 20 19  1  0
 21 22  1  0
 21 20  2  0
 22 23  2  0
 23 18  1  0
 24 25  2  0
 26 24  1  0
 26 27  1  0
 28 29  1  0
 28 27  1  0
 30 28  2  0
M  END
$$$$
