WFG.pdb
     RDKit          3D

 30 32  0  0  1  0  0  0  0  0999 V2000
    6.6817  -18.4447   26.7391 N   0  0  0  0  0  0  0  0  0  0  0  0
    7.6032  -17.3972   26.3454 C   0  0  1  0  0  0  0  0  0  0  0  0
    9.0395  -17.8682   26.4674 C   0  0  0  0  0  0  0  0  0  0  0  0
    9.6738  -17.4550   27.7400 C   0  0  0  0  0  0  0  0  0  0  0  0
   10.0392  -18.1822   28.8453 C   0  0  0  0  0  0  0  0  0  0  0  0
   10.5900  -17.3899   29.7842 N   0  0  0  0  0  0  0  0  0  0  0  0
   10.5969  -16.1096   29.3073 C   0  0  0  0  0  0  0  0  0  0  0  0
   11.0473  -14.9432   29.8714 C   0  0  0  0  0  0  0  0  0  0  0  0
   10.9479  -13.7592   29.1871 C   0  0  0  0  0  0  0  0  0  0  0  0
   10.3971  -13.7500   27.9375 C   0  0  0  0  0  0  0  0  0  0  0  0
    9.9455  -14.9238   27.3737 C   0  0  0  0  0  0  0  0  0  0  0  0
   10.0284  -16.1538   28.0394 C   0  0  0  0  0  0  0  0  0  0  0  0
    7.2828  -16.9681   24.9692 C   0  0  0  0  0  0  0  0  0  0  0  0
    6.4678  -17.5918   24.2499 O   0  0  0  0  0  0  0  0  0  0  0  0
    7.8893  -15.8013   24.3692 N   0  0  0  0  0  0  0  0  0  0  0  0
    7.5400  -15.3994   23.0203 C   0  0  1  0  0  0  0  0  0  0  0  0
    7.6307  -13.8638   23.0080 C   0  0  0  0  0  0  0  0  0  0  0  0
    7.0447  -13.2461   24.2076 C   0  0  0  0  0  0  0  0  0  0  0  0
    5.7483  -13.5777   24.5789 C   0  0  0  0  0  0  0  0  0  0  0  0
    5.2047  -12.9962   25.7312 C   0  0  0  0  0  0  0  0  0  0  0  0
    5.9304  -12.1195   26.4796 C   0  0  0  0  0  0  0  0  0  0  0  0
    7.2255  -11.7759   26.1266 C   0  0  0  0  0  0  0  0  0  0  0  0
    7.7582  -12.3701   24.9647 C   0  0  0  0  0  0  0  0  0  0  0  0
    8.5344  -15.9124   22.0756 C   0  0  0  0  0  0  0  0  0  0  0  0
    8.4346  -15.7381   20.8147 O   0  0  0  0  0  0  0  0  0  0  0  0
    9.6683  -16.6392   22.5616 N   0  0  0  0  0  0  0  0  0  0  0  0
   10.6465  -17.1918   21.6280 C   0  0  0  0  0  0  0  0  0  0  0  0
   11.7920  -16.2449   21.4910 C   0  0  0  0  0  0  0  0  0  0  0  0
   12.7776  -16.1481   22.4456 O   0  0  0  0  0  0  0  0  0  0  0  0
   11.8603  -15.5106   20.4699 O   0  0  0  0  0  0  0  0  0  0  0  0
  2  3  1  0
  2  1  1  6
  2 13  1  0
  3  4  1  0
  4 12  1  0
  4  5  2  0
  5  6  1  0
  7  6  1  0
  7  8  2  0
  9  8  1  0
 10  9  2  0
 11 12  2  0
 11 10  1  0
 12  7  1  0
 13 14  2  0
 15 13  1  0
 15 16  1  0
 16 24  1  0
 16 17  1  1
 18 17  1  0
 19 18  2  0
 20 19  1  0
 21 22  1  0
 21 20  2  0
 22 23  2  0
 23 18  1  0
 24 25  2  0
 26 24  1  0
 26 27  1  0
 28 29  1  0
 28 27  1  0
 30 28  2  0
M  END
$$$$
