WFG.pdb
     RDKit          3D

 30 32  0  0  1  0  0  0  0  0999 V2000
    7.4711  -18.3377   23.6006 N   0  0  0  0  0  0  0  0  0  0  0  0
    7.9872  -17.2283   22.8231 C   0  0  1  0  0  0  0  0  0  0  0  0
    6.8550  -16.4168   22.2237 C   0  0  0  0  0  0  0  0  0  0  0  0
    7.2958  -15.5560   21.1023 C   0  0  0  0  0  0  0  0  0  0  0  0
    7.4578  -15.8252   19.7662 C   0  0  0  0  0  0  0  0  0  0  0  0
    7.8824  -14.7340   19.1018 N   0  0  0  0  0  0  0  0  0  0  0  0
    8.0095  -13.7132   20.0009 C   0  0  0  0  0  0  0  0  0  0  0  0
    8.4039  -12.4104   19.8313 C   0  0  0  0  0  0  0  0  0  0  0  0
    8.4517  -11.5559   20.9026 C   0  0  0  0  0  0  0  0  0  0  0  0
    8.1024  -12.0122   22.1414 C   0  0  0  0  0  0  0  0  0  0  0  0
    7.7066  -13.3218   22.3084 C   0  0  0  0  0  0  0  0  0  0  0  0
    7.6445  -14.2264   21.2402 C   0  0  0  0  0  0  0  0  0  0  0  0
    8.8567  -16.4019   23.6843 C   0  0  0  0  0  0  0  0  0  0  0  0
    9.5188  -15.4382   23.2329 O   0  0  0  0  0  0  0  0  0  0  0  0
    8.9951  -16.6539   25.1008 N   0  0  0  0  0  0  0  0  0  0  0  0
    9.7385  -15.7375   25.9440 C   0  0  1  0  0  0  0  0  0  0  0  0
    8.8599  -15.5108   27.1862 C   0  0  0  0  0  0  0  0  0  0  0  0
    7.9000  -14.4092   27.0152 C   0  0  0  0  0  0  0  0  0  0  0  0
    6.5534  -14.7014   26.8427 C   0  0  0  0  0  0  0  0  0  0  0  0
    5.6452  -13.6453   26.6963 C   0  0  0  0  0  0  0  0  0  0  0  0
    6.0694  -12.3512   26.7220 C   0  0  0  0  0  0  0  0  0  0  0  0
    7.4083  -12.0386   26.8936 C   0  0  0  0  0  0  0  0  0  0  0  0
    8.3094  -13.1125   27.0401 C   0  0  0  0  0  0  0  0  0  0  0  0
   10.9833  -16.3686   26.3874 C   0  0  0  0  0  0  0  0  0  0  0  0
   11.7544  -15.8297   27.2506 O   0  0  0  0  0  0  0  0  0  0  0  0
   11.3696  -17.6367   25.8462 N   0  0  0  0  0  0  0  0  0  0  0  0
   12.5610  -18.3198   26.3440 C   0  0  0  0  0  0  0  0  0  0  0  0
   12.7340  -19.6107   25.6152 C   0  0  0  0  0  0  0  0  0  0  0  0
   13.5149  -20.6294   26.1095 O   0  0  0  0  0  0  0  0  0  0  0  0
   12.1470  -19.7746   24.5128 O   0  0  0  0  0  0  0  0  0  0  0  0
  2  3  1  0
  2  1  1  1
  2 13  1  0
  3  4  1  0
  4 12  1  0
  4  5  2  0
  5  6  1  0
  7  6  1  0
  7  8  2  0
  9  8  1  0
 10  9  2  0
 11 12  2  0
 11 10  1  0
 12  7  1  0
 13 14  2  0
 15 13  1  0
 15 16  1  0
 16 24  1  0
 16 17  1  1
 18 17  1  0
 19 18  2  0
 20 19  1  0
 21 22  1  0
 21 20  2  0
 22 23  2  0
 23 18  1  0
 24 25  2  0
 26 24  1  0
 26 27  1  0
 28 29  1  0
 28 27  1  0
 30 28  2  0
M  END
$$$$
