WFG.pdb
     RDKit          3D

 30 32  0  0  1  0  0  0  0  0999 V2000
    5.5293  -19.1392   22.1469 N   0  0  0  0  0  0  0  0  0  0  0  0
    6.4861  -18.0836   21.8793 C   0  0  1  0  0  0  0  0  0  0  0  0
    6.1982  -17.4198   20.5466 C   0  0  0  0  0  0  0  0  0  0  0  0
    7.2972  -16.5358   20.0954 C   0  0  0  0  0  0  0  0  0  0  0  0
    8.5176  -16.8242   19.5373 C   0  0  0  0  0  0  0  0  0  0  0  0
    9.2090  -15.6982   19.2796 N   0  0  0  0  0  0  0  0  0  0  0  0
    8.4459  -14.6340   19.6690 C   0  0  0  0  0  0  0  0  0  0  0  0
    8.6922  -13.2854   19.6184 C   0  0  0  0  0  0  0  0  0  0  0  0
    7.7570  -12.3928   20.0749 C   0  0  0  0  0  0  0  0  0  0  0  0
    6.5763  -12.8569   20.5803 C   0  0  0  0  0  0  0  0  0  0  0  0
    6.3320  -14.2125   20.6297 C   0  0  0  0  0  0  0  0  0  0  0  0
    7.2610  -15.1570   20.1740 C   0  0  0  0  0  0  0  0  0  0  0  0
    6.4544  -17.1134   22.9922 C   0  0  0  0  0  0  0  0  0  0  0  0
    5.3871  -16.5893   23.3886 O   0  0  0  0  0  0  0  0  0  0  0  0
    7.6529  -16.7110   23.6927 N   0  0  0  0  0  0  0  0  0  0  0  0
    7.7646  -15.3809   24.2598 C   0  0  1  0  0  0  0  0  0  0  0  0
    6.9141  -15.4035   25.5416 C   0  0  0  0  0  0  0  0  0  0  0  0
    6.9495  -14.1286   26.2746 C   0  0  0  0  0  0  0  0  0  0  0  0
    6.0219  -13.1418   25.9677 C   0  0  0  0  0  0  0  0  0  0  0  0
    6.0538  -11.9374   26.6818 C   0  0  0  0  0  0  0  0  0  0  0  0
    6.9766  -11.7314   27.6622 C   0  0  0  0  0  0  0  0  0  0  0  0
    7.9103  -12.7033   27.9841 C   0  0  0  0  0  0  0  0  0  0  0  0
    7.8645  -13.9099   27.2567 C   0  0  0  0  0  0  0  0  0  0  0  0
    9.1521  -15.1217   24.6498 C   0  0  0  0  0  0  0  0  0  0  0  0
    9.5255  -14.0089   25.1523 O   0  0  0  0  0  0  0  0  0  0  0  0
   10.1432  -16.1392   24.4697 N   0  0  0  0  0  0  0  0  0  0  0  0
   10.9192  -16.2035   23.2337 C   0  0  0  0  0  0  0  0  0  0  0  0
   11.9802  -17.2446   23.3673 C   0  0  0  0  0  0  0  0  0  0  0  0
   11.6865  -18.5882   23.3868 O   0  0  0  0  0  0  0  0  0  0  0  0
   13.1830  -16.8836   23.4650 O   0  0  0  0  0  0  0  0  0  0  0  0
  2  3  1  0
  2  1  1  1
  2 13  1  0
  3  4  1  0
  4 12  1  0
  4  5  2  0
  5  6  1  0
  7  6  1  0
  7  8  2  0
  9  8  1  0
 10  9  2  0
 11 12  2  0
 11 10  1  0
 12  7  1  0
 13 14  2  0
 15 13  1  0
 15 16  1  0
 16 24  1  0
 16 17  1  1
 18 17  1  0
 19 18  2  0
 20 19  1  0
 21 22  1  0
 21 20  2  0
 22 23  2  0
 23 18  1  0
 24 25  2  0
 26 24  1  0
 26 27  1  0
 28 29  1  0
 28 27  1  0
 30 28  2  0
M  END
$$$$
