WFG.pdb
     RDKit          3D

 30 32  0  0  1  0  0  0  0  0999 V2000
    5.4254  -19.7347   22.2874 N   0  0  0  0  0  0  0  0  0  0  0  0
    6.0553  -19.3090   23.5217 C   0  0  1  0  0  0  0  0  0  0  0  0
    7.3191  -20.1047   23.7847 C   0  0  0  0  0  0  0  0  0  0  0  0
    7.0509  -21.4184   24.4131 C   0  0  0  0  0  0  0  0  0  0  0  0
    6.9140  -22.6702   23.8670 C   0  0  0  0  0  0  0  0  0  0  0  0
    6.6727  -23.5894   24.8206 N   0  0  0  0  0  0  0  0  0  0  0  0
    6.6457  -22.9504   26.0278 C   0  0  0  0  0  0  0  0  0  0  0  0
    6.4409  -23.4330   27.2955 C   0  0  0  0  0  0  0  0  0  0  0  0
    6.4619  -22.5839   28.3718 C   0  0  0  0  0  0  0  0  0  0  0  0
    6.6895  -21.2522   28.1722 C   0  0  0  0  0  0  0  0  0  0  0  0
    6.8949  -20.7706   26.8973 C   0  0  0  0  0  0  0  0  0  0  0  0
    6.8810  -21.6045   25.7714 C   0  0  0  0  0  0  0  0  0  0  0  0
    6.3268  -17.8593   23.4470 C   0  0  0  0  0  0  0  0  0  0  0  0
    6.4635  -17.2629   22.3533 O   0  0  0  0  0  0  0  0  0  0  0  0
    6.4497  -17.0405   24.6318 N   0  0  0  0  0  0  0  0  0  0  0  0
    6.7750  -15.6313   24.5241 C   0  0  1  0  0  0  0  0  0  0  0  0
    6.5125  -15.0370   25.9186 C   0  0  0  0  0  0  0  0  0  0  0  0
    6.7287  -13.5829   25.9711 C   0  0  0  0  0  0  0  0  0  0  0  0
    7.8656  -13.0865   26.5953 C   0  0  0  0  0  0  0  0  0  0  0  0
    8.0702  -11.7013   26.6264 C   0  0  0  0  0  0  0  0  0  0  0  0
    7.1730  -10.8501   26.0557 C   0  0  0  0  0  0  0  0  0  0  0  0
    6.0329  -11.3251   25.4278 C   0  0  0  0  0  0  0  0  0  0  0  0
    5.8418  -12.7215   25.4044 C   0  0  0  0  0  0  0  0  0  0  0  0
    8.2011  -15.4713   24.2324 C   0  0  0  0  0  0  0  0  0  0  0  0
    8.7221  -14.3367   23.9649 O   0  0  0  0  0  0  0  0  0  0  0  0
    9.0615  -16.6156   24.2417 N   0  0  0  0  0  0  0  0  0  0  0  0
   10.4523  -16.4972   23.8109 C   0  0  0  0  0  0  0  0  0  0  0  0
   11.2911  -16.0456   24.9599 C   0  0  0  0  0  0  0  0  0  0  0  0
   12.2289  -15.0475   24.8315 O   0  0  0  0  0  0  0  0  0  0  0  0
   11.1368  -16.5941   26.0832 O   0  0  0  0  0  0  0  0  0  0  0  0
  2  3  1  0
  2  1  1  6
  2 13  1  0
  3  4  1  0
  4 12  1  0
  4  5  2  0
  5  6  1  0
  7  6  1  0
  7  8  2  0
  9  8  1  0
 10  9  2  0
 11 12  2  0
 11 10  1  0
 12  7  1  0
 13 14  2  0
 15 13  1  0
 15 16  1  0
 16 24  1  0
 16 17  1  1
 18 17  1  0
 19 18  2  0
 20 19  1  0
 21 22  1  0
 21 20  2  0
 22 23  2  0
 23 18  1  0
 24 25  2  0
 26 24  1  0
 26 27  1  0
 28 29  1  0
 28 27  1  0
 30 28  2  0
M  END
$$$$
