WFG.pdb
     RDKit          3D

 30 32  0  0  1  0  0  0  0  0999 V2000
    6.4885  -18.5997   23.6107 N   0  0  0  0  0  0  0  0  0  0  0  0
    7.0739  -17.2884   23.8086 C   0  0  1  0  0  0  0  0  0  0  0  0
    7.2865  -17.0097   25.2840 C   0  0  0  0  0  0  0  0  0  0  0  0
    6.6817  -15.7303   25.7203 C   0  0  0  0  0  0  0  0  0  0  0  0
    5.3736  -15.3778   25.9401 C   0  0  0  0  0  0  0  0  0  0  0  0
    5.2789  -14.0936   26.3328 N   0  0  0  0  0  0  0  0  0  0  0  0
    6.5402  -13.5706   26.3789 C   0  0  0  0  0  0  0  0  0  0  0  0
    6.9810  -12.3165   26.7176 C   0  0  0  0  0  0  0  0  0  0  0  0
    8.3199  -12.0219   26.6904 C   0  0  0  0  0  0  0  0  0  0  0  0
    9.2127  -12.9882   26.3240 C   0  0  0  0  0  0  0  0  0  0  0  0
    8.7664  -14.2472   25.9843 C   0  0  0  0  0  0  0  0  0  0  0  0
    7.4075  -14.5884   25.9989 C   0  0  0  0  0  0  0  0  0  0  0  0
    8.3375  -17.2070   23.0487 C   0  0  0  0  0  0  0  0  0  0  0  0
    8.7471  -18.1520   22.3345 O   0  0  0  0  0  0  0  0  0  0  0  0
    9.1775  -16.0312   23.0816 N   0  0  0  0  0  0  0  0  0  0  0  0
   10.2039  -15.8294   22.0772 C   0  0  1  0  0  0  0  0  0  0  0  0
   10.1634  -14.3295   21.7378 C   0  0  0  0  0  0  0  0  0  0  0  0
    8.9704  -13.9493   20.9657 C   0  0  0  0  0  0  0  0  0  0  0  0
    7.8435  -13.4922   21.6364 C   0  0  0  0  0  0  0  0  0  0  0  0
    6.7181  -13.1179   20.8915 C   0  0  0  0  0  0  0  0  0  0  0  0
    6.7226  -13.1983   19.5318 C   0  0  0  0  0  0  0  0  0  0  0  0
    7.8368  -13.6511   18.8437 C   0  0  0  0  0  0  0  0  0  0  0  0
    8.9614  -14.0233   19.6077 C   0  0  0  0  0  0  0  0  0  0  0  0
   11.5209  -16.1223   22.6466 C   0  0  0  0  0  0  0  0  0  0  0  0
   12.6038  -15.9449   21.9939 O   0  0  0  0  0  0  0  0  0  0  0  0
   11.6216  -16.6273   23.9826 N   0  0  0  0  0  0  0  0  0  0  0  0
   12.9306  -16.8812   24.5792 C   0  0  0  0  0  0  0  0  0  0  0  0
   13.3830  -18.2565   24.2168 C   0  0  0  0  0  0  0  0  0  0  0  0
   14.4914  -18.8354   24.7898 O   0  0  0  0  0  0  0  0  0  0  0  0
   12.7306  -18.9094   23.3596 O   0  0  0  0  0  0  0  0  0  0  0  0
  2  3  1  0
  2  1  1  1
  2 13  1  0
  3  4  1  0
  4 12  1  0
  4  5  2  0
  5  6  1  0
  7  6  1  0
  7  8  2  0
  9  8  1  0
 10  9  2  0
 11 12  2  0
 11 10  1  0
 12  7  1  0
 13 14  2  0
 15 13  1  0
 15 16  1  0
 16 24  1  0
 16 17  1  1
 18 17  1  0
 19 18  2  0
 20 19  1  0
 21 22  1  0
 21 20  2  0
 22 23  2  0
 23 18  1  0
 24 25  2  0
 26 24  1  0
 26 27  1  0
 28 29  1  0
 28 27  1  0
 30 28  2  0
M  END
$$$$
