WFG.pdb
     RDKit          3D

 30 32  0  0  1  0  0  0  0  0999 V2000
    8.5115  -18.4240   23.5660 N   0  0  0  0  0  0  0  0  0  0  0  0
    9.6528  -17.7047   23.0356 C   0  0  1  0  0  0  0  0  0  0  0  0
    9.3060  -17.0390   21.7179 C   0  0  0  0  0  0  0  0  0  0  0  0
    8.2133  -16.0478   21.8446 C   0  0  0  0  0  0  0  0  0  0  0  0
    6.9544  -16.1544   22.3811 C   0  0  0  0  0  0  0  0  0  0  0  0
    6.2873  -14.9892   22.2829 N   0  0  0  0  0  0  0  0  0  0  0  0
    7.1062  -14.0824   21.6714 C   0  0  0  0  0  0  0  0  0  0  0  0
    6.9024  -12.7663   21.3426 C   0  0  0  0  0  0  0  0  0  0  0  0
    7.8911  -12.0458   20.7236 C   0  0  0  0  0  0  0  0  0  0  0  0
    9.0824  -12.6489   20.4372 C   0  0  0  0  0  0  0  0  0  0  0  0
    9.2839  -13.9714   20.7689 C   0  0  0  0  0  0  0  0  0  0  0  0
    8.2997  -14.7422   21.4015 C   0  0  0  0  0  0  0  0  0  0  0  0
   10.1115  -16.7242   24.0400 C   0  0  0  0  0  0  0  0  0  0  0  0
   11.0488  -15.9245   23.8104 O   0  0  0  0  0  0  0  0  0  0  0  0
    9.5056  -16.6268   25.3487 N   0  0  0  0  0  0  0  0  0  0  0  0
   10.0944  -15.7866   26.3736 C   0  0  1  0  0  0  0  0  0  0  0  0
    8.9278  -15.3598   27.2812 C   0  0  0  0  0  0  0  0  0  0  0  0
    8.1545  -14.2366   26.7296 C   0  0  0  0  0  0  0  0  0  0  0  0
    8.7591  -12.9929   26.6010 C   0  0  0  0  0  0  0  0  0  0  0  0
    8.0194  -11.9337   26.0602 C   0  0  0  0  0  0  0  0  0  0  0  0
    6.7285  -12.1139   25.6650 C   0  0  0  0  0  0  0  0  0  0  0  0
    6.1073  -13.3467   25.7843 C   0  0  0  0  0  0  0  0  0  0  0  0
    6.8653  -14.4026   26.3298 C   0  0  0  0  0  0  0  0  0  0  0  0
   11.0266  -16.5719   27.1852 C   0  0  0  0  0  0  0  0  0  0  0  0
   11.7624  -16.0446   28.0856 O   0  0  0  0  0  0  0  0  0  0  0  0
   11.1335  -17.9846   26.9783 N   0  0  0  0  0  0  0  0  0  0  0  0
   12.1397  -18.7620   27.6973 C   0  0  0  0  0  0  0  0  0  0  0  0
   11.5571  -19.2673   28.9751 C   0  0  0  0  0  0  0  0  0  0  0  0
   12.3055  -19.9675   29.8924 O   0  0  0  0  0  0  0  0  0  0  0  0
   10.3421  -19.0463   29.2233 O   0  0  0  0  0  0  0  0  0  0  0  0
  2  3  1  0
  2  1  1  1
  2 13  1  0
  3  4  1  0
  4 12  1  0
  4  5  2  0
  5  6  1  0
  7  6  1  0
  7  8  2  0
  9  8  1  0
 10  9  2  0
 11 12  2  0
 11 10  1  0
 12  7  1  0
 13 14  2  0
 15 13  1  0
 15 16  1  0
 16 24  1  0
 16 17  1  1
 18 17  1  0
 19 18  2  0
 20 19  1  0
 21 22  1  0
 21 20  2  0
 22 23  2  0
 23 18  1  0
 24 25  2  0
 26 24  1  0
 26 27  1  0
 28 29  1  0
 28 27  1  0
 30 28  2  0
M  END
$$$$
