WFG.pdb
     RDKit          3D

 30 32  0  0  1  0  0  0  0  0999 V2000
    7.5701  -17.8657   23.2278 N   0  0  0  0  0  0  0  0  0  0  0  0
    8.9291  -17.5111   22.8690 C   0  0  1  0  0  0  0  0  0  0  0  0
    8.9654  -16.7991   21.5306 C   0  0  0  0  0  0  0  0  0  0  0  0
    7.8479  -15.8431   21.3575 C   0  0  0  0  0  0  0  0  0  0  0  0
    6.4935  -15.9977   21.5182 C   0  0  0  0  0  0  0  0  0  0  0  0
    5.8415  -14.8507   21.2506 N   0  0  0  0  0  0  0  0  0  0  0  0
    6.7675  -13.9078   20.9041 C   0  0  0  0  0  0  0  0  0  0  0  0
    6.6194  -12.5917   20.5469 C   0  0  0  0  0  0  0  0  0  0  0  0
    7.7168  -11.8298   20.2385 C   0  0  0  0  0  0  0  0  0  0  0  0
    8.9604  -12.3916   20.2906 C   0  0  0  0  0  0  0  0  0  0  0  0
    9.1057  -13.7143   20.6499 C   0  0  0  0  0  0  0  0  0  0  0  0
    8.0105  -14.5266   20.9719 C   0  0  0  0  0  0  0  0  0  0  0  0
    9.5094  -16.6832   23.9453 C   0  0  0  0  0  0  0  0  0  0  0  0
   10.4569  -15.8896   23.7377 O   0  0  0  0  0  0  0  0  0  0  0  0
    9.0180  -16.7372   25.3036 N   0  0  0  0  0  0  0  0  0  0  0  0
    9.7282  -16.0618   26.3725 C   0  0  1  0  0  0  0  0  0  0  0  0
    8.6448  -15.3740   27.2210 C   0  0  0  0  0  0  0  0  0  0  0  0
    8.0936  -14.1705   26.5796 C   0  0  0  0  0  0  0  0  0  0  0  0
    6.8565  -14.2402   25.9525 C   0  0  0  0  0  0  0  0  0  0  0  0
    6.3330  -13.0851   25.3582 C   0  0  0  0  0  0  0  0  0  0  0  0
    7.0208  -11.9099   25.3914 C   0  0  0  0  0  0  0  0  0  0  0  0
    8.2561  -11.8192   26.0124 C   0  0  0  0  0  0  0  0  0  0  0  0
    8.7688  -12.9902   26.6063 C   0  0  0  0  0  0  0  0  0  0  0  0
   10.4014  -17.0466   27.2218 C   0  0  0  0  0  0  0  0  0  0  0  0
   11.1511  -16.7096   28.1988 O   0  0  0  0  0  0  0  0  0  0  0  0
   10.2268  -18.4444   26.9653 N   0  0  0  0  0  0  0  0  0  0  0  0
   11.3520  -19.2579   26.5115 C   0  0  0  0  0  0  0  0  0  0  0  0
   12.1363  -19.7236   27.6928 C   0  0  0  0  0  0  0  0  0  0  0  0
   13.2761  -20.4819   27.5598 O   0  0  0  0  0  0  0  0  0  0  0  0
   11.7440  -19.4132   28.8488 O   0  0  0  0  0  0  0  0  0  0  0  0
  2  3  1  0
  2  1  1  1
  2 13  1  0
  3  4  1  0
  4 12  1  0
  4  5  2  0
  5  6  1  0
  7  6  1  0
  7  8  2  0
  9  8  1  0
 10  9  2  0
 11 12  2  0
 11 10  1  0
 12  7  1  0
 13 14  2  0
 15 13  1  0
 15 16  1  0
 16 24  1  0
 16 17  1  1
 18 17  1  0
 19 18  2  0
 20 19  1  0
 21 22  1  0
 21 20  2  0
 22 23  2  0
 23 18  1  0
 24 25  2  0
 26 24  1  0
 26 27  1  0
 28 29  1  0
 28 27  1  0
 30 28  2  0
M  END
$$$$
