PYS.pdb
     RDKit          3D

 26 27  0  0  1  0  0  0  0  0999 V2000
    7.8456  -15.4295   18.5698 N   0  0  0  0  0  0  0  0  0  0  0  0
    7.6628  -15.2102   17.1465 C   0  0  0  0  0  0  0  0  0  0  0  0
    7.8468  -13.7321   16.9059 C   0  0  0  0  0  0  0  0  0  0  0  0
    8.2443  -13.1834   18.2721 C   0  0  0  0  0  0  0  0  0  0  0  0
    8.8155  -14.4184   18.9292 C   0  0  1  0  0  0  0  0  0  0  0  0
    8.9659  -14.2723   20.3857 C   0  0  0  0  0  0  0  0  0  0  0  0
   10.0887  -13.8947   20.8574 O   0  0  0  0  0  0  0  0  0  0  0  0
    7.2760  -12.9539   28.9421 O   0  0  0  0  0  0  0  0  0  0  0  0
    7.1425  -13.1521   27.5656 C   0  0  0  0  0  0  0  0  0  0  0  0
    6.6396  -14.3367   27.0905 C   0  0  0  0  0  0  0  0  0  0  0  0
    6.4890  -14.5774   25.7211 C   0  0  0  0  0  0  0  0  0  0  0  0
    6.8379  -13.6373   24.7983 C   0  0  0  0  0  0  0  0  0  0  0  0
    6.6923  -13.8154   23.3335 C   0  0  0  0  0  0  0  0  0  0  0  0
    7.9563  -14.4039   22.7042 C   0  0  2  0  0  0  0  0  0  0  0  0
    7.8932  -14.5409   21.2782 N   0  0  0  0  0  0  0  0  0  0  0  0
    8.4172  -15.6182   23.4110 C   0  0  0  0  0  0  0  0  0  0  0  0
    7.7752  -16.7212   23.3265 O   0  0  0  0  0  0  0  0  0  0  0  0
    7.3499  -12.4344   25.3096 C   0  0  0  0  0  0  0  0  0  0  0  0
    7.4999  -12.1934   26.6507 C   0  0  0  0  0  0  0  0  0  0  0  0
   12.2604  -17.8778   25.1699 O   0  0  0  0  0  0  0  0  0  0  0  0
   11.6552  -16.7070   24.7330 C   0  0  0  0  0  0  0  0  0  0  0  0
   10.1322  -16.9038   24.7332 C   0  0  2  0  0  0  0  0  0  0  0  0
    9.5777  -15.6585   24.2188 N   0  0  0  0  0  0  0  0  0  0  0  0
    9.7357  -17.1394   26.1260 C   0  0  0  0  0  0  0  0  0  0  0  0
    9.0160  -16.2066   26.8191 O   0  0  0  0  0  0  0  0  0  0  0  0
   10.0608  -18.2093   26.6882 O   0  0  0  0  0  0  0  0  0  0  0  0
  1  2  1  0
  2  3  1  0
  4  3  1  0
  5  4  1  0
  5  1  1  0
  6 15  1  0
  5  6  1  1
  7  6  2  0
  9 10  2  0
  9  8  1  0
 11 10  1  0
 12 11  2  0
 13 12  1  0
 14 13  1  1
 14 15  1  0
 16 14  1  0
 16 17  2  0
 18 12  1  0
 18 19  2  0
 19  9  1  0
 20 21  1  0
 22 23  1  0
 22 21  1  1
 23 16  1  0
 24 22  1  0
 25 24  1  0
 26 24  2  0
M  END
$$$$
