PYS.pdb
     RDKit          3D

 26 27  0  0  1  0  0  0  0  0999 V2000
    7.4362  -15.0453   20.0988 N   0  0  0  0  0  0  0  0  0  0  0  0
    6.6961  -14.4814   18.9846 C   0  0  0  0  0  0  0  0  0  0  0  0
    6.6359  -12.9908   19.2111 C   0  0  0  0  0  0  0  0  0  0  0  0
    7.4803  -12.7741   20.4623 C   0  0  0  0  0  0  0  0  0  0  0  0
    8.3724  -13.9932   20.4288 C   0  0  1  0  0  0  0  0  0  0  0  0
    9.0623  -14.2312   21.7066 C   0  0  0  0  0  0  0  0  0  0  0  0
   10.3363  -14.2773   21.7232 O   0  0  0  0  0  0  0  0  0  0  0  0
   10.9324  -15.1141   30.3016 O   0  0  0  0  0  0  0  0  0  0  0  0
   10.2604  -14.8871   29.0980 C   0  0  0  0  0  0  0  0  0  0  0  0
    9.5414  -15.8992   28.5143 C   0  0  0  0  0  0  0  0  0  0  0  0
    8.8539  -15.7159   27.3103 C   0  0  0  0  0  0  0  0  0  0  0  0
    8.8710  -14.5155   26.6654 C   0  0  0  0  0  0  0  0  0  0  0  0
    8.1547  -14.2431   25.3961 C   0  0  0  0  0  0  0  0  0  0  0  0
    8.9370  -14.7479   24.1824 C   0  0  2  0  0  0  0  0  0  0  0  0
    8.3454  -14.4105   22.9205 N   0  0  0  0  0  0  0  0  0  0  0  0
    9.3134  -16.1718   24.3149 C   0  0  0  0  0  0  0  0  0  0  0  0
    8.4339  -17.0993   24.2707 O   0  0  0  0  0  0  0  0  0  0  0  0
    9.6135  -13.4966   27.2826 C   0  0  0  0  0  0  0  0  0  0  0  0
   10.2894  -13.6710   28.4624 C   0  0  0  0  0  0  0  0  0  0  0  0
   12.6305  -17.3310   23.0515 O   0  0  0  0  0  0  0  0  0  0  0  0
   11.7741  -18.3789   23.3615 C   0  0  0  0  0  0  0  0  0  0  0  0
   10.9914  -18.0224   24.6338 C   0  0  2  0  0  0  0  0  0  0  0  0
   10.6447  -16.6138   24.4970 N   0  0  0  0  0  0  0  0  0  0  0  0
   11.8966  -18.2505   25.7658 C   0  0  0  0  0  0  0  0  0  0  0  0
   12.3432  -19.5070   26.0661 O   0  0  0  0  0  0  0  0  0  0  0  0
   12.2653  -17.2815   26.4668 O   0  0  0  0  0  0  0  0  0  0  0  0
  1  2  1  0
  2  3  1  0
  4  3  1  0
  5  4  1  0
  5  1  1  0
  6 15  1  0
  5  6  1  1
  7  6  2  0
  9 10  2  0
  9  8  1  0
 11 10  1  0
 12 11  2  0
 13 12  1  0
 14 13  1  1
 14 15  1  0
 16 14  1  0
 16 17  2  0
 18 12  1  0
 18 19  2  0
 19  9  1  0
 20 21  1  0
 22 23  1  0
 22 21  1  6
 23 16  1  0
 24 22  1  0
 25 24  1  0
 26 24  2  0
M  END
$$$$
