PYS.pdb
     RDKit          3D

 26 27  0  0  1  0  0  0  0  0999 V2000
    7.2181  -15.2344   20.3235 N   0  0  0  0  0  0  0  0  0  0  0  0
    6.6162  -14.7880   19.0802 C   0  0  0  0  0  0  0  0  0  0  0  0
    7.0516  -13.3581   18.8737 C   0  0  0  0  0  0  0  0  0  0  0  0
    8.0113  -13.0951   20.0293 C   0  0  0  0  0  0  0  0  0  0  0  0
    8.4627  -14.4985   20.3609 C   0  0  1  0  0  0  0  0  0  0  0  0
    9.1333  -14.5887   21.6677 C   0  0  0  0  0  0  0  0  0  0  0  0
   10.4055  -14.5199   21.7168 O   0  0  0  0  0  0  0  0  0  0  0  0
   10.6172  -15.2237   30.3695 O   0  0  0  0  0  0  0  0  0  0  0  0
    9.9940  -15.0331   29.1338 C   0  0  0  0  0  0  0  0  0  0  0  0
    9.9956  -13.7912   28.5510 C   0  0  0  0  0  0  0  0  0  0  0  0
    9.3840  -13.5557   27.3155 C   0  0  0  0  0  0  0  0  0  0  0  0
    8.7583  -14.5583   26.6370 C   0  0  0  0  0  0  0  0  0  0  0  0
    8.1030  -14.3872   25.3180 C   0  0  0  0  0  0  0  0  0  0  0  0
    8.9817  -14.9007   24.1760 C   0  0  2  0  0  0  0  0  0  0  0  0
    8.3998  -14.7503   22.8741 N   0  0  0  0  0  0  0  0  0  0  0  0
    9.5174  -16.2517   24.4492 C   0  0  0  0  0  0  0  0  0  0  0  0
    8.7817  -17.2926   24.3448 O   0  0  0  0  0  0  0  0  0  0  0  0
    8.7703  -15.8190   27.2543 C   0  0  0  0  0  0  0  0  0  0  0  0
    9.3679  -16.0552   28.4652 C   0  0  0  0  0  0  0  0  0  0  0  0
   12.4866  -18.8843   22.6781 O   0  0  0  0  0  0  0  0  0  0  0  0
   11.8288  -17.7153   23.0366 C   0  0  0  0  0  0  0  0  0  0  0  0
   11.5399  -17.7490   24.5445 C   0  0  2  0  0  0  0  0  0  0  0  0
   10.8548  -16.4972   24.8387 N   0  0  0  0  0  0  0  0  0  0  0  0
   12.8384  -17.8290   25.2229 C   0  0  0  0  0  0  0  0  0  0  0  0
   13.5656  -18.9863   25.2142 O   0  0  0  0  0  0  0  0  0  0  0  0
   13.2873  -16.8236   25.8181 O   0  0  0  0  0  0  0  0  0  0  0  0
  1  2  1  0
  2  3  1  0
  4  3  1  0
  5  4  1  0
  5  1  1  0
  6 15  1  0
  5  6  1  1
  7  6  2  0
  9 10  2  0
  9  8  1  0
 11 10  1  0
 12 11  2  0
 13 12  1  0
 14 13  1  1
 14 15  1  0
 16 14  1  0
 16 17  2  0
 18 12  1  0
 18 19  2  0
 19  9  1  0
 20 21  1  0
 22 23  1  0
 22 21  1  6
 23 16  1  0
 24 22  1  0
 25 24  1  0
 26 24  2  0
M  END
$$$$
