PYS.pdb
     RDKit          3D

 26 27  0  0  1  0  0  0  0  0999 V2000
    7.6019  -14.9657   19.9040 N   0  0  0  0  0  0  0  0  0  0  0  0
    7.2635  -14.2558   18.6839 C   0  0  0  0  0  0  0  0  0  0  0  0
    7.7211  -12.8297   18.8680 C   0  0  0  0  0  0  0  0  0  0  0  0
    8.4221  -12.8401   20.2223 C   0  0  0  0  0  0  0  0  0  0  0  0
    8.8069  -14.2963   20.3422 C   0  0  1  0  0  0  0  0  0  0  0  0
    9.1968  -14.6730   21.7103 C   0  0  0  0  0  0  0  0  0  0  0  0
   10.3585  -14.3592   22.1316 O   0  0  0  0  0  0  0  0  0  0  0  0
    6.4825  -10.2002   26.5691 O   0  0  0  0  0  0  0  0  0  0  0  0
    6.6917  -11.5192   26.1590 C   0  0  0  0  0  0  0  0  0  0  0  0
    7.7962  -11.8358   25.4095 C   0  0  0  0  0  0  0  0  0  0  0  0
    8.0446  -13.1426   24.9778 C   0  0  0  0  0  0  0  0  0  0  0  0
    7.1929  -14.1604   25.2875 C   0  0  0  0  0  0  0  0  0  0  0  0
    7.3988  -15.5706   24.8787 C   0  0  0  0  0  0  0  0  0  0  0  0
    8.5938  -15.7203   23.9355 C   0  0  2  0  0  0  0  0  0  0  0  0
    8.3125  -15.3764   22.5721 N   0  0  0  0  0  0  0  0  0  0  0  0
    9.2780  -17.0202   24.1050 C   0  0  0  0  0  0  0  0  0  0  0  0
    8.7133  -18.1179   23.7705 O   0  0  0  0  0  0  0  0  0  0  0  0
    6.0706  -13.8108   26.0547 C   0  0  0  0  0  0  0  0  0  0  0  0
    5.8222  -12.5315   26.4803 C   0  0  0  0  0  0  0  0  0  0  0  0
   13.1905  -17.1466   24.5550 O   0  0  0  0  0  0  0  0  0  0  0  0
   12.5944  -18.3402   24.1705 C   0  0  0  0  0  0  0  0  0  0  0  0
   11.2174  -18.4478   24.8417 C   0  0  2  0  0  0  0  0  0  0  0  0
   10.5816  -17.1528   24.6379 N   0  0  0  0  0  0  0  0  0  0  0  0
   11.4591  -18.7155   26.2639 C   0  0  0  0  0  0  0  0  0  0  0  0
   12.1267  -19.8392   26.6637 O   0  0  0  0  0  0  0  0  0  0  0  0
   11.0486  -17.9038   27.1236 O   0  0  0  0  0  0  0  0  0  0  0  0
  1  2  1  0
  2  3  1  0
  4  3  1  0
  5  4  1  0
  5  1  1  0
  6 15  1  0
  5  6  1  1
  7  6  2  0
  9 10  2  0
  9  8  1  0
 11 10  1  0
 12 11  2  0
 13 12  1  0
 14 13  1  1
 14 15  1  0
 16 14  1  0
 16 17  2  0
 18 12  1  0
 18 19  2  0
 19  9  1  0
 20 21  1  0
 22 23  1  0
 22 21  1  6
 23 16  1  0
 24 22  1  0
 25 24  1  0
 26 24  2  0
M  END
$$$$
