PYS.pdb
     RDKit          3D

 26 27  0  0  1  0  0  0  0  0999 V2000
    7.1875  -14.8812   20.4377 N   0  0  0  0  0  0  0  0  0  0  0  0
    6.7775  -14.1396   19.2590 C   0  0  0  0  0  0  0  0  0  0  0  0
    7.3536  -12.7516   19.3949 C   0  0  0  0  0  0  0  0  0  0  0  0
    8.1879  -12.8225   20.6695 C   0  0  0  0  0  0  0  0  0  0  0  0
    8.4766  -14.3035   20.7490 C   0  0  1  0  0  0  0  0  0  0  0  0
    8.9770  -14.7175   22.0695 C   0  0  0  0  0  0  0  0  0  0  0  0
   10.1500  -14.3664   22.4250 O   0  0  0  0  0  0  0  0  0  0  0  0
    6.3717  -10.2134   26.4953 O   0  0  0  0  0  0  0  0  0  0  0  0
    6.6365  -11.5558   26.2133 C   0  0  0  0  0  0  0  0  0  0  0  0
    5.6484  -12.3539   25.6950 C   0  0  0  0  0  0  0  0  0  0  0  0
    5.8698  -13.7025   25.3979 C   0  0  0  0  0  0  0  0  0  0  0  0
    7.0849  -14.2806   25.6128 C   0  0  0  0  0  0  0  0  0  0  0  0
    7.3973  -15.6977   25.3082 C   0  0  0  0  0  0  0  0  0  0  0  0
    8.5463  -15.8237   24.3062 C   0  0  2  0  0  0  0  0  0  0  0  0
    8.1872  -15.4974   22.9569 N   0  0  0  0  0  0  0  0  0  0  0  0
    9.2719  -17.1042   24.4485 C   0  0  0  0  0  0  0  0  0  0  0  0
    8.6495  -18.2210   24.4854 O   0  0  0  0  0  0  0  0  0  0  0  0
    8.0787  -13.4434   26.1437 C   0  0  0  0  0  0  0  0  0  0  0  0
    7.8670  -12.1211   26.4369 C   0  0  0  0  0  0  0  0  0  0  0  0
   13.2672  -17.0325   24.8163 O   0  0  0  0  0  0  0  0  0  0  0  0
   12.8139  -18.2070   24.2308 C   0  0  0  0  0  0  0  0  0  0  0  0
   11.3734  -18.4702   24.6935 C   0  0  2  0  0  0  0  0  0  0  0  0
   10.6795  -17.1967   24.5530 N   0  0  0  0  0  0  0  0  0  0  0  0
   11.4497  -18.8942   26.0960 C   0  0  0  0  0  0  0  0  0  0  0  0
   12.0364  -20.0797   26.4406 O   0  0  0  0  0  0  0  0  0  0  0  0
   10.9711  -18.1606   26.9900 O   0  0  0  0  0  0  0  0  0  0  0  0
  1  2  1  0
  2  3  1  0
  4  3  1  0
  5  4  1  0
  5  1  1  0
  6 15  1  0
  5  6  1  1
  7  6  2  0
  9 10  2  0
  9  8  1  0
 11 10  1  0
 12 11  2  0
 13 12  1  0
 14 13  1  1
 14 15  1  0
 16 14  1  0
 16 17  2  0
 18 12  1  0
 18 19  2  0
 19  9  1  0
 20 21  1  0
 22 23  1  0
 22 21  1  1
 23 16  1  0
 24 22  1  0
 25 24  1  0
 26 24  2  0
M  END
$$$$
