PYS.pdb
     RDKit          3D

 26 27  0  0  1  0  0  0  0  0999 V2000
    4.8955  -19.1791   23.2728 N   0  0  0  0  0  0  0  0  0  0  0  0
    4.9862  -20.5955   23.5774 C   0  0  0  0  0  0  0  0  0  0  0  0
    6.4281  -20.9929   23.3779 C   0  0  0  0  0  0  0  0  0  0  0  0
    7.1297  -19.6796   23.0487 C   0  0  0  0  0  0  0  0  0  0  0  0
    6.1901  -18.6788   23.6802 C   0  0  1  0  0  0  0  0  0  0  0  0
    6.4326  -17.3011   23.2235 C   0  0  0  0  0  0  0  0  0  0  0  0
    5.5896  -16.7507   22.4412 O   0  0  0  0  0  0  0  0  0  0  0  0
    5.4414  -12.4130   28.1213 O   0  0  0  0  0  0  0  0  0  0  0  0
    6.2662  -12.9161   27.1122 C   0  0  0  0  0  0  0  0  0  0  0  0
    6.0951  -12.4984   25.8168 C   0  0  0  0  0  0  0  0  0  0  0  0
    6.8980  -12.9759   24.7760 C   0  0  0  0  0  0  0  0  0  0  0  0
    7.8895  -13.8811   25.0098 C   0  0  0  0  0  0  0  0  0  0  0  0
    8.7887  -14.4193   23.9609 C   0  0  0  0  0  0  0  0  0  0  0  0
    8.0519  -15.3659   23.0117 C   0  0  2  0  0  0  0  0  0  0  0  0
    7.5807  -16.5699   23.6318 N   0  0  0  0  0  0  0  0  0  0  0  0
    8.7961  -15.5828   21.7524 C   0  0  0  0  0  0  0  0  0  0  0  0
    9.6455  -16.5320   21.6366 O   0  0  0  0  0  0  0  0  0  0  0  0
    8.0441  -14.2927   26.3429 C   0  0  0  0  0  0  0  0  0  0  0  0
    7.2598  -13.8281   27.3668 C   0  0  0  0  0  0  0  0  0  0  0  0
    7.4839  -14.1775   18.1307 O   0  0  0  0  0  0  0  0  0  0  0  0
    8.8379  -13.9786   18.3648 C   0  0  0  0  0  0  0  0  0  0  0  0
    9.3344  -15.0453   19.3517 C   0  0  2  0  0  0  0  0  0  0  0  0
    8.6334  -14.7779   20.6007 N   0  0  0  0  0  0  0  0  0  0  0  0
   10.7823  -14.8527   19.4905 C   0  0  0  0  0  0  0  0  0  0  0  0
   11.6300  -15.1265   18.4539 O   0  0  0  0  0  0  0  0  0  0  0  0
   11.2484  -14.4319   20.5732 O   0  0  0  0  0  0  0  0  0  0  0  0
  1  2  1  0
  2  3  1  0
  4  3  1  0
  5  4  1  0
  5  1  1  0
  6 15  1  0
  5  6  1  6
  7  6  2  0
  9 10  2  0
  9  8  1  0
 11 10  1  0
 12 11  2  0
 13 12  1  0
 14 13  1  1
 14 15  1  0
 16 14  1  0
 16 17  2  0
 18 12  1  0
 18 19  2  0
 19  9  1  0
 20 21  1  0
 22 23  1  0
 22 21  1  6
 23 16  1  0
 24 22  1  0
 25 24  1  0
 26 24  2  0
M  END
$$$$
