PYS.pdb
     RDKit          3D

 26 27  0  0  1  0  0  0  0  0999 V2000
    8.0262  -19.2691   19.9317 N   0  0  0  0  0  0  0  0  0  0  0  0
    7.1746  -19.7903   18.8779 C   0  0  0  0  0  0  0  0  0  0  0  0
    6.9909  -18.6777   17.8754 C   0  0  0  0  0  0  0  0  0  0  0  0
    7.8824  -17.5577   18.4010 C   0  0  0  0  0  0  0  0  0  0  0  0
    8.8792  -18.3387   19.2253 C   0  0  1  0  0  0  0  0  0  0  0  0
    9.6604  -17.4858   20.1352 C   0  0  0  0  0  0  0  0  0  0  0  0
   10.9083  -17.3336   19.9226 O   0  0  0  0  0  0  0  0  0  0  0  0
    7.1518  -12.0583   17.6374 O   0  0  0  0  0  0  0  0  0  0  0  0
    7.5790  -12.6957   18.8049 C   0  0  0  0  0  0  0  0  0  0  0  0
    8.9048  -12.6634   19.1561 C   0  0  0  0  0  0  0  0  0  0  0  0
    9.3758  -13.2876   20.3156 C   0  0  0  0  0  0  0  0  0  0  0  0
    8.5298  -13.9569   21.1483 C   0  0  0  0  0  0  0  0  0  0  0  0
    8.9537  -14.6283   22.4005 C   0  0  0  0  0  0  0  0  0  0  0  0
    9.7322  -15.9149   22.1200 C   0  0  2  0  0  0  0  0  0  0  0  0
    9.0599  -16.8288   21.2430 N   0  0  0  0  0  0  0  0  0  0  0  0
   10.2516  -16.5332   23.3587 C   0  0  0  0  0  0  0  0  0  0  0  0
    9.5241  -16.6388   24.4052 O   0  0  0  0  0  0  0  0  0  0  0  0
    7.1790  -13.9757   20.7668 C   0  0  0  0  0  0  0  0  0  0  0  0
    6.7121  -13.3657   19.6314 C   0  0  0  0  0  0  0  0  0  0  0  0
   12.6396  -19.4013   23.2208 O   0  0  0  0  0  0  0  0  0  0  0  0
   12.0712  -19.1587   24.4642 C   0  0  0  0  0  0  0  0  0  0  0  0
   12.0570  -17.6442   24.7182 C   0  0  2  0  0  0  0  0  0  0  0  0
   11.5638  -17.0462   23.4845 N   0  0  0  0  0  0  0  0  0  0  0  0
   13.4421  -17.2485   24.9968 C   0  0  0  0  0  0  0  0  0  0  0  0
   14.1247  -16.4302   24.1408 O   0  0  0  0  0  0  0  0  0  0  0  0
   14.0072  -17.6656   26.0327 O   0  0  0  0  0  0  0  0  0  0  0  0
  1  2  1  0
  2  3  1  0
  4  3  1  0
  5  4  1  0
  5  1  1  0
  6 15  1  0
  5  6  1  1
  7  6  2  0
  9 10  2  0
  9  8  1  0
 11 10  1  0
 12 11  2  0
 13 12  1  0
 14 13  1  1
 14 15  1  0
 16 14  1  0
 16 17  2  0
 18 12  1  0
 18 19  2  0
 19  9  1  0
 20 21  1  0
 22 23  1  0
 22 21  1  6
 23 16  1  0
 24 22  1  0
 25 24  1  0
 26 24  2  0
M  END
$$$$
