GCF.pdb
     RDKit          3D

 22 22  0  0  1  0  0  0  0  0999 V2000
    8.2854  -12.9009   17.5244 N   0  0  0  0  0  0  0  0  0  0  0  0
    9.0539  -13.3242   18.6803 C   0  0  0  0  0  0  0  0  0  0  0  0
    8.2096  -14.0855   19.6381 C   0  0  0  0  0  0  0  0  0  0  0  0
    7.0507  -14.3901   19.3226 O   0  0  0  0  0  0  0  0  0  0  0  0
    8.7119  -14.4760   20.9253 N   0  0  0  0  0  0  0  0  0  0  0  0
    7.9362  -15.2955   21.8307 C   0  0  1  0  0  0  0  0  0  0  0  0
    7.8743  -16.7165   21.2540 C   0  0  0  0  0  0  0  0  0  0  0  0
    9.4869  -17.3415   20.8089 S   0  0  0  0  0  0  0  0  0  0  0  0
    8.6835  -15.4116   23.1066 C   0  0  0  0  0  0  0  0  0  0  0  0
    9.9001  -15.1137   23.1089 O   0  0  0  0  0  0  0  0  0  0  0  0
    8.0917  -15.8401   24.3135 N   0  0  0  0  0  0  0  0  0  0  0  0
    8.8232  -15.6918   25.5497 C   0  0  1  0  0  0  0  0  0  0  0  0
    7.8955  -15.3698   26.6990 C   0  0  0  0  0  0  0  0  0  0  0  0
    7.3939  -13.9889   26.5958 C   0  0  0  0  0  0  0  0  0  0  0  0
    6.0803  -13.7477   26.2571 C   0  0  0  0  0  0  0  0  0  0  0  0
    5.6318  -12.4552   26.1724 C   0  0  0  0  0  0  0  0  0  0  0  0
    6.4343  -11.3641   26.4107 C   0  0  0  0  0  0  0  0  0  0  0  0
    7.7526  -11.5912   26.7509 C   0  0  0  0  0  0  0  0  0  0  0  0
    8.2133  -12.8849   26.8389 C   0  0  0  0  0  0  0  0  0  0  0  0
    9.6009  -16.9353   25.7349 C   0  0  0  0  0  0  0  0  0  0  0  0
   10.5538  -16.9818   26.5458 O   0  0  0  0  0  0  0  0  0  0  0  0
    9.3123  -18.0900   25.0270 O   0  0  0  0  0  0  0  0  0  0  0  0
  2  1  1  0
  3  2  1  0
  4  3  2  0
  5  3  1  0
  6  5  1  0
  6  9  1  0
  6  7  1  6
  8  7  1  0
  9 10  2  0
 11  9  1  0
 11 12  1  0
 12 13  1  1
 13 14  1  0
 14 19  2  0
 15 16  2  0
 15 14  1  0
 16 17  1  0
 17 18  2  0
 19 18  1  0
 20 12  1  0
 20 22  1  0
 21 20  2  0
M  END
$$$$
