GCF.pdb
     RDKit          3D

 22 22  0  0  1  0  0  0  0  0999 V2000
    7.8455  -12.4278   18.6105 N   0  0  0  0  0  0  0  0  0  0  0  0
    8.6575  -13.3475   19.3855 C   0  0  0  0  0  0  0  0  0  0  0  0
    7.8169  -14.1795   20.2859 C   0  0  0  0  0  0  0  0  0  0  0  0
    6.6925  -14.5408   19.9109 O   0  0  0  0  0  0  0  0  0  0  0  0
    8.2834  -14.5740   21.5853 N   0  0  0  0  0  0  0  0  0  0  0  0
    7.7860  -15.7606   22.2470 C   0  0  1  0  0  0  0  0  0  0  0  0
    8.2451  -16.9840   21.4419 C   0  0  0  0  0  0  0  0  0  0  0  0
    7.7973  -18.5236   22.2281 S   0  0  0  0  0  0  0  0  0  0  0  0
    8.4567  -15.8719   23.5652 C   0  0  0  0  0  0  0  0  0  0  0  0
    9.6942  -15.6853   23.6169 O   0  0  0  0  0  0  0  0  0  0  0  0
    7.7700  -16.1769   24.7593 N   0  0  0  0  0  0  0  0  0  0  0  0
    8.4657  -16.0705   26.0202 C   0  0  1  0  0  0  0  0  0  0  0  0
    7.5845  -15.4506   27.0806 C   0  0  0  0  0  0  0  0  0  0  0  0
    7.2502  -14.0584   26.7352 C   0  0  0  0  0  0  0  0  0  0  0  0
    5.9915  -13.7368   26.2765 C   0  0  0  0  0  0  0  0  0  0  0  0
    5.6988  -12.4340   25.9663 C   0  0  0  0  0  0  0  0  0  0  0  0
    6.6083  -11.4097   26.0892 C   0  0  0  0  0  0  0  0  0  0  0  0
    7.8734  -11.7178   26.5475 C   0  0  0  0  0  0  0  0  0  0  0  0
    8.1777  -13.0225   26.8618 C   0  0  0  0  0  0  0  0  0  0  0  0
    8.9465  -17.4276   26.3559 C   0  0  0  0  0  0  0  0  0  0  0  0
    9.6541  -17.6255   27.3697 O   0  0  0  0  0  0  0  0  0  0  0  0
    8.6383  -18.5268   25.5718 O   0  0  0  0  0  0  0  0  0  0  0  0
  2  1  1  0
  3  2  1  0
  4  3  2  0
  5  3  1  0
  6  5  1  0
  6  9  1  0
  6  7  1  6
  8  7  1  0
  9 10  2  0
 11  9  1  0
 11 12  1  0
 12 13  1  1
 13 14  1  0
 14 19  2  0
 15 16  2  0
 15 14  1  0
 16 17  1  0
 17 18  2  0
 19 18  1  0
 20 12  1  0
 20 22  1  0
 21 20  2  0
M  END
$$$$
