GCF.pdb
     RDKit          3D

 22 22  0  0  1  0  0  0  0  0999 V2000
    7.7434  -12.6561   18.3241 N   0  0  0  0  0  0  0  0  0  0  0  0
    8.6858  -13.1546   19.3086 C   0  0  0  0  0  0  0  0  0  0  0  0
    8.0550  -14.1716   20.1904 C   0  0  0  0  0  0  0  0  0  0  0  0
    6.8637  -14.4698   20.0242 O   0  0  0  0  0  0  0  0  0  0  0  0
    8.8008  -14.8170   21.2339 N   0  0  0  0  0  0  0  0  0  0  0  0
    8.2015  -15.8113   22.0973 C   0  0  1  0  0  0  0  0  0  0  0  0
    8.6356  -17.1976   21.6019 C   0  0  0  0  0  0  0  0  0  0  0  0
   10.3861  -17.2807   21.2588 S   0  0  0  0  0  0  0  0  0  0  0  0
    8.7904  -15.6654   23.4507 C   0  0  0  0  0  0  0  0  0  0  0  0
    9.9543  -15.2117   23.5438 O   0  0  0  0  0  0  0  0  0  0  0  0
    8.1049  -16.0119   24.6342 N   0  0  0  0  0  0  0  0  0  0  0  0
    8.7661  -15.8457   25.9071 C   0  0  1  0  0  0  0  0  0  0  0  0
    7.7971  -15.3819   26.9705 C   0  0  0  0  0  0  0  0  0  0  0  0
    7.3471  -14.0050   26.7042 C   0  0  0  0  0  0  0  0  0  0  0  0
    6.1174  -13.7725   26.1279 C   0  0  0  0  0  0  0  0  0  0  0  0
    5.7149  -12.4832   25.8939 C   0  0  0  0  0  0  0  0  0  0  0  0
    6.4839  -11.3871   26.2077 C   0  0  0  0  0  0  0  0  0  0  0  0
    7.7184  -11.6056   26.7854 C   0  0  0  0  0  0  0  0  0  0  0  0
    8.1323  -12.8960   27.0248 C   0  0  0  0  0  0  0  0  0  0  0  0
    9.4256  -17.1326   26.2144 C   0  0  0  0  0  0  0  0  0  0  0  0
    9.0994  -18.1810   25.6126 O   0  0  0  0  0  0  0  0  0  0  0  0
   10.4220  -17.2331   27.1711 O   0  0  0  0  0  0  0  0  0  0  0  0
  2  1  1  0
  3  2  1  0
  4  3  2  0
  5  3  1  0
  6  5  1  0
  6  9  1  0
  6  7  1  6
  8  7  1  0
  9 10  2  0
 11  9  1  0
 11 12  1  0
 12 13  1  1
 13 14  1  0
 14 19  2  0
 15 16  2  0
 15 14  1  0
 16 17  1  0
 17 18  2  0
 19 18  1  0
 20 12  1  0
 20 22  1  0
 21 20  2  0
M  END
$$$$
