GCF.pdb
     RDKit          3D

 22 22  0  0  1  0  0  0  0  0999 V2000
    5.3622  -18.7172   19.5997 N   0  0  0  0  0  0  0  0  0  0  0  0
    5.2708  -17.4444   20.2907 C   0  0  0  0  0  0  0  0  0  0  0  0
    6.5663  -17.0815   20.9230 C   0  0  0  0  0  0  0  0  0  0  0  0
    7.3149  -17.9769   21.3394 O   0  0  0  0  0  0  0  0  0  0  0  0
    6.9685  -15.7100   21.0611 N   0  0  0  0  0  0  0  0  0  0  0  0
    8.1956  -15.3384   21.7313 C   0  0  1  0  0  0  0  0  0  0  0  0
    8.4618  -13.8531   21.4507 C   0  0  0  0  0  0  0  0  0  0  0  0
    7.0328  -12.8323   21.7746 S   0  0  0  0  0  0  0  0  0  0  0  0
    7.9731  -15.4376   23.1944 C   0  0  0  0  0  0  0  0  0  0  0  0
    7.0062  -14.8140   23.6893 O   0  0  0  0  0  0  0  0  0  0  0  0
    8.7957  -16.1980   24.0522 N   0  0  0  0  0  0  0  0  0  0  0  0
    9.3583  -15.5738   25.2265 C   0  0  1  0  0  0  0  0  0  0  0  0
    8.3684  -15.5650   26.3689 C   0  0  0  0  0  0  0  0  0  0  0  0
    7.7278  -14.2449   26.4964 C   0  0  0  0  0  0  0  0  0  0  0  0
    8.4847  -13.1258   26.7669 C   0  0  0  0  0  0  0  0  0  0  0  0
    7.8698  -11.9055   26.8757 C   0  0  0  0  0  0  0  0  0  0  0  0
    6.5137  -11.7315   26.7273 C   0  0  0  0  0  0  0  0  0  0  0  0
    5.7433  -12.8444   26.4562 C   0  0  0  0  0  0  0  0  0  0  0  0
    6.3505  -14.0742   26.3449 C   0  0  0  0  0  0  0  0  0  0  0  0
   10.6165  -16.2898   25.5264 C   0  0  0  0  0  0  0  0  0  0  0  0
   11.2600  -16.0463   26.5725 O   0  0  0  0  0  0  0  0  0  0  0  0
   11.1321  -17.2505   24.6726 O   0  0  0  0  0  0  0  0  0  0  0  0
  2  1  1  0
  3  2  1  0
  4  3  2  0
  5  3  1  0
  6  5  1  0
  6  9  1  0
  6  7  1  1
  8  7  1  0
  9 10  2  0
 11  9  1  0
 11 12  1  0
 12 13  1  1
 13 14  1  0
 14 19  2  0
 15 16  2  0
 15 14  1  0
 16 17  1  0
 17 18  2  0
 19 18  1  0
 20 12  1  0
 20 22  1  0
 21 20  2  0
M  END
$$$$
