GCF.pdb
     RDKit          3D

 22 22  0  0  1  0  0  0  0  0999 V2000
    8.5097  -18.8723   18.2275 N   0  0  0  0  0  0  0  0  0  0  0  0
    8.5742  -19.2148   19.6362 C   0  0  0  0  0  0  0  0  0  0  0  0
    7.9679  -18.1494   20.4770 C   0  0  0  0  0  0  0  0  0  0  0  0
    7.7839  -17.0222   19.9961 O   0  0  0  0  0  0  0  0  0  0  0  0
    7.5900  -18.4012   21.8392 N   0  0  0  0  0  0  0  0  0  0  0  0
    7.0850  -17.3518   22.6975 C   0  0  1  0  0  0  0  0  0  0  0  0
    5.8672  -17.8989   23.4546 C   0  0  0  0  0  0  0  0  0  0  0  0
    6.2127  -19.4497   24.2700 S   0  0  0  0  0  0  0  0  0  0  0  0
    8.1079  -17.0678   23.7333 C   0  0  0  0  0  0  0  0  0  0  0  0
    9.0247  -17.9040   23.9044 O   0  0  0  0  0  0  0  0  0  0  0  0
    8.0978  -15.9051   24.5324 N   0  0  0  0  0  0  0  0  0  0  0  0
    9.2297  -15.6241   25.3839 C   0  0  1  0  0  0  0  0  0  0  0  0
    9.4832  -14.1372   25.4841 C   0  0  0  0  0  0  0  0  0  0  0  0
    8.2648  -13.4258   25.9066 C   0  0  0  0  0  0  0  0  0  0  0  0
    8.1409  -12.9613   27.1979 C   0  0  0  0  0  0  0  0  0  0  0  0
    7.0013  -12.2962   27.5693 C   0  0  0  0  0  0  0  0  0  0  0  0
    5.9539  -12.0619   26.7094 C   0  0  0  0  0  0  0  0  0  0  0  0
    6.0646  -12.5219   25.4126 C   0  0  0  0  0  0  0  0  0  0  0  0
    7.2045  -13.1908   25.0293 C   0  0  0  0  0  0  0  0  0  0  0  0
    8.9569  -16.2765   26.6821 C   0  0  0  0  0  0  0  0  0  0  0  0
    7.8250  -16.7461   26.9393 O   0  0  0  0  0  0  0  0  0  0  0  0
    9.9309  -16.3952   27.6594 O   0  0  0  0  0  0  0  0  0  0  0  0
  2  1  1  0
  3  2  1  0
  4  3  2  0
  5  3  1  0
  6  5  1  0
  6  9  1  0
  6  7  1  1
  8  7  1  0
  9 10  2  0
 11  9  1  0
 11 12  1  0
 12 13  1  1
 13 14  1  0
 14 19  2  0
 15 16  2  0
 15 14  1  0
 16 17  1  0
 17 18  2  0
 19 18  1  0
 20 12  1  0
 20 22  1  0
 21 20  2  0
M  END
$$$$
