GCF.pdb
     RDKit          3D

 22 22  0  0  1  0  0  0  0  0999 V2000
    2.6702  -19.0174   22.0259 N   0  0  0  0  0  0  0  0  0  0  0  0
    3.2396  -17.6829   22.0531 C   0  0  0  0  0  0  0  0  0  0  0  0
    4.7247  -17.7308   22.0128 C   0  0  0  0  0  0  0  0  0  0  0  0
    5.3015  -18.8274   22.0358 O   0  0  0  0  0  0  0  0  0  0  0  0
    5.5066  -16.5283   21.9474 N   0  0  0  0  0  0  0  0  0  0  0  0
    6.9475  -16.5607   21.8224 C   0  0  1  0  0  0  0  0  0  0  0  0
    7.3451  -15.6579   20.6466 C   0  0  0  0  0  0  0  0  0  0  0  0
    6.3952  -14.1464   20.5972 S   0  0  0  0  0  0  0  0  0  0  0  0
    7.5319  -15.9284   23.0302 C   0  0  0  0  0  0  0  0  0  0  0  0
    7.0125  -14.8704   23.4542 O   0  0  0  0  0  0  0  0  0  0  0  0
    8.6409  -16.4597   23.7218 N   0  0  0  0  0  0  0  0  0  0  0  0
    9.2460  -15.6894   24.7827 C   0  0  1  0  0  0  0  0  0  0  0  0
    8.5203  -15.8973   26.0924 C   0  0  0  0  0  0  0  0  0  0  0  0
    9.1654  -15.1353   27.1751 C   0  0  0  0  0  0  0  0  0  0  0  0
    8.9343  -13.7838   27.3101 C   0  0  0  0  0  0  0  0  0  0  0  0
    9.5397  -13.0941   28.3283 C   0  0  0  0  0  0  0  0  0  0  0  0
   10.3814  -13.6863   29.2406 C   0  0  0  0  0  0  0  0  0  0  0  0
   10.6220  -15.0399   29.1170 C   0  0  0  0  0  0  0  0  0  0  0  0
   10.0191  -15.7418   28.0984 C   0  0  0  0  0  0  0  0  0  0  0  0
   10.6748  -16.0674   24.8204 C   0  0  0  0  0  0  0  0  0  0  0  0
   11.5700  -15.2137   24.6268 O   0  0  0  0  0  0  0  0  0  0  0  0
   11.0803  -17.3681   25.0688 O   0  0  0  0  0  0  0  0  0  0  0  0
  2  1  1  0
  3  2  1  0
  4  3  2  0
  5  3  1  0
  6  5  1  0
  6  9  1  0
  6  7  1  6
  8  7  1  0
  9 10  2  0
 11  9  1  0
 11 12  1  0
 12 13  1  1
 13 14  1  0
 14 19  2  0
 15 16  2  0
 15 14  1  0
 16 17  1  0
 17 18  2  0
 19 18  1  0
 20 12  1  0
 20 22  1  0
 21 20  2  0
M  END
$$$$
