GCF.pdb
     RDKit          3D

 22 22  0  0  1  0  0  0  0  0999 V2000
   12.9118  -17.5462   18.0600 N   0  0  0  0  0  0  0  0  0  0  0  0
   12.8373  -17.2983   19.4879 C   0  0  0  0  0  0  0  0  0  0  0  0
   11.4441  -17.4402   19.9865 C   0  0  0  0  0  0  0  0  0  0  0  0
   10.5040  -17.4466   19.1792 O   0  0  0  0  0  0  0  0  0  0  0  0
   11.1653  -17.5703   21.3890 N   0  0  0  0  0  0  0  0  0  0  0  0
    9.8127  -17.6745   21.8918 C   0  0  1  0  0  0  0  0  0  0  0  0
    9.6858  -19.0039   22.6483 C   0  0  0  0  0  0  0  0  0  0  0  0
   11.0023  -19.2425   23.8312 S   0  0  0  0  0  0  0  0  0  0  0  0
    9.6129  -16.6129   22.9081 C   0  0  0  0  0  0  0  0  0  0  0  0
   10.6258  -16.1215   23.4574 O   0  0  0  0  0  0  0  0  0  0  0  0
    8.3412  -16.1317   23.2845 N   0  0  0  0  0  0  0  0  0  0  0  0
    8.2481  -15.0747   24.2639 C   0  0  1  0  0  0  0  0  0  0  0  0
    7.0028  -14.2436   24.0553 C   0  0  0  0  0  0  0  0  0  0  0  0
    6.8536  -13.2457   25.1282 C   0  0  0  0  0  0  0  0  0  0  0  0
    7.5855  -12.0787   25.1018 C   0  0  0  0  0  0  0  0  0  0  0  0
    7.4273  -11.1602   26.1070 C   0  0  0  0  0  0  0  0  0  0  0  0
    6.5627  -11.3410   27.1610 C   0  0  0  0  0  0  0  0  0  0  0  0
    5.8232  -12.5059   27.2001 C   0  0  0  0  0  0  0  0  0  0  0  0
    5.9742  -13.4347   26.1960 C   0  0  0  0  0  0  0  0  0  0  0  0
    8.3258  -15.7186   25.5924 C   0  0  0  0  0  0  0  0  0  0  0  0
    7.6796  -16.7625   25.8386 O   0  0  0  0  0  0  0  0  0  0  0  0
    9.1081  -15.2006   26.6110 O   0  0  0  0  0  0  0  0  0  0  0  0
  2  1  1  0
  3  2  1  0
  4  3  2  0
  5  3  1  0
  6  5  1  0
  6  9  1  0
  6  7  1  1
  8  7  1  0
  9 10  2  0
 11  9  1  0
 11 12  1  0
 12 13  1  1
 13 14  1  0
 14 19  2  0
 15 16  2  0
 15 14  1  0
 16 17  1  0
 17 18  2  0
 19 18  1  0
 20 12  1  0
 20 22  1  0
 21 20  2  0
M  END
$$$$
