GCF.pdb
     RDKit          3D

 22 22  0  0  1  0  0  0  0  0999 V2000
    3.6638  -19.0905   22.4085 N   0  0  0  0  0  0  0  0  0  0  0  0
    4.0027  -17.7573   22.8705 C   0  0  0  0  0  0  0  0  0  0  0  0
    5.4179  -17.4242   22.5608 C   0  0  0  0  0  0  0  0  0  0  0  0
    6.3032  -18.2661   22.7686 O   0  0  0  0  0  0  0  0  0  0  0  0
    5.7805  -16.1427   22.0241 N   0  0  0  0  0  0  0  0  0  0  0  0
    7.1571  -15.7918   21.7505 C   0  0  1  0  0  0  0  0  0  0  0  0
    7.1627  -14.5619   20.8323 C   0  0  0  0  0  0  0  0  0  0  0  0
    7.0505  -15.0013   19.1050 S   0  0  0  0  0  0  0  0  0  0  0  0
    7.7836  -15.3487   23.0198 C   0  0  0  0  0  0  0  0  0  0  0  0
    7.1370  -14.5710   23.7588 O   0  0  0  0  0  0  0  0  0  0  0  0
    9.0683  -15.7597   23.4332 N   0  0  0  0  0  0  0  0  0  0  0  0
    9.6000  -15.2648   24.6812 C   0  0  1  0  0  0  0  0  0  0  0  0
    8.7063  -15.6364   25.8424 C   0  0  0  0  0  0  0  0  0  0  0  0
    9.2754  -15.1600   27.1145 C   0  0  0  0  0  0  0  0  0  0  0  0
    9.1331  -13.8426   27.4920 C   0  0  0  0  0  0  0  0  0  0  0  0
    9.6650  -13.4207   28.6829 C   0  0  0  0  0  0  0  0  0  0  0  0
   10.3464  -14.2541   29.5388 C   0  0  0  0  0  0  0  0  0  0  0  0
   10.4967  -15.5765   29.1728 C   0  0  0  0  0  0  0  0  0  0  0  0
    9.9664  -16.0106   27.9795 C   0  0  0  0  0  0  0  0  0  0  0  0
   10.9787  -15.7869   24.7924 C   0  0  0  0  0  0  0  0  0  0  0  0
   11.9540  -15.0080   24.8917 O   0  0  0  0  0  0  0  0  0  0  0  0
   11.2480  -17.1453   24.7915 O   0  0  0  0  0  0  0  0  0  0  0  0
  2  1  1  0
  3  2  1  0
  4  3  2  0
  5  3  1  0
  6  5  1  0
  6  9  1  0
  6  7  1  6
  8  7  1  0
  9 10  2  0
 11  9  1  0
 11 12  1  0
 12 13  1  1
 13 14  1  0
 14 19  2  0
 15 16  2  0
 15 14  1  0
 16 17  1  0
 17 18  2  0
 19 18  1  0
 20 12  1  0
 20 22  1  0
 21 20  2  0
M  END
$$$$
