GCF.pdb
     RDKit          3D

 22 22  0  0  1  0  0  0  0  0999 V2000
    7.9863  -12.6554   17.4813 N   0  0  0  0  0  0  0  0  0  0  0  0
    8.8076  -13.3148   18.4796 C   0  0  0  0  0  0  0  0  0  0  0  0
    7.9708  -13.9337   19.5409 C   0  0  0  0  0  0  0  0  0  0  0  0
    6.7587  -14.0996   19.3442 O   0  0  0  0  0  0  0  0  0  0  0  0
    8.5410  -14.3444   20.7931 N   0  0  0  0  0  0  0  0  0  0  0  0
    7.9470  -15.3917   21.5952 C   0  0  1  0  0  0  0  0  0  0  0  0
    8.1446  -16.7251   20.8613 C   0  0  0  0  0  0  0  0  0  0  0  0
    7.5133  -18.1136   21.7902 S   0  0  0  0  0  0  0  0  0  0  0  0
    8.7221  -15.5072   22.8545 C   0  0  0  0  0  0  0  0  0  0  0  0
    9.9690  -15.4053   22.7932 O   0  0  0  0  0  0  0  0  0  0  0  0
    8.1242  -15.7255   24.1137 N   0  0  0  0  0  0  0  0  0  0  0  0
    8.9219  -15.5794   25.3084 C   0  0  1  0  0  0  0  0  0  0  0  0
    8.0594  -15.2490   26.5051 C   0  0  0  0  0  0  0  0  0  0  0  0
    7.4723  -13.9048   26.3720 C   0  0  0  0  0  0  0  0  0  0  0  0
    8.2430  -12.7830   26.5862 C   0  0  0  0  0  0  0  0  0  0  0  0
    7.6788  -11.5409   26.4514 C   0  0  0  0  0  0  0  0  0  0  0  0
    6.3613  -11.3473   26.1079 C   0  0  0  0  0  0  0  0  0  0  0  0
    5.5776  -12.4626   25.8906 C   0  0  0  0  0  0  0  0  0  0  0  0
    6.1339  -13.7142   26.0232 C   0  0  0  0  0  0  0  0  0  0  0  0
    9.7004  -16.8277   25.4546 C   0  0  0  0  0  0  0  0  0  0  0  0
    9.3407  -17.8798   24.8789 O   0  0  0  0  0  0  0  0  0  0  0  0
   10.8489  -16.8865   26.2263 O   0  0  0  0  0  0  0  0  0  0  0  0
  2  1  1  0
  3  2  1  0
  4  3  2  0
  5  3  1  0
  6  5  1  0
  6  9  1  0
  6  7  1  6
  8  7  1  0
  9 10  2  0
 11  9  1  0
 11 12  1  0
 12 13  1  1
 13 14  1  0
 14 19  2  0
 15 16  2  0
 15 14  1  0
 16 17  1  0
 17 18  2  0
 19 18  1  0
 20 12  1  0
 20 22  1  0
 21 20  2  0
M  END
$$$$
