GCF.pdb
     RDKit          3D

 22 22  0  0  1  0  0  0  0  0999 V2000
    7.6085  -12.3615   18.7861 N   0  0  0  0  0  0  0  0  0  0  0  0
    8.4959  -13.3005   19.4469 C   0  0  0  0  0  0  0  0  0  0  0  0
    7.7521  -14.1611   20.4039 C   0  0  0  0  0  0  0  0  0  0  0  0
    6.5648  -13.9108   20.6552 O   0  0  0  0  0  0  0  0  0  0  0  0
    8.3841  -15.2800   21.0447 N   0  0  0  0  0  0  0  0  0  0  0  0
    7.6960  -16.0821   22.0327 C   0  0  1  0  0  0  0  0  0  0  0  0
    7.8479  -17.5579   21.6392 C   0  0  0  0  0  0  0  0  0  0  0  0
    7.0575  -18.6577   22.8032 S   0  0  0  0  0  0  0  0  0  0  0  0
    8.4074  -15.9356   23.3259 C   0  0  0  0  0  0  0  0  0  0  0  0
    9.6538  -15.8132   23.3049 O   0  0  0  0  0  0  0  0  0  0  0  0
    7.7497  -15.9276   24.5740 N   0  0  0  0  0  0  0  0  0  0  0  0
    8.5204  -15.7140   25.7764 C   0  0  1  0  0  0  0  0  0  0  0  0
    7.6702  -15.1112   26.8713 C   0  0  0  0  0  0  0  0  0  0  0  0
    7.3031  -13.7228   26.5446 C   0  0  0  0  0  0  0  0  0  0  0  0
    5.9873  -13.3853   26.3142 C   0  0  0  0  0  0  0  0  0  0  0  0
    5.6660  -12.0861   26.0175 C   0  0  0  0  0  0  0  0  0  0  0  0
    6.6008  -11.0808   25.9350 C   0  0  0  0  0  0  0  0  0  0  0  0
    7.9230  -11.4050   26.1634 C   0  0  0  0  0  0  0  0  0  0  0  0
    8.2565  -12.7062   26.4621 C   0  0  0  0  0  0  0  0  0  0  0  0
    9.1235  -17.0163   26.1313 C   0  0  0  0  0  0  0  0  0  0  0  0
    8.7211  -18.0762   25.6000 O   0  0  0  0  0  0  0  0  0  0  0  0
   10.1485  -17.1189   27.0569 O   0  0  0  0  0  0  0  0  0  0  0  0
  2  1  1  0
  3  2  1  0
  4  3  2  0
  5  3  1  0
  6  5  1  0
  6  9  1  0
  6  7  1  6
  8  7  1  0
  9 10  2  0
 11  9  1  0
 11 12  1  0
 12 13  1  1
 13 14  1  0
 14 19  2  0
 15 16  2  0
 15 14  1  0
 16 17  1  0
 17 18  2  0
 19 18  1  0
 20 12  1  0
 20 22  1  0
 21 20  2  0
M  END
$$$$
