GFQ.pdb
     RDKit          3D

 25 25  0  0  1  0  0  0  0  0999 V2000
    6.0679  -19.6903   21.4877 N   0  0  0  0  0  0  0  0  0  0  0  0
    5.5289  -19.2197   22.7350 C   0  0  0  0  0  0  0  0  0  0  0  0
    6.2857  -18.0443   23.2189 C   0  0  0  0  0  0  0  0  0  0  0  0
    7.3980  -17.7581   22.7079 O   0  0  0  0  0  0  0  0  0  0  0  0
    5.8114  -17.1959   24.2596 N   0  0  0  0  0  0  0  0  0  0  0  0
    6.5796  -16.0425   24.7317 C   0  0  1  0  0  0  0  0  0  0  0  0
    5.6563  -14.9147   25.1537 C   0  0  0  0  0  0  0  0  0  0  0  0
    6.3399  -13.6774   25.5235 C   0  0  0  0  0  0  0  0  0  0  0  0
    6.9520  -12.9058   24.5435 C   0  0  0  0  0  0  0  0  0  0  0  0
    7.6129  -11.7364   24.8385 C   0  0  0  0  0  0  0  0  0  0  0  0
    7.7052  -11.2599   26.1389 C   0  0  0  0  0  0  0  0  0  0  0  0
    7.0955  -12.0268   27.1208 C   0  0  0  0  0  0  0  0  0  0  0  0
    6.4375  -13.1953   26.8105 C   0  0  0  0  0  0  0  0  0  0  0  0
    7.4812  -16.4446   25.8506 C   0  0  0  0  0  0  0  0  0  0  0  0
    7.0043  -17.0554   26.8427 O   0  0  0  0  0  0  0  0  0  0  0  0
    8.3592  -20.0268   28.2408 N   0  0  0  0  0  0  0  0  0  0  0  0
    9.6923  -20.2130   27.7992 C   0  0  0  0  0  0  0  0  0  0  0  0
   10.4763  -20.9203   28.5194 O   0  0  0  0  0  0  0  0  0  0  0  0
   10.2069  -19.6366   26.5530 C   0  0  0  0  0  0  0  0  0  0  0  0
    9.4697  -18.4721   26.0045 C   0  0  0  0  0  0  0  0  0  0  0  0
    9.8615  -17.1087   26.4445 C   0  0  2  0  0  0  0  0  0  0  0  0
    8.8634  -16.1716   25.8556 N   0  0  0  0  0  0  0  0  0  0  0  0
   11.1726  -16.6808   25.9950 C   0  0  0  0  0  0  0  0  0  0  0  0
   12.1471  -16.6568   26.7896 O   0  0  0  0  0  0  0  0  0  0  0  0
   11.4087  -16.2845   24.6860 O   0  0  0  0  0  0  0  0  0  0  0  0
  2  1  1  0
  3  2  1  0
  3  4  2  0
  5  3  1  0
  6  5  1  0
  6  7  1  1
  8  7  1  0
  8  9  2  0
 10  9  1  0
 11 10  2  0
 12 13  2  0
 12 11  1  0
 13  8  1  0
 14 22  1  0
 14  6  1  0
 15 14  2  0
 16 17  1  0
 17 19  1  0
 18 17  2  0
 20 19  1  0
 21 20  1  6
 21 22  1  0
 21 23  1  0
 23 25  1  0
 24 23  2  0
M  END
$$$$
