GFQ.pdb
     RDKit          3D

 25 25  0  0  1  0  0  0  0  0999 V2000
    9.6612  -17.0047   19.1585 N   0  0  0  0  0  0  0  0  0  0  0  0
    8.5681  -17.0910   20.0888 C   0  0  0  0  0  0  0  0  0  0  0  0
    8.8370  -16.2652   21.2863 C   0  0  0  0  0  0  0  0  0  0  0  0
   10.0000  -15.8453   21.5129 O   0  0  0  0  0  0  0  0  0  0  0  0
    7.8242  -15.9097   22.2221 N   0  0  0  0  0  0  0  0  0  0  0  0
    8.1100  -15.0911   23.4018 C   0  0  1  0  0  0  0  0  0  0  0  0
    6.8687  -14.3453   23.8552 C   0  0  0  0  0  0  0  0  0  0  0  0
    7.0734  -13.4719   25.0085 C   0  0  0  0  0  0  0  0  0  0  0  0
    6.3572  -13.6918   26.1786 C   0  0  0  0  0  0  0  0  0  0  0  0
    6.5082  -12.8964   27.2903 C   0  0  0  0  0  0  0  0  0  0  0  0
    7.3895  -11.8242   27.3046 C   0  0  0  0  0  0  0  0  0  0  0  0
    8.1069  -11.6007   26.1387 C   0  0  0  0  0  0  0  0  0  0  0  0
    7.9452  -12.4054   25.0337 C   0  0  0  0  0  0  0  0  0  0  0  0
    8.6568  -15.9401   24.5002 C   0  0  0  0  0  0  0  0  0  0  0  0
    8.0655  -17.0068   24.8128 O   0  0  0  0  0  0  0  0  0  0  0  0
   13.7247  -15.1649   23.9122 N   0  0  0  0  0  0  0  0  0  0  0  0
   13.5084  -16.5649   23.9072 C   0  0  0  0  0  0  0  0  0  0  0  0
   14.0829  -17.2639   23.0046 O   0  0  0  0  0  0  0  0  0  0  0  0
   12.6619  -17.2440   24.8934 C   0  0  0  0  0  0  0  0  0  0  0  0
   11.9737  -16.3822   25.8853 C   0  0  0  0  0  0  0  0  0  0  0  0
   10.5182  -16.5756   26.1097 C   0  0  2  0  0  0  0  0  0  0  0  0
    9.8209  -15.6049   25.2194 N   0  0  0  0  0  0  0  0  0  0  0  0
   10.0745  -16.3133   27.4655 C   0  0  0  0  0  0  0  0  0  0  0  0
    9.3750  -15.3015   27.7274 O   0  0  0  0  0  0  0  0  0  0  0  0
   10.3963  -17.1551   28.5210 O   0  0  0  0  0  0  0  0  0  0  0  0
  2  1  1  0
  3  2  1  0
  3  4  2  0
  5  3  1  0
  6  5  1  0
  6  7  1  1
  8  7  1  0
  8  9  2  0
 10  9  1  0
 11 10  2  0
 12 13  2  0
 12 11  1  0
 13  8  1  0
 14 22  1  0
 14  6  1  0
 15 14  2  0
 16 17  1  0
 17 19  1  0
 18 17  2  0
 20 19  1  0
 21 20  1  1
 21 22  1  0
 21 23  1  0
 23 25  1  0
 24 23  2  0
M  END
$$$$
