GFQ.pdb
     RDKit          3D

 25 25  0  0  1  0  0  0  0  0999 V2000
    8.1484  -16.2288   19.6449 N   0  0  0  0  0  0  0  0  0  0  0  0
    7.5980  -16.8942   20.7947 C   0  0  0  0  0  0  0  0  0  0  0  0
    8.1419  -16.3140   22.0421 C   0  0  0  0  0  0  0  0  0  0  0  0
    9.2450  -15.7114   22.0271 O   0  0  0  0  0  0  0  0  0  0  0  0
    7.4669  -16.4023   23.2929 N   0  0  0  0  0  0  0  0  0  0  0  0
    8.0341  -15.8449   24.5221 C   0  0  1  0  0  0  0  0  0  0  0  0
    6.9359  -15.4239   25.4810 C   0  0  0  0  0  0  0  0  0  0  0  0
    7.0399  -14.0455   25.9544 C   0  0  0  0  0  0  0  0  0  0  0  0
    6.2069  -13.0675   25.4250 C   0  0  0  0  0  0  0  0  0  0  0  0
    6.2675  -11.7552   25.8315 C   0  0  0  0  0  0  0  0  0  0  0  0
    7.1691  -11.3329   26.7987 C   0  0  0  0  0  0  0  0  0  0  0  0
    8.0028  -12.3058   27.3303 C   0  0  0  0  0  0  0  0  0  0  0  0
    7.9307  -13.6156   26.9135 C   0  0  0  0  0  0  0  0  0  0  0  0
    8.9545  -16.8307   25.1603 C   0  0  0  0  0  0  0  0  0  0  0  0
    8.5355  -17.9870   25.4290 O   0  0  0  0  0  0  0  0  0  0  0  0
   13.6495  -15.0288   22.6427 N   0  0  0  0  0  0  0  0  0  0  0  0
   13.7522  -15.6535   23.9100 C   0  0  0  0  0  0  0  0  0  0  0  0
   14.4998  -15.1120   24.7940 O   0  0  0  0  0  0  0  0  0  0  0  0
   13.0351  -16.8861   24.2514 C   0  0  0  0  0  0  0  0  0  0  0  0
   12.6137  -17.0407   25.6652 C   0  0  0  0  0  0  0  0  0  0  0  0
   11.2548  -17.5681   25.9506 C   0  0  2  0  0  0  0  0  0  0  0  0
   10.2923  -16.5301   25.4844 N   0  0  0  0  0  0  0  0  0  0  0  0
   10.9817  -17.8103   27.3544 C   0  0  0  0  0  0  0  0  0  0  0  0
   11.2651  -18.9164   27.8817 O   0  0  0  0  0  0  0  0  0  0  0  0
   10.4042  -16.8463   28.1689 O   0  0  0  0  0  0  0  0  0  0  0  0
  2  1  1  0
  3  2  1  0
  3  4  2  0
  5  3  1  0
  6  5  1  0
  6  7  1  1
  8  7  1  0
  8  9  2  0
 10  9  1  0
 11 10  2  0
 12 13  2  0
 12 11  1  0
 13  8  1  0
 14 22  1  0
 14  6  1  0
 15 14  2  0
 16 17  1  0
 17 19  1  0
 18 17  2  0
 20 19  1  0
 21 20  1  1
 21 22  1  0
 21 23  1  0
 23 25  1  0
 24 23  2  0
M  END
$$$$
