GFQ.pdb
     RDKit          3D

 25 25  0  0  1  0  0  0  0  0999 V2000
    8.6775  -12.9263   18.1710 N   0  0  0  0  0  0  0  0  0  0  0  0
    8.1607  -14.0235   18.9434 C   0  0  0  0  0  0  0  0  0  0  0  0
    8.3640  -13.7841   20.3890 C   0  0  0  0  0  0  0  0  0  0  0  0
    9.4731  -13.3663   20.8077 O   0  0  0  0  0  0  0  0  0  0  0  0
    7.3453  -14.0065   21.3589 N   0  0  0  0  0  0  0  0  0  0  0  0
    7.6074  -13.9097   22.7960 C   0  0  1  0  0  0  0  0  0  0  0  0
    6.3642  -13.4630   23.5428 C   0  0  0  0  0  0  0  0  0  0  0  0
    6.5575  -13.2629   24.9772 C   0  0  0  0  0  0  0  0  0  0  0  0
    7.1250  -12.0825   25.4408 C   0  0  0  0  0  0  0  0  0  0  0  0
    7.3337  -11.8463   26.7794 C   0  0  0  0  0  0  0  0  0  0  0  0
    6.9868  -12.7796   27.7465 C   0  0  0  0  0  0  0  0  0  0  0  0
    6.4197  -13.9597   27.2886 C   0  0  0  0  0  0  0  0  0  0  0  0
    6.2169  -14.1821   25.9454 C   0  0  0  0  0  0  0  0  0  0  0  0
    8.1077  -15.2143   23.3195 C   0  0  0  0  0  0  0  0  0  0  0  0
    7.5456  -16.2827   22.9623 O   0  0  0  0  0  0  0  0  0  0  0  0
   13.0216  -17.8584   22.0495 N   0  0  0  0  0  0  0  0  0  0  0  0
   13.1441  -16.7018   22.8583 C   0  0  0  0  0  0  0  0  0  0  0  0
   14.2343  -16.0370   22.8044 O   0  0  0  0  0  0  0  0  0  0  0  0
   12.0752  -16.2334   23.7462 C   0  0  0  0  0  0  0  0  0  0  0  0
   10.8077  -17.0035   23.7251 C   0  0  0  0  0  0  0  0  0  0  0  0
    9.7289  -16.6271   24.6742 C   0  0  2  0  0  0  0  0  0  0  0  0
    9.1956  -15.3155   24.2089 N   0  0  0  0  0  0  0  0  0  0  0  0
   10.1635  -16.4537   26.0471 C   0  0  0  0  0  0  0  0  0  0  0  0
   10.1406  -15.3190   26.5890 O   0  0  0  0  0  0  0  0  0  0  0  0
   10.6176  -17.5168   26.8152 O   0  0  0  0  0  0  0  0  0  0  0  0
  2  1  1  0
  3  2  1  0
  3  4  2  0
  5  3  1  0
  6  5  1  0
  6  7  1  1
  8  7  1  0
  8  9  2  0
 10  9  1  0
 11 10  2  0
 12 13  2  0
 12 11  1  0
 13  8  1  0
 14 22  1  0
 14  6  1  0
 15 14  2  0
 16 17  1  0
 17 19  1  0
 18 17  2  0
 20 19  1  0
 21 20  1  6
 21 22  1  0
 21 23  1  0
 23 25  1  0
 24 23  2  0
M  END
$$$$
