GFQ.pdb
     RDKit          3D

 25 25  0  0  1  0  0  0  0  0999 V2000
    8.9294  -16.6828   18.5136 N   0  0  0  0  0  0  0  0  0  0  0  0
    7.8303  -16.5840   19.4356 C   0  0  0  0  0  0  0  0  0  0  0  0
    8.2384  -15.8546   20.6561 C   0  0  0  0  0  0  0  0  0  0  0  0
    9.4445  -15.8459   21.0103 O   0  0  0  0  0  0  0  0  0  0  0  0
    7.3160  -15.1422   21.4743 N   0  0  0  0  0  0  0  0  0  0  0  0
    7.6907  -14.6124   22.7866 C   0  0  1  0  0  0  0  0  0  0  0  0
    6.6023  -13.7084   23.3349 C   0  0  0  0  0  0  0  0  0  0  0  0
    6.8841  -13.1527   24.6565 C   0  0  0  0  0  0  0  0  0  0  0  0
    6.2369  -13.6642   25.7745 C   0  0  0  0  0  0  0  0  0  0  0  0
    6.4618  -13.1739   27.0394 C   0  0  0  0  0  0  0  0  0  0  0  0
    7.3530  -12.1351   27.2703 C   0  0  0  0  0  0  0  0  0  0  0  0
    8.0018  -11.6211   26.1572 C   0  0  0  0  0  0  0  0  0  0  0  0
    7.7664  -12.1222   24.8970 C   0  0  0  0  0  0  0  0  0  0  0  0
    7.9857  -15.7298   23.7304 C   0  0  0  0  0  0  0  0  0  0  0  0
    7.1699  -16.6826   23.8382 O   0  0  0  0  0  0  0  0  0  0  0  0
   12.7565  -19.2146   23.4531 N   0  0  0  0  0  0  0  0  0  0  0  0
   12.8376  -17.8065   23.5859 C   0  0  0  0  0  0  0  0  0  0  0  0
   13.8469  -17.2070   23.0805 O   0  0  0  0  0  0  0  0  0  0  0  0
   11.8138  -17.0103   24.2702 C   0  0  0  0  0  0  0  0  0  0  0  0
   10.5478  -17.7047   24.6096 C   0  0  0  0  0  0  0  0  0  0  0  0
    9.5035  -16.9585   25.3571 C   0  0  2  0  0  0  0  0  0  0  0  0
    9.1502  -15.7757   24.5220 N   0  0  0  0  0  0  0  0  0  0  0  0
    9.9251  -16.4614   26.6529 C   0  0  0  0  0  0  0  0  0  0  0  0
   10.0228  -15.2257   26.8654 O   0  0  0  0  0  0  0  0  0  0  0  0
   10.2349  -17.3142   27.7031 O   0  0  0  0  0  0  0  0  0  0  0  0
  2  1  1  0
  3  2  1  0
  3  4  2  0
  5  3  1  0
  6  5  1  0
  6  7  1  1
  8  7  1  0
  8  9  2  0
 10  9  1  0
 11 10  2  0
 12 13  2  0
 12 11  1  0
 13  8  1  0
 14 22  1  0
 14  6  1  0
 15 14  2  0
 16 17  1  0
 17 19  1  0
 18 17  2  0
 20 19  1  0
 21 20  1  6
 21 22  1  0
 21 23  1  0
 23 25  1  0
 24 23  2  0
M  END
$$$$
