GFQ.pdb
     RDKit          3D

 25 25  0  0  1  0  0  0  0  0999 V2000
   10.6354  -16.5104   19.4450 N   0  0  0  0  0  0  0  0  0  0  0  0
    9.3622  -16.6194   20.1045 C   0  0  0  0  0  0  0  0  0  0  0  0
    9.3883  -15.9171   21.4062 C   0  0  0  0  0  0  0  0  0  0  0  0
   10.4054  -15.9915   22.1411 O   0  0  0  0  0  0  0  0  0  0  0  0
    8.2956  -15.1402   21.8861 N   0  0  0  0  0  0  0  0  0  0  0  0
    8.2582  -14.6132   23.2514 C   0  0  1  0  0  0  0  0  0  0  0  0
    7.1268  -13.6152   23.4144 C   0  0  0  0  0  0  0  0  0  0  0  0
    6.9976  -13.0591   24.7593 C   0  0  0  0  0  0  0  0  0  0  0  0
    7.8824  -12.0783   25.1903 C   0  0  0  0  0  0  0  0  0  0  0  0
    7.8081  -11.5259   26.4475 C   0  0  0  0  0  0  0  0  0  0  0  0
    6.8394  -11.9200   27.3602 C   0  0  0  0  0  0  0  0  0  0  0  0
    5.9536  -12.8988   26.9345 C   0  0  0  0  0  0  0  0  0  0  0  0
    6.0403  -13.4426   25.6729 C   0  0  0  0  0  0  0  0  0  0  0  0
    8.1342  -15.7296   24.2335 C   0  0  0  0  0  0  0  0  0  0  0  0
    7.1731  -16.5371   24.1367 O   0  0  0  0  0  0  0  0  0  0  0  0
   11.9368  -19.2591   22.8577 N   0  0  0  0  0  0  0  0  0  0  0  0
   11.4161  -19.4277   24.1643 C   0  0  0  0  0  0  0  0  0  0  0  0
   11.3417  -20.6120   24.6392 O   0  0  0  0  0  0  0  0  0  0  0  0
   10.9666  -18.3053   24.9941 C   0  0  0  0  0  0  0  0  0  0  0  0
    9.5240  -18.2675   25.3370 C   0  0  0  0  0  0  0  0  0  0  0  0
    9.0154  -17.1381   26.1568 C   0  0  2  0  0  0  0  0  0  0  0  0
    9.0524  -15.9315   25.2828 N   0  0  0  0  0  0  0  0  0  0  0  0
    9.8065  -16.8413   27.3358 C   0  0  0  0  0  0  0  0  0  0  0  0
    9.9337  -17.6914   28.2539 O   0  0  0  0  0  0  0  0  0  0  0  0
   10.4507  -15.6233   27.5024 O   0  0  0  0  0  0  0  0  0  0  0  0
  2  1  1  0
  3  2  1  0
  3  4  2  0
  5  3  1  0
  6  5  1  0
  6  7  1  6
  8  7  1  0
  8  9  2  0
 10  9  1  0
 11 10  2  0
 12 13  2  0
 12 11  1  0
 13  8  1  0
 14 22  1  0
 14  6  1  0
 15 14  2  0
 16 17  1  0
 17 19  1  0
 18 17  2  0
 20 19  1  0
 21 20  1  6
 21 22  1  0
 21 23  1  0
 23 25  1  0
 24 23  2  0
M  END
$$$$
