GFQ.pdb
     RDKit          3D

 25 25  0  0  1  0  0  0  0  0999 V2000
    6.4971  -18.0531   19.6606 N   0  0  0  0  0  0  0  0  0  0  0  0
    6.3692  -18.3925   21.0521 C   0  0  0  0  0  0  0  0  0  0  0  0
    7.0299  -17.3753   21.8991 C   0  0  0  0  0  0  0  0  0  0  0  0
    7.9917  -16.7061   21.4441 O   0  0  0  0  0  0  0  0  0  0  0  0
    6.6257  -17.1047   23.2374 N   0  0  0  0  0  0  0  0  0  0  0  0
    7.3030  -16.1056   24.0659 C   0  0  1  0  0  0  0  0  0  0  0  0
    6.3339  -15.4690   25.0448 C   0  0  0  0  0  0  0  0  0  0  0  0
    6.8592  -14.2984   25.7437 C   0  0  0  0  0  0  0  0  0  0  0  0
    7.1816  -14.3847   27.0924 C   0  0  0  0  0  0  0  0  0  0  0  0
    7.6740  -13.3120   27.7981 C   0  0  0  0  0  0  0  0  0  0  0  0
    7.8773  -12.0768   27.1982 C   0  0  0  0  0  0  0  0  0  0  0  0
    7.5571  -11.9857   25.8517 C   0  0  0  0  0  0  0  0  0  0  0  0
    7.0650  -13.0682   25.1583 C   0  0  0  0  0  0  0  0  0  0  0  0
    8.4585  -16.7231   24.7799 C   0  0  0  0  0  0  0  0  0  0  0  0
    8.2797  -17.7635   25.4658 O   0  0  0  0  0  0  0  0  0  0  0  0
   14.4377  -15.2610   23.1908 N   0  0  0  0  0  0  0  0  0  0  0  0
   13.3867  -15.8645   22.4574 C   0  0  0  0  0  0  0  0  0  0  0  0
   13.4822  -15.9060   21.1835 O   0  0  0  0  0  0  0  0  0  0  0  0
   12.2019  -16.4471   23.0954 C   0  0  0  0  0  0  0  0  0  0  0  0
   12.1356  -16.3661   24.5750 C   0  0  0  0  0  0  0  0  0  0  0  0
   10.9449  -16.9227   25.2669 C   0  0  2  0  0  0  0  0  0  0  0  0
    9.7629  -16.1935   24.7263 N   0  0  0  0  0  0  0  0  0  0  0  0
   10.9418  -16.7427   26.7061 C   0  0  0  0  0  0  0  0  0  0  0  0
   11.3091  -17.6719   27.4699 O   0  0  0  0  0  0  0  0  0  0  0  0
   10.5397  -15.5536   27.2983 O   0  0  0  0  0  0  0  0  0  0  0  0
  2  1  1  0
  3  2  1  0
  3  4  2  0
  5  3  1  0
  6  5  1  0
  6  7  1  1
  8  7  1  0
  8  9  2  0
 10  9  1  0
 11 10  2  0
 12 13  2  0
 12 11  1  0
 13  8  1  0
 14 22  1  0
 14  6  1  0
 15 14  2  0
 16 17  1  0
 17 19  1  0
 18 17  2  0
 20 19  1  0
 21 20  1  6
 21 22  1  0
 21 23  1  0
 23 25  1  0
 24 23  2  0
M  END
$$$$
