GFQ.pdb
     RDKit          3D

 25 25  0  0  1  0  0  0  0  0999 V2000
    5.5900  -19.3165   23.0265 N   0  0  0  0  0  0  0  0  0  0  0  0
    6.0228  -19.0505   24.3717 C   0  0  0  0  0  0  0  0  0  0  0  0
    7.0234  -17.9611   24.3909 C   0  0  0  0  0  0  0  0  0  0  0  0
    7.8673  -17.8654   23.4641 O   0  0  0  0  0  0  0  0  0  0  0  0
    7.0855  -16.9883   25.4289 N   0  0  0  0  0  0  0  0  0  0  0  0
    8.1477  -15.9825   25.4878 C   0  0  1  0  0  0  0  0  0  0  0  0
    7.8508  -14.9453   26.5549 C   0  0  0  0  0  0  0  0  0  0  0  0
    7.2244  -13.7234   26.0554 C   0  0  0  0  0  0  0  0  0  0  0  0
    6.1479  -13.1693   26.7370 C   0  0  0  0  0  0  0  0  0  0  0  0
    5.5194  -12.0243   26.3068 C   0  0  0  0  0  0  0  0  0  0  0  0
    5.9282  -11.3553   25.1614 C   0  0  0  0  0  0  0  0  0  0  0  0
    7.0027  -11.9046   24.4775 C   0  0  0  0  0  0  0  0  0  0  0  0
    7.6220  -13.0514   24.9202 C   0  0  0  0  0  0  0  0  0  0  0  0
    9.4668  -16.6369   25.7282 C   0  0  0  0  0  0  0  0  0  0  0  0
   10.5162  -16.0972   25.2895 O   0  0  0  0  0  0  0  0  0  0  0  0
   10.5484  -22.1575   30.1696 N   0  0  0  0  0  0  0  0  0  0  0  0
   10.7099  -20.7869   29.8500 C   0  0  0  0  0  0  0  0  0  0  0  0
   11.2004  -20.0107   30.7391 O   0  0  0  0  0  0  0  0  0  0  0  0
   10.3459  -20.2244   28.5456 C   0  0  0  0  0  0  0  0  0  0  0  0
   10.7292  -18.8127   28.2996 C   0  0  0  0  0  0  0  0  0  0  0  0
   10.9230  -18.3604   26.8982 C   0  0  2  0  0  0  0  0  0  0  0  0
    9.6026  -17.8493   26.4328 N   0  0  0  0  0  0  0  0  0  0  0  0
   11.3313  -19.4032   25.9763 C   0  0  0  0  0  0  0  0  0  0  0  0
   12.4997  -19.8672   26.0091 O   0  0  0  0  0  0  0  0  0  0  0  0
   10.4636  -19.9297   25.0296 O   0  0  0  0  0  0  0  0  0  0  0  0
  2  1  1  0
  3  2  1  0
  3  4  2  0
  5  3  1  0
  6  5  1  0
  6  7  1  1
  8  7  1  0
  8  9  2  0
 10  9  1  0
 11 10  2  0
 12 13  2  0
 12 11  1  0
 13  8  1  0
 14 22  1  0
 14  6  1  0
 15 14  2  0
 16 17  1  0
 17 19  1  0
 18 17  2  0
 20 19  1  0
 21 20  1  1
 21 22  1  0
 21 23  1  0
 23 25  1  0
 24 23  2  0
M  END
$$$$
