GFQ.pdb
     RDKit          3D

 25 25  0  0  1  0  0  0  0  0999 V2000
    4.9241  -19.6084   22.5410 N   0  0  0  0  0  0  0  0  0  0  0  0
    5.3901  -19.3338   23.8734 C   0  0  0  0  0  0  0  0  0  0  0  0
    6.2164  -18.1070   23.8936 C   0  0  0  0  0  0  0  0  0  0  0  0
    6.6953  -17.6532   22.8236 O   0  0  0  0  0  0  0  0  0  0  0  0
    6.5072  -17.3920   25.0902 N   0  0  0  0  0  0  0  0  0  0  0  0
    7.4712  -16.2906   25.1216 C   0  0  1  0  0  0  0  0  0  0  0  0
    7.3061  -15.4641   26.3835 C   0  0  0  0  0  0  0  0  0  0  0  0
    7.0530  -14.0442   26.1496 C   0  0  0  0  0  0  0  0  0  0  0  0
    5.9015  -13.4542   26.6561 C   0  0  0  0  0  0  0  0  0  0  0  0
    5.6131  -12.1239   26.4602 C   0  0  0  0  0  0  0  0  0  0  0  0
    6.4613  -11.2927   25.7417 C   0  0  0  0  0  0  0  0  0  0  0  0
    7.6123  -11.8772   25.2342 C   0  0  0  0  0  0  0  0  0  0  0  0
    7.8878  -13.2103   25.4384 C   0  0  0  0  0  0  0  0  0  0  0  0
    8.8623  -16.8173   25.0037 C   0  0  0  0  0  0  0  0  0  0  0  0
    9.1918  -17.8484   25.6466 O   0  0  0  0  0  0  0  0  0  0  0  0
   11.6878  -17.9721   20.1642 N   0  0  0  0  0  0  0  0  0  0  0  0
   12.8812  -17.6680   20.8641 C   0  0  0  0  0  0  0  0  0  0  0  0
   13.9812  -18.1477   20.4242 O   0  0  0  0  0  0  0  0  0  0  0  0
   12.9090  -16.8244   22.0632 C   0  0  0  0  0  0  0  0  0  0  0  0
   11.5977  -16.3729   22.5893 C   0  0  0  0  0  0  0  0  0  0  0  0
   11.1651  -16.8475   23.9286 C   0  0  2  0  0  0  0  0  0  0  0  0
    9.8446  -16.2105   24.1963 N   0  0  0  0  0  0  0  0  0  0  0  0
   12.0505  -16.4788   25.0168 C   0  0  0  0  0  0  0  0  0  0  0  0
   11.8146  -15.4631   25.7199 O   0  0  0  0  0  0  0  0  0  0  0  0
   13.1821  -17.2195   25.3280 O   0  0  0  0  0  0  0  0  0  0  0  0
  2  1  1  0
  3  2  1  0
  3  4  2  0
  5  3  1  0
  6  5  1  0
  6  7  1  1
  8  7  1  0
  8  9  2  0
 10  9  1  0
 11 10  2  0
 12 13  2  0
 12 11  1  0
 13  8  1  0
 14 22  1  0
 14  6  1  0
 15 14  2  0
 16 17  1  0
 17 19  1  0
 18 17  2  0
 20 19  1  0
 21 20  1  6
 21 22  1  0
 21 23  1  0
 23 25  1  0
 24 23  2  0
M  END
$$$$
