GFQ.pdb
     RDKit          3D

 25 25  0  0  1  0  0  0  0  0999 V2000
    7.3315  -14.3363   19.9819 N   0  0  0  0  0  0  0  0  0  0  0  0
    6.7653  -15.0819   21.0733 C   0  0  0  0  0  0  0  0  0  0  0  0
    7.6345  -14.9984   22.2674 C   0  0  0  0  0  0  0  0  0  0  0  0
    8.8081  -14.5605   22.1620 O   0  0  0  0  0  0  0  0  0  0  0  0
    7.2040  -15.3972   23.5648 N   0  0  0  0  0  0  0  0  0  0  0  0
    8.0599  -15.2562   24.7442 C   0  0  1  0  0  0  0  0  0  0  0  0
    7.2305  -14.9707   25.9824 C   0  0  0  0  0  0  0  0  0  0  0  0
    6.9244  -13.5578   26.1947 C   0  0  0  0  0  0  0  0  0  0  0  0
    7.9493  -12.6198   26.1913 C   0  0  0  0  0  0  0  0  0  0  0  0
    7.7162  -11.2793   26.3914 C   0  0  0  0  0  0  0  0  0  0  0  0
    6.4368  -10.7869   26.6090 C   0  0  0  0  0  0  0  0  0  0  0  0
    5.4101  -11.7196   26.6132 C   0  0  0  0  0  0  0  0  0  0  0  0
    5.6587  -13.0584   26.4114 C   0  0  0  0  0  0  0  0  0  0  0  0
    8.8935  -16.4801   24.9275 C   0  0  0  0  0  0  0  0  0  0  0  0
    8.3339  -17.6045   25.0148 O   0  0  0  0  0  0  0  0  0  0  0  0
   15.3398  -16.2189   23.4329 N   0  0  0  0  0  0  0  0  0  0  0  0
   13.9995  -15.8033   23.2382 C   0  0  0  0  0  0  0  0  0  0  0  0
   13.7092  -15.1765   22.1629 O   0  0  0  0  0  0  0  0  0  0  0  0
   12.9343  -16.0665   24.2110 C   0  0  0  0  0  0  0  0  0  0  0  0
   12.3072  -17.4099   24.1637 C   0  0  0  0  0  0  0  0  0  0  0  0
   11.1320  -17.6791   25.0311 C   0  0  2  0  0  0  0  0  0  0  0  0
   10.2994  -16.4432   25.0100 N   0  0  0  0  0  0  0  0  0  0  0  0
   11.4541  -17.9588   26.4175 C   0  0  0  0  0  0  0  0  0  0  0  0
   11.0806  -17.1811   27.3325 O   0  0  0  0  0  0  0  0  0  0  0  0
   12.1783  -19.0817   26.7927 O   0  0  0  0  0  0  0  0  0  0  0  0
  2  1  1  0
  3  2  1  0
  3  4  2  0
  5  3  1  0
  6  5  1  0
  6  7  1  1
  8  7  1  0
  8  9  2  0
 10  9  1  0
 11 10  2  0
 12 13  2  0
 12 11  1  0
 13  8  1  0
 14 22  1  0
 14  6  1  0
 15 14  2  0
 16 17  1  0
 17 19  1  0
 18 17  2  0
 20 19  1  0
 21 20  1  6
 21 22  1  0
 21 23  1  0
 23 25  1  0
 24 23  2  0
M  END
$$$$
