GFQ.pdb
     RDKit          3D

 25 25  0  0  1  0  0  0  0  0999 V2000
    4.1665  -18.7644   22.5416 N   0  0  0  0  0  0  0  0  0  0  0  0
    4.5263  -17.7169   23.4586 C   0  0  0  0  0  0  0  0  0  0  0  0
    5.9519  -17.3542   23.3016 C   0  0  0  0  0  0  0  0  0  0  0  0
    6.7108  -18.0731   22.6035 O   0  0  0  0  0  0  0  0  0  0  0  0
    6.5279  -16.2048   23.9140 N   0  0  0  0  0  0  0  0  0  0  0  0
    7.9540  -15.8953   23.7968 C   0  0  1  0  0  0  0  0  0  0  0  0
    8.1885  -14.3974   23.8601 C   0  0  0  0  0  0  0  0  0  0  0  0
    7.6673  -13.7523   25.0631 C   0  0  0  0  0  0  0  0  0  0  0  0
    8.5442  -13.3076   26.0448 C   0  0  0  0  0  0  0  0  0  0  0  0
    8.1058  -12.6993   27.1976 C   0  0  0  0  0  0  0  0  0  0  0  0
    6.7554  -12.4948   27.4452 C   0  0  0  0  0  0  0  0  0  0  0  0
    5.8760  -12.9370   26.4678 C   0  0  0  0  0  0  0  0  0  0  0  0
    6.3296  -13.5442   25.3189 C   0  0  0  0  0  0  0  0  0  0  0  0
    8.7260  -16.6044   24.8587 C   0  0  0  0  0  0  0  0  0  0  0  0
    8.1835  -16.8343   25.9713 O   0  0  0  0  0  0  0  0  0  0  0  0
   12.8819  -19.2968   21.9113 N   0  0  0  0  0  0  0  0  0  0  0  0
   13.5058  -18.5539   22.9436 C   0  0  0  0  0  0  0  0  0  0  0  0
   14.6467  -18.0283   22.7078 O   0  0  0  0  0  0  0  0  0  0  0  0
   12.8980  -18.3579   24.2636 C   0  0  0  0  0  0  0  0  0  0  0  0
   11.5290  -18.8969   24.4522 C   0  0  0  0  0  0  0  0  0  0  0  0
   10.6177  -18.2116   25.4041 C   0  0  2  0  0  0  0  0  0  0  0  0
   10.0544  -17.0378   24.6789 N   0  0  0  0  0  0  0  0  0  0  0  0
   11.2610  -17.7098   26.6034 C   0  0  0  0  0  0  0  0  0  0  0  0
   11.7043  -18.5024   27.4734 O   0  0  0  0  0  0  0  0  0  0  0  0
   11.4153  -16.3513   26.8423 O   0  0  0  0  0  0  0  0  0  0  0  0
  2  1  1  0
  3  2  1  0
  3  4  2  0
  5  3  1  0
  6  5  1  0
  6  7  1  1
  8  7  1  0
  8  9  2  0
 10  9  1  0
 11 10  2  0
 12 13  2  0
 12 11  1  0
 13  8  1  0
 14 22  1  0
 14  6  1  0
 15 14  2  0
 16 17  1  0
 17 19  1  0
 18 17  2  0
 20 19  1  0
 21 20  1  6
 21 22  1  0
 21 23  1  0
 23 25  1  0
 24 23  2  0
M  END
$$$$
