GFQ.pdb
     RDKit          3D

 25 25  0  0  1  0  0  0  0  0999 V2000
    8.2428  -16.9197   18.4871 N   0  0  0  0  0  0  0  0  0  0  0  0
    7.6197  -17.3279   19.7170 C   0  0  0  0  0  0  0  0  0  0  0  0
    8.0315  -16.4427   20.8284 C   0  0  0  0  0  0  0  0  0  0  0  0
    9.1735  -15.9174   20.8243 O   0  0  0  0  0  0  0  0  0  0  0  0
    7.1832  -16.1443   21.9325 N   0  0  0  0  0  0  0  0  0  0  0  0
    7.6250  -15.3022   23.0456 C   0  0  1  0  0  0  0  0  0  0  0  0
    6.4377  -14.7887   23.8388 C   0  0  0  0  0  0  0  0  0  0  0  0
    6.7852  -13.8911   24.9381 C   0  0  0  0  0  0  0  0  0  0  0  0
    6.6566  -14.3243   26.2519 C   0  0  0  0  0  0  0  0  0  0  0  0
    6.9647  -13.5181   27.3225 C   0  0  0  0  0  0  0  0  0  0  0  0
    7.4239  -12.2197   27.1485 C   0  0  0  0  0  0  0  0  0  0  0  0
    7.5540  -11.7828   25.8384 C   0  0  0  0  0  0  0  0  0  0  0  0
    7.2417  -12.6012   24.7767 C   0  0  0  0  0  0  0  0  0  0  0  0
    8.5694  -16.0558   23.9211 C   0  0  0  0  0  0  0  0  0  0  0  0
    8.2499  -17.1999   24.3383 O   0  0  0  0  0  0  0  0  0  0  0  0
   15.7590  -15.6894   24.1448 N   0  0  0  0  0  0  0  0  0  0  0  0
   14.5706  -16.4382   23.9608 C   0  0  0  0  0  0  0  0  0  0  0  0
   14.4721  -17.1732   22.9198 O   0  0  0  0  0  0  0  0  0  0  0  0
   13.4560  -16.4111   24.9133 C   0  0  0  0  0  0  0  0  0  0  0  0
   12.1891  -15.8039   24.4374 C   0  0  0  0  0  0  0  0  0  0  0  0
   10.9028  -16.4123   24.8633 C   0  0  2  0  0  0  0  0  0  0  0  0
    9.8227  -15.5453   24.3131 N   0  0  0  0  0  0  0  0  0  0  0  0
   10.7115  -16.4808   26.2995 C   0  0  0  0  0  0  0  0  0  0  0  0
   10.1037  -15.5647   26.9103 O   0  0  0  0  0  0  0  0  0  0  0  0
   11.1831  -17.5454   27.0549 O   0  0  0  0  0  0  0  0  0  0  0  0
  2  1  1  0
  3  2  1  0
  3  4  2  0
  5  3  1  0
  6  5  1  0
  6  7  1  1
  8  7  1  0
  8  9  2  0
 10  9  1  0
 11 10  2  0
 12 13  2  0
 12 11  1  0
 13  8  1  0
 14 22  1  0
 14  6  1  0
 15 14  2  0
 16 17  1  0
 17 19  1  0
 18 17  2  0
 20 19  1  0
 21 20  1  1
 21 22  1  0
 21 23  1  0
 23 25  1  0
 24 23  2  0
M  END
$$$$
