GFQ.pdb
     RDKit          3D

 25 25  0  0  1  0  0  0  0  0999 V2000
    9.3595  -16.6827   18.8997 N   0  0  0  0  0  0  0  0  0  0  0  0
    8.1920  -16.5541   19.7292 C   0  0  0  0  0  0  0  0  0  0  0  0
    8.5202  -15.8417   20.9835 C   0  0  0  0  0  0  0  0  0  0  0  0
    9.6975  -15.8531   21.4239 O   0  0  0  0  0  0  0  0  0  0  0  0
    7.5504  -15.1243   21.7401 N   0  0  0  0  0  0  0  0  0  0  0  0
    7.8599  -14.5452   23.0486 C   0  0  1  0  0  0  0  0  0  0  0  0
    6.7590  -13.6013   23.4955 C   0  0  0  0  0  0  0  0  0  0  0  0
    6.9692  -13.0047   24.8126 C   0  0  0  0  0  0  0  0  0  0  0  0
    6.1448  -13.3606   25.8729 C   0  0  0  0  0  0  0  0  0  0  0  0
    6.2964  -12.8251   27.1304 C   0  0  0  0  0  0  0  0  0  0  0  0
    7.2872  -11.8943   27.4113 C   0  0  0  0  0  0  0  0  0  0  0  0
    8.1129  -11.5360   26.3559 C   0  0  0  0  0  0  0  0  0  0  0  0
    7.9491  -12.0805   25.1024 C   0  0  0  0  0  0  0  0  0  0  0  0
    8.0803  -15.6261   24.0534 C   0  0  0  0  0  0  0  0  0  0  0  0
    7.2189  -16.5345   24.1865 O   0  0  0  0  0  0  0  0  0  0  0  0
   13.5216  -18.6857   24.4540 N   0  0  0  0  0  0  0  0  0  0  0  0
   12.4029  -19.3849   24.9700 C   0  0  0  0  0  0  0  0  0  0  0  0
   12.3463  -20.6501   24.7976 O   0  0  0  0  0  0  0  0  0  0  0  0
   11.3147  -18.7225   25.6962 C   0  0  0  0  0  0  0  0  0  0  0  0
   10.6470  -17.5913   25.0070 C   0  0  0  0  0  0  0  0  0  0  0  0
    9.5487  -16.8778   25.7076 C   0  0  2  0  0  0  0  0  0  0  0  0
    9.2223  -15.6847   24.8764 N   0  0  0  0  0  0  0  0  0  0  0  0
    9.8869  -16.3998   27.0346 C   0  0  0  0  0  0  0  0  0  0  0  0
    9.0653  -15.7187   27.7000 O   0  0  0  0  0  0  0  0  0  0  0  0
   11.1148  -16.6688   27.6230 O   0  0  0  0  0  0  0  0  0  0  0  0
  2  1  1  0
  3  2  1  0
  3  4  2  0
  5  3  1  0
  6  5  1  0
  6  7  1  1
  8  7  1  0
  8  9  2  0
 10  9  1  0
 11 10  2  0
 12 13  2  0
 12 11  1  0
 13  8  1  0
 14 22  1  0
 14  6  1  0
 15 14  2  0
 16 17  1  0
 17 19  1  0
 18 17  2  0
 20 19  1  0
 21 20  1  6
 21 22  1  0
 21 23  1  0
 23 25  1  0
 24 23  2  0
M  END
$$$$
