DKR.pdb
     RDKit          3D

 29 28  0  0  1  0  0  0  0  0999 V2000
   12.4418  -19.2211   17.9120 N   0  0  0  0  0  0  0  0  0  0  0  0
   12.6705  -17.8321   18.2981 C   0  0  1  0  0  0  0  0  0  0  0  0
   12.8083  -17.0358   17.0237 C   0  0  0  0  0  0  0  0  0  0  0  0
   14.1408  -17.2248   16.4454 C   0  0  0  0  0  0  0  0  0  0  0  0
   14.9335  -18.1405   16.8258 O   0  0  0  0  0  0  0  0  0  0  0  0
   11.5213  -17.3132   19.0751 C   0  0  0  0  0  0  0  0  0  0  0  0
   11.5030  -16.0699   19.3377 O   0  0  0  0  0  0  0  0  0  0  0  0
   14.5730  -16.3765   15.4377 O   0  0  0  0  0  0  0  0  0  0  0  0
   10.4804  -18.1592   19.5120 N   0  0  0  0  0  0  0  0  0  0  0  0
    9.3609  -17.6575   20.3383 C   0  0  1  0  0  0  0  0  0  0  0  0
    8.2225  -18.6226   20.2213 C   0  0  0  0  0  0  0  0  0  0  0  0
    7.7062  -18.9324   18.8792 C   0  0  0  0  0  0  0  0  0  0  0  0
    6.6004  -19.9937   19.0924 C   0  0  0  0  0  0  0  0  0  0  0  0
    6.0758  -20.3061   17.7066 C   0  0  0  0  0  0  0  0  0  0  0  0
    5.0994  -21.3675   17.8383 N   0  0  0  0  0  0  0  0  0  0  0  0
    9.8747  -17.3979   21.6690 C   0  0  0  0  0  0  0  0  0  0  0  0
   10.9188  -17.9600   22.0754 O   0  0  0  0  0  0  0  0  0  0  0  0
    9.6967  -12.8494   28.0698 N   0  0  0  0  0  0  0  0  0  0  0  0
   10.1410  -14.1106   28.5532 C   0  0  0  0  0  0  0  0  0  0  0  0
   11.2660  -14.1820   29.1965 N   0  0  0  0  0  0  0  0  0  0  0  0
    9.4130  -15.3044   28.3652 N   0  0  0  0  0  0  0  0  0  0  0  0
    8.7896  -15.7111   27.1293 C   0  0  0  0  0  0  0  0  0  0  0  0
    9.4579  -14.9836   25.9853 C   0  0  0  0  0  0  0  0  0  0  0  0
    8.8260  -15.3269   24.6594 C   0  0  0  0  0  0  0  0  0  0  0  0
    9.6718  -16.3584   23.9604 C   0  0  2  0  0  0  0  0  0  0  0  0
    9.2308  -16.5042   22.5622 N   0  0  0  0  0  0  0  0  0  0  0  0
    9.6040  -17.6374   24.6670 C   0  0  0  0  0  0  0  0  0  0  0  0
   10.6391  -18.1169   25.4516 O   0  0  0  0  0  0  0  0  0  0  0  0
    8.5619  -18.3278   24.5554 O   0  0  0  0  0  0  0  0  0  0  0  0
  2  1  1  6
  2  3  1  0
  3  4  1  0
  4  8  1  0
  4  5  2  0
  6  7  2  0
  6  2  1  0
  9  6  1  0
 10 16  1  0
 10  9  1  0
 10 11  1  1
 12 11  1  0
 12 13  1  0
 13 14  1  0
 14 15  1  0
 16 17  2  0
 18 19  1  0
 19 21  1  0
 20 19  2  0
 22 21  1  0
 23 24  1  0
 23 22  1  0
 25 24  1  1
 25 27  1  0
 26 25  1  0
 26 16  1  0
 27 29  2  0
 27 28  1  0
M  END
$$$$
