DKR.pdb
     RDKit          3D

 29 28  0  0  1  0  0  0  0  0999 V2000
    8.6981  -19.1853   20.6276 N   0  0  0  0  0  0  0  0  0  0  0  0
    9.7164  -18.6585   19.7242 C   0  0  1  0  0  0  0  0  0  0  0  0
    9.2196  -18.8854   18.3174 C   0  0  0  0  0  0  0  0  0  0  0  0
    9.3655  -20.2948   17.9458 C   0  0  0  0  0  0  0  0  0  0  0  0
    9.7111  -21.1933   18.7732 O   0  0  0  0  0  0  0  0  0  0  0  0
    9.9060  -17.2064   19.9457 C   0  0  0  0  0  0  0  0  0  0  0  0
   10.7933  -16.6172   19.2523 O   0  0  0  0  0  0  0  0  0  0  0  0
    9.1197  -20.6837   16.6381 O   0  0  0  0  0  0  0  0  0  0  0  0
    9.1355  -16.4944   20.8888 N   0  0  0  0  0  0  0  0  0  0  0  0
    9.3612  -15.0575   21.1568 C   0  0  1  0  0  0  0  0  0  0  0  0
    8.0303  -14.3732   21.1975 C   0  0  0  0  0  0  0  0  0  0  0  0
    7.2511  -14.2893   19.9526 C   0  0  0  0  0  0  0  0  0  0  0  0
    8.1015  -13.4316   18.9853 C   0  0  0  0  0  0  0  0  0  0  0  0
    7.2690  -13.3077   17.7264 C   0  0  0  0  0  0  0  0  0  0  0  0
    8.0494  -12.5658   16.7580 N   0  0  0  0  0  0  0  0  0  0  0  0
   10.1956  -14.9533   22.3380 C   0  0  0  0  0  0  0  0  0  0  0  0
    9.6869  -14.7799   23.4704 O   0  0  0  0  0  0  0  0  0  0  0  0
   12.6036  -18.4728   28.7636 N   0  0  0  0  0  0  0  0  0  0  0  0
   11.6363  -17.4434   28.9260 C   0  0  0  0  0  0  0  0  0  0  0  0
   11.3633  -17.0131   30.1196 N   0  0  0  0  0  0  0  0  0  0  0  0
   10.9474  -16.8597   27.8419 N   0  0  0  0  0  0  0  0  0  0  0  0
   11.0499  -17.2849   26.4670 C   0  0  0  0  0  0  0  0  0  0  0  0
   11.6966  -16.1802   25.6633 C   0  0  0  0  0  0  0  0  0  0  0  0
   11.7779  -16.5290   24.1981 C   0  0  0  0  0  0  0  0  0  0  0  0
   12.4184  -15.3879   23.4526 C   0  0  2  0  0  0  0  0  0  0  0  0
   11.6091  -15.0447   22.2703 N   0  0  0  0  0  0  0  0  0  0  0  0
   13.7866  -15.7340   23.0681 C   0  0  0  0  0  0  0  0  0  0  0  0
   14.8943  -15.3347   23.7965 O   0  0  0  0  0  0  0  0  0  0  0  0
   13.9612  -16.4222   22.0333 O   0  0  0  0  0  0  0  0  0  0  0  0
  2  1  1  1
  2  3  1  0
  3  4  1  0
  4  8  1  0
  4  5  2  0
  6  7  2  0
  6  2  1  0
  9  6  1  0
 10 16  1  0
 10  9  1  0
 10 11  1  1
 12 11  1  0
 12 13  1  0
 13 14  1  0
 14 15  1  0
 16 17  2  0
 18 19  1  0
 19 21  1  0
 20 19  2  0
 22 21  1  0
 23 24  1  0
 23 22  1  0
 25 24  1  6
 25 27  1  0
 26 25  1  0
 26 16  1  0
 27 29  2  0
 27 28  1  0
M  END
$$$$
