DKR.pdb
     RDKit          3D

 29 28  0  0  1  0  0  0  0  0999 V2000
    9.1633  -19.5945   18.7080 N   0  0  0  0  0  0  0  0  0  0  0  0
    8.7715  -18.2734   19.1894 C   0  0  1  0  0  0  0  0  0  0  0  0
    7.7768  -17.7188   18.1992 C   0  0  0  0  0  0  0  0  0  0  0  0
    8.4119  -17.5213   16.8941 C   0  0  0  0  0  0  0  0  0  0  0  0
    9.3891  -18.2236   16.4899 O   0  0  0  0  0  0  0  0  0  0  0  0
    8.1294  -18.3749   20.5202 C   0  0  0  0  0  0  0  0  0  0  0  0
    7.2596  -17.4986   20.8213 O   0  0  0  0  0  0  0  0  0  0  0  0
    7.9393  -16.5289   16.0494 O   0  0  0  0  0  0  0  0  0  0  0  0
    8.4637  -19.4025   21.4270 N   0  0  0  0  0  0  0  0  0  0  0  0
    7.8158  -19.5164   22.7518 C   0  0  1  0  0  0  0  0  0  0  0  0
    7.7727  -20.9643   23.1298 C   0  0  0  0  0  0  0  0  0  0  0  0
    6.6317  -21.7712   22.6704 C   0  0  0  0  0  0  0  0  0  0  0  0
    6.9133  -23.2106   23.1639 C   0  0  0  0  0  0  0  0  0  0  0  0
    5.7389  -24.0346   22.6789 C   0  0  0  0  0  0  0  0  0  0  0  0
    5.9224  -25.3857   23.1667 N   0  0  0  0  0  0  0  0  0  0  0  0
    8.5004  -18.6156   23.6584 C   0  0  0  0  0  0  0  0  0  0  0  0
    9.7468  -18.4882   23.6178 O   0  0  0  0  0  0  0  0  0  0  0  0
    5.8408  -12.1026   24.3517 N   0  0  0  0  0  0  0  0  0  0  0  0
    7.1784  -11.7221   24.6482 C   0  0  0  0  0  0  0  0  0  0  0  0
    7.7555  -10.8160   23.9199 N   0  0  0  0  0  0  0  0  0  0  0  0
    7.9208  -12.2881   25.7061 N   0  0  0  0  0  0  0  0  0  0  0  0
    7.4499  -13.3290   26.5872 C   0  0  0  0  0  0  0  0  0  0  0  0
    8.3047  -14.5593   26.3866 C   0  0  0  0  0  0  0  0  0  0  0  0
    7.5640  -15.6382   25.6365 C   0  0  0  0  0  0  0  0  0  0  0  0
    8.4816  -16.8137   25.4262 C   0  0  2  0  0  0  0  0  0  0  0  0
    7.8015  -17.8424   24.6201 N   0  0  0  0  0  0  0  0  0  0  0  0
    8.9155  -17.3585   26.7124 C   0  0  0  0  0  0  0  0  0  0  0  0
    9.9291  -16.7895   27.4647 O   0  0  0  0  0  0  0  0  0  0  0  0
    8.3431  -18.3858   27.1506 O   0  0  0  0  0  0  0  0  0  0  0  0
  2  1  1  6
  2  3  1  0
  3  4  1  0
  4  8  1  0
  4  5  2  0
  6  7  2  0
  6  2  1  0
  9  6  1  0
 10 16  1  0
 10  9  1  0
 10 11  1  1
 12 11  1  0
 12 13  1  0
 13 14  1  0
 14 15  1  0
 16 17  2  0
 18 19  1  0
 19 21  1  0
 20 19  2  0
 22 21  1  0
 23 24  1  0
 23 22  1  0
 25 24  1  1
 25 27  1  0
 26 25  1  0
 26 16  1  0
 27 29  2  0
 27 28  1  0
M  END
$$$$
