DKR.pdb
     RDKit          3D

 29 28  0  0  1  0  0  0  0  0999 V2000
    5.0733  -20.7321   21.1005 N   0  0  0  0  0  0  0  0  0  0  0  0
    4.6358  -19.5014   21.7521 C   0  0  1  0  0  0  0  0  0  0  0  0
    3.9897  -19.8973   23.0570 C   0  0  0  0  0  0  0  0  0  0  0  0
    2.6939  -20.5352   22.8121 C   0  0  0  0  0  0  0  0  0  0  0  0
    2.1724  -20.6147   21.6575 O   0  0  0  0  0  0  0  0  0  0  0  0
    5.7938  -18.6206   22.0291 C   0  0  0  0  0  0  0  0  0  0  0  0
    6.8863  -19.1751   22.3671 O   0  0  0  0  0  0  0  0  0  0  0  0
    1.9915  -21.0814   23.8751 O   0  0  0  0  0  0  0  0  0  0  0  0
    5.6983  -17.2171   21.9244 N   0  0  0  0  0  0  0  0  0  0  0  0
    6.8672  -16.3365   22.1385 C   0  0  1  0  0  0  0  0  0  0  0  0
    6.5795  -15.0121   21.5025 C   0  0  0  0  0  0  0  0  0  0  0  0
    7.6377  -13.9903   21.5102 C   0  0  0  0  0  0  0  0  0  0  0  0
    7.7155  -13.4596   20.0587 C   0  0  0  0  0  0  0  0  0  0  0  0
    8.7755  -12.3784   20.0865 C   0  0  0  0  0  0  0  0  0  0  0  0
    8.9312  -11.8847   18.7340 N   0  0  0  0  0  0  0  0  0  0  0  0
    7.1689  -16.3383   23.5567 C   0  0  0  0  0  0  0  0  0  0  0  0
    6.2771  -16.0954   24.4034 O   0  0  0  0  0  0  0  0  0  0  0  0
   10.2569  -21.0740   28.4053 N   0  0  0  0  0  0  0  0  0  0  0  0
    9.9655  -20.3011   29.5626 C   0  0  0  0  0  0  0  0  0  0  0  0
   10.2242  -20.7938   30.7351 N   0  0  0  0  0  0  0  0  0  0  0  0
    9.4002  -19.0099   29.5009 N   0  0  0  0  0  0  0  0  0  0  0  0
    8.6367  -18.4897   28.3928 C   0  0  0  0  0  0  0  0  0  0  0  0
    9.5737  -17.7634   27.4552 C   0  0  0  0  0  0  0  0  0  0  0  0
    9.1351  -17.8902   26.0176 C   0  0  0  0  0  0  0  0  0  0  0  0
    8.7888  -16.5253   25.4837 C   0  0  2  0  0  0  0  0  0  0  0  0
    8.4702  -16.6147   24.0480 N   0  0  0  0  0  0  0  0  0  0  0  0
    9.8898  -15.5914   25.7185 C   0  0  0  0  0  0  0  0  0  0  0  0
   10.0916  -14.9599   26.9340 O   0  0  0  0  0  0  0  0  0  0  0  0
   10.6840  -15.3539   24.7762 O   0  0  0  0  0  0  0  0  0  0  0  0
  2  1  1  1
  2  3  1  0
  3  4  1  0
  4  8  1  0
  4  5  2  0
  6  7  2  0
  6  2  1  0
  9  6  1  0
 10 16  1  0
 10  9  1  0
 10 11  1  1
 12 11  1  0
 12 13  1  0
 13 14  1  0
 14 15  1  0
 16 17  2  0
 18 19  1  0
 19 21  1  0
 20 19  2  0
 22 21  1  0
 23 24  1  0
 23 22  1  0
 25 24  1  6
 25 27  1  0
 26 25  1  0
 26 16  1  0
 27 29  2  0
 27 28  1  0
M  END
$$$$
