DKR.pdb
     RDKit          3D

 29 28  0  0  1  0  0  0  0  0999 V2000
    9.5912  -15.2018   19.0267 N   0  0  0  0  0  0  0  0  0  0  0  0
    8.8703  -16.1072   19.9161 C   0  0  1  0  0  0  0  0  0  0  0  0
    9.3397  -17.5058   19.5988 C   0  0  0  0  0  0  0  0  0  0  0  0
    8.9264  -17.8884   18.2466 C   0  0  0  0  0  0  0  0  0  0  0  0
    9.7504  -18.0546   17.2954 O   0  0  0  0  0  0  0  0  0  0  0  0
    9.1786  -15.7990   21.3317 C   0  0  0  0  0  0  0  0  0  0  0  0
   10.3688  -15.9977   21.7305 O   0  0  0  0  0  0  0  0  0  0  0  0
    7.5810  -18.0819   17.9744 O   0  0  0  0  0  0  0  0  0  0  0  0
    8.1949  -15.3028   22.2126 N   0  0  0  0  0  0  0  0  0  0  0  0
    8.5076  -14.9520   23.6150 C   0  0  1  0  0  0  0  0  0  0  0  0
    7.5101  -13.9362   24.0780 C   0  0  0  0  0  0  0  0  0  0  0  0
    7.5762  -13.4805   25.4751 C   0  0  0  0  0  0  0  0  0  0  0  0
    6.4038  -12.4849   25.6448 C   0  0  0  0  0  0  0  0  0  0  0  0
    6.5091  -11.9853   27.0705 C   0  0  0  0  0  0  0  0  0  0  0  0
    5.4198  -11.0564   27.2893 N   0  0  0  0  0  0  0  0  0  0  0  0
    8.5955  -16.1860   24.3710 C   0  0  0  0  0  0  0  0  0  0  0  0
    7.7378  -17.0890   24.2286 O   0  0  0  0  0  0  0  0  0  0  0  0
   13.3399  -21.4839   30.0174 N   0  0  0  0  0  0  0  0  0  0  0  0
   12.5034  -20.4424   30.5045 C   0  0  0  0  0  0  0  0  0  0  0  0
   12.0986  -20.4791   31.7371 N   0  0  0  0  0  0  0  0  0  0  0  0
   12.0838  -19.3580   29.7055 N   0  0  0  0  0  0  0  0  0  0  0  0
   12.4166  -19.1742   28.3137 C   0  0  0  0  0  0  0  0  0  0  0  0
   11.1362  -19.0675   27.5176 C   0  0  0  0  0  0  0  0  0  0  0  0
   10.9919  -17.7127   26.8702 C   0  0  0  0  0  0  0  0  0  0  0  0
    9.7191  -17.6818   26.0659 C   0  0  2  0  0  0  0  0  0  0  0  0
    9.6446  -16.4292   25.2937 N   0  0  0  0  0  0  0  0  0  0  0  0
    8.5576  -17.8259   26.9433 C   0  0  0  0  0  0  0  0  0  0  0  0
    7.8474  -16.7423   27.4318 O   0  0  0  0  0  0  0  0  0  0  0  0
    8.1914  -18.9821   27.2659 O   0  0  0  0  0  0  0  0  0  0  0  0
  2  1  1  6
  2  3  1  0
  3  4  1  0
  4  8  1  0
  4  5  2  0
  6  7  2  0
  6  2  1  0
  9  6  1  0
 10 16  1  0
 10  9  1  0
 10 11  1  1
 12 11  1  0
 12 13  1  0
 13 14  1  0
 14 15  1  0
 16 17  2  0
 18 19  1  0
 19 21  1  0
 20 19  2  0
 22 21  1  0
 23 24  1  0
 23 22  1  0
 25 24  1  1
 25 27  1  0
 26 25  1  0
 26 16  1  0
 27 29  2  0
 27 28  1  0
M  END
$$$$
