DKR.pdb
     RDKit          3D

 29 28  0  0  1  0  0  0  0  0999 V2000
   11.8366  -19.4632   19.6037 N   0  0  0  0  0  0  0  0  0  0  0  0
   12.8448  -18.4732   19.9698 C   0  0  1  0  0  0  0  0  0  0  0  0
   13.6204  -18.1476   18.7170 C   0  0  0  0  0  0  0  0  0  0  0  0
   14.8016  -17.3447   19.0422 C   0  0  0  0  0  0  0  0  0  0  0  0
   15.3290  -17.3313   20.1968 O   0  0  0  0  0  0  0  0  0  0  0  0
   12.2010  -17.2402   20.4787 C   0  0  0  0  0  0  0  0  0  0  0  0
   12.9287  -16.4193   21.1205 O   0  0  0  0  0  0  0  0  0  0  0  0
   15.3830  -16.5586   18.0595 O   0  0  0  0  0  0  0  0  0  0  0  0
   10.8318  -16.9772   20.2642 N   0  0  0  0  0  0  0  0  0  0  0  0
   10.1700  -15.7780   20.8224 C   0  0  1  0  0  0  0  0  0  0  0  0
    9.1631  -15.2918   19.8269 C   0  0  0  0  0  0  0  0  0  0  0  0
    8.3148  -14.1478   20.1951 C   0  0  0  0  0  0  0  0  0  0  0  0
    7.4105  -13.8868   18.9668 C   0  0  0  0  0  0  0  0  0  0  0  0
    6.5265  -12.7231   19.3634 C   0  0  0  0  0  0  0  0  0  0  0  0
    5.6572  -12.4330   18.2420 N   0  0  0  0  0  0  0  0  0  0  0  0
    9.6828  -16.1168   22.1453 C   0  0  0  0  0  0  0  0  0  0  0  0
    9.0487  -17.1798   22.3435 O   0  0  0  0  0  0  0  0  0  0  0  0
    9.7887  -16.7363   30.3912 N   0  0  0  0  0  0  0  0  0  0  0  0
   10.5489  -15.5546   30.1737 C   0  0  0  0  0  0  0  0  0  0  0  0
   10.4250  -14.5607   30.9991 N   0  0  0  0  0  0  0  0  0  0  0  0
   11.4412  -15.4044   29.0912 N   0  0  0  0  0  0  0  0  0  0  0  0
   11.1824  -14.6275   27.9033 C   0  0  0  0  0  0  0  0  0  0  0  0
   10.4315  -15.4882   26.9135 C   0  0  0  0  0  0  0  0  0  0  0  0
   10.1415  -14.7446   25.6335 C   0  0  0  0  0  0  0  0  0  0  0  0
    9.5470  -15.6984   24.6310 C   0  0  2  0  0  0  0  0  0  0  0  0
    9.9003  -15.2742   23.2650 N   0  0  0  0  0  0  0  0  0  0  0  0
    8.0957  -15.7735   24.7971 C   0  0  0  0  0  0  0  0  0  0  0  0
    7.2071  -15.2292   23.8855 O   0  0  0  0  0  0  0  0  0  0  0  0
    7.6389  -16.3567   25.8102 O   0  0  0  0  0  0  0  0  0  0  0  0
  2  1  1  6
  2  3  1  0
  3  4  1  0
  4  8  1  0
  4  5  2  0
  6  7  2  0
  6  2  1  0
  9  6  1  0
 10 16  1  0
 10  9  1  0
 10 11  1  6
 12 11  1  0
 12 13  1  0
 13 14  1  0
 14 15  1  0
 16 17  2  0
 18 19  1  0
 19 21  1  0
 20 19  2  0
 22 21  1  0
 23 24  1  0
 23 22  1  0
 25 24  1  1
 25 27  1  0
 26 25  1  0
 26 16  1  0
 27 29  2  0
 27 28  1  0
M  END
$$$$
