DKR.pdb
     RDKit          3D

 29 28  0  0  1  0  0  0  0  0999 V2000
   14.2569  -17.0431   17.7664 N   0  0  0  0  0  0  0  0  0  0  0  0
   13.7780  -18.0971   18.6554 C   0  0  1  0  0  0  0  0  0  0  0  0
   14.8865  -18.3845   19.6381 C   0  0  0  0  0  0  0  0  0  0  0  0
   16.1075  -18.7761   18.9300 C   0  0  0  0  0  0  0  0  0  0  0  0
   16.0987  -19.5182   17.9000 O   0  0  0  0  0  0  0  0  0  0  0  0
   12.5761  -17.6466   19.3946 C   0  0  0  0  0  0  0  0  0  0  0  0
   12.6751  -16.5846   20.0855 O   0  0  0  0  0  0  0  0  0  0  0  0
   17.3358  -18.3267   19.3895 O   0  0  0  0  0  0  0  0  0  0  0  0
   11.3618  -18.3624   19.3400 N   0  0  0  0  0  0  0  0  0  0  0  0
   10.1603  -17.9199   20.0805 C   0  0  1  0  0  0  0  0  0  0  0  0
    8.9627  -18.5745   19.4653 C   0  0  0  0  0  0  0  0  0  0  0  0
    8.6205  -18.2366   18.0752 C   0  0  0  0  0  0  0  0  0  0  0  0
    7.3940  -19.1119   17.7230 C   0  0  0  0  0  0  0  0  0  0  0  0
    7.1124  -18.8331   16.2614 C   0  0  0  0  0  0  0  0  0  0  0  0
    5.9080  -19.5534   15.9036 N   0  0  0  0  0  0  0  0  0  0  0  0
   10.3955  -18.1614   21.4906 C   0  0  0  0  0  0  0  0  0  0  0  0
   10.9762  -19.2034   21.8757 O   0  0  0  0  0  0  0  0  0  0  0  0
    9.7965  -13.4071   29.3733 N   0  0  0  0  0  0  0  0  0  0  0  0
   10.5588  -14.6066   29.4151 C   0  0  0  0  0  0  0  0  0  0  0  0
   11.2309  -14.8932   30.4877 N   0  0  0  0  0  0  0  0  0  0  0  0
   10.6244  -15.5122   28.3352 N   0  0  0  0  0  0  0  0  0  0  0  0
   10.1411  -15.2504   27.0012 C   0  0  0  0  0  0  0  0  0  0  0  0
   10.4138  -16.4613   26.1389 C   0  0  0  0  0  0  0  0  0  0  0  0
    9.9539  -16.2505   24.7178 C   0  0  0  0  0  0  0  0  0  0  0  0
   10.2220  -17.4997   23.9205 C   0  0  2  0  0  0  0  0  0  0  0  0
    9.9883  -17.2404   22.4892 N   0  0  0  0  0  0  0  0  0  0  0  0
    9.3830  -18.5989   24.3974 C   0  0  0  0  0  0  0  0  0  0  0  0
    9.7926  -19.4831   25.3809 O   0  0  0  0  0  0  0  0  0  0  0  0
    8.2438  -18.7447   23.8916 O   0  0  0  0  0  0  0  0  0  0  0  0
  2  1  1  6
  2  3  1  0
  3  4  1  0
  4  8  1  0
  4  5  2  0
  6  7  2  0
  6  2  1  0
  9  6  1  0
 10 16  1  0
 10  9  1  0
 10 11  1  6
 12 11  1  0
 12 13  1  0
 13 14  1  0
 14 15  1  0
 16 17  2  0
 18 19  1  0
 19 21  1  0
 20 19  2  0
 22 21  1  0
 23 24  1  0
 23 22  1  0
 25 24  1  1
 25 27  1  0
 26 25  1  0
 26 16  1  0
 27 29  2  0
 27 28  1  0
M  END
$$$$
