DKR.pdb
     RDKit          3D

 29 28  0  0  1  0  0  0  0  0999 V2000
   10.3729  -17.9247   14.4129 N   0  0  0  0  0  0  0  0  0  0  0  0
   11.4565  -16.9540   14.2936 C   0  0  1  0  0  0  0  0  0  0  0  0
   11.2096  -16.1686   13.0290 C   0  0  0  0  0  0  0  0  0  0  0  0
   12.4761  -15.6890   12.4706 C   0  0  0  0  0  0  0  0  0  0  0  0
   13.6031  -16.1624   12.8129 O   0  0  0  0  0  0  0  0  0  0  0  0
   11.4543  -16.0288   15.4502 C   0  0  0  0  0  0  0  0  0  0  0  0
   12.4153  -15.2024   15.5433 O   0  0  0  0  0  0  0  0  0  0  0  0
   12.4637  -14.6744   11.5261 O   0  0  0  0  0  0  0  0  0  0  0  0
   10.4282  -16.0555   16.4179 N   0  0  0  0  0  0  0  0  0  0  0  0
   10.4547  -15.1789   17.6088 C   0  0  1  0  0  0  0  0  0  0  0  0
    9.0586  -15.0625   18.1367 C   0  0  0  0  0  0  0  0  0  0  0  0
    8.8196  -14.1773   19.2869 C   0  0  0  0  0  0  0  0  0  0  0  0
    7.3638  -14.4553   19.7318 C   0  0  0  0  0  0  0  0  0  0  0  0
    7.1422  -13.5732   20.9426 C   0  0  0  0  0  0  0  0  0  0  0  0
    5.7720  -13.7588   21.3732 N   0  0  0  0  0  0  0  0  0  0  0  0
   11.4642  -15.6923   18.5141 C   0  0  0  0  0  0  0  0  0  0  0  0
   11.7820  -16.9048   18.5007 O   0  0  0  0  0  0  0  0  0  0  0  0
   19.0586  -12.2458   17.5856 N   0  0  0  0  0  0  0  0  0  0  0  0
   18.9929  -13.6609   17.7078 C   0  0  0  0  0  0  0  0  0  0  0  0
   20.0125  -14.3763   17.3429 N   0  0  0  0  0  0  0  0  0  0  0  0
   17.8606  -14.3361   18.2103 N   0  0  0  0  0  0  0  0  0  0  0  0
   16.6118  -13.7095   18.5700 C   0  0  0  0  0  0  0  0  0  0  0  0
   15.7353  -14.7313   19.2571 C   0  0  0  0  0  0  0  0  0  0  0  0
   14.4416  -14.1240   19.7395 C   0  0  0  0  0  0  0  0  0  0  0  0
   13.4471  -15.2235   20.0041 C   0  0  2  0  0  0  0  0  0  0  0  0
   12.1345  -14.8575   19.4440 N   0  0  0  0  0  0  0  0  0  0  0  0
   13.3488  -15.4876   21.4394 C   0  0  0  0  0  0  0  0  0  0  0  0
   12.7759  -16.6388   21.9529 O   0  0  0  0  0  0  0  0  0  0  0  0
   13.8037  -14.6325   22.2375 O   0  0  0  0  0  0  0  0  0  0  0  0
  2  1  1  1
  2  3  1  0
  3  4  1  0
  4  8  1  0
  4  5  2  0
  6  7  2  0
  6  2  1  0
  9  6  1  0
 10 16  1  0
 10  9  1  0
 10 11  1  1
 12 11  1  0
 12 13  1  0
 13 14  1  0
 14 15  1  0
 16 17  2  0
 18 19  1  0
 19 21  1  0
 20 19  2  0
 22 21  1  0
 23 24  1  0
 23 22  1  0
 25 24  1  1
 25 27  1  0
 26 25  1  0
 26 16  1  0
 27 29  2  0
 27 28  1  0
M  END
$$$$
