DKR.pdb
     RDKit          3D

 29 28  0  0  1  0  0  0  0  0999 V2000
    8.8112  -16.3551   19.1150 N   0  0  0  0  0  0  0  0  0  0  0  0
    7.9727  -16.6872   20.2627 C   0  0  1  0  0  0  0  0  0  0  0  0
    7.9011  -18.1927   20.3373 C   0  0  0  0  0  0  0  0  0  0  0  0
    7.1224  -18.7227   19.2154 C   0  0  0  0  0  0  0  0  0  0  0  0
    7.5712  -18.7755   18.0292 O   0  0  0  0  0  0  0  0  0  0  0  0
    8.5726  -16.1654   21.5124 C   0  0  0  0  0  0  0  0  0  0  0  0
    9.8294  -16.2872   21.6562 O   0  0  0  0  0  0  0  0  0  0  0  0
    5.8372  -19.1917   19.4392 O   0  0  0  0  0  0  0  0  0  0  0  0
    7.7869  -15.5541   22.5118 N   0  0  0  0  0  0  0  0  0  0  0  0
    8.3933  -14.9141   23.6994 C   0  0  1  0  0  0  0  0  0  0  0  0
    7.3807  -13.9915   24.3033 C   0  0  0  0  0  0  0  0  0  0  0  0
    7.7265  -13.2997   25.5546 C   0  0  0  0  0  0  0  0  0  0  0  0
    6.4880  -12.4446   25.9143 C   0  0  0  0  0  0  0  0  0  0  0  0
    6.8165  -11.8099   27.2494 C   0  0  0  0  0  0  0  0  0  0  0  0
    5.7014  -10.9617   27.6160 N   0  0  0  0  0  0  0  0  0  0  0  0
    8.9206  -15.9650   24.5478 C   0  0  0  0  0  0  0  0  0  0  0  0
    8.1837  -16.8955   24.9509 O   0  0  0  0  0  0  0  0  0  0  0  0
   11.3872  -20.8133   22.7833 N   0  0  0  0  0  0  0  0  0  0  0  0
   12.7818  -20.9601   23.0181 C   0  0  0  0  0  0  0  0  0  0  0  0
   13.3478  -22.1032   22.7784 N   0  0  0  0  0  0  0  0  0  0  0  0
   13.5923  -19.9135   23.5066 N   0  0  0  0  0  0  0  0  0  0  0  0
   13.1325  -18.5805   23.8119 C   0  0  0  0  0  0  0  0  0  0  0  0
   12.6836  -18.5396   25.2546 C   0  0  0  0  0  0  0  0  0  0  0  0
   12.3017  -17.1443   25.6818 C   0  0  0  0  0  0  0  0  0  0  0  0
   10.8044  -17.0618   25.8208 C   0  0  2  0  0  0  0  0  0  0  0  0
   10.2789  -15.9922   24.9545 N   0  0  0  0  0  0  0  0  0  0  0  0
   10.4337  -16.8340   27.2173 C   0  0  0  0  0  0  0  0  0  0  0  0
   10.3936  -17.8492   28.1580 O   0  0  0  0  0  0  0  0  0  0  0  0
   10.1397  -15.6678   27.5756 O   0  0  0  0  0  0  0  0  0  0  0  0
  2  1  1  6
  2  3  1  0
  3  4  1  0
  4  8  1  0
  4  5  2  0
  6  7  2  0
  6  2  1  0
  9  6  1  0
 10 16  1  0
 10  9  1  0
 10 11  1  1
 12 11  1  0
 12 13  1  0
 13 14  1  0
 14 15  1  0
 16 17  2  0
 18 19  1  0
 19 21  1  0
 20 19  2  0
 22 21  1  0
 23 24  1  0
 23 22  1  0
 25 24  1  1
 25 27  1  0
 26 25  1  0
 26 16  1  0
 27 29  2  0
 27 28  1  0
M  END
$$$$
