DKR.pdb
     RDKit          3D

 29 28  0  0  1  0  0  0  0  0999 V2000
   11.9401  -16.9558   18.4018 N   0  0  0  0  0  0  0  0  0  0  0  0
   10.7028  -17.4620   18.9878 C   0  0  1  0  0  0  0  0  0  0  0  0
   11.0179  -18.8087   19.5915 C   0  0  0  0  0  0  0  0  0  0  0  0
   11.2428  -19.8006   18.5373 C   0  0  0  0  0  0  0  0  0  0  0  0
   11.2905  -19.4980   17.3054 O   0  0  0  0  0  0  0  0  0  0  0  0
   10.2218  -16.5513   20.0521 C   0  0  0  0  0  0  0  0  0  0  0  0
   11.0633  -16.1723   20.9258 O   0  0  0  0  0  0  0  0  0  0  0  0
   11.4132  -21.1329   18.8803 O   0  0  0  0  0  0  0  0  0  0  0  0
    8.8813  -16.1147   20.1031 N   0  0  0  0  0  0  0  0  0  0  0  0
    8.4062  -15.1702   21.1373 C   0  0  1  0  0  0  0  0  0  0  0  0
    7.1771  -14.4889   20.6213 C   0  0  0  0  0  0  0  0  0  0  0  0
    7.3436  -13.2983   19.7736 C   0  0  0  0  0  0  0  0  0  0  0  0
    7.8452  -13.8255   18.4080 C   0  0  0  0  0  0  0  0  0  0  0  0
    7.9083  -12.6078   17.5100 C   0  0  0  0  0  0  0  0  0  0  0  0
    8.3492  -13.0510   16.2036 N   0  0  0  0  0  0  0  0  0  0  0  0
    8.2840  -15.9023   22.3828 C   0  0  0  0  0  0  0  0  0  0  0  0
    7.9468  -17.1096   22.3877 O   0  0  0  0  0  0  0  0  0  0  0  0
   11.9974  -15.4625   30.3496 N   0  0  0  0  0  0  0  0  0  0  0  0
   10.9463  -16.4189   30.3042 C   0  0  0  0  0  0  0  0  0  0  0  0
   11.0690  -17.5272   30.9683 N   0  0  0  0  0  0  0  0  0  0  0  0
    9.7619  -16.2231   29.5629 N   0  0  0  0  0  0  0  0  0  0  0  0
    9.6211  -15.3212   28.4456 C   0  0  0  0  0  0  0  0  0  0  0  0
    9.0424  -16.0832   27.2756 C   0  0  0  0  0  0  0  0  0  0  0  0
    8.9303  -15.2177   26.0453 C   0  0  0  0  0  0  0  0  0  0  0  0
    8.4201  -16.0507   24.8991 C   0  0  2  0  0  0  0  0  0  0  0  0
    8.5399  -15.2964   23.6392 N   0  0  0  0  0  0  0  0  0  0  0  0
    7.0345  -16.4535   25.1385 C   0  0  0  0  0  0  0  0  0  0  0  0
    6.6965  -17.5944   25.8463 O   0  0  0  0  0  0  0  0  0  0  0  0
    6.1145  -15.7324   24.6817 O   0  0  0  0  0  0  0  0  0  0  0  0
  2  1  1  1
  2  3  1  0
  3  4  1  0
  4  8  1  0
  4  5  2  0
  6  7  2  0
  6  2  1  0
  9  6  1  0
 10 16  1  0
 10  9  1  0
 10 11  1  6
 12 11  1  0
 12 13  1  0
 13 14  1  0
 14 15  1  0
 16 17  2  0
 18 19  1  0
 19 21  1  0
 20 19  2  0
 22 21  1  0
 23 24  1  0
 23 22  1  0
 25 24  1  1
 25 27  1  0
 26 25  1  0
 26 16  1  0
 27 29  2  0
 27 28  1  0
M  END
$$$$
