DKR.pdb
     RDKit          3D

 29 28  0  0  1  0  0  0  0  0999 V2000
    8.4953  -19.2681   18.6725 N   0  0  0  0  0  0  0  0  0  0  0  0
    8.7911  -18.3723   19.7863 C   0  0  1  0  0  0  0  0  0  0  0  0
    9.5692  -19.1718   20.8024 C   0  0  0  0  0  0  0  0  0  0  0  0
    8.6966  -20.1459   21.4621 C   0  0  0  0  0  0  0  0  0  0  0  0
    8.4933  -21.3115   21.0021 O   0  0  0  0  0  0  0  0  0  0  0  0
    9.6162  -17.2303   19.3292 C   0  0  0  0  0  0  0  0  0  0  0  0
   10.6161  -17.4874   18.5882 O   0  0  0  0  0  0  0  0  0  0  0  0
    8.0559  -19.7982   22.6412 O   0  0  0  0  0  0  0  0  0  0  0  0
    9.3117  -15.9029   19.6968 N   0  0  0  0  0  0  0  0  0  0  0  0
   10.0979  -14.7541   19.1970 C   0  0  1  0  0  0  0  0  0  0  0  0
    9.2871  -13.5107   19.3914 C   0  0  0  0  0  0  0  0  0  0  0  0
    7.9959  -13.4043   18.6947 C   0  0  0  0  0  0  0  0  0  0  0  0
    8.2736  -13.8328   17.2340 C   0  0  0  0  0  0  0  0  0  0  0  0
    6.9514  -13.6715   16.5135 C   0  0  0  0  0  0  0  0  0  0  0  0
    7.1205  -14.1855   15.1702 N   0  0  0  0  0  0  0  0  0  0  0  0
   11.4012  -14.8004   19.8306 C   0  0  0  0  0  0  0  0  0  0  0  0
   11.5097  -14.7739   21.0791 O   0  0  0  0  0  0  0  0  0  0  0  0
   18.5407  -17.9397   17.8279 N   0  0  0  0  0  0  0  0  0  0  0  0
   18.8742  -17.7946   19.2024 C   0  0  0  0  0  0  0  0  0  0  0  0
   20.1235  -17.7904   19.5542 N   0  0  0  0  0  0  0  0  0  0  0  0
   17.9039  -17.6550   20.2171 N   0  0  0  0  0  0  0  0  0  0  0  0
   16.4795  -17.7845   20.0274 C   0  0  0  0  0  0  0  0  0  0  0  0
   15.8397  -16.4270   20.2075 C   0  0  0  0  0  0  0  0  0  0  0  0
   14.4899  -16.3522   19.5384 C   0  0  0  0  0  0  0  0  0  0  0  0
   13.9177  -14.9726   19.7316 C   0  0  2  0  0  0  0  0  0  0  0  0
   12.6005  -14.8803   19.0780 N   0  0  0  0  0  0  0  0  0  0  0  0
   14.8350  -13.9618   19.2058 C   0  0  0  0  0  0  0  0  0  0  0  0
   14.5807  -13.2482   18.0468 O   0  0  0  0  0  0  0  0  0  0  0  0
   15.8974  -13.7336   19.8338 O   0  0  0  0  0  0  0  0  0  0  0  0
  2  1  1  6
  2  3  1  0
  3  4  1  0
  4  8  1  0
  4  5  2  0
  6  7  2  0
  6  2  1  0
  9  6  1  0
 10 16  1  0
 10  9  1  0
 10 11  1  1
 12 11  1  0
 12 13  1  0
 13 14  1  0
 14 15  1  0
 16 17  2  0
 18 19  1  0
 19 21  1  0
 20 19  2  0
 22 21  1  0
 23 24  1  0
 23 22  1  0
 25 24  1  6
 25 27  1  0
 26 25  1  0
 26 16  1  0
 27 29  2  0
 27 28  1  0
M  END
$$$$
