WPD.pdb
     RDKit          3D

 30 32  0  0  1  0  0  0  0  0999 V2000
   26.1429  -16.9137  -18.3882 N   0  0  0  0  0  0  0  0  0  0  0  0
   25.4877  -17.7182  -17.4074 C   0  0  1  0  0  0  0  0  0  0  0  0
   24.0271  -17.9638  -17.6810 C   0  0  0  0  0  0  0  0  0  0  0  0
   23.2197  -17.3889  -16.5751 C   0  0  0  0  0  0  0  0  0  0  0  0
   23.0316  -16.0398  -16.3379 C   0  0  0  0  0  0  0  0  0  0  0  0
   22.2500  -15.8704  -15.2776 N   0  0  0  0  0  0  0  0  0  0  0  0
   21.9264  -17.0838  -14.8193 C   0  0  0  0  0  0  0  0  0  0  0  0
   21.1571  -17.4739  -13.7556 C   0  0  0  0  0  0  0  0  0  0  0  0
   20.9678  -18.7896  -13.4682 C   0  0  0  0  0  0  0  0  0  0  0  0
   21.5517  -19.7418  -14.2509 C   0  0  0  0  0  0  0  0  0  0  0  0
   22.3458  -19.3983  -15.3483 C   0  0  0  0  0  0  0  0  0  0  0  0
   22.5159  -18.0577  -15.6079 C   0  0  0  0  0  0  0  0  0  0  0  0
   26.1422  -19.0049  -17.0978 C   0  0  0  0  0  0  0  0  0  0  0  0
   26.6508  -19.5901  -18.1409 O   0  0  0  0  0  0  0  0  0  0  0  0
   26.2527  -19.6151  -15.8399 N   0  0  0  0  0  0  0  0  0  0  0  0
   25.7605  -19.0658  -14.5970 C   0  0  0  0  0  0  0  0  0  0  0  0
   26.9686  -19.3027  -13.6981 C   0  0  0  0  0  0  0  0  0  0  0  0
   27.6843  -20.4689  -14.2862 C   0  0  0  0  0  0  0  0  0  0  0  0
   26.8542  -20.8597  -15.5043 C   0  0  1  0  0  0  0  0  0  0  0  0
   25.8913  -21.9521  -15.1681 C   0  0  0  0  0  0  0  0  0  0  0  0
   24.8454  -21.6448  -14.5547 O   0  0  0  0  0  0  0  0  0  0  0  0
   26.1096  -23.2974  -15.5121 N   0  0  0  0  0  0  0  0  0  0  0  0
   25.2700  -24.4358  -15.3721 C   0  0  1  0  0  0  0  0  0  0  0  0
   25.8865  -25.7085  -15.8833 C   0  0  0  0  0  0  0  0  0  0  0  0
   26.4226  -25.5130  -17.2517 C   0  0  0  0  0  0  0  0  0  0  0  0
   27.6963  -25.5450  -17.3779 O   0  0  0  0  0  0  0  0  0  0  0  0
   24.6606  -24.6069  -14.0204 C   0  0  0  0  0  0  0  0  0  0  0  0
   23.5772  -25.4469  -13.8573 O   0  0  0  0  0  0  0  0  0  0  0  0
   25.6941  -25.2994  -18.3894 O   0  0  0  0  0  0  0  0  0  0  0  0
   25.0779  -24.0252  -13.0092 O   0  0  0  0  0  0  0  0  0  0  0  0
  2  1  1  6
  2  3  1  0
  3  4  1  0
  4  5  2  0
  4 12  1  0
  5  6  1  0
  6  7  1  0
  7  8  2  0
  8  9  1  0
 10  9  2  0
 11 10  1  0
 12 11  2  0
 12  7  1  0
 13  2  1  0
 14 13  2  0
 15 19  1  0
 15 13  1  0
 16 17  1  0
 16 15  1  0
 17 18  1  0
 18 19  1  0
 20 22  1  0
 19 20  1  1
 21 20  2  0
 23 22  1  0
 23 24  1  1
 24 25  1  0
 25 29  1  0
 26 25  2  0
 27 23  1  0
 28 27  1  0
 30 27  2  0
M  END
$$$$
