WPD.pdb
     RDKit          3D

 30 32  0  0  1  0  0  0  0  0999 V2000
   24.7291  -19.1275  -18.5117 N   0  0  0  0  0  0  0  0  0  0  0  0
   24.7262  -18.5565  -17.2031 C   0  0  1  0  0  0  0  0  0  0  0  0
   23.3706  -18.1062  -16.7253 C   0  0  0  0  0  0  0  0  0  0  0  0
   23.0839  -16.7556  -17.2724 C   0  0  0  0  0  0  0  0  0  0  0  0
   23.7949  -16.1323  -18.2812 C   0  0  0  0  0  0  0  0  0  0  0  0
   23.2701  -14.9391  -18.5354 N   0  0  0  0  0  0  0  0  0  0  0  0
   22.2313  -14.7733  -17.7104 C   0  0  0  0  0  0  0  0  0  0  0  0
   21.3580  -13.7302  -17.5533 C   0  0  0  0  0  0  0  0  0  0  0  0
   20.3622  -13.7784  -16.6283 C   0  0  0  0  0  0  0  0  0  0  0  0
   20.2260  -14.8838  -15.8410 C   0  0  0  0  0  0  0  0  0  0  0  0
   21.0896  -15.9759  -15.9604 C   0  0  0  0  0  0  0  0  0  0  0  0
   22.0857  -15.8911  -16.9060 C   0  0  0  0  0  0  0  0  0  0  0  0
   25.3606  -19.3737  -16.1498 C   0  0  0  0  0  0  0  0  0  0  0  0
   24.9018  -20.5884  -16.0917 O   0  0  0  0  0  0  0  0  0  0  0  0
   26.3613  -18.9689  -15.2546 N   0  0  0  0  0  0  0  0  0  0  0  0
   26.9628  -17.6555  -15.2097 C   0  0  0  0  0  0  0  0  0  0  0  0
   28.4360  -18.0347  -15.1115 C   0  0  0  0  0  0  0  0  0  0  0  0
   28.4626  -19.3810  -14.4754 C   0  0  0  0  0  0  0  0  0  0  0  0
   26.9970  -19.7234  -14.2298 C   0  0  1  0  0  0  0  0  0  0  0  0
   26.5884  -19.3616  -12.8384 C   0  0  0  0  0  0  0  0  0  0  0  0
   27.2033  -18.4333  -12.2685 O   0  0  0  0  0  0  0  0  0  0  0  0
   25.5498  -20.0139  -12.1518 N   0  0  0  0  0  0  0  0  0  0  0  0
   25.1150  -19.8956  -10.8037 C   0  0  1  0  0  0  0  0  0  0  0  0
   23.6275  -20.0355  -10.6335 C   0  0  0  0  0  0  0  0  0  0  0  0
   23.0977  -21.0851  -11.5365 C   0  0  0  0  0  0  0  0  0  0  0  0
   23.9403  -21.6434  -12.3224 O   0  0  0  0  0  0  0  0  0  0  0  0
   25.8760  -20.7225   -9.8214 C   0  0  0  0  0  0  0  0  0  0  0  0
   25.7357  -20.4838   -8.4689 O   0  0  0  0  0  0  0  0  0  0  0  0
   21.8012  -21.5135  -11.6157 O   0  0  0  0  0  0  0  0  0  0  0  0
   26.6468  -21.6335  -10.1543 O   0  0  0  0  0  0  0  0  0  0  0  0
  2  1  1  6
  2  3  1  0
  3  4  1  0
  4  5  2  0
  4 12  1  0
  5  6  1  0
  6  7  1  0
  7  8  2  0
  8  9  1  0
 10  9  2  0
 11 10  1  0
 12 11  2  0
 12  7  1  0
 13  2  1  0
 14 13  2  0
 15 19  1  0
 15 13  1  0
 16 17  1  0
 16 15  1  0
 17 18  1  0
 18 19  1  0
 20 22  1  0
 19 20  1  1
 21 20  2  0
 23 22  1  0
 23 24  1  6
 24 25  1  0
 25 29  1  0
 26 25  2  0
 27 23  1  0
 28 27  1  0
 30 27  2  0
M  END
$$$$
