WPD.pdb
     RDKit          3D

 30 32  0  0  1  0  0  0  0  0999 V2000
   25.3701  -20.2492  -17.4932 N   0  0  0  0  0  0  0  0  0  0  0  0
   25.6322  -19.9000  -16.1339 C   0  0  1  0  0  0  0  0  0  0  0  0
   25.5401  -18.4250  -15.8431 C   0  0  0  0  0  0  0  0  0  0  0  0
   26.5211  -17.6983  -16.6888 C   0  0  0  0  0  0  0  0  0  0  0  0
   26.2044  -16.8022  -17.6930 C   0  0  0  0  0  0  0  0  0  0  0  0
   27.3155  -16.3267  -18.2435 N   0  0  0  0  0  0  0  0  0  0  0  0
   28.3498  -16.8970  -17.6173 C   0  0  0  0  0  0  0  0  0  0  0  0
   29.7010  -16.7644  -17.7963 C   0  0  0  0  0  0  0  0  0  0  0  0
   30.5845  -17.4623  -17.0335 C   0  0  0  0  0  0  0  0  0  0  0  0
   30.1215  -18.3104  -16.0709 C   0  0  0  0  0  0  0  0  0  0  0  0
   28.7530  -18.4827  -15.8466 C   0  0  0  0  0  0  0  0  0  0  0  0
   27.8891  -17.7611  -16.6380 C   0  0  0  0  0  0  0  0  0  0  0  0
   24.8497  -20.6394  -15.1237 C   0  0  0  0  0  0  0  0  0  0  0  0
   23.8874  -21.3490  -15.6333 O   0  0  0  0  0  0  0  0  0  0  0  0
   25.0471  -20.6378  -13.7352 N   0  0  0  0  0  0  0  0  0  0  0  0
   26.0210  -19.8364  -13.0292 C   0  0  0  0  0  0  0  0  0  0  0  0
   26.6136  -20.8875  -12.0977 C   0  0  0  0  0  0  0  0  0  0  0  0
   25.5429  -21.9051  -11.9074 C   0  0  0  0  0  0  0  0  0  0  0  0
   24.3707  -21.3953  -12.7391 C   0  0  1  0  0  0  0  0  0  0  0  0
   23.4159  -20.6134  -11.8962 C   0  0  0  0  0  0  0  0  0  0  0  0
   23.8638  -19.6402  -11.2505 O   0  0  0  0  0  0  0  0  0  0  0  0
   22.0480  -20.9225  -11.8022 N   0  0  0  0  0  0  0  0  0  0  0  0
   20.9081  -20.2355  -12.3014 C   0  0  1  0  0  0  0  0  0  0  0  0
   21.1941  -19.3876  -13.5099 C   0  0  0  0  0  0  0  0  0  0  0  0
   20.0393  -19.4018  -14.4395 C   0  0  0  0  0  0  0  0  0  0  0  0
   18.9187  -19.0015  -13.9671 O   0  0  0  0  0  0  0  0  0  0  0  0
   19.6910  -21.0808  -12.4799 C   0  0  0  0  0  0  0  0  0  0  0  0
   19.7727  -22.2596  -13.1938 O   0  0  0  0  0  0  0  0  0  0  0  0
   20.0511  -19.8018  -15.7474 O   0  0  0  0  0  0  0  0  0  0  0  0
   18.5824  -20.7812  -12.0149 O   0  0  0  0  0  0  0  0  0  0  0  0
  2  1  1  6
  2  3  1  0
  3  4  1  0
  4  5  2  0
  4 12  1  0
  5  6  1  0
  6  7  1  0
  7  8  2  0
  8  9  1  0
 10  9  2  0
 11 10  1  0
 12 11  2  0
 12  7  1  0
 13  2  1  0
 14 13  2  0
 15 19  1  0
 15 13  1  0
 16 17  1  0
 16 15  1  0
 17 18  1  0
 18 19  1  0
 20 22  1  0
 19 20  1  1
 21 20  2  0
 23 22  1  0
 23 24  1  6
 24 25  1  0
 25 29  1  0
 26 25  2  0
 27 23  1  0
 28 27  1  0
 30 27  2  0
M  END
$$$$
