WPD.pdb
     RDKit          3D

 30 32  0  0  1  0  0  0  0  0999 V2000
   25.1740  -21.3285  -18.0044 N   0  0  0  0  0  0  0  0  0  0  0  0
   25.5410  -20.3379  -17.0440 C   0  0  1  0  0  0  0  0  0  0  0  0
   24.5389  -19.2244  -16.8868 C   0  0  0  0  0  0  0  0  0  0  0  0
   24.5329  -18.3952  -18.1188 C   0  0  0  0  0  0  0  0  0  0  0  0
   25.6522  -18.0277  -18.8426 C   0  0  0  0  0  0  0  0  0  0  0  0
   25.2939  -17.2960  -19.8914 N   0  0  0  0  0  0  0  0  0  0  0  0
   23.9625  -17.1793  -19.8637 C   0  0  0  0  0  0  0  0  0  0  0  0
   23.0934  -16.5292  -20.6988 C   0  0  0  0  0  0  0  0  0  0  0  0
   21.7533  -16.5395  -20.4674 C   0  0  0  0  0  0  0  0  0  0  0  0
   21.2608  -17.2087  -19.3858 C   0  0  0  0  0  0  0  0  0  0  0  0
   22.1034  -17.8886  -18.5024 C   0  0  0  0  0  0  0  0  0  0  0  0
   23.4533  -17.8555  -18.7676 C   0  0  0  0  0  0  0  0  0  0  0  0
   25.9053  -20.8496  -15.7079 C   0  0  0  0  0  0  0  0  0  0  0  0
   25.3201  -21.9704  -15.4067 O   0  0  0  0  0  0  0  0  0  0  0  0
   26.7814  -20.2575  -14.7867 N   0  0  0  0  0  0  0  0  0  0  0  0
   27.5269  -19.0386  -15.0049 C   0  0  0  0  0  0  0  0  0  0  0  0
   28.9020  -19.4686  -14.5071 C   0  0  0  0  0  0  0  0  0  0  0  0
   28.6500  -20.5513  -13.5160 C   0  0  0  0  0  0  0  0  0  0  0  0
   27.1327  -20.7002  -13.4813 C   0  0  1  0  0  0  0  0  0  0  0  0
   26.5414  -19.8996  -12.3664 C   0  0  0  0  0  0  0  0  0  0  0  0
   26.2242  -18.7124  -12.6000 O   0  0  0  0  0  0  0  0  0  0  0  0
   26.3269  -20.4219  -11.0792 N   0  0  0  0  0  0  0  0  0  0  0  0
   25.1229  -20.6190  -10.3498 C   0  0  1  0  0  0  0  0  0  0  0  0
   25.1009  -19.9202   -9.0185 C   0  0  0  0  0  0  0  0  0  0  0  0
   25.5502  -20.8367   -7.9433 C   0  0  0  0  0  0  0  0  0  0  0  0
   25.5447  -22.0874   -8.2172 O   0  0  0  0  0  0  0  0  0  0  0  0
   23.8701  -20.3905  -11.1282 C   0  0  0  0  0  0  0  0  0  0  0  0
   23.8187  -19.3770  -12.0642 O   0  0  0  0  0  0  0  0  0  0  0  0
   25.9661  -20.4805   -6.6900 O   0  0  0  0  0  0  0  0  0  0  0  0
   22.8460  -21.0722  -10.9814 O   0  0  0  0  0  0  0  0  0  0  0  0
  2  1  1  6
  2  3  1  0
  3  4  1  0
  4  5  2  0
  4 12  1  0
  5  6  1  0
  6  7  1  0
  7  8  2  0
  8  9  1  0
 10  9  2  0
 11 10  1  0
 12 11  2  0
 12  7  1  0
 13  2  1  0
 14 13  2  0
 15 19  1  0
 15 13  1  0
 16 17  1  0
 16 15  1  0
 17 18  1  0
 18 19  1  0
 20 22  1  0
 19 20  1  1
 21 20  2  0
 23 22  1  0
 23 24  1  1
 24 25  1  0
 25 29  1  0
 26 25  2  0
 27 23  1  0
 28 27  1  0
 30 27  2  0
M  END
$$$$
