WPD.pdb
     RDKit          3D

 30 32  0  0  1  0  0  0  0  0999 V2000
   25.8051  -22.1664  -13.2607 N   0  0  0  0  0  0  0  0  0  0  0  0
   25.9083  -21.1403  -12.2733 C   0  0  1  0  0  0  0  0  0  0  0  0
   24.5961  -20.4988  -11.9053 C   0  0  0  0  0  0  0  0  0  0  0  0
   24.1162  -19.6789  -13.0468 C   0  0  0  0  0  0  0  0  0  0  0  0
   24.9231  -18.9958  -13.9378 C   0  0  0  0  0  0  0  0  0  0  0  0
   24.1753  -18.3727  -14.8411 N   0  0  0  0  0  0  0  0  0  0  0  0
   22.8964  -18.6364  -14.5547 C   0  0  0  0  0  0  0  0  0  0  0  0
   21.7332  -18.2399  -15.1590 C   0  0  0  0  0  0  0  0  0  0  0  0
   20.5219  -18.6321  -14.6812 C   0  0  0  0  0  0  0  0  0  0  0  0
   20.4589  -19.4357  -13.5810 C   0  0  0  0  0  0  0  0  0  0  0  0
   21.6150  -19.8693  -12.9266 C   0  0  0  0  0  0  0  0  0  0  0  0
   22.8225  -19.4517  -13.4376 C   0  0  0  0  0  0  0  0  0  0  0  0
   26.6242  -21.5146  -11.0376 C   0  0  0  0  0  0  0  0  0  0  0  0
   26.0175  -22.4334  -10.3471 O   0  0  0  0  0  0  0  0  0  0  0  0
   27.8377  -20.9878  -10.5720 N   0  0  0  0  0  0  0  0  0  0  0  0
   28.6233  -19.9766  -11.2423 C   0  0  0  0  0  0  0  0  0  0  0  0
   30.0120  -20.5962  -11.1352 C   0  0  0  0  0  0  0  0  0  0  0  0
   29.9703  -21.4692   -9.9293 C   0  0  0  0  0  0  0  0  0  0  0  0
   28.5534  -21.3146   -9.3869 C   0  0  1  0  0  0  0  0  0  0  0  0
   28.5009  -20.2746   -8.3148 C   0  0  0  0  0  0  0  0  0  0  0  0
   28.4982  -19.0729   -8.6620 O   0  0  0  0  0  0  0  0  0  0  0  0
   28.4522  -20.5888   -6.9456 N   0  0  0  0  0  0  0  0  0  0  0  0
   28.4369  -19.7438   -5.8028 C   0  0  1  0  0  0  0  0  0  0  0  0
   28.1153  -20.4639   -4.5224 C   0  0  0  0  0  0  0  0  0  0  0  0
   26.7324  -20.9970   -4.5595 C   0  0  0  0  0  0  0  0  0  0  0  0
   26.0210  -20.6740   -5.5739 O   0  0  0  0  0  0  0  0  0  0  0  0
   29.6235  -18.8491   -5.6646 C   0  0  0  0  0  0  0  0  0  0  0  0
   29.4732  -17.5882   -5.1228 O   0  0  0  0  0  0  0  0  0  0  0  0
   26.1413  -21.7950   -3.6191 O   0  0  0  0  0  0  0  0  0  0  0  0
   30.7653  -19.1771   -6.0164 O   0  0  0  0  0  0  0  0  0  0  0  0
  2  1  1  6
  2  3  1  0
  3  4  1  0
  4  5  2  0
  4 12  1  0
  5  6  1  0
  6  7  1  0
  7  8  2  0
  8  9  1  0
 10  9  2  0
 11 10  1  0
 12 11  2  0
 12  7  1  0
 13  2  1  0
 14 13  2  0
 15 19  1  0
 15 13  1  0
 16 17  1  0
 16 15  1  0
 17 18  1  0
 18 19  1  0
 20 22  1  0
 19 20  1  1
 21 20  2  0
 23 22  1  0
 23 24  1  1
 24 25  1  0
 25 29  1  0
 26 25  2  0
 27 23  1  0
 28 27  1  0
 30 27  2  0
M  END
$$$$
