WPD.pdb
     RDKit          3D

 30 32  0  0  1  0  0  0  0  0999 V2000
   35.7951  -34.2150  -16.9422 N   0  0  0  0  0  0  0  0  0  0  0  0
   34.8622  -33.1358  -16.8848 C   0  0  1  0  0  0  0  0  0  0  0  0
   34.8532  -32.3920  -15.5751 C   0  0  0  0  0  0  0  0  0  0  0  0
   34.6479  -33.3582  -14.4661 C   0  0  0  0  0  0  0  0  0  0  0  0
   33.8958  -34.5160  -14.5412 C   0  0  0  0  0  0  0  0  0  0  0  0
   33.9280  -35.1540  -13.3770 N   0  0  0  0  0  0  0  0  0  0  0  0
   34.6862  -34.4331  -12.5448 C   0  0  0  0  0  0  0  0  0  0  0  0
   35.0364  -34.6338  -11.2361 C   0  0  0  0  0  0  0  0  0  0  0  0
   35.8275  -33.7470  -10.5747 C   0  0  0  0  0  0  0  0  0  0  0  0
   36.2836  -32.6367  -11.2221 C   0  0  0  0  0  0  0  0  0  0  0  0
   35.9565  -32.3840  -12.5570 C   0  0  0  0  0  0  0  0  0  0  0  0
   35.1535  -33.3023  -13.1937 C   0  0  0  0  0  0  0  0  0  0  0  0
   34.9459  -32.1615  -17.9909 C   0  0  0  0  0  0  0  0  0  0  0  0
   36.1658  -31.8713  -18.3326 O   0  0  0  0  0  0  0  0  0  0  0  0
   33.8760  -31.5551  -18.6651 N   0  0  0  0  0  0  0  0  0  0  0  0
   32.4757  -31.7795  -18.3861 C   0  0  0  0  0  0  0  0  0  0  0  0
   31.9437  -31.9693  -19.8019 C   0  0  0  0  0  0  0  0  0  0  0  0
   32.8783  -31.2192  -20.6861 C   0  0  0  0  0  0  0  0  0  0  0  0
   33.9144  -30.6231  -19.7391 C   0  0  1  0  0  0  0  0  0  0  0  0
   33.5555  -29.2209  -19.3666 C   0  0  0  0  0  0  0  0  0  0  0  0
   32.8290  -29.0474  -18.3633 O   0  0  0  0  0  0  0  0  0  0  0  0
   33.9989  -28.0998  -20.0893 N   0  0  0  0  0  0  0  0  0  0  0  0
   34.2328  -26.7621  -19.6696 C   0  0  1  0  0  0  0  0  0  0  0  0
   35.6805  -26.3580  -19.7160 C   0  0  0  0  0  0  0  0  0  0  0  0
   35.8469  -24.9657  -19.2346 C   0  0  0  0  0  0  0  0  0  0  0  0
   34.7806  -24.3493  -18.8849 O   0  0  0  0  0  0  0  0  0  0  0  0
   33.3412  -25.7408  -20.2939 C   0  0  0  0  0  0  0  0  0  0  0  0
   33.2484  -24.4798  -19.7395 O   0  0  0  0  0  0  0  0  0  0  0  0
   37.0226  -24.2748  -19.1299 O   0  0  0  0  0  0  0  0  0  0  0  0
   32.6607  -25.9614  -21.3055 O   0  0  0  0  0  0  0  0  0  0  0  0
  2  1  1  1
  2  3  1  0
  3  4  1  0
  4  5  2  0
  4 12  1  0
  5  6  1  0
  6  7  1  0
  7  8  2  0
  8  9  1  0
 10  9  2  0
 11 10  1  0
 12 11  2  0
 12  7  1  0
 13  2  1  0
 14 13  2  0
 15 19  1  0
 15 13  1  0
 16 17  1  0
 16 15  1  0
 17 18  1  0
 18 19  1  0
 20 22  1  0
 19 20  1  1
 21 20  2  0
 23 22  1  0
 23 24  1  6
 24 25  1  0
 25 29  1  0
 26 25  2  0
 27 23  1  0
 28 27  1  0
 30 27  2  0
M  END
$$$$
