WPD.pdb
     RDKit          3D

 30 32  0  0  1  0  0  0  0  0999 V2000
   22.7535  -21.2270  -14.6866 N   0  0  0  0  0  0  0  0  0  0  0  0
   21.8937  -20.7759  -13.6398 C   0  0  1  0  0  0  0  0  0  0  0  0
   20.4891  -20.4603  -14.0828 C   0  0  0  0  0  0  0  0  0  0  0  0
   20.3628  -18.9967  -14.3002 C   0  0  0  0  0  0  0  0  0  0  0  0
   20.9559  -18.2851  -15.3267 C   0  0  0  0  0  0  0  0  0  0  0  0
   20.6317  -17.0006  -15.2344 N   0  0  0  0  0  0  0  0  0  0  0  0
   19.8394  -16.8621  -14.1667 C   0  0  0  0  0  0  0  0  0  0  0  0
   19.2373  -15.7585  -13.6235 C   0  0  0  0  0  0  0  0  0  0  0  0
   18.4654  -15.8545  -12.5079 C   0  0  0  0  0  0  0  0  0  0  0  0
   18.2837  -17.0697  -11.9161 C   0  0  0  0  0  0  0  0  0  0  0  0
   18.8748  -18.2273  -12.4293 C   0  0  0  0  0  0  0  0  0  0  0  0
   19.6498  -18.0917  -13.5583 C   0  0  0  0  0  0  0  0  0  0  0  0
   21.8384  -21.6397  -12.4438 C   0  0  0  0  0  0  0  0  0  0  0  0
   22.0769  -22.8916  -12.6991 O   0  0  0  0  0  0  0  0  0  0  0  0
   21.5630  -21.2427  -11.1272 N   0  0  0  0  0  0  0  0  0  0  0  0
   21.2709  -19.8920  -10.7040 C   0  0  0  0  0  0  0  0  0  0  0  0
   22.1690  -19.7918   -9.4764 C   0  0  0  0  0  0  0  0  0  0  0  0
   22.3316  -21.1875   -8.9827 C   0  0  0  0  0  0  0  0  0  0  0  0
   21.5149  -22.0387   -9.9492 C   0  0  1  0  0  0  0  0  0  0  0  0
   20.1415  -22.2871   -9.4148 C   0  0  0  0  0  0  0  0  0  0  0  0
   19.2997  -21.3665   -9.5081 O   0  0  0  0  0  0  0  0  0  0  0  0
   19.7599  -23.5021   -8.8199 N   0  0  0  0  0  0  0  0  0  0  0  0
   18.4981  -23.9362   -8.3303 C   0  0  1  0  0  0  0  0  0  0  0  0
   17.9718  -25.1646   -9.0196 C   0  0  0  0  0  0  0  0  0  0  0  0
   16.6180  -25.5018   -8.5183 C   0  0  0  0  0  0  0  0  0  0  0  0
   15.6316  -24.9394   -9.1099 O   0  0  0  0  0  0  0  0  0  0  0  0
   18.3995  -24.0366   -6.8444 C   0  0  0  0  0  0  0  0  0  0  0  0
   17.1726  -23.8973   -6.2269 O   0  0  0  0  0  0  0  0  0  0  0  0
   16.3185  -26.3494   -7.4876 O   0  0  0  0  0  0  0  0  0  0  0  0
   19.3772  -24.2420   -6.1117 O   0  0  0  0  0  0  0  0  0  0  0  0
  2  1  1  6
  2  3  1  0
  3  4  1  0
  4  5  2  0
  4 12  1  0
  5  6  1  0
  6  7  1  0
  7  8  2  0
  8  9  1  0
 10  9  2  0
 11 10  1  0
 12 11  2  0
 12  7  1  0
 13  2  1  0
 14 13  2  0
 15 19  1  0
 15 13  1  0
 16 17  1  0
 16 15  1  0
 17 18  1  0
 18 19  1  0
 20 22  1  0
 19 20  1  1
 21 20  2  0
 23 22  1  0
 23 24  1  6
 24 25  1  0
 25 29  1  0
 26 25  2  0
 27 23  1  0
 28 27  1  0
 30 27  2  0
M  END
$$$$
