WPD.pdb
     RDKit          3D

 30 32  0  0  1  0  0  0  0  0999 V2000
   16.7386  -18.0894    1.4818 N   0  0  0  0  0  0  0  0  0  0  0  0
   17.4337  -19.0016    2.3322 C   0  0  1  0  0  0  0  0  0  0  0  0
   18.8905  -18.6760    2.5329 C   0  0  0  0  0  0  0  0  0  0  0  0
   19.6090  -18.8364    1.2430 C   0  0  0  0  0  0  0  0  0  0  0  0
   19.1753  -19.5982    0.1738 C   0  0  0  0  0  0  0  0  0  0  0  0
   20.0475  -19.5168   -0.8244 N   0  0  0  0  0  0  0  0  0  0  0  0
   21.0415  -18.7172   -0.4248 C   0  0  0  0  0  0  0  0  0  0  0  0
   22.1849  -18.3089   -1.0585 C   0  0  0  0  0  0  0  0  0  0  0  0
   23.0741  -17.4831   -0.4445 C   0  0  0  0  0  0  0  0  0  0  0  0
   22.8269  -17.0502    0.8250 C   0  0  0  0  0  0  0  0  0  0  0  0
   21.6756  -17.4363    1.5167 C   0  0  0  0  0  0  0  0  0  0  0  0
   20.7994  -18.2731    0.8643 C   0  0  0  0  0  0  0  0  0  0  0  0
   16.8101  -19.2482    3.6475 C   0  0  0  0  0  0  0  0  0  0  0  0
   15.9389  -18.3443    3.9839 O   0  0  0  0  0  0  0  0  0  0  0  0
   17.0677  -20.3179    4.5171 N   0  0  0  0  0  0  0  0  0  0  0  0
   18.0041  -21.3908    4.2699 C   0  0  0  0  0  0  0  0  0  0  0  0
   17.1521  -22.5914    4.6653 C   0  0  0  0  0  0  0  0  0  0  0  0
   16.1636  -22.0748    5.6522 C   0  0  0  0  0  0  0  0  0  0  0  0
   16.4892  -20.5912    5.7876 C   0  0  1  0  0  0  0  0  0  0  0  0
   17.3907  -20.3451    6.9540 C   0  0  0  0  0  0  0  0  0  0  0  0
   18.6197  -20.5121    6.7918 O   0  0  0  0  0  0  0  0  0  0  0  0
   16.9187  -19.9350    8.2128 N   0  0  0  0  0  0  0  0  0  0  0  0
   17.5318  -19.1345    9.2147 C   0  0  1  0  0  0  0  0  0  0  0  0
   16.7819  -17.8671    9.5191 C   0  0  0  0  0  0  0  0  0  0  0  0
   17.5097  -17.0628   10.5297 C   0  0  0  0  0  0  0  0  0  0  0  0
   18.7836  -17.1896   10.5534 O   0  0  0  0  0  0  0  0  0  0  0  0
   17.9269  -19.8681   10.4530 C   0  0  0  0  0  0  0  0  0  0  0  0
   19.0603  -19.4884   11.1437 O   0  0  0  0  0  0  0  0  0  0  0  0
   16.9573  -16.2032   11.4388 O   0  0  0  0  0  0  0  0  0  0  0  0
   17.2833  -20.8228   10.9108 O   0  0  0  0  0  0  0  0  0  0  0  0
  2  1  1  1
  2  3  1  0
  3  4  1  0
  4  5  2  0
  4 12  1  0
  5  6  1  0
  6  7  1  0
  7  8  2  0
  8  9  1  0
 10  9  2  0
 11 10  1  0
 12 11  2  0
 12  7  1  0
 13  2  1  0
 14 13  2  0
 15 19  1  0
 15 13  1  0
 16 17  1  0
 16 15  1  0
 17 18  1  0
 18 19  1  0
 20 22  1  0
 19 20  1  1
 21 20  2  0
 23 22  1  0
 23 24  1  1
 24 25  1  0
 25 29  1  0
 26 25  2  0
 27 23  1  0
 28 27  1  0
 30 27  2  0
M  END
$$$$
