WPD.pdb
     RDKit          3D

 30 32  0  0  1  0  0  0  0  0999 V2000
   23.6101  -21.8419  -13.5208 N   0  0  0  0  0  0  0  0  0  0  0  0
   22.4863  -21.3697  -12.7774 C   0  0  1  0  0  0  0  0  0  0  0  0
   21.2220  -21.2313  -13.5843 C   0  0  0  0  0  0  0  0  0  0  0  0
   21.1942  -19.8905  -14.2222 C   0  0  0  0  0  0  0  0  0  0  0  0
   22.3018  -19.1073  -14.4895 C   0  0  0  0  0  0  0  0  0  0  0  0
   21.9263  -17.9745  -15.0722 N   0  0  0  0  0  0  0  0  0  0  0  0
   20.5949  -18.0049  -15.1886 C   0  0  0  0  0  0  0  0  0  0  0  0
   19.7106  -17.0960  -15.7058 C   0  0  0  0  0  0  0  0  0  0  0  0
   18.3728  -17.3404  -15.7131 C   0  0  0  0  0  0  0  0  0  0  0  0
   17.8981  -18.5106  -15.1979 C   0  0  0  0  0  0  0  0  0  0  0  0
   18.7567  -19.4720  -14.6582 C   0  0  0  0  0  0  0  0  0  0  0  0
   20.1035  -19.1900  -14.6670 C   0  0  0  0  0  0  0  0  0  0  0  0
   22.1863  -22.1108  -11.5363 C   0  0  0  0  0  0  0  0  0  0  0  0
   22.3242  -23.3976  -11.6566 O   0  0  0  0  0  0  0  0  0  0  0  0
   21.7849  -21.5704  -10.3059 N   0  0  0  0  0  0  0  0  0  0  0  0
   21.5217  -20.1722  -10.0518 C   0  0  0  0  0  0  0  0  0  0  0  0
   22.2780  -19.9873   -8.7413 C   0  0  0  0  0  0  0  0  0  0  0  0
   22.3056  -21.3313   -8.1004 C   0  0  0  0  0  0  0  0  0  0  0  0
   21.5587  -22.2397   -9.0713 C   0  0  1  0  0  0  0  0  0  0  0  0
   20.1216  -22.3721   -8.6829 C   0  0  0  0  0  0  0  0  0  0  0  0
   19.3654  -21.3972   -8.8888 O   0  0  0  0  0  0  0  0  0  0  0  0
   19.5895  -23.5371   -8.1038 N   0  0  0  0  0  0  0  0  0  0  0  0
   18.2472  -23.8848   -7.7915 C   0  0  1  0  0  0  0  0  0  0  0  0
   17.8690  -25.2774   -8.2146 C   0  0  0  0  0  0  0  0  0  0  0  0
   17.7244  -25.3514   -9.6882 C   0  0  0  0  0  0  0  0  0  0  0  0
   17.7259  -24.2381  -10.3205 O   0  0  0  0  0  0  0  0  0  0  0  0
   17.8290  -23.5873   -6.3900 C   0  0  0  0  0  0  0  0  0  0  0  0
   18.7838  -23.3010   -5.4349 O   0  0  0  0  0  0  0  0  0  0  0  0
   17.5871  -26.4874  -10.4374 O   0  0  0  0  0  0  0  0  0  0  0  0
   16.6461  -23.5822   -6.0213 O   0  0  0  0  0  0  0  0  0  0  0  0
  2  1  1  6
  2  3  1  0
  3  4  1  0
  4  5  2  0
  4 12  1  0
  5  6  1  0
  6  7  1  0
  7  8  2  0
  8  9  1  0
 10  9  2  0
 11 10  1  0
 12 11  2  0
 12  7  1  0
 13  2  1  0
 14 13  2  0
 15 19  1  0
 15 13  1  0
 16 17  1  0
 16 15  1  0
 17 18  1  0
 18 19  1  0
 20 22  1  0
 19 20  1  1
 21 20  2  0
 23 22  1  0
 23 24  1  1
 24 25  1  0
 25 29  1  0
 26 25  2  0
 27 23  1  0
 28 27  1  0
 30 27  2  0
M  END
$$$$
