WPD.pdb
     RDKit          3D

 30 32  0  0  1  0  0  0  0  0999 V2000
   25.4061  -21.7532  -14.5091 N   0  0  0  0  0  0  0  0  0  0  0  0
   25.0476  -20.9428  -13.3896 C   0  0  1  0  0  0  0  0  0  0  0  0
   24.3247  -19.6715  -13.7498 C   0  0  0  0  0  0  0  0  0  0  0  0
   25.0190  -19.0212  -14.8904 C   0  0  0  0  0  0  0  0  0  0  0  0
   24.3983  -18.3653  -15.9374 C   0  0  0  0  0  0  0  0  0  0  0  0
   25.3094  -17.8922  -16.7799 N   0  0  0  0  0  0  0  0  0  0  0  0
   26.5116  -18.2285  -16.3017 C   0  0  0  0  0  0  0  0  0  0  0  0
   27.7734  -17.9968  -16.7810 C   0  0  0  0  0  0  0  0  0  0  0  0
   28.8723  -18.4474  -16.1185 C   0  0  0  0  0  0  0  0  0  0  0  0
   28.7204  -19.1424  -14.9548 C   0  0  0  0  0  0  0  0  0  0  0  0
   27.4559  -19.4061  -14.4218 C   0  0  0  0  0  0  0  0  0  0  0  0
   26.3673  -18.9358  -15.1198 C   0  0  0  0  0  0  0  0  0  0  0  0
   24.3041  -21.6316  -12.3162 C   0  0  0  0  0  0  0  0  0  0  0  0
   23.9680  -22.8498  -12.6201 O   0  0  0  0  0  0  0  0  0  0  0  0
   23.9482  -21.1078  -11.0649 N   0  0  0  0  0  0  0  0  0  0  0  0
   24.0928  -19.7267  -10.6638 C   0  0  0  0  0  0  0  0  0  0  0  0
   24.7164  -19.9082   -9.2848 C   0  0  0  0  0  0  0  0  0  0  0  0
   24.2642  -21.2463   -8.8124 C   0  0  0  0  0  0  0  0  0  0  0  0
   23.3925  -21.7828   -9.9428 C   0  0  1  0  0  0  0  0  0  0  0  0
   21.9483  -21.4942   -9.6886 C   0  0  0  0  0  0  0  0  0  0  0  0
   21.5192  -20.3531   -9.9687 O   0  0  0  0  0  0  0  0  0  0  0  0
   21.0604  -22.4444   -9.1551 N   0  0  0  0  0  0  0  0  0  0  0  0
   19.6649  -22.3639   -8.8971 C   0  0  1  0  0  0  0  0  0  0  0  0
   19.3261  -22.2344   -7.4378 C   0  0  0  0  0  0  0  0  0  0  0  0
   19.5475  -23.5218   -6.7369 C   0  0  0  0  0  0  0  0  0  0  0  0
   19.8985  -24.5163   -7.4628 O   0  0  0  0  0  0  0  0  0  0  0  0
   18.9245  -21.3781   -9.7384 C   0  0  0  0  0  0  0  0  0  0  0  0
   19.3926  -20.0843   -9.8521 O   0  0  0  0  0  0  0  0  0  0  0  0
   19.4117  -23.7533   -5.3957 O   0  0  0  0  0  0  0  0  0  0  0  0
   17.8877  -21.6569  -10.3567 O   0  0  0  0  0  0  0  0  0  0  0  0
  2  1  1  6
  2  3  1  0
  3  4  1  0
  4  5  2  0
  4 12  1  0
  5  6  1  0
  6  7  1  0
  7  8  2  0
  8  9  1  0
 10  9  2  0
 11 10  1  0
 12 11  2  0
 12  7  1  0
 13  2  1  0
 14 13  2  0
 15 19  1  0
 15 13  1  0
 16 17  1  0
 16 15  1  0
 17 18  1  0
 18 19  1  0
 20 22  1  0
 19 20  1  1
 21 20  2  0
 23 22  1  0
 23 24  1  1
 24 25  1  0
 25 29  1  0
 26 25  2  0
 27 23  1  0
 28 27  1  0
 30 27  2  0
M  END
$$$$
