WPD.pdb
     RDKit          3D

 30 32  0  0  1  0  0  0  0  0999 V2000
   21.0362  -14.6224  -19.7596 N   0  0  0  0  0  0  0  0  0  0  0  0
   20.5117  -13.3052  -19.9280 C   0  0  1  0  0  0  0  0  0  0  0  0
   19.0343  -13.1864  -19.6599 C   0  0  0  0  0  0  0  0  0  0  0  0
   18.6833  -14.0192  -18.4814 C   0  0  0  0  0  0  0  0  0  0  0  0
   18.5143  -15.3914  -18.4919 C   0  0  0  0  0  0  0  0  0  0  0  0
   18.2149  -15.8208  -17.2714 N   0  0  0  0  0  0  0  0  0  0  0  0
   18.1847  -14.7539  -16.4665 C   0  0  0  0  0  0  0  0  0  0  0  0
   17.9219  -14.6375  -15.1275 C   0  0  0  0  0  0  0  0  0  0  0  0
   17.9410  -13.4266  -14.5085 C   0  0  0  0  0  0  0  0  0  0  0  0
   18.2273  -12.3050  -15.2298 C   0  0  0  0  0  0  0  0  0  0  0  0
   18.5030  -12.3677  -16.5983 C   0  0  0  0  0  0  0  0  0  0  0  0
   18.4737  -13.6093  -17.1907 C   0  0  0  0  0  0  0  0  0  0  0  0
   21.2212  -12.2382  -19.1947 C   0  0  0  0  0  0  0  0  0  0  0  0
   22.0143  -12.6874  -18.2682 O   0  0  0  0  0  0  0  0  0  0  0  0
   21.1142  -10.8554  -19.4028 N   0  0  0  0  0  0  0  0  0  0  0  0
   20.1789  -10.2136  -20.2985 C   0  0  0  0  0  0  0  0  0  0  0  0
   21.1069   -9.2288  -21.0002 C   0  0  0  0  0  0  0  0  0  0  0  0
   22.2111   -8.9615  -20.0372 C   0  0  0  0  0  0  0  0  0  0  0  0
   21.8715   -9.8054  -18.8132 C   0  0  1  0  0  0  0  0  0  0  0  0
   21.1367   -8.9977  -17.7929 C   0  0  0  0  0  0  0  0  0  0  0  0
   19.8877   -8.9678  -17.8559 O   0  0  0  0  0  0  0  0  0  0  0  0
   21.7853   -8.2793  -16.7736 N   0  0  0  0  0  0  0  0  0  0  0  0
   21.2556   -7.5610  -15.6673 C   0  0  1  0  0  0  0  0  0  0  0  0
   22.2005   -7.4625  -14.5016 C   0  0  0  0  0  0  0  0  0  0  0  0
   21.5448   -6.7857  -13.3572 C   0  0  0  0  0  0  0  0  0  0  0  0
   21.8422   -5.5540  -13.1733 O   0  0  0  0  0  0  0  0  0  0  0  0
   20.6394   -6.2448  -16.0074 C   0  0  0  0  0  0  0  0  0  0  0  0
   19.5511   -5.7905  -15.2898 O   0  0  0  0  0  0  0  0  0  0  0  0
   20.6584   -7.3451  -12.4786 O   0  0  0  0  0  0  0  0  0  0  0  0
   21.0554   -5.5160  -16.9189 O   0  0  0  0  0  0  0  0  0  0  0  0
  2  1  1  1
  2  3  1  0
  3  4  1  0
  4  5  2  0
  4 12  1  0
  5  6  1  0
  6  7  1  0
  7  8  2  0
  8  9  1  0
 10  9  2  0
 11 10  1  0
 12 11  2  0
 12  7  1  0
 13  2  1  0
 14 13  2  0
 15 19  1  0
 15 13  1  0
 16 17  1  0
 16 15  1  0
 17 18  1  0
 18 19  1  0
 20 22  1  0
 19 20  1  1
 21 20  2  0
 23 22  1  0
 23 24  1  1
 24 25  1  0
 25 29  1  0
 26 25  2  0
 27 23  1  0
 28 27  1  0
 30 27  2  0
M  END
$$$$
