WPD.pdb
     RDKit          3D

 30 32  0  0  1  0  0  0  0  0999 V2000
   24.6568  -19.2655  -17.8676 N   0  0  0  0  0  0  0  0  0  0  0  0
   25.0002  -18.6875  -16.6080 C   0  0  1  0  0  0  0  0  0  0  0  0
   24.0675  -17.5968  -16.1506 C   0  0  0  0  0  0  0  0  0  0  0  0
   24.4374  -16.3246  -16.8216 C   0  0  0  0  0  0  0  0  0  0  0  0
   23.9132  -15.8672  -18.0164 C   0  0  0  0  0  0  0  0  0  0  0  0
   24.4521  -14.6942  -18.3286 N   0  0  0  0  0  0  0  0  0  0  0  0
   25.3181  -14.3797  -17.3600 C   0  0  0  0  0  0  0  0  0  0  0  0
   26.1370  -13.2944  -17.1955 C   0  0  0  0  0  0  0  0  0  0  0  0
   26.9554  -13.1868  -16.1146 C   0  0  0  0  0  0  0  0  0  0  0  0
   26.9638  -14.1745  -15.1742 C   0  0  0  0  0  0  0  0  0  0  0  0
   26.1480  -15.3028  -15.2932 C   0  0  0  0  0  0  0  0  0  0  0  0
   25.3341  -15.3779  -16.4002 C   0  0  0  0  0  0  0  0  0  0  0  0
   25.2014  -19.6440  -15.5015 C   0  0  0  0  0  0  0  0  0  0  0  0
   24.3163  -20.5954  -15.4736 O   0  0  0  0  0  0  0  0  0  0  0  0
   26.2124  -19.6113  -14.5301 N   0  0  0  0  0  0  0  0  0  0  0  0
   27.2865  -18.6459  -14.4721 C   0  0  0  0  0  0  0  0  0  0  0  0
   28.4713  -19.5724  -14.2239 C   0  0  0  0  0  0  0  0  0  0  0  0
   27.9077  -20.7719  -13.5444 C   0  0  0  0  0  0  0  0  0  0  0  0
   26.4145  -20.4853  -13.4262 C   0  0  1  0  0  0  0  0  0  0  0  0
   26.0860  -19.8977  -12.0918 C   0  0  0  0  0  0  0  0  0  0  0  0
   26.9373  -19.1586  -11.5499 O   0  0  0  0  0  0  0  0  0  0  0  0
   24.8701  -20.1373  -11.4286 N   0  0  0  0  0  0  0  0  0  0  0  0
   24.5753  -20.2265  -10.0409 C   0  0  1  0  0  0  0  0  0  0  0  0
   23.1034  -20.2747   -9.7371 C   0  0  0  0  0  0  0  0  0  0  0  0
   22.3829  -21.0455  -10.7786 C   0  0  0  0  0  0  0  0  0  0  0  0
   23.0895  -21.5057  -11.7421 O   0  0  0  0  0  0  0  0  0  0  0  0
   25.3393  -21.2735   -9.3006 C   0  0  0  0  0  0  0  0  0  0  0  0
   25.7112  -21.0534   -7.9894 O   0  0  0  0  0  0  0  0  0  0  0  0
   21.0417  -21.3107  -10.8144 O   0  0  0  0  0  0  0  0  0  0  0  0
   25.6694  -22.3562   -9.8042 O   0  0  0  0  0  0  0  0  0  0  0  0
  2  1  1  6
  2  3  1  0
  3  4  1  0
  4  5  2  0
  4 12  1  0
  5  6  1  0
  6  7  1  0
  7  8  2  0
  8  9  1  0
 10  9  2  0
 11 10  1  0
 12 11  2  0
 12  7  1  0
 13  2  1  0
 14 13  2  0
 15 19  1  0
 15 13  1  0
 16 17  1  0
 16 15  1  0
 17 18  1  0
 18 19  1  0
 20 22  1  0
 19 20  1  1
 21 20  2  0
 23 22  1  0
 23 24  1  6
 24 25  1  0
 25 29  1  0
 26 25  2  0
 27 23  1  0
 28 27  1  0
 30 27  2  0
M  END
$$$$
