WPD.pdb
     RDKit          3D

 30 32  0  0  1  0  0  0  0  0999 V2000
   26.7512  -21.0944  -19.5041 N   0  0  0  0  0  0  0  0  0  0  0  0
   25.9081  -20.6402  -18.4451 C   0  0  1  0  0  0  0  0  0  0  0  0
   24.4594  -21.0233  -18.5972 C   0  0  0  0  0  0  0  0  0  0  0  0
   23.6089  -19.8383  -18.3181 C   0  0  0  0  0  0  0  0  0  0  0  0
   23.2854  -18.8515  -19.2309 C   0  0  0  0  0  0  0  0  0  0  0  0
   22.5020  -17.9442  -18.6592 N   0  0  0  0  0  0  0  0  0  0  0  0
   22.3101  -18.3211  -17.3911 C   0  0  0  0  0  0  0  0  0  0  0  0
   21.5965  -17.7452  -16.3739 C   0  0  0  0  0  0  0  0  0  0  0  0
   21.5468  -18.3128  -15.1390 C   0  0  0  0  0  0  0  0  0  0  0  0
   22.2173  -19.4771  -14.9045 C   0  0  0  0  0  0  0  0  0  0  0  0
   22.9600  -20.1065  -15.9070 C   0  0  0  0  0  0  0  0  0  0  0  0
   22.9883  -19.5028  -17.1433 C   0  0  0  0  0  0  0  0  0  0  0  0
   26.3563  -20.9848  -17.0813 C   0  0  0  0  0  0  0  0  0  0  0  0
   26.5298  -22.2603  -16.9012 O   0  0  0  0  0  0  0  0  0  0  0  0
   26.5954  -20.0980  -16.0214 N   0  0  0  0  0  0  0  0  0  0  0  0
   26.4023  -18.6664  -16.0682 C   0  0  0  0  0  0  0  0  0  0  0  0
   27.7022  -18.1959  -15.4260 C   0  0  0  0  0  0  0  0  0  0  0  0
   28.1409  -19.3120  -14.5429 C   0  0  0  0  0  0  0  0  0  0  0  0
   27.0696  -20.3842  -14.7112 C   0  0  1  0  0  0  0  0  0  0  0  0
   26.0381  -20.2843  -13.6344 C   0  0  0  0  0  0  0  0  0  0  0  0
   25.0508  -19.5427  -13.8339 O   0  0  0  0  0  0  0  0  0  0  0  0
   26.1299  -20.9851  -12.4194 N   0  0  0  0  0  0  0  0  0  0  0  0
   25.2443  -21.0304  -11.3085 C   0  0  1  0  0  0  0  0  0  0  0  0
   25.7153  -21.9252  -10.1955 C   0  0  0  0  0  0  0  0  0  0  0  0
   24.7641  -21.8854   -9.0591 C   0  0  0  0  0  0  0  0  0  0  0  0
   23.5188  -21.8567   -9.3553 O   0  0  0  0  0  0  0  0  0  0  0  0
   24.7913  -19.6988  -10.8092 C   0  0  0  0  0  0  0  0  0  0  0  0
   25.6554  -18.6227  -10.8432 O   0  0  0  0  0  0  0  0  0  0  0  0
   25.0834  -21.8735   -7.7292 O   0  0  0  0  0  0  0  0  0  0  0  0
   23.6574  -19.4948  -10.3533 O   0  0  0  0  0  0  0  0  0  0  0  0
  2  1  1  6
  2  3  1  0
  3  4  1  0
  4  5  2  0
  4 12  1  0
  5  6  1  0
  6  7  1  0
  7  8  2  0
  8  9  1  0
 10  9  2  0
 11 10  1  0
 12 11  2  0
 12  7  1  0
 13  2  1  0
 14 13  2  0
 15 19  1  0
 15 13  1  0
 16 17  1  0
 16 15  1  0
 17 18  1  0
 18 19  1  0
 20 22  1  0
 19 20  1  1
 21 20  2  0
 23 22  1  0
 23 24  1  1
 24 25  1  0
 25 29  1  0
 26 25  2  0
 27 23  1  0
 28 27  1  0
 30 27  2  0
M  END
$$$$
