WPD.pdb
     RDKit          3D

 30 32  0  0  1  0  0  0  0  0999 V2000
   25.2785  -21.4071  -16.3087 N   0  0  0  0  0  0  0  0  0  0  0  0
   25.7849  -20.5373  -15.2961 C   0  0  1  0  0  0  0  0  0  0  0  0
   24.9224  -19.3328  -15.0243 C   0  0  0  0  0  0  0  0  0  0  0  0
   25.0011  -18.4047  -16.1810 C   0  0  0  0  0  0  0  0  0  0  0  0
   24.1081  -18.3616  -17.2357 C   0  0  0  0  0  0  0  0  0  0  0  0
   24.4640  -17.4116  -18.0927 N   0  0  0  0  0  0  0  0  0  0  0  0
   25.5725  -16.8358  -17.6164 C   0  0  0  0  0  0  0  0  0  0  0  0
   26.3472  -15.8192  -18.1082 C   0  0  0  0  0  0  0  0  0  0  0  0
   27.4558  -15.3942  -17.4448 C   0  0  0  0  0  0  0  0  0  0  0  0
   27.8062  -15.9873  -16.2677 C   0  0  0  0  0  0  0  0  0  0  0  0
   27.0507  -17.0284  -15.7216 C   0  0  0  0  0  0  0  0  0  0  0  0
   25.9366  -17.4325  -16.4209 C   0  0  0  0  0  0  0  0  0  0  0  0
   26.1270  -21.1835  -14.0135 C   0  0  0  0  0  0  0  0  0  0  0  0
   25.4109  -22.2378  -13.7590 O   0  0  0  0  0  0  0  0  0  0  0  0
   27.1062  -20.7747  -13.0965 N   0  0  0  0  0  0  0  0  0  0  0  0
   28.0157  -19.6667  -13.2815 C   0  0  0  0  0  0  0  0  0  0  0  0
   29.3266  -20.3173  -12.8550 C   0  0  0  0  0  0  0  0  0  0  0  0
   28.9469  -21.4036  -11.9096 C   0  0  0  0  0  0  0  0  0  0  0  0
   27.4258  -21.3329  -11.8277 C   0  0  1  0  0  0  0  0  0  0  0  0
   26.9900  -20.5160  -10.6546 C   0  0  0  0  0  0  0  0  0  0  0  0
   27.0994  -19.2723  -10.7319 O   0  0  0  0  0  0  0  0  0  0  0  0
   26.4650  -21.0825   -9.4802 N   0  0  0  0  0  0  0  0  0  0  0  0
   25.9330  -20.4676   -8.3143 C   0  0  1  0  0  0  0  0  0  0  0  0
   24.7189  -21.1634   -7.7638 C   0  0  0  0  0  0  0  0  0  0  0  0
   23.5635  -20.9925   -8.6769 C   0  0  0  0  0  0  0  0  0  0  0  0
   23.7561  -20.2682   -9.7149 O   0  0  0  0  0  0  0  0  0  0  0  0
   26.9352  -20.1564   -7.2530 C   0  0  0  0  0  0  0  0  0  0  0  0
   26.7010  -19.1213   -6.3700 O   0  0  0  0  0  0  0  0  0  0  0  0
   22.3147  -21.5276   -8.5198 O   0  0  0  0  0  0  0  0  0  0  0  0
   27.9928  -20.7863   -7.1126 O   0  0  0  0  0  0  0  0  0  0  0  0
  2  1  1  6
  2  3  1  0
  3  4  1  0
  4  5  2  0
  4 12  1  0
  5  6  1  0
  6  7  1  0
  7  8  2  0
  8  9  1  0
 10  9  2  0
 11 10  1  0
 12 11  2  0
 12  7  1  0
 13  2  1  0
 14 13  2  0
 15 19  1  0
 15 13  1  0
 16 17  1  0
 16 15  1  0
 17 18  1  0
 18 19  1  0
 20 22  1  0
 19 20  1  1
 21 20  2  0
 23 22  1  0
 23 24  1  1
 24 25  1  0
 25 29  1  0
 26 25  2  0
 27 23  1  0
 28 27  1  0
 30 27  2  0
M  END
$$$$
