WPD.pdb
     RDKit          3D

 30 32  0  0  1  0  0  0  0  0999 V2000
   27.3699  -20.9633  -16.7460 N   0  0  0  0  0  0  0  0  0  0  0  0
   27.5042  -20.2981  -15.4898 C   0  0  1  0  0  0  0  0  0  0  0  0
   26.8818  -18.9273  -15.4437 C   0  0  0  0  0  0  0  0  0  0  0  0
   27.5092  -18.0709  -16.4822 C   0  0  0  0  0  0  0  0  0  0  0  0
   26.8373  -17.4366  -17.5107 C   0  0  0  0  0  0  0  0  0  0  0  0
   27.6938  -16.7447  -18.2532 N   0  0  0  0  0  0  0  0  0  0  0  0
   28.9110  -16.9171  -17.7281 C   0  0  0  0  0  0  0  0  0  0  0  0
   30.1362  -16.4362  -18.1062 C   0  0  0  0  0  0  0  0  0  0  0  0
   31.2624  -16.7546  -17.4134 C   0  0  0  0  0  0  0  0  0  0  0  0
   31.1752  -17.5666  -16.3211 C   0  0  0  0  0  0  0  0  0  0  0  0
   29.9501  -18.0842  -15.8921 C   0  0  0  0  0  0  0  0  0  0  0  0
   28.8325  -17.7415  -16.6181 C   0  0  0  0  0  0  0  0  0  0  0  0
   27.0609  -21.0678  -14.3105 C   0  0  0  0  0  0  0  0  0  0  0  0
   26.2854  -22.0675  -14.6077 O   0  0  0  0  0  0  0  0  0  0  0  0
   27.3883  -20.8213  -12.9693 N   0  0  0  0  0  0  0  0  0  0  0  0
   28.1437  -19.6875  -12.4867 C   0  0  0  0  0  0  0  0  0  0  0  0
   29.1149  -20.3894  -11.5446 C   0  0  0  0  0  0  0  0  0  0  0  0
   28.4231  -21.6343  -11.1089 C   0  0  0  0  0  0  0  0  0  0  0  0
   27.0742  -21.5976  -11.8194 C   0  0  1  0  0  0  0  0  0  0  0  0
   26.0195  -21.0134  -10.9363 C   0  0  0  0  0  0  0  0  0  0  0  0
   25.7761  -21.5886   -9.8525 O   0  0  0  0  0  0  0  0  0  0  0  0
   25.2986  -19.8535  -11.2694 N   0  0  0  0  0  0  0  0  0  0  0  0
   23.9518  -19.6916  -11.6938 C   0  0  1  0  0  0  0  0  0  0  0  0
   23.7618  -19.8494  -13.1771 C   0  0  0  0  0  0  0  0  0  0  0  0
   22.3269  -19.7357  -13.5321 C   0  0  0  0  0  0  0  0  0  0  0  0
   21.7192  -18.6828  -13.1305 O   0  0  0  0  0  0  0  0  0  0  0  0
   22.9465  -20.4680  -10.9100 C   0  0  0  0  0  0  0  0  0  0  0  0
   22.9168  -21.8450  -11.0050 O   0  0  0  0  0  0  0  0  0  0  0  0
   21.5887  -20.6425  -14.2416 O   0  0  0  0  0  0  0  0  0  0  0  0
   22.1145  -19.9384  -10.1601 O   0  0  0  0  0  0  0  0  0  0  0  0
  2  1  1  6
  2  3  1  0
  3  4  1  0
  4  5  2  0
  4 12  1  0
  5  6  1  0
  6  7  1  0
  7  8  2  0
  8  9  1  0
 10  9  2  0
 11 10  1  0
 12 11  2  0
 12  7  1  0
 13  2  1  0
 14 13  2  0
 15 19  1  0
 15 13  1  0
 16 17  1  0
 16 15  1  0
 17 18  1  0
 18 19  1  0
 20 22  1  0
 19 20  1  1
 21 20  2  0
 23 22  1  0
 23 24  1  6
 24 25  1  0
 25 29  1  0
 26 25  2  0
 27 23  1  0
 28 27  1  0
 30 27  2  0
M  END
$$$$
