GEA.pdb
     RDKit          3D

 19 18  0  0  1  0  0  0  0  0999 V2000
    2.8731  -19.3126   21.9447 N   0  0  0  0  0  0  0  0  0  0  0  0
    3.3611  -17.9810   21.6411 C   0  0  0  0  0  0  0  0  0  0  0  0
    4.8064  -17.8419   21.9869 C   0  0  0  0  0  0  0  0  0  0  0  0
    5.3527  -18.5972   22.8005 O   0  0  0  0  0  0  0  0  0  0  0  0
    5.5711  -16.8284   21.3753 N   0  0  0  0  0  0  0  0  0  0  0  0
    6.9552  -16.5673   21.6583 C   0  0  1  0  0  0  0  0  0  0  0  0
    7.5610  -15.9019   20.4375 C   0  0  0  0  0  0  0  0  0  0  0  0
    7.8323  -16.9309   19.3524 C   0  0  0  0  0  0  0  0  0  0  0  0
    8.4935  -16.3433   18.1824 C   0  0  0  0  0  0  0  0  0  0  0  0
    9.5103  -15.6301   18.3812 O   0  0  0  0  0  0  0  0  0  0  0  0
    7.1721  -15.8084   22.8862 C   0  0  0  0  0  0  0  0  0  0  0  0
    6.3540  -14.9291   23.2565 O   0  0  0  0  0  0  0  0  0  0  0  0
    7.9973  -16.5794   16.9121 O   0  0  0  0  0  0  0  0  0  0  0  0
    7.4870  -15.6357   25.9658 C   0  0  0  0  0  0  0  0  0  0  0  0
    8.5837  -15.3918   24.9373 C   0  0  2  0  0  0  0  0  0  0  0  0
    8.3148  -16.0454   23.6939 N   0  0  0  0  0  0  0  0  0  0  0  0
    9.8348  -15.9627   25.5327 C   0  0  0  0  0  0  0  0  0  0  0  0
   10.4159  -15.3773   26.6246 O   0  0  0  0  0  0  0  0  0  0  0  0
   10.3367  -16.9896   25.0070 O   0  0  0  0  0  0  0  0  0  0  0  0
  1  2  1  0
  3  4  2  0
  3  2  1  0
  5  3  1  0
  6  5  1  0
  6 11  1  0
  6  7  1  6
  8  7  1  0
  9  8  1  0
 10  9  2  0
 11 12  2  0
 13  9  1  0
 15 14  1  1
 16 11  1  0
 16 15  1  0
 17 18  1  0
 17 15  1  0
 19 17  2  0
M  END
$$$$
