GEA.pdb
     RDKit          3D

 19 18  0  0  1  0  0  0  0  0999 V2000
    1.6695  -18.7540   20.9798 N   0  0  0  0  0  0  0  0  0  0  0  0
    3.1048  -18.9110   20.8426 C   0  0  0  0  0  0  0  0  0  0  0  0
    3.7889  -18.8167   22.1657 C   0  0  0  0  0  0  0  0  0  0  0  0
    3.1764  -18.4870   23.1890 O   0  0  0  0  0  0  0  0  0  0  0  0
    5.1645  -19.1090   22.2573 N   0  0  0  0  0  0  0  0  0  0  0  0
    5.9591  -18.9329   23.4412 C   0  0  1  0  0  0  0  0  0  0  0  0
    6.7254  -20.2194   23.6814 C   0  0  0  0  0  0  0  0  0  0  0  0
    7.5247  -20.1277   24.9710 C   0  0  0  0  0  0  0  0  0  0  0  0
    8.3781  -21.3021   25.1802 C   0  0  0  0  0  0  0  0  0  0  0  0
    7.8461  -22.3335   25.6651 O   0  0  0  0  0  0  0  0  0  0  0  0
    6.8217  -17.7559   23.4016 C   0  0  0  0  0  0  0  0  0  0  0  0
    7.5934  -17.5517   22.4310 O   0  0  0  0  0  0  0  0  0  0  0  0
    9.7208  -21.2536   24.8478 O   0  0  0  0  0  0  0  0  0  0  0  0
    6.9688  -14.5318   25.3514 C   0  0  0  0  0  0  0  0  0  0  0  0
    7.6065  -15.6242   24.5029 C   0  0  2  0  0  0  0  0  0  0  0  0
    6.8100  -16.8113   24.4608 N   0  0  0  0  0  0  0  0  0  0  0  0
    8.9182  -15.9348   25.1575 C   0  0  0  0  0  0  0  0  0  0  0  0
    9.9179  -15.0009   25.1907 O   0  0  0  0  0  0  0  0  0  0  0  0
    9.0784  -17.0706   25.6742 O   0  0  0  0  0  0  0  0  0  0  0  0
  1  2  1  0
  3  4  2  0
  3  2  1  0
  5  3  1  0
  6  5  1  0
  6 11  1  0
  6  7  1  6
  8  7  1  0
  9  8  1  0
 10  9  2  0
 11 12  2  0
 13  9  1  0
 15 14  1  1
 16 11  1  0
 16 15  1  0
 17 18  1  0
 17 15  1  0
 19 17  2  0
M  END
$$$$
