GEA.pdb
     RDKit          3D

 19 18  0  0  1  0  0  0  0  0999 V2000
    7.2765  -13.2932   18.8861 N   0  0  0  0  0  0  0  0  0  0  0  0
    8.4181  -13.7116   19.6770 C   0  0  0  0  0  0  0  0  0  0  0  0
    7.9990  -14.1625   21.0366 C   0  0  0  0  0  0  0  0  0  0  0  0
    6.8444  -13.9923   21.4477 O   0  0  0  0  0  0  0  0  0  0  0  0
    8.9362  -14.7975   21.8759 N   0  0  0  0  0  0  0  0  0  0  0  0
    8.6524  -15.2774   23.1999 C   0  0  1  0  0  0  0  0  0  0  0  0
    9.6091  -16.4164   23.4957 C   0  0  0  0  0  0  0  0  0  0  0  0
    9.3871  -17.5621   22.5219 C   0  0  0  0  0  0  0  0  0  0  0  0
   10.6154  -18.3230   22.2700 C   0  0  0  0  0  0  0  0  0  0  0  0
   11.6215  -18.0619   22.9781 O   0  0  0  0  0  0  0  0  0  0  0  0
    8.6758  -14.2352   24.2217 C   0  0  0  0  0  0  0  0  0  0  0  0
    9.7008  -13.5313   24.4046 O   0  0  0  0  0  0  0  0  0  0  0  0
   10.6428  -19.2910   21.2811 O   0  0  0  0  0  0  0  0  0  0  0  0
    5.9752  -12.5238   26.2262 C   0  0  0  0  0  0  0  0  0  0  0  0
    7.4248  -12.9183   25.9749 C   0  0  2  0  0  0  0  0  0  0  0  0
    7.5390  -13.9906   25.0354 N   0  0  0  0  0  0  0  0  0  0  0  0
    7.9605  -13.3666   27.3006 C   0  0  0  0  0  0  0  0  0  0  0  0
    8.1727  -12.4638   28.3069 O   0  0  0  0  0  0  0  0  0  0  0  0
    8.2098  -14.5886   27.4664 O   0  0  0  0  0  0  0  0  0  0  0  0
  1  2  1  0
  3  4  2  0
  3  2  1  0
  5  3  1  0
  6  5  1  0
  6 11  1  0
  6  7  1  1
  8  7  1  0
  9  8  1  0
 10  9  2  0
 11 12  2  0
 13  9  1  0
 15 14  1  1
 16 11  1  0
 16 15  1  0
 17 18  1  0
 17 15  1  0
 19 17  2  0
M  END
$$$$
