GEA.pdb
     RDKit          3D

 19 18  0  0  1  0  0  0  0  0999 V2000
    8.0119  -12.4414   18.9743 N   0  0  0  0  0  0  0  0  0  0  0  0
    8.6930  -13.3664   19.8598 C   0  0  0  0  0  0  0  0  0  0  0  0
    7.8619  -13.6792   21.0594 C   0  0  0  0  0  0  0  0  0  0  0  0
    6.9395  -12.9371   21.4191 O   0  0  0  0  0  0  0  0  0  0  0  0
    8.1298  -14.8457   21.8033 N   0  0  0  0  0  0  0  0  0  0  0  0
    7.5051  -15.1776   23.0537 C   0  0  1  0  0  0  0  0  0  0  0  0
    7.5809  -16.6826   23.2254 C   0  0  0  0  0  0  0  0  0  0  0  0
    6.8497  -17.1100   24.4874 C   0  0  0  0  0  0  0  0  0  0  0  0
    6.8943  -18.5619   24.6906 C   0  0  0  0  0  0  0  0  0  0  0  0
    7.9520  -19.0552   25.1594 O   0  0  0  0  0  0  0  0  0  0  0  0
    8.0475  -14.4470   24.1952 C   0  0  0  0  0  0  0  0  0  0  0  0
    9.2863  -14.3938   24.3999 O   0  0  0  0  0  0  0  0  0  0  0  0
    5.7972  -19.3425   24.3700 O   0  0  0  0  0  0  0  0  0  0  0  0
    6.4856  -12.1460   26.7954 C   0  0  0  0  0  0  0  0  0  0  0  0
    7.6275  -12.9439   26.1795 C   0  0  2  0  0  0  0  0  0  0  0  0
    7.1871  -13.7772   25.1037 N   0  0  0  0  0  0  0  0  0  0  0  0
    8.1630  -13.8060   27.2820 C   0  0  0  0  0  0  0  0  0  0  0  0
    8.8687  -13.2543   28.3165 O   0  0  0  0  0  0  0  0  0  0  0  0
    7.9493  -15.0449   27.2345 O   0  0  0  0  0  0  0  0  0  0  0  0
  1  2  1  0
  3  4  2  0
  3  2  1  0
  5  3  1  0
  6  5  1  0
  6 11  1  0
  6  7  1  1
  8  7  1  0
  9  8  1  0
 10  9  2  0
 11 12  2  0
 13  9  1  0
 15 14  1  1
 16 11  1  0
 16 15  1  0
 17 18  1  0
 17 15  1  0
 19 17  2  0
M  END
$$$$
