GEA.pdb
     RDKit          3D

 19 18  0  0  1  0  0  0  0  0999 V2000
   -1.1249  -26.7683   29.7582 N   0  0  0  0  0  0  0  0  0  0  0  0
   -2.1269  -26.6338   30.7982 C   0  0  0  0  0  0  0  0  0  0  0  0
   -3.4363  -26.1914   30.2347 C   0  0  0  0  0  0  0  0  0  0  0  0
   -3.5244  -25.7229   29.0929 O   0  0  0  0  0  0  0  0  0  0  0  0
   -4.6025  -26.3079   31.0172 N   0  0  0  0  0  0  0  0  0  0  0  0
   -5.9028  -25.8459   30.6176 C   0  0  1  0  0  0  0  0  0  0  0  0
   -6.9359  -26.6340   31.3997 C   0  0  0  0  0  0  0  0  0  0  0  0
   -8.3384  -26.2777   30.9347 C   0  0  0  0  0  0  0  0  0  0  0  0
   -9.3692  -27.0510   31.6352 C   0  0  0  0  0  0  0  0  0  0  0  0
   -9.4913  -26.8757   32.8747 O   0  0  0  0  0  0  0  0  0  0  0  0
   -6.0776  -24.4018   30.7390 C   0  0  0  0  0  0  0  0  0  0  0  0
   -5.7974  -23.8037   31.8082 O   0  0  0  0  0  0  0  0  0  0  0  0
  -10.1687  -27.9377   30.9351 O   0  0  0  0  0  0  0  0  0  0  0  0
   -7.1228  -21.6708   28.2910 C   0  0  0  0  0  0  0  0  0  0  0  0
   -6.7186  -22.2135   29.6556 C   0  0  2  0  0  0  0  0  0  0  0  0
   -6.5694  -23.6360   29.6500 N   0  0  0  0  0  0  0  0  0  0  0  0
   -7.8301  -21.8391   30.5883 C   0  0  0  0  0  0  0  0  0  0  0  0
   -7.8985  -20.5798   31.1193 O   0  0  0  0  0  0  0  0  0  0  0  0
   -8.6961  -22.7069   30.8708 O   0  0  0  0  0  0  0  0  0  0  0  0
  1  2  1  0
  3  4  2  0
  3  2  1  0
  5  3  1  0
  6  5  1  0
  6 11  1  0
  6  7  1  1
  8  7  1  0
  9  8  1  0
 10  9  2  0
 11 12  2  0
 13  9  1  0
 15 14  1  6
 16 11  1  0
 16 15  1  0
 17 18  1  0
 17 15  1  0
 19 17  2  0
M  END
$$$$
