GEA.pdb
     RDKit          3D

 19 18  0  0  1  0  0  0  0  0999 V2000
    6.6666  -19.6884   18.1378 N   0  0  0  0  0  0  0  0  0  0  0  0
    7.6854  -18.7203   18.4962 C   0  0  0  0  0  0  0  0  0  0  0  0
    8.7258  -19.3295   19.3760 C   0  0  0  0  0  0  0  0  0  0  0  0
    8.5654  -20.4420   19.8932 O   0  0  0  0  0  0  0  0  0  0  0  0
    9.9205  -18.6254   19.6268 N   0  0  0  0  0  0  0  0  0  0  0  0
   10.9984  -19.1117   20.4425 C   0  0  1  0  0  0  0  0  0  0  0  0
   12.2825  -18.4809   19.9392 C   0  0  0  0  0  0  0  0  0  0  0  0
   13.4509  -19.4348   20.1261 C   0  0  0  0  0  0  0  0  0  0  0  0
   14.7053  -18.8866   19.5997 C   0  0  0  0  0  0  0  0  0  0  0  0
   15.5816  -18.5298   20.4284 O   0  0  0  0  0  0  0  0  0  0  0  0
   10.7900  -18.9128   21.8736 C   0  0  0  0  0  0  0  0  0  0  0  0
   10.5444  -17.7716   22.3392 O   0  0  0  0  0  0  0  0  0  0  0  0
   14.8959  -18.7753   18.2333 O   0  0  0  0  0  0  0  0  0  0  0  0
    9.9216  -21.1331   24.7420 C   0  0  0  0  0  0  0  0  0  0  0  0
   10.6446  -19.9126   24.1871 C   0  0  2  0  0  0  0  0  0  0  0  0
   10.8597  -20.0058   22.7762 N   0  0  0  0  0  0  0  0  0  0  0  0
   11.9700  -19.8721   24.8851 C   0  0  0  0  0  0  0  0  0  0  0  0
   12.0397  -19.6517   26.2339 O   0  0  0  0  0  0  0  0  0  0  0  0
   13.0138  -20.0450   24.2044 O   0  0  0  0  0  0  0  0  0  0  0  0
  1  2  1  0
  3  4  2  0
  3  2  1  0
  5  3  1  0
  6  5  1  0
  6 11  1  0
  6  7  1  6
  8  7  1  0
  9  8  1  0
 10  9  2  0
 11 12  2  0
 13  9  1  0
 15 14  1  1
 16 11  1  0
 16 15  1  0
 17 18  1  0
 17 15  1  0
 19 17  2  0
M  END
$$$$
