GEA.pdb
     RDKit          3D

 19 18  0  0  1  0  0  0  0  0999 V2000
    7.5363  -17.5574   18.5754 N   0  0  0  0  0  0  0  0  0  0  0  0
    8.8622  -17.0143   18.8009 C   0  0  0  0  0  0  0  0  0  0  0  0
    9.4984  -17.6217   20.0066 C   0  0  0  0  0  0  0  0  0  0  0  0
    8.8695  -18.3750   20.7602 O   0  0  0  0  0  0  0  0  0  0  0  0
   10.8467  -17.3337   20.2983 N   0  0  0  0  0  0  0  0  0  0  0  0
   11.5466  -17.7977   21.4640 C   0  0  1  0  0  0  0  0  0  0  0  0
   12.9529  -18.1763   21.0410 C   0  0  0  0  0  0  0  0  0  0  0  0
   13.2583  -17.6223   19.6590 C   0  0  0  0  0  0  0  0  0  0  0  0
   14.4505  -18.2367   19.0653 C   0  0  0  0  0  0  0  0  0  0  0  0
   14.2803  -19.0635   18.1330 O   0  0  0  0  0  0  0  0  0  0  0  0
   11.5221  -16.8561   22.5792 C   0  0  0  0  0  0  0  0  0  0  0  0
   12.4418  -16.0139   22.7352 O   0  0  0  0  0  0  0  0  0  0  0  0
   15.7101  -17.9023   19.5316 O   0  0  0  0  0  0  0  0  0  0  0  0
    8.9559  -15.2918   24.6462 C   0  0  0  0  0  0  0  0  0  0  0  0
   10.3247  -15.9591   24.6126 C   0  0  2  0  0  0  0  0  0  0  0  0
   10.4567  -16.8687   23.5168 N   0  0  0  0  0  0  0  0  0  0  0  0
   10.4391  -16.7188   25.8992 C   0  0  0  0  0  0  0  0  0  0  0  0
   10.5199  -18.0848   25.8959 O   0  0  0  0  0  0  0  0  0  0  0  0
   10.4592  -16.0734   26.9789 O   0  0  0  0  0  0  0  0  0  0  0  0
  1  2  1  0
  3  4  2  0
  3  2  1  0
  5  3  1  0
  6  5  1  0
  6 11  1  0
  6  7  1  6
  8  7  1  0
  9  8  1  0
 10  9  2  0
 11 12  2  0
 13  9  1  0
 15 14  1  1
 16 11  1  0
 16 15  1  0
 17 18  1  0
 17 15  1  0
 19 17  2  0
M  END
$$$$
