GEA.pdb
     RDKit          3D

 19 18  0  0  1  0  0  0  0  0999 V2000
    2.2428  -19.3002   20.7981 N   0  0  0  0  0  0  0  0  0  0  0  0
    3.6243  -18.8659   20.8790 C   0  0  0  0  0  0  0  0  0  0  0  0
    4.3065  -19.4493   22.0715 C   0  0  0  0  0  0  0  0  0  0  0  0
    3.7350  -19.5373   23.1654 O   0  0  0  0  0  0  0  0  0  0  0  0
    5.6324  -19.9121   21.9543 N   0  0  0  0  0  0  0  0  0  0  0  0
    6.4330  -20.3809   23.0511 C   0  0  1  0  0  0  0  0  0  0  0  0
    7.3312  -21.4866   22.5308 C   0  0  0  0  0  0  0  0  0  0  0  0
    8.0795  -22.1460   23.6777 C   0  0  0  0  0  0  0  0  0  0  0  0
    8.9641  -23.2219   23.2181 C   0  0  0  0  0  0  0  0  0  0  0  0
   10.1703  -23.1794   23.5720 O   0  0  0  0  0  0  0  0  0  0  0  0
    7.1708  -19.3236   23.7356 C   0  0  0  0  0  0  0  0  0  0  0  0
    7.8887  -18.5158   23.0940 O   0  0  0  0  0  0  0  0  0  0  0  0
    8.4660  -24.2391   22.4226 O   0  0  0  0  0  0  0  0  0  0  0  0
    6.7928  -17.1833   26.5349 C   0  0  0  0  0  0  0  0  0  0  0  0
    7.7659  -18.1680   25.8998 C   0  0  2  0  0  0  0  0  0  0  0  0
    7.0954  -19.1817   25.1458 N   0  0  0  0  0  0  0  0  0  0  0  0
    8.5002  -18.8071   27.0390 C   0  0  0  0  0  0  0  0  0  0  0  0
    9.3003  -18.0584   27.8587 O   0  0  0  0  0  0  0  0  0  0  0  0
    8.3644  -20.0441   27.2237 O   0  0  0  0  0  0  0  0  0  0  0  0
  1  2  1  0
  3  4  2  0
  3  2  1  0
  5  3  1  0
  6  5  1  0
  6 11  1  0
  6  7  1  6
  8  7  1  0
  9  8  1  0
 10  9  2  0
 11 12  2  0
 13  9  1  0
 15 14  1  1
 16 11  1  0
 16 15  1  0
 17 18  1  0
 17 15  1  0
 19 17  2  0
M  END
$$$$
