GEA.pdb
     RDKit          3D

 19 18  0  0  1  0  0  0  0  0999 V2000
    7.3988  -13.2557   18.3894 N   0  0  0  0  0  0  0  0  0  0  0  0
    8.8190  -12.9616   18.4035 C   0  0  0  0  0  0  0  0  0  0  0  0
    9.6104  -14.1351   18.8767 C   0  0  0  0  0  0  0  0  0  0  0  0
    9.0603  -15.1466   19.3298 O   0  0  0  0  0  0  0  0  0  0  0  0
   11.0174  -14.0955   18.8081 N   0  0  0  0  0  0  0  0  0  0  0  0
   11.8859  -15.1524   19.2469 C   0  0  1  0  0  0  0  0  0  0  0  0
   13.1609  -15.0751   18.4291 C   0  0  0  0  0  0  0  0  0  0  0  0
   12.8912  -15.4734   16.9874 C   0  0  0  0  0  0  0  0  0  0  0  0
   14.1162  -15.5047   16.1813 C   0  0  0  0  0  0  0  0  0  0  0  0
   15.1832  -15.8493   16.7510 O   0  0  0  0  0  0  0  0  0  0  0  0
   12.1323  -15.1532   20.6857 C   0  0  0  0  0  0  0  0  0  0  0  0
   12.8642  -14.2806   21.2173 O   0  0  0  0  0  0  0  0  0  0  0  0
   14.0750  -15.1625   14.8408 O   0  0  0  0  0  0  0  0  0  0  0  0
   10.5668  -17.0607   23.5716 C   0  0  0  0  0  0  0  0  0  0  0  0
   11.6059  -16.1361   22.9506 C   0  0  2  0  0  0  0  0  0  0  0  0
   11.5500  -16.1415   21.5214 N   0  0  0  0  0  0  0  0  0  0  0  0
   12.9368  -16.6638   23.3928 C   0  0  0  0  0  0  0  0  0  0  0  0
   13.8251  -17.1646   22.4803 O   0  0  0  0  0  0  0  0  0  0  0  0
   13.2176  -16.6358   24.6189 O   0  0  0  0  0  0  0  0  0  0  0  0
  1  2  1  0
  3  4  2  0
  3  2  1  0
  5  3  1  0
  6  5  1  0
  6 11  1  0
  6  7  1  6
  8  7  1  0
  9  8  1  0
 10  9  2  0
 11 12  2  0
 13  9  1  0
 15 14  1  1
 16 11  1  0
 16 15  1  0
 17 18  1  0
 17 15  1  0
 19 17  2  0
M  END
$$$$
