GEA.pdb
     RDKit          3D

 19 18  0  0  1  0  0  0  0  0999 V2000
    4.2885  -23.0971   24.8926 N   0  0  0  0  0  0  0  0  0  0  0  0
    5.0753  -21.9205   25.2092 C   0  0  0  0  0  0  0  0  0  0  0  0
    6.4128  -22.2943   25.7559 C   0  0  0  0  0  0  0  0  0  0  0  0
    6.6001  -23.3775   26.3239 O   0  0  0  0  0  0  0  0  0  0  0  0
    7.4910  -21.3964   25.6249 N   0  0  0  0  0  0  0  0  0  0  0  0
    8.8370  -21.6704   26.0456 C   0  0  1  0  0  0  0  0  0  0  0  0
    9.7742  -20.9095   25.1276 C   0  0  0  0  0  0  0  0  0  0  0  0
   11.2160  -21.3136   25.3883 C   0  0  0  0  0  0  0  0  0  0  0  0
   12.1507  -20.6660   24.4618 C   0  0  0  0  0  0  0  0  0  0  0  0
   13.3693  -20.9622   24.5573 O   0  0  0  0  0  0  0  0  0  0  0  0
    9.0793  -21.3973   27.4589 C   0  0  0  0  0  0  0  0  0  0  0  0
    8.7445  -20.3002   27.9726 O   0  0  0  0  0  0  0  0  0  0  0  0
   11.6843  -19.7629   23.5224 O   0  0  0  0  0  0  0  0  0  0  0  0
   10.2191  -23.5481   30.3749 C   0  0  0  0  0  0  0  0  0  0  0  0
    9.9085  -22.2199   29.6969 C   0  0  2  0  0  0  0  0  0  0  0  0
    9.7003  -22.3662   28.2895 N   0  0  0  0  0  0  0  0  0  0  0  0
   11.1088  -21.3535   29.9293 C   0  0  0  0  0  0  0  0  0  0  0  0
   11.8411  -20.8813   28.8742 O   0  0  0  0  0  0  0  0  0  0  0  0
   11.4267  -21.0713   31.1135 O   0  0  0  0  0  0  0  0  0  0  0  0
  1  2  1  0
  3  4  2  0
  3  2  1  0
  5  3  1  0
  6  5  1  0
  6 11  1  0
  6  7  1  6
  8  7  1  0
  9  8  1  0
 10  9  2  0
 11 12  2  0
 13  9  1  0
 15 14  1  6
 16 11  1  0
 16 15  1  0
 17 18  1  0
 17 15  1  0
 19 17  2  0
M  END
$$$$
