GEA.pdb
     RDKit          3D

 19 18  0  0  1  0  0  0  0  0999 V2000
    7.1262  -12.7780   17.9606 N   0  0  0  0  0  0  0  0  0  0  0  0
    8.4121  -12.7694   18.6313 C   0  0  0  0  0  0  0  0  0  0  0  0
    8.6553  -14.0533   19.3526 C   0  0  0  0  0  0  0  0  0  0  0  0
    7.7786  -14.9218   19.4416 O   0  0  0  0  0  0  0  0  0  0  0  0
    9.9110  -14.2868   19.9480 N   0  0  0  0  0  0  0  0  0  0  0  0
   10.2662  -15.4820   20.6616 C   0  0  1  0  0  0  0  0  0  0  0  0
   11.6798  -15.8586   20.2616 C   0  0  0  0  0  0  0  0  0  0  0  0
   12.0678  -17.1927   20.8778 C   0  0  0  0  0  0  0  0  0  0  0  0
   13.3857  -17.6511   20.4258 C   0  0  0  0  0  0  0  0  0  0  0  0
   14.2693  -16.7802   20.2192 O   0  0  0  0  0  0  0  0  0  0  0  0
   10.0927  -15.3782   22.1073 C   0  0  0  0  0  0  0  0  0  0  0  0
   10.7714  -14.5648   22.7837 O   0  0  0  0  0  0  0  0  0  0  0  0
   13.6257  -19.0015   20.2398 O   0  0  0  0  0  0  0  0  0  0  0  0
    7.4988  -16.6120   24.5496 C   0  0  0  0  0  0  0  0  0  0  0  0
    8.9102  -16.1620   24.1954 C   0  0  2  0  0  0  0  0  0  0  0  0
    9.1513  -16.1951   22.7860 N   0  0  0  0  0  0  0  0  0  0  0  0
    9.8292  -17.1314   24.8746 C   0  0  0  0  0  0  0  0  0  0  0  0
    9.9327  -17.1532   26.2389 O   0  0  0  0  0  0  0  0  0  0  0  0
   10.5012  -17.9223   24.1634 O   0  0  0  0  0  0  0  0  0  0  0  0
  1  2  1  0
  3  4  2  0
  3  2  1  0
  5  3  1  0
  6  5  1  0
  6 11  1  0
  6  7  1  1
  8  7  1  0
  9  8  1  0
 10  9  2  0
 11 12  2  0
 13  9  1  0
 15 14  1  6
 16 11  1  0
 16 15  1  0
 17 18  1  0
 17 15  1  0
 19 17  2  0
M  END
$$$$
