GEA.pdb
     RDKit          3D

 19 18  0  0  1  0  0  0  0  0999 V2000
    6.6993  -12.9283   19.0297 N   0  0  0  0  0  0  0  0  0  0  0  0
    8.1095  -13.2448   19.1514 C   0  0  0  0  0  0  0  0  0  0  0  0
    8.3184  -14.4893   19.9482 C   0  0  0  0  0  0  0  0  0  0  0  0
    7.4023  -14.9982   20.6060 O   0  0  0  0  0  0  0  0  0  0  0  0
    9.5869  -15.1033   19.9551 N   0  0  0  0  0  0  0  0  0  0  0  0
    9.9367  -16.2447   20.7544 C   0  0  1  0  0  0  0  0  0  0  0  0
   10.9383  -17.0708   19.9705 C   0  0  0  0  0  0  0  0  0  0  0  0
   11.2126  -18.3862   20.6809 C   0  0  0  0  0  0  0  0  0  0  0  0
   12.1487  -19.2350   19.9364 C   0  0  0  0  0  0  0  0  0  0  0  0
   11.7585  -19.7174   18.8424 O   0  0  0  0  0  0  0  0  0  0  0  0
   10.4053  -15.9039   22.0942 C   0  0  0  0  0  0  0  0  0  0  0  0
   11.3965  -15.1495   22.2607 O   0  0  0  0  0  0  0  0  0  0  0  0
   13.4137  -19.4829   20.4405 O   0  0  0  0  0  0  0  0  0  0  0  0
    8.8234  -15.8297   25.4372 C   0  0  0  0  0  0  0  0  0  0  0  0
   10.0696  -16.0576   24.5916 C   0  0  2  0  0  0  0  0  0  0  0  0
    9.7514  -16.4175   23.2444 N   0  0  0  0  0  0  0  0  0  0  0  0
   10.8024  -17.1906   25.2434 C   0  0  0  0  0  0  0  0  0  0  0  0
   11.4414  -17.0095   26.4399 O   0  0  0  0  0  0  0  0  0  0  0  0
   10.8164  -18.3087   24.6668 O   0  0  0  0  0  0  0  0  0  0  0  0
  1  2  1  0
  3  4  2  0
  3  2  1  0
  5  3  1  0
  6  5  1  0
  6 11  1  0
  6  7  1  6
  8  7  1  0
  9  8  1  0
 10  9  2  0
 11 12  2  0
 13  9  1  0
 15 14  1  1
 16 11  1  0
 16 15  1  0
 17 18  1  0
 17 15  1  0
 19 17  2  0
M  END
$$$$
