DES.pdb
     RDKit          3D

 24 23  0  0  1  0  0  0  0  0999 V2000
   11.5600  -16.5465   18.7818 N   0  0  0  0  0  0  0  0  0  0  0  0
   12.0750  -16.0602   20.0470 C   0  0  1  0  0  0  0  0  0  0  0  0
   12.4089  -14.6125   19.9046 C   0  0  0  0  0  0  0  0  0  0  0  0
   13.6619  -14.4571   19.1634 C   0  0  0  0  0  0  0  0  0  0  0  0
   14.3611  -15.4635   18.8925 O   0  0  0  0  0  0  0  0  0  0  0  0
   11.0635  -16.2137   21.1460 C   0  0  0  0  0  0  0  0  0  0  0  0
    9.8932  -15.9907   20.8303 O   0  0  0  0  0  0  0  0  0  0  0  0
   14.0850  -13.1821   18.7537 O   0  0  0  0  0  0  0  0  0  0  0  0
   11.3798  -16.5790   22.4394 N   0  0  0  0  0  0  0  0  0  0  0  0
   10.5066  -16.9485   23.4657 C   0  0  1  0  0  0  0  0  0  0  0  0
   10.3735  -18.3902   23.8518 C   0  0  0  0  0  0  0  0  0  0  0  0
   11.6724  -18.9357   24.3518 C   0  0  0  0  0  0  0  0  0  0  0  0
   11.5406  -20.3818   24.7600 C   0  0  0  0  0  0  0  0  0  0  0  0
   11.2418  -20.6217   25.9529 O   0  0  0  0  0  0  0  0  0  0  0  0
   10.5627  -16.0097   24.5824 C   0  0  0  0  0  0  0  0  0  0  0  0
   11.6581  -15.4475   24.8474 O   0  0  0  0  0  0  0  0  0  0  0  0
   11.7317  -21.4217   23.8918 O   0  0  0  0  0  0  0  0  0  0  0  0
    8.5504  -12.8116   27.5136 O   0  0  0  0  0  0  0  0  0  0  0  0
    8.3180  -13.7971   26.5451 C   0  0  0  0  0  0  0  0  0  0  0  0
    9.5802  -14.6224   26.4401 C   0  0  2  0  0  0  0  0  0  0  0  0
    9.4742  -15.6510   25.4310 N   0  0  0  0  0  0  0  0  0  0  0  0
    9.8285  -15.2166   27.7746 C   0  0  0  0  0  0  0  0  0  0  0  0
    9.6902  -16.4535   27.9091 O   0  0  0  0  0  0  0  0  0  0  0  0
   10.2051  -14.4505   28.8653 O   0  0  0  0  0  0  0  0  0  0  0  0
  2  1  1  6
  3  4  1  0
  3  2  1  0
  4  8  1  0
  5  4  2  0
  6  2  1  0
  6  7  2  0
  9 10  1  0
  9  6  1  0
 10 15  1  0
 10 11  1  1
 12 11  1  0
 12 13  1  0
 13 14  2  0
 15 16  2  0
 15 21  1  0
 17 13  1  0
 18 19  1  0
 20 19  1  1
 20 22  1  0
 21 20  1  0
 22 23  2  0
 22 24  1  0
M  END
$$$$
