DES.pdb
     RDKit          3D

 24 23  0  0  1  0  0  0  0  0999 V2000
   14.7929  -14.2454   16.5855 N   0  0  0  0  0  0  0  0  0  0  0  0
   15.1264  -14.8604   17.8555 C   0  0  1  0  0  0  0  0  0  0  0  0
   15.9001  -13.8814   18.6743 C   0  0  0  0  0  0  0  0  0  0  0  0
   17.1955  -13.6150   18.0462 C   0  0  0  0  0  0  0  0  0  0  0  0
   17.6953  -14.4523   17.2562 O   0  0  0  0  0  0  0  0  0  0  0  0
   13.8922  -15.2525   18.6155 C   0  0  0  0  0  0  0  0  0  0  0  0
   12.8477  -14.7048   18.2579 O   0  0  0  0  0  0  0  0  0  0  0  0
   17.8824  -12.4223   18.3258 O   0  0  0  0  0  0  0  0  0  0  0  0
   13.8827  -16.1628   19.6537 N   0  0  0  0  0  0  0  0  0  0  0  0
   12.7767  -16.7700   20.2539 C   0  0  1  0  0  0  0  0  0  0  0  0
   12.4252  -18.1866   19.9146 C   0  0  0  0  0  0  0  0  0  0  0  0
   11.2062  -18.6313   20.6570 C   0  0  0  0  0  0  0  0  0  0  0  0
   10.8161  -20.0387   20.2800 C   0  0  0  0  0  0  0  0  0  0  0  0
   10.6319  -20.8574   21.2103 O   0  0  0  0  0  0  0  0  0  0  0  0
   12.6796  -16.4287   21.6701 C   0  0  0  0  0  0  0  0  0  0  0  0
   13.7195  -16.4794   22.3786 O   0  0  0  0  0  0  0  0  0  0  0  0
   10.6588  -20.4466   18.9835 O   0  0  0  0  0  0  0  0  0  0  0  0
    9.1499  -15.7772   23.4935 O   0  0  0  0  0  0  0  0  0  0  0  0
   10.1643  -15.1256   24.2075 C   0  0  0  0  0  0  0  0  0  0  0  0
   11.4765  -15.7364   23.7711 C   0  0  2  0  0  0  0  0  0  0  0  0
   11.4946  -16.0313   22.3568 N   0  0  0  0  0  0  0  0  0  0  0  0
   11.6740  -16.9691   24.5692 C   0  0  0  0  0  0  0  0  0  0  0  0
   11.6838  -18.0688   23.9711 O   0  0  0  0  0  0  0  0  0  0  0  0
   11.8462  -16.9392   25.9432 O   0  0  0  0  0  0  0  0  0  0  0  0
  2  1  1  6
  3  4  1  0
  3  2  1  0
  4  8  1  0
  5  4  2  0
  6  2  1  0
  6  7  2  0
  9 10  1  0
  9  6  1  0
 10 15  1  0
 10 11  1  1
 12 11  1  0
 12 13  1  0
 13 14  2  0
 15 16  2  0
 15 21  1  0
 17 13  1  0
 18 19  1  0
 20 19  1  1
 20 22  1  0
 21 20  1  0
 22 23  2  0
 22 24  1  0
M  END
$$$$
