DES.pdb
     RDKit          3D

 24 23  0  0  1  0  0  0  0  0999 V2000
   10.2488  -19.2743   20.3065 N   0  0  0  0  0  0  0  0  0  0  0  0
   10.3160  -17.8358   20.4756 C   0  0  1  0  0  0  0  0  0  0  0  0
    9.7203  -17.1829   19.2730 C   0  0  0  0  0  0  0  0  0  0  0  0
   10.5998  -17.3638   18.1165 C   0  0  0  0  0  0  0  0  0  0  0  0
   11.8445  -17.2801   18.2541 O   0  0  0  0  0  0  0  0  0  0  0  0
    9.5540  -17.3905   21.6905 C   0  0  0  0  0  0  0  0  0  0  0  0
    8.3733  -17.0923   21.5013 O   0  0  0  0  0  0  0  0  0  0  0  0
   10.0536  -17.6312   16.8506 O   0  0  0  0  0  0  0  0  0  0  0  0
   10.1010  -17.3060   22.9555 N   0  0  0  0  0  0  0  0  0  0  0  0
    9.4415  -17.0569   24.1618 C   0  0  1  0  0  0  0  0  0  0  0  0
    9.6327  -17.9832   25.3240 C   0  0  0  0  0  0  0  0  0  0  0  0
   11.0421  -17.9400   25.8206 C   0  0  0  0  0  0  0  0  0  0  0  0
   11.2387  -18.8625   26.9976 C   0  0  0  0  0  0  0  0  0  0  0  0
   11.3003  -18.3434   28.1361 O   0  0  0  0  0  0  0  0  0  0  0  0
    9.4482  -15.6352   24.4937 C   0  0  0  0  0  0  0  0  0  0  0  0
   10.5226  -14.9894   24.3725 O   0  0  0  0  0  0  0  0  0  0  0  0
   11.3501  -20.2202   26.8699 O   0  0  0  0  0  0  0  0  0  0  0  0
    6.1529  -13.5190   25.8582 O   0  0  0  0  0  0  0  0  0  0  0  0
    7.1560  -12.7463   25.2584 C   0  0  0  0  0  0  0  0  0  0  0  0
    8.4523  -13.5099   25.4061 C   0  0  2  0  0  0  0  0  0  0  0  0
    8.3318  -14.8772   24.9548 N   0  0  0  0  0  0  0  0  0  0  0  0
    8.8313  -13.4588   26.8377 C   0  0  0  0  0  0  0  0  0  0  0  0
    8.9188  -14.5369   27.4678 O   0  0  0  0  0  0  0  0  0  0  0  0
    9.0885  -12.2649   27.4910 O   0  0  0  0  0  0  0  0  0  0  0  0
  2  1  1  6
  3  4  1  0
  3  2  1  0
  4  8  1  0
  5  4  2  0
  6  2  1  0
  6  7  2  0
  9 10  1  0
  9  6  1  0
 10 15  1  0
 10 11  1  1
 12 11  1  0
 12 13  1  0
 13 14  2  0
 15 16  2  0
 15 21  1  0
 17 13  1  0
 18 19  1  0
 20 19  1  1
 20 22  1  0
 21 20  1  0
 22 23  2  0
 22 24  1  0
M  END
$$$$
