DES.pdb
     RDKit          3D

 24 23  0  0  1  0  0  0  0  0999 V2000
   12.4937  -16.9499   15.4148 N   0  0  0  0  0  0  0  0  0  0  0  0
   11.2075  -16.3954   15.7896 C   0  0  1  0  0  0  0  0  0  0  0  0
   10.2159  -16.7192   14.7222 C   0  0  0  0  0  0  0  0  0  0  0  0
   10.5230  -15.9639   13.5061 C   0  0  0  0  0  0  0  0  0  0  0  0
   11.6699  -15.4830   13.3375 O   0  0  0  0  0  0  0  0  0  0  0  0
   10.7200  -16.9704   17.0881 C   0  0  0  0  0  0  0  0  0  0  0  0
    9.6473  -16.5253   17.5007 O   0  0  0  0  0  0  0  0  0  0  0  0
    9.5357  -15.7753   12.5253 O   0  0  0  0  0  0  0  0  0  0  0  0
   11.3971  -17.9361   17.8061 N   0  0  0  0  0  0  0  0  0  0  0  0
   11.0723  -18.4599   19.0601 C   0  0  1  0  0  0  0  0  0  0  0  0
   11.4655  -19.8631   19.4092 C   0  0  0  0  0  0  0  0  0  0  0  0
   12.9472  -20.0435   19.3259 C   0  0  0  0  0  0  0  0  0  0  0  0
   13.3549  -21.4377   19.7322 C   0  0  0  0  0  0  0  0  0  0  0  0
   14.0915  -21.5553   20.7388 O   0  0  0  0  0  0  0  0  0  0  0  0
   11.2729  -17.4771   20.1208 C   0  0  0  0  0  0  0  0  0  0  0  0
   12.2876  -16.7327   20.0737 O   0  0  0  0  0  0  0  0  0  0  0  0
   12.9572  -22.5577   19.0545 O   0  0  0  0  0  0  0  0  0  0  0  0
    9.9113  -15.0503   24.0851 O   0  0  0  0  0  0  0  0  0  0  0  0
    9.4964  -15.9545   23.0986 C   0  0  0  0  0  0  0  0  0  0  0  0
   10.7183  -16.3146   22.2846 C   0  0  2  0  0  0  0  0  0  0  0  0
   10.4141  -17.2644   21.2393 N   0  0  0  0  0  0  0  0  0  0  0  0
   11.7236  -16.8670   23.2227 C   0  0  0  0  0  0  0  0  0  0  0  0
   11.8734  -18.1090   23.2690 O   0  0  0  0  0  0  0  0  0  0  0  0
   12.4936  -16.0568   24.0407 O   0  0  0  0  0  0  0  0  0  0  0  0
  2  1  1  6
  3  4  1  0
  3  2  1  0
  4  8  1  0
  5  4  2  0
  6  2  1  0
  6  7  2  0
  9 10  1  0
  9  6  1  0
 10 15  1  0
 10 11  1  1
 12 11  1  0
 12 13  1  0
 13 14  2  0
 15 16  2  0
 15 21  1  0
 17 13  1  0
 18 19  1  0
 20 19  1  1
 20 22  1  0
 21 20  1  0
 22 23  2  0
 22 24  1  0
M  END
$$$$
