DES.pdb
     RDKit          3D

 24 23  0  0  1  0  0  0  0  0999 V2000
   13.3604  -19.3820   15.9216 N   0  0  0  0  0  0  0  0  0  0  0  0
   12.7895  -18.2009   16.5391 C   0  0  1  0  0  0  0  0  0  0  0  0
   11.4917  -17.8897   15.8708 C   0  0  0  0  0  0  0  0  0  0  0  0
   11.7338  -17.3508   14.5311 C   0  0  0  0  0  0  0  0  0  0  0  0
   12.8996  -17.3187   14.0676 O   0  0  0  0  0  0  0  0  0  0  0  0
   12.5359  -18.4161   18.0033 C   0  0  0  0  0  0  0  0  0  0  0  0
   11.4860  -18.9972   18.2842 O   0  0  0  0  0  0  0  0  0  0  0  0
   10.6628  -16.8684   13.7613 O   0  0  0  0  0  0  0  0  0  0  0  0
   13.3956  -18.0062   19.0030 N   0  0  0  0  0  0  0  0  0  0  0  0
   13.2709  -18.2087   20.3799 C   0  0  1  0  0  0  0  0  0  0  0  0
   14.3960  -18.8312   21.1493 C   0  0  0  0  0  0  0  0  0  0  0  0
   15.7194  -18.3265   20.6709 C   0  0  0  0  0  0  0  0  0  0  0  0
   16.8583  -18.9884   21.4055 C   0  0  0  0  0  0  0  0  0  0  0  0
   17.5825  -19.7798   20.7584 O   0  0  0  0  0  0  0  0  0  0  0  0
   12.6256  -17.0737   21.0332 C   0  0  0  0  0  0  0  0  0  0  0  0
   13.1891  -15.9483   20.9895 O   0  0  0  0  0  0  0  0  0  0  0  0
   17.1247  -18.7605   22.7280 O   0  0  0  0  0  0  0  0  0  0  0  0
    8.7195  -16.7526   21.9010 O   0  0  0  0  0  0  0  0  0  0  0  0
    9.4800  -15.5767   21.9451 C   0  0  0  0  0  0  0  0  0  0  0  0
   10.8578  -15.9576   22.4369 C   0  0  2  0  0  0  0  0  0  0  0  0
   11.3859  -17.1062   21.7373 N   0  0  0  0  0  0  0  0  0  0  0  0
   10.7459  -16.2302   23.8890 C   0  0  0  0  0  0  0  0  0  0  0  0
   10.3499  -15.3084   24.6377 O   0  0  0  0  0  0  0  0  0  0  0  0
   11.0636  -17.4627   24.4353 O   0  0  0  0  0  0  0  0  0  0  0  0
  2  1  1  6
  3  4  1  0
  3  2  1  0
  4  8  1  0
  5  4  2  0
  6  2  1  0
  6  7  2  0
  9 10  1  0
  9  6  1  0
 10 15  1  0
 10 11  1  1
 12 11  1  0
 12 13  1  0
 13 14  2  0
 15 16  2  0
 15 21  1  0
 17 13  1  0
 18 19  1  0
 20 19  1  6
 20 22  1  0
 21 20  1  0
 22 23  2  0
 22 24  1  0
M  END
$$$$
