DES.pdb
     RDKit          3D

 24 23  0  0  1  0  0  0  0  0999 V2000
   10.0812  -17.4460   17.4227 N   0  0  0  0  0  0  0  0  0  0  0  0
   10.9841  -18.2296   18.2432 C   0  0  1  0  0  0  0  0  0  0  0  0
   12.1490  -18.6482   17.4094 C   0  0  0  0  0  0  0  0  0  0  0  0
   11.6937  -19.4756   16.2906 C   0  0  0  0  0  0  0  0  0  0  0  0
   10.5547  -20.0019   16.3205 O   0  0  0  0  0  0  0  0  0  0  0  0
   11.4912  -17.4354   19.4122 C   0  0  0  0  0  0  0  0  0  0  0  0
   12.0114  -16.3524   19.1375 O   0  0  0  0  0  0  0  0  0  0  0  0
   12.5296  -19.6826   15.1811 O   0  0  0  0  0  0  0  0  0  0  0  0
   11.4013  -17.8531   20.7252 N   0  0  0  0  0  0  0  0  0  0  0  0
   11.8839  -17.2082   21.8669 C   0  0  1  0  0  0  0  0  0  0  0  0
   11.1871  -17.3921   23.1807 C   0  0  0  0  0  0  0  0  0  0  0  0
   11.8725  -16.6249   24.2655 C   0  0  0  0  0  0  0  0  0  0  0  0
   11.1946  -16.8311   25.5971 C   0  0  0  0  0  0  0  0  0  0  0  0
   10.9013  -15.8103   26.2616 O   0  0  0  0  0  0  0  0  0  0  0  0
   13.3422  -17.2436   21.9276 C   0  0  0  0  0  0  0  0  0  0  0  0
   13.9163  -18.3558   22.0675 O   0  0  0  0  0  0  0  0  0  0  0  0
   10.8940  -18.0688   26.0965 O   0  0  0  0  0  0  0  0  0  0  0  0
   17.6887  -15.3550   21.0903 O   0  0  0  0  0  0  0  0  0  0  0  0
   16.3212  -15.0607   21.1710 C   0  0  0  0  0  0  0  0  0  0  0  0
   15.6511  -16.2433   21.8325 C   0  0  2  0  0  0  0  0  0  0  0  0
   14.2119  -16.1167   21.8423 N   0  0  0  0  0  0  0  0  0  0  0  0
   16.1819  -16.3330   23.2131 C   0  0  0  0  0  0  0  0  0  0  0  0
   15.4778  -15.8927   24.1499 O   0  0  0  0  0  0  0  0  0  0  0  0
   17.4213  -16.8842   23.4931 O   0  0  0  0  0  0  0  0  0  0  0  0
  2  1  1  6
  3  4  1  0
  3  2  1  0
  4  8  1  0
  5  4  2  0
  6  2  1  0
  6  7  2  0
  9 10  1  0
  9  6  1  0
 10 15  1  0
 10 11  1  1
 12 11  1  0
 12 13  1  0
 13 14  2  0
 15 16  2  0
 15 21  1  0
 17 13  1  0
 18 19  1  0
 20 19  1  1
 20 22  1  0
 21 20  1  0
 22 23  2  0
 22 24  1  0
M  END
$$$$
