DES.pdb
     RDKit          3D

 24 23  0  0  1  0  0  0  0  0999 V2000
   13.2004  -20.1371   18.9259 N   0  0  0  0  0  0  0  0  0  0  0  0
   13.2140  -18.8244   19.5416 C   0  0  1  0  0  0  0  0  0  0  0  0
   13.4416  -17.7992   18.4811 C   0  0  0  0  0  0  0  0  0  0  0  0
   14.8512  -17.7911   18.0854 C   0  0  0  0  0  0  0  0  0  0  0  0
   15.7502  -17.8011   18.9612 O   0  0  0  0  0  0  0  0  0  0  0  0
   11.9110  -18.5264   20.2256 C   0  0  0  0  0  0  0  0  0  0  0  0
   10.9393  -18.3764   19.4826 O   0  0  0  0  0  0  0  0  0  0  0  0
   15.2015  -17.7721   16.7255 O   0  0  0  0  0  0  0  0  0  0  0  0
   11.7658  -18.4186   21.5945 N   0  0  0  0  0  0  0  0  0  0  0  0
   10.5905  -18.2076   22.3199 C   0  0  1  0  0  0  0  0  0  0  0  0
   10.2029  -19.1600   23.4098 C   0  0  0  0  0  0  0  0  0  0  0  0
   10.8551  -20.4915   23.2182 C   0  0  0  0  0  0  0  0  0  0  0  0
   10.4005  -21.4815   24.2615 C   0  0  0  0  0  0  0  0  0  0  0  0
   10.5707  -21.1743   25.4641 O   0  0  0  0  0  0  0  0  0  0  0  0
   10.3995  -16.7946   22.6336 C   0  0  0  0  0  0  0  0  0  0  0  0
   11.3916  -16.1187   23.0147 O   0  0  0  0  0  0  0  0  0  0  0  0
    9.8198  -22.6801   23.9486 O   0  0  0  0  0  0  0  0  0  0  0  0
    7.0173  -14.7093   21.8278 O   0  0  0  0  0  0  0  0  0  0  0  0
    8.1122  -13.8994   22.1573 C   0  0  0  0  0  0  0  0  0  0  0  0
    9.0249  -14.7236   23.0365 C   0  0  2  0  0  0  0  0  0  0  0  0
    9.1701  -16.0768   22.5514 N   0  0  0  0  0  0  0  0  0  0  0  0
    8.4480  -14.7118   24.4013 C   0  0  0  0  0  0  0  0  0  0  0  0
    8.0562  -15.7958   24.8899 O   0  0  0  0  0  0  0  0  0  0  0  0
    8.3313  -13.5482   25.1434 O   0  0  0  0  0  0  0  0  0  0  0  0
  2  1  1  6
  3  4  1  0
  3  2  1  0
  4  8  1  0
  5  4  2  0
  6  2  1  0
  6  7  2  0
  9 10  1  0
  9  6  1  0
 10 15  1  0
 10 11  1  1
 12 11  1  0
 12 13  1  0
 13 14  2  0
 15 16  2  0
 15 21  1  0
 17 13  1  0
 18 19  1  0
 20 19  1  6
 20 22  1  0
 21 20  1  0
 22 23  2  0
 22 24  1  0
M  END
$$$$
