DES.pdb
     RDKit          3D

 24 23  0  0  1  0  0  0  0  0999 V2000
    9.9502  -14.1543   19.1174 N   0  0  0  0  0  0  0  0  0  0  0  0
    8.6157  -13.7297   19.4931 C   0  0  1  0  0  0  0  0  0  0  0  0
    7.6519  -14.2028   18.4564 C   0  0  0  0  0  0  0  0  0  0  0  0
    8.2214  -14.0179   17.1203 C   0  0  0  0  0  0  0  0  0  0  0  0
    9.0564  -14.8413   16.6733 O   0  0  0  0  0  0  0  0  0  0  0  0
    8.2118  -14.3024   20.8211 C   0  0  0  0  0  0  0  0  0  0  0  0
    7.0711  -14.0267   21.1975 O   0  0  0  0  0  0  0  0  0  0  0  0
    7.8351  -12.9192   16.3354 O   0  0  0  0  0  0  0  0  0  0  0  0
    9.0327  -15.0913   21.6023 N   0  0  0  0  0  0  0  0  0  0  0  0
    8.7366  -15.6860   22.8315 C   0  0  1  0  0  0  0  0  0  0  0  0
    9.4238  -16.9555   23.2331 C   0  0  0  0  0  0  0  0  0  0  0  0
    9.3108  -17.1861   24.7058 C   0  0  0  0  0  0  0  0  0  0  0  0
    9.9792  -18.4754   25.1132 C   0  0  0  0  0  0  0  0  0  0  0  0
    9.6207  -18.9970   26.1944 O   0  0  0  0  0  0  0  0  0  0  0  0
    8.6030  -14.6906   23.8911 C   0  0  0  0  0  0  0  0  0  0  0  0
    9.6222  -14.0406   24.2443 O   0  0  0  0  0  0  0  0  0  0  0  0
   10.9447  -19.0850   24.3594 O   0  0  0  0  0  0  0  0  0  0  0  0
    6.0065  -11.7424   26.6917 O   0  0  0  0  0  0  0  0  0  0  0  0
    5.9521  -12.7291   25.6984 C   0  0  0  0  0  0  0  0  0  0  0  0
    7.3390  -13.3196   25.5833 C   0  0  2  0  0  0  0  0  0  0  0  0
    7.4028  -14.3668   24.5899 N   0  0  0  0  0  0  0  0  0  0  0  0
    7.7074  -13.8390   26.9213 C   0  0  0  0  0  0  0  0  0  0  0  0
    7.7082  -15.0784   27.0977 O   0  0  0  0  0  0  0  0  0  0  0  0
    8.0472  -13.0012   27.9705 O   0  0  0  0  0  0  0  0  0  0  0  0
  2  1  1  6
  3  4  1  0
  3  2  1  0
  4  8  1  0
  5  4  2  0
  6  2  1  0
  6  7  2  0
  9 10  1  0
  9  6  1  0
 10 15  1  0
 10 11  1  1
 12 11  1  0
 12 13  1  0
 13 14  2  0
 15 16  2  0
 15 21  1  0
 17 13  1  0
 18 19  1  0
 20 19  1  1
 20 22  1  0
 21 20  1  0
 22 23  2  0
 22 24  1  0
M  END
$$$$
