DES.pdb
     RDKit          3D

 24 23  0  0  1  0  0  0  0  0999 V2000
    3.1348  -20.1232   20.7202 N   0  0  0  0  0  0  0  0  0  0  0  0
    4.5271  -20.4206   20.9949 C   0  0  1  0  0  0  0  0  0  0  0  0
    5.3824  -19.4979   20.1920 C   0  0  0  0  0  0  0  0  0  0  0  0
    5.2932  -19.8400   18.7712 C   0  0  0  0  0  0  0  0  0  0  0  0
    4.5943  -20.8149   18.4019 O   0  0  0  0  0  0  0  0  0  0  0  0
    4.8513  -20.2323   22.4489 C   0  0  0  0  0  0  0  0  0  0  0  0
    4.1690  -19.3967   23.0448 O   0  0  0  0  0  0  0  0  0  0  0  0
    5.9889  -19.0787   17.8179 O   0  0  0  0  0  0  0  0  0  0  0  0
    5.8406  -20.9284   23.1147 N   0  0  0  0  0  0  0  0  0  0  0  0
    6.1266  -20.9182   24.4823 C   0  0  1  0  0  0  0  0  0  0  0  0
    6.3013  -22.2110   25.2196 C   0  0  0  0  0  0  0  0  0  0  0  0
    5.9402  -22.0607   26.6625 C   0  0  0  0  0  0  0  0  0  0  0  0
    6.1130  -23.3591   27.4105 C   0  0  0  0  0  0  0  0  0  0  0  0
    6.3220  -24.3931   26.7346 O   0  0  0  0  0  0  0  0  0  0  0  0
    7.0901  -19.8752   24.8215 C   0  0  0  0  0  0  0  0  0  0  0  0
    8.1260  -19.7540   24.1156 O   0  0  0  0  0  0  0  0  0  0  0  0
    6.0512  -23.4474   28.7744 O   0  0  0  0  0  0  0  0  0  0  0  0
    8.4224  -15.7733   26.9382 O   0  0  0  0  0  0  0  0  0  0  0  0
    7.3696  -16.6711   26.7179 C   0  0  0  0  0  0  0  0  0  0  0  0
    7.9775  -17.9416   26.1686 C   0  0  2  0  0  0  0  0  0  0  0  0
    6.9783  -18.9504   25.9013 N   0  0  0  0  0  0  0  0  0  0  0  0
    8.9609  -18.4247   27.1661 C   0  0  0  0  0  0  0  0  0  0  0  0
    8.6346  -19.3788   27.9079 O   0  0  0  0  0  0  0  0  0  0  0  0
   10.2171  -17.8567   27.2994 O   0  0  0  0  0  0  0  0  0  0  0  0
  2  1  1  1
  3  4  1  0
  3  2  1  0
  4  8  1  0
  5  4  2  0
  6  2  1  0
  6  7  2  0
  9 10  1  0
  9  6  1  0
 10 15  1  0
 10 11  1  6
 12 11  1  0
 12 13  1  0
 13 14  2  0
 15 16  2  0
 15 21  1  0
 17 13  1  0
 18 19  1  0
 20 19  1  1
 20 22  1  0
 21 20  1  0
 22 23  2  0
 22 24  1  0
M  END
$$$$
