DES.pdb
     RDKit          3D

 24 23  0  0  1  0  0  0  0  0999 V2000
   10.8115  -18.8620   20.4574 N   0  0  0  0  0  0  0  0  0  0  0  0
   10.3841  -17.4785   20.5332 C   0  0  1  0  0  0  0  0  0  0  0  0
    9.3684  -17.2310   19.4679 C   0  0  0  0  0  0  0  0  0  0  0  0
    9.9777  -17.3927   18.1465 C   0  0  0  0  0  0  0  0  0  0  0  0
    9.4353  -18.1329   17.2903 O   0  0  0  0  0  0  0  0  0  0  0  0
    9.7670  -17.1677   21.8663 C   0  0  0  0  0  0  0  0  0  0  0  0
    8.5350  -17.1643   21.8973 O   0  0  0  0  0  0  0  0  0  0  0  0
   11.1703  -16.7203   17.8331 O   0  0  0  0  0  0  0  0  0  0  0  0
   10.4945  -16.8974   23.0084 N   0  0  0  0  0  0  0  0  0  0  0  0
   10.0167  -16.7178   24.3090 C   0  0  1  0  0  0  0  0  0  0  0  0
   10.7997  -17.2443   25.4730 C   0  0  0  0  0  0  0  0  0  0  0  0
   11.2683  -18.6411   25.2189 C   0  0  0  0  0  0  0  0  0  0  0  0
   12.0081  -19.1978   26.4096 C   0  0  0  0  0  0  0  0  0  0  0  0
   11.9903  -20.4398   26.5734 O   0  0  0  0  0  0  0  0  0  0  0  0
    9.4508  -15.3847   24.4938 C   0  0  0  0  0  0  0  0  0  0  0  0
   10.1025  -14.3875   24.0853 O   0  0  0  0  0  0  0  0  0  0  0  0
   12.6853  -18.4110   27.3008 O   0  0  0  0  0  0  0  0  0  0  0  0
    5.7266  -14.0844   24.5052 O   0  0  0  0  0  0  0  0  0  0  0  0
    6.3299  -13.6000   25.6733 C   0  0  0  0  0  0  0  0  0  0  0  0
    7.8241  -13.7426   25.4928 C   0  0  2  0  0  0  0  0  0  0  0  0
    8.1990  -15.0835   25.1070 N   0  0  0  0  0  0  0  0  0  0  0  0
    8.4594  -13.3665   26.7775 C   0  0  0  0  0  0  0  0  0  0  0  0
    9.1561  -14.2222   27.3685 O   0  0  0  0  0  0  0  0  0  0  0  0
    8.3057  -12.1087   27.3367 O   0  0  0  0  0  0  0  0  0  0  0  0
  2  1  1  1
  3  4  1  0
  3  2  1  0
  4  8  1  0
  5  4  2  0
  6  2  1  0
  6  7  2  0
  9 10  1  0
  9  6  1  0
 10 15  1  0
 10 11  1  1
 12 11  1  0
 12 13  1  0
 13 14  2  0
 15 16  2  0
 15 21  1  0
 17 13  1  0
 18 19  1  0
 20 19  1  1
 20 22  1  0
 21 20  1  0
 22 23  2  0
 22 24  1  0
M  END
$$$$
