FQG.pdb
     RDKit          3D

 25 25  0  0  1  0  0  0  0  0999 V2000
   15.9140  -15.0250    6.6218 N   0  0  0  0  0  0  0  0  0  0  0  0
   16.8302  -16.1273    6.3939 C   0  0  1  0  0  0  0  0  0  0  0  0
   18.1987  -15.6677    6.0327 C   0  0  0  0  0  0  0  0  0  0  0  0
   18.2943  -14.9484    4.7467 C   0  0  0  0  0  0  0  0  0  0  0  0
   18.1206  -15.6592    3.5616 C   0  0  0  0  0  0  0  0  0  0  0  0
   18.1919  -15.0159    2.3423 C   0  0  0  0  0  0  0  0  0  0  0  0
   18.4339  -13.6705    2.2679 C   0  0  0  0  0  0  0  0  0  0  0  0
   18.6077  -12.9500    3.4100 C   0  0  0  0  0  0  0  0  0  0  0  0
   18.5352  -13.5992    4.6312 C   0  0  0  0  0  0  0  0  0  0  0  0
   16.8517  -16.9827    7.5898 C   0  0  0  0  0  0  0  0  0  0  0  0
   16.6955  -16.4833    8.7151 O   0  0  0  0  0  0  0  0  0  0  0  0
   15.2931  -20.8001    5.9755 N   0  0  0  0  0  0  0  0  0  0  0  0
   14.3518  -20.2920    6.9021 C   0  0  0  0  0  0  0  0  0  0  0  0
   13.1734  -20.0798    6.5670 O   0  0  0  0  0  0  0  0  0  0  0  0
   14.7504  -19.9955    8.3146 C   0  0  0  0  0  0  0  0  0  0  0  0
   16.1795  -20.4222    8.5120 C   0  0  0  0  0  0  0  0  0  0  0  0
   17.0617  -19.2552    8.6574 C   0  0  2  0  0  0  0  0  0  0  0  0
   17.0466  -18.3690    7.4950 N   0  0  0  0  0  0  0  0  0  0  0  0
   18.4675  -19.6203    8.9541 C   0  0  0  0  0  0  0  0  0  0  0  0
   19.3357  -19.8444    8.0787 O   0  0  0  0  0  0  0  0  0  0  0  0
   18.9333  -19.7430   10.3142 N   0  0  0  0  0  0  0  0  0  0  0  0
   20.3022  -20.1706   10.5915 C   0  0  0  0  0  0  0  0  0  0  0  0
   20.5679  -20.2692   12.0257 C   0  0  0  0  0  0  0  0  0  0  0  0
   21.6494  -20.6999   12.4779 O   0  0  0  0  0  0  0  0  0  0  0  0
   19.5826  -19.8700   12.9087 O   0  0  0  0  0  0  0  0  0  0  0  0
  2  1  1  1
  2 10  1  0
  3  2  1  0
  4  3  1  0
  5  4  2  0
  6  5  1  0
  7  6  2  0
  7  8  1  0
  8  9  2  0
  9  4  1  0
 10 11  2  0
 13 15  1  0
 13 12  1  0
 14 13  2  0
 16 15  1  0
 17 16  1  6
 18 10  1  0
 18 17  1  0
 19 17  1  0
 19 21  1  0
 20 19  2  0
 22 23  1  0
 22 21  1  0
 23 25  1  0
 24 23  2  0
M  END
$$$$
