FQG.pdb
     RDKit          3D

 25 25  0  0  1  0  0  0  0  0999 V2000
   28.1862  -21.1360   -8.9494 N   0  0  0  0  0  0  0  0  0  0  0  0
   26.8039  -20.7646   -8.7088 C   0  0  1  0  0  0  0  0  0  0  0  0
   26.6754  -19.6205   -7.7661 C   0  0  0  0  0  0  0  0  0  0  0  0
   27.3670  -19.7984   -6.4736 C   0  0  0  0  0  0  0  0  0  0  0  0
   28.3959  -18.9236   -6.1331 C   0  0  0  0  0  0  0  0  0  0  0  0
   29.0558  -19.0542   -4.9276 C   0  0  0  0  0  0  0  0  0  0  0  0
   28.7173  -20.0415   -4.0416 C   0  0  0  0  0  0  0  0  0  0  0  0
   27.7154  -20.9110   -4.3478 C   0  0  0  0  0  0  0  0  0  0  0  0
   27.0558  -20.7765   -5.5581 C   0  0  0  0  0  0  0  0  0  0  0  0
   26.1594  -20.4707   -9.9974 C   0  0  0  0  0  0  0  0  0  0  0  0
   26.5533  -19.5172  -10.6872 O   0  0  0  0  0  0  0  0  0  0  0  0
   25.8123  -21.2039  -15.1207 N   0  0  0  0  0  0  0  0  0  0  0  0
   26.8676  -21.5692  -14.2513 C   0  0  0  0  0  0  0  0  0  0  0  0
   28.0553  -21.4227  -14.5888 O   0  0  0  0  0  0  0  0  0  0  0  0
   26.5818  -22.1434  -12.8984 C   0  0  0  0  0  0  0  0  0  0  0  0
   25.0910  -22.2374  -12.7196 C   0  0  0  0  0  0  0  0  0  0  0  0
   24.5966  -21.1607  -11.8493 C   0  0  2  0  0  0  0  0  0  0  0  0
   25.0953  -21.2487  -10.4781 N   0  0  0  0  0  0  0  0  0  0  0  0
   23.1170  -21.0767  -11.8087 C   0  0  0  0  0  0  0  0  0  0  0  0
   22.3709  -21.3377  -12.7809 O   0  0  0  0  0  0  0  0  0  0  0  0
   22.4272  -20.6756  -10.6064 N   0  0  0  0  0  0  0  0  0  0  0  0
   20.9749  -20.5194  -10.6042 C   0  0  0  0  0  0  0  0  0  0  0  0
   20.5331  -19.4707  -11.5219 C   0  0  0  0  0  0  0  0  0  0  0  0
   21.2707  -18.5203  -11.8572 O   0  0  0  0  0  0  0  0  0  0  0  0
   19.2512  -19.5384  -12.0339 O   0  0  0  0  0  0  0  0  0  0  0  0
  2  1  1  6
  2 10  1  0
  3  2  1  0
  4  3  1  0
  5  4  2  0
  6  5  1  0
  7  6  2  0
  7  8  1  0
  8  9  2  0
  9  4  1  0
 10 11  2  0
 13 15  1  0
 13 12  1  0
 14 13  2  0
 16 15  1  0
 17 16  1  6
 18 10  1  0
 18 17  1  0
 19 17  1  0
 19 21  1  0
 20 19  2  0
 22 23  1  0
 22 21  1  0
 23 25  1  0
 24 23  2  0
M  END
$$$$
