FQG.pdb
     RDKit          3D

 25 25  0  0  1  0  0  0  0  0999 V2000
   20.7693  -32.2752   -2.4734 N   0  0  0  0  0  0  0  0  0  0  0  0
   22.1127  -31.7556   -2.2951 C   0  0  1  0  0  0  0  0  0  0  0  0
   22.2338  -30.8838   -1.0953 C   0  0  0  0  0  0  0  0  0  0  0  0
   21.4574  -29.6292   -1.1568 C   0  0  0  0  0  0  0  0  0  0  0  0
   20.2422  -29.5541   -0.4805 C   0  0  0  0  0  0  0  0  0  0  0  0
   19.4965  -28.3927   -0.5073 C   0  0  0  0  0  0  0  0  0  0  0  0
   19.9305  -27.2917   -1.1957 C   0  0  0  0  0  0  0  0  0  0  0  0
   21.1146  -27.3362   -1.8661 C   0  0  0  0  0  0  0  0  0  0  0  0
   21.8598  -28.5033   -1.8365 C   0  0  0  0  0  0  0  0  0  0  0  0
   23.0544  -32.8833   -2.2339 C   0  0  0  0  0  0  0  0  0  0  0  0
   22.6830  -33.9808   -1.7893 O   0  0  0  0  0  0  0  0  0  0  0  0
   25.4840  -32.4429   -6.1159 N   0  0  0  0  0  0  0  0  0  0  0  0
   24.6247  -33.5653   -6.0465 C   0  0  0  0  0  0  0  0  0  0  0  0
   23.7088  -33.7227   -6.8726 O   0  0  0  0  0  0  0  0  0  0  0  0
   24.7956  -34.5960   -4.9741 C   0  0  0  0  0  0  0  0  0  0  0  0
   25.8754  -34.1375   -4.0322 C   0  0  0  0  0  0  0  0  0  0  0  0
   25.3274  -33.8677   -2.6950 C   0  0  2  0  0  0  0  0  0  0  0  0
   24.3816  -32.7534   -2.6702 N   0  0  0  0  0  0  0  0  0  0  0  0
   26.3742  -33.6207   -1.6747 C   0  0  0  0  0  0  0  0  0  0  0  0
   26.7861  -32.4824   -1.3511 O   0  0  0  0  0  0  0  0  0  0  0  0
   27.0006  -34.7140   -0.9716 N   0  0  0  0  0  0  0  0  0  0  0  0
   27.9969  -34.4530    0.0642 C   0  0  0  0  0  0  0  0  0  0  0  0
   27.4182  -34.4911    1.4062 C   0  0  0  0  0  0  0  0  0  0  0  0
   26.1992  -34.6768    1.6043 O   0  0  0  0  0  0  0  0  0  0  0  0
   28.2553  -34.3142    2.4915 O   0  0  0  0  0  0  0  0  0  0  0  0
  2  1  1  1
  2 10  1  0
  3  2  1  0
  4  3  1  0
  5  4  2  0
  6  5  1  0
  7  6  2  0
  7  8  1  0
  8  9  2  0
  9  4  1  0
 10 11  2  0
 13 15  1  0
 13 12  1  0
 14 13  2  0
 16 15  1  0
 17 16  1  6
 18 10  1  0
 18 17  1  0
 19 17  1  0
 19 21  1  0
 20 19  2  0
 22 23  1  0
 22 21  1  0
 23 25  1  0
 24 23  2  0
M  END
$$$$
