FQG.pdb
     RDKit          3D

 25 25  0  0  1  0  0  0  0  0999 V2000
   28.3663  -20.5445   -9.3053 N   0  0  0  0  0  0  0  0  0  0  0  0
   26.9612  -20.6552   -8.9586 C   0  0  1  0  0  0  0  0  0  0  0  0
   26.5869  -19.7906   -7.8068 C   0  0  0  0  0  0  0  0  0  0  0  0
   27.5645  -19.7704   -6.7004 C   0  0  0  0  0  0  0  0  0  0  0  0
   28.1818  -20.9608   -6.3238 C   0  0  0  0  0  0  0  0  0  0  0  0
   29.1092  -20.9757   -5.3013 C   0  0  0  0  0  0  0  0  0  0  0  0
   29.4434  -19.8271   -4.6355 C   0  0  0  0  0  0  0  0  0  0  0  0
   28.8561  -18.6487   -4.9822 C   0  0  0  0  0  0  0  0  0  0  0  0
   27.9264  -18.6380   -6.0086 C   0  0  0  0  0  0  0  0  0  0  0  0
   26.1524  -20.3433  -10.1464 C   0  0  0  0  0  0  0  0  0  0  0  0
   26.1376  -19.1898  -10.6039 O   0  0  0  0  0  0  0  0  0  0  0  0
   25.3759  -19.8545  -15.0970 N   0  0  0  0  0  0  0  0  0  0  0  0
   26.5663  -20.3330  -14.4996 C   0  0  0  0  0  0  0  0  0  0  0  0
   27.6761  -19.8817  -14.8322 O   0  0  0  0  0  0  0  0  0  0  0  0
   26.5216  -21.3982  -13.4483 C   0  0  0  0  0  0  0  0  0  0  0  0
   25.0839  -21.7528  -13.1820 C   0  0  0  0  0  0  0  0  0  0  0  0
   24.5853  -21.0631  -11.9833 C   0  0  2  0  0  0  0  0  0  0  0  0
   25.3847  -21.3269  -10.7883 N   0  0  0  0  0  0  0  0  0  0  0  0
   23.1675  -21.3720  -11.6801 C   0  0  0  0  0  0  0  0  0  0  0  0
   22.7958  -22.3016  -10.9265 O   0  0  0  0  0  0  0  0  0  0  0  0
   22.0970  -20.5937  -12.2550 N   0  0  0  0  0  0  0  0  0  0  0  0
   20.7038  -20.9382  -11.9832 C   0  0  0  0  0  0  0  0  0  0  0  0
   19.7723  -20.0761  -12.7088 C   0  0  0  0  0  0  0  0  0  0  0  0
   20.1583  -19.1490  -13.4512 O   0  0  0  0  0  0  0  0  0  0  0  0
   18.4163  -20.2998  -12.5641 O   0  0  0  0  0  0  0  0  0  0  0  0
  2  1  1  6
  2 10  1  0
  3  2  1  0
  4  3  1  0
  5  4  2  0
  6  5  1  0
  7  6  2  0
  7  8  1  0
  8  9  2  0
  9  4  1  0
 10 11  2  0
 13 15  1  0
 13 12  1  0
 14 13  2  0
 16 15  1  0
 17 16  1  6
 18 10  1  0
 18 17  1  0
 19 17  1  0
 19 21  1  0
 20 19  2  0
 22 23  1  0
 22 21  1  0
 23 25  1  0
 24 23  2  0
M  END
$$$$
