FQG.pdb
     RDKit          3D

 25 25  0  0  1  0  0  0  0  0999 V2000
   26.5215  -17.1686  -17.5996 N   0  0  0  0  0  0  0  0  0  0  0  0
   25.7663  -17.1411  -16.3604 C   0  0  1  0  0  0  0  0  0  0  0  0
   24.9503  -15.9051  -16.2158 C   0  0  0  0  0  0  0  0  0  0  0  0
   25.7254  -14.6488  -16.1774 C   0  0  0  0  0  0  0  0  0  0  0  0
   26.4784  -14.3551  -15.0430 C   0  0  0  0  0  0  0  0  0  0  0  0
   27.2238  -13.1950  -14.9784 C   0  0  0  0  0  0  0  0  0  0  0  0
   27.2414  -12.3090  -16.0219 C   0  0  0  0  0  0  0  0  0  0  0  0
   26.5151  -12.5700  -17.1435 C   0  0  0  0  0  0  0  0  0  0  0  0
   25.7687  -13.7350  -17.2044 C   0  0  0  0  0  0  0  0  0  0  0  0
   24.9278  -18.3469  -16.2878 C   0  0  0  0  0  0  0  0  0  0  0  0
   24.6679  -18.9872  -17.3186 O   0  0  0  0  0  0  0  0  0  0  0  0
   25.3465  -22.6877  -12.1103 N   0  0  0  0  0  0  0  0  0  0  0  0
   24.2098  -23.1398  -12.8219 C   0  0  0  0  0  0  0  0  0  0  0  0
   23.7375  -24.2725  -12.6218 O   0  0  0  0  0  0  0  0  0  0  0  0
   23.5435  -22.2644  -13.8375 C   0  0  0  0  0  0  0  0  0  0  0  0
   24.2913  -20.9613  -13.9158 C   0  0  0  0  0  0  0  0  0  0  0  0
   23.6981  -20.0743  -14.9269 C   0  0  2  0  0  0  0  0  0  0  0  0
   24.4045  -18.8023  -15.0682 N   0  0  0  0  0  0  0  0  0  0  0  0
   22.2628  -19.7925  -14.6856 C   0  0  0  0  0  0  0  0  0  0  0  0
   21.3595  -20.6600  -14.7246 O   0  0  0  0  0  0  0  0  0  0  0  0
   21.8075  -18.4574  -14.3815 N   0  0  0  0  0  0  0  0  0  0  0  0
   20.3879  -18.1922  -14.1622 C   0  0  0  0  0  0  0  0  0  0  0  0
   19.9130  -18.7502  -12.8972 C   0  0  0  0  0  0  0  0  0  0  0  0
   20.6562  -19.3980  -12.1305 O   0  0  0  0  0  0  0  0  0  0  0  0
   18.5925  -18.5506  -12.5419 O   0  0  0  0  0  0  0  0  0  0  0  0
  2  1  1  6
  2 10  1  0
  3  2  1  0
  4  3  1  0
  5  4  2  0
  6  5  1  0
  7  6  2  0
  7  8  1  0
  8  9  2  0
  9  4  1  0
 10 11  2  0
 13 15  1  0
 13 12  1  0
 14 13  2  0
 16 15  1  0
 17 16  1  1
 18 10  1  0
 18 17  1  0
 19 17  1  0
 19 21  1  0
 20 19  2  0
 22 23  1  0
 22 21  1  0
 23 25  1  0
 24 23  2  0
M  END
$$$$
