FQG.pdb
     RDKit          3D

 25 25  0  0  1  0  0  0  0  0999 V2000
   28.6602  -21.8010   -9.9840 N   0  0  0  0  0  0  0  0  0  0  0  0
   27.3753  -21.1362   -9.8670 C   0  0  1  0  0  0  0  0  0  0  0  0
   27.4846  -19.7855   -9.2523 C   0  0  0  0  0  0  0  0  0  0  0  0
   27.7807  -19.7824   -7.8056 C   0  0  0  0  0  0  0  0  0  0  0  0
   29.0885  -19.5523   -7.3853 C   0  0  0  0  0  0  0  0  0  0  0  0
   29.3982  -19.5310   -6.0402 C   0  0  0  0  0  0  0  0  0  0  0  0
   28.4328  -19.7345   -5.0909 C   0  0  0  0  0  0  0  0  0  0  0  0
   27.1459  -19.9617   -5.4726 C   0  0  0  0  0  0  0  0  0  0  0  0
   26.8393  -19.9821   -6.8230 C   0  0  0  0  0  0  0  0  0  0  0  0
   26.7517  -21.0695  -11.1971 C   0  0  0  0  0  0  0  0  0  0  0  0
   27.3971  -20.6401  -12.1662 O   0  0  0  0  0  0  0  0  0  0  0  0
   24.6784  -25.2589  -14.5564 N   0  0  0  0  0  0  0  0  0  0  0  0
   24.1986  -24.1597  -15.3076 C   0  0  0  0  0  0  0  0  0  0  0  0
   23.7676  -24.3133  -16.4637 O   0  0  0  0  0  0  0  0  0  0  0  0
   24.1969  -22.7786  -14.7293 C   0  0  0  0  0  0  0  0  0  0  0  0
   24.7679  -22.8375  -13.3386 C   0  0  0  0  0  0  0  0  0  0  0  0
   24.7949  -21.5023  -12.7241 C   0  0  2  0  0  0  0  0  0  0  0  0
   25.4275  -21.4834  -11.4064 N   0  0  0  0  0  0  0  0  0  0  0  0
   23.4519  -20.8848  -12.6115 C   0  0  0  0  0  0  0  0  0  0  0  0
   22.8422  -20.7197  -11.5292 O   0  0  0  0  0  0  0  0  0  0  0  0
   22.7449  -20.4227  -13.7814 N   0  0  0  0  0  0  0  0  0  0  0  0
   21.9821  -19.1777  -13.7408 C   0  0  0  0  0  0  0  0  0  0  0  0
   20.5508  -19.4151  -13.5614 C   0  0  0  0  0  0  0  0  0  0  0  0
   19.7723  -19.5713  -14.5254 O   0  0  0  0  0  0  0  0  0  0  0  0
   20.0462  -19.4673  -12.2759 O   0  0  0  0  0  0  0  0  0  0  0  0
  2  1  1  6
  2 10  1  0
  3  2  1  0
  4  3  1  0
  5  4  2  0
  6  5  1  0
  7  6  2  0
  7  8  1  0
  8  9  2  0
  9  4  1  0
 10 11  2  0
 13 15  1  0
 13 12  1  0
 14 13  2  0
 16 15  1  0
 17 16  1  1
 18 10  1  0
 18 17  1  0
 19 17  1  0
 19 21  1  0
 20 19  2  0
 22 23  1  0
 22 21  1  0
 23 25  1  0
 24 23  2  0
M  END
$$$$
