FQG.pdb
     RDKit          3D

 25 25  0  0  1  0  0  0  0  0999 V2000
   26.4996  -22.7090  -11.1961 N   0  0  0  0  0  0  0  0  0  0  0  0
   26.0575  -21.3547  -11.4735 C   0  0  1  0  0  0  0  0  0  0  0  0
   27.1380  -20.3500  -11.2805 C   0  0  0  0  0  0  0  0  0  0  0  0
   27.6623  -20.2568   -9.9032 C   0  0  0  0  0  0  0  0  0  0  0  0
   26.9290  -19.5569   -8.9481 C   0  0  0  0  0  0  0  0  0  0  0  0
   27.3842  -19.4601   -7.6484 C   0  0  0  0  0  0  0  0  0  0  0  0
   28.5614  -20.0463   -7.2680 C   0  0  0  0  0  0  0  0  0  0  0  0
   29.2992  -20.7369   -8.1803 C   0  0  0  0  0  0  0  0  0  0  0  0
   28.8390  -20.8319   -9.4830 C   0  0  0  0  0  0  0  0  0  0  0  0
   25.5158  -21.3018  -12.8395 C   0  0  0  0  0  0  0  0  0  0  0  0
   25.6690  -22.2645  -13.6075 O   0  0  0  0  0  0  0  0  0  0  0  0
   20.7101  -22.9887  -13.3469 N   0  0  0  0  0  0  0  0  0  0  0  0
   21.9254  -23.5180  -13.8426 C   0  0  0  0  0  0  0  0  0  0  0  0
   22.0757  -24.7428  -13.9951 O   0  0  0  0  0  0  0  0  0  0  0  0
   23.0659  -22.6153  -14.1978 C   0  0  0  0  0  0  0  0  0  0  0  0
   22.6702  -21.1959  -13.8940 C   0  0  0  0  0  0  0  0  0  0  0  0
   23.7337  -20.2585  -14.2831 C   0  0  2  0  0  0  0  0  0  0  0  0
   24.8199  -20.1772  -13.3081 N   0  0  0  0  0  0  0  0  0  0  0  0
   23.2347  -18.8881  -14.5487 C   0  0  0  0  0  0  0  0  0  0  0  0
   22.5997  -18.1975  -13.7180 O   0  0  0  0  0  0  0  0  0  0  0  0
   23.4588  -18.2485  -15.8226 N   0  0  0  0  0  0  0  0  0  0  0  0
   22.9850  -16.8874  -16.0602 C   0  0  0  0  0  0  0  0  0  0  0  0
   21.7046  -16.8659  -16.7656 C   0  0  0  0  0  0  0  0  0  0  0  0
   20.9230  -17.8399  -16.7637 O   0  0  0  0  0  0  0  0  0  0  0  0
   21.3516  -15.7233  -17.4583 O   0  0  0  0  0  0  0  0  0  0  0  0
  2  1  1  6
  2 10  1  0
  3  2  1  0
  4  3  1  0
  5  4  2  0
  6  5  1  0
  7  6  2  0
  7  8  1  0
  8  9  2  0
  9  4  1  0
 10 11  2  0
 13 15  1  0
 13 12  1  0
 14 13  2  0
 16 15  1  0
 17 16  1  1
 18 10  1  0
 18 17  1  0
 19 17  1  0
 19 21  1  0
 20 19  2  0
 22 23  1  0
 22 21  1  0
 23 25  1  0
 24 23  2  0
M  END
$$$$
