FQG.pdb
     RDKit          3D

 25 25  0  0  1  0  0  0  0  0999 V2000
   28.0955  -21.1529   -8.7806 N   0  0  0  0  0  0  0  0  0  0  0  0
   26.7170  -20.7259   -8.6256 C   0  0  1  0  0  0  0  0  0  0  0  0
   26.5770  -19.5732   -7.6951 C   0  0  0  0  0  0  0  0  0  0  0  0
   27.2714  -19.7300   -6.4014 C   0  0  0  0  0  0  0  0  0  0  0  0
   28.3176  -18.8654   -6.0882 C   0  0  0  0  0  0  0  0  0  0  0  0
   28.9808  -18.9765   -4.8826 C   0  0  0  0  0  0  0  0  0  0  0  0
   28.6286  -19.9341   -3.9696 C   0  0  0  0  0  0  0  0  0  0  0  0
   27.6098  -20.7929   -4.2487 C   0  0  0  0  0  0  0  0  0  0  0  0
   26.9470  -20.6780   -5.4593 C   0  0  0  0  0  0  0  0  0  0  0  0
   26.1643  -20.4127   -9.9518 C   0  0  0  0  0  0  0  0  0  0  0  0
   25.0790  -19.8190  -10.0494 O   0  0  0  0  0  0  0  0  0  0  0  0
   27.3037  -16.8948  -13.5212 N   0  0  0  0  0  0  0  0  0  0  0  0
   27.3574  -18.1778  -14.1162 C   0  0  0  0  0  0  0  0  0  0  0  0
   26.7570  -18.4169  -15.1785 O   0  0  0  0  0  0  0  0  0  0  0  0
   28.1406  -19.2847  -13.4813 C   0  0  0  0  0  0  0  0  0  0  0  0
   27.3165  -20.5428  -13.5210 C   0  0  0  0  0  0  0  0  0  0  0  0
   26.2938  -20.5354  -12.4650 C   0  0  2  0  0  0  0  0  0  0  0  0
   26.8384  -20.7709  -11.1291 N   0  0  0  0  0  0  0  0  0  0  0  0
   25.1995  -21.5060  -12.7062 C   0  0  0  0  0  0  0  0  0  0  0  0
   25.2764  -22.7304  -12.4507 O   0  0  0  0  0  0  0  0  0  0  0  0
   23.9398  -21.0827  -13.2683 N   0  0  0  0  0  0  0  0  0  0  0  0
   22.8611  -22.0457  -13.4747 C   0  0  0  0  0  0  0  0  0  0  0  0
   21.6479  -21.4113  -13.9877 C   0  0  0  0  0  0  0  0  0  0  0  0
   21.5700  -20.1813  -14.1896 O   0  0  0  0  0  0  0  0  0  0  0  0
   20.5503  -22.2066  -14.2570 O   0  0  0  0  0  0  0  0  0  0  0  0
  2  1  1  6
  2 10  1  0
  3  2  1  0
  4  3  1  0
  5  4  2  0
  6  5  1  0
  7  6  2  0
  7  8  1  0
  8  9  2  0
  9  4  1  0
 10 11  2  0
 13 15  1  0
 13 12  1  0
 14 13  2  0
 16 15  1  0
 17 16  1  6
 18 10  1  0
 18 17  1  0
 19 17  1  0
 19 21  1  0
 20 19  2  0
 22 23  1  0
 22 21  1  0
 23 25  1  0
 24 23  2  0
M  END
$$$$
