FQG.pdb
     RDKit          3D

 25 25  0  0  1  0  0  0  0  0999 V2000
   25.3856  -21.0118   -6.7490 N   0  0  0  0  0  0  0  0  0  0  0  0
   26.1639  -20.3538   -7.7823 C   0  0  1  0  0  0  0  0  0  0  0  0
   27.6297  -20.5189   -7.5860 C   0  0  0  0  0  0  0  0  0  0  0  0
   28.1578  -19.9467   -6.3314 C   0  0  0  0  0  0  0  0  0  0  0  0
   28.1392  -18.5646   -6.1599 C   0  0  0  0  0  0  0  0  0  0  0  0
   28.6142  -17.9970   -4.9946 C   0  0  0  0  0  0  0  0  0  0  0  0
   29.1129  -18.7743   -3.9839 C   0  0  0  0  0  0  0  0  0  0  0  0
   29.1435  -20.1282   -4.1237 C   0  0  0  0  0  0  0  0  0  0  0  0
   28.6658  -20.6936   -5.2942 C   0  0  0  0  0  0  0  0  0  0  0  0
   25.7394  -20.8637   -9.0946 C   0  0  0  0  0  0  0  0  0  0  0  0
   25.6251  -22.0854   -9.2803 O   0  0  0  0  0  0  0  0  0  0  0  0
   21.2146  -19.4347  -12.6992 N   0  0  0  0  0  0  0  0  0  0  0  0
   21.9705  -20.2443  -13.5802 C   0  0  0  0  0  0  0  0  0  0  0  0
   21.4942  -20.6324  -14.6611 O   0  0  0  0  0  0  0  0  0  0  0  0
   23.3676  -20.6563  -13.2337 C   0  0  0  0  0  0  0  0  0  0  0  0
   23.7113  -20.1027  -11.8776 C   0  0  0  0  0  0  0  0  0  0  0  0
   25.0838  -20.4641  -11.4943 C   0  0  2  0  0  0  0  0  0  0  0  0
   25.4551  -19.9962  -10.1601 N   0  0  0  0  0  0  0  0  0  0  0  0
   26.1031  -19.9905  -12.4609 C   0  0  0  0  0  0  0  0  0  0  0  0
   26.7015  -18.8932  -12.3709 O   0  0  0  0  0  0  0  0  0  0  0  0
   26.4777  -20.7929  -13.6002 N   0  0  0  0  0  0  0  0  0  0  0  0
   27.6535  -20.4461  -14.3945 C   0  0  0  0  0  0  0  0  0  0  0  0
   27.9397  -21.4481  -15.4199 C   0  0  0  0  0  0  0  0  0  0  0  0
   27.2729  -22.4979  -15.5344 O   0  0  0  0  0  0  0  0  0  0  0  0
   28.9877  -21.2202  -16.2914 O   0  0  0  0  0  0  0  0  0  0  0  0
  2  1  1  1
  2 10  1  0
  3  2  1  0
  4  3  1  0
  5  4  2  0
  6  5  1  0
  7  6  2  0
  7  8  1  0
  8  9  2  0
  9  4  1  0
 10 11  2  0
 13 15  1  0
 13 12  1  0
 14 13  2  0
 16 15  1  0
 17 16  1  6
 18 10  1  0
 18 17  1  0
 19 17  1  0
 19 21  1  0
 20 19  2  0
 22 23  1  0
 22 21  1  0
 23 25  1  0
 24 23  2  0
M  END
$$$$
