FQG.pdb
     RDKit          3D

 25 25  0  0  1  0  0  0  0  0999 V2000
   22.1023  -25.1059  -13.7942 N   0  0  0  0  0  0  0  0  0  0  0  0
   20.7747  -24.5448  -13.6229 C   0  0  1  0  0  0  0  0  0  0  0  0
   19.8920  -24.7977  -14.7939 C   0  0  0  0  0  0  0  0  0  0  0  0
   20.3029  -24.1214  -16.0406 C   0  0  0  0  0  0  0  0  0  0  0  0
   21.0442  -24.8327  -16.9811 C   0  0  0  0  0  0  0  0  0  0  0  0
   21.4349  -24.2347  -18.1624 C   0  0  0  0  0  0  0  0  0  0  0  0
   21.1054  -22.9346  -18.4374 C   0  0  0  0  0  0  0  0  0  0  0  0
   20.3814  -22.2150  -17.5365 C   0  0  0  0  0  0  0  0  0  0  0  0
   19.9913  -22.8187  -16.3527 C   0  0  0  0  0  0  0  0  0  0  0  0
   20.1881  -25.0804  -12.3855 C   0  0  0  0  0  0  0  0  0  0  0  0
   20.7003  -26.0644  -11.8291 O   0  0  0  0  0  0  0  0  0  0  0  0
   17.7112  -25.7069   -6.3876 N   0  0  0  0  0  0  0  0  0  0  0  0
   18.4317  -24.7161   -7.0963 C   0  0  0  0  0  0  0  0  0  0  0  0
   18.3146  -23.5117   -6.8107 O   0  0  0  0  0  0  0  0  0  0  0  0
   19.3569  -25.0923   -8.2118 C   0  0  0  0  0  0  0  0  0  0  0  0
   19.1029  -24.1768   -9.3784 C   0  0  0  0  0  0  0  0  0  0  0  0
   18.5168  -24.9135  -10.5075 C   0  0  2  0  0  0  0  0  0  0  0  0
   19.0484  -24.5029  -11.8058 N   0  0  0  0  0  0  0  0  0  0  0  0
   17.0376  -24.8279  -10.5548 C   0  0  0  0  0  0  0  0  0  0  0  0
   16.4035  -23.8134  -10.9274 O   0  0  0  0  0  0  0  0  0  0  0  0
   16.2146  -25.9458  -10.1610 N   0  0  0  0  0  0  0  0  0  0  0  0
   14.7581  -25.8436  -10.2051 C   0  0  0  0  0  0  0  0  0  0  0  0
   14.2156  -25.1976   -9.0110 C   0  0  0  0  0  0  0  0  0  0  0  0
   12.9883  -25.0740   -8.8161 O   0  0  0  0  0  0  0  0  0  0  0  0
   15.0979  -24.7077   -8.0669 O   0  0  0  0  0  0  0  0  0  0  0  0
  2  1  1  6
  2 10  1  0
  3  2  1  0
  4  3  1  0
  5  4  2  0
  6  5  1  0
  7  6  2  0
  7  8  1  0
  8  9  2  0
  9  4  1  0
 10 11  2  0
 13 15  1  0
 13 12  1  0
 14 13  2  0
 16 15  1  0
 17 16  1  1
 18 10  1  0
 18 17  1  0
 19 17  1  0
 19 21  1  0
 20 19  2  0
 22 23  1  0
 22 21  1  0
 23 25  1  0
 24 23  2  0
M  END
$$$$
