FQG.pdb
     RDKit          3D

 25 25  0  0  1  0  0  0  0  0999 V2000
   22.3886  -12.4208  -15.9010 N   0  0  0  0  0  0  0  0  0  0  0  0
   23.4820  -11.4756  -16.0345 C   0  0  1  0  0  0  0  0  0  0  0  0
   24.5605  -11.9723  -16.9314 C   0  0  0  0  0  0  0  0  0  0  0  0
   25.1094  -13.2950  -16.5713 C   0  0  0  0  0  0  0  0  0  0  0  0
   25.9454  -13.3992  -15.4621 C   0  0  0  0  0  0  0  0  0  0  0  0
   26.4665  -14.6223  -15.0905 C   0  0  0  0  0  0  0  0  0  0  0  0
   26.1762  -15.7572  -15.7991 C   0  0  0  0  0  0  0  0  0  0  0  0
   25.3618  -15.6855  -16.8877 C   0  0  0  0  0  0  0  0  0  0  0  0
   24.8410  -14.4565  -17.2571 C   0  0  0  0  0  0  0  0  0  0  0  0
   22.9446  -10.1903  -16.5052 C   0  0  0  0  0  0  0  0  0  0  0  0
   23.7151   -9.2581  -16.7836 O   0  0  0  0  0  0  0  0  0  0  0  0
   18.6615  -10.7465  -21.0560 N   0  0  0  0  0  0  0  0  0  0  0  0
   18.7154   -9.9816  -19.8665 C   0  0  0  0  0  0  0  0  0  0  0  0
   17.6934   -9.4478  -19.4014 O   0  0  0  0  0  0  0  0  0  0  0  0
   20.0078   -9.7940  -19.1342 C   0  0  0  0  0  0  0  0  0  0  0  0
   19.7573   -8.9311  -17.9275 C   0  0  0  0  0  0  0  0  0  0  0  0
   20.9926   -8.7358  -17.1548 C   0  0  2  0  0  0  0  0  0  0  0  0
   21.5646   -9.9832  -16.6513 N   0  0  0  0  0  0  0  0  0  0  0  0
   20.8271   -7.7998  -16.0172 C   0  0  0  0  0  0  0  0  0  0  0  0
   20.1615   -8.0559  -14.9869 O   0  0  0  0  0  0  0  0  0  0  0  0
   21.4436   -6.4952  -16.0312 N   0  0  0  0  0  0  0  0  0  0  0  0
   21.3003   -5.5972  -14.8881 C   0  0  0  0  0  0  0  0  0  0  0  0
   22.1070   -6.0263  -13.7469 C   0  0  0  0  0  0  0  0  0  0  0  0
   22.6832   -7.1338  -13.7133 O   0  0  0  0  0  0  0  0  0  0  0  0
   22.2331   -5.1711  -12.6687 O   0  0  0  0  0  0  0  0  0  0  0  0
  2  1  1  6
  2 10  1  0
  3  2  1  0
  4  3  1  0
  5  4  2  0
  6  5  1  0
  7  6  2  0
  7  8  1  0
  8  9  2  0
  9  4  1  0
 10 11  2  0
 13 15  1  0
 13 12  1  0
 14 13  2  0
 16 15  1  0
 17 16  1  1
 18 10  1  0
 18 17  1  0
 19 17  1  0
 19 21  1  0
 20 19  2  0
 22 23  1  0
 22 21  1  0
 23 25  1  0
 24 23  2  0
M  END
$$$$
