FQG.pdb
     RDKit          3D

 25 25  0  0  1  0  0  0  0  0999 V2000
   28.3350  -11.1075  -17.3931 N   0  0  0  0  0  0  0  0  0  0  0  0
   28.7555   -9.7261  -17.5403 C   0  0  1  0  0  0  0  0  0  0  0  0
   29.8502   -9.5649  -18.5352 C   0  0  0  0  0  0  0  0  0  0  0  0
   31.0742  -10.3381  -18.2444 C   0  0  0  0  0  0  0  0  0  0  0  0
   31.2434  -11.5839  -18.8437 C   0  0  0  0  0  0  0  0  0  0  0  0
   32.3809  -12.3281  -18.6029 C   0  0  0  0  0  0  0  0  0  0  0  0
   33.3657  -11.8626  -17.7735 C   0  0  0  0  0  0  0  0  0  0  0  0
   33.2274  -10.6481  -17.1739 C   0  0  0  0  0  0  0  0  0  0  0  0
   32.0848   -9.9047  -17.4182 C   0  0  0  0  0  0  0  0  0  0  0  0
   27.5859   -8.9084  -17.8949 C   0  0  0  0  0  0  0  0  0  0  0  0
   27.7159   -7.6907  -18.0962 O   0  0  0  0  0  0  0  0  0  0  0  0
   22.6237  -10.4531  -21.1977 N   0  0  0  0  0  0  0  0  0  0  0  0
   22.2970   -9.1395  -20.7846 C   0  0  0  0  0  0  0  0  0  0  0  0
   21.2871   -8.5625  -21.2240 O   0  0  0  0  0  0  0  0  0  0  0  0
   23.1605   -8.4073  -19.8049 C   0  0  0  0  0  0  0  0  0  0  0  0
   24.3492   -9.2676  -19.4728 C   0  0  0  0  0  0  0  0  0  0  0  0
   25.1188   -8.6942  -18.3591 C   0  0  2  0  0  0  0  0  0  0  0  0
   26.3070   -9.4728  -18.0143 N   0  0  0  0  0  0  0  0  0  0  0  0
   24.3107   -8.4981  -17.1319 C   0  0  0  0  0  0  0  0  0  0  0  0
   24.0898   -9.3944  -16.2846 O   0  0  0  0  0  0  0  0  0  0  0  0
   23.7113   -7.2203  -16.8319 N   0  0  0  0  0  0  0  0  0  0  0  0
   22.8404   -7.0666  -15.6694 C   0  0  0  0  0  0  0  0  0  0  0  0
   22.3043   -5.7109  -15.5591 C   0  0  0  0  0  0  0  0  0  0  0  0
   22.5510   -4.8230  -16.4020 O   0  0  0  0  0  0  0  0  0  0  0  0
   21.4957   -5.4064  -14.4806 O   0  0  0  0  0  0  0  0  0  0  0  0
  2  1  1  6
  2 10  1  0
  3  2  1  0
  4  3  1  0
  5  4  2  0
  6  5  1  0
  7  6  2  0
  7  8  1  0
  8  9  2  0
  9  4  1  0
 10 11  2  0
 13 15  1  0
 13 12  1  0
 14 13  2  0
 16 15  1  0
 17 16  1  6
 18 10  1  0
 18 17  1  0
 19 17  1  0
 19 21  1  0
 20 19  2  0
 22 23  1  0
 22 21  1  0
 23 25  1  0
 24 23  2  0
M  END
$$$$
