FQG.pdb
     RDKit          3D

 25 25  0  0  1  0  0  0  0  0999 V2000
   24.4443  -30.9917  -18.3836 N   0  0  0  0  0  0  0  0  0  0  0  0
   24.7150  -31.7831  -17.1975 C   0  0  1  0  0  0  0  0  0  0  0  0
   23.7950  -32.9450  -17.0635 C   0  0  0  0  0  0  0  0  0  0  0  0
   22.3759  -32.5942  -16.8546 C   0  0  0  0  0  0  0  0  0  0  0  0
   21.4749  -32.7765  -17.9010 C   0  0  0  0  0  0  0  0  0  0  0  0
   20.1390  -32.4698  -17.7362 C   0  0  0  0  0  0  0  0  0  0  0  0
   19.6691  -31.9814  -16.5467 C   0  0  0  0  0  0  0  0  0  0  0  0
   20.5269  -31.7930  -15.5064 C   0  0  0  0  0  0  0  0  0  0  0  0
   21.8663  -32.1020  -15.6757 C   0  0  0  0  0  0  0  0  0  0  0  0
   26.1206  -32.2143  -17.2241 C   0  0  0  0  0  0  0  0  0  0  0  0
   26.7380  -32.2575  -18.2998 O   0  0  0  0  0  0  0  0  0  0  0  0
   31.5990  -31.9315  -16.0735 N   0  0  0  0  0  0  0  0  0  0  0  0
   30.7631  -30.8101  -16.2892 C   0  0  0  0  0  0  0  0  0  0  0  0
   31.1982  -29.7831  -16.8386 O   0  0  0  0  0  0  0  0  0  0  0  0
   29.3286  -30.8301  -15.8609 C   0  0  0  0  0  0  0  0  0  0  0  0
   29.0450  -32.1446  -15.1863 C   0  0  0  0  0  0  0  0  0  0  0  0
   28.1972  -32.9977  -16.0317 C   0  0  2  0  0  0  0  0  0  0  0  0
   26.7953  -32.5843  -16.0508 N   0  0  0  0  0  0  0  0  0  0  0  0
   28.2611  -34.4320  -15.6625 C   0  0  0  0  0  0  0  0  0  0  0  0
   29.3212  -35.0979  -15.6089 O   0  0  0  0  0  0  0  0  0  0  0  0
   27.0655  -35.1694  -15.3324 N   0  0  0  0  0  0  0  0  0  0  0  0
   27.1550  -36.5430  -14.8439 C   0  0  0  0  0  0  0  0  0  0  0  0
   25.8367  -37.1380  -14.6308 C   0  0  0  0  0  0  0  0  0  0  0  0
   25.6882  -38.2821  -14.1524 O   0  0  0  0  0  0  0  0  0  0  0  0
   24.7174  -36.4032  -14.9731 O   0  0  0  0  0  0  0  0  0  0  0  0
  2  1  1  6
  2 10  1  0
  3  2  1  0
  4  3  1  0
  5  4  2  0
  6  5  1  0
  7  6  2  0
  7  8  1  0
  8  9  2  0
  9  4  1  0
 10 11  2  0
 13 15  1  0
 13 12  1  0
 14 13  2  0
 16 15  1  0
 17 16  1  1
 18 10  1  0
 18 17  1  0
 19 17  1  0
 19 21  1  0
 20 19  2  0
 22 23  1  0
 22 21  1  0
 23 25  1  0
 24 23  2  0
M  END
$$$$
