FAW.pdb
     RDKit          3D

 31 33  0  0  1  0  0  0  0  0999 V2000
   20.4491  -20.4443  -15.2857 N   0  0  0  0  0  0  0  0  0  0  0  0
   20.0965  -20.3315  -13.8780 C   0  0  1  0  0  0  0  0  0  0  0  0
   18.8438  -21.1991  -13.6211 C   0  0  0  0  0  0  0  0  0  0  0  0
   17.7574  -20.5596  -14.4104 C   0  0  0  0  0  0  0  0  0  0  0  0
   16.9851  -19.5195  -13.9852 C   0  0  0  0  0  0  0  0  0  0  0  0
   15.9815  -18.9757  -14.7737 C   0  0  0  0  0  0  0  0  0  0  0  0
   15.7519  -19.5079  -16.0445 C   0  0  0  0  0  0  0  0  0  0  0  0
   16.5301  -20.5525  -16.4679 C   0  0  0  0  0  0  0  0  0  0  0  0
   17.5318  -21.0924  -15.6762 C   0  0  0  0  0  0  0  0  0  0  0  0
   21.1749  -20.9300  -13.0734 C   0  0  0  0  0  0  0  0  0  0  0  0
   21.0102  -21.0644  -11.8410 O   0  0  0  0  0  0  0  0  0  0  0  0
   23.7174  -23.2931  -13.1455 C   0  0  0  0  0  0  0  0  0  0  0  0
   23.5137  -21.7910  -12.9906 C   0  0  2  0  0  0  0  0  0  0  0  0
   22.3674  -21.3364  -13.7271 N   0  0  0  0  0  0  0  0  0  0  0  0
   24.7577  -21.1656  -13.5025 C   0  0  0  0  0  0  0  0  0  0  0  0
   24.7861  -20.7073  -14.6749 O   0  0  0  0  0  0  0  0  0  0  0  0
   25.9365  -21.0511  -12.7370 N   0  0  0  0  0  0  0  0  0  0  0  0
   27.1219  -20.3958  -13.3029 C   0  0  1  0  0  0  0  0  0  0  0  0
   27.7630  -19.5728  -12.2430 C   0  0  0  0  0  0  0  0  0  0  0  0
   28.2971  -20.3063  -11.0822 C   0  0  0  0  0  0  0  0  0  0  0  0
   29.4034  -21.1539  -11.0459 C   0  0  0  0  0  0  0  0  0  0  0  0
   29.5414  -21.6544   -9.8108 N   0  0  0  0  0  0  0  0  0  0  0  0
   28.5677  -21.1766   -9.0032 C   0  0  0  0  0  0  0  0  0  0  0  0
   28.2764  -21.3700   -7.6543 C   0  0  0  0  0  0  0  0  0  0  0  0
   27.2104  -20.7354   -7.0538 C   0  0  0  0  0  0  0  0  0  0  0  0
   26.4259  -19.8955   -7.8152 C   0  0  0  0  0  0  0  0  0  0  0  0
   26.7298  -19.7187   -9.1454 C   0  0  0  0  0  0  0  0  0  0  0  0
   27.7967  -20.3440   -9.7814 C   0  0  0  0  0  0  0  0  0  0  0  0
   27.9321  -21.3983  -13.9747 C   0  0  0  0  0  0  0  0  0  0  0  0
   28.8640  -20.9867  -14.9516 O   0  0  0  0  0  0  0  0  0  0  0  0
   27.8884  -22.6429  -13.7694 O   0  0  0  0  0  0  0  0  0  0  0  0
  2  1  1  6
  2  3  1  0
  3  4  1  0
  4  5  2  0
  5  6  1  0
  7  6  2  0
  8  7  1  0
  9  4  1  0
  9  8  2  0
 10  2  1  0
 11 10  2  0
 13 12  1  6
 13 14  1  0
 14 10  1  0
 15 13  1  0
 15 17  1  0
 16 15  2  0
 18 17  1  0
 18 29  1  0
 19 20  1  0
 18 19  1  1
 20 21  2  0
 22 21  1  0
 23 22  1  0
 24 23  2  0
 25 24  1  0
 26 25  2  0
 26 27  1  0
 27 28  2  0
 28 23  1  0
 28 20  1  0
 29 30  1  0
 31 29  2  0
M  END
$$$$
