FAW.pdb
     RDKit          3D

 31 33  0  0  1  0  0  0  0  0999 V2000
   28.6628  -21.2096   -8.9827 N   0  0  0  0  0  0  0  0  0  0  0  0
   27.2262  -20.9977   -8.8822 C   0  0  1  0  0  0  0  0  0  0  0  0
   26.9843  -19.6266   -8.2118 C   0  0  0  0  0  0  0  0  0  0  0  0
   27.4707  -19.7837   -6.8150 C   0  0  0  0  0  0  0  0  0  0  0  0
   26.8022  -20.4311   -5.8186 C   0  0  0  0  0  0  0  0  0  0  0  0
   27.3136  -20.5333   -4.5330 C   0  0  0  0  0  0  0  0  0  0  0  0
   28.5527  -19.9558   -4.2464 C   0  0  0  0  0  0  0  0  0  0  0  0
   29.2209  -19.3065   -5.2503 C   0  0  0  0  0  0  0  0  0  0  0  0
   28.7057  -19.2072   -6.5334 C   0  0  0  0  0  0  0  0  0  0  0  0
   26.6707  -20.8868  -10.2415 C   0  0  0  0  0  0  0  0  0  0  0  0
   27.2267  -20.1272  -11.0647 O   0  0  0  0  0  0  0  0  0  0  0  0
   24.5331  -22.9497  -12.3952 C   0  0  0  0  0  0  0  0  0  0  0  0
   24.9096  -21.5701  -11.8693 C   0  0  2  0  0  0  0  0  0  0  0  0
   25.5203  -21.6499  -10.5717 N   0  0  0  0  0  0  0  0  0  0  0  0
   23.6398  -20.8050  -11.8138 C   0  0  0  0  0  0  0  0  0  0  0  0
   23.0039  -20.7337  -10.7294 O   0  0  0  0  0  0  0  0  0  0  0  0
   23.0904  -20.1378  -12.9281 N   0  0  0  0  0  0  0  0  0  0  0  0
   21.8346  -19.3897  -12.7937 C   0  0  1  0  0  0  0  0  0  0  0  0
   21.9572  -18.1133  -13.5472 C   0  0  0  0  0  0  0  0  0  0  0  0
   22.2063  -18.2324  -14.9944 C   0  0  0  0  0  0  0  0  0  0  0  0
   21.2625  -18.2961  -16.0186 C   0  0  0  0  0  0  0  0  0  0  0  0
   21.8891  -18.4362  -17.1944 N   0  0  0  0  0  0  0  0  0  0  0  0
   23.2280  -18.4695  -17.0076 C   0  0  0  0  0  0  0  0  0  0  0  0
   24.3042  -18.5830  -17.8855 C   0  0  0  0  0  0  0  0  0  0  0  0
   25.6047  -18.5722  -17.4292 C   0  0  0  0  0  0  0  0  0  0  0  0
   25.8298  -18.4458  -16.0750 C   0  0  0  0  0  0  0  0  0  0  0  0
   24.7536  -18.3358  -15.2248 C   0  0  0  0  0  0  0  0  0  0  0  0
   23.4304  -18.3439  -15.6524 C   0  0  0  0  0  0  0  0  0  0  0  0
   20.7284  -20.2740  -13.1211 C   0  0  0  0  0  0  0  0  0  0  0  0
   19.4361  -19.9625  -12.6465 O   0  0  0  0  0  0  0  0  0  0  0  0
   20.8044  -21.3292  -13.8095 O   0  0  0  0  0  0  0  0  0  0  0  0
  2  1  1  6
  2  3  1  0
  3  4  1  0
  4  5  2  0
  5  6  1  0
  7  6  2  0
  8  7  1  0
  9  4  1  0
  9  8  2  0
 10  2  1  0
 11 10  2  0
 13 12  1  1
 13 14  1  0
 14 10  1  0
 15 13  1  0
 15 17  1  0
 16 15  2  0
 18 17  1  0
 18 29  1  0
 19 20  1  0
 18 19  1  6
 20 21  2  0
 22 21  1  0
 23 22  1  0
 24 23  2  0
 25 24  1  0
 26 25  2  0
 26 27  1  0
 27 28  2  0
 28 23  1  0
 28 20  1  0
 29 30  1  0
 31 29  2  0
M  END
$$$$
