FAW.pdb
     RDKit          3D

 31 33  0  0  1  0  0  0  0  0999 V2000
   27.6902  -17.7274  -14.6532 N   0  0  0  0  0  0  0  0  0  0  0  0
   27.8969  -19.1592  -14.4926 C   0  0  1  0  0  0  0  0  0  0  0  0
   27.2398  -19.5979  -13.1646 C   0  0  0  0  0  0  0  0  0  0  0  0
   28.3587  -20.0975  -12.3216 C   0  0  0  0  0  0  0  0  0  0  0  0
   29.1661  -21.1515  -12.6319 C   0  0  0  0  0  0  0  0  0  0  0  0
   30.1891  -21.5687  -11.7928 C   0  0  0  0  0  0  0  0  0  0  0  0
   30.4020  -20.8899  -10.5908 C   0  0  0  0  0  0  0  0  0  0  0  0
   29.5888  -19.8316  -10.2831 C   0  0  0  0  0  0  0  0  0  0  0  0
   28.5679  -19.4184  -11.1250 C   0  0  0  0  0  0  0  0  0  0  0  0
   27.1637  -19.8629  -15.5583 C   0  0  0  0  0  0  0  0  0  0  0  0
   26.1983  -19.2913  -16.1108 O   0  0  0  0  0  0  0  0  0  0  0  0
   27.7360  -23.1055  -17.4129 C   0  0  0  0  0  0  0  0  0  0  0  0
   26.9019  -21.9200  -16.9432 C   0  0  2  0  0  0  0  0  0  0  0  0
   27.5806  -21.1696  -15.9238 N   0  0  0  0  0  0  0  0  0  0  0  0
   25.6396  -22.5019  -16.4246 C   0  0  0  0  0  0  0  0  0  0  0  0
   25.6021  -23.7186  -16.1030 O   0  0  0  0  0  0  0  0  0  0  0  0
   24.4530  -21.7566  -16.2666 N   0  0  0  0  0  0  0  0  0  0  0  0
   23.2165  -22.4217  -15.8380 C   0  0  1  0  0  0  0  0  0  0  0  0
   23.4324  -23.0040  -14.4866 C   0  0  0  0  0  0  0  0  0  0  0  0
   23.2779  -22.0822  -13.3477 C   0  0  0  0  0  0  0  0  0  0  0  0
   22.2126  -21.2213  -13.0873 C   0  0  0  0  0  0  0  0  0  0  0  0
   22.4651  -20.5242  -11.9715 N   0  0  0  0  0  0  0  0  0  0  0  0
   23.6657  -20.8804  -11.4614 C   0  0  0  0  0  0  0  0  0  0  0  0
   24.3724  -20.4748  -10.3310 C   0  0  0  0  0  0  0  0  0  0  0  0
   25.5987  -21.0211  -10.0189 C   0  0  0  0  0  0  0  0  0  0  0  0
   26.1238  -21.9869  -10.8507 C   0  0  0  0  0  0  0  0  0  0  0  0
   25.4107  -22.3729  -11.9623 C   0  0  0  0  0  0  0  0  0  0  0  0
   24.1723  -21.8416  -12.3056 C   0  0  0  0  0  0  0  0  0  0  0  0
   22.1062  -21.5008  -16.0169 C   0  0  0  0  0  0  0  0  0  0  0  0
   20.7876  -21.9714  -15.8377 O   0  0  0  0  0  0  0  0  0  0  0  0
   22.2003  -20.2810  -16.3272 O   0  0  0  0  0  0  0  0  0  0  0  0
  2  1  1  6
  2  3  1  0
  3  4  1  0
  4  5  2  0
  5  6  1  0
  7  6  2  0
  8  7  1  0
  9  4  1  0
  9  8  2  0
 10  2  1  0
 11 10  2  0
 13 12  1  1
 13 14  1  0
 14 10  1  0
 15 13  1  0
 15 17  1  0
 16 15  2  0
 18 17  1  0
 18 29  1  0
 19 20  1  0
 18 19  1  1
 20 21  2  0
 22 21  1  0
 23 22  1  0
 24 23  2  0
 25 24  1  0
 26 25  2  0
 26 27  1  0
 27 28  2  0
 28 23  1  0
 28 20  1  0
 29 30  1  0
 31 29  2  0
M  END
$$$$
