FAW.pdb
     RDKit          3D

 31 33  0  0  1  0  0  0  0  0999 V2000
   22.9255  -21.4596  -17.5600 N   0  0  0  0  0  0  0  0  0  0  0  0
   23.5214  -20.3639  -16.8095 C   0  0  1  0  0  0  0  0  0  0  0  0
   22.4161  -19.7051  -15.9538 C   0  0  0  0  0  0  0  0  0  0  0  0
   21.7047  -18.7822  -16.8781 C   0  0  0  0  0  0  0  0  0  0  0  0
   20.5328  -19.0597  -17.5173 C   0  0  0  0  0  0  0  0  0  0  0  0
   19.9272  -18.1519  -18.3740 C   0  0  0  0  0  0  0  0  0  0  0  0
   20.5343  -16.9128  -18.5909 C   0  0  0  0  0  0  0  0  0  0  0  0
   21.7113  -16.6380  -17.9466 C   0  0  0  0  0  0  0  0  0  0  0  0
   22.3125  -17.5486  -17.0915 C   0  0  0  0  0  0  0  0  0  0  0  0
   24.4936  -20.9218  -15.8544 C   0  0  0  0  0  0  0  0  0  0  0  0
   24.1999  -21.9631  -15.2272 O   0  0  0  0  0  0  0  0  0  0  0  0
   28.1237  -20.3414  -15.1525 C   0  0  0  0  0  0  0  0  0  0  0  0
   26.7089  -20.7157  -14.7283 C   0  0  2  0  0  0  0  0  0  0  0  0
   25.7353  -20.2568  -15.6794 N   0  0  0  0  0  0  0  0  0  0  0  0
   26.5061  -20.0728  -13.4068 C   0  0  0  0  0  0  0  0  0  0  0  0
   26.1039  -18.8810  -13.3505 O   0  0  0  0  0  0  0  0  0  0  0  0
   26.7422  -20.7318  -12.1827 N   0  0  0  0  0  0  0  0  0  0  0  0
   26.5666  -20.0148  -10.9138 C   0  0  1  0  0  0  0  0  0  0  0  0
   25.1975  -19.4351  -10.8796 C   0  0  0  0  0  0  0  0  0  0  0  0
   24.1366  -20.3012  -10.3364 C   0  0  0  0  0  0  0  0  0  0  0  0
   23.9882  -20.7443   -9.0228 C   0  0  0  0  0  0  0  0  0  0  0  0
   22.9155  -21.5426   -8.9400 N   0  0  0  0  0  0  0  0  0  0  0  0
   22.3266  -21.6586  -10.1517 C   0  0  0  0  0  0  0  0  0  0  0  0
   21.1974  -22.3450  -10.5941 C   0  0  0  0  0  0  0  0  0  0  0  0
   20.7909  -22.2822  -11.9096 C   0  0  0  0  0  0  0  0  0  0  0  0
   21.5257  -21.5212  -12.7936 C   0  0  0  0  0  0  0  0  0  0  0  0
   22.6378  -20.8519  -12.3371 C   0  0  0  0  0  0  0  0  0  0  0  0
   23.0749  -20.8949  -11.0177 C   0  0  0  0  0  0  0  0  0  0  0  0
   26.9663  -20.8907   -9.8248 C   0  0  0  0  0  0  0  0  0  0  0  0
   27.1764  -22.2615  -10.0874 O   0  0  0  0  0  0  0  0  0  0  0  0
   27.1518  -20.5421   -8.6260 O   0  0  0  0  0  0  0  0  0  0  0  0
  2  1  1  1
  2  3  1  0
  3  4  1  0
  4  5  2  0
  5  6  1  0
  7  6  2  0
  8  7  1  0
  9  4  1  0
  9  8  2  0
 10  2  1  0
 11 10  2  0
 13 12  1  6
 13 14  1  0
 14 10  1  0
 15 13  1  0
 15 17  1  0
 16 15  2  0
 18 17  1  0
 18 29  1  0
 19 20  1  0
 18 19  1  1
 20 21  2  0
 22 21  1  0
 23 22  1  0
 24 23  2  0
 25 24  1  0
 26 25  2  0
 26 27  1  0
 27 28  2  0
 28 23  1  0
 28 20  1  0
 29 30  1  0
 31 29  2  0
M  END
$$$$
