FAW.pdb
     RDKit          3D

 31 33  0  0  1  0  0  0  0  0999 V2000
   27.7952  -21.2153  -15.5283 N   0  0  0  0  0  0  0  0  0  0  0  0
   27.3734  -20.3515  -14.4353 C   0  0  1  0  0  0  0  0  0  0  0  0
   26.5541  -19.1835  -15.0290 C   0  0  0  0  0  0  0  0  0  0  0  0
   27.5397  -18.3529  -15.7712 C   0  0  0  0  0  0  0  0  0  0  0  0
   27.2516  -17.1969  -16.4343 C   0  0  0  0  0  0  0  0  0  0  0  0
   28.2222  -16.4750  -17.1137 C   0  0  0  0  0  0  0  0  0  0  0  0
   29.5378  -16.9442  -17.1208 C   0  0  0  0  0  0  0  0  0  0  0  0
   29.8229  -18.1057  -16.4533 C   0  0  0  0  0  0  0  0  0  0  0  0
   28.8495  -18.8234  -15.7757 C   0  0  0  0  0  0  0  0  0  0  0  0
   26.4431  -21.1017  -13.5749 C   0  0  0  0  0  0  0  0  0  0  0  0
   25.6350  -21.8969  -14.1026 O   0  0  0  0  0  0  0  0  0  0  0  0
   25.7325  -20.9928   -9.8486 C   0  0  0  0  0  0  0  0  0  0  0  0
   25.4270  -21.3103  -11.3073 C   0  0  2  0  0  0  0  0  0  0  0  0
   26.4971  -20.8965  -12.1715 N   0  0  0  0  0  0  0  0  0  0  0  0
   24.1759  -20.5772  -11.6208 C   0  0  0  0  0  0  0  0  0  0  0  0
   24.2165  -19.3343  -11.8173 O   0  0  0  0  0  0  0  0  0  0  0  0
   22.9160  -21.2038  -11.7139 N   0  0  0  0  0  0  0  0  0  0  0  0
   21.7162  -20.4075  -11.9993 C   0  0  1  0  0  0  0  0  0  0  0  0
   21.9557  -19.6096  -13.2313 C   0  0  0  0  0  0  0  0  0  0  0  0
   21.5990  -20.2565  -14.5060 C   0  0  0  0  0  0  0  0  0  0  0  0
   20.3348  -20.3579  -15.0851 C   0  0  0  0  0  0  0  0  0  0  0  0
   20.4224  -21.0504  -16.2286 N   0  0  0  0  0  0  0  0  0  0  0  0
   21.7029  -21.4241  -16.4499 C   0  0  0  0  0  0  0  0  0  0  0  0
   22.3182  -22.1327  -17.4801 C   0  0  0  0  0  0  0  0  0  0  0  0
   23.6761  -22.3687  -17.4754 C   0  0  0  0  0  0  0  0  0  0  0  0
   24.4276  -21.8881  -16.4243 C   0  0  0  0  0  0  0  0  0  0  0  0
   23.8010  -21.1917  -15.4166 C   0  0  0  0  0  0  0  0  0  0  0  0
   22.4341  -20.9372  -15.3909 C   0  0  0  0  0  0  0  0  0  0  0  0
   20.5569  -21.2837  -11.9659 C   0  0  0  0  0  0  0  0  0  0  0  0
   20.7521  -22.6816  -11.9687 O   0  0  0  0  0  0  0  0  0  0  0  0
   19.3509  -20.9130  -11.9338 O   0  0  0  0  0  0  0  0  0  0  0  0
  2  1  1  6
  2  3  1  0
  3  4  1  0
  4  5  2  0
  5  6  1  0
  7  6  2  0
  8  7  1  0
  9  4  1  0
  9  8  2  0
 10  2  1  0
 11 10  2  0
 13 12  1  1
 13 14  1  0
 14 10  1  0
 15 13  1  0
 15 17  1  0
 16 15  2  0
 18 17  1  0
 18 29  1  0
 19 20  1  0
 18 19  1  6
 20 21  2  0
 22 21  1  0
 23 22  1  0
 24 23  2  0
 25 24  1  0
 26 25  2  0
 26 27  1  0
 27 28  2  0
 28 23  1  0
 28 20  1  0
 29 30  1  0
 31 29  2  0
M  END
$$$$
