FAW.pdb
     RDKit          3D

 31 33  0  0  1  0  0  0  0  0999 V2000
   22.5343   -7.2147  -13.3705 N   0  0  0  0  0  0  0  0  0  0  0  0
   21.1485   -7.5393  -13.6756 C   0  0  1  0  0  0  0  0  0  0  0  0
   20.9100   -9.0251  -13.3241 C   0  0  0  0  0  0  0  0  0  0  0  0
   21.5544   -9.7943  -14.4219 C   0  0  0  0  0  0  0  0  0  0  0  0
   21.1759   -9.7614  -15.7314 C   0  0  0  0  0  0  0  0  0  0  0  0
   21.8194  -10.5129  -16.7040 C   0  0  0  0  0  0  0  0  0  0  0  0
   22.8896  -11.3306  -16.3339 C   0  0  0  0  0  0  0  0  0  0  0  0
   23.2666  -11.3605  -15.0175 C   0  0  0  0  0  0  0  0  0  0  0  0
   22.6205  -10.6076  -14.0493 C   0  0  0  0  0  0  0  0  0  0  0  0
   20.2752   -6.7659  -12.7768 C   0  0  0  0  0  0  0  0  0  0  0  0
   20.5817   -6.6678  -11.5683 O   0  0  0  0  0  0  0  0  0  0  0  0
   17.4258   -4.3823  -13.2958 C   0  0  0  0  0  0  0  0  0  0  0  0
   18.1947   -5.4218  -12.4895 C   0  0  2  0  0  0  0  0  0  0  0  0
   19.1126   -6.1554  -13.3155 N   0  0  0  0  0  0  0  0  0  0  0  0
   17.1644   -6.3193  -11.9117 C   0  0  0  0  0  0  0  0  0  0  0  0
   16.6780   -7.2422  -12.6168 O   0  0  0  0  0  0  0  0  0  0  0  0
   16.6870   -6.1978  -10.5904 N   0  0  0  0  0  0  0  0  0  0  0  0
   15.5397   -6.9979  -10.1448 C   0  0  1  0  0  0  0  0  0  0  0  0
   15.5292   -7.0291   -8.6579 C   0  0  0  0  0  0  0  0  0  0  0  0
   14.3427   -7.6334   -8.0274 C   0  0  0  0  0  0  0  0  0  0  0  0
   13.9402   -8.9675   -8.0735 C   0  0  0  0  0  0  0  0  0  0  0  0
   12.7893   -9.1094   -7.4025 N   0  0  0  0  0  0  0  0  0  0  0  0
   12.3933   -7.9183   -6.8996 C   0  0  0  0  0  0  0  0  0  0  0  0
   11.2980   -7.5325   -6.1294 C   0  0  0  0  0  0  0  0  0  0  0  0
   11.1330   -6.2258   -5.7231 C   0  0  0  0  0  0  0  0  0  0  0  0
   12.0784   -5.2933   -6.0934 C   0  0  0  0  0  0  0  0  0  0  0  0
   13.1521   -5.6944   -6.8546 C   0  0  0  0  0  0  0  0  0  0  0  0
   13.3475   -7.0034   -7.2813 C   0  0  0  0  0  0  0  0  0  0  0  0
   14.3476   -6.5233  -10.8278 C   0  0  0  0  0  0  0  0  0  0  0  0
   13.4422   -7.4642  -11.3635 O   0  0  0  0  0  0  0  0  0  0  0  0
   14.0254   -5.3149  -10.9987 O   0  0  0  0  0  0  0  0  0  0  0  0
  2  1  1  1
  2  3  1  0
  3  4  1  0
  4  5  2  0
  5  6  1  0
  7  6  2  0
  8  7  1  0
  9  4  1  0
  9  8  2  0
 10  2  1  0
 11 10  2  0
 13 12  1  6
 13 14  1  0
 14 10  1  0
 15 13  1  0
 15 17  1  0
 16 15  2  0
 18 17  1  0
 18 29  1  0
 19 20  1  0
 18 19  1  1
 20 21  2  0
 22 21  1  0
 23 22  1  0
 24 23  2  0
 25 24  1  0
 26 25  2  0
 26 27  1  0
 27 28  2  0
 28 23  1  0
 28 20  1  0
 29 30  1  0
 31 29  2  0
M  END
$$$$
