FAW.pdb
     RDKit          3D

 31 33  0  0  1  0  0  0  0  0999 V2000
   28.1094  -19.8868  -15.4970 N   0  0  0  0  0  0  0  0  0  0  0  0
   27.2720  -19.0194  -14.6814 C   0  0  1  0  0  0  0  0  0  0  0  0
   26.5468  -18.0263  -15.6172 C   0  0  0  0  0  0  0  0  0  0  0  0
   27.6248  -17.3832  -16.4149 C   0  0  0  0  0  0  0  0  0  0  0  0
   28.9290  -17.2772  -16.0317 C   0  0  0  0  0  0  0  0  0  0  0  0
   29.8825  -16.6560  -16.8252 C   0  0  0  0  0  0  0  0  0  0  0  0
   29.4981  -16.1209  -18.0568 C   0  0  0  0  0  0  0  0  0  0  0  0
   28.1871  -16.2297  -18.4380 C   0  0  0  0  0  0  0  0  0  0  0  0
   27.2379  -16.8515  -17.6416 C   0  0  0  0  0  0  0  0  0  0  0  0
   26.2150  -19.8349  -14.0599 C   0  0  0  0  0  0  0  0  0  0  0  0
   25.2321  -19.2619  -13.5407 O   0  0  0  0  0  0  0  0  0  0  0  0
   25.5723  -23.5613  -13.8846 C   0  0  0  0  0  0  0  0  0  0  0  0
   25.3500  -22.1048  -13.4963 C   0  0  2  0  0  0  0  0  0  0  0  0
   26.3483  -21.2479  -14.0729 N   0  0  0  0  0  0  0  0  0  0  0  0
   25.4132  -22.0735  -12.0145 C   0  0  0  0  0  0  0  0  0  0  0  0
   24.5024  -22.6242  -11.3418 O   0  0  0  0  0  0  0  0  0  0  0  0
   26.4560  -21.4501  -11.2986 N   0  0  0  0  0  0  0  0  0  0  0  0
   26.3960  -21.3640   -9.8344 C   0  0  1  0  0  0  0  0  0  0  0  0
   27.6490  -20.7318   -9.3424 C   0  0  0  0  0  0  0  0  0  0  0  0
   27.6050  -20.1722   -7.9802 C   0  0  0  0  0  0  0  0  0  0  0  0
   26.7350  -19.2013   -7.4860 C   0  0  0  0  0  0  0  0  0  0  0  0
   27.0400  -18.9380   -6.2083 N   0  0  0  0  0  0  0  0  0  0  0  0
   28.0876  -19.6965   -5.8137 C   0  0  0  0  0  0  0  0  0  0  0  0
   28.7694  -19.8138   -4.6040 C   0  0  0  0  0  0  0  0  0  0  0  0
   29.8170  -20.6970   -4.4554 C   0  0  0  0  0  0  0  0  0  0  0  0
   30.1863  -21.4732   -5.5332 C   0  0  0  0  0  0  0  0  0  0  0  0
   29.5009  -21.3417   -6.7190 C   0  0  0  0  0  0  0  0  0  0  0  0
   28.4409  -20.4605   -6.9022 C   0  0  0  0  0  0  0  0  0  0  0  0
   25.1297  -20.7595   -9.4549 C   0  0  0  0  0  0  0  0  0  0  0  0
   24.5875  -19.7365  -10.2621 O   0  0  0  0  0  0  0  0  0  0  0  0
   24.4392  -21.0638   -8.4431 O   0  0  0  0  0  0  0  0  0  0  0  0
  2  1  1  6
  2  3  1  0
  3  4  1  0
  4  5  2  0
  5  6  1  0
  7  6  2  0
  8  7  1  0
  9  4  1  0
  9  8  2  0
 10  2  1  0
 11 10  2  0
 13 12  1  6
 13 14  1  0
 14 10  1  0
 15 13  1  0
 15 17  1  0
 16 15  2  0
 18 17  1  0
 18 29  1  0
 19 20  1  0
 18 19  1  6
 20 21  2  0
 22 21  1  0
 23 22  1  0
 24 23  2  0
 25 24  1  0
 26 25  2  0
 26 27  1  0
 27 28  2  0
 28 23  1  0
 28 20  1  0
 29 30  1  0
 31 29  2  0
M  END
$$$$
