FAW.pdb
     RDKit          3D

 31 33  0  0  1  0  0  0  0  0999 V2000
   26.5884  -18.7411  -16.7592 N   0  0  0  0  0  0  0  0  0  0  0  0
   26.5199  -19.9299  -15.9221 C   0  0  1  0  0  0  0  0  0  0  0  0
   27.9397  -20.5304  -15.8159 C   0  0  0  0  0  0  0  0  0  0  0  0
   28.1527  -21.2580  -17.0956 C   0  0  0  0  0  0  0  0  0  0  0  0
   27.4370  -22.3413  -17.5119 C   0  0  0  0  0  0  0  0  0  0  0  0
   27.6956  -22.9768  -18.7176 C   0  0  0  0  0  0  0  0  0  0  0  0
   28.7210  -22.4944  -19.5342 C   0  0  0  0  0  0  0  0  0  0  0  0
   29.4373  -21.4058  -19.1123 C   0  0  0  0  0  0  0  0  0  0  0  0
   29.1750  -20.7742  -17.9065 C   0  0  0  0  0  0  0  0  0  0  0  0
   26.1498  -19.5228  -14.5562 C   0  0  0  0  0  0  0  0  0  0  0  0
   26.6850  -18.5078  -14.0589 O   0  0  0  0  0  0  0  0  0  0  0  0
   23.2800  -20.0868  -12.3391 C   0  0  0  0  0  0  0  0  0  0  0  0
   24.7885  -19.9614  -12.5134 C   0  0  2  0  0  0  0  0  0  0  0  0
   25.1940  -20.2985  -13.8495 N   0  0  0  0  0  0  0  0  0  0  0  0
   25.3826  -20.8949  -11.5253 C   0  0  0  0  0  0  0  0  0  0  0  0
   25.4603  -22.1217  -11.7979 O   0  0  0  0  0  0  0  0  0  0  0  0
   25.8766  -20.4808  -10.2711 N   0  0  0  0  0  0  0  0  0  0  0  0
   26.3383  -21.4760   -9.2957 C   0  0  1  0  0  0  0  0  0  0  0  0
   27.7364  -21.1498   -8.9075 C   0  0  0  0  0  0  0  0  0  0  0  0
   27.9044  -20.0533   -7.9380 C   0  0  0  0  0  0  0  0  0  0  0  0
   27.3115  -18.7918   -7.9677 C   0  0  0  0  0  0  0  0  0  0  0  0
   27.7455  -18.0704   -6.9256 N   0  0  0  0  0  0  0  0  0  0  0  0
   28.6134  -18.7967   -6.1855 C   0  0  0  0  0  0  0  0  0  0  0  0
   29.3222  -18.5226   -5.0174 C   0  0  0  0  0  0  0  0  0  0  0  0
   30.1467  -19.4656   -4.4423 C   0  0  0  0  0  0  0  0  0  0  0  0
   30.2623  -20.6997   -5.0456 C   0  0  0  0  0  0  0  0  0  0  0  0
   29.5547  -20.9501   -6.1987 C   0  0  0  0  0  0  0  0  0  0  0  0
   28.7157  -20.0213   -6.8045 C   0  0  0  0  0  0  0  0  0  0  0  0
   25.3444  -21.5908   -8.2414 C   0  0  0  0  0  0  0  0  0  0  0  0
   25.5234  -22.5600   -7.2310 O   0  0  0  0  0  0  0  0  0  0  0  0
   24.3005  -20.8901   -8.1302 O   0  0  0  0  0  0  0  0  0  0  0  0
  2  1  1  6
  2  3  1  0
  3  4  1  0
  4  5  2  0
  5  6  1  0
  7  6  2  0
  8  7  1  0
  9  4  1  0
  9  8  2  0
 10  2  1  0
 11 10  2  0
 13 12  1  6
 13 14  1  0
 14 10  1  0
 15 13  1  0
 15 17  1  0
 16 15  2  0
 18 17  1  0
 18 29  1  0
 19 20  1  0
 18 19  1  1
 20 21  2  0
 22 21  1  0
 23 22  1  0
 24 23  2  0
 25 24  1  0
 26 25  2  0
 26 27  1  0
 27 28  2  0
 28 23  1  0
 28 20  1  0
 29 30  1  0
 31 29  2  0
M  END
$$$$
