FAW.pdb
     RDKit          3D

 31 33  0  0  1  0  0  0  0  0999 V2000
   23.7421  -18.8840  -16.5552 N   0  0  0  0  0  0  0  0  0  0  0  0
   24.8312  -18.4579  -15.6884 C   0  0  1  0  0  0  0  0  0  0  0  0
   24.2291  -18.0137  -14.3364 C   0  0  0  0  0  0  0  0  0  0  0  0
   23.6101  -16.6875  -14.6015 C   0  0  0  0  0  0  0  0  0  0  0  0
   22.2810  -16.4691  -14.8130 C   0  0  0  0  0  0  0  0  0  0  0  0
   21.7724  -15.2027  -15.0625 C   0  0  0  0  0  0  0  0  0  0  0  0
   22.6467  -14.1140  -15.0989 C   0  0  0  0  0  0  0  0  0  0  0  0
   23.9810  -14.3378  -14.8857 C   0  0  0  0  0  0  0  0  0  0  0  0
   24.4844  -15.6053  -14.6367 C   0  0  0  0  0  0  0  0  0  0  0  0
   25.6788  -19.6246  -15.3899 C   0  0  0  0  0  0  0  0  0  0  0  0
   25.1790  -20.7694  -15.4489 O   0  0  0  0  0  0  0  0  0  0  0  0
   29.3792  -20.0170  -14.6699 C   0  0  0  0  0  0  0  0  0  0  0  0
   27.9427  -20.5019  -14.8213 C   0  0  2  0  0  0  0  0  0  0  0  0
   27.0388  -19.4084  -15.0458 N   0  0  0  0  0  0  0  0  0  0  0  0
   27.6239  -21.2045  -13.5542 C   0  0  0  0  0  0  0  0  0  0  0  0
   28.3931  -22.1086  -13.1344 O   0  0  0  0  0  0  0  0  0  0  0  0
   26.4855  -20.9133  -12.7746 N   0  0  0  0  0  0  0  0  0  0  0  0
   26.3300  -21.5142  -11.4442 C   0  0  1  0  0  0  0  0  0  0  0  0
   27.5118  -21.1527  -10.6169 C   0  0  0  0  0  0  0  0  0  0  0  0
   27.2308  -20.4624   -9.3460 C   0  0  0  0  0  0  0  0  0  0  0  0
   26.0885  -19.7401   -9.0036 C   0  0  0  0  0  0  0  0  0  0  0  0
   26.2321  -19.2369   -7.7703 N   0  0  0  0  0  0  0  0  0  0  0  0
   27.4327  -19.5917   -7.2593 C   0  0  0  0  0  0  0  0  0  0  0  0
   28.0514  -19.3449   -6.0354 C   0  0  0  0  0  0  0  0  0  0  0  0
   29.3023  -19.8490   -5.7508 C   0  0  0  0  0  0  0  0  0  0  0  0
   29.9416  -20.6109   -6.7054 C   0  0  0  0  0  0  0  0  0  0  0  0
   29.3140  -20.8424   -7.9078 C   0  0  0  0  0  0  0  0  0  0  0  0
   28.0539  -20.3482   -8.2264 C   0  0  0  0  0  0  0  0  0  0  0  0
   25.0100  -21.1814  -10.9344 C   0  0  0  0  0  0  0  0  0  0  0  0
   24.2572  -20.1772  -11.5801 O   0  0  0  0  0  0  0  0  0  0  0  0
   24.4460  -21.7149   -9.9392 O   0  0  0  0  0  0  0  0  0  0  0  0
  2  1  1  6
  2  3  1  0
  3  4  1  0
  4  5  2  0
  5  6  1  0
  7  6  2  0
  8  7  1  0
  9  4  1  0
  9  8  2  0
 10  2  1  0
 11 10  2  0
 13 12  1  1
 13 14  1  0
 14 10  1  0
 15 13  1  0
 15 17  1  0
 16 15  2  0
 18 17  1  0
 18 29  1  0
 19 20  1  0
 18 19  1  1
 20 21  2  0
 22 21  1  0
 23 22  1  0
 24 23  2  0
 25 24  1  0
 26 25  2  0
 26 27  1  0
 27 28  2  0
 28 23  1  0
 28 20  1  0
 29 30  1  0
 31 29  2  0
M  END
$$$$
