FAW.pdb
     RDKit          3D

 31 33  0  0  1  0  0  0  0  0999 V2000
   24.3375   -2.8239  -20.8728 N   0  0  0  0  0  0  0  0  0  0  0  0
   24.3224   -4.1948  -20.3836 C   0  0  1  0  0  0  0  0  0  0  0  0
   25.7796   -4.6255  -20.1033 C   0  0  0  0  0  0  0  0  0  0  0  0
   26.4027   -4.7908  -21.4437 C   0  0  0  0  0  0  0  0  0  0  0  0
   27.1987   -3.8705  -22.0589 C   0  0  0  0  0  0  0  0  0  0  0  0
   27.7418   -4.0886  -23.3167 C   0  0  0  0  0  0  0  0  0  0  0  0
   27.4666   -5.2882  -23.9773 C   0  0  0  0  0  0  0  0  0  0  0  0
   26.6667   -6.2100  -23.3557 C   0  0  0  0  0  0  0  0  0  0  0  0
   26.1265   -5.9874  -22.0986 C   0  0  0  0  0  0  0  0  0  0  0  0
   23.6350   -4.2221  -19.0816 C   0  0  0  0  0  0  0  0  0  0  0  0
   23.6663   -3.2034  -18.3568 O   0  0  0  0  0  0  0  0  0  0  0  0
   21.1658   -4.5317  -17.2748 C   0  0  0  0  0  0  0  0  0  0  0  0
   22.3138   -5.5238  -17.4148 C   0  0  2  0  0  0  0  0  0  0  0  0
   22.9572   -5.4073  -18.6937 N   0  0  0  0  0  0  0  0  0  0  0  0
   21.7034   -6.8654  -17.2462 C   0  0  0  0  0  0  0  0  0  0  0  0
   21.4515   -7.5657  -18.2618 O   0  0  0  0  0  0  0  0  0  0  0  0
   21.3816   -7.4152  -15.9882 N   0  0  0  0  0  0  0  0  0  0  0  0
   20.8475   -8.7794  -15.8949 C   0  0  1  0  0  0  0  0  0  0  0  0
   21.7558   -9.6982  -16.6315 C   0  0  0  0  0  0  0  0  0  0  0  0
   22.9757  -10.1174  -15.9196 C   0  0  0  0  0  0  0  0  0  0  0  0
   23.0624  -10.8580  -14.7416 C   0  0  0  0  0  0  0  0  0  0  0  0
   24.3495  -11.0012  -14.3985 N   0  0  0  0  0  0  0  0  0  0  0  0
   25.1438  -10.3845  -15.3024 C   0  0  0  0  0  0  0  0  0  0  0  0
   26.5266  -10.2522  -15.4137 C   0  0  0  0  0  0  0  0  0  0  0  0
   27.0983   -9.5723  -16.4675 C   0  0  0  0  0  0  0  0  0  0  0  0
   26.2734   -9.0177  -17.4228 C   0  0  0  0  0  0  0  0  0  0  0  0
   24.9108   -9.1589  -17.2942 C   0  0  0  0  0  0  0  0  0  0  0  0
   24.3025   -9.8374  -16.2438 C   0  0  0  0  0  0  0  0  0  0  0  0
   20.5608   -9.0730  -14.5005 C   0  0  0  0  0  0  0  0  0  0  0  0
   21.1191   -8.2525  -13.4968 O   0  0  0  0  0  0  0  0  0  0  0  0
   19.8394  -10.0183  -14.0774 O   0  0  0  0  0  0  0  0  0  0  0  0
  2  1  1  1
  2  3  1  0
  3  4  1  0
  4  5  2  0
  5  6  1  0
  7  6  2  0
  8  7  1  0
  9  4  1  0
  9  8  2  0
 10  2  1  0
 11 10  2  0
 13 12  1  6
 13 14  1  0
 14 10  1  0
 15 13  1  0
 15 17  1  0
 16 15  2  0
 18 17  1  0
 18 29  1  0
 19 20  1  0
 18 19  1  1
 20 21  2  0
 22 21  1  0
 23 22  1  0
 24 23  2  0
 25 24  1  0
 26 25  2  0
 26 27  1  0
 27 28  2  0
 28 23  1  0
 28 20  1  0
 29 30  1  0
 31 29  2  0
M  END
$$$$
