FAW.pdb
     RDKit          3D

 31 33  0  0  1  0  0  0  0  0999 V2000
   30.4317  -19.3210  -12.3497 N   0  0  0  0  0  0  0  0  0  0  0  0
   29.6408  -20.4593  -12.7944 C   0  0  1  0  0  0  0  0  0  0  0  0
   29.2958  -21.3218  -11.5595 C   0  0  0  0  0  0  0  0  0  0  0  0
   30.6016  -21.8311  -11.0619 C   0  0  0  0  0  0  0  0  0  0  0  0
   31.5499  -22.4422  -11.8276 C   0  0  0  0  0  0  0  0  0  0  0  0
   32.7457  -22.9004  -11.2940 C   0  0  0  0  0  0  0  0  0  0  0  0
   32.9898  -22.7322   -9.9290 C   0  0  0  0  0  0  0  0  0  0  0  0
   32.0346  -22.1176   -9.1635 C   0  0  0  0  0  0  0  0  0  0  0  0
   30.8412  -21.6614   -9.7015 C   0  0  0  0  0  0  0  0  0  0  0  0
   28.3549  -19.9644  -13.3140 C   0  0  0  0  0  0  0  0  0  0  0  0
   27.6942  -19.1538  -12.6282 O   0  0  0  0  0  0  0  0  0  0  0  0
   26.4862  -20.3164  -16.5685 C   0  0  0  0  0  0  0  0  0  0  0  0
   26.5812  -20.1545  -15.0564 C   0  0  2  0  0  0  0  0  0  0  0  0
   27.9091  -20.4251  -14.5803 N   0  0  0  0  0  0  0  0  0  0  0  0
   25.6061  -21.1188  -14.4907 C   0  0  0  0  0  0  0  0  0  0  0  0
   25.9151  -22.3362  -14.4032 O   0  0  0  0  0  0  0  0  0  0  0  0
   24.3252  -20.7446  -14.0347 N   0  0  0  0  0  0  0  0  0  0  0  0
   23.4408  -21.7425  -13.4207 C   0  0  1  0  0  0  0  0  0  0  0  0
   24.0975  -22.2717  -12.1957 C   0  0  0  0  0  0  0  0  0  0  0  0
   24.3644  -21.2947  -11.1258 C   0  0  0  0  0  0  0  0  0  0  0  0
   23.5382  -20.2583  -10.6933 C   0  0  0  0  0  0  0  0  0  0  0  0
   24.1553  -19.5716   -9.7225 N   0  0  0  0  0  0  0  0  0  0  0  0
   25.3736  -20.1044   -9.4772 C   0  0  0  0  0  0  0  0  0  0  0  0
   26.3847  -19.7805   -8.5746 C   0  0  0  0  0  0  0  0  0  0  0  0
   27.5510  -20.5124   -8.5130 C   0  0  0  0  0  0  0  0  0  0  0  0
   27.7062  -21.5833   -9.3672 C   0  0  0  0  0  0  0  0  0  0  0  0
   26.6965  -21.8861  -10.2515 C   0  0  0  0  0  0  0  0  0  0  0  0
   25.5089  -21.1681  -10.3395 C   0  0  0  0  0  0  0  0  0  0  0  0
   22.1112  -21.1697  -13.2914 C   0  0  0  0  0  0  0  0  0  0  0  0
   21.0491  -21.9903  -12.8545 O   0  0  0  0  0  0  0  0  0  0  0  0
   21.7948  -19.9729  -13.5377 O   0  0  0  0  0  0  0  0  0  0  0  0
  2  1  1  1
  2  3  1  0
  3  4  1  0
  4  5  2  0
  5  6  1  0
  7  6  2  0
  8  7  1  0
  9  4  1  0
  9  8  2  0
 10  2  1  0
 11 10  2  0
 13 12  1  6
 13 14  1  0
 14 10  1  0
 15 13  1  0
 15 17  1  0
 16 15  2  0
 18 17  1  0
 18 29  1  0
 19 20  1  0
 18 19  1  1
 20 21  2  0
 22 21  1  0
 23 22  1  0
 24 23  2  0
 25 24  1  0
 26 25  2  0
 26 27  1  0
 27 28  2  0
 28 23  1  0
 28 20  1  0
 29 30  1  0
 31 29  2  0
M  END
$$$$
