FAW.pdb
     RDKit          3D

 31 33  0  0  1  0  0  0  0  0999 V2000
   26.4007  -32.7396  -18.1673 N   0  0  0  0  0  0  0  0  0  0  0  0
   26.4677  -33.4795  -16.9155 C   0  0  1  0  0  0  0  0  0  0  0  0
   26.6799  -32.4689  -15.7659 C   0  0  0  0  0  0  0  0  0  0  0  0
   28.0616  -31.9507  -15.9517 C   0  0  0  0  0  0  0  0  0  0  0  0
   29.2033  -32.6700  -15.7566 C   0  0  0  0  0  0  0  0  0  0  0  0
   30.4629  -32.1188  -15.9420 C   0  0  0  0  0  0  0  0  0  0  0  0
   30.5689  -30.7846  -16.3413 C   0  0  0  0  0  0  0  0  0  0  0  0
   29.4196  -30.0657  -16.5364 C   0  0  0  0  0  0  0  0  0  0  0  0
   28.1632  -30.6210  -16.3499 C   0  0  0  0  0  0  0  0  0  0  0  0
   25.1576  -34.1047  -16.6678 C   0  0  0  0  0  0  0  0  0  0  0  0
   24.1674  -33.7222  -17.3290 O   0  0  0  0  0  0  0  0  0  0  0  0
   24.0608  -37.0424  -14.5431 C   0  0  0  0  0  0  0  0  0  0  0  0
   23.8422  -35.8447  -15.4594 C   0  0  2  0  0  0  0  0  0  0  0  0
   25.0642  -35.1242  -15.6846 N   0  0  0  0  0  0  0  0  0  0  0  0
   22.8416  -34.9934  -14.7703 C   0  0  0  0  0  0  0  0  0  0  0  0
   23.2072  -34.2448  -13.8262 O   0  0  0  0  0  0  0  0  0  0  0  0
   21.4750  -34.9722  -15.1175 N   0  0  0  0  0  0  0  0  0  0  0  0
   20.5612  -34.0326  -14.4566 C   0  0  1  0  0  0  0  0  0  0  0  0
   19.9289  -33.1738  -15.4932 C   0  0  0  0  0  0  0  0  0  0  0  0
   18.7434  -33.7316  -16.1669 C   0  0  0  0  0  0  0  0  0  0  0  0
   17.5019  -34.0230  -15.6034 C   0  0  0  0  0  0  0  0  0  0  0  0
   16.7000  -34.5492  -16.5388 N   0  0  0  0  0  0  0  0  0  0  0  0
   17.3515  -34.6260  -17.7212 C   0  0  0  0  0  0  0  0  0  0  0  0
   16.9708  -35.0728  -18.9851 C   0  0  0  0  0  0  0  0  0  0  0  0
   17.8405  -35.0254  -20.0533 C   0  0  0  0  0  0  0  0  0  0  0  0
   19.1086  -34.5234  -19.8524 C   0  0  0  0  0  0  0  0  0  0  0  0
   19.4653  -34.0881  -18.5968 C   0  0  0  0  0  0  0  0  0  0  0  0
   18.6128  -34.1228  -17.4988 C   0  0  0  0  0  0  0  0  0  0  0  0
   19.6914  -34.7795  -13.5630 C   0  0  0  0  0  0  0  0  0  0  0  0
   18.9879  -34.0889  -12.5529 O   0  0  0  0  0  0  0  0  0  0  0  0
   19.4919  -36.0254  -13.5962 O   0  0  0  0  0  0  0  0  0  0  0  0
  2  1  1  6
  2  3  1  0
  3  4  1  0
  4  5  2  0
  5  6  1  0
  7  6  2  0
  8  7  1  0
  9  4  1  0
  9  8  2  0
 10  2  1  0
 11 10  2  0
 13 12  1  1
 13 14  1  0
 14 10  1  0
 15 13  1  0
 15 17  1  0
 16 15  2  0
 18 17  1  0
 18 29  1  0
 19 20  1  0
 18 19  1  6
 20 21  2  0
 22 21  1  0
 23 22  1  0
 24 23  2  0
 25 24  1  0
 26 25  2  0
 26 27  1  0
 27 28  2  0
 28 23  1  0
 28 20  1  0
 29 30  1  0
 31 29  2  0
M  END
$$$$
