FAW.pdb
     RDKit          3D

 31 33  0  0  1  0  0  0  0  0999 V2000
   14.9166  -19.3246    4.4578 N   0  0  0  0  0  0  0  0  0  0  0  0
   16.2411  -19.5112    5.0321 C   0  0  1  0  0  0  0  0  0  0  0  0
   17.2875  -19.3084    3.9133 C   0  0  0  0  0  0  0  0  0  0  0  0
   18.5020  -20.0295    4.3792 C   0  0  0  0  0  0  0  0  0  0  0  0
   18.6293  -21.3847    4.4577 C   0  0  0  0  0  0  0  0  0  0  0  0
   19.7922  -21.9912    4.9099 C   0  0  0  0  0  0  0  0  0  0  0  0
   20.8695  -21.1912    5.2980 C   0  0  0  0  0  0  0  0  0  0  0  0
   20.7375  -19.8303    5.2174 C   0  0  0  0  0  0  0  0  0  0  0  0
   19.5733  -19.2290    4.7648 C   0  0  0  0  0  0  0  0  0  0  0  0
   16.4841  -18.4394    6.0123 C   0  0  0  0  0  0  0  0  0  0  0  0
   16.0928  -17.2801    5.7541 O   0  0  0  0  0  0  0  0  0  0  0  0
   17.7942  -18.4296    9.5601 C   0  0  0  0  0  0  0  0  0  0  0  0
   17.3679  -17.7807    8.2491 C   0  0  2  0  0  0  0  0  0  0  0  0
   17.1551  -18.7610    7.2210 N   0  0  0  0  0  0  0  0  0  0  0  0
   18.4706  -16.8577    7.8845 C   0  0  0  0  0  0  0  0  0  0  0  0
   19.3317  -17.2208    7.0407 O   0  0  0  0  0  0  0  0  0  0  0  0
   18.6150  -15.5692    8.4391 N   0  0  0  0  0  0  0  0  0  0  0  0
   19.6777  -14.6762    7.9617 C   0  0  1  0  0  0  0  0  0  0  0  0
   19.2982  -13.2730    8.2761 C   0  0  0  0  0  0  0  0  0  0  0  0
   20.2598  -12.2321    7.8731 C   0  0  0  0  0  0  0  0  0  0  0  0
   20.3211  -11.5544    6.6562 C   0  0  0  0  0  0  0  0  0  0  0  0
   21.3605  -10.7093    6.6683 N   0  0  0  0  0  0  0  0  0  0  0  0
   22.0099  -10.7866    7.8518 C   0  0  0  0  0  0  0  0  0  0  0  0
   23.1208  -10.1220    8.3676 C   0  0  0  0  0  0  0  0  0  0  0  0
   23.5810  -10.3785    9.6413 C   0  0  0  0  0  0  0  0  0  0  0  0
   22.9190  -11.3132   10.4084 C   0  0  0  0  0  0  0  0  0  0  0  0
   21.8247  -11.9589    9.8803 C   0  0  0  0  0  0  0  0  0  0  0  0
   21.3357  -11.7241    8.5999 C   0  0  0  0  0  0  0  0  0  0  0  0
   20.9544  -15.1666    8.4542 C   0  0  0  0  0  0  0  0  0  0  0  0
   21.0383  -15.6581    9.7746 O   0  0  0  0  0  0  0  0  0  0  0  0
   22.0345  -15.2003    7.8021 O   0  0  0  0  0  0  0  0  0  0  0  0
  2  1  1  6
  2  3  1  0
  3  4  1  0
  4  5  2  0
  5  6  1  0
  7  6  2  0
  8  7  1  0
  9  4  1  0
  9  8  2  0
 10  2  1  0
 11 10  2  0
 13 12  1  1
 13 14  1  0
 14 10  1  0
 15 13  1  0
 15 17  1  0
 16 15  2  0
 18 17  1  0
 18 29  1  0
 19 20  1  0
 18 19  1  1
 20 21  2  0
 22 21  1  0
 23 22  1  0
 24 23  2  0
 25 24  1  0
 26 25  2  0
 26 27  1  0
 27 28  2  0
 28 23  1  0
 28 20  1  0
 29 30  1  0
 31 29  2  0
M  END
$$$$
