FAW.pdb
     RDKit          3D

 31 33  0  0  1  0  0  0  0  0999 V2000
   25.4702  -15.4058  -17.4468 N   0  0  0  0  0  0  0  0  0  0  0  0
   25.9759  -16.5760  -16.7441 C   0  0  1  0  0  0  0  0  0  0  0  0
   27.0869  -16.1160  -15.7736 C   0  0  0  0  0  0  0  0  0  0  0  0
   28.3265  -16.0672  -16.5940 C   0  0  0  0  0  0  0  0  0  0  0  0
   28.8381  -14.9466  -17.1785 C   0  0  0  0  0  0  0  0  0  0  0  0
   29.9983  -14.9756  -17.9387 C   0  0  0  0  0  0  0  0  0  0  0  0
   30.6665  -16.1897  -18.1132 C   0  0  0  0  0  0  0  0  0  0  0  0
   30.1493  -17.3128  -17.5241 C   0  0  0  0  0  0  0  0  0  0  0  0
   28.9897  -17.2787  -16.7653 C   0  0  0  0  0  0  0  0  0  0  0  0
   24.8994  -17.1187  -15.8985 C   0  0  0  0  0  0  0  0  0  0  0  0
   24.3751  -16.3814  -15.0351 O   0  0  0  0  0  0  0  0  0  0  0  0
   22.6369  -20.0583  -16.0068 C   0  0  0  0  0  0  0  0  0  0  0  0
   23.5277  -19.0926  -15.2350 C   0  0  2  0  0  0  0  0  0  0  0  0
   24.4918  -18.4641  -16.0944 N   0  0  0  0  0  0  0  0  0  0  0  0
   24.1963  -19.9124  -14.1949 C   0  0  0  0  0  0  0  0  0  0  0  0
   25.3396  -20.3897  -14.4194 O   0  0  0  0  0  0  0  0  0  0  0  0
   23.6146  -20.1950  -12.9417 N   0  0  0  0  0  0  0  0  0  0  0  0
   24.3808  -20.9189  -11.9200 C   0  0  1  0  0  0  0  0  0  0  0  0
   25.5882  -20.1217  -11.5758 C   0  0  0  0  0  0  0  0  0  0  0  0
   26.4904  -20.7074  -10.5691 C   0  0  0  0  0  0  0  0  0  0  0  0
   27.2016  -21.9034  -10.6559 C   0  0  0  0  0  0  0  0  0  0  0  0
   27.8815  -22.1015   -9.5186 N   0  0  0  0  0  0  0  0  0  0  0  0
   27.6591  -21.0814   -8.6593 C   0  0  0  0  0  0  0  0  0  0  0  0
   28.1289  -20.8037   -7.3770 C   0  0  0  0  0  0  0  0  0  0  0  0
   27.7538  -19.6575   -6.7097 C   0  0  0  0  0  0  0  0  0  0  0  0
   26.8967  -18.7777   -7.3356 C   0  0  0  0  0  0  0  0  0  0  0  0
   26.4436  -19.0707   -8.6014 C   0  0  0  0  0  0  0  0  0  0  0  0
   26.8018  -20.2176   -9.3013 C   0  0  0  0  0  0  0  0  0  0  0  0
   23.4803  -21.2967  -10.8433 C   0  0  0  0  0  0  0  0  0  0  0  0
   22.6838  -20.3037  -10.2335 O   0  0  0  0  0  0  0  0  0  0  0  0
   23.3303  -22.4609  -10.3793 O   0  0  0  0  0  0  0  0  0  0  0  0
  2  1  1  1
  2  3  1  0
  3  4  1  0
  4  5  2  0
  5  6  1  0
  7  6  2  0
  8  7  1  0
  9  4  1  0
  9  8  2  0
 10  2  1  0
 11 10  2  0
 13 12  1  6
 13 14  1  0
 14 10  1  0
 15 13  1  0
 15 17  1  0
 16 15  2  0
 18 17  1  0
 18 29  1  0
 19 20  1  0
 18 19  1  1
 20 21  2  0
 22 21  1  0
 23 22  1  0
 24 23  2  0
 25 24  1  0
 26 25  2  0
 26 27  1  0
 27 28  2  0
 28 23  1  0
 28 20  1  0
 29 30  1  0
 31 29  2  0
M  END
$$$$
