SFK.pdb
     RDKit          3D

 27 27  0  0  1  0  0  0  0  0999 V2000
   27.3297  -18.4248  -15.3963 O   0  0  0  0  0  0  0  0  0  0  0  0
   27.9932  -18.3434  -14.1750 C   0  0  0  0  0  0  0  0  0  0  0  0
   28.4386  -19.7391  -13.7380 C   0  0  2  0  0  0  0  0  0  0  0  0
   29.0342  -20.4437  -14.8264 N   0  0  0  0  0  0  0  0  0  0  0  0
   27.3083  -20.4797  -13.1177 C   0  0  0  0  0  0  0  0  0  0  0  0
   26.8846  -21.5457  -13.6389 O   0  0  0  0  0  0  0  0  0  0  0  0
   26.6621  -20.0347  -11.9330 N   0  0  0  0  0  0  0  0  0  0  0  0
   25.6154  -20.8161  -11.3541 C   0  0  1  0  0  0  0  0  0  0  0  0
   25.3455  -20.4514   -9.9073 C   0  0  0  0  0  0  0  0  0  0  0  0
   26.5204  -20.6608   -9.0419 C   0  0  0  0  0  0  0  0  0  0  0  0
   27.4967  -21.6007   -9.3088 C   0  0  0  0  0  0  0  0  0  0  0  0
   28.5916  -21.7684   -8.4668 C   0  0  0  0  0  0  0  0  0  0  0  0
   28.7449  -21.0017   -7.3314 C   0  0  0  0  0  0  0  0  0  0  0  0
   27.7724  -20.0624   -7.0615 C   0  0  0  0  0  0  0  0  0  0  0  0
   26.6900  -19.9021   -7.9010 C   0  0  0  0  0  0  0  0  0  0  0  0
   24.3459  -20.5783  -12.0843 C   0  0  0  0  0  0  0  0  0  0  0  0
   24.1035  -19.4198  -12.4896 O   0  0  0  0  0  0  0  0  0  0  0  0
   23.3994  -21.6045  -12.3415 N   0  0  0  0  0  0  0  0  0  0  0  0
   22.2439  -21.4174  -13.2326 C   0  0  1  0  0  0  0  0  0  0  0  0
   21.8113  -22.7146  -13.8136 C   0  0  0  0  0  0  0  0  0  0  0  0
   20.6297  -22.5447  -14.7087 C   0  0  0  0  0  0  0  0  0  0  0  0
   20.1328  -23.8927  -15.2350 C   0  0  0  0  0  0  0  0  0  0  0  0
   18.9594  -23.7207  -16.1684 C   0  0  0  0  0  0  0  0  0  0  0  0
   18.5315  -24.9957  -16.6861 N   0  0  0  0  0  0  0  0  0  0  0  0
   21.1910  -20.8012  -12.4306 C   0  0  0  0  0  0  0  0  0  0  0  0
   20.1582  -20.3384  -12.9403 O   0  0  0  0  0  0  0  0  0  0  0  0
   21.3187  -20.7154  -11.0575 O   0  0  0  0  0  0  0  0  0  0  0  0
  2  1  1  0
  3  2  1  0
  3  4  1  6
  5  3  1  0
  5  7  1  0
  6  5  2  0
  8  7  1  0
  8  9  1  1
 10  9  1  0
 10 15  2  0
 11 10  1  0
 12 11  2  0
 12 13  1  0
 13 14  2  0
 14 15  1  0
 16  8  1  0
 17 16  2  0
 18 16  1  0
 19 20  1  1
 19 18  1  0
 21 20  1  0
 22 21  1  0
 23 22  1  0
 24 23  1  0
 25 19  1  0
 26 25  2  0
 27 25  1  0
M  END
$$$$
