SFK.pdb
     RDKit          3D

 27 27  0  0  1  0  0  0  0  0999 V2000
   26.5501  -18.2001  -15.9226 O   0  0  0  0  0  0  0  0  0  0  0  0
   27.7336  -18.1480  -15.1912 C   0  0  0  0  0  0  0  0  0  0  0  0
   28.2196  -19.5676  -14.8980 C   0  0  2  0  0  0  0  0  0  0  0  0
   28.5276  -20.2568  -16.1088 N   0  0  0  0  0  0  0  0  0  0  0  0
   27.2359  -20.2941  -14.0522 C   0  0  0  0  0  0  0  0  0  0  0  0
   26.6757  -21.3375  -14.4823 O   0  0  0  0  0  0  0  0  0  0  0  0
   26.8843  -19.8601  -12.7455 N   0  0  0  0  0  0  0  0  0  0  0  0
   25.9098  -20.5829  -11.9912 C   0  0  1  0  0  0  0  0  0  0  0  0
   26.0989  -20.4310  -10.4944 C   0  0  0  0  0  0  0  0  0  0  0  0
   27.4410  -20.8466  -10.0482 C   0  0  0  0  0  0  0  0  0  0  0  0
   28.4245  -21.2803  -10.9157 C   0  0  0  0  0  0  0  0  0  0  0  0
   29.6799  -21.6647  -10.4552 C   0  0  0  0  0  0  0  0  0  0  0  0
   29.9917  -21.6276   -9.1129 C   0  0  0  0  0  0  0  0  0  0  0  0
   29.0127  -21.1953   -8.2437 C   0  0  0  0  0  0  0  0  0  0  0  0
   27.7706  -20.8159   -8.7078 C   0  0  0  0  0  0  0  0  0  0  0  0
   24.5529  -20.0634  -12.2915 C   0  0  0  0  0  0  0  0  0  0  0  0
   24.4512  -18.9084  -12.7614 O   0  0  0  0  0  0  0  0  0  0  0  0
   23.3710  -20.8175  -12.0695 N   0  0  0  0  0  0  0  0  0  0  0  0
   22.3061  -20.9446  -13.0765 C   0  0  1  0  0  0  0  0  0  0  0  0
   22.8096  -21.6363  -14.2912 C   0  0  0  0  0  0  0  0  0  0  0  0
   22.3601  -20.9486  -15.5367 C   0  0  0  0  0  0  0  0  0  0  0  0
   21.6983  -21.9304  -16.5057 C   0  0  0  0  0  0  0  0  0  0  0  0
   21.2891  -21.2474  -17.7878 C   0  0  0  0  0  0  0  0  0  0  0  0
   20.5859  -22.1640  -18.6492 N   0  0  0  0  0  0  0  0  0  0  0  0
   21.2153  -21.6799  -12.4432 C   0  0  0  0  0  0  0  0  0  0  0  0
   21.2866  -22.8974  -12.2122 O   0  0  0  0  0  0  0  0  0  0  0  0
   20.0534  -21.0279  -12.0773 O   0  0  0  0  0  0  0  0  0  0  0  0
  2  1  1  0
  3  2  1  0
  3  4  1  6
  5  3  1  0
  5  7  1  0
  6  5  2  0
  8  7  1  0
  8  9  1  1
 10  9  1  0
 10 15  2  0
 11 10  1  0
 12 11  2  0
 12 13  1  0
 13 14  2  0
 14 15  1  0
 16  8  1  0
 17 16  2  0
 18 16  1  0
 19 20  1  6
 19 18  1  0
 21 20  1  0
 22 21  1  0
 23 22  1  0
 24 23  1  0
 25 19  1  0
 26 25  2  0
 27 25  1  0
M  END
$$$$
