SFK.pdb
     RDKit          3D

 27 27  0  0  1  0  0  0  0  0999 V2000
   26.8845  -20.7608  -18.2083 O   0  0  0  0  0  0  0  0  0  0  0  0
   28.0570  -20.5012  -17.5039 C   0  0  0  0  0  0  0  0  0  0  0  0
   28.3667  -21.6727  -16.5717 C   0  0  2  0  0  0  0  0  0  0  0  0
   28.4955  -22.8865  -17.3106 N   0  0  0  0  0  0  0  0  0  0  0  0
   27.3548  -21.7602  -15.4858 C   0  0  0  0  0  0  0  0  0  0  0  0
   26.6460  -22.7941  -15.3592 O   0  0  0  0  0  0  0  0  0  0  0  0
   27.1391  -20.7073  -14.5562 N   0  0  0  0  0  0  0  0  0  0  0  0
   26.2137  -20.8819  -13.4818 C   0  0  1  0  0  0  0  0  0  0  0  0
   26.4380  -19.8967  -12.3512 C   0  0  0  0  0  0  0  0  0  0  0  0
   25.5887  -20.1768  -11.1793 C   0  0  0  0  0  0  0  0  0  0  0  0
   26.0410  -20.8541  -10.0637 C   0  0  0  0  0  0  0  0  0  0  0  0
   25.2077  -21.0993   -8.9767 C   0  0  0  0  0  0  0  0  0  0  0  0
   23.8961  -20.6750   -8.9708 C   0  0  0  0  0  0  0  0  0  0  0  0
   23.4409  -19.9986  -10.0826 C   0  0  0  0  0  0  0  0  0  0  0  0
   24.2729  -19.7594  -11.1561 C   0  0  0  0  0  0  0  0  0  0  0  0
   24.8304  -20.6491  -13.9650 C   0  0  0  0  0  0  0  0  0  0  0  0
   24.6095  -19.6347  -14.6631 O   0  0  0  0  0  0  0  0  0  0  0  0
   23.7522  -21.5242  -13.6704 N   0  0  0  0  0  0  0  0  0  0  0  0
   22.3964  -21.3264  -14.2061 C   0  0  1  0  0  0  0  0  0  0  0  0
   21.9064  -22.5624  -14.8691 C   0  0  0  0  0  0  0  0  0  0  0  0
   21.8102  -22.3871  -16.3478 C   0  0  0  0  0  0  0  0  0  0  0  0
   21.2897  -23.6563  -17.0251 C   0  0  0  0  0  0  0  0  0  0  0  0
   21.1785  -23.4770  -18.5195 C   0  0  0  0  0  0  0  0  0  0  0  0
   20.7301  -24.6953  -19.1451 N   0  0  0  0  0  0  0  0  0  0  0  0
   21.5521  -20.9410  -13.0790 C   0  0  0  0  0  0  0  0  0  0  0  0
   20.5205  -20.2669  -13.2271 O   0  0  0  0  0  0  0  0  0  0  0  0
   21.8852  -21.3238  -11.7939 O   0  0  0  0  0  0  0  0  0  0  0  0
  2  1  1  0
  3  2  1  0
  3  4  1  6
  5  3  1  0
  5  7  1  0
  6  5  2  0
  8  7  1  0
  8  9  1  1
 10  9  1  0
 10 15  2  0
 11 10  1  0
 12 11  2  0
 12 13  1  0
 13 14  2  0
 14 15  1  0
 16  8  1  0
 17 16  2  0
 18 16  1  0
 19 20  1  1
 19 18  1  0
 21 20  1  0
 22 21  1  0
 23 22  1  0
 24 23  1  0
 25 19  1  0
 26 25  2  0
 27 25  1  0
M  END
$$$$
