SFK.pdb
     RDKit          3D

 27 27  0  0  1  0  0  0  0  0999 V2000
   28.2504  -17.5303  -15.4441 O   0  0  0  0  0  0  0  0  0  0  0  0
   27.3498  -18.4726  -14.9548 C   0  0  0  0  0  0  0  0  0  0  0  0
   28.0961  -19.5092  -14.1147 C   0  0  2  0  0  0  0  0  0  0  0  0
   28.9754  -20.2826  -14.9300 N   0  0  0  0  0  0  0  0  0  0  0  0
   27.1394  -20.3439  -13.3409 C   0  0  0  0  0  0  0  0  0  0  0  0
   26.8545  -21.5086  -13.7280 O   0  0  0  0  0  0  0  0  0  0  0  0
   26.5111  -19.8829  -12.1527 N   0  0  0  0  0  0  0  0  0  0  0  0
   25.5716  -20.7166  -11.4720 C   0  0  1  0  0  0  0  0  0  0  0  0
   25.3376  -20.2837  -10.0378 C   0  0  0  0  0  0  0  0  0  0  0  0
   26.5763  -20.2783   -9.2387 C   0  0  0  0  0  0  0  0  0  0  0  0
   26.8016  -19.3949   -8.2010 C   0  0  0  0  0  0  0  0  0  0  0  0
   27.9850  -19.4214   -7.4698 C   0  0  0  0  0  0  0  0  0  0  0  0
   28.9807  -20.3318   -7.7531 C   0  0  0  0  0  0  0  0  0  0  0  0
   28.7597  -21.2153   -8.7883 C   0  0  0  0  0  0  0  0  0  0  0  0
   27.5839  -21.1829   -9.5084 C   0  0  0  0  0  0  0  0  0  0  0  0
   24.2521  -20.6443  -12.1465 C   0  0  0  0  0  0  0  0  0  0  0  0
   23.8799  -19.5407  -12.6032 O   0  0  0  0  0  0  0  0  0  0  0  0
   23.3983  -21.7686  -12.2949 N   0  0  0  0  0  0  0  0  0  0  0  0
   22.1287  -21.7124  -13.0360 C   0  0  1  0  0  0  0  0  0  0  0  0
   21.6273  -23.0805  -13.3264 C   0  0  0  0  0  0  0  0  0  0  0  0
   20.3690  -23.0420  -14.1274 C   0  0  0  0  0  0  0  0  0  0  0  0
   19.8358  -24.4513  -14.3925 C   0  0  0  0  0  0  0  0  0  0  0  0
   18.5494  -24.4140  -15.1811 C   0  0  0  0  0  0  0  0  0  0  0  0
   18.0050  -25.7403  -15.3274 N   0  0  0  0  0  0  0  0  0  0  0  0
   21.1942  -20.9532  -12.2103 C   0  0  0  0  0  0  0  0  0  0  0  0
   21.3110  -20.8816  -10.9766 O   0  0  0  0  0  0  0  0  0  0  0  0
   20.1355  -20.2816  -12.7910 O   0  0  0  0  0  0  0  0  0  0  0  0
  2  1  1  0
  3  2  1  0
  3  4  1  6
  5  3  1  0
  5  7  1  0
  6  5  2  0
  8  7  1  0
  8  9  1  1
 10  9  1  0
 10 15  2  0
 11 10  1  0
 12 11  2  0
 12 13  1  0
 13 14  2  0
 14 15  1  0
 16  8  1  0
 17 16  2  0
 18 16  1  0
 19 20  1  1
 19 18  1  0
 21 20  1  0
 22 21  1  0
 23 22  1  0
 24 23  1  0
 25 19  1  0
 26 25  2  0
 27 25  1  0
M  END
$$$$
