SFK.pdb
     RDKit          3D

 27 27  0  0  1  0  0  0  0  0999 V2000
   31.0164  -21.2200  -12.5699 O   0  0  0  0  0  0  0  0  0  0  0  0
   30.2580  -20.4989  -11.6516 C   0  0  0  0  0  0  0  0  0  0  0  0
   30.4454  -21.0892  -10.2538 C   0  0  2  0  0  0  0  0  0  0  0  0
   31.2315  -22.2788  -10.3086 N   0  0  0  0  0  0  0  0  0  0  0  0
   29.1304  -21.2939   -9.5907 C   0  0  0  0  0  0  0  0  0  0  0  0
   28.6339  -22.4488   -9.5065 O   0  0  0  0  0  0  0  0  0  0  0  0
   28.3826  -20.2233   -9.0306 N   0  0  0  0  0  0  0  0  0  0  0  0
   27.0200  -20.4257   -8.6516 C   0  0  1  0  0  0  0  0  0  0  0  0
   26.5539  -19.4403   -7.5976 C   0  0  0  0  0  0  0  0  0  0  0  0
   27.2521  -19.6148   -6.3111 C   0  0  0  0  0  0  0  0  0  0  0  0
   28.2516  -18.7678   -5.8735 C   0  0  0  0  0  0  0  0  0  0  0  0
   28.8873  -18.9663   -4.6519 C   0  0  0  0  0  0  0  0  0  0  0  0
   28.5438  -20.0178   -3.8292 C   0  0  0  0  0  0  0  0  0  0  0  0
   27.5466  -20.8655   -4.2625 C   0  0  0  0  0  0  0  0  0  0  0  0
   26.9211  -20.6622   -5.4747 C   0  0  0  0  0  0  0  0  0  0  0  0
   26.1351  -20.2253   -9.8254 C   0  0  0  0  0  0  0  0  0  0  0  0
   26.2812  -19.1866  -10.5072 O   0  0  0  0  0  0  0  0  0  0  0  0
   25.1345  -21.1575  -10.2060 N   0  0  0  0  0  0  0  0  0  0  0  0
   24.3869  -21.0527  -11.4686 C   0  0  1  0  0  0  0  0  0  0  0  0
   24.4892  -22.3137  -12.2477 C   0  0  0  0  0  0  0  0  0  0  0  0
   23.6109  -22.2830  -13.4536 C   0  0  0  0  0  0  0  0  0  0  0  0
   23.6874  -23.5989  -14.2303 C   0  0  0  0  0  0  0  0  0  0  0  0
   22.8815  -23.5337  -15.5047 C   0  0  0  0  0  0  0  0  0  0  0  0
   23.0046  -24.7630  -16.2466 N   0  0  0  0  0  0  0  0  0  0  0  0
   23.0052  -20.7419  -11.1136 C   0  0  0  0  0  0  0  0  0  0  0  0
   22.5854  -20.8373   -9.9494 O   0  0  0  0  0  0  0  0  0  0  0  0
   22.1120  -20.3255  -12.0820 O   0  0  0  0  0  0  0  0  0  0  0  0
  2  1  1  0
  3  2  1  0
  3  4  1  6
  5  3  1  0
  5  7  1  0
  6  5  2  0
  8  7  1  0
  8  9  1  1
 10  9  1  0
 10 15  2  0
 11 10  1  0
 12 11  2  0
 12 13  1  0
 13 14  2  0
 14 15  1  0
 16  8  1  0
 17 16  2  0
 18 16  1  0
 19 20  1  1
 19 18  1  0
 21 20  1  0
 22 21  1  0
 23 22  1  0
 24 23  1  0
 25 19  1  0
 26 25  2  0
 27 25  1  0
M  END
$$$$
