SFK.pdb
     RDKit          3D

 27 27  0  0  1  0  0  0  0  0999 V2000
   25.2609  -21.7595  -18.3657 O   0  0  0  0  0  0  0  0  0  0  0  0
   26.4948  -21.2285  -17.9998 C   0  0  0  0  0  0  0  0  0  0  0  0
   27.1727  -22.1529  -16.9882 C   0  0  2  0  0  0  0  0  0  0  0  0
   27.3697  -23.4524  -17.5436 N   0  0  0  0  0  0  0  0  0  0  0  0
   26.4130  -22.1783  -15.7103 C   0  0  0  0  0  0  0  0  0  0  0  0
   25.9478  -23.2627  -15.2687 O   0  0  0  0  0  0  0  0  0  0  0  0
   26.1774  -21.0087  -14.9384 N   0  0  0  0  0  0  0  0  0  0  0  0
   25.4569  -21.0983  -13.7080 C   0  0  1  0  0  0  0  0  0  0  0  0
   25.8240  -19.9957  -12.7339 C   0  0  0  0  0  0  0  0  0  0  0  0
   25.2105  -20.1851  -11.4069 C   0  0  0  0  0  0  0  0  0  0  0  0
   25.8226  -20.8843  -10.3850 C   0  0  0  0  0  0  0  0  0  0  0  0
   25.2105  -21.0415   -9.1455 C   0  0  0  0  0  0  0  0  0  0  0  0
   23.9670  -20.5045   -8.8885 C   0  0  0  0  0  0  0  0  0  0  0  0
   23.3528  -19.8058   -9.9061 C   0  0  0  0  0  0  0  0  0  0  0  0
   23.9660  -19.6543  -11.1321 C   0  0  0  0  0  0  0  0  0  0  0  0
   24.0024  -20.9567  -13.9640 C   0  0  0  0  0  0  0  0  0  0  0  0
   23.6311  -20.1420  -14.8378 O   0  0  0  0  0  0  0  0  0  0  0  0
   23.0189  -21.7028  -13.2631 N   0  0  0  0  0  0  0  0  0  0  0  0
   21.5818  -21.6049  -13.5620 C   0  0  1  0  0  0  0  0  0  0  0  0
   20.8352  -22.7240  -12.9314 C   0  0  0  0  0  0  0  0  0  0  0  0
   19.3818  -22.6665  -13.2642 C   0  0  0  0  0  0  0  0  0  0  0  0
   18.6257  -23.8504  -12.6581 C   0  0  0  0  0  0  0  0  0  0  0  0
   17.1942  -23.8916  -13.1345 C   0  0  0  0  0  0  0  0  0  0  0  0
   16.5021  -25.0203  -12.5655 N   0  0  0  0  0  0  0  0  0  0  0  0
   21.1377  -20.3055  -13.0661 C   0  0  0  0  0  0  0  0  0  0  0  0
   21.4521  -19.8856  -11.9412 O   0  0  0  0  0  0  0  0  0  0  0  0
   20.3411  -19.4936  -13.8506 O   0  0  0  0  0  0  0  0  0  0  0  0
  2  1  1  0
  3  2  1  0
  3  4  1  6
  5  3  1  0
  5  7  1  0
  6  5  2  0
  8  7  1  0
  8  9  1  1
 10  9  1  0
 10 15  2  0
 11 10  1  0
 12 11  2  0
 12 13  1  0
 13 14  2  0
 14 15  1  0
 16  8  1  0
 17 16  2  0
 18 16  1  0
 19 20  1  1
 19 18  1  0
 21 20  1  0
 22 21  1  0
 23 22  1  0
 24 23  1  0
 25 19  1  0
 26 25  2  0
 27 25  1  0
M  END
$$$$
