SFK.pdb
     RDKit          3D

 27 27  0  0  1  0  0  0  0  0999 V2000
   27.0769  -18.3396  -15.1961 O   0  0  0  0  0  0  0  0  0  0  0  0
   27.9504  -18.2615  -14.1148 C   0  0  0  0  0  0  0  0  0  0  0  0
   28.3997  -19.6669  -13.7143 C   0  0  2  0  0  0  0  0  0  0  0  0
   29.0040  -20.3384  -14.8187 N   0  0  0  0  0  0  0  0  0  0  0  0
   27.2694  -20.4292  -13.1208 C   0  0  0  0  0  0  0  0  0  0  0  0
   26.8290  -21.4616  -13.6932 O   0  0  0  0  0  0  0  0  0  0  0  0
   26.6417  -20.0427  -11.9060 N   0  0  0  0  0  0  0  0  0  0  0  0
   25.5876  -20.8390  -11.3620 C   0  0  1  0  0  0  0  0  0  0  0  0
   25.2851  -20.4993   -9.9156 C   0  0  0  0  0  0  0  0  0  0  0  0
   26.4880  -20.5273   -9.0639 C   0  0  0  0  0  0  0  0  0  0  0  0
   27.5043  -21.4492   -9.2228 C   0  0  0  0  0  0  0  0  0  0  0  0
   28.6247  -21.4431   -8.3977 C   0  0  0  0  0  0  0  0  0  0  0  0
   28.7642  -20.5151   -7.3878 C   0  0  0  0  0  0  0  0  0  0  0  0
   27.7519  -19.5932   -7.2260 C   0  0  0  0  0  0  0  0  0  0  0  0
   26.6445  -19.6057   -8.0478 C   0  0  0  0  0  0  0  0  0  0  0  0
   24.3325  -20.5965  -12.1151 C   0  0  0  0  0  0  0  0  0  0  0  0
   24.1331  -19.4531  -12.5820 O   0  0  0  0  0  0  0  0  0  0  0  0
   23.3531  -21.6019  -12.3274 N   0  0  0  0  0  0  0  0  0  0  0  0
   22.3137  -21.4954  -13.3630 C   0  0  1  0  0  0  0  0  0  0  0  0
   22.2420  -22.7422  -14.1677 C   0  0  0  0  0  0  0  0  0  0  0  0
   21.1487  -22.6759  -15.1809 C   0  0  0  0  0  0  0  0  0  0  0  0
   21.0120  -23.9981  -15.9383 C   0  0  0  0  0  0  0  0  0  0  0  0
   19.9244  -23.9249  -16.9821 C   0  0  0  0  0  0  0  0  0  0  0  0
   19.6769  -25.2262  -17.5496 N   0  0  0  0  0  0  0  0  0  0  0  0
   21.0581  -21.2207  -12.6704 C   0  0  0  0  0  0  0  0  0  0  0  0
   20.9287  -21.3875  -11.4472 O   0  0  0  0  0  0  0  0  0  0  0  0
   19.9603  -20.7592  -13.3711 O   0  0  0  0  0  0  0  0  0  0  0  0
  2  1  1  0
  3  2  1  0
  3  4  1  6
  5  3  1  0
  5  7  1  0
  6  5  2  0
  8  7  1  0
  8  9  1  1
 10  9  1  0
 10 15  2  0
 11 10  1  0
 12 11  2  0
 12 13  1  0
 13 14  2  0
 14 15  1  0
 16  8  1  0
 17 16  2  0
 18 16  1  0
 19 20  1  1
 19 18  1  0
 21 20  1  0
 22 21  1  0
 23 22  1  0
 24 23  1  0
 25 19  1  0
 26 25  2  0
 27 25  1  0
M  END
$$$$
