SFK.pdb
     RDKit          3D

 27 27  0  0  1  0  0  0  0  0999 V2000
   26.7203  -19.4187  -16.4972 O   0  0  0  0  0  0  0  0  0  0  0  0
   27.8131  -19.2787  -15.6459 C   0  0  0  0  0  0  0  0  0  0  0  0
   28.0614  -20.5942  -14.9075 C   0  0  2  0  0  0  0  0  0  0  0  0
   28.3893  -21.6355  -15.8261 N   0  0  0  0  0  0  0  0  0  0  0  0
   26.9048  -20.9328  -14.0367 C   0  0  0  0  0  0  0  0  0  0  0  0
   26.3110  -22.0362  -14.1691 O   0  0  0  0  0  0  0  0  0  0  0  0
   26.4198  -20.0509  -13.0336 N   0  0  0  0  0  0  0  0  0  0  0  0
   25.3296  -20.4480  -12.2000 C   0  0  1  0  0  0  0  0  0  0  0  0
   25.1752  -19.5631  -10.9784 C   0  0  0  0  0  0  0  0  0  0  0  0
   26.0254  -19.9960   -9.8546 C   0  0  0  0  0  0  0  0  0  0  0  0
   25.5164  -20.4897   -8.6694 C   0  0  0  0  0  0  0  0  0  0  0  0
   26.3524  -20.8882   -7.6310 C   0  0  0  0  0  0  0  0  0  0  0  0
   27.7238  -20.8055   -7.7450 C   0  0  0  0  0  0  0  0  0  0  0  0
   28.2358  -20.3131   -8.9266 C   0  0  0  0  0  0  0  0  0  0  0  0
   27.4006  -19.9202   -9.9513 C   0  0  0  0  0  0  0  0  0  0  0  0
   24.0551  -20.3411  -12.9520 C   0  0  0  0  0  0  0  0  0  0  0  0
   23.8543  -19.3119  -13.6344 O   0  0  0  0  0  0  0  0  0  0  0  0
   23.0587  -21.3519  -12.9302 N   0  0  0  0  0  0  0  0  0  0  0  0
   21.8698  -21.3174  -13.7960 C   0  0  1  0  0  0  0  0  0  0  0  0
   21.8172  -22.5201  -14.6669 C   0  0  0  0  0  0  0  0  0  0  0  0
   21.3403  -23.7177  -13.9154 C   0  0  0  0  0  0  0  0  0  0  0  0
   21.2912  -24.9546  -14.8144 C   0  0  0  0  0  0  0  0  0  0  0  0
   20.7665  -26.1571  -14.0685 C   0  0  0  0  0  0  0  0  0  0  0  0
   20.7015  -27.3049  -14.9373 N   0  0  0  0  0  0  0  0  0  0  0  0
   20.7102  -21.2327  -12.9131 C   0  0  0  0  0  0  0  0  0  0  0  0
   20.8110  -21.3294  -11.6797 O   0  0  0  0  0  0  0  0  0  0  0  0
   19.4463  -21.0387  -13.4367 O   0  0  0  0  0  0  0  0  0  0  0  0
  2  1  1  0
  3  2  1  0
  3  4  1  6
  5  3  1  0
  5  7  1  0
  6  5  2  0
  8  7  1  0
  8  9  1  1
 10  9  1  0
 10 15  2  0
 11 10  1  0
 12 11  2  0
 12 13  1  0
 13 14  2  0
 14 15  1  0
 16  8  1  0
 17 16  2  0
 18 16  1  0
 19 20  1  1
 19 18  1  0
 21 20  1  0
 22 21  1  0
 23 22  1  0
 24 23  1  0
 25 19  1  0
 26 25  2  0
 27 25  1  0
M  END
$$$$
