SFK.pdb
     RDKit          3D

 27 27  0  0  1  0  0  0  0  0999 V2000
   27.0753  -19.3442  -13.3796 O   0  0  0  0  0  0  0  0  0  0  0  0
   28.4200  -19.6314  -13.5978 C   0  0  0  0  0  0  0  0  0  0  0  0
   28.7411  -21.0268  -13.0619 C   0  0  2  0  0  0  0  0  0  0  0  0
   28.1938  -22.0334  -13.9123 N   0  0  0  0  0  0  0  0  0  0  0  0
   28.2993  -21.1598  -11.6484 C   0  0  0  0  0  0  0  0  0  0  0  0
   27.3596  -21.9431  -11.3471 O   0  0  0  0  0  0  0  0  0  0  0  0
   28.8994  -20.4279  -10.5885 N   0  0  0  0  0  0  0  0  0  0  0  0
   28.4127  -20.5758   -9.2534 C   0  0  1  0  0  0  0  0  0  0  0  0
   29.2771  -19.8606   -8.2334 C   0  0  0  0  0  0  0  0  0  0  0  0
   28.7225  -19.9349   -6.8696 C   0  0  0  0  0  0  0  0  0  0  0  0
   28.9180  -21.0163   -6.0329 C   0  0  0  0  0  0  0  0  0  0  0  0
   28.3773  -21.0488   -4.7512 C   0  0  0  0  0  0  0  0  0  0  0  0
   27.6241  -20.0012   -4.2658 C   0  0  0  0  0  0  0  0  0  0  0  0
   27.4266  -18.9199   -5.0981 C   0  0  0  0  0  0  0  0  0  0  0  0
   27.9658  -18.8950   -6.3672 C   0  0  0  0  0  0  0  0  0  0  0  0
   27.0596  -19.9777   -9.1410 C   0  0  0  0  0  0  0  0  0  0  0  0
   26.8596  -18.8612   -9.6686 O   0  0  0  0  0  0  0  0  0  0  0  0
   25.9875  -20.6154   -8.4635 N   0  0  0  0  0  0  0  0  0  0  0  0
   24.5754  -20.3151   -8.7462 C   0  0  1  0  0  0  0  0  0  0  0  0
   24.2070  -20.7562  -10.1163 C   0  0  0  0  0  0  0  0  0  0  0  0
   22.7776  -20.4555  -10.4207 C   0  0  0  0  0  0  0  0  0  0  0  0
   22.3910  -20.9488  -11.8164 C   0  0  0  0  0  0  0  0  0  0  0  0
   20.9672  -20.5807  -12.1558 C   0  0  0  0  0  0  0  0  0  0  0  0
   20.6634  -20.9319  -13.5199 N   0  0  0  0  0  0  0  0  0  0  0  0
   23.7883  -20.9980   -7.7236 C   0  0  0  0  0  0  0  0  0  0  0  0
   24.1035  -22.1155   -7.2848 O   0  0  0  0  0  0  0  0  0  0  0  0
   22.6508  -20.4075   -7.2076 O   0  0  0  0  0  0  0  0  0  0  0  0
  2  1  1  0
  3  2  1  0
  3  4  1  6
  5  3  1  0
  5  7  1  0
  6  5  2  0
  8  7  1  0
  8  9  1  1
 10  9  1  0
 10 15  2  0
 11 10  1  0
 12 11  2  0
 12 13  1  0
 13 14  2  0
 14 15  1  0
 16  8  1  0
 17 16  2  0
 18 16  1  0
 19 20  1  6
 19 18  1  0
 21 20  1  0
 22 21  1  0
 23 22  1  0
 24 23  1  0
 25 19  1  0
 26 25  2  0
 27 25  1  0
M  END
$$$$
