SFK.pdb
     RDKit          3D

 27 27  0  0  1  0  0  0  0  0999 V2000
   21.5872  -12.2810  -20.6874 O   0  0  0  0  0  0  0  0  0  0  0  0
   21.2496  -11.7512  -19.4449 C   0  0  0  0  0  0  0  0  0  0  0  0
   22.5037  -11.2080  -18.7597 C   0  0  2  0  0  0  0  0  0  0  0  0
   23.3676  -12.2737  -18.3678 N   0  0  0  0  0  0  0  0  0  0  0  0
   22.1378  -10.3135  -17.6297 C   0  0  0  0  0  0  0  0  0  0  0  0
   21.6182  -10.7891  -16.5851 O   0  0  0  0  0  0  0  0  0  0  0  0
   22.3499   -8.9090  -17.6678 N   0  0  0  0  0  0  0  0  0  0  0  0
   22.0526   -8.1106  -16.5208 C   0  0  1  0  0  0  0  0  0  0  0  0
   23.2793   -7.4237  -15.9529 C   0  0  0  0  0  0  0  0  0  0  0  0
   24.2878   -8.3804  -15.4621 C   0  0  0  0  0  0  0  0  0  0  0  0
   25.5333   -8.5277  -16.0407 C   0  0  0  0  0  0  0  0  0  0  0  0
   26.4584   -9.4427  -15.5479 C   0  0  0  0  0  0  0  0  0  0  0  0
   26.1673  -10.2394  -14.4611 C   0  0  0  0  0  0  0  0  0  0  0  0
   24.9250  -10.0954  -13.8808 C   0  0  0  0  0  0  0  0  0  0  0  0
   24.0134   -9.1861  -14.3750 C   0  0  0  0  0  0  0  0  0  0  0  0
   21.1069   -7.0290  -16.8907 C   0  0  0  0  0  0  0  0  0  0  0  0
   21.3436   -6.3621  -17.9224 O   0  0  0  0  0  0  0  0  0  0  0  0
   19.9504   -6.7203  -16.1276 N   0  0  0  0  0  0  0  0  0  0  0  0
   18.9691   -5.7062  -16.5432 C   0  0  1  0  0  0  0  0  0  0  0  0
   17.6082   -6.0631  -16.0656 C   0  0  0  0  0  0  0  0  0  0  0  0
   17.0202   -7.1723  -16.8720 C   0  0  0  0  0  0  0  0  0  0  0  0
   15.6124   -7.5252  -16.3882 C   0  0  0  0  0  0  0  0  0  0  0  0
   14.9699   -8.5644  -17.2743 C   0  0  0  0  0  0  0  0  0  0  0  0
   13.6217   -8.8355  -16.8436 N   0  0  0  0  0  0  0  0  0  0  0  0
   19.4233   -4.4324  -15.9928 C   0  0  0  0  0  0  0  0  0  0  0  0
   20.1912   -4.3701  -15.0196 O   0  0  0  0  0  0  0  0  0  0  0  0
   19.0028   -3.2406  -16.5512 O   0  0  0  0  0  0  0  0  0  0  0  0
  2  1  1  0
  3  2  1  0
  3  4  1  1
  5  3  1  0
  5  7  1  0
  6  5  2  0
  8  7  1  0
  8  9  1  6
 10  9  1  0
 10 15  2  0
 11 10  1  0
 12 11  2  0
 12 13  1  0
 13 14  2  0
 14 15  1  0
 16  8  1  0
 17 16  2  0
 18 16  1  0
 19 20  1  1
 19 18  1  0
 21 20  1  0
 22 21  1  0
 23 22  1  0
 24 23  1  0
 25 19  1  0
 26 25  2  0
 27 25  1  0
M  END
$$$$
