SFK.pdb
     RDKit          3D

 27 27  0  0  1  0  0  0  0  0999 V2000
   17.9162   -3.2385  -15.7020 O   0  0  0  0  0  0  0  0  0  0  0  0
   18.8857   -3.9089  -16.4430 C   0  0  0  0  0  0  0  0  0  0  0  0
   20.2596   -3.6906  -15.8089 C   0  0  2  0  0  0  0  0  0  0  0  0
   20.7059   -2.3516  -16.0178 N   0  0  0  0  0  0  0  0  0  0  0  0
   21.2292   -4.7070  -16.2961 C   0  0  0  0  0  0  0  0  0  0  0  0
   21.6522   -4.6648  -17.4822 O   0  0  0  0  0  0  0  0  0  0  0  0
   21.7179   -5.7544  -15.4695 N   0  0  0  0  0  0  0  0  0  0  0  0
   22.6391   -6.7102  -15.9977 C   0  0  1  0  0  0  0  0  0  0  0  0
   23.6608   -7.1652  -14.9739 C   0  0  0  0  0  0  0  0  0  0  0  0
   24.6339   -8.1218  -15.5316 C   0  0  0  0  0  0  0  0  0  0  0  0
   25.4589   -7.8241  -16.5986 C   0  0  0  0  0  0  0  0  0  0  0  0
   26.3651   -8.7550  -17.0967 C   0  0  0  0  0  0  0  0  0  0  0  0
   26.4750  -10.0130  -16.5436 C   0  0  0  0  0  0  0  0  0  0  0  0
   25.6533  -10.3141  -15.4783 C   0  0  0  0  0  0  0  0  0  0  0  0
   24.7575   -9.3859  -14.9902 C   0  0  0  0  0  0  0  0  0  0  0  0
   21.9103   -7.9299  -16.4250 C   0  0  0  0  0  0  0  0  0  0  0  0
   21.1762   -8.5044  -15.5906 O   0  0  0  0  0  0  0  0  0  0  0  0
   22.0101   -8.4701  -17.7339 N   0  0  0  0  0  0  0  0  0  0  0  0
   21.3032   -9.6922  -18.1474 C   0  0  1  0  0  0  0  0  0  0  0  0
   21.3262   -9.8395  -19.6257 C   0  0  0  0  0  0  0  0  0  0  0  0
   20.6274  -11.0838  -20.0611 C   0  0  0  0  0  0  0  0  0  0  0  0
   20.6596  -11.2356  -21.5832 C   0  0  0  0  0  0  0  0  0  0  0  0
   20.0274  -12.5343  -22.0206 C   0  0  0  0  0  0  0  0  0  0  0  0
   20.1331  -12.6947  -23.4488 N   0  0  0  0  0  0  0  0  0  0  0  0
   21.9666  -10.8074  -17.4781 C   0  0  0  0  0  0  0  0  0  0  0  0
   21.3480  -11.6082  -16.7593 O   0  0  0  0  0  0  0  0  0  0  0  0
   23.3257  -11.0046  -17.6302 O   0  0  0  0  0  0  0  0  0  0  0  0
  2  1  1  0
  3  2  1  0
  3  4  1  6
  5  3  1  0
  5  7  1  0
  6  5  2  0
  8  7  1  0
  8  9  1  1
 10  9  1  0
 10 15  2  0
 11 10  1  0
 12 11  2  0
 12 13  1  0
 13 14  2  0
 14 15  1  0
 16  8  1  0
 17 16  2  0
 18 16  1  0
 19 20  1  6
 19 18  1  0
 21 20  1  0
 22 21  1  0
 23 22  1  0
 24 23  1  0
 25 19  1  0
 26 25  2  0
 27 25  1  0
M  END
$$$$
