SFK.pdb
     RDKit          3D

 27 27  0  0  1  0  0  0  0  0999 V2000
   26.4315  -19.8220  -17.7882 O   0  0  0  0  0  0  0  0  0  0  0  0
   27.7919  -19.9925  -17.5459 C   0  0  0  0  0  0  0  0  0  0  0  0
   28.0306  -21.3523  -16.8891 C   0  0  2  0  0  0  0  0  0  0  0  0
   27.8215  -22.4093  -17.8244 N   0  0  0  0  0  0  0  0  0  0  0  0
   27.2042  -21.4934  -15.6612 C   0  0  0  0  0  0  0  0  0  0  0  0
   26.2163  -22.2752  -15.6462 O   0  0  0  0  0  0  0  0  0  0  0  0
   27.4787  -20.7714  -14.4685 N   0  0  0  0  0  0  0  0  0  0  0  0
   26.6602  -20.9631  -13.3133 C   0  0  1  0  0  0  0  0  0  0  0  0
   27.2466  -20.3250  -12.0690 C   0  0  0  0  0  0  0  0  0  0  0  0
   26.3414  -20.4104  -10.9087 C   0  0  0  0  0  0  0  0  0  0  0  0
   25.5270  -19.3692  -10.5081 C   0  0  0  0  0  0  0  0  0  0  0  0
   24.6857  -19.4888   -9.4063 C   0  0  0  0  0  0  0  0  0  0  0  0
   24.6322  -20.6532   -8.6703 C   0  0  0  0  0  0  0  0  0  0  0  0
   25.4436  -21.6949   -9.0669 C   0  0  0  0  0  0  0  0  0  0  0  0
   26.2749  -21.5687  -10.1602 C   0  0  0  0  0  0  0  0  0  0  0  0
   25.3372  -20.3248  -13.5212 C   0  0  0  0  0  0  0  0  0  0  0  0
   25.3002  -19.2066  -14.0809 O   0  0  0  0  0  0  0  0  0  0  0  0
   24.1174  -20.9261  -13.1142 N   0  0  0  0  0  0  0  0  0  0  0  0
   22.8023  -20.3311  -13.3979 C   0  0  1  0  0  0  0  0  0  0  0  0
   22.4100  -20.5695  -14.8109 C   0  0  0  0  0  0  0  0  0  0  0  0
   21.1174  -19.9002  -15.1389 C   0  0  0  0  0  0  0  0  0  0  0  0
   20.7251  -20.1345  -16.5990 C   0  0  0  0  0  0  0  0  0  0  0  0
   19.4693  -19.3791  -16.9598 C   0  0  0  0  0  0  0  0  0  0  0  0
   19.1756  -19.5234  -18.3633 N   0  0  0  0  0  0  0  0  0  0  0  0
   21.8583  -20.9334  -12.4611 C   0  0  0  0  0  0  0  0  0  0  0  0
   21.8493  -22.1520  -12.2248 O   0  0  0  0  0  0  0  0  0  0  0  0
   20.9329  -20.1485  -11.8003 O   0  0  0  0  0  0  0  0  0  0  0  0
  2  1  1  0
  3  2  1  0
  3  4  1  6
  5  3  1  0
  5  7  1  0
  6  5  2  0
  8  7  1  0
  8  9  1  1
 10  9  1  0
 10 15  2  0
 11 10  1  0
 12 11  2  0
 12 13  1  0
 13 14  2  0
 14 15  1  0
 16  8  1  0
 17 16  2  0
 18 16  1  0
 19 20  1  6
 19 18  1  0
 21 20  1  0
 22 21  1  0
 23 22  1  0
 24 23  1  0
 25 19  1  0
 26 25  2  0
 27 25  1  0
M  END
$$$$
