SFK.pdb
     RDKit          3D

 27 27  0  0  1  0  0  0  0  0999 V2000
   26.3529  -21.2291  -18.0285 O   0  0  0  0  0  0  0  0  0  0  0  0
   27.5208  -20.6129  -17.5872 C   0  0  0  0  0  0  0  0  0  0  0  0
   28.1858  -21.4786  -16.5168 C   0  0  2  0  0  0  0  0  0  0  0  0
   28.5995  -22.7299  -17.0636 N   0  0  0  0  0  0  0  0  0  0  0  0
   27.2948  -21.6286  -15.3360 C   0  0  0  0  0  0  0  0  0  0  0  0
   26.7864  -22.7482  -15.0614 O   0  0  0  0  0  0  0  0  0  0  0  0
   26.9775  -20.5431  -14.4757 N   0  0  0  0  0  0  0  0  0  0  0  0
   26.1551  -20.7587  -13.3275 C   0  0  1  0  0  0  0  0  0  0  0  0
   26.3634  -19.7085  -12.2537 C   0  0  0  0  0  0  0  0  0  0  0  0
   25.5370  -19.9506  -11.0572 C   0  0  0  0  0  0  0  0  0  0  0  0
   24.2397  -19.4936  -10.9305 C   0  0  0  0  0  0  0  0  0  0  0  0
   23.4917  -19.7427   -9.7841 C   0  0  0  0  0  0  0  0  0  0  0  0
   24.0170  -20.4565   -8.7282 C   0  0  0  0  0  0  0  0  0  0  0  0
   25.3117  -20.9144   -8.8508 C   0  0  0  0  0  0  0  0  0  0  0  0
   26.0469  -20.6634   -9.9904 C   0  0  0  0  0  0  0  0  0  0  0  0
   24.7239  -20.6804  -13.7106 C   0  0  0  0  0  0  0  0  0  0  0  0
   24.3477  -19.7073  -14.4009 O   0  0  0  0  0  0  0  0  0  0  0  0
   23.7680  -21.6580  -13.3289 N   0  0  0  0  0  0  0  0  0  0  0  0
   22.3595  -21.6018  -13.7498 C   0  0  1  0  0  0  0  0  0  0  0  0
   21.8173  -22.9692  -13.9593 C   0  0  0  0  0  0  0  0  0  0  0  0
   22.2233  -23.5202  -15.2851 C   0  0  0  0  0  0  0  0  0  0  0  0
   23.1118  -24.7554  -15.1251 C   0  0  0  0  0  0  0  0  0  0  0  0
   23.6053  -25.2554  -16.4608 C   0  0  0  0  0  0  0  0  0  0  0  0
   24.4973  -26.3737  -16.2862 N   0  0  0  0  0  0  0  0  0  0  0  0
   21.6374  -20.8834  -12.7039 C   0  0  0  0  0  0  0  0  0  0  0  0
   22.1601  -20.6041  -11.6133 O   0  0  0  0  0  0  0  0  0  0  0  0
   20.3287  -20.4879  -12.9042 O   0  0  0  0  0  0  0  0  0  0  0  0
  2  1  1  0
  3  2  1  0
  3  4  1  6
  5  3  1  0
  5  7  1  0
  6  5  2  0
  8  7  1  0
  8  9  1  1
 10  9  1  0
 10 15  2  0
 11 10  1  0
 12 11  2  0
 12 13  1  0
 13 14  2  0
 14 15  1  0
 16  8  1  0
 17 16  2  0
 18 16  1  0
 19 20  1  1
 19 18  1  0
 21 20  1  0
 22 21  1  0
 23 22  1  0
 24 23  1  0
 25 19  1  0
 26 25  2  0
 27 25  1  0
M  END
$$$$
