SFK.pdb
     RDKit          3D

 27 27  0  0  1  0  0  0  0  0999 V2000
   19.4879   -9.6647  -21.2854 O   0  0  0  0  0  0  0  0  0  0  0  0
   20.6651  -10.3246  -20.9435 C   0  0  0  0  0  0  0  0  0  0  0  0
   20.4604  -11.0998  -19.6418 C   0  0  2  0  0  0  0  0  0  0  0  0
   19.3551  -11.9950  -19.7549 N   0  0  0  0  0  0  0  0  0  0  0  0
   20.3350  -10.1672  -18.4905 C   0  0  0  0  0  0  0  0  0  0  0  0
   19.2408  -10.0606  -17.8751 O   0  0  0  0  0  0  0  0  0  0  0  0
   21.4168   -9.3664  -18.0349 N   0  0  0  0  0  0  0  0  0  0  0  0
   21.2230   -8.4527  -16.9538 C   0  0  1  0  0  0  0  0  0  0  0  0
   22.4169   -8.3889  -16.0212 C   0  0  0  0  0  0  0  0  0  0  0  0
   22.1870   -7.5010  -14.8671 C   0  0  0  0  0  0  0  0  0  0  0  0
   22.5567   -6.1703  -14.8529 C   0  0  0  0  0  0  0  0  0  0  0  0
   22.3224   -5.3642  -13.7432 C   0  0  0  0  0  0  0  0  0  0  0  0
   21.7112   -5.8632  -12.6128 C   0  0  0  0  0  0  0  0  0  0  0  0
   21.3407   -7.1912  -12.6231 C   0  0  0  0  0  0  0  0  0  0  0  0
   21.5763   -7.9838  -13.7268 C   0  0  0  0  0  0  0  0  0  0  0  0
   21.0369   -7.0789  -17.4820 C   0  0  0  0  0  0  0  0  0  0  0  0
   21.8088   -6.6806  -18.3823 O   0  0  0  0  0  0  0  0  0  0  0  0
   20.0250   -6.2014  -17.0116 N   0  0  0  0  0  0  0  0  0  0  0  0
   19.8229   -4.8515  -17.5603 C   0  0  1  0  0  0  0  0  0  0  0  0
   18.3771   -4.5769  -17.7648 C   0  0  0  0  0  0  0  0  0  0  0  0
   18.1561   -3.2215  -18.3481 C   0  0  0  0  0  0  0  0  0  0  0  0
   16.6700   -2.9611  -18.6014 C   0  0  0  0  0  0  0  0  0  0  0  0
   16.4419   -1.5831  -19.1730 C   0  0  0  0  0  0  0  0  0  0  0  0
   15.0321   -1.3106  -19.2942 N   0  0  0  0  0  0  0  0  0  0  0  0
   20.4262   -3.9188  -16.6129 C   0  0  0  0  0  0  0  0  0  0  0  0
   20.0712   -3.8627  -15.4248 O   0  0  0  0  0  0  0  0  0  0  0  0
   21.4270   -3.0581  -17.0211 O   0  0  0  0  0  0  0  0  0  0  0  0
  2  1  1  0
  3  2  1  0
  3  4  1  6
  5  3  1  0
  5  7  1  0
  6  5  2  0
  8  7  1  0
  8  9  1  1
 10  9  1  0
 10 15  2  0
 11 10  1  0
 12 11  2  0
 12 13  1  0
 13 14  2  0
 14 15  1  0
 16  8  1  0
 17 16  2  0
 18 16  1  0
 19 20  1  1
 19 18  1  0
 21 20  1  0
 22 21  1  0
 23 22  1  0
 24 23  1  0
 25 19  1  0
 26 25  2  0
 27 25  1  0
M  END
$$$$
