YVQ.pdb
     RDKit          3D

 29 29  0  0  1  0  0  0  0  0999 V2000
   19.3431  -12.9684  -15.7613 O   0  0  0  0  0  0  0  0  0  0  0  0
   18.6129  -11.9523  -15.1466 C   0  0  0  0  0  0  0  0  0  0  0  0
   19.1222  -11.2794  -14.0572 C   0  0  0  0  0  0  0  0  0  0  0  0
   18.3803  -10.2661  -13.4536 C   0  0  0  0  0  0  0  0  0  0  0  0
   17.1310   -9.9211  -13.9322 C   0  0  0  0  0  0  0  0  0  0  0  0
   16.3677   -8.8372  -13.2648 C   0  0  0  0  0  0  0  0  0  0  0  0
   15.7468   -9.3994  -12.0090 C   0  0  2  0  0  0  0  0  0  0  0  0
   14.8392  -10.4541  -12.3868 N   0  0  0  0  0  0  0  0  0  0  0  0
   14.9920   -8.2711  -11.3604 C   0  0  0  0  0  0  0  0  0  0  0  0
   13.8801   -7.9294  -11.8213 O   0  0  0  0  0  0  0  0  0  0  0  0
   16.6606  -10.6167  -15.0197 C   0  0  0  0  0  0  0  0  0  0  0  0
   17.3696  -11.6202  -15.6357 C   0  0  0  0  0  0  0  0  0  0  0  0
   13.4671   -8.2666   -8.3319 C   0  0  0  0  0  0  0  0  0  0  0  0
   14.4617   -7.1553   -8.1682 C   0  0  1  0  0  0  0  0  0  0  0  0
   15.6197   -7.5031   -7.3105 C   0  0  0  0  0  0  0  0  0  0  0  0
   14.8108   -6.5436   -9.5099 C   0  0  2  0  0  0  0  0  0  0  0  0
   15.5331   -7.5976  -10.2341 N   0  0  0  0  0  0  0  0  0  0  0  0
   15.7402   -5.3736   -9.3436 C   0  0  0  0  0  0  0  0  0  0  0  0
   16.9651   -5.5617   -9.0522 O   0  0  0  0  0  0  0  0  0  0  0  0
   15.0813   -3.0245  -13.9647 N   0  0  0  0  0  0  0  0  0  0  0  0
   16.1414   -2.7551  -13.0614 C   0  0  0  0  0  0  0  0  0  0  0  0
   17.3044   -3.0318  -13.4052 O   0  0  0  0  0  0  0  0  0  0  0  0
   15.9117   -2.1581  -11.7286 C   0  0  0  0  0  0  0  0  0  0  0  0
   16.9288   -2.6368  -10.7412 C   0  0  0  0  0  0  0  0  0  0  0  0
   16.3127   -2.9641   -9.4136 C   0  0  2  0  0  0  0  0  0  0  0  0
   15.3296   -4.0288   -9.4954 N   0  0  0  0  0  0  0  0  0  0  0  0
   15.6031   -1.7339   -8.9388 C   0  0  0  0  0  0  0  0  0  0  0  0
   16.3201   -0.5991   -8.5926 O   0  0  0  0  0  0  0  0  0  0  0  0
   14.3546   -1.6868   -8.8396 O   0  0  0  0  0  0  0  0  0  0  0  0
  2  1  1  0
  3  2  2  0
  4  3  1  0
  5  4  2  0
  5 11  1  0
  6  5  1  0
  7  9  1  0
  7  6  1  0
  7  8  1  6
  9 17  1  0
 10  9  2  0
 11 12  2  0
 12  2  1  0
 14 13  1  6
 14 15  1  0
 16 14  1  0
 16 18  1  0
 16 17  1  6
 18 26  1  0
 18 19  2  0
 20 21  1  0
 21 23  1  0
 22 21  2  0
 23 24  1  0
 25 24  1  6
 25 27  1  0
 26 25  1  0
 27 29  2  0
 27 28  1  0
M  END
$$$$
