YVQ.pdb
     RDKit          3D

 29 29  0  0  1  0  0  0  0  0999 V2000
   15.6499  -24.3567  -10.4448 O   0  0  0  0  0  0  0  0  0  0  0  0
   16.7083  -23.5187  -10.7927 C   0  0  0  0  0  0  0  0  0  0  0  0
   17.9104  -24.0420  -11.2173 C   0  0  0  0  0  0  0  0  0  0  0  0
   18.9590  -23.1913  -11.5615 C   0  0  0  0  0  0  0  0  0  0  0  0
   18.8137  -21.8196  -11.4834 C   0  0  0  0  0  0  0  0  0  0  0  0
   19.9515  -20.9430  -11.8572 C   0  0  0  0  0  0  0  0  0  0  0  0
   21.1621  -21.3753  -11.0659 C   0  0  2  0  0  0  0  0  0  0  0  0
   20.9312  -21.0598   -9.6781 N   0  0  0  0  0  0  0  0  0  0  0  0
   22.3262  -20.5812  -11.5932 C   0  0  0  0  0  0  0  0  0  0  0  0
   22.4250  -19.3679  -11.3039 O   0  0  0  0  0  0  0  0  0  0  0  0
   17.5994  -21.3397  -11.0555 C   0  0  0  0  0  0  0  0  0  0  0  0
   16.5475  -22.1540  -10.7097 C   0  0  0  0  0  0  0  0  0  0  0  0
   25.7889  -21.2318  -10.9679 C   0  0  0  0  0  0  0  0  0  0  0  0
   25.6738  -21.2821  -12.4630 C   0  0  1  0  0  0  0  0  0  0  0  0
   25.7914  -22.6460  -13.0319 C   0  0  0  0  0  0  0  0  0  0  0  0
   24.4765  -20.4840  -12.9378 C   0  0  2  0  0  0  0  0  0  0  0  0
   23.3070  -21.2000  -12.4117 N   0  0  0  0  0  0  0  0  0  0  0  0
   24.3870  -20.4875  -14.4386 C   0  0  0  0  0  0  0  0  0  0  0  0
   24.0827  -21.5548  -15.0622 O   0  0  0  0  0  0  0  0  0  0  0  0
   20.6610  -18.9941  -15.8843 N   0  0  0  0  0  0  0  0  0  0  0  0
   21.3917  -17.7802  -15.9552 C   0  0  0  0  0  0  0  0  0  0  0  0
   20.8976  -16.7551  -15.4529 O   0  0  0  0  0  0  0  0  0  0  0  0
   22.7171  -17.6922  -16.6041 C   0  0  0  0  0  0  0  0  0  0  0  0
   23.1340  -19.0172  -17.1601 C   0  0  0  0  0  0  0  0  0  0  0  0
   24.4926  -19.4277  -16.6756 C   0  0  2  0  0  0  0  0  0  0  0  0
   24.6264  -19.3420  -15.2328 N   0  0  0  0  0  0  0  0  0  0  0  0
   25.4827  -18.4776  -17.2750 C   0  0  0  0  0  0  0  0  0  0  0  0
   26.2171  -17.6250  -16.4654 O   0  0  0  0  0  0  0  0  0  0  0  0
   25.6803  -18.4206  -18.5114 O   0  0  0  0  0  0  0  0  0  0  0  0
  2  1  1  0
  3  2  2  0
  4  3  1  0
  5  4  2  0
  5 11  1  0
  6  5  1  0
  7  9  1  0
  7  6  1  0
  7  8  1  1
  9 17  1  0
 10  9  2  0
 11 12  2  0
 12  2  1  0
 14 13  1  1
 14 15  1  0
 16 14  1  0
 16 18  1  0
 16 17  1  1
 18 26  1  0
 18 19  2  0
 20 21  1  0
 21 23  1  0
 22 21  2  0
 23 24  1  0
 25 24  1  1
 25 27  1  0
 26 25  1  0
 27 29  2  0
 27 28  1  0
M  END
$$$$
