YVQ.pdb
     RDKit          3D

 29 29  0  0  1  0  0  0  0  0999 V2000
   16.6547  -17.5590  -17.0768 O   0  0  0  0  0  0  0  0  0  0  0  0
   17.4759  -16.4334  -17.1231 C   0  0  0  0  0  0  0  0  0  0  0  0
   16.9707  -15.2085  -17.5018 C   0  0  0  0  0  0  0  0  0  0  0  0
   17.8042  -14.0926  -17.5433 C   0  0  0  0  0  0  0  0  0  0  0  0
   19.1409  -14.1935  -17.2088 C   0  0  0  0  0  0  0  0  0  0  0  0
   20.0003  -12.9847  -17.2644 C   0  0  0  0  0  0  0  0  0  0  0  0
   20.3719  -12.7341  -18.7059 C   0  0  2  0  0  0  0  0  0  0  0  0
   21.2935  -13.7625  -19.1203 N   0  0  0  0  0  0  0  0  0  0  0  0
   21.0414  -11.3874  -18.7492 C   0  0  0  0  0  0  0  0  0  0  0  0
   22.2560  -11.2945  -18.4633 O   0  0  0  0  0  0  0  0  0  0  0  0
   19.6037  -15.4326  -16.8369 C   0  0  0  0  0  0  0  0  0  0  0  0
   18.8056  -16.5505  -16.7865 C   0  0  0  0  0  0  0  0  0  0  0  0
   19.1227   -8.6584  -20.9288 C   0  0  0  0  0  0  0  0  0  0  0  0
   20.5746   -8.4294  -20.6278 C   0  0  1  0  0  0  0  0  0  0  0  0
   21.0560   -7.0709  -20.9748 C   0  0  0  0  0  0  0  0  0  0  0  0
   20.9143   -8.8982  -19.2275 C   0  0  2  0  0  0  0  0  0  0  0  0
   20.3049  -10.2294  -19.1117 N   0  0  0  0  0  0  0  0  0  0  0  0
   20.2844   -8.0073  -18.1931 C   0  0  0  0  0  0  0  0  0  0  0  0
   19.0224   -8.0085  -18.0258 O   0  0  0  0  0  0  0  0  0  0  0  0
   21.0022   -7.4709  -12.4112 N   0  0  0  0  0  0  0  0  0  0  0  0
   19.8283   -7.8932  -13.0863 C   0  0  0  0  0  0  0  0  0  0  0  0
   18.9868   -8.5621  -12.4603 O   0  0  0  0  0  0  0  0  0  0  0  0
   19.5714   -7.5662  -14.5049 C   0  0  0  0  0  0  0  0  0  0  0  0
   20.5620   -6.5681  -15.0158 C   0  0  0  0  0  0  0  0  0  0  0  0
   20.3323   -6.2370  -16.4604 C   0  0  2  0  0  0  0  0  0  0  0  0
   21.0276   -7.1367  -17.3626 N   0  0  0  0  0  0  0  0  0  0  0  0
   20.8760   -4.8611  -16.6917 C   0  0  0  0  0  0  0  0  0  0  0  0
   20.2211   -3.7518  -16.1796 O   0  0  0  0  0  0  0  0  0  0  0  0
   21.9270   -4.6663  -17.3461 O   0  0  0  0  0  0  0  0  0  0  0  0
  2  1  1  0
  3  2  2  0
  4  3  1  0
  5  4  2  0
  5 11  1  0
  6  5  1  0
  7  9  1  0
  7  6  1  0
  7  8  1  1
  9 17  1  0
 10  9  2  0
 11 12  2  0
 12  2  1  0
 14 13  1  1
 14 15  1  0
 16 14  1  0
 16 18  1  0
 16 17  1  1
 18 26  1  0
 18 19  2  0
 20 21  1  0
 21 23  1  0
 22 21  2  0
 23 24  1  0
 25 24  1  1
 25 27  1  0
 26 25  1  0
 27 29  2  0
 27 28  1  0
M  END
$$$$
