YVQ.pdb
     RDKit          3D

 29 29  0  0  1  0  0  0  0  0999 V2000
   23.2251  -15.9050  -20.7901 O   0  0  0  0  0  0  0  0  0  0  0  0
   23.4984  -16.8326  -19.7858 C   0  0  0  0  0  0  0  0  0  0  0  0
   24.2642  -16.4837  -18.6946 C   0  0  0  0  0  0  0  0  0  0  0  0
   24.5287  -17.4221  -17.6991 C   0  0  0  0  0  0  0  0  0  0  0  0
   24.0324  -18.7084  -17.7876 C   0  0  0  0  0  0  0  0  0  0  0  0
   24.3340  -19.6827  -16.7094 C   0  0  0  0  0  0  0  0  0  0  0  0
   25.7132  -20.2461  -16.9527 C   0  0  2  0  0  0  0  0  0  0  0  0
   25.6400  -21.1530  -18.0711 N   0  0  0  0  0  0  0  0  0  0  0  0
   26.0997  -20.9907  -15.7037 C   0  0  0  0  0  0  0  0  0  0  0  0
   25.6144  -22.1235  -15.4876 O   0  0  0  0  0  0  0  0  0  0  0  0
   23.2737  -19.0146  -18.8915 C   0  0  0  0  0  0  0  0  0  0  0  0
   22.9962  -18.1103  -19.8887 C   0  0  0  0  0  0  0  0  0  0  0  0
   28.9747  -19.1702  -13.4570 C   0  0  0  0  0  0  0  0  0  0  0  0
   28.7985  -20.6446  -13.2423 C   0  0  1  0  0  0  0  0  0  0  0  0
   29.3795  -21.1434  -11.9728 C   0  0  0  0  0  0  0  0  0  0  0  0
   27.3649  -21.0591  -13.5047 C   0  0  2  0  0  0  0  0  0  0  0  0
   27.0079  -20.4165  -14.7762 N   0  0  0  0  0  0  0  0  0  0  0  0
   26.4462  -20.5261  -12.4407 C   0  0  0  0  0  0  0  0  0  0  0  0
   26.1078  -19.2988  -12.4390 O   0  0  0  0  0  0  0  0  0  0  0  0
   21.7666  -20.1928  -11.3247 N   0  0  0  0  0  0  0  0  0  0  0  0
   21.8391  -20.2216   -9.9083 C   0  0  0  0  0  0  0  0  0  0  0  0
   21.0076  -19.5676   -9.2540 O   0  0  0  0  0  0  0  0  0  0  0  0
   22.8666  -21.0004   -9.1851 C   0  0  0  0  0  0  0  0  0  0  0  0
   23.8283  -21.6386  -10.1372 C   0  0  0  0  0  0  0  0  0  0  0  0
   24.9898  -20.7423  -10.4480 C   0  0  2  0  0  0  0  0  0  0  0  0
   25.9128  -21.3265  -11.4039 N   0  0  0  0  0  0  0  0  0  0  0  0
   25.7413  -20.5313   -9.1701 C   0  0  0  0  0  0  0  0  0  0  0  0
   25.3759  -19.5160   -8.2999 O   0  0  0  0  0  0  0  0  0  0  0  0
   26.7124  -21.2545   -8.8464 O   0  0  0  0  0  0  0  0  0  0  0  0
  2  1  1  0
  3  2  2  0
  4  3  1  0
  5  4  2  0
  5 11  1  0
  6  5  1  0
  7  9  1  0
  7  6  1  0
  7  8  1  6
  9 17  1  0
 10  9  2  0
 11 12  2  0
 12  2  1  0
 14 13  1  1
 14 15  1  0
 16 14  1  0
 16 18  1  0
 16 17  1  6
 18 26  1  0
 18 19  2  0
 20 21  1  0
 21 23  1  0
 22 21  2  0
 23 24  1  0
 25 24  1  1
 25 27  1  0
 26 25  1  0
 27 29  2  0
 27 28  1  0
M  END
$$$$
