YVQ.pdb
     RDKit          3D

 29 29  0  0  1  0  0  0  0  0999 V2000
   28.4952  -19.2852   -5.5620 O   0  0  0  0  0  0  0  0  0  0  0  0
   28.0923  -19.4922   -6.8805 C   0  0  0  0  0  0  0  0  0  0  0  0
   28.9516  -20.0550   -7.7992 C   0  0  0  0  0  0  0  0  0  0  0  0
   28.5342  -20.2555   -9.1134 C   0  0  0  0  0  0  0  0  0  0  0  0
   27.2622  -19.8964   -9.5158 C   0  0  0  0  0  0  0  0  0  0  0  0
   26.8508  -20.1237  -10.9235 C   0  0  0  0  0  0  0  0  0  0  0  0
   25.9038  -21.2988  -10.9561 C   0  0  2  0  0  0  0  0  0  0  0  0
   26.6828  -22.5093  -10.8755 N   0  0  0  0  0  0  0  0  0  0  0  0
   25.1812  -21.2320  -12.2741 C   0  0  0  0  0  0  0  0  0  0  0  0
   25.7444  -21.6581  -13.3069 O   0  0  0  0  0  0  0  0  0  0  0  0
   26.4376  -19.3388   -8.5686 C   0  0  0  0  0  0  0  0  0  0  0  0
   26.8214  -19.1292   -7.2656 C   0  0  0  0  0  0  0  0  0  0  0  0
   20.6542  -21.0635  -14.1569 C   0  0  0  0  0  0  0  0  0  0  0  0
   21.6915  -21.2518  -13.0892 C   0  0  1  0  0  0  0  0  0  0  0  0
   21.6855  -22.6001  -12.4729 C   0  0  0  0  0  0  0  0  0  0  0  0
   23.0453  -20.7623  -13.5619 C   0  0  2  0  0  0  0  0  0  0  0  0
   23.8708  -20.6915  -12.3492 N   0  0  0  0  0  0  0  0  0  0  0  0
   22.9466  -19.3772  -14.1382 C   0  0  0  0  0  0  0  0  0  0  0  0
   22.6102  -18.3960  -13.4002 O   0  0  0  0  0  0  0  0  0  0  0  0
   25.6137  -18.7095  -20.1514 N   0  0  0  0  0  0  0  0  0  0  0  0
   25.4575  -18.0614  -18.8992 C   0  0  0  0  0  0  0  0  0  0  0  0
   26.4573  -17.5544  -18.3599 O   0  0  0  0  0  0  0  0  0  0  0  0
   24.1504  -17.9683  -18.2149 C   0  0  0  0  0  0  0  0  0  0  0  0
   24.2935  -17.3454  -16.8621 C   0  0  0  0  0  0  0  0  0  0  0  0
   23.1551  -17.7050  -15.9545 C   0  0  2  0  0  0  0  0  0  0  0  0
   23.2130  -19.0807  -15.4952 N   0  0  0  0  0  0  0  0  0  0  0  0
   21.8923  -17.5485  -16.7439 C   0  0  0  0  0  0  0  0  0  0  0  0
   21.2461  -18.6597  -17.2629 O   0  0  0  0  0  0  0  0  0  0  0  0
   21.3820  -16.4243  -16.9600 O   0  0  0  0  0  0  0  0  0  0  0  0
  2  1  1  0
  3  2  2  0
  4  3  1  0
  5  4  2  0
  5 11  1  0
  6  5  1  0
  7  9  1  0
  7  6  1  0
  7  8  1  6
  9 17  1  0
 10  9  2  0
 11 12  2  0
 12  2  1  0
 14 13  1  6
 14 15  1  0
 16 14  1  0
 16 18  1  0
 16 17  1  1
 18 26  1  0
 18 19  2  0
 20 21  1  0
 21 23  1  0
 22 21  2  0
 23 24  1  0
 25 24  1  6
 25 27  1  0
 26 25  1  0
 27 29  2  0
 27 28  1  0
M  END
$$$$
