YVQ.pdb
     RDKit          3D

 29 29  0  0  1  0  0  0  0  0999 V2000
   28.3418  -16.6012  -20.4948 O   0  0  0  0  0  0  0  0  0  0  0  0
   27.6682  -17.4363  -19.6047 C   0  0  0  0  0  0  0  0  0  0  0  0
   27.2215  -16.9585  -18.3918 C   0  0  0  0  0  0  0  0  0  0  0  0
   26.5497  -17.8057  -17.5127 C   0  0  0  0  0  0  0  0  0  0  0  0
   26.3218  -19.1288  -17.8385 C   0  0  0  0  0  0  0  0  0  0  0  0
   25.6035  -20.0034  -16.8784 C   0  0  0  0  0  0  0  0  0  0  0  0
   26.6024  -20.5240  -15.8735 C   0  0  2  0  0  0  0  0  0  0  0  0
   27.4397  -21.4965  -16.5308 N   0  0  0  0  0  0  0  0  0  0  0  0
   25.8073  -21.1787  -14.7767 C   0  0  0  0  0  0  0  0  0  0  0  0
   25.2016  -22.2483  -15.0101 O   0  0  0  0  0  0  0  0  0  0  0  0
   26.7834  -19.5644  -19.0572 C   0  0  0  0  0  0  0  0  0  0  0  0
   27.4486  -18.7522  -19.9444 C   0  0  0  0  0  0  0  0  0  0  0  0
   24.8531  -21.0111   -9.9028 C   0  0  0  0  0  0  0  0  0  0  0  0
   25.6619  -20.6714  -11.1201 C   0  0  1  0  0  0  0  0  0  0  0  0
   27.1023  -21.0005  -10.9989 C   0  0  0  0  0  0  0  0  0  0  0  0
   24.9849  -21.1822  -12.3758 C   0  0  2  0  0  0  0  0  0  0  0  0
   25.7431  -20.5912  -13.4862 N   0  0  0  0  0  0  0  0  0  0  0  0
   23.5684  -20.6860  -12.4644 C   0  0  0  0  0  0  0  0  0  0  0  0
   23.3222  -19.4371  -12.4463 O   0  0  0  0  0  0  0  0  0  0  0  0
   18.0657  -23.6846  -13.9480 N   0  0  0  0  0  0  0  0  0  0  0  0
   17.9116  -22.2942  -14.1835 C   0  0  0  0  0  0  0  0  0  0  0  0
   16.8781  -21.8948  -14.7490 O   0  0  0  0  0  0  0  0  0  0  0  0
   18.9348  -21.3061  -13.7808 C   0  0  0  0  0  0  0  0  0  0  0  0
   20.0857  -21.9715  -13.0943 C   0  0  0  0  0  0  0  0  0  0  0  0
   21.1145  -20.9817  -12.6348 C   0  0  2  0  0  0  0  0  0  0  0  0
   22.4505  -21.5456  -12.5711 N   0  0  0  0  0  0  0  0  0  0  0  0
   20.7379  -20.5628  -11.2473 C   0  0  0  0  0  0  0  0  0  0  0  0
   20.0918  -19.3559  -11.0291 O   0  0  0  0  0  0  0  0  0  0  0  0
   20.9890  -21.2778  -10.2491 O   0  0  0  0  0  0  0  0  0  0  0  0
  2  1  1  0
  3  2  2  0
  4  3  1  0
  5  4  2  0
  5 11  1  0
  6  5  1  0
  7  9  1  0
  7  6  1  0
  7  8  1  6
  9 17  1  0
 10  9  2  0
 11 12  2  0
 12  2  1  0
 14 13  1  1
 14 15  1  0
 16 14  1  0
 16 18  1  0
 16 17  1  6
 18 26  1  0
 18 19  2  0
 20 21  1  0
 21 23  1  0
 22 21  2  0
 23 24  1  0
 25 24  1  1
 25 27  1  0
 26 25  1  0
 27 29  2  0
 27 28  1  0
M  END
$$$$
