YVQ.pdb
     RDKit          3D

 29 29  0  0  1  0  0  0  0  0999 V2000
   20.1096  -12.8396  -18.2884 O   0  0  0  0  0  0  0  0  0  0  0  0
   20.6798  -13.9947  -17.7554 C   0  0  0  0  0  0  0  0  0  0  0  0
   21.9628  -13.9792  -17.2528 C   0  0  0  0  0  0  0  0  0  0  0  0
   22.5189  -15.1420  -16.7233 C   0  0  0  0  0  0  0  0  0  0  0  0
   21.8001  -16.3215  -16.6934 C   0  0  0  0  0  0  0  0  0  0  0  0
   22.4234  -17.5415  -16.1227 C   0  0  0  0  0  0  0  0  0  0  0  0
   23.6244  -17.8978  -16.9649 C   0  0  2  0  0  0  0  0  0  0  0  0
   23.1560  -18.3524  -18.2505 N   0  0  0  0  0  0  0  0  0  0  0  0
   24.3373  -19.0117  -16.2474 C   0  0  0  0  0  0  0  0  0  0  0  0
   23.8302  -20.1553  -16.2286 O   0  0  0  0  0  0  0  0  0  0  0  0
   20.5250  -16.2934  -17.2044 C   0  0  0  0  0  0  0  0  0  0  0  0
   19.9503  -15.1620  -17.7326 C   0  0  0  0  0  0  0  0  0  0  0  0
   28.1044  -19.6833  -16.5393 C   0  0  0  0  0  0  0  0  0  0  0  0
   27.7644  -19.5203  -15.0871 C   0  0  1  0  0  0  0  0  0  0  0  0
   28.2745  -18.2653  -14.4849 C   0  0  0  0  0  0  0  0  0  0  0  0
   26.2964  -19.8052  -14.8427 C   0  0  2  0  0  0  0  0  0  0  0  0
   25.5757  -18.7713  -15.5968 N   0  0  0  0  0  0  0  0  0  0  0  0
   25.9510  -19.6452  -13.3883 C   0  0  0  0  0  0  0  0  0  0  0  0
   25.7516  -18.4873  -12.8983 O   0  0  0  0  0  0  0  0  0  0  0  0
   21.1597  -21.1504  -10.7526 N   0  0  0  0  0  0  0  0  0  0  0  0
   21.9180  -20.8315   -9.5970 C   0  0  0  0  0  0  0  0  0  0  0  0
   21.3155  -20.5494   -8.5459 O   0  0  0  0  0  0  0  0  0  0  0  0
   23.3963  -20.8231   -9.5991 C   0  0  0  0  0  0  0  0  0  0  0  0
   23.9348  -21.0964  -10.9680 C   0  0  0  0  0  0  0  0  0  0  0  0
   25.3034  -20.5142  -11.1603 C   0  0  2  0  0  0  0  0  0  0  0  0
   25.8277  -20.7352  -12.4956 N   0  0  0  0  0  0  0  0  0  0  0  0
   26.2188  -21.2067  -10.1986 C   0  0  0  0  0  0  0  0  0  0  0  0
   26.2890  -20.7964   -8.8763 O   0  0  0  0  0  0  0  0  0  0  0  0
   26.9428  -22.1677  -10.5494 O   0  0  0  0  0  0  0  0  0  0  0  0
  2  1  1  0
  3  2  2  0
  4  3  1  0
  5  4  2  0
  5 11  1  0
  6  5  1  0
  7  9  1  0
  7  6  1  0
  7  8  1  6
  9 17  1  0
 10  9  2  0
 11 12  2  0
 12  2  1  0
 14 13  1  6
 14 15  1  0
 16 14  1  0
 16 18  1  0
 16 17  1  6
 18 26  1  0
 18 19  2  0
 20 21  1  0
 21 23  1  0
 22 21  2  0
 23 24  1  0
 25 24  1  6
 25 27  1  0
 26 25  1  0
 27 29  2  0
 27 28  1  0
M  END
$$$$
