YVQ.pdb
     RDKit          3D

 29 29  0  0  1  0  0  0  0  0999 V2000
   24.7245  -13.9570  -21.2808 O   0  0  0  0  0  0  0  0  0  0  0  0
   24.6459  -15.0832  -20.4628 C   0  0  0  0  0  0  0  0  0  0  0  0
   24.3012  -14.9653  -19.1338 C   0  0  0  0  0  0  0  0  0  0  0  0
   24.2269  -16.1003  -18.3289 C   0  0  0  0  0  0  0  0  0  0  0  0
   24.4957  -17.3536  -18.8444 C   0  0  0  0  0  0  0  0  0  0  0  0
   24.4077  -18.5412  -17.9586 C   0  0  0  0  0  0  0  0  0  0  0  0
   25.8045  -18.9099  -17.5208 C   0  0  2  0  0  0  0  0  0  0  0  0
   26.4797  -19.5258  -18.6359 N   0  0  0  0  0  0  0  0  0  0  0  0
   25.6556  -19.8955  -16.3939 C   0  0  0  0  0  0  0  0  0  0  0  0
   25.1202  -21.0049  -16.6133 O   0  0  0  0  0  0  0  0  0  0  0  0
   24.8355  -17.4266  -20.1737 C   0  0  0  0  0  0  0  0  0  0  0  0
   24.9165  -16.3250  -20.9917 C   0  0  0  0  0  0  0  0  0  0  0  0
   27.1345  -20.8434  -11.7590 C   0  0  0  0  0  0  0  0  0  0  0  0
   27.2551  -20.2033  -13.1106 C   0  0  1  0  0  0  0  0  0  0  0  0
   28.5626  -20.4303  -13.7715 C   0  0  0  0  0  0  0  0  0  0  0  0
   26.0387  -20.5083  -13.9610 C   0  0  2  0  0  0  0  0  0  0  0  0
   26.1183  -19.5737  -15.0911 N   0  0  0  0  0  0  0  0  0  0  0  0
   24.7692  -20.2206  -13.2087 C   0  0  0  0  0  0  0  0  0  0  0  0
   24.4982  -19.0344  -12.8344 O   0  0  0  0  0  0  0  0  0  0  0  0
   18.3679  -22.7884  -10.7549 N   0  0  0  0  0  0  0  0  0  0  0  0
   19.1453  -22.2856  -11.8298 C   0  0  0  0  0  0  0  0  0  0  0  0
   18.8832  -22.6646  -12.9852 O   0  0  0  0  0  0  0  0  0  0  0  0
   20.2534  -21.3291  -11.6240 C   0  0  0  0  0  0  0  0  0  0  0  0
   21.4568  -21.7184  -12.4234 C   0  0  0  0  0  0  0  0  0  0  0  0
   22.6444  -20.8593  -12.1060 C   0  0  2  0  0  0  0  0  0  0  0  0
   23.8208  -21.2162  -12.8777 N   0  0  0  0  0  0  0  0  0  0  0  0
   22.9735  -21.0743  -10.6611 C   0  0  0  0  0  0  0  0  0  0  0  0
   22.2743  -20.3982   -9.6734 O   0  0  0  0  0  0  0  0  0  0  0  0
   23.8788  -21.8616  -10.2987 O   0  0  0  0  0  0  0  0  0  0  0  0
  2  1  1  0
  3  2  2  0
  4  3  1  0
  5  4  2  0
  5 11  1  0
  6  5  1  0
  7  9  1  0
  7  6  1  0
  7  8  1  6
  9 17  1  0
 10  9  2  0
 11 12  2  0
 12  2  1  0
 14 13  1  1
 14 15  1  0
 16 14  1  0
 16 18  1  0
 16 17  1  6
 18 26  1  0
 18 19  2  0
 20 21  1  0
 21 23  1  0
 22 21  2  0
 23 24  1  0
 25 24  1  6
 25 27  1  0
 26 25  1  0
 27 29  2  0
 27 28  1  0
M  END
$$$$
