YVQ.pdb
     RDKit          3D

 29 29  0  0  1  0  0  0  0  0999 V2000
   21.9486  -12.7580  -23.5799 O   0  0  0  0  0  0  0  0  0  0  0  0
   22.2488  -12.0443  -22.4206 C   0  0  0  0  0  0  0  0  0  0  0  0
   22.5075  -12.7006  -21.2368 C   0  0  0  0  0  0  0  0  0  0  0  0
   22.8060  -11.9732  -20.0864 C   0  0  0  0  0  0  0  0  0  0  0  0
   22.8472  -10.5925  -20.1117 C   0  0  0  0  0  0  0  0  0  0  0  0
   23.1679   -9.8492  -18.8678 C   0  0  0  0  0  0  0  0  0  0  0  0
   24.5266   -9.2127  -19.0336 C   0  0  2  0  0  0  0  0  0  0  0  0
   25.5292  -10.2302  -18.8379 N   0  0  0  0  0  0  0  0  0  0  0  0
   24.6404   -8.1582  -17.9664 C   0  0  0  0  0  0  0  0  0  0  0  0
   25.0168   -8.4828  -16.8182 O   0  0  0  0  0  0  0  0  0  0  0  0
   22.5831   -9.9778  -21.3119 C   0  0  0  0  0  0  0  0  0  0  0  0
   22.2861  -10.6688  -22.4623 C   0  0  0  0  0  0  0  0  0  0  0  0
   25.4181   -3.4224  -17.2040 C   0  0  0  0  0  0  0  0  0  0  0  0
   25.4288   -4.7341  -17.9323 C   0  0  1  0  0  0  0  0  0  0  0  0
   26.7871   -5.2544  -18.2187 C   0  0  0  0  0  0  0  0  0  0  0  0
   24.4826   -5.7205  -17.2783 C   0  0  2  0  0  0  0  0  0  0  0  0
   24.3251   -6.8049  -18.2561 N   0  0  0  0  0  0  0  0  0  0  0  0
   23.1318   -5.1012  -17.0496 C   0  0  0  0  0  0  0  0  0  0  0  0
   22.4150   -4.7386  -18.0373 O   0  0  0  0  0  0  0  0  0  0  0  0
   19.2879   -8.8625  -15.3424 N   0  0  0  0  0  0  0  0  0  0  0  0
   19.0272   -7.4688  -15.3882 C   0  0  0  0  0  0  0  0  0  0  0  0
   17.9155   -7.0817  -15.7901 O   0  0  0  0  0  0  0  0  0  0  0  0
   20.0292   -6.4633  -14.9754 C   0  0  0  0  0  0  0  0  0  0  0  0
   20.1939   -5.4059  -16.0211 C   0  0  0  0  0  0  0  0  0  0  0  0
   21.2266   -4.3894  -15.6346 C   0  0  2  0  0  0  0  0  0  0  0  0
   22.5839   -4.8874  -15.7634 N   0  0  0  0  0  0  0  0  0  0  0  0
   21.0051   -4.0591  -14.1910 C   0  0  0  0  0  0  0  0  0  0  0  0
   21.8635   -4.5486  -13.2187 O   0  0  0  0  0  0  0  0  0  0  0  0
   20.0505   -3.3389  -13.8159 O   0  0  0  0  0  0  0  0  0  0  0  0
  2  1  1  0
  3  2  2  0
  4  3  1  0
  5  4  2  0
  5 11  1  0
  6  5  1  0
  7  9  1  0
  7  6  1  0
  7  8  1  1
  9 17  1  0
 10  9  2  0
 11 12  2  0
 12  2  1  0
 14 13  1  1
 14 15  1  0
 16 14  1  0
 16 18  1  0
 16 17  1  6
 18 26  1  0
 18 19  2  0
 20 21  1  0
 21 23  1  0
 22 21  2  0
 23 24  1  0
 25 24  1  1
 25 27  1  0
 26 25  1  0
 27 29  2  0
 27 28  1  0
M  END
$$$$
