YVQ.pdb
     RDKit          3D

 29 29  0  0  1  0  0  0  0  0999 V2000
   13.8204  -22.0200    1.9404 O   0  0  0  0  0  0  0  0  0  0  0  0
   14.8392  -21.1637    2.3554 C   0  0  0  0  0  0  0  0  0  0  0  0
   16.0181  -21.0768    1.6471 C   0  0  0  0  0  0  0  0  0  0  0  0
   17.0272  -20.2162    2.0747 C   0  0  0  0  0  0  0  0  0  0  0  0
   16.8654  -19.4414    3.2071 C   0  0  0  0  0  0  0  0  0  0  0  0
   17.9610  -18.5359    3.6343 C   0  0  0  0  0  0  0  0  0  0  0  0
   17.5442  -17.1157    3.3376 C   0  0  2  0  0  0  0  0  0  0  0  0
   17.4478  -16.9626    1.9072 N   0  0  0  0  0  0  0  0  0  0  0  0
   18.6280  -16.2267    3.8840 C   0  0  0  0  0  0  0  0  0  0  0  0
   19.7188  -16.1420    3.2771 O   0  0  0  0  0  0  0  0  0  0  0  0
   15.6752  -19.5583    3.8836 C   0  0  0  0  0  0  0  0  0  0  0  0
   14.6624  -20.3980    3.4858 C   0  0  0  0  0  0  0  0  0  0  0  0
   18.6222  -12.6310    4.2382 C   0  0  0  0  0  0  0  0  0  0  0  0
   18.7006  -13.2002    5.6243 C   0  0  1  0  0  0  0  0  0  0  0  0
   17.4173  -13.1631    6.3655 C   0  0  0  0  0  0  0  0  0  0  0  0
   19.4046  -14.5419    5.6159 C   0  0  2  0  0  0  0  0  0  0  0  0
   18.4183  -15.4877    5.0776 N   0  0  0  0  0  0  0  0  0  0  0  0
   19.7516  -14.9773    7.0125 C   0  0  0  0  0  0  0  0  0  0  0  0
   18.9449  -15.7019    7.6794 O   0  0  0  0  0  0  0  0  0  0  0  0
   25.3737  -14.8936   10.1176 N   0  0  0  0  0  0  0  0  0  0  0  0
   24.4931  -15.7082   10.8747 C   0  0  0  0  0  0  0  0  0  0  0  0
   24.9439  -16.3219   11.8583 O   0  0  0  0  0  0  0  0  0  0  0  0
   23.0615  -15.8523   10.5356 C   0  0  0  0  0  0  0  0  0  0  0  0
   22.7026  -15.0178    9.3468 C   0  0  0  0  0  0  0  0  0  0  0  0
   21.2589  -15.1682    8.9696 C   0  0  2  0  0  0  0  0  0  0  0  0
   20.9590  -14.6231    7.6582 N   0  0  0  0  0  0  0  0  0  0  0  0
   20.4564  -14.3959    9.9706 C   0  0  0  0  0  0  0  0  0  0  0  0
   20.0589  -14.9880   11.1593 O   0  0  0  0  0  0  0  0  0  0  0  0
   20.1212  -13.2046    9.7726 O   0  0  0  0  0  0  0  0  0  0  0  0
  2  1  1  0
  3  2  2  0
  4  3  1  0
  5  4  2  0
  5 11  1  0
  6  5  1  0
  7  9  1  0
  7  6  1  0
  7  8  1  6
  9 17  1  0
 10  9  2  0
 11 12  2  0
 12  2  1  0
 14 13  1  6
 14 15  1  0
 16 14  1  0
 16 18  1  0
 16 17  1  1
 18 26  1  0
 18 19  2  0
 20 21  1  0
 21 23  1  0
 22 21  2  0
 23 24  1  0
 25 24  1  1
 25 27  1  0
 26 25  1  0
 27 29  2  0
 27 28  1  0
M  END
$$$$
