CNN.pdb
     RDKit          3D

 23 22  0  0  1  0  0  0  0  0999 V2000
   17.8442   -8.7272  -15.4413 N   0  0  0  0  0  0  0  0  0  0  0  0
   18.1237   -9.7225  -14.4290 C   0  0  1  0  0  0  0  0  0  0  0  0
   19.2940  -10.5326  -14.8890 C   0  0  0  0  0  0  0  0  0  0  0  0
   18.8448  -11.4478  -16.3939 S   0  0  0  0  0  0  0  0  0  0  0  0
   18.3342   -9.0355  -13.1492 C   0  0  0  0  0  0  0  0  0  0  0  0
   18.5643   -9.7159  -12.1214 O   0  0  0  0  0  0  0  0  0  0  0  0
   21.5424   -7.3309  -11.3429 N   0  0  0  0  0  0  0  0  0  0  0  0
   20.8413   -6.4034  -12.1457 C   0  0  0  0  0  0  0  0  0  0  0  0
   21.3425   -6.0175  -13.2127 O   0  0  0  0  0  0  0  0  0  0  0  0
   19.5314   -5.9117  -11.7044 C   0  0  0  0  0  0  0  0  0  0  0  0
   18.4337   -6.9571  -11.7628 C   0  0  2  0  0  0  0  0  0  0  0  0
   18.2914   -7.6237  -13.0082 N   0  0  0  0  0  0  0  0  0  0  0  0
   17.1451   -6.4185  -11.2445 C   0  0  0  0  0  0  0  0  0  0  0  0
   16.3204   -5.8374  -12.0324 O   0  0  0  0  0  0  0  0  0  0  0  0
   14.4813   -9.2538   -8.3138 N   0  0  0  0  0  0  0  0  0  0  0  0
   14.2282   -7.9635   -8.9073 C   0  0  0  0  0  0  0  0  0  0  0  0
   13.4294   -8.0130   -9.8867 O   0  0  0  0  0  0  0  0  0  0  0  0
   14.8659   -6.7447   -8.3812 C   0  0  0  0  0  0  0  0  0  0  0  0
   15.4784   -5.9427   -9.4748 C   0  0  2  0  0  0  0  0  0  0  0  0
   16.7649   -6.5138   -9.8880 N   0  0  0  0  0  0  0  0  0  0  0  0
   15.8232   -4.5863   -8.9558 C   0  0  0  0  0  0  0  0  0  0  0  0
   14.8375   -3.7249   -8.5620 O   0  0  0  0  0  0  0  0  0  0  0  0
   17.0212   -4.2512   -8.8879 O   0  0  0  0  0  0  0  0  0  0  0  0
  2  1  1  6
  2  3  1  0
  4  3  1  0
  5 12  1  0
  5  2  1  0
  6  5  2  0
  8  7  1  0
  8 10  1  0
  9  8  2  0
 11 13  1  0
 11 10  1  6
 11 12  1  0
 13 20  1  0
 14 13  2  0
 16 17  2  0
 16 15  1  0
 18 16  1  0
 19 18  1  1
 20 19  1  0
 21 22  1  0
 21 19  1  0
 23 21  2  0
M  END
$$$$
