CNN.pdb
     RDKit          3D

 23 22  0  0  1  0  0  0  0  0999 V2000
   17.6091   -9.7312  -15.9661 N   0  0  0  0  0  0  0  0  0  0  0  0
   17.0835  -10.5751  -14.9147 C   0  0  1  0  0  0  0  0  0  0  0  0
   17.5874  -11.9648  -15.1432 C   0  0  0  0  0  0  0  0  0  0  0  0
   16.8473  -12.6369  -16.6613 S   0  0  0  0  0  0  0  0  0  0  0  0
   17.4719  -10.0002  -13.6213 C   0  0  0  0  0  0  0  0  0  0  0  0
   17.3039  -10.6749  -12.5779 O   0  0  0  0  0  0  0  0  0  0  0  0
   20.8145   -8.9700  -13.0450 N   0  0  0  0  0  0  0  0  0  0  0  0
   20.7230   -7.6186  -12.6428 C   0  0  0  0  0  0  0  0  0  0  0  0
   21.7409   -6.9097  -12.6473 O   0  0  0  0  0  0  0  0  0  0  0  0
   19.4254   -7.0754  -12.2265 C   0  0  0  0  0  0  0  0  0  0  0  0
   18.3046   -8.0975  -12.2290 C   0  0  2  0  0  0  0  0  0  0  0  0
   18.0350   -8.7044  -13.4839 N   0  0  0  0  0  0  0  0  0  0  0  0
   17.0805   -7.5603  -11.5716 C   0  0  0  0  0  0  0  0  0  0  0  0
   16.2458   -6.8509  -12.2339 O   0  0  0  0  0  0  0  0  0  0  0  0
   13.3224   -6.1213   -8.4354 N   0  0  0  0  0  0  0  0  0  0  0  0
   13.7532   -7.4383   -8.0339 C   0  0  0  0  0  0  0  0  0  0  0  0
   12.9871   -7.9761   -7.1833 O   0  0  0  0  0  0  0  0  0  0  0  0
   14.9731   -8.0444   -8.5937 C   0  0  0  0  0  0  0  0  0  0  0  0
   15.5711   -7.1776   -9.6451 C   0  0  2  0  0  0  0  0  0  0  0  0
   16.7745   -7.7949  -10.2133 N   0  0  0  0  0  0  0  0  0  0  0  0
   16.0613   -5.9137   -9.0200 C   0  0  0  0  0  0  0  0  0  0  0  0
   15.1919   -4.8951   -8.7455 O   0  0  0  0  0  0  0  0  0  0  0  0
   17.2730   -5.8011   -8.7534 O   0  0  0  0  0  0  0  0  0  0  0  0
  2  1  1  6
  2  3  1  0
  4  3  1  0
  5 12  1  0
  5  2  1  0
  6  5  2  0
  8  7  1  0
  8 10  1  0
  9  8  2  0
 11 13  1  0
 11 10  1  6
 11 12  1  0
 13 20  1  0
 14 13  2  0
 16 17  2  0
 16 15  1  0
 18 16  1  0
 19 18  1  1
 20 19  1  0
 21 22  1  0
 21 19  1  0
 23 21  2  0
M  END
$$$$
