CNN.pdb
     RDKit          3D

 23 22  0  0  1  0  0  0  0  0999 V2000
   17.9981  -13.5336  -15.5277 N   0  0  0  0  0  0  0  0  0  0  0  0
   17.6584  -12.1616  -15.8376 C   0  0  1  0  0  0  0  0  0  0  0  0
   16.7934  -11.6399  -14.7343 C   0  0  0  0  0  0  0  0  0  0  0  0
   15.2013  -12.5168  -14.7450 S   0  0  0  0  0  0  0  0  0  0  0  0
   18.9031  -11.4087  -16.0325 C   0  0  0  0  0  0  0  0  0  0  0  0
   19.8968  -11.6754  -15.3157 O   0  0  0  0  0  0  0  0  0  0  0  0
   22.1284  -11.4549  -19.8953 N   0  0  0  0  0  0  0  0  0  0  0  0
   20.9181  -11.1220  -19.2468 C   0  0  0  0  0  0  0  0  0  0  0  0
   20.0306  -11.9808  -19.1314 O   0  0  0  0  0  0  0  0  0  0  0  0
   20.7305   -9.7657  -18.7199 C   0  0  0  0  0  0  0  0  0  0  0  0
   20.2780   -9.7283  -17.2725 C   0  0  2  0  0  0  0  0  0  0  0  0
   19.0468  -10.3810  -17.0010 N   0  0  0  0  0  0  0  0  0  0  0  0
   20.3323   -8.3443  -16.7239 C   0  0  0  0  0  0  0  0  0  0  0  0
   19.3400   -7.8645  -16.0730 O   0  0  0  0  0  0  0  0  0  0  0  0
   22.1300   -4.4338  -14.0559 N   0  0  0  0  0  0  0  0  0  0  0  0
   22.0944   -5.8056  -13.6109 C   0  0  0  0  0  0  0  0  0  0  0  0
   22.3182   -5.9344  -12.3727 O   0  0  0  0  0  0  0  0  0  0  0  0
   21.8194   -6.9047  -14.5517 C   0  0  0  0  0  0  0  0  0  0  0  0
   21.6433   -6.3948  -15.9385 C   0  0  2  0  0  0  0  0  0  0  0  0
   21.4524   -7.4998  -16.8844 N   0  0  0  0  0  0  0  0  0  0  0  0
   22.9070   -5.7374  -16.3848 C   0  0  0  0  0  0  0  0  0  0  0  0
   23.6157   -6.2439  -17.4382 O   0  0  0  0  0  0  0  0  0  0  0  0
   23.3058   -4.7220  -15.7830 O   0  0  0  0  0  0  0  0  0  0  0  0
  2  1  1  1
  2  3  1  0
  4  3  1  0
  5 12  1  0
  5  2  1  0
  6  5  2  0
  8  7  1  0
  8 10  1  0
  9  8  2  0
 11 13  1  0
 11 10  1  6
 11 12  1  0
 13 20  1  0
 14 13  2  0
 16 17  2  0
 16 15  1  0
 18 16  1  0
 19 18  1  1
 20 19  1  0
 21 22  1  0
 21 19  1  0
 23 21  2  0
M  END
$$$$
