CNN.pdb
     RDKit          3D

 23 22  0  0  1  0  0  0  0  0999 V2000
   27.8106  -22.5429  -16.8880 N   0  0  0  0  0  0  0  0  0  0  0  0
   27.8679  -21.3621  -16.0538 C   0  0  1  0  0  0  0  0  0  0  0  0
   27.6969  -20.1656  -16.9351 C   0  0  0  0  0  0  0  0  0  0  0  0
   29.2153  -19.8992  -17.8982 S   0  0  0  0  0  0  0  0  0  0  0  0
   26.8492  -21.4860  -15.0045 C   0  0  0  0  0  0  0  0  0  0  0  0
   25.8071  -22.1425  -15.2396 O   0  0  0  0  0  0  0  0  0  0  0  0
   24.0924  -21.2074  -10.6897 N   0  0  0  0  0  0  0  0  0  0  0  0
   25.3553  -20.6945  -10.3178 C   0  0  0  0  0  0  0  0  0  0  0  0
   25.5816  -20.4326   -9.1266 O   0  0  0  0  0  0  0  0  0  0  0  0
   26.3790  -20.4799  -11.3465 C   0  0  0  0  0  0  0  0  0  0  0  0
   25.9641  -20.9452  -12.7294 C   0  0  2  0  0  0  0  0  0  0  0  0
   26.9798  -20.8959  -13.7201 N   0  0  0  0  0  0  0  0  0  0  0  0
   24.6994  -20.2890  -13.1645 C   0  0  0  0  0  0  0  0  0  0  0  0
   24.6882  -19.0503  -13.4872 O   0  0  0  0  0  0  0  0  0  0  0  0
   20.1774  -18.9748  -14.9860 N   0  0  0  0  0  0  0  0  0  0  0  0
   20.9281  -19.9161  -15.7808 C   0  0  0  0  0  0  0  0  0  0  0  0
   20.4980  -20.0234  -16.9655 O   0  0  0  0  0  0  0  0  0  0  0  0
   22.0724  -20.6497  -15.2141 C   0  0  0  0  0  0  0  0  0  0  0  0
   22.3035  -20.2721  -13.7934 C   0  0  2  0  0  0  0  0  0  0  0  0
   23.4683  -20.9757  -13.2455 N   0  0  0  0  0  0  0  0  0  0  0  0
   21.1572  -20.7495  -12.9650 C   0  0  0  0  0  0  0  0  0  0  0  0
   20.1642  -19.8862  -12.5947 O   0  0  0  0  0  0  0  0  0  0  0  0
   21.1195  -21.9450  -12.6161 O   0  0  0  0  0  0  0  0  0  0  0  0
  2  1  1  6
  2  3  1  0
  4  3  1  0
  5 12  1  0
  5  2  1  0
  6  5  2  0
  8  7  1  0
  8 10  1  0
  9  8  2  0
 11 13  1  0
 11 10  1  1
 11 12  1  0
 13 20  1  0
 14 13  2  0
 16 17  2  0
 16 15  1  0
 18 16  1  0
 19 18  1  6
 20 19  1  0
 21 22  1  0
 21 19  1  0
 23 21  2  0
M  END
$$$$
