CNN.pdb
     RDKit          3D

 23 22  0  0  1  0  0  0  0  0999 V2000
   15.3154  -13.5940  -16.1049 N   0  0  0  0  0  0  0  0  0  0  0  0
   16.2903  -12.8905  -15.2997 C   0  0  1  0  0  0  0  0  0  0  0  0
   17.5436  -13.7067  -15.2749 C   0  0  0  0  0  0  0  0  0  0  0  0
   17.3100  -15.1446  -14.1877 S   0  0  0  0  0  0  0  0  0  0  0  0
   16.4622  -11.5421  -15.8532 C   0  0  0  0  0  0  0  0  0  0  0  0
   16.5908  -11.4024  -17.0926 O   0  0  0  0  0  0  0  0  0  0  0  0
   15.3747   -6.5499  -17.4150 N   0  0  0  0  0  0  0  0  0  0  0  0
   15.6473   -6.8269  -16.0566 C   0  0  0  0  0  0  0  0  0  0  0  0
   16.0708   -5.9218  -15.3216 O   0  0  0  0  0  0  0  0  0  0  0  0
   15.4248   -8.1806  -15.5368 C   0  0  0  0  0  0  0  0  0  0  0  0
   16.6571   -9.0640  -15.5824 C   0  0  2  0  0  0  0  0  0  0  0  0
   16.4914  -10.3705  -15.0522 N   0  0  0  0  0  0  0  0  0  0  0  0
   17.8477   -8.3614  -15.0275 C   0  0  0  0  0  0  0  0  0  0  0  0
   18.0186   -8.2737  -13.7619 O   0  0  0  0  0  0  0  0  0  0  0  0
   21.2032   -8.5776  -13.1723 N   0  0  0  0  0  0  0  0  0  0  0  0
   21.8202   -8.5977  -14.4762 C   0  0  0  0  0  0  0  0  0  0  0  0
   22.8536   -9.3250  -14.5280 O   0  0  0  0  0  0  0  0  0  0  0  0
   21.2566   -7.8272  -15.5976 C   0  0  0  0  0  0  0  0  0  0  0  0
   19.9969   -7.1417  -15.2004 C   0  0  2  0  0  0  0  0  0  0  0  0
   18.8345   -7.7650  -15.8426 N   0  0  0  0  0  0  0  0  0  0  0  0
   20.0093   -5.7456  -15.7284 C   0  0  0  0  0  0  0  0  0  0  0  0
   19.4797   -5.4658  -16.9572 O   0  0  0  0  0  0  0  0  0  0  0  0
   20.5097   -4.8405  -15.0336 O   0  0  0  0  0  0  0  0  0  0  0  0
  2  1  1  6
  2  3  1  0
  4  3  1  0
  5 12  1  0
  5  2  1  0
  6  5  2  0
  8  7  1  0
  8 10  1  0
  9  8  2  0
 11 13  1  0
 11 10  1  1
 11 12  1  0
 13 20  1  0
 14 13  2  0
 16 17  2  0
 16 15  1  0
 18 16  1  0
 19 18  1  6
 20 19  1  0
 21 22  1  0
 21 19  1  0
 23 21  2  0
M  END
$$$$
