CNN.pdb
     RDKit          3D

 23 22  0  0  1  0  0  0  0  0999 V2000
   25.3091  -10.9790  -17.6085 N   0  0  0  0  0  0  0  0  0  0  0  0
   24.2639  -11.1337  -16.6200 C   0  0  1  0  0  0  0  0  0  0  0  0
   24.8723  -11.7425  -15.3966 C   0  0  0  0  0  0  0  0  0  0  0  0
   25.2424  -13.4943  -15.7103 S   0  0  0  0  0  0  0  0  0  0  0  0
   23.6424   -9.8235  -16.3937 C   0  0  0  0  0  0  0  0  0  0  0  0
   24.3756   -8.8258  -16.1954 O   0  0  0  0  0  0  0  0  0  0  0  0
   20.3450   -5.4999  -18.3989 N   0  0  0  0  0  0  0  0  0  0  0  0
   20.8488   -6.2260  -17.2966 C   0  0  0  0  0  0  0  0  0  0  0  0
   20.8115   -5.7213  -16.1641 O   0  0  0  0  0  0  0  0  0  0  0  0
   21.4081   -7.5655  -17.5090 C   0  0  0  0  0  0  0  0  0  0  0  0
   21.6325   -8.3455  -16.2274 C   0  0  2  0  0  0  0  0  0  0  0  0
   22.2376   -9.6199  -16.3867 N   0  0  0  0  0  0  0  0  0  0  0  0
   20.3956   -8.3921  -15.3984 C   0  0  0  0  0  0  0  0  0  0  0  0
   19.5737   -9.3667  -15.5127 O   0  0  0  0  0  0  0  0  0  0  0  0
   16.4686   -7.5506  -12.2471 N   0  0  0  0  0  0  0  0  0  0  0  0
   17.6790   -8.0704  -11.6591 C   0  0  0  0  0  0  0  0  0  0  0  0
   17.5140   -8.5111  -10.4850 O   0  0  0  0  0  0  0  0  0  0  0  0
   18.9510   -8.0622  -12.4012 C   0  0  0  0  0  0  0  0  0  0  0  0
   18.7780   -7.4793  -13.7594 C   0  0  2  0  0  0  0  0  0  0  0  0
   20.0635   -7.3901  -14.4607 N   0  0  0  0  0  0  0  0  0  0  0  0
   18.3247   -6.0627  -13.6324 C   0  0  0  0  0  0  0  0  0  0  0  0
   17.0852   -5.7751  -13.1328 O   0  0  0  0  0  0  0  0  0  0  0  0
   19.0916   -5.1479  -13.9888 O   0  0  0  0  0  0  0  0  0  0  0  0
  2  1  1  6
  2  3  1  0
  4  3  1  0
  5 12  1  0
  5  2  1  0
  6  5  2  0
  8  7  1  0
  8 10  1  0
  9  8  2  0
 11 13  1  0
 11 10  1  6
 11 12  1  0
 13 20  1  0
 14 13  2  0
 16 17  2  0
 16 15  1  0
 18 16  1  0
 19 18  1  1
 20 19  1  0
 21 22  1  0
 21 19  1  0
 23 21  2  0
M  END
$$$$
