CNN.pdb
     RDKit          3D

 23 22  0  0  1  0  0  0  0  0999 V2000
   27.3955  -21.5333  -11.0652 N   0  0  0  0  0  0  0  0  0  0  0  0
   25.9988  -21.3265  -10.7488 C   0  0  1  0  0  0  0  0  0  0  0  0
   25.9233  -20.3951   -9.5808 C   0  0  0  0  0  0  0  0  0  0  0  0
   26.5046  -21.2489   -8.0851 S   0  0  0  0  0  0  0  0  0  0  0  0
   25.3185  -20.8362  -11.9533 C   0  0  0  0  0  0  0  0  0  0  0  0
   25.8183  -19.8786  -12.5900 O   0  0  0  0  0  0  0  0  0  0  0  0
   25.3327  -23.5948  -15.1398 N   0  0  0  0  0  0  0  0  0  0  0  0
   24.7979  -22.2979  -15.3072 C   0  0  0  0  0  0  0  0  0  0  0  0
   25.4594  -21.4370  -15.9072 O   0  0  0  0  0  0  0  0  0  0  0  0
   23.4683  -21.9900  -14.7689 C   0  0  0  0  0  0  0  0  0  0  0  0
   23.4835  -20.9696  -13.6466 C   0  0  2  0  0  0  0  0  0  0  0  0
   24.1090  -21.3937  -12.4447 N   0  0  0  0  0  0  0  0  0  0  0  0
   22.1287  -20.3926  -13.4211 C   0  0  0  0  0  0  0  0  0  0  0  0
   21.2766  -21.0038  -12.6869 O   0  0  0  0  0  0  0  0  0  0  0  0
   17.8834  -17.5678  -13.1949 N   0  0  0  0  0  0  0  0  0  0  0  0
   18.9124  -16.7017  -13.7166 C   0  0  0  0  0  0  0  0  0  0  0  0
   18.5212  -15.5117  -13.8919 O   0  0  0  0  0  0  0  0  0  0  0  0
   20.2657  -17.2100  -13.9976 C   0  0  0  0  0  0  0  0  0  0  0  0
   20.3802  -18.6537  -13.6558 C   0  0  2  0  0  0  0  0  0  0  0  0
   21.7130  -19.1684  -13.9887 N   0  0  0  0  0  0  0  0  0  0  0  0
   19.4515  -19.4390  -14.5212 C   0  0  0  0  0  0  0  0  0  0  0  0
   19.8465  -19.8534  -15.7625 O   0  0  0  0  0  0  0  0  0  0  0  0
   18.3122  -19.7100  -14.0961 O   0  0  0  0  0  0  0  0  0  0  0  0
  2  1  1  6
  2  3  1  0
  4  3  1  0
  5 12  1  0
  5  2  1  0
  6  5  2  0
  8  7  1  0
  8 10  1  0
  9  8  2  0
 11 13  1  0
 11 10  1  6
 11 12  1  0
 13 20  1  0
 14 13  2  0
 16 17  2  0
 16 15  1  0
 18 16  1  0
 19 18  1  6
 20 19  1  0
 21 22  1  0
 21 19  1  0
 23 21  2  0
M  END
$$$$
