CNN.pdb
     RDKit          3D

 23 22  0  0  1  0  0  0  0  0999 V2000
   24.8604  -20.8277   -8.6200 N   0  0  0  0  0  0  0  0  0  0  0  0
   25.8131  -20.1157   -9.4440 C   0  0  1  0  0  0  0  0  0  0  0  0
   27.1523  -20.2061   -8.7839 C   0  0  0  0  0  0  0  0  0  0  0  0
   27.1834  -19.1242   -7.3235 S   0  0  0  0  0  0  0  0  0  0  0  0
   25.7706  -20.6829  -10.7970 C   0  0  0  0  0  0  0  0  0  0  0  0
   26.4702  -21.6898  -11.0594 O   0  0  0  0  0  0  0  0  0  0  0  0
   23.8006  -23.7158  -12.9960 N   0  0  0  0  0  0  0  0  0  0  0  0
   23.1967  -22.4631  -12.7465 C   0  0  0  0  0  0  0  0  0  0  0  0
   22.3446  -22.3633  -11.8506 O   0  0  0  0  0  0  0  0  0  0  0  0
   23.5874  -21.3001  -13.5509 C   0  0  0  0  0  0  0  0  0  0  0  0
   24.9196  -20.6967  -13.1481 C   0  0  2  0  0  0  0  0  0  0  0  0
   24.9701  -20.1475  -11.8399 N   0  0  0  0  0  0  0  0  0  0  0  0
   25.4261  -19.7590  -14.1890 C   0  0  0  0  0  0  0  0  0  0  0  0
   25.1056  -18.5201  -14.1582 O   0  0  0  0  0  0  0  0  0  0  0  0
   29.2701  -17.3325  -17.4149 N   0  0  0  0  0  0  0  0  0  0  0  0
   28.5354  -18.5333  -17.7303 C   0  0  0  0  0  0  0  0  0  0  0  0
   28.3140  -18.6722  -18.9678 O   0  0  0  0  0  0  0  0  0  0  0  0
   28.1121  -19.4671  -16.6731 C   0  0  0  0  0  0  0  0  0  0  0  0
   26.7312  -19.1642  -16.2087 C   0  0  2  0  0  0  0  0  0  0  0  0
   26.2685  -20.1692  -15.2453 N   0  0  0  0  0  0  0  0  0  0  0  0
   25.7874  -19.2891  -17.3584 C   0  0  0  0  0  0  0  0  0  0  0  0
   25.3849  -18.1789  -18.0469 O   0  0  0  0  0  0  0  0  0  0  0  0
   25.3720  -20.4188  -17.6801 O   0  0  0  0  0  0  0  0  0  0  0  0
  2  1  1  1
  2  3  1  0
  4  3  1  0
  5 12  1  0
  5  2  1  0
  6  5  2  0
  8  7  1  0
  8 10  1  0
  9  8  2  0
 11 13  1  0
 11 10  1  6
 11 12  1  0
 13 20  1  0
 14 13  2  0
 16 17  2  0
 16 15  1  0
 18 16  1  0
 19 18  1  6
 20 19  1  0
 21 22  1  0
 21 19  1  0
 23 21  2  0
M  END
$$$$
