CNN.pdb
     RDKit          3D

 23 22  0  0  1  0  0  0  0  0999 V2000
   12.8492   -7.5708   -8.0947 N   0  0  0  0  0  0  0  0  0  0  0  0
   14.1730   -7.0633   -8.3840 C   0  0  1  0  0  0  0  0  0  0  0  0
   14.7600   -6.5511   -7.1070 C   0  0  0  0  0  0  0  0  0  0  0  0
   13.7139   -5.2177   -6.4500 S   0  0  0  0  0  0  0  0  0  0  0  0
   14.9521   -8.1344   -9.0163 C   0  0  0  0  0  0  0  0  0  0  0  0
   14.5949   -9.3257   -8.8561 O   0  0  0  0  0  0  0  0  0  0  0  0
   16.0722  -11.0848  -13.4717 N   0  0  0  0  0  0  0  0  0  0  0  0
   16.4159  -10.8678  -12.1186 C   0  0  0  0  0  0  0  0  0  0  0  0
   17.2740  -11.5861  -11.5835 O   0  0  0  0  0  0  0  0  0  0  0  0
   15.7523   -9.7961  -11.3679 C   0  0  0  0  0  0  0  0  0  0  0  0
   16.7112   -8.8827  -10.6280 C   0  0  2  0  0  0  0  0  0  0  0  0
   16.1036   -7.8936   -9.8107 N   0  0  0  0  0  0  0  0  0  0  0  0
   17.7413   -8.3214  -11.5462 C   0  0  0  0  0  0  0  0  0  0  0  0
   17.4960   -8.1919  -12.7958 O   0  0  0  0  0  0  0  0  0  0  0  0
   21.6279   -6.6557  -14.1794 N   0  0  0  0  0  0  0  0  0  0  0  0
   21.0634   -7.9821  -14.2357 C   0  0  0  0  0  0  0  0  0  0  0  0
   21.4144   -8.6304  -15.2636 O   0  0  0  0  0  0  0  0  0  0  0  0
   20.1732   -8.4770  -13.1721 C   0  0  0  0  0  0  0  0  0  0  0  0
   19.9961   -7.4589  -12.1014 C   0  0  2  0  0  0  0  0  0  0  0  0
   19.0176   -7.9086  -11.1052 N   0  0  0  0  0  0  0  0  0  0  0  0
   19.3896   -6.2279  -12.6889 C   0  0  0  0  0  0  0  0  0  0  0  0
   19.9445   -5.0016  -12.4504 O   0  0  0  0  0  0  0  0  0  0  0  0
   18.3710   -6.3348  -13.3983 O   0  0  0  0  0  0  0  0  0  0  0  0
  2  1  1  1
  2  3  1  0
  4  3  1  0
  5 12  1  0
  5  2  1  0
  6  5  2  0
  8  7  1  0
  8 10  1  0
  9  8  2  0
 11 13  1  0
 11 10  1  6
 11 12  1  0
 13 20  1  0
 14 13  2  0
 16 17  2  0
 16 15  1  0
 18 16  1  0
 19 18  1  6
 20 19  1  0
 21 22  1  0
 21 19  1  0
 23 21  2  0
M  END
$$$$
