CNN.pdb
     RDKit          3D

 23 22  0  0  1  0  0  0  0  0999 V2000
   17.9800  -24.7121   -6.5215 N   0  0  0  0  0  0  0  0  0  0  0  0
   18.5899  -25.0919   -7.7774 C   0  0  1  0  0  0  0  0  0  0  0  0
   17.9534  -26.3666   -8.2327 C   0  0  0  0  0  0  0  0  0  0  0  0
   18.9308  -27.7792   -7.6382 S   0  0  0  0  0  0  0  0  0  0  0  0
   18.4427  -23.9766   -8.7201 C   0  0  0  0  0  0  0  0  0  0  0  0
   17.4097  -23.2675   -8.6707 O   0  0  0  0  0  0  0  0  0  0  0  0
   19.1205  -20.2543  -12.1348 N   0  0  0  0  0  0  0  0  0  0  0  0
   20.4071  -20.8205  -11.9921 C   0  0  0  0  0  0  0  0  0  0  0  0
   21.3766  -20.2822  -12.5479 O   0  0  0  0  0  0  0  0  0  0  0  0
   20.5758  -22.0364  -11.1886 C   0  0  0  0  0  0  0  0  0  0  0  0
   19.2794  -22.5757  -10.6146 C   0  0  2  0  0  0  0  0  0  0  0  0
   19.4184  -23.6512   -9.6984 N   0  0  0  0  0  0  0  0  0  0  0  0
   18.2868  -22.8562  -11.6894 C   0  0  0  0  0  0  0  0  0  0  0  0
   18.3557  -23.9376  -12.3708 O   0  0  0  0  0  0  0  0  0  0  0  0
   14.7467  -24.3998  -12.1312 N   0  0  0  0  0  0  0  0  0  0  0  0
   14.1496  -23.0909  -12.2385 C   0  0  0  0  0  0  0  0  0  0  0  0
   12.9450  -23.0591  -11.8541 O   0  0  0  0  0  0  0  0  0  0  0  0
   14.9166  -21.9435  -12.7522 C   0  0  0  0  0  0  0  0  0  0  0  0
   16.3113  -22.3365  -13.0907 C   0  0  2  0  0  0  0  0  0  0  0  0
   17.2369  -21.9694  -12.0134 N   0  0  0  0  0  0  0  0  0  0  0  0
   16.7746  -21.5413  -14.2661 C   0  0  0  0  0  0  0  0  0  0  0  0
   16.8106  -20.1761  -14.2071 O   0  0  0  0  0  0  0  0  0  0  0  0
   17.1268  -22.1399  -15.3004 O   0  0  0  0  0  0  0  0  0  0  0  0
  2  1  1  1
  2  3  1  0
  4  3  1  0
  5 12  1  0
  5  2  1  0
  6  5  2  0
  8  7  1  0
  8 10  1  0
  9  8  2  0
 11 13  1  0
 11 10  1  6
 11 12  1  0
 13 20  1  0
 14 13  2  0
 16 17  2  0
 16 15  1  0
 18 16  1  0
 19 18  1  1
 20 19  1  0
 21 22  1  0
 21 19  1  0
 23 21  2  0
M  END
$$$$
