CNN.pdb
     RDKit          3D

 23 22  0  0  1  0  0  0  0  0999 V2000
   22.5727  -23.2734  -15.0965 N   0  0  0  0  0  0  0  0  0  0  0  0
   23.6352  -22.3021  -14.9501 C   0  0  1  0  0  0  0  0  0  0  0  0
   24.8433  -22.8298  -15.6569 C   0  0  0  0  0  0  0  0  0  0  0  0
   25.5994  -24.1505  -14.6629 S   0  0  0  0  0  0  0  0  0  0  0  0
   23.1568  -21.0115  -15.4597 C   0  0  0  0  0  0  0  0  0  0  0  0
   23.2174  -20.7805  -16.6907 O   0  0  0  0  0  0  0  0  0  0  0  0
   19.7164  -19.7416  -14.4136 N   0  0  0  0  0  0  0  0  0  0  0  0
   20.1029  -18.5418  -13.7753 C   0  0  0  0  0  0  0  0  0  0  0  0
   19.3644  -18.0436  -12.9121 O   0  0  0  0  0  0  0  0  0  0  0  0
   21.3719  -17.9043  -14.1436 C   0  0  0  0  0  0  0  0  0  0  0  0
   22.2125  -18.7238  -15.1044 C   0  0  2  0  0  0  0  0  0  0  0  0
   22.6215  -19.9959  -14.6249 N   0  0  0  0  0  0  0  0  0  0  0  0
   23.3414  -17.9227  -15.6547 C   0  0  0  0  0  0  0  0  0  0  0  0
   24.4900  -17.9459  -15.0899 O   0  0  0  0  0  0  0  0  0  0  0  0
   27.8825  -17.9215  -17.1863 N   0  0  0  0  0  0  0  0  0  0  0  0
   26.7940  -17.1164  -17.6843 C   0  0  0  0  0  0  0  0  0  0  0  0
   27.1592  -15.9700  -18.0744 O   0  0  0  0  0  0  0  0  0  0  0  0
   25.4149  -17.6324  -17.7109 C   0  0  0  0  0  0  0  0  0  0  0  0
   24.4318  -16.5567  -17.4101 C   0  0  2  0  0  0  0  0  0  0  0  0
   23.2165  -17.1102  -16.8027 N   0  0  0  0  0  0  0  0  0  0  0  0
   23.9634  -15.9469  -18.6896 C   0  0  0  0  0  0  0  0  0  0  0  0
   24.6317  -14.8872  -19.2364 O   0  0  0  0  0  0  0  0  0  0  0  0
   22.9552  -16.4172  -19.2503 O   0  0  0  0  0  0  0  0  0  0  0  0
  2  1  1  6
  2  3  1  0
  4  3  1  0
  5 12  1  0
  5  2  1  0
  6  5  2  0
  8  7  1  0
  8 10  1  0
  9  8  2  0
 11 13  1  0
 11 10  1  1
 11 12  1  0
 13 20  1  0
 14 13  2  0
 16 17  2  0
 16 15  1  0
 18 16  1  0
 19 18  1  6
 20 19  1  0
 21 22  1  0
 21 19  1  0
 23 21  2  0
M  END
$$$$
