CNN.pdb
     RDKit          3D

 23 22  0  0  1  0  0  0  0  0999 V2000
   24.4786  -13.0908  -16.6973 N   0  0  0  0  0  0  0  0  0  0  0  0
   24.0245  -12.3355  -15.5497 C   0  0  1  0  0  0  0  0  0  0  0  0
   25.2303  -11.8795  -14.7909 C   0  0  0  0  0  0  0  0  0  0  0  0
   26.1444  -10.6592  -15.7805 S   0  0  0  0  0  0  0  0  0  0  0  0
   23.1647  -11.2445  -16.0236 C   0  0  0  0  0  0  0  0  0  0  0  0
   23.3258  -10.8004  -17.1851 O   0  0  0  0  0  0  0  0  0  0  0  0
   17.6874   -8.5846  -15.6415 N   0  0  0  0  0  0  0  0  0  0  0  0
   18.9541   -8.8855  -16.1902 C   0  0  0  0  0  0  0  0  0  0  0  0
   19.3297   -8.3000  -17.2172 O   0  0  0  0  0  0  0  0  0  0  0  0
   19.8052   -9.8857  -15.5362 C   0  0  0  0  0  0  0  0  0  0  0  0
   21.2908   -9.6223  -15.6935 C   0  0  2  0  0  0  0  0  0  0  0  0
   22.1463  -10.6558  -15.2291 N   0  0  0  0  0  0  0  0  0  0  0  0
   21.6622   -8.2813  -15.1616 C   0  0  0  0  0  0  0  0  0  0  0  0
   21.9199   -8.1248  -13.9175 O   0  0  0  0  0  0  0  0  0  0  0  0
   22.8025   -3.3579  -14.3925 N   0  0  0  0  0  0  0  0  0  0  0  0
   23.2386   -3.7077  -15.7224 C   0  0  0  0  0  0  0  0  0  0  0  0
   23.9108   -2.7948  -16.2832 O   0  0  0  0  0  0  0  0  0  0  0  0
   22.9034   -5.0134  -16.3153 C   0  0  0  0  0  0  0  0  0  0  0  0
   22.1381   -5.8583  -15.3588 C   0  0  2  0  0  0  0  0  0  0  0  0
   21.7502   -7.1313  -15.9761 N   0  0  0  0  0  0  0  0  0  0  0  0
   20.8423   -5.1895  -15.0399 C   0  0  0  0  0  0  0  0  0  0  0  0
   19.9240   -4.9549  -16.0250 O   0  0  0  0  0  0  0  0  0  0  0  0
   20.6109   -4.8482  -13.8643 O   0  0  0  0  0  0  0  0  0  0  0  0
  2  1  1  6
  2  3  1  0
  4  3  1  0
  5 12  1  0
  5  2  1  0
  6  5  2  0
  8  7  1  0
  8 10  1  0
  9  8  2  0
 11 13  1  0
 11 10  1  1
 11 12  1  0
 13 20  1  0
 14 13  2  0
 16 17  2  0
 16 15  1  0
 18 16  1  0
 19 18  1  6
 20 19  1  0
 21 22  1  0
 21 19  1  0
 23 21  2  0
M  END
$$$$
