CNN.pdb
     RDKit          3D

 23 22  0  0  1  0  0  0  0  0999 V2000
   14.4815  -14.7161  -12.7592 N   0  0  0  0  0  0  0  0  0  0  0  0
   13.9301  -13.4231  -12.4158 C   0  0  1  0  0  0  0  0  0  0  0  0
   13.0477  -13.6003  -11.2210 C   0  0  0  0  0  0  0  0  0  0  0  0
   11.8181  -14.8950  -11.5612 S   0  0  0  0  0  0  0  0  0  0  0  0
   15.0405  -12.4858  -12.2091 C   0  0  0  0  0  0  0  0  0  0  0  0
   16.1978  -12.8247  -12.5529 O   0  0  0  0  0  0  0  0  0  0  0  0
   18.0611   -8.2154  -13.8325 N   0  0  0  0  0  0  0  0  0  0  0  0
   17.7911   -9.0621  -12.7341 C   0  0  0  0  0  0  0  0  0  0  0  0
   18.4577   -8.9455  -11.6945 O   0  0  0  0  0  0  0  0  0  0  0  0
   16.7263  -10.0656  -12.8406 C   0  0  0  0  0  0  0  0  0  0  0  0
   15.9111  -10.2302  -11.5719 C   0  0  2  0  0  0  0  0  0  0  0  0
   14.8750  -11.1988  -11.6336 N   0  0  0  0  0  0  0  0  0  0  0  0
   15.4423   -8.9140  -11.0551 C   0  0  0  0  0  0  0  0  0  0  0  0
   14.6046   -8.2147  -11.7242 O   0  0  0  0  0  0  0  0  0  0  0  0
   14.2256   -4.8695   -8.1424 N   0  0  0  0  0  0  0  0  0  0  0  0
   14.2008   -6.0946   -7.3810 C   0  0  0  0  0  0  0  0  0  0  0  0
   13.6449   -5.9691   -6.2518 O   0  0  0  0  0  0  0  0  0  0  0  0
   14.7811   -7.3371   -7.9179 C   0  0  0  0  0  0  0  0  0  0  0  0
   15.2366   -7.1552   -9.3228 C   0  0  2  0  0  0  0  0  0  0  0  0
   15.8821   -8.3720   -9.8277 N   0  0  0  0  0  0  0  0  0  0  0  0
   16.3120   -6.1206   -9.3610 C   0  0  0  0  0  0  0  0  0  0  0  0
   15.9928   -4.7924   -9.4107 O   0  0  0  0  0  0  0  0  0  0  0  0
   17.5031   -6.4855   -9.3476 O   0  0  0  0  0  0  0  0  0  0  0  0
  2  1  1  1
  2  3  1  0
  4  3  1  0
  5 12  1  0
  5  2  1  0
  6  5  2  0
  8  7  1  0
  8 10  1  0
  9  8  2  0
 11 13  1  0
 11 10  1  6
 11 12  1  0
 13 20  1  0
 14 13  2  0
 16 17  2  0
 16 15  1  0
 18 16  1  0
 19 18  1  1
 20 19  1  0
 21 22  1  0
 21 19  1  0
 23 21  2  0
M  END
$$$$
