CNN.pdb
     RDKit          3D

 23 22  0  0  1  0  0  0  0  0999 V2000
   29.8785  -22.7446  -16.7359 N   0  0  0  0  0  0  0  0  0  0  0  0
   28.4738  -22.6914  -17.0786 C   0  0  1  0  0  0  0  0  0  0  0  0
   27.8624  -24.0101  -16.7254 C   0  0  0  0  0  0  0  0  0  0  0  0
   28.6140  -25.3185  -17.7390 S   0  0  0  0  0  0  0  0  0  0  0  0
   27.8712  -21.5454  -16.3875 C   0  0  0  0  0  0  0  0  0  0  0  0
   27.8760  -21.5166  -15.1340 O   0  0  0  0  0  0  0  0  0  0  0  0
   27.2455  -16.2950  -14.9864 N   0  0  0  0  0  0  0  0  0  0  0  0
   26.6833  -16.8313  -16.1665 C   0  0  0  0  0  0  0  0  0  0  0  0
   25.6563  -16.3218  -16.6402 O   0  0  0  0  0  0  0  0  0  0  0  0
   27.3234  -17.9822  -16.8131 C   0  0  0  0  0  0  0  0  0  0  0  0
   26.7330  -19.3191  -16.4067 C   0  0  2  0  0  0  0  0  0  0  0  0
   27.2750  -20.4520  -17.0688 N   0  0  0  0  0  0  0  0  0  0  0  0
   25.2441  -19.2864  -16.4413 C   0  0  0  0  0  0  0  0  0  0  0  0
   24.6112  -19.6371  -17.4973 O   0  0  0  0  0  0  0  0  0  0  0  0
   20.1935  -20.6694  -14.1459 N   0  0  0  0  0  0  0  0  0  0  0  0
   20.9347  -19.4341  -14.2202 C   0  0  0  0  0  0  0  0  0  0  0  0
   20.1954  -18.4153  -14.3442 O   0  0  0  0  0  0  0  0  0  0  0  0
   22.4058  -19.4231  -14.1529 C   0  0  0  0  0  0  0  0  0  0  0  0
   23.0002  -18.9715  -15.4402 C   0  0  2  0  0  0  0  0  0  0  0  0
   24.4608  -18.8772  -15.3401 N   0  0  0  0  0  0  0  0  0  0  0  0
   22.5560  -17.5749  -15.7236 C   0  0  0  0  0  0  0  0  0  0  0  0
   21.4127  -17.3437  -16.4364 O   0  0  0  0  0  0  0  0  0  0  0  0
   23.2424  -16.6245  -15.3021 O   0  0  0  0  0  0  0  0  0  0  0  0
  2  1  1  1
  2  3  1  0
  4  3  1  0
  5 12  1  0
  5  2  1  0
  6  5  2  0
  8  7  1  0
  8 10  1  0
  9  8  2  0
 11 13  1  0
 11 10  1  6
 11 12  1  0
 13 20  1  0
 14 13  2  0
 16 17  2  0
 16 15  1  0
 18 16  1  0
 19 18  1  1
 20 19  1  0
 21 22  1  0
 21 19  1  0
 23 21  2  0
M  END
$$$$
