CNN.pdb
     RDKit          3D

 23 22  0  0  1  0  0  0  0  0999 V2000
   27.4158  -21.7478  -10.9964 N   0  0  0  0  0  0  0  0  0  0  0  0
   26.0301  -21.3865  -10.7893 C   0  0  1  0  0  0  0  0  0  0  0  0
   25.9807  -20.3394   -9.7222 C   0  0  0  0  0  0  0  0  0  0  0  0
   25.7824  -21.1350   -8.0999 S   0  0  0  0  0  0  0  0  0  0  0  0
   25.4649  -20.9610  -12.0753 C   0  0  0  0  0  0  0  0  0  0  0  0
   26.1985  -20.3606  -12.8961 O   0  0  0  0  0  0  0  0  0  0  0  0
   25.0216  -23.9372  -14.6275 N   0  0  0  0  0  0  0  0  0  0  0  0
   24.8370  -22.5813  -14.9793 C   0  0  0  0  0  0  0  0  0  0  0  0
   25.7767  -21.9476  -15.4834 O   0  0  0  0  0  0  0  0  0  0  0  0
   23.5367  -21.9446  -14.7429 C   0  0  0  0  0  0  0  0  0  0  0  0
   23.5776  -20.8338  -13.7105 C   0  0  2  0  0  0  0  0  0  0  0  0
   24.1150  -21.1946  -12.4470 N   0  0  0  0  0  0  0  0  0  0  0  0
   22.2610  -20.1451  -13.6038 C   0  0  0  0  0  0  0  0  0  0  0  0
   21.4036  -20.5153  -12.7283 O   0  0  0  0  0  0  0  0  0  0  0  0
   18.2460  -16.9968  -13.8799 N   0  0  0  0  0  0  0  0  0  0  0  0
   19.3397  -16.3350  -14.5485 C   0  0  0  0  0  0  0  0  0  0  0  0
   19.0391  -15.1834  -14.9766 O   0  0  0  0  0  0  0  0  0  0  0  0
   20.6532  -16.9861  -14.6881 C   0  0  0  0  0  0  0  0  0  0  0  0
   20.6166  -18.3856  -14.1836 C   0  0  2  0  0  0  0  0  0  0  0  0
   21.8885  -19.0701  -14.4400 N   0  0  0  0  0  0  0  0  0  0  0  0
   19.6112  -19.1639  -14.9657 C   0  0  0  0  0  0  0  0  0  0  0  0
   18.3340  -19.3086  -14.5005 O   0  0  0  0  0  0  0  0  0  0  0  0
   19.9534  -19.6797  -16.0469 O   0  0  0  0  0  0  0  0  0  0  0  0
  2  1  1  6
  2  3  1  0
  4  3  1  0
  5 12  1  0
  5  2  1  0
  6  5  2  0
  8  7  1  0
  8 10  1  0
  9  8  2  0
 11 13  1  0
 11 10  1  6
 11 12  1  0
 13 20  1  0
 14 13  2  0
 16 17  2  0
 16 15  1  0
 18 16  1  0
 19 18  1  6
 20 19  1  0
 21 22  1  0
 21 19  1  0
 23 21  2  0
M  END
$$$$
