WSA.pdb
     RDKit          3D

 26 27  0  0  1  0  0  0  0  0999 V2000
    6.5591  -17.8455   24.1944 N   0  0  0  0  0  0  0  0  0  0  0  0
    7.3598  -16.6789   23.8144 C   0  0  1  0  0  0  0  0  0  0  0  0
    7.8912  -16.0958   25.0965 C   0  0  0  0  0  0  0  0  0  0  0  0
    7.0524  -15.0264   25.6549 C   0  0  0  0  0  0  0  0  0  0  0  0
    5.8078  -15.2011   26.2092 C   0  0  0  0  0  0  0  0  0  0  0  0
    5.3215  -13.9949   26.6288 N   0  0  0  0  0  0  0  0  0  0  0  0
    6.2375  -13.0382   26.3526 C   0  0  0  0  0  0  0  0  0  0  0  0
    6.2247  -11.6763   26.5749 C   0  0  0  0  0  0  0  0  0  0  0  0
    7.3017  -10.9062   26.1932 C   0  0  0  0  0  0  0  0  0  0  0  0
    8.3720  -11.5265   25.5938 C   0  0  0  0  0  0  0  0  0  0  0  0
    8.3885  -12.8930   25.3691 C   0  0  0  0  0  0  0  0  0  0  0  0
    7.3083  -13.6749   25.7505 C   0  0  0  0  0  0  0  0  0  0  0  0
    8.4275  -17.1865   22.9306 C   0  0  0  0  0  0  0  0  0  0  0  0
    8.8941  -18.3257   23.1777 O   0  0  0  0  0  0  0  0  0  0  0  0
   11.7608  -15.8090   19.6232 O   0  0  0  0  0  0  0  0  0  0  0  0
   10.5462  -15.5825   20.2570 C   0  0  0  0  0  0  0  0  0  0  0  0
   10.2824  -16.6891   21.2834 C   0  0  2  0  0  0  0  0  0  0  0  0
    8.9533  -16.4755   21.8323 N   0  0  0  0  0  0  0  0  0  0  0  0
   11.3067  -16.7653   22.3248 C   0  0  0  0  0  0  0  0  0  0  0  0
   11.3486  -15.8836   23.2423 O   0  0  0  0  0  0  0  0  0  0  0  0
   13.6167  -19.2545   23.8530 C   0  0  0  0  0  0  0  0  0  0  0  0
   13.2697  -17.8306   23.4863 C   0  0  2  0  0  0  0  0  0  0  0  0
   12.2983  -17.7741   22.4098 N   0  0  0  0  0  0  0  0  0  0  0  0
   14.5111  -17.1780   23.0297 C   0  0  0  0  0  0  0  0  0  0  0  0
   15.5515  -16.9382   23.9032 O   0  0  0  0  0  0  0  0  0  0  0  0
   14.6195  -16.8375   21.8317 O   0  0  0  0  0  0  0  0  0  0  0  0
  2  1  1  1
  2 13  1  0
  3  2  1  0
  3  4  1  0
  4 12  1  0
  5  4  2  0
  5  6  1  0
  6  7  1  0
  7  8  2  0
  8  9  1  0
 10  9  2  0
 11 10  1  0
 12 11  2  0
 12  7  1  0
 13 14  2  0
 16 15  1  0
 17 16  1  6
 17 19  1  0
 18 17  1  0
 18 13  1  0
 19 20  2  0
 19 23  1  0
 22 21  1  6
 23 22  1  0
 24 25  1  0
 24 22  1  0
 26 24  2  0
M  END
$$$$
