WSA.pdb
     RDKit          3D

 26 27  0  0  1  0  0  0  0  0999 V2000
    6.3344  -17.4021   23.5598 N   0  0  0  0  0  0  0  0  0  0  0  0
    6.8345  -16.1184   23.0614 C   0  0  1  0  0  0  0  0  0  0  0  0
    7.8275  -15.6278   24.0809 C   0  0  0  0  0  0  0  0  0  0  0  0
    7.2109  -14.9749   25.2440 C   0  0  0  0  0  0  0  0  0  0  0  0
    6.5669  -15.6231   26.2696 C   0  0  0  0  0  0  0  0  0  0  0  0
    6.1219  -14.7069   27.1806 N   0  0  0  0  0  0  0  0  0  0  0  0
    6.4702  -13.4700   26.7574 C   0  0  0  0  0  0  0  0  0  0  0  0
    6.2563  -12.2253   27.3135 C   0  0  0  0  0  0  0  0  0  0  0  0
    6.7194  -11.0963   26.6734 C   0  0  0  0  0  0  0  0  0  0  0  0
    7.3902  -11.2459   25.4828 C   0  0  0  0  0  0  0  0  0  0  0  0
    7.6067  -12.4934   24.9217 C   0  0  0  0  0  0  0  0  0  0  0  0
    7.1437  -13.6344   25.5600 C   0  0  0  0  0  0  0  0  0  0  0  0
    7.4519  -16.4012   21.7510 C   0  0  0  0  0  0  0  0  0  0  0  0
    7.9442  -17.5427   21.5746 O   0  0  0  0  0  0  0  0  0  0  0  0
    9.1538  -13.7487   18.6396 O   0  0  0  0  0  0  0  0  0  0  0  0
    7.9905  -14.4998   18.5348 C   0  0  0  0  0  0  0  0  0  0  0  0
    8.1102  -15.7637   19.3927 C   0  0  2  0  0  0  0  0  0  0  0  0
    7.5230  -15.4744   20.6908 N   0  0  0  0  0  0  0  0  0  0  0  0
    9.4826  -16.2577   19.5026 C   0  0  0  0  0  0  0  0  0  0  0  0
   10.3274  -15.6353   20.2236 O   0  0  0  0  0  0  0  0  0  0  0  0
   11.4669  -19.3503   18.6216 C   0  0  0  0  0  0  0  0  0  0  0  0
   11.3287  -17.9086   19.0514 C   0  0  2  0  0  0  0  0  0  0  0  0
    9.9786  -17.4154   18.8531 N   0  0  0  0  0  0  0  0  0  0  0  0
   12.2450  -17.1098   18.2159 C   0  0  0  0  0  0  0  0  0  0  0  0
   11.8151  -16.5353   17.0378 O   0  0  0  0  0  0  0  0  0  0  0  0
   13.4296  -16.9527   18.5835 O   0  0  0  0  0  0  0  0  0  0  0  0
  2  1  1  1
  2 13  1  0
  3  2  1  0
  3  4  1  0
  4 12  1  0
  5  4  2  0
  5  6  1  0
  6  7  1  0
  7  8  2  0
  8  9  1  0
 10  9  2  0
 11 10  1  0
 12 11  2  0
 12  7  1  0
 13 14  2  0
 16 15  1  0
 17 16  1  6
 17 19  1  0
 18 17  1  0
 18 13  1  0
 19 20  2  0
 19 23  1  0
 22 21  1  6
 23 22  1  0
 24 25  1  0
 24 22  1  0
 26 24  2  0
M  END
$$$$
