WSA.pdb
     RDKit          3D

 26 27  0  0  1  0  0  0  0  0999 V2000
    6.7184  -17.7402   24.4666 N   0  0  0  0  0  0  0  0  0  0  0  0
    7.4193  -16.6614   23.7657 C   0  0  1  0  0  0  0  0  0  0  0  0
    8.0243  -15.7882   24.8323 C   0  0  0  0  0  0  0  0  0  0  0  0
    7.0584  -14.8950   25.4869 C   0  0  0  0  0  0  0  0  0  0  0  0
    5.8857  -15.2926   26.0815 C   0  0  0  0  0  0  0  0  0  0  0  0
    5.2394  -14.2017   26.5909 N   0  0  0  0  0  0  0  0  0  0  0  0
    5.9801  -13.0992   26.3332 C   0  0  0  0  0  0  0  0  0  0  0  0
    5.7666  -11.7697   26.6352 C   0  0  0  0  0  0  0  0  0  0  0  0
    6.6900  -10.8203   26.2545 C   0  0  0  0  0  0  0  0  0  0  0  0
    7.8123  -11.2319   25.5757 C   0  0  0  0  0  0  0  0  0  0  0  0
    8.0299  -12.5653   25.2709 C   0  0  0  0  0  0  0  0  0  0  0  0
    7.1052  -13.5267   25.6507 C   0  0  0  0  0  0  0  0  0  0  0  0
    8.4347  -17.3167   22.9184 C   0  0  0  0  0  0  0  0  0  0  0  0
    8.9760  -18.3596   23.3611 O   0  0  0  0  0  0  0  0  0  0  0  0
   11.0121  -15.3411   19.7716 O   0  0  0  0  0  0  0  0  0  0  0  0
   10.1610  -16.4345   19.6796 C   0  0  0  0  0  0  0  0  0  0  0  0
   10.1068  -17.1644   21.0257 C   0  0  2  0  0  0  0  0  0  0  0  0
    8.8328  -16.8470   21.6499 N   0  0  0  0  0  0  0  0  0  0  0  0
   11.2422  -16.8556   21.8947 C   0  0  0  0  0  0  0  0  0  0  0  0
   11.1380  -15.9456   22.7790 O   0  0  0  0  0  0  0  0  0  0  0  0
   13.2127  -17.9690   24.1405 C   0  0  0  0  0  0  0  0  0  0  0  0
   13.5383  -17.2888   22.8315 C   0  0  2  0  0  0  0  0  0  0  0  0
   12.5006  -17.5049   21.8405 N   0  0  0  0  0  0  0  0  0  0  0  0
   14.7937  -17.8777   22.3289 C   0  0  0  0  0  0  0  0  0  0  0  0
   15.9773  -17.7271   23.0212 O   0  0  0  0  0  0  0  0  0  0  0  0
   14.7822  -18.5232   21.2583 O   0  0  0  0  0  0  0  0  0  0  0  0
  2  1  1  1
  2 13  1  0
  3  2  1  0
  3  4  1  0
  4 12  1  0
  5  4  2  0
  5  6  1  0
  6  7  1  0
  7  8  2  0
  8  9  1  0
 10  9  2  0
 11 10  1  0
 12 11  2  0
 12  7  1  0
 13 14  2  0
 16 15  1  0
 17 16  1  6
 17 19  1  0
 18 17  1  0
 18 13  1  0
 19 20  2  0
 19 23  1  0
 22 21  1  1
 23 22  1  0
 24 25  1  0
 24 22  1  0
 26 24  2  0
M  END
$$$$
