WSA.pdb
     RDKit          3D

 26 27  0  0  1  0  0  0  0  0999 V2000
   10.6532  -16.4480   22.9278 N   0  0  0  0  0  0  0  0  0  0  0  0
   10.0366  -15.6179   23.9657 C   0  0  1  0  0  0  0  0  0  0  0  0
    8.5721  -15.9664   23.9702 C   0  0  0  0  0  0  0  0  0  0  0  0
    7.6834  -14.7970   23.9256 C   0  0  0  0  0  0  0  0  0  0  0  0
    6.9967  -14.3634   22.8178 C   0  0  0  0  0  0  0  0  0  0  0  0
    6.2667  -13.2536   23.1387 N   0  0  0  0  0  0  0  0  0  0  0  0
    6.4721  -12.9617   24.4437 C   0  0  0  0  0  0  0  0  0  0  0  0
    5.9716  -11.9509   25.2388 C   0  0  0  0  0  0  0  0  0  0  0  0
    6.3422  -11.8694   26.5635 C   0  0  0  0  0  0  0  0  0  0  0  0
    7.2118  -12.8109   27.0605 C   0  0  0  0  0  0  0  0  0  0  0  0
    7.7162  -13.8267   26.2656 C   0  0  0  0  0  0  0  0  0  0  0  0
    7.3479  -13.9155   24.9314 C   0  0  0  0  0  0  0  0  0  0  0  0
   10.7133  -15.9727   25.2285 C   0  0  0  0  0  0  0  0  0  0  0  0
   11.3066  -17.0782   25.2793 O   0  0  0  0  0  0  0  0  0  0  0  0
    9.8268  -14.2735   28.8940 O   0  0  0  0  0  0  0  0  0  0  0  0
   11.1830  -14.3559   28.6069 C   0  0  0  0  0  0  0  0  0  0  0  0
   11.4333  -15.4879   27.6050 C   0  0  2  0  0  0  0  0  0  0  0  0
   10.7347  -15.1522   26.3750 N   0  0  0  0  0  0  0  0  0  0  0  0
   11.0537  -16.8046   28.1166 C   0  0  0  0  0  0  0  0  0  0  0  0
   11.6818  -17.3101   29.1019 O   0  0  0  0  0  0  0  0  0  0  0  0
    8.4808  -19.5152   27.4241 C   0  0  0  0  0  0  0  0  0  0  0  0
    9.5993  -18.8577   28.1980 C   0  0  2  0  0  0  0  0  0  0  0  0
   10.0057  -17.6025   27.5940 N   0  0  0  0  0  0  0  0  0  0  0  0
   10.7504  -19.7797   28.1782 C   0  0  0  0  0  0  0  0  0  0  0  0
   11.5948  -19.8401   27.0891 O   0  0  0  0  0  0  0  0  0  0  0  0
   10.9619  -20.5172   29.1653 O   0  0  0  0  0  0  0  0  0  0  0  0
  2  1  1  6
  2 13  1  0
  3  2  1  0
  3  4  1  0
  4 12  1  0
  5  4  2  0
  5  6  1  0
  6  7  1  0
  7  8  2  0
  8  9  1  0
 10  9  2  0
 11 10  1  0
 12 11  2  0
 12  7  1  0
 13 14  2  0
 16 15  1  0
 17 16  1  1
 17 19  1  0
 18 17  1  0
 18 13  1  0
 19 20  2  0
 19 23  1  0
 22 21  1  6
 23 22  1  0
 24 25  1  0
 24 22  1  0
 26 24  2  0
M  END
$$$$
