WSA.pdb
     RDKit          3D

 26 27  0  0  1  0  0  0  0  0999 V2000
    6.9380  -17.7787   24.0440 N   0  0  0  0  0  0  0  0  0  0  0  0
    7.7769  -16.6449   23.6472 C   0  0  1  0  0  0  0  0  0  0  0  0
    8.2997  -16.0399   24.9226 C   0  0  0  0  0  0  0  0  0  0  0  0
    7.3443  -15.1455   25.5907 C   0  0  0  0  0  0  0  0  0  0  0  0
    6.1647  -15.5376   26.1752 C   0  0  0  0  0  0  0  0  0  0  0  0
    5.5319  -14.4473   26.7025 N   0  0  0  0  0  0  0  0  0  0  0  0
    6.2883  -13.3506   26.4665 C   0  0  0  0  0  0  0  0  0  0  0  0
    6.0922  -12.0239   26.7918 C   0  0  0  0  0  0  0  0  0  0  0  0
    7.0294  -11.0805   26.4306 C   0  0  0  0  0  0  0  0  0  0  0  0
    8.1478  -11.4952   25.7473 C   0  0  0  0  0  0  0  0  0  0  0  0
    8.3481  -12.8258   25.4191 C   0  0  0  0  0  0  0  0  0  0  0  0
    7.4094  -13.7811   25.7792 C   0  0  0  0  0  0  0  0  0  0  0  0
    8.8468  -17.2054   22.7989 C   0  0  0  0  0  0  0  0  0  0  0  0
    9.2449  -18.3678   23.0576 O   0  0  0  0  0  0  0  0  0  0  0  0
   12.1697  -16.2825   19.3247 O   0  0  0  0  0  0  0  0  0  0  0  0
   10.9850  -15.9340   19.9599 C   0  0  0  0  0  0  0  0  0  0  0  0
   10.7042  -16.9110   21.1063 C   0  0  2  0  0  0  0  0  0  0  0  0
    9.4465  -16.5205   21.7222 N   0  0  0  0  0  0  0  0  0  0  0  0
   11.7958  -16.9898   22.0767 C   0  0  0  0  0  0  0  0  0  0  0  0
   11.9499  -16.0650   22.9380 O   0  0  0  0  0  0  0  0  0  0  0  0
   14.3261  -19.4511   23.3802 C   0  0  0  0  0  0  0  0  0  0  0  0
   13.8423  -18.0497   23.0894 C   0  0  2  0  0  0  0  0  0  0  0  0
   12.7369  -18.0467   22.1494 N   0  0  0  0  0  0  0  0  0  0  0  0
   14.9684  -17.3106   22.4883 C   0  0  0  0  0  0  0  0  0  0  0  0
   16.0597  -16.9381   23.2453 O   0  0  0  0  0  0  0  0  0  0  0  0
   14.9305  -17.0181   21.2734 O   0  0  0  0  0  0  0  0  0  0  0  0
  2  1  1  1
  2 13  1  0
  3  2  1  0
  3  4  1  0
  4 12  1  0
  5  4  2  0
  5  6  1  0
  6  7  1  0
  7  8  2  0
  8  9  1  0
 10  9  2  0
 11 10  1  0
 12 11  2  0
 12  7  1  0
 13 14  2  0
 16 15  1  0
 17 16  1  6
 17 19  1  0
 18 17  1  0
 18 13  1  0
 19 20  2  0
 19 23  1  0
 22 21  1  6
 23 22  1  0
 24 25  1  0
 24 22  1  0
 26 24  2  0
M  END
$$$$
