WSA.pdb
     RDKit          3D

 26 27  0  0  1  0  0  0  0  0999 V2000
    7.2967  -17.4783   23.5620 N   0  0  0  0  0  0  0  0  0  0  0  0
    8.3258  -16.4426   23.4402 C   0  0  1  0  0  0  0  0  0  0  0  0
    8.6563  -16.0089   24.8433 C   0  0  0  0  0  0  0  0  0  0  0  0
    7.5874  -15.2386   25.4939 C   0  0  0  0  0  0  0  0  0  0  0  0
    6.4720  -15.7750   26.0897 C   0  0  0  0  0  0  0  0  0  0  0  0
    5.6960  -14.7698   26.5945 N   0  0  0  0  0  0  0  0  0  0  0  0
    6.2958  -13.5856   26.3326 C   0  0  0  0  0  0  0  0  0  0  0  0
    5.9203  -12.2913   26.6291 C   0  0  0  0  0  0  0  0  0  0  0  0
    6.7203  -11.2371   26.2450 C   0  0  0  0  0  0  0  0  0  0  0  0
    7.8852  -11.5103   25.5682 C   0  0  0  0  0  0  0  0  0  0  0  0
    8.2654  -12.8080   25.2689 C   0  0  0  0  0  0  0  0  0  0  0  0
    7.4655  -13.8743   25.6522 C   0  0  0  0  0  0  0  0  0  0  0  0
    9.4671  -17.0792   22.7541 C   0  0  0  0  0  0  0  0  0  0  0  0
    9.7682  -18.2506   23.0913 O   0  0  0  0  0  0  0  0  0  0  0  0
   11.6463  -14.9020   20.0979 O   0  0  0  0  0  0  0  0  0  0  0  0
   11.7535  -16.2699   19.8840 C   0  0  0  0  0  0  0  0  0  0  0  0
   11.4496  -17.0234   21.1831 C   0  0  2  0  0  0  0  0  0  0  0  0
   10.2361  -16.4572   21.7492 N   0  0  0  0  0  0  0  0  0  0  0  0
   12.5630  -17.0090   22.1316 C   0  0  0  0  0  0  0  0  0  0  0  0
   12.6795  -16.0511   22.9621 O   0  0  0  0  0  0  0  0  0  0  0  0
   15.3065  -19.3306   23.3238 C   0  0  0  0  0  0  0  0  0  0  0  0
   14.5967  -17.9999   23.2360 C   0  0  2  0  0  0  0  0  0  0  0  0
   13.5660  -18.0066   22.2146 N   0  0  0  0  0  0  0  0  0  0  0  0
   15.6048  -16.9855   22.8753 C   0  0  0  0  0  0  0  0  0  0  0  0
   16.4778  -16.4835   23.8180 O   0  0  0  0  0  0  0  0  0  0  0  0
   15.6670  -16.5758   21.6957 O   0  0  0  0  0  0  0  0  0  0  0  0
  2  1  1  1
  2 13  1  0
  3  2  1  0
  3  4  1  0
  4 12  1  0
  5  4  2  0
  5  6  1  0
  6  7  1  0
  7  8  2  0
  8  9  1  0
 10  9  2  0
 11 10  1  0
 12 11  2  0
 12  7  1  0
 13 14  2  0
 16 15  1  0
 17 16  1  6
 17 19  1  0
 18 17  1  0
 18 13  1  0
 19 20  2  0
 19 23  1  0
 22 21  1  6
 23 22  1  0
 24 25  1  0
 24 22  1  0
 26 24  2  0
M  END
$$$$
