WSA.pdb
     RDKit          3D

 26 27  0  0  1  0  0  0  0  0999 V2000
    8.2083  -18.3908   20.2467 N   0  0  0  0  0  0  0  0  0  0  0  0
    9.2063  -17.4963   20.8385 C   0  0  1  0  0  0  0  0  0  0  0  0
    8.4497  -16.5565   21.7388 C   0  0  0  0  0  0  0  0  0  0  0  0
    7.7476  -15.4835   21.0214 C   0  0  0  0  0  0  0  0  0  0  0  0
    6.3836  -15.3560   20.9208 C   0  0  0  0  0  0  0  0  0  0  0  0
    6.0820  -14.2433   20.1870 N   0  0  0  0  0  0  0  0  0  0  0  0
    7.2362  -13.6466   19.8097 C   0  0  0  0  0  0  0  0  0  0  0  0
    7.4698  -12.5085   19.0652 C   0  0  0  0  0  0  0  0  0  0  0  0
    8.7628  -12.1030   18.8145 C   0  0  0  0  0  0  0  0  0  0  0  0
    9.7959  -12.8553   19.3210 C   0  0  0  0  0  0  0  0  0  0  0  0
    9.5652  -13.9981   20.0686 C   0  0  0  0  0  0  0  0  0  0  0  0
    8.2668  -14.4125   20.3252 C   0  0  0  0  0  0  0  0  0  0  0  0
   10.1459  -18.3633   21.5760 C   0  0  0  0  0  0  0  0  0  0  0  0
    9.6632  -19.3221   22.2272 O   0  0  0  0  0  0  0  0  0  0  0  0
   14.7895  -19.2657   22.8242 O   0  0  0  0  0  0  0  0  0  0  0  0
   13.8821  -18.5254   22.0778 C   0  0  0  0  0  0  0  0  0  0  0  0
   12.4520  -18.9325   22.4475 C   0  0  2  0  0  0  0  0  0  0  0  0
   11.5442  -18.1826   21.5947 N   0  0  0  0  0  0  0  0  0  0  0  0
   12.1515  -18.7555   23.8681 C   0  0  0  0  0  0  0  0  0  0  0  0
   12.0262  -17.5842   24.3512 O   0  0  0  0  0  0  0  0  0  0  0  0
   10.5646  -20.4435   26.6962 C   0  0  0  0  0  0  0  0  0  0  0  0
   11.7070  -19.5873   26.2021 C   0  0  2  0  0  0  0  0  0  0  0  0
   11.9791  -19.8135   24.7949 N   0  0  0  0  0  0  0  0  0  0  0  0
   12.9056  -19.9624   26.9756 C   0  0  0  0  0  0  0  0  0  0  0  0
   12.9570  -19.7785   28.3417 O   0  0  0  0  0  0  0  0  0  0  0  0
   13.8891  -20.4546   26.3811 O   0  0  0  0  0  0  0  0  0  0  0  0
  2  1  1  1
  2 13  1  0
  3  2  1  0
  3  4  1  0
  4 12  1  0
  5  4  2  0
  5  6  1  0
  6  7  1  0
  7  8  2  0
  8  9  1  0
 10  9  2  0
 11 10  1  0
 12 11  2  0
 12  7  1  0
 13 14  2  0
 16 15  1  0
 17 16  1  1
 17 19  1  0
 18 17  1  0
 18 13  1  0
 19 20  2  0
 19 23  1  0
 22 21  1  1
 23 22  1  0
 24 25  1  0
 24 22  1  0
 26 24  2  0
M  END
$$$$
