WSA.pdb
     RDKit          3D

 26 27  0  0  1  0  0  0  0  0999 V2000
    6.6585  -17.7878   24.3486 N   0  0  0  0  0  0  0  0  0  0  0  0
    7.2132  -16.6095   23.6775 C   0  0  1  0  0  0  0  0  0  0  0  0
    7.9801  -15.8486   24.7259 C   0  0  0  0  0  0  0  0  0  0  0  0
    7.1428  -14.9675   25.5515 C   0  0  0  0  0  0  0  0  0  0  0  0
    6.0970  -15.3778   26.3419 C   0  0  0  0  0  0  0  0  0  0  0  0
    5.5473  -14.2956   26.9696 N   0  0  0  0  0  0  0  0  0  0  0  0
    6.2252  -13.1863   26.5951 C   0  0  0  0  0  0  0  0  0  0  0  0
    6.0633  -11.8610   26.9439 C   0  0  0  0  0  0  0  0  0  0  0  0
    6.8996  -10.9024   26.4142 C   0  0  0  0  0  0  0  0  0  0  0  0
    7.8844  -11.3008   25.5416 C   0  0  0  0  0  0  0  0  0  0  0  0
    8.0499  -12.6300   25.1893 C   0  0  0  0  0  0  0  0  0  0  0  0
    7.2121  -13.6005   25.7182 C   0  0  0  0  0  0  0  0  0  0  0  0
    8.0769  -17.1235   22.5967 C   0  0  0  0  0  0  0  0  0  0  0  0
    8.6481  -18.2259   22.7837 O   0  0  0  0  0  0  0  0  0  0  0  0
    8.1271  -16.4247   18.3840 O   0  0  0  0  0  0  0  0  0  0  0  0
    9.1577  -15.9423   19.1799 C   0  0  0  0  0  0  0  0  0  0  0  0
    9.3225  -16.8363   20.4133 C   0  0  2  0  0  0  0  0  0  0  0  0
    8.2995  -16.4572   21.3742 N   0  0  0  0  0  0  0  0  0  0  0  0
   10.6674  -16.7854   20.9862 C   0  0  0  0  0  0  0  0  0  0  0  0
   11.0082  -15.8059   21.7248 O   0  0  0  0  0  0  0  0  0  0  0  0
   13.1730  -18.6033   22.5333 C   0  0  0  0  0  0  0  0  0  0  0  0
   12.9958  -17.6654   21.3623 C   0  0  2  0  0  0  0  0  0  0  0  0
   11.6679  -17.7689   20.7866 N   0  0  0  0  0  0  0  0  0  0  0  0
   13.9815  -18.0516   20.3352 C   0  0  0  0  0  0  0  0  0  0  0  0
   15.3324  -17.8607   20.5383 O   0  0  0  0  0  0  0  0  0  0  0  0
   13.5835  -18.5596   19.2644 O   0  0  0  0  0  0  0  0  0  0  0  0
  2  1  1  1
  2 13  1  0
  3  2  1  0
  3  4  1  0
  4 12  1  0
  5  4  2  0
  5  6  1  0
  6  7  1  0
  7  8  2  0
  8  9  1  0
 10  9  2  0
 11 10  1  0
 12 11  2  0
 12  7  1  0
 13 14  2  0
 16 15  1  0
 17 16  1  6
 17 19  1  0
 18 17  1  0
 18 13  1  0
 19 20  2  0
 19 23  1  0
 22 21  1  1
 23 22  1  0
 24 25  1  0
 24 22  1  0
 26 24  2  0
M  END
$$$$
