WSA.pdb
     RDKit          3D

 26 27  0  0  1  0  0  0  0  0999 V2000
    7.1947  -17.7272   23.9941 N   0  0  0  0  0  0  0  0  0  0  0  0
    8.0715  -16.6187   23.6083 C   0  0  1  0  0  0  0  0  0  0  0  0
    8.4546  -15.9195   24.8853 C   0  0  0  0  0  0  0  0  0  0  0  0
    7.3729  -15.1142   25.4688 C   0  0  0  0  0  0  0  0  0  0  0  0
    6.1746  -15.6062   25.9259 C   0  0  0  0  0  0  0  0  0  0  0  0
    5.4120  -14.5783   26.4048 N   0  0  0  0  0  0  0  0  0  0  0  0
    6.1026  -13.4235   26.2634 C   0  0  0  0  0  0  0  0  0  0  0  0
    5.7752  -12.1230   26.5887 C   0  0  0  0  0  0  0  0  0  0  0  0
    6.6691  -11.1046   26.3384 C   0  0  0  0  0  0  0  0  0  0  0  0
    7.8777  -11.4193   25.7637 C   0  0  0  0  0  0  0  0  0  0  0  0
    8.2098  -12.7232   25.4358 C   0  0  0  0  0  0  0  0  0  0  0  0
    7.3153  -13.7536   25.6848 C   0  0  0  0  0  0  0  0  0  0  0  0
    9.2261  -17.2307   22.9222 C   0  0  0  0  0  0  0  0  0  0  0  0
    9.6473  -18.3294   23.3605 O   0  0  0  0  0  0  0  0  0  0  0  0
   11.7202  -15.1135   20.1830 O   0  0  0  0  0  0  0  0  0  0  0  0
   11.3713  -16.4333   19.9282 C   0  0  0  0  0  0  0  0  0  0  0  0
   11.1233  -17.1686   21.2493 C   0  0  2  0  0  0  0  0  0  0  0  0
    9.8821  -16.6615   21.8114 N   0  0  0  0  0  0  0  0  0  0  0  0
   12.2410  -17.0618   22.1869 C   0  0  0  0  0  0  0  0  0  0  0  0
   12.3212  -16.0615   22.9705 O   0  0  0  0  0  0  0  0  0  0  0  0
   15.0220  -19.2320   23.5367 C   0  0  0  0  0  0  0  0  0  0  0  0
   14.3234  -17.9103   23.3184 C   0  0  2  0  0  0  0  0  0  0  0  0
   13.2865  -18.0105   22.3084 N   0  0  0  0  0  0  0  0  0  0  0  0
   15.3384  -16.9472   22.8517 C   0  0  0  0  0  0  0  0  0  0  0  0
   16.3022  -16.4580   23.7088 O   0  0  0  0  0  0  0  0  0  0  0  0
   15.3226  -16.5697   21.6599 O   0  0  0  0  0  0  0  0  0  0  0  0
  2  1  1  1
  2 13  1  0
  3  2  1  0
  3  4  1  0
  4 12  1  0
  5  4  2  0
  5  6  1  0
  6  7  1  0
  7  8  2  0
  8  9  1  0
 10  9  2  0
 11 10  1  0
 12 11  2  0
 12  7  1  0
 13 14  2  0
 16 15  1  0
 17 16  1  6
 17 19  1  0
 18 17  1  0
 18 13  1  0
 19 20  2  0
 19 23  1  0
 22 21  1  6
 23 22  1  0
 24 25  1  0
 24 22  1  0
 26 24  2  0
M  END
$$$$
