WSA.pdb
     RDKit          3D

 26 27  0  0  1  0  0  0  0  0999 V2000
    6.9727  -17.6228   23.9792 N   0  0  0  0  0  0  0  0  0  0  0  0
    7.8916  -16.5449   23.6048 C   0  0  1  0  0  0  0  0  0  0  0  0
    8.4044  -15.9607   24.8939 C   0  0  0  0  0  0  0  0  0  0  0  0
    7.4195  -15.1331   25.6040 C   0  0  0  0  0  0  0  0  0  0  0  0
    6.3233  -15.6090   26.2813 C   0  0  0  0  0  0  0  0  0  0  0  0
    5.6314  -14.5623   26.8228 N   0  0  0  0  0  0  0  0  0  0  0  0
    6.2669  -13.4111   26.5041 C   0  0  0  0  0  0  0  0  0  0  0  0
    5.9735  -12.0971   26.8067 C   0  0  0  0  0  0  0  0  0  0  0  0
    6.7941  -11.0866   26.3545 C   0  0  0  0  0  0  0  0  0  0  0  0
    7.8962  -11.4227   25.6047 C   0  0  0  0  0  0  0  0  0  0  0  0
    8.1938  -12.7403   25.2990 C   0  0  0  0  0  0  0  0  0  0  0  0
    7.3728  -13.7629   25.7506 C   0  0  0  0  0  0  0  0  0  0  0  0
    8.9551  -17.1759   22.7992 C   0  0  0  0  0  0  0  0  0  0  0  0
    9.2979  -18.3451   23.1026 O   0  0  0  0  0  0  0  0  0  0  0  0
   11.2669  -14.9939   20.0370 O   0  0  0  0  0  0  0  0  0  0  0  0
   10.9531  -16.3113   19.7297 C   0  0  0  0  0  0  0  0  0  0  0  0
   10.7537  -17.1118   21.0208 C   0  0  2  0  0  0  0  0  0  0  0  0
    9.6068  -16.5508   21.7163 N   0  0  0  0  0  0  0  0  0  0  0  0
   11.9482  -17.1520   21.8642 C   0  0  0  0  0  0  0  0  0  0  0  0
   12.1797  -16.2072   22.6856 O   0  0  0  0  0  0  0  0  0  0  0  0
   14.8642  -19.4687   22.6039 C   0  0  0  0  0  0  0  0  0  0  0  0
   14.1080  -18.1626   22.6711 C   0  0  2  0  0  0  0  0  0  0  0  0
   12.9116  -18.1911   21.8505 N   0  0  0  0  0  0  0  0  0  0  0  0
   15.0022  -17.1085   22.1564 C   0  0  0  0  0  0  0  0  0  0  0  0
   16.0578  -16.6402   22.9109 O   0  0  0  0  0  0  0  0  0  0  0  0
   14.7980  -16.6337   21.0181 O   0  0  0  0  0  0  0  0  0  0  0  0
  2  1  1  1
  2 13  1  0
  3  2  1  0
  3  4  1  0
  4 12  1  0
  5  4  2  0
  5  6  1  0
  6  7  1  0
  7  8  2  0
  8  9  1  0
 10  9  2  0
 11 10  1  0
 12 11  2  0
 12  7  1  0
 13 14  2  0
 16 15  1  0
 17 16  1  6
 17 19  1  0
 18 17  1  0
 18 13  1  0
 19 20  2  0
 19 23  1  0
 22 21  1  6
 23 22  1  0
 24 25  1  0
 24 22  1  0
 26 24  2  0
M  END
$$$$
