WSA.pdb
     RDKit          3D

 26 27  0  0  1  0  0  0  0  0999 V2000
    7.3315  -17.3169   23.3098 N   0  0  0  0  0  0  0  0  0  0  0  0
    8.4232  -16.3491   23.4436 C   0  0  1  0  0  0  0  0  0  0  0  0
    8.5819  -16.0930   24.9185 C   0  0  0  0  0  0  0  0  0  0  0  0
    7.4586  -15.3595   25.5180 C   0  0  0  0  0  0  0  0  0  0  0  0
    6.3421  -15.9340   26.0751 C   0  0  0  0  0  0  0  0  0  0  0  0
    5.5080  -14.9555   26.5379 N   0  0  0  0  0  0  0  0  0  0  0  0
    6.0710  -13.7511   26.2871 C   0  0  0  0  0  0  0  0  0  0  0  0
    5.6337  -12.4699   26.5545 C   0  0  0  0  0  0  0  0  0  0  0  0
    6.4065  -11.3885   26.1909 C   0  0  0  0  0  0  0  0  0  0  0  0
    7.6073  -11.6219   25.5636 C   0  0  0  0  0  0  0  0  0  0  0  0
    8.0495  -12.9063   25.2936 C   0  0  0  0  0  0  0  0  0  0  0  0
    7.2773  -13.9997   25.6565 C   0  0  0  0  0  0  0  0  0  0  0  0
    9.6107  -16.9868   22.8423 C   0  0  0  0  0  0  0  0  0  0  0  0
    9.8606  -18.1735   23.1677 O   0  0  0  0  0  0  0  0  0  0  0  0
   12.2247  -14.8192   20.4274 O   0  0  0  0  0  0  0  0  0  0  0  0
   12.1333  -16.1835   20.1851 C   0  0  0  0  0  0  0  0  0  0  0  0
   11.7366  -16.9136   21.4724 C   0  0  2  0  0  0  0  0  0  0  0  0
   10.4772  -16.3499   21.9303 N   0  0  0  0  0  0  0  0  0  0  0  0
   12.7726  -16.8668   22.5040 C   0  0  0  0  0  0  0  0  0  0  0  0
   12.8302  -15.8781   23.3041 O   0  0  0  0  0  0  0  0  0  0  0  0
   15.5419  -19.0235   23.9243 C   0  0  0  0  0  0  0  0  0  0  0  0
   14.8539  -17.7083   23.6430 C   0  0  2  0  0  0  0  0  0  0  0  0
   13.7593  -17.8642   22.7032 N   0  0  0  0  0  0  0  0  0  0  0  0
   15.8561  -16.8052   23.0468 C   0  0  0  0  0  0  0  0  0  0  0  0
   16.8885  -16.2900   23.8027 O   0  0  0  0  0  0  0  0  0  0  0  0
   15.7662  -16.5034   21.8369 O   0  0  0  0  0  0  0  0  0  0  0  0
  2  1  1  1
  2 13  1  0
  3  2  1  0
  3  4  1  0
  4 12  1  0
  5  4  2  0
  5  6  1  0
  6  7  1  0
  7  8  2  0
  8  9  1  0
 10  9  2  0
 11 10  1  0
 12 11  2  0
 12  7  1  0
 13 14  2  0
 16 15  1  0
 17 16  1  6
 17 19  1  0
 18 17  1  0
 18 13  1  0
 19 20  2  0
 19 23  1  0
 22 21  1  6
 23 22  1  0
 24 25  1  0
 24 22  1  0
 26 24  2  0
M  END
$$$$
