WSA.pdb
     RDKit          3D

 26 27  0  0  1  0  0  0  0  0999 V2000
    6.4671  -17.7543   24.2602 N   0  0  0  0  0  0  0  0  0  0  0  0
    7.4995  -16.8158   23.8131 C   0  0  1  0  0  0  0  0  0  0  0  0
    8.0561  -16.1765   25.0572 C   0  0  0  0  0  0  0  0  0  0  0  0
    7.2323  -15.0774   25.5793 C   0  0  0  0  0  0  0  0  0  0  0  0
    6.1052  -15.2268   26.3501 C   0  0  0  0  0  0  0  0  0  0  0  0
    5.5968  -13.9965   26.6586 N   0  0  0  0  0  0  0  0  0  0  0  0
    6.3820  -13.0492   26.0960 C   0  0  0  0  0  0  0  0  0  0  0  0
    6.2975  -11.6719   26.1113 C   0  0  0  0  0  0  0  0  0  0  0  0
    7.2397  -10.9168   25.4473 C   0  0  0  0  0  0  0  0  0  0  0  0
    8.2502  -11.5675   24.7800 C   0  0  0  0  0  0  0  0  0  0  0  0
    8.3383  -12.9496   24.7625 C   0  0  0  0  0  0  0  0  0  0  0  0
    7.3938  -13.7164   25.4285 C   0  0  0  0  0  0  0  0  0  0  0  0
    8.4997  -17.6236   23.0881 C   0  0  0  0  0  0  0  0  0  0  0  0
    8.7975  -18.7459   23.5660 O   0  0  0  0  0  0  0  0  0  0  0  0
   10.8877  -16.0004   20.0377 O   0  0  0  0  0  0  0  0  0  0  0  0
   10.4693  -17.3163   19.8904 C   0  0  0  0  0  0  0  0  0  0  0  0
   10.2287  -17.9414   21.2685 C   0  0  2  0  0  0  0  0  0  0  0  0
    9.1381  -17.2156   21.8990 N   0  0  0  0  0  0  0  0  0  0  0  0
   11.4290  -17.9742   22.1039 C   0  0  0  0  0  0  0  0  0  0  0  0
   11.7073  -16.9865   22.8575 O   0  0  0  0  0  0  0  0  0  0  0  0
   14.0655  -20.4512   23.2049 C   0  0  0  0  0  0  0  0  0  0  0  0
   13.4976  -19.0610   23.0403 C   0  0  2  0  0  0  0  0  0  0  0  0
   12.3489  -19.0509   22.1537 N   0  0  0  0  0  0  0  0  0  0  0  0
   14.5539  -18.2209   22.4453 C   0  0  0  0  0  0  0  0  0  0  0  0
   15.5355  -17.6509   23.2292 O   0  0  0  0  0  0  0  0  0  0  0  0
   14.5574  -18.0238   21.2108 O   0  0  0  0  0  0  0  0  0  0  0  0
  2  1  1  1
  2 13  1  0
  3  2  1  0
  3  4  1  0
  4 12  1  0
  5  4  2  0
  5  6  1  0
  6  7  1  0
  7  8  2  0
  8  9  1  0
 10  9  2  0
 11 10  1  0
 12 11  2  0
 12  7  1  0
 13 14  2  0
 16 15  1  0
 17 16  1  6
 17 19  1  0
 18 17  1  0
 18 13  1  0
 19 20  2  0
 19 23  1  0
 22 21  1  6
 23 22  1  0
 24 25  1  0
 24 22  1  0
 26 24  2  0
M  END
$$$$
