IKR.pdb
     RDKit          3D

 29 28  0  0  1  0  0  0  0  0999 V2000
   10.0371  -18.7631   17.1719 C   0  0  0  0  0  0  0  0  0  0  0  0
    9.0416  -17.7898   17.7484 C   0  0  0  0  0  0  0  0  0  0  0  0
    8.8834  -17.9311   19.2279 C   0  0  2  0  0  0  0  0  0  0  0  0
   10.2691  -18.1273   19.8290 C   0  0  0  0  0  0  0  0  0  0  0  0
    8.0332  -19.0629   19.6764 C   0  0  2  0  0  0  0  0  0  0  0  0
    6.8511  -19.1959   18.8579 N   0  0  0  0  0  0  0  0  0  0  0  0
    7.6120  -18.9767   21.0971 C   0  0  0  0  0  0  0  0  0  0  0  0
    8.1235  -18.1715   21.9190 O   0  0  0  0  0  0  0  0  0  0  0  0
    6.5903  -19.8254   21.5830 N   0  0  0  0  0  0  0  0  0  0  0  0
    6.1241  -19.8231   22.9684 C   0  0  1  0  0  0  0  0  0  0  0  0
    4.8147  -20.5027   23.1012 C   0  0  0  0  0  0  0  0  0  0  0  0
    3.7058  -20.0418   22.2438 C   0  0  0  0  0  0  0  0  0  0  0  0
    2.4097  -20.7545   22.3290 C   0  0  0  0  0  0  0  0  0  0  0  0
    1.4709  -20.1808   21.2862 C   0  0  0  0  0  0  0  0  0  0  0  0
    0.2275  -20.9606   21.3498 N   0  0  0  0  0  0  0  0  0  0  0  0
    7.1714  -20.1690   23.9175 C   0  0  0  0  0  0  0  0  0  0  0  0
    7.9511  -21.1160   23.6285 O   0  0  0  0  0  0  0  0  0  0  0  0
   11.8790  -15.8132   22.2481 N   0  0  0  0  0  0  0  0  0  0  0  0
   12.6523  -16.3408   23.2974 C   0  0  0  0  0  0  0  0  0  0  0  0
   13.9263  -16.0981   23.3694 N   0  0  0  0  0  0  0  0  0  0  0  0
   12.0712  -17.1538   24.3119 N   0  0  0  0  0  0  0  0  0  0  0  0
   11.3762  -18.3903   23.9987 C   0  0  0  0  0  0  0  0  0  0  0  0
   10.0334  -18.4366   24.7556 C   0  0  0  0  0  0  0  0  0  0  0  0
    9.7719  -19.8205   25.2217 C   0  0  0  0  0  0  0  0  0  0  0  0
    8.4839  -19.9701   26.0509 C   0  0  2  0  0  0  0  0  0  0  0  0
    7.3971  -19.5173   25.1515 N   0  0  0  0  0  0  0  0  0  0  0  0
    8.6329  -19.0951   27.2260 C   0  0  0  0  0  0  0  0  0  0  0  0
    9.4685  -19.4621   28.2708 O   0  0  0  0  0  0  0  0  0  0  0  0
    8.0394  -18.0007   27.3646 O   0  0  0  0  0  0  0  0  0  0  0  0
  2  1  1  0
  3  5  1  0
  3  2  1  0
  3  4  1  1
  5  7  1  0
  5  6  1  6
  7  8  2  0
  9 10  1  0
  9  7  1  0
 11 12  1  0
 10 11  1  6
 12 13  1  0
 13 14  1  0
 14 15  1  0
 16 10  1  0
 16 17  2  0
 18 19  1  0
 19 21  1  0
 20 19  2  0
 21 22  1  0
 22 23  1  0
 23 24  1  0
 25 24  1  6
 25 26  1  0
 25 27  1  0
 26 16  1  0
 27 29  2  0
 27 28  1  0
M  END
$$$$
