IKR.pdb
     RDKit          3D

 29 28  0  0  1  0  0  0  0  0999 V2000
    8.7490  -11.4100   19.6313 C   0  0  0  0  0  0  0  0  0  0  0  0
    7.8421  -12.5642   19.9721 C   0  0  0  0  0  0  0  0  0  0  0  0
    8.5783  -13.8572   20.1133 C   0  0  2  0  0  0  0  0  0  0  0  0
    9.3053  -14.1262   18.8021 C   0  0  0  0  0  0  0  0  0  0  0  0
    7.7376  -15.0438   20.4141 C   0  0  2  0  0  0  0  0  0  0  0  0
    6.8770  -14.8105   21.5499 N   0  0  0  0  0  0  0  0  0  0  0  0
    8.5114  -16.2863   20.6602 C   0  0  0  0  0  0  0  0  0  0  0  0
    9.2551  -16.4467   21.6635 O   0  0  0  0  0  0  0  0  0  0  0  0
    8.4322  -17.3602   19.7433 N   0  0  0  0  0  0  0  0  0  0  0  0
    9.2353  -18.5772   19.8478 C   0  0  1  0  0  0  0  0  0  0  0  0
    8.7263  -19.6414   18.9521 C   0  0  0  0  0  0  0  0  0  0  0  0
    9.4463  -20.9292   18.9288 C   0  0  0  0  0  0  0  0  0  0  0  0
    8.9274  -22.0078   18.0555 C   0  0  0  0  0  0  0  0  0  0  0  0
    9.8179  -23.2252   18.2067 C   0  0  0  0  0  0  0  0  0  0  0  0
    9.1774  -24.3221   17.4687 N   0  0  0  0  0  0  0  0  0  0  0  0
   10.6660  -18.3118   19.8476 C   0  0  0  0  0  0  0  0  0  0  0  0
   11.2033  -17.9324   18.7726 O   0  0  0  0  0  0  0  0  0  0  0  0
   17.0049  -14.8564   19.0065 N   0  0  0  0  0  0  0  0  0  0  0  0
   15.9163  -14.3236   18.2933 C   0  0  0  0  0  0  0  0  0  0  0  0
   16.0742  -13.8615   17.0896 N   0  0  0  0  0  0  0  0  0  0  0  0
   14.6109  -14.2722   18.8601 N   0  0  0  0  0  0  0  0  0  0  0  0
   14.3715  -14.5710   20.2614 C   0  0  0  0  0  0  0  0  0  0  0  0
   14.4171  -16.0967   20.4816 C   0  0  0  0  0  0  0  0  0  0  0  0
   13.0353  -16.6264   20.5850 C   0  0  0  0  0  0  0  0  0  0  0  0
   12.9625  -18.1404   20.8526 C   0  0  2  0  0  0  0  0  0  0  0  0
   11.5157  -18.4373   20.9703 N   0  0  0  0  0  0  0  0  0  0  0  0
   13.6833  -18.3825   22.1137 C   0  0  0  0  0  0  0  0  0  0  0  0
   15.0704  -18.3778   22.1394 O   0  0  0  0  0  0  0  0  0  0  0  0
   13.1210  -18.6035   23.2111 O   0  0  0  0  0  0  0  0  0  0  0  0
  2  1  1  0
  3  5  1  0
  3  2  1  0
  3  4  1  6
  5  7  1  0
  5  6  1  1
  7  8  2  0
  9 10  1  0
  9  7  1  0
 11 12  1  0
 10 11  1  6
 12 13  1  0
 13 14  1  0
 14 15  1  0
 16 10  1  0
 16 17  2  0
 18 19  1  0
 19 21  1  0
 20 19  2  0
 21 22  1  0
 22 23  1  0
 23 24  1  0
 25 24  1  1
 25 26  1  0
 25 27  1  0
 26 16  1  0
 27 29  2  0
 27 28  1  0
M  END
$$$$
