IKR.pdb
     RDKit          3D

 29 28  0  0  1  0  0  0  0  0999 V2000
    7.8512  -11.3495   20.0358 C   0  0  0  0  0  0  0  0  0  0  0  0
    7.5601  -12.7335   19.5157 C   0  0  0  0  0  0  0  0  0  0  0  0
    8.1370  -13.8096   20.3777 C   0  0  2  0  0  0  0  0  0  0  0  0
    9.6456  -13.6066   20.4310 C   0  0  0  0  0  0  0  0  0  0  0  0
    7.8851  -15.2002   19.9216 C   0  0  2  0  0  0  0  0  0  0  0  0
    6.4748  -15.4528   19.7419 N   0  0  0  0  0  0  0  0  0  0  0  0
    8.4362  -16.2417   20.8243 C   0  0  0  0  0  0  0  0  0  0  0  0
    7.9285  -16.5227   21.9418 O   0  0  0  0  0  0  0  0  0  0  0  0
    9.5855  -16.9713   20.4412 N   0  0  0  0  0  0  0  0  0  0  0  0
   10.2516  -17.9469   21.3022 C   0  0  1  0  0  0  0  0  0  0  0  0
   11.1231  -18.8545   20.5206 C   0  0  0  0  0  0  0  0  0  0  0  0
   11.8267  -19.9310   21.2439 C   0  0  0  0  0  0  0  0  0  0  0  0
   12.6885  -20.8521   20.4666 C   0  0  0  0  0  0  0  0  0  0  0  0
   12.8717  -22.1307   21.2599 C   0  0  0  0  0  0  0  0  0  0  0  0
   13.6199  -23.0638   20.4068 N   0  0  0  0  0  0  0  0  0  0  0  0
   10.7974  -17.3522   22.5130 C   0  0  0  0  0  0  0  0  0  0  0  0
   11.7724  -16.5613   22.4033 O   0  0  0  0  0  0  0  0  0  0  0  0
    6.0131  -13.0485   27.4320 N   0  0  0  0  0  0  0  0  0  0  0  0
    6.4743  -12.6934   26.1519 C   0  0  0  0  0  0  0  0  0  0  0  0
    5.9469  -11.6947   25.5103 N   0  0  0  0  0  0  0  0  0  0  0  0
    7.5288  -13.4098   25.5174 N   0  0  0  0  0  0  0  0  0  0  0  0
    8.1183  -14.5952   26.1153 C   0  0  0  0  0  0  0  0  0  0  0  0
    9.2465  -15.1272   25.2085 C   0  0  0  0  0  0  0  0  0  0  0  0
    9.8409  -16.3437   25.8149 C   0  0  0  0  0  0  0  0  0  0  0  0
   10.9822  -16.9627   24.9884 C   0  0  2  0  0  0  0  0  0  0  0  0
   10.3138  -17.5836   23.8210 N   0  0  0  0  0  0  0  0  0  0  0  0
   11.6356  -17.9619   25.8505 C   0  0  0  0  0  0  0  0  0  0  0  0
   11.4380  -19.3166   25.6260 O   0  0  0  0  0  0  0  0  0  0  0  0
   12.3855  -17.6749   26.8120 O   0  0  0  0  0  0  0  0  0  0  0  0
  2  1  1  0
  3  5  1  0
  3  2  1  0
  3  4  1  6
  5  7  1  0
  5  6  1  1
  7  8  2  0
  9 10  1  0
  9  7  1  0
 11 12  1  0
 10 11  1  6
 12 13  1  0
 13 14  1  0
 14 15  1  0
 16 10  1  0
 16 17  2  0
 18 19  1  0
 19 21  1  0
 20 19  2  0
 21 22  1  0
 22 23  1  0
 23 24  1  0
 25 24  1  1
 25 26  1  0
 25 27  1  0
 26 16  1  0
 27 29  2  0
 27 28  1  0
M  END
$$$$
