IKR.pdb
     RDKit          3D

 29 28  0  0  1  0  0  0  0  0999 V2000
    6.2929  -11.4703   27.9008 C   0  0  0  0  0  0  0  0  0  0  0  0
    5.7675  -12.6540   27.1302 C   0  0  0  0  0  0  0  0  0  0  0  0
    6.7986  -13.2705   26.2412 C   0  0  2  0  0  0  0  0  0  0  0  0
    7.1881  -12.2376   25.1917 C   0  0  0  0  0  0  0  0  0  0  0  0
    6.3755  -14.5016   25.5267 C   0  0  2  0  0  0  0  0  0  0  0  0
    6.1284  -15.5893   26.4436 N   0  0  0  0  0  0  0  0  0  0  0  0
    7.3402  -14.9657   24.4985 C   0  0  0  0  0  0  0  0  0  0  0  0
    8.2148  -15.8436   24.7217 O   0  0  0  0  0  0  0  0  0  0  0  0
    7.3024  -14.4157   23.1960 N   0  0  0  0  0  0  0  0  0  0  0  0
    8.1555  -14.8689   22.0989 C   0  0  1  0  0  0  0  0  0  0  0  0
    7.8623  -14.1360   20.8456 C   0  0  0  0  0  0  0  0  0  0  0  0
    8.5559  -14.5637   19.6154 C   0  0  0  0  0  0  0  0  0  0  0  0
    8.2195  -13.8784   18.3456 C   0  0  0  0  0  0  0  0  0  0  0  0
    8.9963  -14.5330   17.2204 C   0  0  0  0  0  0  0  0  0  0  0  0
    8.6006  -13.8610   15.9755 N   0  0  0  0  0  0  0  0  0  0  0  0
    9.5486  -15.0190   22.4914 C   0  0  0  0  0  0  0  0  0  0  0  0
   10.1832  -13.9904   22.8484 O   0  0  0  0  0  0  0  0  0  0  0  0
    9.6295  -14.4522   27.5066 N   0  0  0  0  0  0  0  0  0  0  0  0
   10.1951  -15.5558   28.1696 C   0  0  0  0  0  0  0  0  0  0  0  0
   10.4421  -15.5089   29.4439 N   0  0  0  0  0  0  0  0  0  0  0  0
   10.5147  -16.7563   27.4734 N   0  0  0  0  0  0  0  0  0  0  0  0
   11.7232  -16.8819   26.6771 C   0  0  0  0  0  0  0  0  0  0  0  0
   11.5687  -16.0787   25.3697 C   0  0  0  0  0  0  0  0  0  0  0  0
   11.7875  -16.9734   24.2068 C   0  0  0  0  0  0  0  0  0  0  0  0
   11.7033  -16.2626   22.8442 C   0  0  2  0  0  0  0  0  0  0  0  0
   10.2590  -16.2410   22.5144 N   0  0  0  0  0  0  0  0  0  0  0  0
   12.4778  -17.0774   21.8930 C   0  0  0  0  0  0  0  0  0  0  0  0
   13.8628  -17.0013   21.8715 O   0  0  0  0  0  0  0  0  0  0  0  0
   11.9648  -17.8658   21.0656 O   0  0  0  0  0  0  0  0  0  0  0  0
  2  1  1  0
  3  5  1  0
  3  2  1  0
  3  4  1  6
  5  7  1  0
  5  6  1  1
  7  8  2  0
  9 10  1  0
  9  7  1  0
 11 12  1  0
 10 11  1  6
 12 13  1  0
 13 14  1  0
 14 15  1  0
 16 10  1  0
 16 17  2  0
 18 19  1  0
 19 21  1  0
 20 19  2  0
 21 22  1  0
 22 23  1  0
 23 24  1  0
 25 24  1  1
 25 26  1  0
 25 27  1  0
 26 16  1  0
 27 29  2  0
 27 28  1  0
M  END
$$$$
