IKR.pdb
     RDKit          3D

 29 28  0  0  1  0  0  0  0  0999 V2000
    8.4193  -11.9570   27.6105 C   0  0  0  0  0  0  0  0  0  0  0  0
    8.0502  -13.3239   27.0947 C   0  0  0  0  0  0  0  0  0  0  0  0
    6.8734  -13.2972   26.1738 C   0  0  2  0  0  0  0  0  0  0  0  0
    5.6966  -12.7030   26.9369 C   0  0  0  0  0  0  0  0  0  0  0  0
    6.4458  -14.6160   25.6417 C   0  0  2  0  0  0  0  0  0  0  0  0
    6.4337  -15.6261   26.6735 N   0  0  0  0  0  0  0  0  0  0  0  0
    7.2734  -15.1096   24.5127 C   0  0  0  0  0  0  0  0  0  0  0  0
    7.9560  -16.1661   24.5700 O   0  0  0  0  0  0  0  0  0  0  0  0
    7.3197  -14.3820   23.3008 N   0  0  0  0  0  0  0  0  0  0  0  0
    8.0984  -14.7961   22.1350 C   0  0  1  0  0  0  0  0  0  0  0  0
    8.0383  -13.7840   21.0552 C   0  0  0  0  0  0  0  0  0  0  0  0
    8.7162  -14.0906   19.7810 C   0  0  0  0  0  0  0  0  0  0  0  0
    7.9547  -13.9188   18.5217 C   0  0  0  0  0  0  0  0  0  0  0  0
    8.8509  -14.2927   17.3578 C   0  0  0  0  0  0  0  0  0  0  0  0
    8.0672  -14.0984   16.1304 N   0  0  0  0  0  0  0  0  0  0  0  0
    9.4012  -15.3387   22.4896 C   0  0  0  0  0  0  0  0  0  0  0  0
   10.1057  -14.7064   23.3217 O   0  0  0  0  0  0  0  0  0  0  0  0
   13.7705  -18.4387   17.7582 N   0  0  0  0  0  0  0  0  0  0  0  0
   12.5634  -18.9524   17.2517 C   0  0  0  0  0  0  0  0  0  0  0  0
   12.3212  -18.9409   15.9757 N   0  0  0  0  0  0  0  0  0  0  0  0
   11.5702  -19.5002   18.1128 N   0  0  0  0  0  0  0  0  0  0  0  0
   11.7595  -19.5749   19.5511 C   0  0  0  0  0  0  0  0  0  0  0  0
   11.3537  -18.2351   20.1980 C   0  0  0  0  0  0  0  0  0  0  0  0
   11.5136  -18.3242   21.6701 C   0  0  0  0  0  0  0  0  0  0  0  0
   11.2923  -16.9911   22.4067 C   0  0  2  0  0  0  0  0  0  0  0  0
    9.9485  -16.5375   21.9782 N   0  0  0  0  0  0  0  0  0  0  0  0
   12.3561  -16.0774   21.9572 C   0  0  0  0  0  0  0  0  0  0  0  0
   12.1024  -15.1415   20.9650 O   0  0  0  0  0  0  0  0  0  0  0  0
   13.5215  -16.0785   22.4168 O   0  0  0  0  0  0  0  0  0  0  0  0
  2  1  1  0
  3  5  1  0
  3  2  1  0
  3  4  1  1
  5  7  1  0
  5  6  1  1
  7  8  2  0
  9 10  1  0
  9  7  1  0
 11 12  1  0
 10 11  1  6
 12 13  1  0
 13 14  1  0
 14 15  1  0
 16 10  1  0
 16 17  2  0
 18 19  1  0
 19 21  1  0
 20 19  2  0
 21 22  1  0
 22 23  1  0
 23 24  1  0
 25 24  1  6
 25 26  1  0
 25 27  1  0
 26 16  1  0
 27 29  2  0
 27 28  1  0
M  END
$$$$
