IKR.pdb
     RDKit          3D

 29 28  0  0  1  0  0  0  0  0999 V2000
    6.5091  -11.4001   27.9305 C   0  0  0  0  0  0  0  0  0  0  0  0
    5.9264  -12.6422   27.3071 C   0  0  0  0  0  0  0  0  0  0  0  0
    6.8575  -13.2950   26.3373 C   0  0  2  0  0  0  0  0  0  0  0  0
    7.2396  -12.2596   25.2875 C   0  0  0  0  0  0  0  0  0  0  0  0
    6.3141  -14.4794   25.6252 C   0  0  2  0  0  0  0  0  0  0  0  0
    5.9983  -15.5506   26.5406 N   0  0  0  0  0  0  0  0  0  0  0  0
    7.2104  -15.0142   24.5698 C   0  0  0  0  0  0  0  0  0  0  0  0
    8.0519  -15.9271   24.7790 O   0  0  0  0  0  0  0  0  0  0  0  0
    7.1416  -14.4952   23.2559 N   0  0  0  0  0  0  0  0  0  0  0  0
    7.9466  -14.9952   22.1429 C   0  0  1  0  0  0  0  0  0  0  0  0
    7.6077  -14.3064   20.8761 C   0  0  0  0  0  0  0  0  0  0  0  0
    8.3381  -14.7020   19.6566 C   0  0  0  0  0  0  0  0  0  0  0  0
    7.9865  -14.0359   18.3807 C   0  0  0  0  0  0  0  0  0  0  0  0
    8.8106  -14.6528   17.2680 C   0  0  0  0  0  0  0  0  0  0  0  0
    8.3737  -14.0296   16.0115 N   0  0  0  0  0  0  0  0  0  0  0  0
    9.3534  -15.1420   22.4844 C   0  0  0  0  0  0  0  0  0  0  0  0
    9.9281  -14.1878   23.0739 O   0  0  0  0  0  0  0  0  0  0  0  0
   13.2409  -20.8910   20.6644 N   0  0  0  0  0  0  0  0  0  0  0  0
   12.1948  -21.7024   21.1385 C   0  0  0  0  0  0  0  0  0  0  0  0
   11.9543  -22.8583   20.5971 N   0  0  0  0  0  0  0  0  0  0  0  0
   11.3677  -21.2897   22.2218 N   0  0  0  0  0  0  0  0  0  0  0  0
   11.7310  -20.1778   23.0832 C   0  0  0  0  0  0  0  0  0  0  0  0
   11.4702  -18.8466   22.3496 C   0  0  0  0  0  0  0  0  0  0  0  0
   11.7538  -17.7116   23.2617 C   0  0  0  0  0  0  0  0  0  0  0  0
   11.5652  -16.3268   22.6168 C   0  0  2  0  0  0  0  0  0  0  0  0
   10.1400  -16.2850   22.2141 N   0  0  0  0  0  0  0  0  0  0  0  0
   12.4716  -16.2727   21.4575 C   0  0  0  0  0  0  0  0  0  0  0  0
   13.8348  -16.0926   21.6422 O   0  0  0  0  0  0  0  0  0  0  0  0
   12.0946  -16.3789   20.2676 O   0  0  0  0  0  0  0  0  0  0  0  0
  2  1  1  0
  3  5  1  0
  3  2  1  0
  3  4  1  6
  5  7  1  0
  5  6  1  1
  7  8  2  0
  9 10  1  0
  9  7  1  0
 11 12  1  0
 10 11  1  6
 12 13  1  0
 13 14  1  0
 14 15  1  0
 16 10  1  0
 16 17  2  0
 18 19  1  0
 19 21  1  0
 20 19  2  0
 21 22  1  0
 22 23  1  0
 23 24  1  0
 25 24  1  6
 25 26  1  0
 25 27  1  0
 26 16  1  0
 27 29  2  0
 27 28  1  0
M  END
$$$$
