IKR.pdb
     RDKit          3D

 29 28  0  0  1  0  0  0  0  0999 V2000
    7.3132  -11.5445   19.5468 C   0  0  0  0  0  0  0  0  0  0  0  0
    7.7107  -12.7756   18.7741 C   0  0  0  0  0  0  0  0  0  0  0  0
    8.1801  -13.8869   19.6564 C   0  0  2  0  0  0  0  0  0  0  0  0
    9.4222  -13.4043   20.3942 C   0  0  0  0  0  0  0  0  0  0  0  0
    8.5312  -15.1518   18.9622 C   0  0  2  0  0  0  0  0  0  0  0  0
    7.4215  -15.6595   18.1904 N   0  0  0  0  0  0  0  0  0  0  0  0
    9.0027  -16.2283   19.8688 C   0  0  0  0  0  0  0  0  0  0  0  0
    8.2719  -16.7578   20.7469 O   0  0  0  0  0  0  0  0  0  0  0  0
   10.3305  -16.7046   19.7681 N   0  0  0  0  0  0  0  0  0  0  0  0
   10.9018  -17.7103   20.6620 C   0  0  1  0  0  0  0  0  0  0  0  0
   11.7757  -18.6546   19.9282 C   0  0  0  0  0  0  0  0  0  0  0  0
   12.4741  -19.6971   20.7046 C   0  0  0  0  0  0  0  0  0  0  0  0
   13.2976  -20.6858   19.9703 C   0  0  0  0  0  0  0  0  0  0  0  0
   13.8730  -21.6733   20.9661 C   0  0  0  0  0  0  0  0  0  0  0  0
   14.6377  -22.6646   20.1975 N   0  0  0  0  0  0  0  0  0  0  0  0
   11.4029  -17.1423   21.9045 C   0  0  0  0  0  0  0  0  0  0  0  0
   12.2144  -16.1804   21.8377 O   0  0  0  0  0  0  0  0  0  0  0  0
    9.6162  -14.0641   28.3827 N   0  0  0  0  0  0  0  0  0  0  0  0
   10.2389  -14.9090   29.3185 C   0  0  0  0  0  0  0  0  0  0  0  0
   10.8233  -14.4183   30.3696 N   0  0  0  0  0  0  0  0  0  0  0  0
   10.2508  -16.3230   29.1496 N   0  0  0  0  0  0  0  0  0  0  0  0
    9.9103  -16.9464   27.8824 C   0  0  0  0  0  0  0  0  0  0  0  0
   10.9826  -16.6003   26.8295 C   0  0  0  0  0  0  0  0  0  0  0  0
   10.6238  -17.2210   25.5307 C   0  0  0  0  0  0  0  0  0  0  0  0
   11.6242  -16.9284   24.3983 C   0  0  2  0  0  0  0  0  0  0  0  0
   11.0445  -17.5795   23.2002 N   0  0  0  0  0  0  0  0  0  0  0  0
   12.9044  -17.5375   24.7965 C   0  0  0  0  0  0  0  0  0  0  0  0
   13.9503  -16.7416   25.2407 O   0  0  0  0  0  0  0  0  0  0  0  0
   13.1353  -18.7683   24.7633 O   0  0  0  0  0  0  0  0  0  0  0  0
  2  1  1  0
  3  5  1  0
  3  2  1  0
  3  4  1  6
  5  7  1  0
  5  6  1  1
  7  8  2  0
  9 10  1  0
  9  7  1  0
 11 12  1  0
 10 11  1  6
 12 13  1  0
 13 14  1  0
 14 15  1  0
 16 10  1  0
 16 17  2  0
 18 19  1  0
 19 21  1  0
 20 19  2  0
 21 22  1  0
 22 23  1  0
 23 24  1  0
 25 24  1  1
 25 26  1  0
 25 27  1  0
 26 16  1  0
 27 29  2  0
 27 28  1  0
M  END
$$$$
