IKR.pdb
     RDKit          3D

 29 28  0  0  1  0  0  0  0  0999 V2000
    6.1121  -11.5145   27.3947 C   0  0  0  0  0  0  0  0  0  0  0  0
    5.5771  -12.7131   26.6544 C   0  0  0  0  0  0  0  0  0  0  0  0
    6.5977  -13.3485   25.7666 C   0  0  2  0  0  0  0  0  0  0  0  0
    7.0193  -12.3178   24.7274 C   0  0  0  0  0  0  0  0  0  0  0  0
    6.1479  -14.5631   25.0400 C   0  0  2  0  0  0  0  0  0  0  0  0
    5.8359  -15.6406   25.9492 N   0  0  0  0  0  0  0  0  0  0  0  0
    7.1217  -15.0631   24.0375 C   0  0  0  0  0  0  0  0  0  0  0  0
    8.0686  -15.8412   24.3264 O   0  0  0  0  0  0  0  0  0  0  0  0
    7.0090  -14.6657   22.6849 N   0  0  0  0  0  0  0  0  0  0  0  0
    7.9634  -15.0463   21.6452 C   0  0  1  0  0  0  0  0  0  0  0  0
    7.6378  -14.4066   20.3496 C   0  0  0  0  0  0  0  0  0  0  0  0
    8.4300  -14.7959   19.1672 C   0  0  0  0  0  0  0  0  0  0  0  0
    8.0880  -14.1857   17.8611 C   0  0  0  0  0  0  0  0  0  0  0  0
    8.9867  -14.7827   16.7964 C   0  0  0  0  0  0  0  0  0  0  0  0
    8.6708  -14.1012   15.5338 N   0  0  0  0  0  0  0  0  0  0  0  0
    9.3444  -14.9989   22.1014 C   0  0  0  0  0  0  0  0  0  0  0  0
    9.7103  -14.0147   22.7982 O   0  0  0  0  0  0  0  0  0  0  0  0
   10.3688  -17.2287   29.1057 N   0  0  0  0  0  0  0  0  0  0  0  0
   10.7105  -15.9909   28.5325 C   0  0  0  0  0  0  0  0  0  0  0  0
   10.5174  -14.8830   29.1825 N   0  0  0  0  0  0  0  0  0  0  0  0
   11.2769  -15.9075   27.2286 N   0  0  0  0  0  0  0  0  0  0  0  0
   11.5032  -17.0890   26.4143 C   0  0  0  0  0  0  0  0  0  0  0  0
   12.1186  -16.6767   25.0617 C   0  0  0  0  0  0  0  0  0  0  0  0
   11.0413  -16.5026   24.0568 C   0  0  0  0  0  0  0  0  0  0  0  0
   11.5438  -16.0744   22.6666 C   0  0  2  0  0  0  0  0  0  0  0  0
   10.3232  -15.9826   21.8318 N   0  0  0  0  0  0  0  0  0  0  0  0
   12.4561  -17.1328   22.2016 C   0  0  0  0  0  0  0  0  0  0  0  0
   13.7471  -17.2145   22.7028 O   0  0  0  0  0  0  0  0  0  0  0  0
   12.1476  -18.0009   21.3528 O   0  0  0  0  0  0  0  0  0  0  0  0
  2  1  1  0
  3  5  1  0
  3  2  1  0
  3  4  1  6
  5  7  1  0
  5  6  1  1
  7  8  2  0
  9 10  1  0
  9  7  1  0
 11 12  1  0
 10 11  1  6
 12 13  1  0
 13 14  1  0
 14 15  1  0
 16 10  1  0
 16 17  2  0
 18 19  1  0
 19 21  1  0
 20 19  2  0
 21 22  1  0
 22 23  1  0
 23 24  1  0
 25 24  1  1
 25 26  1  0
 25 27  1  0
 26 16  1  0
 27 29  2  0
 27 28  1  0
M  END
$$$$
