IKR.pdb
     RDKit          3D

 29 28  0  0  1  0  0  0  0  0999 V2000
    7.3308  -11.8883   18.3231 C   0  0  0  0  0  0  0  0  0  0  0  0
    7.8536  -13.3014   18.3418 C   0  0  0  0  0  0  0  0  0  0  0  0
    7.6859  -13.9636   19.6711 C   0  0  2  0  0  0  0  0  0  0  0  0
    8.4304  -13.1295   20.7055 C   0  0  0  0  0  0  0  0  0  0  0  0
    8.1957  -15.3553   19.7628 C   0  0  2  0  0  0  0  0  0  0  0  0
    7.5522  -16.2208   18.8026 N   0  0  0  0  0  0  0  0  0  0  0  0
    8.0550  -15.9633   21.1095 C   0  0  0  0  0  0  0  0  0  0  0  0
    8.4994  -15.4251   22.1575 O   0  0  0  0  0  0  0  0  0  0  0  0
    7.3958  -17.2058   21.2575 N   0  0  0  0  0  0  0  0  0  0  0  0
    7.3047  -17.9302   22.5239 C   0  0  1  0  0  0  0  0  0  0  0  0
    6.2496  -18.9688   22.4800 C   0  0  0  0  0  0  0  0  0  0  0  0
    4.8872  -18.5553   22.0924 C   0  0  0  0  0  0  0  0  0  0  0  0
    3.8444  -19.6006   21.9702 C   0  0  0  0  0  0  0  0  0  0  0  0
    2.5529  -18.9473   21.5198 C   0  0  0  0  0  0  0  0  0  0  0  0
    1.5555  -20.0166   21.3778 N   0  0  0  0  0  0  0  0  0  0  0  0
    8.6066  -18.3025   23.0568 C   0  0  0  0  0  0  0  0  0  0  0  0
    9.2812  -19.1675   22.4364 O   0  0  0  0  0  0  0  0  0  0  0  0
   12.8949  -13.9702   20.6698 N   0  0  0  0  0  0  0  0  0  0  0  0
   13.2265  -15.3081   20.3915 C   0  0  0  0  0  0  0  0  0  0  0  0
   14.0821  -15.5992   19.4586 N   0  0  0  0  0  0  0  0  0  0  0  0
   12.6412  -16.3846   21.1172 N   0  0  0  0  0  0  0  0  0  0  0  0
   12.0294  -16.1876   22.4199 C   0  0  0  0  0  0  0  0  0  0  0  0
   12.2523  -17.4396   23.2924 C   0  0  0  0  0  0  0  0  0  0  0  0
   11.5144  -17.2933   24.5710 C   0  0  0  0  0  0  0  0  0  0  0  0
   10.4241  -18.3571   24.7909 C   0  0  2  0  0  0  0  0  0  0  0  0
    9.1912  -17.7617   24.2247 N   0  0  0  0  0  0  0  0  0  0  0  0
   10.3229  -18.5653   26.2452 C   0  0  0  0  0  0  0  0  0  0  0  0
   11.3346  -19.2222   26.9305 O   0  0  0  0  0  0  0  0  0  0  0  0
    9.3551  -18.1825   26.9423 O   0  0  0  0  0  0  0  0  0  0  0  0
  2  1  1  0
  3  5  1  0
  3  2  1  0
  3  4  1  1
  5  7  1  0
  5  6  1  6
  7  8  2  0
  9 10  1  0
  9  7  1  0
 11 12  1  0
 10 11  1  6
 12 13  1  0
 13 14  1  0
 14 15  1  0
 16 10  1  0
 16 17  2  0
 18 19  1  0
 19 21  1  0
 20 19  2  0
 21 22  1  0
 22 23  1  0
 23 24  1  0
 25 24  1  1
 25 26  1  0
 25 27  1  0
 26 16  1  0
 27 29  2  0
 27 28  1  0
M  END
$$$$
