IKR.pdb
     RDKit          3D

 29 28  0  0  1  0  0  0  0  0999 V2000
    6.3288  -10.9829   27.4868 C   0  0  0  0  0  0  0  0  0  0  0  0
    5.7581  -12.0827   26.6290 C   0  0  0  0  0  0  0  0  0  0  0  0
    6.8089  -12.8406   25.8840 C   0  0  2  0  0  0  0  0  0  0  0  0
    7.5623  -11.8518   25.0039 C   0  0  0  0  0  0  0  0  0  0  0  0
    6.3123  -13.9340   25.0104 C   0  0  2  0  0  0  0  0  0  0  0  0
    5.6309  -14.9541   25.7720 N   0  0  0  0  0  0  0  0  0  0  0  0
    7.3693  -14.5847   24.1964 C   0  0  0  0  0  0  0  0  0  0  0  0
    8.0129  -15.5950   24.5846 O   0  0  0  0  0  0  0  0  0  0  0  0
    7.6935  -14.0704   22.9195 N   0  0  0  0  0  0  0  0  0  0  0  0
    8.7286  -14.6358   22.0559 C   0  0  1  0  0  0  0  0  0  0  0  0
    8.9644  -13.7874   20.8649 C   0  0  0  0  0  0  0  0  0  0  0  0
    8.0102  -13.8878   19.7439 C   0  0  0  0  0  0  0  0  0  0  0  0
    8.5467  -14.1378   18.3857 C   0  0  0  0  0  0  0  0  0  0  0  0
    7.3869  -14.2175   17.4129 C   0  0  0  0  0  0  0  0  0  0  0  0
    7.9576  -14.4551   16.0802 N   0  0  0  0  0  0  0  0  0  0  0  0
    9.8882  -15.1071   22.7980 C   0  0  0  0  0  0  0  0  0  0  0  0
   10.4709  -14.3007   23.5717 O   0  0  0  0  0  0  0  0  0  0  0  0
    8.9581  -22.7361   27.0026 N   0  0  0  0  0  0  0  0  0  0  0  0
    9.1149  -21.3816   27.3463 C   0  0  0  0  0  0  0  0  0  0  0  0
    8.8426  -20.9660   28.5464 N   0  0  0  0  0  0  0  0  0  0  0  0
    9.5749  -20.4235   26.3985 N   0  0  0  0  0  0  0  0  0  0  0  0
    9.8548  -19.0482   26.7731 C   0  0  0  0  0  0  0  0  0  0  0  0
   10.9344  -18.4655   25.8385 C   0  0  0  0  0  0  0  0  0  0  0  0
   10.2850  -17.7722   24.6990 C   0  0  0  0  0  0  0  0  0  0  0  0
   11.2529  -16.9446   23.8347 C   0  0  2  0  0  0  0  0  0  0  0  0
   10.4195  -16.4152   22.7299 N   0  0  0  0  0  0  0  0  0  0  0  0
   12.2894  -17.8729   23.3526 C   0  0  0  0  0  0  0  0  0  0  0  0
   12.3131  -18.2665   22.0225 O   0  0  0  0  0  0  0  0  0  0  0  0
   13.1883  -18.3577   24.0780 O   0  0  0  0  0  0  0  0  0  0  0  0
  2  1  1  0
  3  5  1  0
  3  2  1  0
  3  4  1  6
  5  7  1  0
  5  6  1  1
  7  8  2  0
  9 10  1  0
  9  7  1  0
 11 12  1  0
 10 11  1  6
 12 13  1  0
 13 14  1  0
 14 15  1  0
 16 10  1  0
 16 17  2  0
 18 19  1  0
 19 21  1  0
 20 19  2  0
 21 22  1  0
 22 23  1  0
 23 24  1  0
 25 24  1  1
 25 26  1  0
 25 27  1  0
 26 16  1  0
 27 29  2  0
 27 28  1  0
M  END
$$$$
