IKR.pdb
     RDKit          3D

 29 28  0  0  1  0  0  0  0  0999 V2000
    6.6058  -11.2776   27.6318 C   0  0  0  0  0  0  0  0  0  0  0  0
    5.9507  -12.4541   26.9554 C   0  0  0  0  0  0  0  0  0  0  0  0
    6.8928  -13.2193   26.0833 C   0  0  2  0  0  0  0  0  0  0  0  0
    7.4259  -12.2655   25.0221 C   0  0  0  0  0  0  0  0  0  0  0  0
    6.3092  -14.3917   25.3833 C   0  0  2  0  0  0  0  0  0  0  0  0
    5.9773  -15.4506   26.3072 N   0  0  0  0  0  0  0  0  0  0  0  0
    7.1774  -14.9540   24.3187 C   0  0  0  0  0  0  0  0  0  0  0  0
    7.8428  -16.0135   24.4612 O   0  0  0  0  0  0  0  0  0  0  0  0
    7.2849  -14.2927   23.0732 N   0  0  0  0  0  0  0  0  0  0  0  0
    8.0904  -14.7880   21.9584 C   0  0  1  0  0  0  0  0  0  0  0  0
    7.9244  -13.9442   20.7524 C   0  0  0  0  0  0  0  0  0  0  0  0
    8.6584  -14.3298   19.5318 C   0  0  0  0  0  0  0  0  0  0  0  0
    8.1117  -13.9073   18.2211 C   0  0  0  0  0  0  0  0  0  0  0  0
    8.9987  -14.4615   17.1240 C   0  0  0  0  0  0  0  0  0  0  0  0
    8.4776  -13.9506   15.8489 N   0  0  0  0  0  0  0  0  0  0  0  0
    9.4422  -15.1515   22.3558 C   0  0  0  0  0  0  0  0  0  0  0  0
   10.1586  -14.2749   22.9095 O   0  0  0  0  0  0  0  0  0  0  0  0
    8.7651  -20.0776   26.4572 N   0  0  0  0  0  0  0  0  0  0  0  0
   10.0079  -19.9416   27.1009 C   0  0  0  0  0  0  0  0  0  0  0  0
   10.0733  -19.7609   28.3855 N   0  0  0  0  0  0  0  0  0  0  0  0
   11.2309  -19.9971   26.3734 N   0  0  0  0  0  0  0  0  0  0  0  0
   11.2727  -19.8320   24.9308 C   0  0  0  0  0  0  0  0  0  0  0  0
   11.4113  -18.3358   24.5837 C   0  0  0  0  0  0  0  0  0  0  0  0
   11.3881  -18.1621   23.1106 C   0  0  0  0  0  0  0  0  0  0  0  0
   11.4042  -16.6930   22.6521 C   0  0  2  0  0  0  0  0  0  0  0  0
   10.0259  -16.4266   22.1782 N   0  0  0  0  0  0  0  0  0  0  0  0
   12.3930  -16.5996   21.5648 C   0  0  0  0  0  0  0  0  0  0  0  0
   13.6751  -16.1364   21.8222 O   0  0  0  0  0  0  0  0  0  0  0  0
   12.1590  -16.9164   20.3756 O   0  0  0  0  0  0  0  0  0  0  0  0
  2  1  1  0
  3  5  1  0
  3  2  1  0
  3  4  1  6
  5  7  1  0
  5  6  1  1
  7  8  2  0
  9 10  1  0
  9  7  1  0
 11 12  1  0
 10 11  1  6
 12 13  1  0
 13 14  1  0
 14 15  1  0
 16 10  1  0
 16 17  2  0
 18 19  1  0
 19 21  1  0
 20 19  2  0
 21 22  1  0
 22 23  1  0
 23 24  1  0
 25 24  1  6
 25 26  1  0
 25 27  1  0
 26 16  1  0
 27 29  2  0
 27 28  1  0
M  END
$$$$
