IKR.pdb
     RDKit          3D

 29 28  0  0  1  0  0  0  0  0999 V2000
    5.6980  -11.9695   27.1567 C   0  0  0  0  0  0  0  0  0  0  0  0
    6.5828  -13.1245   27.5488 C   0  0  0  0  0  0  0  0  0  0  0  0
    7.2494  -13.7678   26.3759 C   0  0  2  0  0  0  0  0  0  0  0  0
    7.9900  -12.6818   25.6062 C   0  0  0  0  0  0  0  0  0  0  0  0
    6.3435  -14.4577   25.4227 C   0  0  2  0  0  0  0  0  0  0  0  0
    5.6112  -15.5244   26.0636 N   0  0  0  0  0  0  0  0  0  0  0  0
    7.0303  -15.0121   24.2293 C   0  0  0  0  0  0  0  0  0  0  0  0
    7.6116  -16.1290   24.2267 O   0  0  0  0  0  0  0  0  0  0  0  0
    7.0516  -14.2760   23.0219 N   0  0  0  0  0  0  0  0  0  0  0  0
    7.8883  -14.6233   21.8746 C   0  0  1  0  0  0  0  0  0  0  0  0
    7.6757  -13.6883   20.7456 C   0  0  0  0  0  0  0  0  0  0  0  0
    8.2273  -14.0579   19.4278 C   0  0  0  0  0  0  0  0  0  0  0  0
    8.0059  -13.1349   18.2903 C   0  0  0  0  0  0  0  0  0  0  0  0
    8.5933  -13.7570   17.0391 C   0  0  0  0  0  0  0  0  0  0  0  0
    8.4306  -12.7797   15.9544 N   0  0  0  0  0  0  0  0  0  0  0  0
    9.2582  -14.9398   22.2495 C   0  0  0  0  0  0  0  0  0  0  0  0
    9.7669  -14.3280   23.2268 O   0  0  0  0  0  0  0  0  0  0  0  0
   10.3168  -20.0282   28.0039 N   0  0  0  0  0  0  0  0  0  0  0  0
   11.6560  -19.7426   27.6840 C   0  0  0  0  0  0  0  0  0  0  0  0
   12.6146  -20.0537   28.5034 N   0  0  0  0  0  0  0  0  0  0  0  0
   12.0074  -19.1072   26.4590 N   0  0  0  0  0  0  0  0  0  0  0  0
   11.0039  -18.5450   25.5717 C   0  0  0  0  0  0  0  0  0  0  0  0
   11.6956  -17.8290   24.3939 C   0  0  0  0  0  0  0  0  0  0  0  0
   10.6708  -17.2281   23.5054 C   0  0  0  0  0  0  0  0  0  0  0  0
   11.2535  -16.4660   22.3018 C   0  0  2  0  0  0  0  0  0  0  0  0
   10.0763  -15.8960   21.6057 N   0  0  0  0  0  0  0  0  0  0  0  0
   11.9609  -17.4581   21.4749 C   0  0  0  0  0  0  0  0  0  0  0  0
   13.3299  -17.6359   21.6124 O   0  0  0  0  0  0  0  0  0  0  0  0
   11.4027  -18.1837   20.6198 O   0  0  0  0  0  0  0  0  0  0  0  0
  2  1  1  0
  3  5  1  0
  3  2  1  0
  3  4  1  6
  5  7  1  0
  5  6  1  1
  7  8  2  0
  9 10  1  0
  9  7  1  0
 11 12  1  0
 10 11  1  6
 12 13  1  0
 13 14  1  0
 14 15  1  0
 16 10  1  0
 16 17  2  0
 18 19  1  0
 19 21  1  0
 20 19  2  0
 21 22  1  0
 22 23  1  0
 23 24  1  0
 25 24  1  1
 25 26  1  0
 25 27  1  0
 26 16  1  0
 27 29  2  0
 27 28  1  0
M  END
$$$$
