IKR.pdb
     RDKit          3D

 29 28  0  0  1  0  0  0  0  0999 V2000
    5.6737  -10.7586   27.1747 C   0  0  0  0  0  0  0  0  0  0  0  0
    6.7304  -11.8214   27.0177 C   0  0  0  0  0  0  0  0  0  0  0  0
    6.4488  -12.7555   25.8855 C   0  0  2  0  0  0  0  0  0  0  0  0
    5.1425  -13.4774   26.1897 C   0  0  0  0  0  0  0  0  0  0  0  0
    7.4860  -13.7878   25.6332 C   0  0  2  0  0  0  0  0  0  0  0  0
    8.8178  -13.2483   25.7756 N   0  0  0  0  0  0  0  0  0  0  0  0
    7.3830  -14.4356   24.3016 C   0  0  0  0  0  0  0  0  0  0  0  0
    6.6027  -15.3942   24.0611 O   0  0  0  0  0  0  0  0  0  0  0  0
    8.1856  -13.9787   23.2306 N   0  0  0  0  0  0  0  0  0  0  0  0
    8.3694  -14.7166   21.9822 C   0  0  1  0  0  0  0  0  0  0  0  0
    8.3286  -13.8147   20.8079 C   0  0  0  0  0  0  0  0  0  0  0  0
    8.5555  -14.4042   19.4744 C   0  0  0  0  0  0  0  0  0  0  0  0
    8.5087  -13.5096   18.2943 C   0  0  0  0  0  0  0  0  0  0  0  0
    8.6570  -14.3504   17.0418 C   0  0  0  0  0  0  0  0  0  0  0  0
    8.5322  -13.4411   15.8948 N   0  0  0  0  0  0  0  0  0  0  0  0
    9.4467  -15.6921   22.0559 C   0  0  0  0  0  0  0  0  0  0  0  0
   10.6200  -15.2736   22.2470 O   0  0  0  0  0  0  0  0  0  0  0  0
    6.9047  -18.5157   25.6665 N   0  0  0  0  0  0  0  0  0  0  0  0
    7.4382  -19.6170   26.3593 C   0  0  0  0  0  0  0  0  0  0  0  0
    6.8164  -20.1220   27.3818 N   0  0  0  0  0  0  0  0  0  0  0  0
    8.6700  -20.2147   25.9677 N   0  0  0  0  0  0  0  0  0  0  0  0
    9.0246  -20.3945   24.5705 C   0  0  0  0  0  0  0  0  0  0  0  0
    9.5124  -19.0547   23.9827 C   0  0  0  0  0  0  0  0  0  0  0  0
   10.0206  -19.2707   22.6058 C   0  0  0  0  0  0  0  0  0  0  0  0
   10.4682  -17.9820   21.8933 C   0  0  2  0  0  0  0  0  0  0  0  0
    9.2849  -17.0914   21.9377 N   0  0  0  0  0  0  0  0  0  0  0  0
   10.8258  -18.3618   20.5162 C   0  0  0  0  0  0  0  0  0  0  0  0
   11.9965  -19.0624   20.2647 O   0  0  0  0  0  0  0  0  0  0  0  0
   10.1293  -18.0901   19.5110 O   0  0  0  0  0  0  0  0  0  0  0  0
  2  1  1  0
  3  5  1  0
  3  2  1  0
  3  4  1  1
  5  7  1  0
  5  6  1  6
  7  8  2  0
  9 10  1  0
  9  7  1  0
 11 12  1  0
 10 11  1  6
 12 13  1  0
 13 14  1  0
 14 15  1  0
 16 10  1  0
 16 17  2  0
 18 19  1  0
 19 21  1  0
 20 19  2  0
 21 22  1  0
 22 23  1  0
 23 24  1  0
 25 24  1  1
 25 26  1  0
 25 27  1  0
 26 16  1  0
 27 29  2  0
 27 28  1  0
M  END
$$$$
