IKR.pdb
     RDKit          3D

 29 28  0  0  1  0  0  0  0  0999 V2000
    7.1320  -11.6446   19.4795 C   0  0  0  0  0  0  0  0  0  0  0  0
    7.4507  -12.9536   18.8044 C   0  0  0  0  0  0  0  0  0  0  0  0
    8.1540  -13.9149   19.7072 C   0  0  2  0  0  0  0  0  0  0  0  0
    9.4265  -13.2422   20.2054 C   0  0  0  0  0  0  0  0  0  0  0  0
    8.5404  -15.2088   19.0895 C   0  0  2  0  0  0  0  0  0  0  0  0
    7.4001  -15.8862   18.5187 N   0  0  0  0  0  0  0  0  0  0  0  0
    9.2228  -16.1429   20.0195 C   0  0  0  0  0  0  0  0  0  0  0  0
    8.8694  -16.3019   21.2176 O   0  0  0  0  0  0  0  0  0  0  0  0
   10.3261  -16.9054   19.5705 N   0  0  0  0  0  0  0  0  0  0  0  0
   11.1326  -17.7571   20.4429 C   0  0  1  0  0  0  0  0  0  0  0  0
   11.8956  -18.7612   19.6660 C   0  0  0  0  0  0  0  0  0  0  0  0
   12.7923  -19.6715   20.4039 C   0  0  0  0  0  0  0  0  0  0  0  0
   12.6299  -21.1306   20.2048 C   0  0  0  0  0  0  0  0  0  0  0  0
   13.6508  -21.8538   21.0607 C   0  0  0  0  0  0  0  0  0  0  0  0
   13.4720  -23.2923   20.8221 N   0  0  0  0  0  0  0  0  0  0  0  0
   11.8410  -17.0058   21.4681 C   0  0  0  0  0  0  0  0  0  0  0  0
   12.4659  -15.9670   21.1235 O   0  0  0  0  0  0  0  0  0  0  0  0
    9.2372  -15.6877   28.5722 N   0  0  0  0  0  0  0  0  0  0  0  0
   10.3420  -14.8195   28.5167 C   0  0  0  0  0  0  0  0  0  0  0  0
   10.1787  -13.5328   28.5862 N   0  0  0  0  0  0  0  0  0  0  0  0
   11.6702  -15.3157   28.3838 N   0  0  0  0  0  0  0  0  0  0  0  0
   11.9662  -16.5213   27.6293 C   0  0  0  0  0  0  0  0  0  0  0  0
   12.6801  -16.1481   26.3143 C   0  0  0  0  0  0  0  0  0  0  0  0
   12.0382  -16.8574   25.1805 C   0  0  0  0  0  0  0  0  0  0  0  0
   12.6128  -16.4854   23.8020 C   0  0  2  0  0  0  0  0  0  0  0  0
   11.8814  -17.3430   22.8403 N   0  0  0  0  0  0  0  0  0  0  0  0
   14.0509  -16.7997   23.8440 C   0  0  0  0  0  0  0  0  0  0  0  0
   14.9733  -15.8163   24.1709 O   0  0  0  0  0  0  0  0  0  0  0  0
   14.5285  -17.9309   23.5960 O   0  0  0  0  0  0  0  0  0  0  0  0
  2  1  1  0
  3  5  1  0
  3  2  1  0
  3  4  1  6
  5  7  1  0
  5  6  1  1
  7  8  2  0
  9 10  1  0
  9  7  1  0
 11 12  1  0
 10 11  1  6
 12 13  1  0
 13 14  1  0
 14 15  1  0
 16 10  1  0
 16 17  2  0
 18 19  1  0
 19 21  1  0
 20 19  2  0
 21 22  1  0
 22 23  1  0
 23 24  1  0
 25 24  1  1
 25 26  1  0
 25 27  1  0
 26 16  1  0
 27 29  2  0
 27 28  1  0
M  END
$$$$
