IKR.pdb
     RDKit          3D

 29 28  0  0  1  0  0  0  0  0999 V2000
    1.6209  -18.9430   20.1691 C   0  0  0  0  0  0  0  0  0  0  0  0
    2.7479  -18.6255   21.1177 C   0  0  0  0  0  0  0  0  0  0  0  0
    3.5729  -19.8241   21.4591 C   0  0  2  0  0  0  0  0  0  0  0  0
    2.6480  -20.8689   22.0700 C   0  0  0  0  0  0  0  0  0  0  0  0
    4.6812  -19.5872   22.4187 C   0  0  2  0  0  0  0  0  0  0  0  0
    4.2292  -18.8640   23.5838 N   0  0  0  0  0  0  0  0  0  0  0  0
    5.8393  -18.8628   21.8378 C   0  0  0  0  0  0  0  0  0  0  0  0
    6.5099  -19.3029   20.8672 O   0  0  0  0  0  0  0  0  0  0  0  0
    6.2348  -17.6166   22.3771 N   0  0  0  0  0  0  0  0  0  0  0  0
    7.3933  -16.8598   21.9062 C   0  0  1  0  0  0  0  0  0  0  0  0
    7.0230  -15.4730   21.5404 C   0  0  0  0  0  0  0  0  0  0  0  0
    7.3331  -15.0117   20.1735 C   0  0  0  0  0  0  0  0  0  0  0  0
    7.6220  -13.5733   19.9668 C   0  0  0  0  0  0  0  0  0  0  0  0
    7.8497  -13.3317   18.4878 C   0  0  0  0  0  0  0  0  0  0  0  0
    8.0826  -11.8913   18.3170 N   0  0  0  0  0  0  0  0  0  0  0  0
    8.5714  -17.0544   22.7379 C   0  0  0  0  0  0  0  0  0  0  0  0
    8.4193  -17.1015   23.9881 O   0  0  0  0  0  0  0  0  0  0  0  0
   16.8006  -16.0951   20.2638 N   0  0  0  0  0  0  0  0  0  0  0  0
   15.7915  -15.2338   20.7300 C   0  0  0  0  0  0  0  0  0  0  0  0
   15.8060  -13.9706   20.4282 N   0  0  0  0  0  0  0  0  0  0  0  0
   14.7247  -15.7116   21.5433 N   0  0  0  0  0  0  0  0  0  0  0  0
   14.7464  -17.0385   22.1341 C   0  0  0  0  0  0  0  0  0  0  0  0
   13.5546  -17.1957   23.1002 C   0  0  0  0  0  0  0  0  0  0  0  0
   12.2838  -17.1368   22.3370 C   0  0  0  0  0  0  0  0  0  0  0  0
   11.0249  -17.3396   23.1988 C   0  0  2  0  0  0  0  0  0  0  0  0
    9.8911  -17.2058   22.2545 N   0  0  0  0  0  0  0  0  0  0  0  0
   11.0305  -16.2731   24.2142 C   0  0  0  0  0  0  0  0  0  0  0  0
   11.6028  -16.4940   25.4586 O   0  0  0  0  0  0  0  0  0  0  0  0
   10.5378  -15.1349   24.0379 O   0  0  0  0  0  0  0  0  0  0  0  0
  2  1  1  0
  3  5  1  0
  3  2  1  0
  3  4  1  1
  5  7  1  0
  5  6  1  1
  7  8  2  0
  9 10  1  0
  9  7  1  0
 11 12  1  0
 10 11  1  1
 12 13  1  0
 13 14  1  0
 14 15  1  0
 16 10  1  0
 16 17  2  0
 18 19  1  0
 19 21  1  0
 20 19  2  0
 21 22  1  0
 22 23  1  0
 23 24  1  0
 25 24  1  6
 25 26  1  0
 25 27  1  0
 26 16  1  0
 27 29  2  0
 27 28  1  0
M  END
$$$$
