PEG.pdb
     RDKit          3D

 21 21  0  0  1  0  0  0  0  0999 V2000
   41.3202   -9.4219   -9.0611 N   0  0  0  0  0  0  0  0  0  0  0  0
   41.7150  -10.7237   -8.5201 C   0  0  0  0  0  0  0  0  0  0  0  0
   40.3348  -11.3631   -8.3290 C   0  0  0  0  0  0  0  0  0  0  0  0
   39.7222  -11.0599   -9.7024 C   0  0  0  0  0  0  0  0  0  0  0  0
   40.3698   -9.7661  -10.0925 C   0  0  1  0  0  0  0  0  0  0  0  0
   39.3767   -8.6529  -10.1963 C   0  0  0  0  0  0  0  0  0  0  0  0
   38.3548   -8.7483  -10.9394 O   0  0  0  0  0  0  0  0  0  0  0  0
   39.5175   -7.4348   -9.4761 N   0  0  0  0  0  0  0  0  0  0  0  0
   38.6307   -6.3205   -9.6053 C   0  0  1  0  0  0  0  0  0  0  0  0
   38.6288   -5.4976   -8.3504 C   0  0  0  0  0  0  0  0  0  0  0  0
   37.9537   -6.2889   -7.2654 C   0  0  0  0  0  0  0  0  0  0  0  0
   37.9494   -5.5356   -5.9884 C   0  0  0  0  0  0  0  0  0  0  0  0
   38.3462   -6.0249   -4.9153 O   0  0  0  0  0  0  0  0  0  0  0  0
   38.8944   -5.5154  -10.8252 C   0  0  0  0  0  0  0  0  0  0  0  0
   40.0773   -5.2772  -11.1788 O   0  0  0  0  0  0  0  0  0  0  0  0
   37.4802   -4.2261   -5.9978 O   0  0  0  0  0  0  0  0  0  0  0  0
   37.8532   -4.9861  -11.6351 N   0  0  0  0  0  0  0  0  0  0  0  0
   38.1515   -4.2132  -12.8011 C   0  0  0  0  0  0  0  0  0  0  0  0
   36.9172   -3.7162  -13.4797 C   0  0  0  0  0  0  0  0  0  0  0  0
   35.8163   -4.0247  -12.9676 O   0  0  0  0  0  0  0  0  0  0  0  0
   36.9486   -2.9528  -14.6157 O   0  0  0  0  0  0  0  0  0  0  0  0
  1  5  1  0
  1  2  1  0
  2  3  1  0
  4  3  1  0
  5  4  1  0
  6  8  1  0
  5  6  1  1
  7  6  2  0
  9  8  1  0
  9 14  1  0
  9 10  1  1
 11 10  1  0
 12 11  1  0
 13 12  2  0
 14 17  1  0
 15 14  2  0
 16 12  1  0
 17 18  1  0
 18 19  1  0
 19 20  2  0
 19 21  1  0
M  END
$$$$
