PEG.pdb
     RDKit          3D

 21 21  0  0  1  0  0  0  0  0999 V2000
   26.3674  -19.7285  -14.6245 N   0  0  0  0  0  0  0  0  0  0  0  0
   27.6857  -20.1702  -15.0832 C   0  0  0  0  0  0  0  0  0  0  0  0
   27.6807  -19.5943  -16.5040 C   0  0  0  0  0  0  0  0  0  0  0  0
   27.2205  -18.1636  -16.1965 C   0  0  0  0  0  0  0  0  0  0  0  0
   26.3363  -18.3340  -14.9987 C   0  0  1  0  0  0  0  0  0  0  0  0
   24.9174  -17.9661  -15.2944 C   0  0  0  0  0  0  0  0  0  0  0  0
   24.6153  -16.8280  -15.7622 O   0  0  0  0  0  0  0  0  0  0  0  0
   23.8346  -18.8605  -15.0712 N   0  0  0  0  0  0  0  0  0  0  0  0
   22.4800  -18.5859  -15.4379 C   0  0  1  0  0  0  0  0  0  0  0  0
   22.3827  -18.2637  -16.9003 C   0  0  0  0  0  0  0  0  0  0  0  0
   20.9661  -17.8641  -17.2047 C   0  0  0  0  0  0  0  0  0  0  0  0
   20.8919  -17.1188  -18.4843 C   0  0  0  0  0  0  0  0  0  0  0  0
   21.0729  -15.8900  -18.5607 O   0  0  0  0  0  0  0  0  0  0  0  0
   21.5428  -19.6588  -15.0179 C   0  0  0  0  0  0  0  0  0  0  0  0
   21.7563  -20.8502  -15.3586 O   0  0  0  0  0  0  0  0  0  0  0  0
   20.6073  -17.8302  -19.6453 O   0  0  0  0  0  0  0  0  0  0  0  0
   20.3872  -19.4034  -14.2308 N   0  0  0  0  0  0  0  0  0  0  0  0
   19.5477  -20.4747  -13.7907 C   0  0  0  0  0  0  0  0  0  0  0  0
   20.2978  -21.4857  -12.9868 C   0  0  0  0  0  0  0  0  0  0  0  0
   19.8360  -21.7814  -11.8605 O   0  0  0  0  0  0  0  0  0  0  0  0
   21.4461  -22.0853  -13.4298 O   0  0  0  0  0  0  0  0  0  0  0  0
  1  5  1  0
  1  2  1  0
  2  3  1  0
  4  3  1  0
  5  4  1  0
  6  8  1  0
  5  6  1  6
  7  6  2  0
  9  8  1  0
  9 14  1  0
  9 10  1  6
 11 10  1  0
 12 11  1  0
 13 12  2  0
 14 17  1  0
 15 14  2  0
 16 12  1  0
 17 18  1  0
 18 19  1  0
 19 20  2  0
 19 21  1  0
M  END
$$$$
