PEG.pdb
     RDKit          3D

 21 21  0  0  1  0  0  0  0  0999 V2000
   24.0120  -11.0710  -15.7202 N   0  0  0  0  0  0  0  0  0  0  0  0
   24.5720  -12.4030  -15.9559 C   0  0  0  0  0  0  0  0  0  0  0  0
   23.5138  -12.9728  -16.9075 C   0  0  0  0  0  0  0  0  0  0  0  0
   23.4084  -11.8062  -17.8981 C   0  0  0  0  0  0  0  0  0  0  0  0
   23.6952  -10.6046  -17.0498 C   0  0  1  0  0  0  0  0  0  0  0  0
   22.5127   -9.6948  -16.9512 C   0  0  0  0  0  0  0  0  0  0  0  0
   22.0602   -9.0892  -17.9681 O   0  0  0  0  0  0  0  0  0  0  0  0
   21.8326   -9.4571  -15.7251 N   0  0  0  0  0  0  0  0  0  0  0  0
   20.7204   -8.5693  -15.5848 C   0  0  1  0  0  0  0  0  0  0  0  0
   19.5090   -9.3114  -15.1013 C   0  0  0  0  0  0  0  0  0  0  0  0
   19.0135  -10.1884  -16.2168 C   0  0  0  0  0  0  0  0  0  0  0  0
   17.8400  -10.9829  -15.7812 C   0  0  0  0  0  0  0  0  0  0  0  0
   16.7325  -10.9148  -16.3445 O   0  0  0  0  0  0  0  0  0  0  0  0
   21.0379   -7.3777  -14.7573 C   0  0  0  0  0  0  0  0  0  0  0  0
   21.6260   -7.5155  -13.6544 O   0  0  0  0  0  0  0  0  0  0  0  0
   17.9907  -11.8394  -14.6954 O   0  0  0  0  0  0  0  0  0  0  0  0
   20.7035   -6.0551  -15.1564 N   0  0  0  0  0  0  0  0  0  0  0  0
   20.9507   -4.9430  -14.2914 C   0  0  0  0  0  0  0  0  0  0  0  0
   22.2978   -4.3394  -14.5193 C   0  0  0  0  0  0  0  0  0  0  0  0
   23.0705   -4.9383  -15.3026 O   0  0  0  0  0  0  0  0  0  0  0  0
   22.7060   -3.1808  -13.9148 O   0  0  0  0  0  0  0  0  0  0  0  0
  1  5  1  0
  1  2  1  0
  2  3  1  0
  4  3  1  0
  5  4  1  0
  6  8  1  0
  5  6  1  1
  7  6  2  0
  9  8  1  0
  9 14  1  0
  9 10  1  1
 11 10  1  0
 12 11  1  0
 13 12  2  0
 14 17  1  0
 15 14  2  0
 16 12  1  0
 17 18  1  0
 18 19  1  0
 19 20  2  0
 19 21  1  0
M  END
$$$$
