PEG.pdb
     RDKit          3D

 21 21  0  0  1  0  0  0  0  0999 V2000
   29.6490  -34.5411   -4.5817 N   0  0  0  0  0  0  0  0  0  0  0  0
   29.8220  -34.5822   -6.0348 C   0  0  0  0  0  0  0  0  0  0  0  0
   28.8205  -35.6867   -6.3917 C   0  0  0  0  0  0  0  0  0  0  0  0
   27.6029  -35.1904   -5.6014 C   0  0  0  0  0  0  0  0  0  0  0  0
   28.2145  -34.5012   -4.4197 C   0  0  1  0  0  0  0  0  0  0  0  0
   27.8749  -35.1870   -3.1350 C   0  0  0  0  0  0  0  0  0  0  0  0
   26.6715  -35.3863   -2.7922 O   0  0  0  0  0  0  0  0  0  0  0  0
   28.8700  -35.6514   -2.2314 N   0  0  0  0  0  0  0  0  0  0  0  0
   28.5881  -36.3882   -1.0388 C   0  0  1  0  0  0  0  0  0  0  0  0
   29.8535  -36.6843   -0.2885 C   0  0  0  0  0  0  0  0  0  0  0  0
   30.7027  -37.5942   -1.1312 C   0  0  0  0  0  0  0  0  0  0  0  0
   31.9477  -37.9650   -0.4166 C   0  0  0  0  0  0  0  0  0  0  0  0
   32.7647  -38.7882   -0.8677 O   0  0  0  0  0  0  0  0  0  0  0  0
   27.5528  -35.7395   -0.1944 C   0  0  0  0  0  0  0  0  0  0  0  0
   27.6151  -34.5060    0.0420 O   0  0  0  0  0  0  0  0  0  0  0  0
   32.2072  -37.3630    0.8103 O   0  0  0  0  0  0  0  0  0  0  0  0
   26.4668  -36.4579    0.3755 N   0  0  0  0  0  0  0  0  0  0  0  0
   25.3944  -35.7715    1.0274 C   0  0  0  0  0  0  0  0  0  0  0  0
   25.5365  -35.7858    2.5142 C   0  0  0  0  0  0  0  0  0  0  0  0
   26.5892  -36.2743    2.9860 O   0  0  0  0  0  0  0  0  0  0  0  0
   24.5771  -35.2943    3.3582 O   0  0  0  0  0  0  0  0  0  0  0  0
  1  5  1  0
  1  2  1  0
  2  3  1  0
  4  3  1  0
  5  4  1  0
  6  8  1  0
  5  6  1  1
  7  6  2  0
  9  8  1  0
  9 14  1  0
  9 10  1  1
 11 10  1  0
 12 11  1  0
 13 12  2  0
 14 17  1  0
 15 14  2  0
 16 12  1  0
 17 18  1  0
 18 19  1  0
 19 20  2  0
 19 21  1  0
M  END
$$$$
