PEG.pdb
     RDKit          3D

 21 21  0  0  1  0  0  0  0  0999 V2000
   24.1399  -12.2057  -15.1938 N   0  0  0  0  0  0  0  0  0  0  0  0
   24.5394  -13.5628  -15.5708 C   0  0  0  0  0  0  0  0  0  0  0  0
   23.6557  -13.7675  -16.8067 C   0  0  0  0  0  0  0  0  0  0  0  0
   23.9503  -12.4579  -17.5493 C   0  0  0  0  0  0  0  0  0  0  0  0
   24.2069  -11.4818  -16.4417 C   0  0  1  0  0  0  0  0  0  0  0  0
   23.1781  -10.3972  -16.4029 C   0  0  0  0  0  0  0  0  0  0  0  0
   23.0507   -9.5750  -17.3585 O   0  0  0  0  0  0  0  0  0  0  0  0
   22.2914  -10.2252  -15.3045 N   0  0  0  0  0  0  0  0  0  0  0  0
   21.2918   -9.2051  -15.2339 C   0  0  1  0  0  0  0  0  0  0  0  0
   19.9532   -9.7980  -14.9044 C   0  0  0  0  0  0  0  0  0  0  0  0
   19.3606  -10.3612  -16.1657 C   0  0  0  0  0  0  0  0  0  0  0  0
   18.0306  -10.9606  -15.9014 C   0  0  0  0  0  0  0  0  0  0  0  0
   17.7806  -11.6234  -14.8782 O   0  0  0  0  0  0  0  0  0  0  0  0
   21.6709   -8.0917  -14.3269 C   0  0  0  0  0  0  0  0  0  0  0  0
   22.0287   -8.3354  -13.1464 O   0  0  0  0  0  0  0  0  0  0  0  0
   17.0235  -10.7699  -16.8418 O   0  0  0  0  0  0  0  0  0  0  0  0
   21.6500   -6.7299  -14.7334 N   0  0  0  0  0  0  0  0  0  0  0  0
   22.0246   -5.6880  -13.8278 C   0  0  0  0  0  0  0  0  0  0  0  0
   21.7786   -4.3295  -14.3977 C   0  0  0  0  0  0  0  0  0  0  0  0
   22.0194   -3.3453  -13.6610 O   0  0  0  0  0  0  0  0  0  0  0  0
   21.3098   -4.1293  -15.6684 O   0  0  0  0  0  0  0  0  0  0  0  0
  1  5  1  0
  1  2  1  0
  2  3  1  0
  4  3  1  0
  5  4  1  0
  6  8  1  0
  5  6  1  1
  7  6  2  0
  9  8  1  0
  9 14  1  0
  9 10  1  1
 11 10  1  0
 12 11  1  0
 13 12  2  0
 14 17  1  0
 15 14  2  0
 16 12  1  0
 17 18  1  0
 18 19  1  0
 19 20  2  0
 19 21  1  0
M  END
$$$$
