PEG.pdb
     RDKit          3D

 21 21  0  0  1  0  0  0  0  0999 V2000
   20.1618  -11.0810  -16.8987 N   0  0  0  0  0  0  0  0  0  0  0  0
   20.1952  -12.5328  -16.7132 C   0  0  0  0  0  0  0  0  0  0  0  0
   19.3923  -12.6543  -15.4129 C   0  0  0  0  0  0  0  0  0  0  0  0
   18.1865  -11.7782  -15.7762 C   0  0  0  0  0  0  0  0  0  0  0  0
   18.7691  -10.7536  -16.7015 C   0  0  1  0  0  0  0  0  0  0  0  0
   18.6950   -9.3750  -16.1270 C   0  0  0  0  0  0  0  0  0  0  0  0
   17.5865   -8.8564  -15.7986 O   0  0  0  0  0  0  0  0  0  0  0  0
   19.8500   -8.5724  -15.9171 N   0  0  0  0  0  0  0  0  0  0  0  0
   19.8160   -7.2383  -15.4037 C   0  0  1  0  0  0  0  0  0  0  0  0
   21.0448   -6.9528  -14.5909 C   0  0  0  0  0  0  0  0  0  0  0  0
   20.9243   -5.5679  -14.0195 C   0  0  0  0  0  0  0  0  0  0  0  0
   22.1310   -5.2149  -13.2337 C   0  0  0  0  0  0  0  0  0  0  0  0
   22.9547   -6.0628  -12.8451 O   0  0  0  0  0  0  0  0  0  0  0  0
   19.5717   -6.2229  -16.4597 C   0  0  0  0  0  0  0  0  0  0  0  0
   20.2462   -6.2431  -17.5208 O   0  0  0  0  0  0  0  0  0  0  0  0
   22.3452   -3.8765  -12.9210 O   0  0  0  0  0  0  0  0  0  0  0  0
   18.5902   -5.2029  -16.3310 N   0  0  0  0  0  0  0  0  0  0  0  0
   18.4293   -4.2072  -17.3454 C   0  0  0  0  0  0  0  0  0  0  0  0
   17.2474   -3.3298  -17.0923 C   0  0  0  0  0  0  0  0  0  0  0  0
   16.4792   -3.6562  -16.1581 O   0  0  0  0  0  0  0  0  0  0  0  0
   16.9823   -2.2073  -17.8300 O   0  0  0  0  0  0  0  0  0  0  0  0
  1  5  1  0
  1  2  1  0
  2  3  1  0
  4  3  1  0
  5  4  1  0
  6  8  1  0
  5  6  1  1
  7  6  2  0
  9  8  1  0
  9 14  1  0
  9 10  1  6
 11 10  1  0
 12 11  1  0
 13 12  2  0
 14 17  1  0
 15 14  2  0
 16 12  1  0
 17 18  1  0
 18 19  1  0
 19 20  2  0
 19 21  1  0
M  END
$$$$
