PEG.pdb
     RDKit          3D

 21 21  0  0  1  0  0  0  0  0999 V2000
   17.9414   -9.4925  -15.6753 N   0  0  0  0  0  0  0  0  0  0  0  0
   16.9504  -10.5522  -15.8707 C   0  0  0  0  0  0  0  0  0  0  0  0
   17.8809  -11.7538  -16.0727 C   0  0  0  0  0  0  0  0  0  0  0  0
   18.8206  -11.5511  -14.8772 C   0  0  0  0  0  0  0  0  0  0  0  0
   18.8500  -10.0625  -14.7082 C   0  0  1  0  0  0  0  0  0  0  0  0
   20.2109   -9.4976  -14.9633 C   0  0  0  0  0  0  0  0  0  0  0  0
   21.2054   -9.8269  -14.2506 O   0  0  0  0  0  0  0  0  0  0  0  0
   20.4679   -8.5681  -16.0083 N   0  0  0  0  0  0  0  0  0  0  0  0
   21.7574   -8.0200  -16.2939 C   0  0  1  0  0  0  0  0  0  0  0  0
   22.1178   -8.2383  -17.7342 C   0  0  0  0  0  0  0  0  0  0  0  0
   23.5111   -7.7209  -17.9581 C   0  0  0  0  0  0  0  0  0  0  0  0
   23.9079   -7.8726  -19.3786 C   0  0  0  0  0  0  0  0  0  0  0  0
   24.4056   -6.9453  -20.0427 O   0  0  0  0  0  0  0  0  0  0  0  0
   21.8839   -6.6010  -15.8741 C   0  0  0  0  0  0  0  0  0  0  0  0
   22.9872   -6.0079  -15.9838 O   0  0  0  0  0  0  0  0  0  0  0  0
   23.7125   -9.1073  -19.9888 O   0  0  0  0  0  0  0  0  0  0  0  0
   20.7953   -5.8586  -15.3411 N   0  0  0  0  0  0  0  0  0  0  0  0
   20.9545   -4.4861  -14.9711 C   0  0  0  0  0  0  0  0  0  0  0  0
   21.4959   -4.3338  -13.5874 C   0  0  0  0  0  0  0  0  0  0  0  0
   21.5902   -3.1705  -13.1323 O   0  0  0  0  0  0  0  0  0  0  0  0
   21.8831   -5.3983  -12.8185 O   0  0  0  0  0  0  0  0  0  0  0  0
  1  5  1  0
  1  2  1  0
  2  3  1  0
  4  3  1  0
  5  4  1  0
  6  8  1  0
  5  6  1  6
  7  6  2  0
  9  8  1  0
  9 14  1  0
  9 10  1  6
 11 10  1  0
 12 11  1  0
 13 12  2  0
 14 17  1  0
 15 14  2  0
 16 12  1  0
 17 18  1  0
 18 19  1  0
 19 20  2  0
 19 21  1  0
M  END
$$$$
