PEG.pdb
     RDKit          3D

 21 21  0  0  1  0  0  0  0  0999 V2000
   26.3925  -21.5865  -15.2217 N   0  0  0  0  0  0  0  0  0  0  0  0
   27.5628  -21.9936  -16.0013 C   0  0  0  0  0  0  0  0  0  0  0  0
   27.7138  -20.7713  -16.9142 C   0  0  0  0  0  0  0  0  0  0  0  0
   27.6223  -19.6570  -15.8638 C   0  0  0  0  0  0  0  0  0  0  0  0
   26.7133  -20.2361  -14.8228 C   0  0  1  0  0  0  0  0  0  0  0  0
   25.4336  -19.4709  -14.7099 C   0  0  0  0  0  0  0  0  0  0  0  0
   25.4217  -18.2556  -14.3514 O   0  0  0  0  0  0  0  0  0  0  0  0
   24.1680  -20.0537  -14.9944 N   0  0  0  0  0  0  0  0  0  0  0  0
   22.9271  -19.3463  -14.9283 C   0  0  1  0  0  0  0  0  0  0  0  0
   22.5759  -18.7678  -16.2677 C   0  0  0  0  0  0  0  0  0  0  0  0
   21.3980  -17.8506  -16.0941 C   0  0  0  0  0  0  0  0  0  0  0  0
   20.9283  -17.3417  -17.4051 C   0  0  0  0  0  0  0  0  0  0  0  0
   20.7786  -18.0753  -18.3991 O   0  0  0  0  0  0  0  0  0  0  0  0
   21.8317  -20.1620  -14.3448 C   0  0  0  0  0  0  0  0  0  0  0  0
   21.5542  -21.2863  -14.8347 O   0  0  0  0  0  0  0  0  0  0  0  0
   20.6446  -15.9849  -17.5217 O   0  0  0  0  0  0  0  0  0  0  0  0
   21.0603  -19.7276  -13.2328 N   0  0  0  0  0  0  0  0  0  0  0  0
   20.0139  -20.5454  -12.7013 C   0  0  0  0  0  0  0  0  0  0  0  0
   20.4928  -21.9153  -12.3477 C   0  0  0  0  0  0  0  0  0  0  0  0
   20.5500  -22.7599  -13.2710 O   0  0  0  0  0  0  0  0  0  0  0  0
   20.8624  -22.2696  -11.0780 O   0  0  0  0  0  0  0  0  0  0  0  0
  1  5  1  0
  1  2  1  0
  2  3  1  0
  4  3  1  0
  5  4  1  0
  6  8  1  0
  5  6  1  6
  7  6  2  0
  9  8  1  0
  9 14  1  0
  9 10  1  6
 11 10  1  0
 12 11  1  0
 13 12  2  0
 14 17  1  0
 15 14  2  0
 16 12  1  0
 17 18  1  0
 18 19  1  0
 19 20  2  0
 19 21  1  0
M  END
$$$$
