PEG.pdb
     RDKit          3D

 21 21  0  0  1  0  0  0  0  0999 V2000
   25.4343  -12.2018  -17.0381 N   0  0  0  0  0  0  0  0  0  0  0  0
   26.8046  -12.6605  -16.8029 C   0  0  0  0  0  0  0  0  0  0  0  0
   27.4505  -11.3479  -16.3445 C   0  0  0  0  0  0  0  0  0  0  0  0
   26.4137  -10.9044  -15.3045 C   0  0  0  0  0  0  0  0  0  0  0  0
   25.1266  -11.4506  -15.8437 C   0  0  1  0  0  0  0  0  0  0  0  0
   24.1697  -10.3632  -16.2150 C   0  0  0  0  0  0  0  0  0  0  0  0
   24.1088   -9.9144  -17.3984 O   0  0  0  0  0  0  0  0  0  0  0  0
   23.2811   -9.7741  -15.2739 N   0  0  0  0  0  0  0  0  0  0  0  0
   22.3640   -8.7227  -15.5872 C   0  0  1  0  0  0  0  0  0  0  0  0
   20.9473   -9.1948  -15.4391 C   0  0  0  0  0  0  0  0  0  0  0  0
   20.7031  -10.2848  -16.4449 C   0  0  0  0  0  0  0  0  0  0  0  0
   19.3254  -10.8182  -16.3201 C   0  0  0  0  0  0  0  0  0  0  0  0
   18.3894  -10.4469  -17.0514 O   0  0  0  0  0  0  0  0  0  0  0  0
   22.6406   -7.4751  -14.8303 C   0  0  0  0  0  0  0  0  0  0  0  0
   22.8694   -7.5258  -13.5949 O   0  0  0  0  0  0  0  0  0  0  0  0
   19.0755  -11.7746  -15.3414 O   0  0  0  0  0  0  0  0  0  0  0  0
   22.6608   -6.1935  -15.4446 N   0  0  0  0  0  0  0  0  0  0  0  0
   23.0005   -5.0249  -14.6929 C   0  0  0  0  0  0  0  0  0  0  0  0
   21.8058   -4.4008  -14.0494 C   0  0  0  0  0  0  0  0  0  0  0  0
   21.6468   -4.5958  -12.8222 O   0  0  0  0  0  0  0  0  0  0  0  0
   20.9004   -3.6408  -14.7401 O   0  0  0  0  0  0  0  0  0  0  0  0
  1  5  1  0
  1  2  1  0
  2  3  1  0
  4  3  1  0
  5  4  1  0
  6  8  1  0
  5  6  1  6
  7  6  2  0
  9  8  1  0
  9 14  1  0
  9 10  1  1
 11 10  1  0
 12 11  1  0
 13 12  2  0
 14 17  1  0
 15 14  2  0
 16 12  1  0
 17 18  1  0
 18 19  1  0
 19 20  2  0
 19 21  1  0
M  END
$$$$
