PEG.pdb
     RDKit          3D

 21 21  0  0  1  0  0  0  0  0999 V2000
   24.4291  -32.4328   -8.4647 N   0  0  0  0  0  0  0  0  0  0  0  0
   25.4338  -31.9682   -9.4228 C   0  0  0  0  0  0  0  0  0  0  0  0
   26.5777  -32.9368   -9.1008 C   0  0  0  0  0  0  0  0  0  0  0  0
   25.8018  -34.2601   -9.1163 C   0  0  0  0  0  0  0  0  0  0  0  0
   24.4344  -33.8654   -8.6474 C   0  0  1  0  0  0  0  0  0  0  0  0
   24.0875  -34.4998   -7.3385 C   0  0  0  0  0  0  0  0  0  0  0  0
   23.9419  -35.7540   -7.2319 O   0  0  0  0  0  0  0  0  0  0  0  0
   23.9022  -33.7431   -6.1488 N   0  0  0  0  0  0  0  0  0  0  0  0
   23.4911  -34.3031   -4.8990 C   0  0  1  0  0  0  0  0  0  0  0  0
   24.2793  -33.7092   -3.7685 C   0  0  0  0  0  0  0  0  0  0  0  0
   25.7276  -34.0598   -3.9645 C   0  0  0  0  0  0  0  0  0  0  0  0
   26.4729  -33.9556   -2.6870 C   0  0  0  0  0  0  0  0  0  0  0  0
   27.1611  -34.8860   -2.2297 O   0  0  0  0  0  0  0  0  0  0  0  0
   22.0234  -34.2202   -4.6877 C   0  0  0  0  0  0  0  0  0  0  0  0
   21.5061  -34.7234   -3.6580 O   0  0  0  0  0  0  0  0  0  0  0  0
   26.3949  -32.7635   -1.9743 O   0  0  0  0  0  0  0  0  0  0  0  0
   21.1498  -33.5856   -5.6120 N   0  0  0  0  0  0  0  0  0  0  0  0
   19.7553  -33.4451   -5.3260 C   0  0  0  0  0  0  0  0  0  0  0  0
   18.9590  -34.6106   -5.8144 C   0  0  0  0  0  0  0  0  0  0  0  0
   17.7109  -34.5166   -5.7604 O   0  0  0  0  0  0  0  0  0  0  0  0
   19.5344  -35.7509   -6.3072 O   0  0  0  0  0  0  0  0  0  0  0  0
  1  5  1  0
  1  2  1  0
  2  3  1  0
  4  3  1  0
  5  4  1  0
  6  8  1  0
  5  6  1  1
  7  6  2  0
  9  8  1  0
  9 14  1  0
  9 10  1  1
 11 10  1  0
 12 11  1  0
 13 12  2  0
 14 17  1  0
 15 14  2  0
 16 12  1  0
 17 18  1  0
 18 19  1  0
 19 20  2  0
 19 21  1  0
M  END
$$$$
