PEG.pdb
     RDKit          3D

 21 21  0  0  1  0  0  0  0  0999 V2000
   19.7627  -11.9724  -15.6953 N   0  0  0  0  0  0  0  0  0  0  0  0
   19.2423  -13.2515  -16.1815 C   0  0  0  0  0  0  0  0  0  0  0  0
   19.1000  -12.9316  -17.6741 C   0  0  0  0  0  0  0  0  0  0  0  0
   20.4807  -12.3159  -17.9346 C   0  0  0  0  0  0  0  0  0  0  0  0
   20.8249  -11.6712  -16.6264 C   0  0  1  0  0  0  0  0  0  0  0  0
   20.9274  -10.1842  -16.7457 C   0  0  0  0  0  0  0  0  0  0  0  0
   21.7755   -9.6415  -17.5150 O   0  0  0  0  0  0  0  0  0  0  0  0
   20.0894   -9.2999  -16.0121 N   0  0  0  0  0  0  0  0  0  0  0  0
   20.1331   -7.8753  -16.1264 C   0  0  1  0  0  0  0  0  0  0  0  0
   18.7539   -7.3180  -16.3248 C   0  0  0  0  0  0  0  0  0  0  0  0
   18.2723   -7.7194  -17.6909 C   0  0  0  0  0  0  0  0  0  0  0  0
   16.9343   -7.1440  -17.9683 C   0  0  0  0  0  0  0  0  0  0  0  0
   16.7733   -6.0876  -18.6059 O   0  0  0  0  0  0  0  0  0  0  0  0
   20.8616   -7.2313  -15.0037 C   0  0  0  0  0  0  0  0  0  0  0  0
   20.5947   -7.5474  -13.8162 O   0  0  0  0  0  0  0  0  0  0  0  0
   15.8153   -7.8195  -17.4923 O   0  0  0  0  0  0  0  0  0  0  0  0
   21.8708   -6.2511  -15.2057 N   0  0  0  0  0  0  0  0  0  0  0  0
   22.5062   -5.6122  -14.0948 C   0  0  0  0  0  0  0  0  0  0  0  0
   21.7666   -4.3948  -13.6455 C   0  0  0  0  0  0  0  0  0  0  0  0
   20.6835   -4.1362  -14.2194 O   0  0  0  0  0  0  0  0  0  0  0  0
   22.2227   -3.5719  -12.6509 O   0  0  0  0  0  0  0  0  0  0  0  0
  1  5  1  0
  1  2  1  0
  2  3  1  0
  4  3  1  0
  5  4  1  0
  6  8  1  0
  5  6  1  6
  7  6  2  0
  9  8  1  0
  9 14  1  0
  9 10  1  1
 11 10  1  0
 12 11  1  0
 13 12  2  0
 14 17  1  0
 15 14  2  0
 16 12  1  0
 17 18  1  0
 18 19  1  0
 19 20  2  0
 19 21  1  0
M  END
$$$$
