WDL.pdb
     RDKit          3D

 31 32  0  0  1  0  0  0  0  0999 V2000
   24.4602  -16.4963  -17.1377 N   0  0  0  0  0  0  0  0  0  0  0  0
   24.9492  -17.5065  -16.1711 C   0  0  1  0  0  0  0  0  0  0  0  0
   25.8222  -16.7853  -15.1848 C   0  0  0  0  0  0  0  0  0  0  0  0
   27.0474  -16.1967  -15.7140 C   0  0  0  0  0  0  0  0  0  0  0  0
   27.3413  -14.8290  -15.5579 C   0  0  0  0  0  0  0  0  0  0  0  0
   28.5387  -14.6002  -16.0991 N   0  0  0  0  0  0  0  0  0  0  0  0
   29.0259  -15.7384  -16.5918 C   0  0  0  0  0  0  0  0  0  0  0  0
   30.1945  -15.9933  -17.2417 C   0  0  0  0  0  0  0  0  0  0  0  0
   30.4715  -17.2774  -17.6808 C   0  0  0  0  0  0  0  0  0  0  0  0
   29.5684  -18.2868  -17.4597 C   0  0  0  0  0  0  0  0  0  0  0  0
   28.3695  -18.0267  -16.7926 C   0  0  0  0  0  0  0  0  0  0  0  0
   28.1179  -16.7527  -16.3674 C   0  0  0  0  0  0  0  0  0  0  0  0
   23.7795  -18.1017  -15.5217 C   0  0  0  0  0  0  0  0  0  0  0  0
   22.9235  -17.2966  -15.0396 O   0  0  0  0  0  0  0  0  0  0  0  0
   23.5570  -19.5113  -15.4023 N   0  0  0  0  0  0  0  0  0  0  0  0
   22.4017  -19.9533  -14.6965 C   0  0  1  0  0  0  0  0  0  0  0  0
   21.4610  -20.6522  -15.6289 C   0  0  0  0  0  0  0  0  0  0  0  0
   20.1253  -20.0284  -15.6985 C   0  0  0  0  0  0  0  0  0  0  0  0
   19.8247  -19.0198  -14.9856 O   0  0  0  0  0  0  0  0  0  0  0  0
   22.7384  -20.8351  -13.5383 C   0  0  0  0  0  0  0  0  0  0  0  0
   23.2032  -21.9915  -13.6624 O   0  0  0  0  0  0  0  0  0  0  0  0
   19.1171  -20.4862  -16.5298 O   0  0  0  0  0  0  0  0  0  0  0  0
   25.8372  -21.7376  -11.1846 C   0  0  0  0  0  0  0  0  0  0  0  0
   25.1278  -20.5137  -10.7588 C   0  0  2  0  0  0  0  0  0  0  0  0
   25.9870  -19.8123   -9.6735 C   0  0  0  0  0  0  0  0  0  0  0  0
   23.7724  -20.6201  -10.1774 C   0  0  0  0  0  0  0  0  0  0  0  0
   22.7257  -21.1961  -11.0152 C   0  0  2  0  0  0  0  0  0  0  0  0
   22.5293  -20.3584  -12.2281 N   0  0  0  0  0  0  0  0  0  0  0  0
   21.4079  -21.5041  -10.5090 C   0  0  0  0  0  0  0  0  0  0  0  0
   20.1785  -21.0532  -10.9492 O   0  0  0  0  0  0  0  0  0  0  0  0
   21.3155  -22.3043   -9.4979 O   0  0  0  0  0  0  0  0  0  0  0  0
  2  1  1  6
  2  3  1  0
  2 13  1  0
  3  4  1  0
  4  5  2  0
  5  6  1  0
  7  6  1  0
  8  7  2  0
  9  8  1  0
 10 11  1  0
 10  9  2  0
 11 12  2  0
 12  4  1  0
 12  7  1  0
 13 15  1  0
 13 14  2  0
 15 16  1  0
 16 17  1  6
 18 22  1  0
 18 17  1  0
 19 18  2  0
 20 16  1  0
 20 21  2  0
 24 23  1  1
 24 26  1  0
 25 24  1  0
 27 26  1  1
 27 28  1  0
 28 20  1  0
 29 27  1  0
 30 29  1  0
 31 29  2  0
M  END
$$$$
