WDL.pdb
     RDKit          3D

 31 32  0  0  1  0  0  0  0  0999 V2000
   15.2549  -14.8878    6.6326 N   0  0  0  0  0  0  0  0  0  0  0  0
   16.1709  -15.8443    5.9690 C   0  0  1  0  0  0  0  0  0  0  0  0
   17.5709  -15.4190    6.3065 C   0  0  0  0  0  0  0  0  0  0  0  0
   18.1744  -14.4229    5.4285 C   0  0  0  0  0  0  0  0  0  0  0  0
   18.2588  -13.0659    5.7931 C   0  0  0  0  0  0  0  0  0  0  0  0
   18.8964  -12.4159    4.8184 N   0  0  0  0  0  0  0  0  0  0  0  0
   19.2230  -13.2755    3.8540 C   0  0  0  0  0  0  0  0  0  0  0  0
   19.8627  -13.0754    2.6692 C   0  0  0  0  0  0  0  0  0  0  0  0
   20.0732  -14.1430    1.8123 C   0  0  0  0  0  0  0  0  0  0  0  0
   19.6367  -15.3969    2.1598 C   0  0  0  0  0  0  0  0  0  0  0  0
   18.9810  -15.6035    3.3752 C   0  0  0  0  0  0  0  0  0  0  0  0
   18.7853  -14.5359    4.2054 C   0  0  0  0  0  0  0  0  0  0  0  0
   15.8720  -17.1794    6.4909 C   0  0  0  0  0  0  0  0  0  0  0  0
   15.9568  -17.3321    7.7490 O   0  0  0  0  0  0  0  0  0  0  0  0
   15.5006  -18.2964    5.6754 N   0  0  0  0  0  0  0  0  0  0  0  0
   15.7396  -19.6069    6.1790 C   0  0  1  0  0  0  0  0  0  0  0  0
   14.7243  -20.5640    5.6350 C   0  0  0  0  0  0  0  0  0  0  0  0
   13.8036  -21.0946    6.6592 C   0  0  0  0  0  0  0  0  0  0  0  0
   13.9189  -20.7778    7.8849 O   0  0  0  0  0  0  0  0  0  0  0  0
   17.1221  -20.0917    5.8861 C   0  0  0  0  0  0  0  0  0  0  0  0
   17.7347  -19.8332    4.8246 O   0  0  0  0  0  0  0  0  0  0  0  0
   12.7642  -21.9619    6.3681 O   0  0  0  0  0  0  0  0  0  0  0  0
   21.4301  -18.4003    7.1051 C   0  0  0  0  0  0  0  0  0  0  0  0
   20.3201  -19.3573    7.2912 C   0  0  2  0  0  0  0  0  0  0  0  0
   20.5540  -20.1118    8.6270 C   0  0  0  0  0  0  0  0  0  0  0  0
   20.0878  -20.4118    6.2810 C   0  0  0  0  0  0  0  0  0  0  0  0
   19.1388  -21.4676    6.6185 C   0  0  2  0  0  0  0  0  0  0  0  0
   17.7897  -20.8835    6.8426 N   0  0  0  0  0  0  0  0  0  0  0  0
   19.3679  -22.4019    7.6967 C   0  0  0  0  0  0  0  0  0  0  0  0
   18.6089  -22.6289    8.8284 O   0  0  0  0  0  0  0  0  0  0  0  0
   20.4228  -23.1472    7.6429 O   0  0  0  0  0  0  0  0  0  0  0  0
  2  1  1  1
  2  3  1  0
  2 13  1  0
  3  4  1  0
  4  5  2  0
  5  6  1  0
  7  6  1  0
  8  7  2  0
  9  8  1  0
 10 11  1  0
 10  9  2  0
 11 12  2  0
 12  4  1  0
 12  7  1  0
 13 15  1  0
 13 14  2  0
 15 16  1  0
 16 17  1  6
 18 22  1  0
 18 17  1  0
 19 18  2  0
 20 16  1  0
 20 21  2  0
 24 23  1  6
 24 26  1  0
 25 24  1  0
 27 26  1  1
 27 28  1  0
 28 20  1  0
 29 27  1  0
 30 29  1  0
 31 29  2  0
M  END
$$$$
