WDL.pdb
     RDKit          3D

 31 32  0  0  1  0  0  0  0  0999 V2000
   28.2364  -20.1348  -10.1113 N   0  0  0  0  0  0  0  0  0  0  0  0
   26.9828  -20.7694   -9.6423 C   0  0  1  0  0  0  0  0  0  0  0  0
   26.4669  -19.9362   -8.5046 C   0  0  0  0  0  0  0  0  0  0  0  0
   27.4165  -19.6369   -7.4386 C   0  0  0  0  0  0  0  0  0  0  0  0
   28.2738  -18.5221   -7.4997 C   0  0  0  0  0  0  0  0  0  0  0  0
   28.9838  -18.4856   -6.3712 N   0  0  0  0  0  0  0  0  0  0  0  0
   28.6323  -19.5097   -5.5945 C   0  0  0  0  0  0  0  0  0  0  0  0
   29.0880  -19.8885   -4.3691 C   0  0  0  0  0  0  0  0  0  0  0  0
   28.5699  -21.0206   -3.7623 C   0  0  0  0  0  0  0  0  0  0  0  0
   27.6006  -21.7557   -4.3976 C   0  0  0  0  0  0  0  0  0  0  0  0
   27.1319  -21.3678   -5.6544 C   0  0  0  0  0  0  0  0  0  0  0  0
   27.6566  -20.2468   -6.2335 C   0  0  0  0  0  0  0  0  0  0  0  0
   26.0458  -20.7854  -10.7674 C   0  0  0  0  0  0  0  0  0  0  0  0
   26.0425  -19.7632  -11.5214 O   0  0  0  0  0  0  0  0  0  0  0  0
   25.1521  -21.8670  -11.0536 N   0  0  0  0  0  0  0  0  0  0  0  0
   24.2528  -21.7258  -12.1489 C   0  0  1  0  0  0  0  0  0  0  0  0
   24.1300  -23.0221  -12.8886 C   0  0  0  0  0  0  0  0  0  0  0  0
   25.2598  -23.2930  -13.7987 C   0  0  0  0  0  0  0  0  0  0  0  0
   25.9608  -22.3515  -14.2867 O   0  0  0  0  0  0  0  0  0  0  0  0
   22.9055  -21.2370  -11.7268 C   0  0  0  0  0  0  0  0  0  0  0  0
   22.4723  -21.3304  -10.5554 O   0  0  0  0  0  0  0  0  0  0  0  0
   25.6347  -24.5693  -14.1830 O   0  0  0  0  0  0  0  0  0  0  0  0
   21.4207  -18.6601  -15.0761 C   0  0  0  0  0  0  0  0  0  0  0  0
   20.5403  -18.1607  -14.0000 C   0  0  2  0  0  0  0  0  0  0  0  0
   20.6535  -16.6133  -13.9649 C   0  0  0  0  0  0  0  0  0  0  0  0
   20.7669  -18.6019  -12.6071 C   0  0  0  0  0  0  0  0  0  0  0  0
   20.7434  -20.0372  -12.3451 C   0  0  2  0  0  0  0  0  0  0  0  0
   22.0621  -20.6356  -12.6832 N   0  0  0  0  0  0  0  0  0  0  0  0
   19.7382  -20.9120  -12.9039 C   0  0  0  0  0  0  0  0  0  0  0  0
   18.3759  -20.9311  -12.6754 O   0  0  0  0  0  0  0  0  0  0  0  0
   20.1200  -21.8264  -13.7341 O   0  0  0  0  0  0  0  0  0  0  0  0
  2  1  1  6
  2  3  1  0
  2 13  1  0
  3  4  1  0
  4  5  2  0
  5  6  1  0
  7  6  1  0
  8  7  2  0
  9  8  1  0
 10 11  1  0
 10  9  2  0
 11 12  2  0
 12  4  1  0
 12  7  1  0
 13 15  1  0
 13 14  2  0
 15 16  1  0
 16 17  1  1
 18 22  1  0
 18 17  1  0
 19 18  2  0
 20 16  1  0
 20 21  2  0
 24 23  1  6
 24 26  1  0
 25 24  1  0
 27 26  1  6
 27 28  1  0
 28 20  1  0
 29 27  1  0
 30 29  1  0
 31 29  2  0
M  END
$$$$
