WDL.pdb
     RDKit          3D

 31 32  0  0  1  0  0  0  0  0999 V2000
   21.7657  -18.8007  -13.8765 N   0  0  0  0  0  0  0  0  0  0  0  0
   23.1644  -19.0753  -13.4734 C   0  0  1  0  0  0  0  0  0  0  0  0
   23.1880  -20.4537  -12.8781 C   0  0  0  0  0  0  0  0  0  0  0  0
   23.2996  -20.5298  -11.4257 C   0  0  0  0  0  0  0  0  0  0  0  0
   22.2778  -21.0826  -10.6308 C   0  0  0  0  0  0  0  0  0  0  0  0
   22.6840  -21.0568   -9.3607 N   0  0  0  0  0  0  0  0  0  0  0  0
   23.9020  -20.5204   -9.2969 C   0  0  0  0  0  0  0  0  0  0  0  0
   24.7070  -20.2765   -8.2266 C   0  0  0  0  0  0  0  0  0  0  0  0
   25.9439  -19.6830   -8.4172 C   0  0  0  0  0  0  0  0  0  0  0  0
   26.3530  -19.3431   -9.6823 C   0  0  0  0  0  0  0  0  0  0  0  0
   25.5285  -19.5933  -10.7811 C   0  0  0  0  0  0  0  0  0  0  0  0
   24.3130  -20.1808  -10.5694 C   0  0  0  0  0  0  0  0  0  0  0  0
   23.9967  -18.9925  -14.6753 C   0  0  0  0  0  0  0  0  0  0  0  0
   23.5347  -19.5337  -15.7275 O   0  0  0  0  0  0  0  0  0  0  0  0
   25.2759  -18.3506  -14.7243 N   0  0  0  0  0  0  0  0  0  0  0  0
   26.1777  -18.7245  -15.7611 C   0  0  1  0  0  0  0  0  0  0  0  0
   27.1724  -17.6311  -16.0017 C   0  0  0  0  0  0  0  0  0  0  0  0
   26.5622  -16.2929  -16.1232 C   0  0  0  0  0  0  0  0  0  0  0  0
   25.5607  -16.0850  -16.8780 O   0  0  0  0  0  0  0  0  0  0  0  0
   26.8785  -20.0129  -15.4761 C   0  0  0  0  0  0  0  0  0  0  0  0
   27.7819  -20.4841  -16.2045 O   0  0  0  0  0  0  0  0  0  0  0  0
   27.0259  -15.1830  -15.4374 O   0  0  0  0  0  0  0  0  0  0  0  0
   29.7842  -20.4915  -12.8379 C   0  0  0  0  0  0  0  0  0  0  0  0
   28.4724  -20.7021  -12.1920 C   0  0  2  0  0  0  0  0  0  0  0  0
   28.7000  -20.7966  -10.6598 C   0  0  0  0  0  0  0  0  0  0  0  0
   27.6682  -21.8922  -12.5429 C   0  0  0  0  0  0  0  0  0  0  0  0
   27.2045  -22.0066  -13.9218 C   0  0  2  0  0  0  0  0  0  0  0  0
   26.5182  -20.7525  -14.3312 N   0  0  0  0  0  0  0  0  0  0  0  0
   26.3724  -23.0982  -14.3730 C   0  0  0  0  0  0  0  0  0  0  0  0
   26.6926  -24.4340  -14.5207 O   0  0  0  0  0  0  0  0  0  0  0  0
   25.1503  -22.8364  -14.7033 O   0  0  0  0  0  0  0  0  0  0  0  0
  2  1  1  6
  2  3  1  0
  2 13  1  0
  3  4  1  0
  4  5  2  0
  5  6  1  0
  7  6  1  0
  8  7  2  0
  9  8  1  0
 10 11  1  0
 10  9  2  0
 11 12  2  0
 12  4  1  0
 12  7  1  0
 13 15  1  0
 13 14  2  0
 15 16  1  0
 16 17  1  1
 18 22  1  0
 18 17  1  0
 19 18  2  0
 20 16  1  0
 20 21  2  0
 24 23  1  6
 24 26  1  0
 25 24  1  0
 27 26  1  1
 27 28  1  0
 28 20  1  0
 29 27  1  0
 30 29  1  0
 31 29  2  0
M  END
$$$$
