WDL.pdb
     RDKit          3D

 31 32  0  0  1  0  0  0  0  0999 V2000
   23.7228  -28.3812  -22.0042 N   0  0  0  0  0  0  0  0  0  0  0  0
   24.0854  -27.8532  -20.6686 C   0  0  1  0  0  0  0  0  0  0  0  0
   22.8719  -27.1531  -20.1281 C   0  0  0  0  0  0  0  0  0  0  0  0
   22.5515  -25.8604  -20.7230 C   0  0  0  0  0  0  0  0  0  0  0  0
   21.3715  -25.6558  -21.4626 C   0  0  0  0  0  0  0  0  0  0  0  0
   21.3345  -24.3754  -21.8342 N   0  0  0  0  0  0  0  0  0  0  0  0
   22.4195  -23.7511  -21.3775 C   0  0  0  0  0  0  0  0  0  0  0  0
   22.8207  -22.4577  -21.5158 C   0  0  0  0  0  0  0  0  0  0  0  0
   24.0181  -22.0452  -20.9550 C   0  0  0  0  0  0  0  0  0  0  0  0
   24.7949  -22.9403  -20.2631 C   0  0  0  0  0  0  0  0  0  0  0  0
   24.3842  -24.2672  -20.1200 C   0  0  0  0  0  0  0  0  0  0  0  0
   23.1987  -24.6516  -20.6806 C   0  0  0  0  0  0  0  0  0  0  0  0
   24.4693  -28.9912  -19.8310 C   0  0  0  0  0  0  0  0  0  0  0  0
   23.8478  -30.0810  -20.0296 O   0  0  0  0  0  0  0  0  0  0  0  0
   25.4835  -28.9398  -18.8213 N   0  0  0  0  0  0  0  0  0  0  0  0
   25.7001  -30.1004  -18.0247 C   0  0  1  0  0  0  0  0  0  0  0  0
   27.0154  -30.0036  -17.3152 C   0  0  0  0  0  0  0  0  0  0  0  0
   27.4355  -31.2646  -16.6737 C   0  0  0  0  0  0  0  0  0  0  0  0
   26.6659  -32.2754  -16.6276 O   0  0  0  0  0  0  0  0  0  0  0  0
   24.5967  -30.3397  -17.0462 C   0  0  0  0  0  0  0  0  0  0  0  0
   24.0493  -29.4276  -16.3851 O   0  0  0  0  0  0  0  0  0  0  0  0
   28.6762  -31.4389  -16.0843 O   0  0  0  0  0  0  0  0  0  0  0  0
   20.3208  -31.3344  -17.4446 C   0  0  0  0  0  0  0  0  0  0  0  0
   21.3049  -32.4131  -17.6688 C   0  0  2  0  0  0  0  0  0  0  0  0
   20.5470  -33.6482  -18.2244 C   0  0  0  0  0  0  0  0  0  0  0  0
   22.1028  -32.9216  -16.5325 C   0  0  0  0  0  0  0  0  0  0  0  0
   23.0346  -31.9948  -15.8984 C   0  0  2  0  0  0  0  0  0  0  0  0
   24.1325  -31.6553  -16.8421 N   0  0  0  0  0  0  0  0  0  0  0  0
   23.6569  -32.2703  -14.6238 C   0  0  0  0  0  0  0  0  0  0  0  0
   24.9924  -32.2097  -14.2755 O   0  0  0  0  0  0  0  0  0  0  0  0
   22.8990  -32.6356  -13.6423 O   0  0  0  0  0  0  0  0  0  0  0  0
  2  1  1  6
  2  3  1  0
  2 13  1  0
  3  4  1  0
  4  5  2  0
  5  6  1  0
  7  6  1  0
  8  7  2  0
  9  8  1  0
 10 11  1  0
 10  9  2  0
 11 12  2  0
 12  4  1  0
 12  7  1  0
 13 15  1  0
 13 14  2  0
 15 16  1  0
 16 17  1  1
 18 22  1  0
 18 17  1  0
 19 18  2  0
 20 16  1  0
 20 21  2  0
 24 23  1  1
 24 26  1  0
 25 24  1  0
 27 26  1  6
 27 28  1  0
 28 20  1  0
 29 27  1  0
 30 29  1  0
 31 29  2  0
M  END
$$$$
