WDL.pdb
     RDKit          3D

 31 32  0  0  1  0  0  0  0  0999 V2000
   27.4941  -17.9985  -15.7407 N   0  0  0  0  0  0  0  0  0  0  0  0
   26.9873  -19.1141  -14.9085 C   0  0  1  0  0  0  0  0  0  0  0  0
   27.5448  -18.9214  -13.5277 C   0  0  0  0  0  0  0  0  0  0  0  0
   27.2882  -19.9918  -12.5706 C   0  0  0  0  0  0  0  0  0  0  0  0
   27.5710  -21.3380  -12.8694 C   0  0  0  0  0  0  0  0  0  0  0  0
   27.2778  -22.0696  -11.7934 N   0  0  0  0  0  0  0  0  0  0  0  0
   26.8243  -21.2721  -10.8269 C   0  0  0  0  0  0  0  0  0  0  0  0
   26.3929  -21.5628   -9.5690 C   0  0  0  0  0  0  0  0  0  0  0  0
   25.9446  -20.5452   -8.7432 C   0  0  0  0  0  0  0  0  0  0  0  0
   25.9367  -19.2494   -9.1953 C   0  0  0  0  0  0  0  0  0  0  0  0
   26.3796  -18.9499  -10.4852 C   0  0  0  0  0  0  0  0  0  0  0  0
   26.8186  -19.9696  -11.2819 C   0  0  0  0  0  0  0  0  0  0  0  0
   25.5247  -19.0430  -14.9145 C   0  0  0  0  0  0  0  0  0  0  0  0
   25.0093  -17.8883  -14.7951 O   0  0  0  0  0  0  0  0  0  0  0  0
   24.6654  -20.1814  -15.0422 N   0  0  0  0  0  0  0  0  0  0  0  0
   23.2574  -19.9682  -15.0202 C   0  0  1  0  0  0  0  0  0  0  0  0
   22.6833  -20.1583  -16.3902 C   0  0  0  0  0  0  0  0  0  0  0  0
   22.4860  -18.8960  -17.1290 C   0  0  0  0  0  0  0  0  0  0  0  0
   22.7103  -18.8146  -18.3777 O   0  0  0  0  0  0  0  0  0  0  0  0
   22.5584  -20.8481  -14.0356 C   0  0  0  0  0  0  0  0  0  0  0  0
   22.8288  -22.0609  -13.8788 O   0  0  0  0  0  0  0  0  0  0  0  0
   22.0504  -17.7265  -16.5293 O   0  0  0  0  0  0  0  0  0  0  0  0
   20.5634  -20.6370   -8.4387 C   0  0  0  0  0  0  0  0  0  0  0  0
   21.0842  -21.0845   -9.7468 C   0  0  2  0  0  0  0  0  0  0  0  0
   22.6326  -20.9900   -9.7061 C   0  0  0  0  0  0  0  0  0  0  0  0
   20.6802  -20.3703  -10.9768 C   0  0  0  0  0  0  0  0  0  0  0  0
   20.7698  -21.1001  -12.2372 C   0  0  2  0  0  0  0  0  0  0  0  0
   21.5373  -20.3030  -13.2307 N   0  0  0  0  0  0  0  0  0  0  0  0
   19.6047  -21.6059  -12.9259 C   0  0  0  0  0  0  0  0  0  0  0  0
   18.9554  -22.8149  -12.7666 O   0  0  0  0  0  0  0  0  0  0  0  0
   19.0622  -20.8614  -13.8329 O   0  0  0  0  0  0  0  0  0  0  0  0
  2  1  1  6
  2  3  1  0
  2 13  1  0
  3  4  1  0
  4  5  2  0
  5  6  1  0
  7  6  1  0
  8  7  2  0
  9  8  1  0
 10 11  1  0
 10  9  2  0
 11 12  2  0
 12  4  1  0
 12  7  1  0
 13 15  1  0
 13 14  2  0
 15 16  1  0
 16 17  1  6
 18 22  1  0
 18 17  1  0
 19 18  2  0
 20 16  1  0
 20 21  2  0
 24 23  1  1
 24 26  1  0
 25 24  1  0
 27 26  1  1
 27 28  1  0
 28 20  1  0
 29 27  1  0
 30 29  1  0
 31 29  2  0
M  END
$$$$
