WDL.pdb
     RDKit          3D

 31 32  0  0  1  0  0  0  0  0999 V2000
   18.5562  -22.5366  -13.3133 N   0  0  0  0  0  0  0  0  0  0  0  0
   19.3279  -22.2043  -14.5333 C   0  0  1  0  0  0  0  0  0  0  0  0
   19.1776  -20.7275  -14.7601 C   0  0  0  0  0  0  0  0  0  0  0  0
   18.1123  -20.3170  -15.6679 C   0  0  0  0  0  0  0  0  0  0  0  0
   16.9331  -19.7066  -15.2006 C   0  0  0  0  0  0  0  0  0  0  0  0
   16.1776  -19.4059  -16.2578 N   0  0  0  0  0  0  0  0  0  0  0  0
   16.8025  -19.7882  -17.3708 C   0  0  0  0  0  0  0  0  0  0  0  0
   16.4202  -19.7032  -18.6745 C   0  0  0  0  0  0  0  0  0  0  0  0
   17.2498  -20.1958  -19.6682 C   0  0  0  0  0  0  0  0  0  0  0  0
   18.4525  -20.7673  -19.3357 C   0  0  0  0  0  0  0  0  0  0  0  0
   18.8461  -20.8545  -17.9988 C   0  0  0  0  0  0  0  0  0  0  0  0
   18.0122  -20.3608  -17.0354 C   0  0  0  0  0  0  0  0  0  0  0  0
   20.7238  -22.5732  -14.2893 C   0  0  0  0  0  0  0  0  0  0  0  0
   21.1116  -22.5700  -13.0798 O   0  0  0  0  0  0  0  0  0  0  0  0
   21.6534  -22.9266  -15.3197 N   0  0  0  0  0  0  0  0  0  0  0  0
   22.9583  -23.3472  -14.9341 C   0  0  1  0  0  0  0  0  0  0  0  0
   23.5157  -24.2996  -15.9465 C   0  0  0  0  0  0  0  0  0  0  0  0
   24.7546  -24.9708  -15.5076 C   0  0  0  0  0  0  0  0  0  0  0  0
   25.3294  -25.8443  -16.2306 O   0  0  0  0  0  0  0  0  0  0  0  0
   23.8936  -22.2008  -14.7267 C   0  0  0  0  0  0  0  0  0  0  0  0
   23.8048  -21.1156  -15.3458 O   0  0  0  0  0  0  0  0  0  0  0  0
   25.3729  -24.7054  -14.2974 O   0  0  0  0  0  0  0  0  0  0  0  0
   24.5428  -20.1242  -10.8170 C   0  0  0  0  0  0  0  0  0  0  0  0
   25.3547  -21.3388  -11.0360 C   0  0  2  0  0  0  0  0  0  0  0  0
   26.1336  -21.6394   -9.7278 C   0  0  0  0  0  0  0  0  0  0  0  0
   26.3713  -21.3541  -12.1096 C   0  0  0  0  0  0  0  0  0  0  0  0
   25.8977  -21.2326  -13.4845 C   0  0  2  0  0  0  0  0  0  0  0  0
   24.9383  -22.3274  -13.7885 N   0  0  0  0  0  0  0  0  0  0  0  0
   26.7983  -21.1488  -14.6112 C   0  0  0  0  0  0  0  0  0  0  0  0
   27.5743  -20.0848  -15.0287 O   0  0  0  0  0  0  0  0  0  0  0  0
   26.9237  -22.1884  -15.3693 O   0  0  0  0  0  0  0  0  0  0  0  0
  2  1  1  1
  2  3  1  0
  2 13  1  0
  3  4  1  0
  4  5  2  0
  5  6  1  0
  7  6  1  0
  8  7  2  0
  9  8  1  0
 10 11  1  0
 10  9  2  0
 11 12  2  0
 12  4  1  0
 12  7  1  0
 13 15  1  0
 13 14  2  0
 15 16  1  0
 16 17  1  6
 18 22  1  0
 18 17  1  0
 19 18  2  0
 20 16  1  0
 20 21  2  0
 24 23  1  1
 24 26  1  0
 25 24  1  0
 27 26  1  1
 27 28  1  0
 28 20  1  0
 29 27  1  0
 30 29  1  0
 31 29  2  0
M  END
$$$$
