WDL.pdb
     RDKit          3D

 31 32  0  0  1  0  0  0  0  0999 V2000
   27.8491  -19.2847  -11.9096 N   0  0  0  0  0  0  0  0  0  0  0  0
   27.4830  -20.7183  -11.9792 C   0  0  1  0  0  0  0  0  0  0  0  0
   26.9386  -21.0992  -10.6326 C   0  0  0  0  0  0  0  0  0  0  0  0
   27.8435  -20.9400   -9.4998 C   0  0  0  0  0  0  0  0  0  0  0  0
   27.4113  -20.3963   -8.2754 C   0  0  0  0  0  0  0  0  0  0  0  0
   28.4401  -20.4219   -7.4269 N   0  0  0  0  0  0  0  0  0  0  0  0
   29.5022  -20.9479   -8.0357 C   0  0  0  0  0  0  0  0  0  0  0  0
   30.7673  -21.1622   -7.5811 C   0  0  0  0  0  0  0  0  0  0  0  0
   31.7168  -21.7155   -8.4241 C   0  0  0  0  0  0  0  0  0  0  0  0
   31.3797  -22.0451   -9.7129 C   0  0  0  0  0  0  0  0  0  0  0  0
   30.0822  -21.8263  -10.1804 C   0  0  0  0  0  0  0  0  0  0  0  0
   29.1616  -21.2805   -9.3307 C   0  0  0  0  0  0  0  0  0  0  0  0
   26.4749  -20.8681  -13.0306 C   0  0  0  0  0  0  0  0  0  0  0  0
   25.6136  -19.9400  -13.1314 O   0  0  0  0  0  0  0  0  0  0  0  0
   26.4094  -21.9820  -13.9283 N   0  0  0  0  0  0  0  0  0  0  0  0
   25.3884  -21.9875  -14.9212 C   0  0  1  0  0  0  0  0  0  0  0  0
   25.7123  -22.9836  -15.9916 C   0  0  0  0  0  0  0  0  0  0  0  0
   24.8074  -22.9160  -17.1555 C   0  0  0  0  0  0  0  0  0  0  0  0
   24.8012  -23.8230  -18.0462 O   0  0  0  0  0  0  0  0  0  0  0  0
   24.0340  -22.2572  -14.3510 C   0  0  0  0  0  0  0  0  0  0  0  0
   23.7944  -23.1903  -13.5507 O   0  0  0  0  0  0  0  0  0  0  0  0
   23.9137  -21.8787  -17.3619 O   0  0  0  0  0  0  0  0  0  0  0  0
   21.6026  -20.6065  -11.1720 C   0  0  0  0  0  0  0  0  0  0  0  0
   21.7039  -19.7858  -12.3963 C   0  0  2  0  0  0  0  0  0  0  0  0
   21.0048  -18.4274  -12.1242 C   0  0  0  0  0  0  0  0  0  0  0  0
   21.1170  -20.2826  -13.6592 C   0  0  0  0  0  0  0  0  0  0  0  0
   21.5868  -21.5714  -14.1567 C   0  0  2  0  0  0  0  0  0  0  0  0
   22.9552  -21.4284  -14.7210 N   0  0  0  0  0  0  0  0  0  0  0  0
   20.8313  -22.3608  -15.1021 C   0  0  0  0  0  0  0  0  0  0  0  0
   19.8622  -23.3156  -14.8616 O   0  0  0  0  0  0  0  0  0  0  0  0
   21.0650  -22.1904  -16.3621 O   0  0  0  0  0  0  0  0  0  0  0  0
  2  1  1  1
  2  3  1  0
  2 13  1  0
  3  4  1  0
  4  5  2  0
  5  6  1  0
  7  6  1  0
  8  7  2  0
  9  8  1  0
 10 11  1  0
 10  9  2  0
 11 12  2  0
 12  4  1  0
 12  7  1  0
 13 15  1  0
 13 14  2  0
 15 16  1  0
 16 17  1  6
 18 22  1  0
 18 17  1  0
 19 18  2  0
 20 16  1  0
 20 21  2  0
 24 23  1  1
 24 26  1  0
 25 24  1  0
 27 26  1  6
 27 28  1  0
 28 20  1  0
 29 27  1  0
 30 29  1  0
 31 29  2  0
M  END
$$$$
