WDL.pdb
     RDKit          3D

 31 32  0  0  1  0  0  0  0  0999 V2000
   26.8523  -20.1528  -16.8511 N   0  0  0  0  0  0  0  0  0  0  0  0
   26.8910  -19.3161  -15.6293 C   0  0  1  0  0  0  0  0  0  0  0  0
   26.4200  -17.9449  -16.0202 C   0  0  0  0  0  0  0  0  0  0  0  0
   27.2475  -17.2259  -16.9825 C   0  0  0  0  0  0  0  0  0  0  0  0
   26.6865  -16.3811  -17.9586 C   0  0  0  0  0  0  0  0  0  0  0  0
   27.6850  -15.8333  -18.6529 N   0  0  0  0  0  0  0  0  0  0  0  0
   28.8485  -16.2780  -18.1796 C   0  0  0  0  0  0  0  0  0  0  0  0
   30.1241  -16.0126  -18.5738 C   0  0  0  0  0  0  0  0  0  0  0  0
   31.1854  -16.6222  -17.9254 C   0  0  0  0  0  0  0  0  0  0  0  0
   30.9479  -17.4904  -16.8894 C   0  0  0  0  0  0  0  0  0  0  0  0
   29.6398  -17.7629  -16.4837 C   0  0  0  0  0  0  0  0  0  0  0  0
   28.6085  -17.1493  -17.1371 C   0  0  0  0  0  0  0  0  0  0  0  0
   26.0012  -19.9310  -14.6423 C   0  0  0  0  0  0  0  0  0  0  0  0
   25.0823  -20.6832  -15.0931 O   0  0  0  0  0  0  0  0  0  0  0  0
   26.1090  -19.7310  -13.2284 N   0  0  0  0  0  0  0  0  0  0  0  0
   25.1210  -20.3189  -12.3878 C   0  0  1  0  0  0  0  0  0  0  0  0
   25.5154  -20.1804  -10.9498 C   0  0  0  0  0  0  0  0  0  0  0  0
   24.7256  -21.0281  -10.0357 C   0  0  0  0  0  0  0  0  0  0  0  0
   23.8009  -21.7873  -10.4655 O   0  0  0  0  0  0  0  0  0  0  0  0
   23.7601  -19.7449  -12.6125 C   0  0  0  0  0  0  0  0  0  0  0  0
   23.5615  -18.5863  -13.0447 O   0  0  0  0  0  0  0  0  0  0  0  0
   24.9277  -21.0598   -8.6662 O   0  0  0  0  0  0  0  0  0  0  0  0
   20.4472  -18.3582  -15.0425 C   0  0  0  0  0  0  0  0  0  0  0  0
   21.4538  -19.3921  -15.3596 C   0  0  2  0  0  0  0  0  0  0  0  0
   21.1517  -19.9381  -16.7805 C   0  0  0  0  0  0  0  0  0  0  0  0
   21.5698  -20.5874  -14.4970 C   0  0  0  0  0  0  0  0  0  0  0  0
   21.3413  -20.4082  -13.0670 C   0  0  2  0  0  0  0  0  0  0  0  0
   22.6263  -20.5335  -12.3291 N   0  0  0  0  0  0  0  0  0  0  0  0
   20.3672  -21.1831  -12.3333 C   0  0  0  0  0  0  0  0  0  0  0  0
   20.5605  -22.0423  -11.2689 O   0  0  0  0  0  0  0  0  0  0  0  0
   19.1277  -21.0993  -12.6910 O   0  0  0  0  0  0  0  0  0  0  0  0
  2  1  1  6
  2  3  1  0
  2 13  1  0
  3  4  1  0
  4  5  2  0
  5  6  1  0
  7  6  1  0
  8  7  2  0
  9  8  1  0
 10 11  1  0
 10  9  2  0
 11 12  2  0
 12  4  1  0
 12  7  1  0
 13 15  1  0
 13 14  2  0
 15 16  1  0
 16 17  1  1
 18 22  1  0
 18 17  1  0
 19 18  2  0
 20 16  1  0
 20 21  2  0
 24 23  1  1
 24 26  1  0
 25 24  1  0
 27 26  1  6
 27 28  1  0
 28 20  1  0
 29 27  1  0
 30 29  1  0
 31 29  2  0
M  END
$$$$
