WDL.pdb
     RDKit          3D

 31 32  0  0  1  0  0  0  0  0999 V2000
   24.4320  -19.9826   -9.3662 N   0  0  0  0  0  0  0  0  0  0  0  0
   24.1154  -21.0523   -8.3917 C   0  0  1  0  0  0  0  0  0  0  0  0
   24.5137  -20.5441   -7.0359 C   0  0  0  0  0  0  0  0  0  0  0  0
   25.9051  -20.1345   -6.8811 C   0  0  0  0  0  0  0  0  0  0  0  0
   26.5383  -19.2903   -7.8126 C   0  0  0  0  0  0  0  0  0  0  0  0
   27.7788  -19.0574   -7.3815 N   0  0  0  0  0  0  0  0  0  0  0  0
   27.9757  -19.7025   -6.2323 C   0  0  0  0  0  0  0  0  0  0  0  0
   29.0767  -19.7749   -5.4351 C   0  0  0  0  0  0  0  0  0  0  0  0
   29.0406  -20.5383   -4.2800 C   0  0  0  0  0  0  0  0  0  0  0  0
   27.8970  -21.2183   -3.9436 C   0  0  0  0  0  0  0  0  0  0  0  0
   26.7667  -21.1444   -4.7602 C   0  0  0  0  0  0  0  0  0  0  0  0
   26.8248  -20.3843   -5.8943 C   0  0  0  0  0  0  0  0  0  0  0  0
   22.6763  -21.3112   -8.4692 C   0  0  0  0  0  0  0  0  0  0  0  0
   21.9097  -20.3020   -8.3835 O   0  0  0  0  0  0  0  0  0  0  0  0
   22.1016  -22.6129   -8.6302 N   0  0  0  0  0  0  0  0  0  0  0  0
   20.6825  -22.7203   -8.6861 C   0  0  1  0  0  0  0  0  0  0  0  0
   20.2392  -23.0012  -10.0887 C   0  0  0  0  0  0  0  0  0  0  0  0
   20.1186  -21.7907  -10.9244 C   0  0  0  0  0  0  0  0  0  0  0  0
   20.1994  -20.6256  -10.4223 O   0  0  0  0  0  0  0  0  0  0  0  0
   20.1476  -23.7574   -7.7530 C   0  0  0  0  0  0  0  0  0  0  0  0
   20.7962  -24.7685   -7.3985 O   0  0  0  0  0  0  0  0  0  0  0  0
   19.9116  -21.8316  -12.2929 O   0  0  0  0  0  0  0  0  0  0  0  0
   15.0562  -24.3761   -4.1421 C   0  0  0  0  0  0  0  0  0  0  0  0
   16.3168  -24.8855   -4.7199 C   0  0  2  0  0  0  0  0  0  0  0  0
   17.2475  -25.3042   -3.5508 C   0  0  0  0  0  0  0  0  0  0  0  0
   17.1369  -24.0025   -5.5767 C   0  0  0  0  0  0  0  0  0  0  0  0
   18.1915  -24.6263   -6.3691 C   0  0  2  0  0  0  0  0  0  0  0  0
   18.8458  -23.6079   -7.2329 N   0  0  0  0  0  0  0  0  0  0  0  0
   17.9555  -25.7832   -7.2019 C   0  0  0  0  0  0  0  0  0  0  0  0
   18.2508  -27.1098   -6.9539 O   0  0  0  0  0  0  0  0  0  0  0  0
   17.3983  -25.6008   -8.3541 O   0  0  0  0  0  0  0  0  0  0  0  0
  2  1  1  6
  2  3  1  0
  2 13  1  0
  3  4  1  0
  4  5  2  0
  5  6  1  0
  7  6  1  0
  8  7  2  0
  9  8  1  0
 10 11  1  0
 10  9  2  0
 11 12  2  0
 12  4  1  0
 12  7  1  0
 13 15  1  0
 13 14  2  0
 15 16  1  0
 16 17  1  6
 18 22  1  0
 18 17  1  0
 19 18  2  0
 20 16  1  0
 20 21  2  0
 24 23  1  1
 24 26  1  0
 25 24  1  0
 27 26  1  6
 27 28  1  0
 28 20  1  0
 29 27  1  0
 30 29  1  0
 31 29  2  0
M  END
$$$$
