WDL.pdb
     RDKit          3D

 31 32  0  0  1  0  0  0  0  0999 V2000
   26.7839  -19.8713  -11.6746 N   0  0  0  0  0  0  0  0  0  0  0  0
   26.4503  -21.3145  -11.6645 C   0  0  1  0  0  0  0  0  0  0  0  0
   25.9862  -21.6491  -10.2762 C   0  0  0  0  0  0  0  0  0  0  0  0
   26.7673  -21.0880   -9.1796 C   0  0  0  0  0  0  0  0  0  0  0  0
   26.1667  -20.3505   -8.1419 C   0  0  0  0  0  0  0  0  0  0  0  0
   27.1189  -20.0131   -7.2711 N   0  0  0  0  0  0  0  0  0  0  0  0
   28.2905  -20.4897   -7.6906 C   0  0  0  0  0  0  0  0  0  0  0  0
   29.5339  -20.3873   -7.1463 C   0  0  0  0  0  0  0  0  0  0  0  0
   30.6165  -20.9627   -7.7908 C   0  0  0  0  0  0  0  0  0  0  0  0
   30.4323  -21.6328   -8.9742 C   0  0  0  0  0  0  0  0  0  0  0  0
   29.1572  -21.7391   -9.5333 C   0  0  0  0  0  0  0  0  0  0  0  0
   28.1037  -21.1647   -8.8794 C   0  0  0  0  0  0  0  0  0  0  0  0
   25.3930  -21.5323  -12.6539 C   0  0  0  0  0  0  0  0  0  0  0  0
   24.6660  -20.5312  -12.9415 O   0  0  0  0  0  0  0  0  0  0  0  0
   25.1402  -22.7866  -13.2969 N   0  0  0  0  0  0  0  0  0  0  0  0
   24.1562  -22.8297  -14.3257 C   0  0  1  0  0  0  0  0  0  0  0  0
   24.3161  -24.0740  -15.1435 C   0  0  0  0  0  0  0  0  0  0  0  0
   23.4866  -24.0899  -16.3641 C   0  0  0  0  0  0  0  0  0  0  0  0
   23.5065  -25.0741  -17.1685 O   0  0  0  0  0  0  0  0  0  0  0  0
   22.7637  -22.7315  -13.7932 C   0  0  0  0  0  0  0  0  0  0  0  0
   22.3200  -23.4639  -12.8792 O   0  0  0  0  0  0  0  0  0  0  0  0
   22.6400  -23.0534  -16.7191 O   0  0  0  0  0  0  0  0  0  0  0  0
   19.8238  -19.8865  -11.1440 C   0  0  0  0  0  0  0  0  0  0  0  0
   20.6104  -19.4234  -12.3056 C   0  0  2  0  0  0  0  0  0  0  0  0
   20.3482  -17.9049  -12.4899 C   0  0  0  0  0  0  0  0  0  0  0  0
   20.3739  -20.0261  -13.6350 C   0  0  0  0  0  0  0  0  0  0  0  0
   20.5494  -21.4694  -13.7587 C   0  0  2  0  0  0  0  0  0  0  0  0
   21.8871  -21.7694  -14.3351 N   0  0  0  0  0  0  0  0  0  0  0  0
   19.6025  -22.3097  -14.4550 C   0  0  0  0  0  0  0  0  0  0  0  0
   19.7268  -22.9294  -15.6835 O   0  0  0  0  0  0  0  0  0  0  0  0
   18.4610  -22.5370  -13.8923 O   0  0  0  0  0  0  0  0  0  0  0  0
  2  1  1  1
  2  3  1  0
  2 13  1  0
  3  4  1  0
  4  5  2  0
  5  6  1  0
  7  6  1  0
  8  7  2  0
  9  8  1  0
 10 11  1  0
 10  9  2  0
 11 12  2  0
 12  4  1  0
 12  7  1  0
 13 15  1  0
 13 14  2  0
 15 16  1  0
 16 17  1  1
 18 22  1  0
 18 17  1  0
 19 18  2  0
 20 16  1  0
 20 21  2  0
 24 23  1  1
 24 26  1  0
 25 24  1  0
 27 26  1  6
 27 28  1  0
 28 20  1  0
 29 27  1  0
 30 29  1  0
 31 29  2  0
M  END
$$$$
