WDL.pdb
     RDKit          3D

 31 32  0  0  1  0  0  0  0  0999 V2000
   27.5503  -20.1964  -16.1078 N   0  0  0  0  0  0  0  0  0  0  0  0
   26.6576  -20.7997  -15.0912 C   0  0  1  0  0  0  0  0  0  0  0  0
   26.6718  -19.8890  -13.8974 C   0  0  0  0  0  0  0  0  0  0  0  0
   27.9516  -19.7368  -13.2143 C   0  0  0  0  0  0  0  0  0  0  0  0
   28.6722  -18.5281  -13.2491 C   0  0  0  0  0  0  0  0  0  0  0  0
   29.7666  -18.6790  -12.5016 N   0  0  0  0  0  0  0  0  0  0  0  0
   29.7883  -19.9104  -11.9931 C   0  0  0  0  0  0  0  0  0  0  0  0
   30.7030  -20.5210  -11.1910 C   0  0  0  0  0  0  0  0  0  0  0  0
   30.5090  -21.8366  -10.8038 C   0  0  0  0  0  0  0  0  0  0  0  0
   29.3972  -22.5192  -11.2295 C   0  0  0  0  0  0  0  0  0  0  0  0
   28.4577  -21.8938  -12.0518 C   0  0  0  0  0  0  0  0  0  0  0  0
   28.6691  -20.5950  -12.4203 C   0  0  0  0  0  0  0  0  0  0  0  0
   25.3199  -20.8986  -15.6784 C   0  0  0  0  0  0  0  0  0  0  0  0
   24.8945  -19.8781  -16.3037 O   0  0  0  0  0  0  0  0  0  0  0  0
   24.4847  -22.0581  -15.5841 N   0  0  0  0  0  0  0  0  0  0  0  0
   23.0975  -21.9141  -15.8729 C   0  0  1  0  0  0  0  0  0  0  0  0
   22.5216  -23.2242  -16.3139 C   0  0  0  0  0  0  0  0  0  0  0  0
   21.1223  -23.1302  -16.7737 C   0  0  0  0  0  0  0  0  0  0  0  0
   20.8011  -22.4336  -17.7873 O   0  0  0  0  0  0  0  0  0  0  0  0
   22.3239  -21.3672  -14.7177 C   0  0  0  0  0  0  0  0  0  0  0  0
   22.6146  -21.5957  -13.5210 O   0  0  0  0  0  0  0  0  0  0  0  0
   20.0730  -23.7811  -16.1472 O   0  0  0  0  0  0  0  0  0  0  0  0
   19.6999  -16.2092  -13.1718 C   0  0  0  0  0  0  0  0  0  0  0  0
   19.8768  -17.6536  -12.9172 C   0  0  2  0  0  0  0  0  0  0  0  0
   20.5848  -17.8173  -11.5459 C   0  0  0  0  0  0  0  0  0  0  0  0
   20.6641  -18.4712  -13.8648 C   0  0  0  0  0  0  0  0  0  0  0  0
   20.4065  -19.9073  -13.8874 C   0  0  2  0  0  0  0  0  0  0  0  0
   21.2038  -20.5481  -14.9668 N   0  0  0  0  0  0  0  0  0  0  0  0
   19.0728  -20.4555  -13.9790 C   0  0  0  0  0  0  0  0  0  0  0  0
   18.5226  -21.2471  -14.9685 O   0  0  0  0  0  0  0  0  0  0  0  0
   18.2382  -20.1892  -13.0283 O   0  0  0  0  0  0  0  0  0  0  0  0
  2  1  1  6
  2  3  1  0
  2 13  1  0
  3  4  1  0
  4  5  2  0
  5  6  1  0
  7  6  1  0
  8  7  2  0
  9  8  1  0
 10 11  1  0
 10  9  2  0
 11 12  2  0
 12  4  1  0
 12  7  1  0
 13 15  1  0
 13 14  2  0
 15 16  1  0
 16 17  1  1
 18 22  1  0
 18 17  1  0
 19 18  2  0
 20 16  1  0
 20 21  2  0
 24 23  1  6
 24 26  1  0
 25 24  1  0
 27 26  1  6
 27 28  1  0
 28 20  1  0
 29 27  1  0
 30 29  1  0
 31 29  2  0
M  END
$$$$
