WDL.pdb
     RDKit          3D

 31 32  0  0  1  0  0  0  0  0999 V2000
   25.7591  -19.4084  -11.1743 N   0  0  0  0  0  0  0  0  0  0  0  0
   26.4643  -20.6475  -11.5763 C   0  0  1  0  0  0  0  0  0  0  0  0
   26.5404  -21.5247  -10.3600 C   0  0  0  0  0  0  0  0  0  0  0  0
   26.6850  -20.8433   -9.0784 C   0  0  0  0  0  0  0  0  0  0  0  0
   25.5783  -20.3051   -8.3951 C   0  0  0  0  0  0  0  0  0  0  0  0
   26.0140  -19.7932   -7.2431 N   0  0  0  0  0  0  0  0  0  0  0  0
   27.3314  -19.9713   -7.1506 C   0  0  0  0  0  0  0  0  0  0  0  0
   28.2073  -19.6080   -6.1740 C   0  0  0  0  0  0  0  0  0  0  0  0
   29.5550  -19.8936   -6.3177 C   0  0  0  0  0  0  0  0  0  0  0  0
   30.0020  -20.5405   -7.4424 C   0  0  0  0  0  0  0  0  0  0  0  0
   29.1044  -20.9142   -8.4446 C   0  0  0  0  0  0  0  0  0  0  0  0
   27.7793  -20.6233   -8.2810 C   0  0  0  0  0  0  0  0  0  0  0  0
   25.6847  -21.2745  -12.6456 C   0  0  0  0  0  0  0  0  0  0  0  0
   26.1504  -22.3497  -13.1358 O   0  0  0  0  0  0  0  0  0  0  0  0
   24.4547  -20.7491  -13.1573 N   0  0  0  0  0  0  0  0  0  0  0  0
   23.8797  -21.3736  -14.3008 C   0  0  1  0  0  0  0  0  0  0  0  0
   22.4243  -21.6397  -14.0688 C   0  0  0  0  0  0  0  0  0  0  0  0
   21.8414  -20.8304  -12.9809 C   0  0  0  0  0  0  0  0  0  0  0  0
   22.1213  -19.5977  -12.8461 O   0  0  0  0  0  0  0  0  0  0  0  0
   24.0708  -20.5746  -15.5487 C   0  0  0  0  0  0  0  0  0  0  0  0
   23.4505  -20.7975  -16.6138 O   0  0  0  0  0  0  0  0  0  0  0  0
   20.9622  -21.3431  -12.0420 O   0  0  0  0  0  0  0  0  0  0  0  0
   26.7191  -16.7144  -14.8803 C   0  0  0  0  0  0  0  0  0  0  0  0
   27.3414  -18.0094  -15.2244 C   0  0  2  0  0  0  0  0  0  0  0  0
   28.8815  -17.8188  -15.2224 C   0  0  0  0  0  0  0  0  0  0  0  0
   27.0273  -18.6493  -16.5198 C   0  0  0  0  0  0  0  0  0  0  0  0
   25.6311  -18.9817  -16.7835 C   0  0  2  0  0  0  0  0  0  0  0  0
   24.9937  -19.5088  -15.5478 N   0  0  0  0  0  0  0  0  0  0  0  0
   25.2320  -19.8591  -17.8599 C   0  0  0  0  0  0  0  0  0  0  0  0
   25.4981  -21.2038  -18.0316 O   0  0  0  0  0  0  0  0  0  0  0  0
   24.5320  -19.3595  -18.8251 O   0  0  0  0  0  0  0  0  0  0  0  0
  2  1  1  1
  2  3  1  0
  2 13  1  0
  3  4  1  0
  4  5  2  0
  5  6  1  0
  7  6  1  0
  8  7  2  0
  9  8  1  0
 10 11  1  0
 10  9  2  0
 11 12  2  0
 12  4  1  0
 12  7  1  0
 13 15  1  0
 13 14  2  0
 15 16  1  0
 16 17  1  1
 18 22  1  0
 18 17  1  0
 19 18  2  0
 20 16  1  0
 20 21  2  0
 24 23  1  6
 24 26  1  0
 25 24  1  0
 27 26  1  1
 27 28  1  0
 28 20  1  0
 29 27  1  0
 30 29  1  0
 31 29  2  0
M  END
$$$$
