WDL.pdb
     RDKit          3D

 31 32  0  0  1  0  0  0  0  0999 V2000
   27.7881  -19.4788  -10.4535 N   0  0  0  0  0  0  0  0  0  0  0  0
   27.1925  -20.8336  -10.5170 C   0  0  1  0  0  0  0  0  0  0  0  0
   26.4830  -21.0636   -9.2137 C   0  0  0  0  0  0  0  0  0  0  0  0
   27.1636  -20.5902   -8.0136 C   0  0  0  0  0  0  0  0  0  0  0  0
   26.5556  -19.6845   -7.1240 C   0  0  0  0  0  0  0  0  0  0  0  0
   27.3949  -19.4779   -6.1083 N   0  0  0  0  0  0  0  0  0  0  0  0
   28.5016  -20.1958   -6.2963 C   0  0  0  0  0  0  0  0  0  0  0  0
   29.6304  -20.2964   -5.5422 C   0  0  0  0  0  0  0  0  0  0  0  0
   30.6695  -21.1090   -5.9643 C   0  0  0  0  0  0  0  0  0  0  0  0
   30.5581  -21.8087   -7.1396 C   0  0  0  0  0  0  0  0  0  0  0  0
   29.4005  -21.7069   -7.9138 C   0  0  0  0  0  0  0  0  0  0  0  0
   28.3876  -20.9001   -7.4772 C   0  0  0  0  0  0  0  0  0  0  0  0
   26.2633  -20.8570  -11.6485 C   0  0  0  0  0  0  0  0  0  0  0  0
   25.8285  -19.7341  -12.0528 O   0  0  0  0  0  0  0  0  0  0  0  0
   25.8274  -22.0523  -12.3057 N   0  0  0  0  0  0  0  0  0  0  0  0
   25.0006  -21.9238  -13.4582 C   0  0  1  0  0  0  0  0  0  0  0  0
   25.5224  -22.7830  -14.5683 C   0  0  0  0  0  0  0  0  0  0  0  0
   24.7861  -22.6214  -15.8371 C   0  0  0  0  0  0  0  0  0  0  0  0
   23.8232  -21.7986  -15.9468 O   0  0  0  0  0  0  0  0  0  0  0  0
   23.5693  -22.2476  -13.1775 C   0  0  0  0  0  0  0  0  0  0  0  0
   23.1868  -23.3488  -12.7196 O   0  0  0  0  0  0  0  0  0  0  0  0
   25.0824  -23.3406  -16.9826 O   0  0  0  0  0  0  0  0  0  0  0  0
   20.4286  -20.5804  -10.2618 C   0  0  0  0  0  0  0  0  0  0  0  0
   20.7833  -19.7598  -11.4380 C   0  0  2  0  0  0  0  0  0  0  0  0
   20.0291  -18.4081  -11.3269 C   0  0  0  0  0  0  0  0  0  0  0  0
   20.4867  -20.2635  -12.7962 C   0  0  0  0  0  0  0  0  0  0  0  0
   21.1305  -21.5071  -13.2066 C   0  0  2  0  0  0  0  0  0  0  0  0
   22.5815  -21.2750  -13.4347 N   0  0  0  0  0  0  0  0  0  0  0  0
   20.6583  -22.2942  -14.3224 C   0  0  0  0  0  0  0  0  0  0  0  0
   19.5596  -23.1284  -14.3967 O   0  0  0  0  0  0  0  0  0  0  0  0
   21.3296  -22.2501  -15.4263 O   0  0  0  0  0  0  0  0  0  0  0  0
  2  1  1  1
  2  3  1  0
  2 13  1  0
  3  4  1  0
  4  5  2  0
  5  6  1  0
  7  6  1  0
  8  7  2  0
  9  8  1  0
 10 11  1  0
 10  9  2  0
 11 12  2  0
 12  4  1  0
 12  7  1  0
 13 15  1  0
 13 14  2  0
 15 16  1  0
 16 17  1  6
 18 22  1  0
 18 17  1  0
 19 18  2  0
 20 16  1  0
 20 21  2  0
 24 23  1  1
 24 26  1  0
 25 24  1  0
 27 26  1  6
 27 28  1  0
 28 20  1  0
 29 27  1  0
 30 29  1  0
 31 29  2  0
M  END
$$$$
