WDL.pdb
     RDKit          3D

 31 32  0  0  1  0  0  0  0  0999 V2000
   21.7977  -17.1568  -17.3111 N   0  0  0  0  0  0  0  0  0  0  0  0
   22.7731  -18.2585  -17.1409 C   0  0  1  0  0  0  0  0  0  0  0  0
   24.1164  -17.7231  -17.5456 C   0  0  0  0  0  0  0  0  0  0  0  0
   24.3259  -17.5123  -18.9736 C   0  0  0  0  0  0  0  0  0  0  0  0
   24.6852  -16.2544  -19.4932 C   0  0  0  0  0  0  0  0  0  0  0  0
   24.8504  -16.3843  -20.8104 N   0  0  0  0  0  0  0  0  0  0  0  0
   24.6174  -17.6482  -21.1625 C   0  0  0  0  0  0  0  0  0  0  0  0
   24.6485  -18.2467  -22.3847 C   0  0  0  0  0  0  0  0  0  0  0  0
   24.3454  -19.5933  -22.4992 C   0  0  0  0  0  0  0  0  0  0  0  0
   24.0149  -20.3185  -21.3819 C   0  0  0  0  0  0  0  0  0  0  0  0
   23.9833  -19.7058  -20.1275 C   0  0  0  0  0  0  0  0  0  0  0  0
   24.2872  -18.3765  -20.0383 C   0  0  0  0  0  0  0  0  0  0  0  0
   22.7528  -18.6550  -15.7314 C   0  0  0  0  0  0  0  0  0  0  0  0
   22.7900  -17.7180  -14.8747 O   0  0  0  0  0  0  0  0  0  0  0  0
   22.6974  -20.0127  -15.2794 N   0  0  0  0  0  0  0  0  0  0  0  0
   22.7242  -20.2570  -13.8765 C   0  0  1  0  0  0  0  0  0  0  0  0
   21.7294  -21.3169  -13.5162 C   0  0  0  0  0  0  0  0  0  0  0  0
   20.9550  -21.0112  -12.2977 C   0  0  0  0  0  0  0  0  0  0  0  0
   21.1127  -19.9192  -11.6663 O   0  0  0  0  0  0  0  0  0  0  0  0
   24.0846  -20.6302  -13.3843 C   0  0  0  0  0  0  0  0  0  0  0  0
   24.8639  -21.3837  -14.0117 O   0  0  0  0  0  0  0  0  0  0  0  0
   20.0158  -21.8748  -11.7596 O   0  0  0  0  0  0  0  0  0  0  0  0
   24.3356  -21.2787   -9.0944 C   0  0  0  0  0  0  0  0  0  0  0  0
   25.6505  -20.6058   -9.1198 C   0  0  2  0  0  0  0  0  0  0  0  0
   25.7296  -19.6576   -7.8939 C   0  0  0  0  0  0  0  0  0  0  0  0
   26.0226  -19.7733  -10.2837 C   0  0  0  0  0  0  0  0  0  0  0  0
   25.8940  -20.3739  -11.6074 C   0  0  2  0  0  0  0  0  0  0  0  0
   24.5335  -20.1172  -12.1502 N   0  0  0  0  0  0  0  0  0  0  0  0
   26.1822  -21.7672  -11.8590 C   0  0  0  0  0  0  0  0  0  0  0  0
   27.4009  -22.4179  -11.8609 O   0  0  0  0  0  0  0  0  0  0  0  0
   25.1936  -22.5540  -12.1326 O   0  0  0  0  0  0  0  0  0  0  0  0
  2  1  1  1
  2  3  1  0
  2 13  1  0
  3  4  1  0
  4  5  2  0
  5  6  1  0
  7  6  1  0
  8  7  2  0
  9  8  1  0
 10 11  1  0
 10  9  2  0
 11 12  2  0
 12  4  1  0
 12  7  1  0
 13 15  1  0
 13 14  2  0
 15 16  1  0
 16 17  1  6
 18 22  1  0
 18 17  1  0
 19 18  2  0
 20 16  1  0
 20 21  2  0
 24 23  1  6
 24 26  1  0
 25 24  1  0
 27 26  1  1
 27 28  1  0
 28 20  1  0
 29 27  1  0
 30 29  1  0
 31 29  2  0
M  END
$$$$
