MHN.pdb
     RDKit          3D

 27 27  0  0  1  0  0  0  0  0999 V2000
    7.4148  -11.3257   25.7946 C   0  0  0  0  0  0  0  0  0  0  0  0
    6.1569  -12.2756   26.7177 S   0  0  0  0  0  0  0  0  0  0  0  0
    6.5678  -14.0583   26.5510 C   0  0  0  0  0  0  0  0  0  0  0  0
    6.0937  -14.5434   25.2255 C   0  0  0  0  0  0  0  0  0  0  0  0
    6.3893  -15.9906   24.9236 C   0  0  2  0  0  0  0  0  0  0  0  0
    6.9663  -16.5375   26.1474 N   0  0  0  0  0  0  0  0  0  0  0  0
    7.3594  -16.0503   23.8076 C   0  0  0  0  0  0  0  0  0  0  0  0
    7.0713  -16.6628   22.7696 O   0  0  0  0  0  0  0  0  0  0  0  0
    8.6393  -15.4322   23.8501 N   0  0  0  0  0  0  0  0  0  0  0  0
    9.6411  -15.5676   22.8135 C   0  0  1  0  0  0  0  0  0  0  0  0
    9.7554  -14.3242   21.9798 C   0  0  0  0  0  0  0  0  0  0  0  0
    8.6718  -14.1216   21.0307 C   0  0  0  0  0  0  0  0  0  0  0  0
    7.6303  -13.2051   21.0408 C   0  0  0  0  0  0  0  0  0  0  0  0
    6.8650  -13.3984   19.9406 N   0  0  0  0  0  0  0  0  0  0  0  0
    7.4075  -14.4121   19.2498 C   0  0  0  0  0  0  0  0  0  0  0  0
    8.4893  -14.8407   19.9081 N   0  0  0  0  0  0  0  0  0  0  0  0
   10.9344  -16.0471   23.3391 C   0  0  0  0  0  0  0  0  0  0  0  0
   11.1194  -16.0377   24.5853 O   0  0  0  0  0  0  0  0  0  0  0  0
   13.3847  -20.2389   24.5318 N   0  0  0  0  0  0  0  0  0  0  0  0
   12.5400  -20.1536   23.3750 C   0  0  0  0  0  0  0  0  0  0  0  0
   12.4082  -21.1470   22.6331 O   0  0  0  0  0  0  0  0  0  0  0  0
   11.8259  -18.9025   23.0545 C   0  0  0  0  0  0  0  0  0  0  0  0
   12.7240  -17.6994   22.9107 C   0  0  2  0  0  0  0  0  0  0  0  0
   11.9901  -16.5215   22.5177 N   0  0  0  0  0  0  0  0  0  0  0  0
   13.7641  -17.9765   21.8862 C   0  0  0  0  0  0  0  0  0  0  0  0
   15.1115  -18.1216   22.2778 O   0  0  0  0  0  0  0  0  0  0  0  0
   13.5224  -18.0953   20.6517 O   0  0  0  0  0  0  0  0  0  0  0  0
  2  1  1  0
  3  2  1  0
  4  5  1  0
  4  3  1  0
  5  6  1  1
  7  8  2  0
  7  5  1  0
  9  7  1  0
 10  9  1  0
 11 12  1  0
 10 11  1  1
 12 13  2  0
 12 16  1  0
 13 14  1  0
 14 15  1  0
 16 15  2  0
 17 18  2  0
 17 10  1  0
 20 21  2  0
 20 19  1  0
 22 20  1  0
 23 24  1  0
 23 22  1  6
 24 17  1  0
 25 23  1  0
 26 25  1  0
 27 25  2  0
M  END
$$$$
