MHN.pdb
     RDKit          3D

 27 27  0  0  1  0  0  0  0  0999 V2000
    8.2085  -11.5271   26.9376 C   0  0  0  0  0  0  0  0  0  0  0  0
    6.4215  -11.7849   26.6598 S   0  0  0  0  0  0  0  0  0  0  0  0
    6.0485  -13.5482   27.0149 C   0  0  0  0  0  0  0  0  0  0  0  0
    6.9231  -14.4084   26.1710 C   0  0  0  0  0  0  0  0  0  0  0  0
    6.3776  -14.7422   24.8058 C   0  0  2  0  0  0  0  0  0  0  0  0
    5.2118  -15.5871   25.0441 N   0  0  0  0  0  0  0  0  0  0  0  0
    7.4173  -15.4747   24.0492 C   0  0  0  0  0  0  0  0  0  0  0  0
    7.4590  -16.7123   24.0947 O   0  0  0  0  0  0  0  0  0  0  0  0
    8.4013  -14.8315   23.2492 N   0  0  0  0  0  0  0  0  0  0  0  0
    9.3628  -15.5331   22.4247 C   0  0  1  0  0  0  0  0  0  0  0  0
    9.7857  -14.7150   21.2390 C   0  0  0  0  0  0  0  0  0  0  0  0
    8.7167  -14.3877   20.3083 C   0  0  0  0  0  0  0  0  0  0  0  0
    8.0976  -13.1745   20.0442 C   0  0  0  0  0  0  0  0  0  0  0  0
    7.1523  -13.3621   19.0931 N   0  0  0  0  0  0  0  0  0  0  0  0
    7.1712  -14.6618   18.7620 C   0  0  0  0  0  0  0  0  0  0  0  0
    8.1104  -15.2703   19.4935 N   0  0  0  0  0  0  0  0  0  0  0  0
   10.4946  -16.0658   23.2083 C   0  0  0  0  0  0  0  0  0  0  0  0
   11.2672  -15.2520   23.7811 O   0  0  0  0  0  0  0  0  0  0  0  0
   12.8602  -19.7813   26.8507 N   0  0  0  0  0  0  0  0  0  0  0  0
   12.7652  -19.8810   25.4225 C   0  0  0  0  0  0  0  0  0  0  0  0
   13.6684  -20.4555   24.7830 O   0  0  0  0  0  0  0  0  0  0  0  0
   11.6099  -19.3106   24.7028 C   0  0  0  0  0  0  0  0  0  0  0  0
   11.8022  -17.8809   24.2628 C   0  0  2  0  0  0  0  0  0  0  0  0
   10.7662  -17.4510   23.3560 N   0  0  0  0  0  0  0  0  0  0  0  0
   13.1169  -17.7436   23.5836 C   0  0  0  0  0  0  0  0  0  0  0  0
   14.2911  -17.6048   24.3528 O   0  0  0  0  0  0  0  0  0  0  0  0
   13.2642  -17.7420   22.3287 O   0  0  0  0  0  0  0  0  0  0  0  0
  2  1  1  0
  3  2  1  0
  4  5  1  0
  4  3  1  0
  5  6  1  1
  7  8  2  0
  7  5  1  0
  9  7  1  0
 10  9  1  0
 11 12  1  0
 10 11  1  6
 12 13  2  0
 12 16  1  0
 13 14  1  0
 14 15  1  0
 16 15  2  0
 17 18  2  0
 17 10  1  0
 20 21  2  0
 20 19  1  0
 22 20  1  0
 23 24  1  0
 23 22  1  6
 24 17  1  0
 25 23  1  0
 26 25  1  0
 27 25  2  0
M  END
$$$$
