MHN.pdb
     RDKit          3D

 27 27  0  0  1  0  0  0  0  0999 V2000
    6.1986  -12.3164   26.2760 C   0  0  0  0  0  0  0  0  0  0  0  0
    5.9603  -12.1509   24.4725 S   0  0  0  0  0  0  0  0  0  0  0  0
    6.8968  -13.5049   23.6575 C   0  0  0  0  0  0  0  0  0  0  0  0
    8.2321  -13.6288   24.3046 C   0  0  0  0  0  0  0  0  0  0  0  0
    9.1048  -14.7396   23.7779 C   0  0  2  0  0  0  0  0  0  0  0  0
    8.5297  -15.1141   22.4899 N   0  0  0  0  0  0  0  0  0  0  0  0
    9.0533  -15.8710   24.7304 C   0  0  0  0  0  0  0  0  0  0  0  0
    9.0368  -15.6527   25.9500 O   0  0  0  0  0  0  0  0  0  0  0  0
    9.0207  -17.2336   24.3249 N   0  0  0  0  0  0  0  0  0  0  0  0
    9.0020  -18.3535   25.2425 C   0  0  1  0  0  0  0  0  0  0  0  0
    8.8354  -19.6618   24.5253 C   0  0  0  0  0  0  0  0  0  0  0  0
    7.6217  -19.7747   23.7313 C   0  0  0  0  0  0  0  0  0  0  0  0
    6.2903  -19.7617   24.1214 C   0  0  0  0  0  0  0  0  0  0  0  0
    5.5100  -19.8981   23.0233 N   0  0  0  0  0  0  0  0  0  0  0  0
    6.3259  -19.9952   21.9630 C   0  0  0  0  0  0  0  0  0  0  0  0
    7.5893  -19.9206   22.3941 N   0  0  0  0  0  0  0  0  0  0  0  0
   10.1434  -18.3342   26.1782 C   0  0  0  0  0  0  0  0  0  0  0  0
   11.3074  -18.4561   25.7118 O   0  0  0  0  0  0  0  0  0  0  0  0
   10.7072  -15.4350   27.9759 N   0  0  0  0  0  0  0  0  0  0  0  0
   10.7465  -15.8983   29.3333 C   0  0  0  0  0  0  0  0  0  0  0  0
   10.5547  -15.0927   30.2656 O   0  0  0  0  0  0  0  0  0  0  0  0
   11.0116  -17.3179   29.6374 C   0  0  0  0  0  0  0  0  0  0  0  0
   11.1829  -18.1881   28.4175 C   0  0  2  0  0  0  0  0  0  0  0  0
   10.0065  -18.1855   27.5830 N   0  0  0  0  0  0  0  0  0  0  0  0
   11.4642  -19.5847   28.8401 C   0  0  0  0  0  0  0  0  0  0  0  0
   12.7327  -20.1494   28.5914 O   0  0  0  0  0  0  0  0  0  0  0  0
   10.6242  -20.3263   29.4240 O   0  0  0  0  0  0  0  0  0  0  0  0
  2  1  1  0
  3  2  1  0
  4  5  1  0
  4  3  1  0
  5  6  1  6
  7  8  2  0
  7  5  1  0
  9  7  1  0
 10  9  1  0
 11 12  1  0
 10 11  1  6
 12 13  2  0
 12 16  1  0
 13 14  1  0
 14 15  1  0
 16 15  2  0
 17 18  2  0
 17 10  1  0
 20 21  2  0
 20 19  1  0
 22 20  1  0
 23 24  1  0
 23 22  1  1
 24 17  1  0
 25 23  1  0
 26 25  1  0
 27 25  2  0
M  END
$$$$
