MHN.pdb
     RDKit          3D

 27 27  0  0  1  0  0  0  0  0999 V2000
    5.2390  -11.1454   27.5358 C   0  0  0  0  0  0  0  0  0  0  0  0
    6.3920  -11.2192   26.1209 S   0  0  0  0  0  0  0  0  0  0  0  0
    7.3113  -12.8059   26.2301 C   0  0  0  0  0  0  0  0  0  0  0  0
    6.4519  -13.9016   25.7031 C   0  0  0  0  0  0  0  0  0  0  0  0
    7.0758  -15.2740   25.7134 C   0  0  2  0  0  0  0  0  0  0  0  0
    8.1111  -15.2274   26.7409 N   0  0  0  0  0  0  0  0  0  0  0  0
    7.6635  -15.5342   24.3803 C   0  0  0  0  0  0  0  0  0  0  0  0
    6.9378  -15.9013   23.4453 O   0  0  0  0  0  0  0  0  0  0  0  0
    9.0484  -15.3861   24.0938 N   0  0  0  0  0  0  0  0  0  0  0  0
    9.6677  -15.7904   22.8490 C   0  0  1  0  0  0  0  0  0  0  0  0
    9.8992  -14.6226   21.9342 C   0  0  0  0  0  0  0  0  0  0  0  0
    8.7716  -14.2797   21.0815 C   0  0  0  0  0  0  0  0  0  0  0  0
    7.5205  -14.8687   20.9691 C   0  0  0  0  0  0  0  0  0  0  0  0
    6.8021  -14.1985   20.0374 N   0  0  0  0  0  0  0  0  0  0  0  0
    7.5780  -13.2090   19.5704 C   0  0  0  0  0  0  0  0  0  0  0  0
    8.7562  -13.2633   20.1999 N   0  0  0  0  0  0  0  0  0  0  0  0
   10.8689  -16.6215   23.0611 C   0  0  0  0  0  0  0  0  0  0  0  0
   11.7790  -16.1843   23.8147 O   0  0  0  0  0  0  0  0  0  0  0  0
   13.5490  -20.8650   24.2454 N   0  0  0  0  0  0  0  0  0  0  0  0
   12.1306  -20.9112   24.4572 C   0  0  0  0  0  0  0  0  0  0  0  0
   11.6388  -21.8320   25.1390 O   0  0  0  0  0  0  0  0  0  0  0  0
   11.2483  -19.8805   23.8767 C   0  0  0  0  0  0  0  0  0  0  0  0
   11.9721  -18.8349   23.0657 C   0  0  2  0  0  0  0  0  0  0  0  0
   11.0611  -17.8936   22.4620 N   0  0  0  0  0  0  0  0  0  0  0  0
   12.7557  -19.4962   21.9901 C   0  0  0  0  0  0  0  0  0  0  0  0
   14.1582  -19.5952   22.1055 O   0  0  0  0  0  0  0  0  0  0  0  0
   12.2418  -19.9916   20.9475 O   0  0  0  0  0  0  0  0  0  0  0  0
  2  1  1  0
  3  2  1  0
  4  5  1  0
  4  3  1  0
  5  6  1  1
  7  8  2  0
  7  5  1  0
  9  7  1  0
 10  9  1  0
 11 12  1  0
 10 11  1  1
 12 13  2  0
 12 16  1  0
 13 14  1  0
 14 15  1  0
 16 15  2  0
 17 18  2  0
 17 10  1  0
 20 21  2  0
 20 19  1  0
 22 20  1  0
 23 24  1  0
 23 22  1  6
 24 17  1  0
 25 23  1  0
 26 25  1  0
 27 25  2  0
M  END
$$$$
