MHN.pdb
     RDKit          3D

 27 27  0  0  1  0  0  0  0  0999 V2000
    6.4663  -12.5398   26.3983 C   0  0  0  0  0  0  0  0  0  0  0  0
    7.2836  -12.0815   24.8302 S   0  0  0  0  0  0  0  0  0  0  0  0
    6.9011  -13.3881   23.5968 C   0  0  0  0  0  0  0  0  0  0  0  0
    7.6748  -13.1221   22.3528 C   0  0  0  0  0  0  0  0  0  0  0  0
    7.4903  -14.1320   21.2488 C   0  0  2  0  0  0  0  0  0  0  0  0
    6.0477  -14.3037   21.1102 N   0  0  0  0  0  0  0  0  0  0  0  0
    8.1381  -15.3988   21.6560 C   0  0  0  0  0  0  0  0  0  0  0  0
    7.4910  -16.2519   22.2796 O   0  0  0  0  0  0  0  0  0  0  0  0
    9.4957  -15.7100   21.3697 N   0  0  0  0  0  0  0  0  0  0  0  0
   10.1630  -16.9161   21.8131 C   0  0  1  0  0  0  0  0  0  0  0  0
   11.3632  -17.2341   20.9689 C   0  0  0  0  0  0  0  0  0  0  0  0
   12.0259  -18.4876   21.2942 C   0  0  0  0  0  0  0  0  0  0  0  0
   11.4930  -19.7379   21.5728 C   0  0  0  0  0  0  0  0  0  0  0  0
   12.5061  -20.6020   21.8183 N   0  0  0  0  0  0  0  0  0  0  0  0
   13.6532  -19.9170   21.6985 C   0  0  0  0  0  0  0  0  0  0  0  0
   13.3584  -18.6513   21.3844 N   0  0  0  0  0  0  0  0  0  0  0  0
   10.4466  -16.9031   23.2616 C   0  0  0  0  0  0  0  0  0  0  0  0
   11.0735  -15.9226   23.7443 O   0  0  0  0  0  0  0  0  0  0  0  0
    6.8746  -18.0750   25.8488 N   0  0  0  0  0  0  0  0  0  0  0  0
    8.0820  -17.5798   26.4454 C   0  0  0  0  0  0  0  0  0  0  0  0
    8.0897  -16.4515   26.9761 O   0  0  0  0  0  0  0  0  0  0  0  0
    9.3143  -18.3918   26.4372 C   0  0  0  0  0  0  0  0  0  0  0  0
   10.4037  -17.8501   25.5458 C   0  0  2  0  0  0  0  0  0  0  0  0
   10.0521  -17.9374   24.1496 N   0  0  0  0  0  0  0  0  0  0  0  0
   11.6561  -18.6178   25.7706 C   0  0  0  0  0  0  0  0  0  0  0  0
   12.2484  -18.6316   27.0507 O   0  0  0  0  0  0  0  0  0  0  0  0
   12.2474  -19.2794   24.8711 O   0  0  0  0  0  0  0  0  0  0  0  0
  2  1  1  0
  3  2  1  0
  4  5  1  0
  4  3  1  0
  5  6  1  1
  7  8  2  0
  7  5  1  0
  9  7  1  0
 10  9  1  0
 11 12  1  0
 10 11  1  6
 12 13  2  0
 12 16  1  0
 13 14  1  0
 14 15  1  0
 16 15  2  0
 17 18  2  0
 17 10  1  0
 20 21  2  0
 20 19  1  0
 22 20  1  0
 23 24  1  0
 23 22  1  1
 24 17  1  0
 25 23  1  0
 26 25  1  0
 27 25  2  0
M  END
$$$$
