MHN.pdb
     RDKit          3D

 27 27  0  0  1  0  0  0  0  0999 V2000
    7.2126  -11.5170   27.9249 C   0  0  0  0  0  0  0  0  0  0  0  0
    6.4529  -11.5904   26.2653 S   0  0  0  0  0  0  0  0  0  0  0  0
    5.5186  -13.1677   26.1465 C   0  0  0  0  0  0  0  0  0  0  0  0
    6.1628  -14.0371   25.1238 C   0  0  0  0  0  0  0  0  0  0  0  0
    7.3603  -14.8186   25.6017 C   0  0  2  0  0  0  0  0  0  0  0  0
    8.3328  -13.8209   26.0361 N   0  0  0  0  0  0  0  0  0  0  0  0
    7.8862  -15.6138   24.4699 C   0  0  0  0  0  0  0  0  0  0  0  0
    7.2465  -16.5874   24.0477 O   0  0  0  0  0  0  0  0  0  0  0  0
    9.1151  -15.3246   23.8155 N   0  0  0  0  0  0  0  0  0  0  0  0
    9.6522  -16.1005   22.7172 C   0  0  1  0  0  0  0  0  0  0  0  0
    9.9667  -15.2416   21.5266 C   0  0  0  0  0  0  0  0  0  0  0  0
    8.8186  -14.5749   20.9321 C   0  0  0  0  0  0  0  0  0  0  0  0
    7.4621  -14.7402   21.1717 C   0  0  0  0  0  0  0  0  0  0  0  0
    6.7691  -13.8937   20.3738 N   0  0  0  0  0  0  0  0  0  0  0  0
    7.6636  -13.2085   19.6461 C   0  0  0  0  0  0  0  0  0  0  0  0
    8.8892  -13.6213   19.9853 N   0  0  0  0  0  0  0  0  0  0  0  0
   10.7732  -16.9656   23.1337 C   0  0  0  0  0  0  0  0  0  0  0  0
   11.6494  -16.4884   23.9030 O   0  0  0  0  0  0  0  0  0  0  0  0
   10.1953  -19.5301   25.3504 N   0  0  0  0  0  0  0  0  0  0  0  0
   10.6226  -20.6709   24.5921 C   0  0  0  0  0  0  0  0  0  0  0  0
   10.1554  -21.7965   24.8556 O   0  0  0  0  0  0  0  0  0  0  0  0
   11.6090  -20.5257   23.5040 C   0  0  0  0  0  0  0  0  0  0  0  0
   12.0184  -19.1003   23.2292 C   0  0  2  0  0  0  0  0  0  0  0  0
   10.9238  -18.3136   22.7159 N   0  0  0  0  0  0  0  0  0  0  0  0
   13.1234  -19.0844   22.2357 C   0  0  0  0  0  0  0  0  0  0  0  0
   14.3933  -19.5839   22.5931 O   0  0  0  0  0  0  0  0  0  0  0  0
   13.0050  -18.6427   21.0579 O   0  0  0  0  0  0  0  0  0  0  0  0
  2  1  1  0
  3  2  1  0
  4  5  1  0
  4  3  1  0
  5  6  1  6
  7  8  2  0
  7  5  1  0
  9  7  1  0
 10  9  1  0
 11 12  1  0
 10 11  1  6
 12 13  2  0
 12 16  1  0
 13 14  1  0
 14 15  1  0
 16 15  2  0
 17 18  2  0
 17 10  1  0
 20 21  2  0
 20 19  1  0
 22 20  1  0
 23 24  1  0
 23 22  1  6
 24 17  1  0
 25 23  1  0
 26 25  1  0
 27 25  2  0
M  END
$$$$
