MHN.pdb
     RDKit          3D

 27 27  0  0  1  0  0  0  0  0999 V2000
    7.5923  -11.0906   26.7141 C   0  0  0  0  0  0  0  0  0  0  0  0
    6.5053  -12.2572   27.6053 S   0  0  0  0  0  0  0  0  0  0  0  0
    5.7740  -13.3991   26.3660 C   0  0  0  0  0  0  0  0  0  0  0  0
    6.8722  -14.0907   25.6363 C   0  0  0  0  0  0  0  0  0  0  0  0
    6.4308  -15.0198   24.5341 C   0  0  2  0  0  0  0  0  0  0  0  0
    5.6934  -16.0917   25.1953 N   0  0  0  0  0  0  0  0  0  0  0  0
    7.6338  -15.5466   23.8520 C   0  0  0  0  0  0  0  0  0  0  0  0
    8.0533  -16.6801   24.1251 O   0  0  0  0  0  0  0  0  0  0  0  0
    8.3616  -14.8147   22.8740 N   0  0  0  0  0  0  0  0  0  0  0  0
    9.5121  -15.3317   22.1628 C   0  0  1  0  0  0  0  0  0  0  0  0
    9.8199  -14.5247   20.9348 C   0  0  0  0  0  0  0  0  0  0  0  0
    8.6967  -14.3331   20.0305 C   0  0  0  0  0  0  0  0  0  0  0  0
    7.9412  -13.1999   19.7662 C   0  0  0  0  0  0  0  0  0  0  0  0
    6.9969  -13.5069   18.8456 N   0  0  0  0  0  0  0  0  0  0  0  0
    7.1495  -14.8025   18.5336 C   0  0  0  0  0  0  0  0  0  0  0  0
    8.1692  -15.2914   19.2468 N   0  0  0  0  0  0  0  0  0  0  0  0
   10.6778  -15.5308   23.0461 C   0  0  0  0  0  0  0  0  0  0  0  0
   10.8675  -14.7145   23.9869 O   0  0  0  0  0  0  0  0  0  0  0  0
   13.1932  -18.6093   26.3021 N   0  0  0  0  0  0  0  0  0  0  0  0
   11.7708  -18.5161   26.1382 C   0  0  0  0  0  0  0  0  0  0  0  0
   11.0173  -19.0493   26.9764 O   0  0  0  0  0  0  0  0  0  0  0  0
   11.1906  -17.7959   24.9881 C   0  0  0  0  0  0  0  0  0  0  0  0
   12.2135  -17.1781   24.0678 C   0  0  2  0  0  0  0  0  0  0  0  0
   11.6047  -16.5951   22.8974 N   0  0  0  0  0  0  0  0  0  0  0  0
   13.1819  -18.2181   23.6331 C   0  0  0  0  0  0  0  0  0  0  0  0
   12.8841  -19.0298   22.5185 O   0  0  0  0  0  0  0  0  0  0  0  0
   14.2866  -18.4353   24.2066 O   0  0  0  0  0  0  0  0  0  0  0  0
  2  1  1  0
  3  2  1  0
  4  5  1  0
  4  3  1  0
  5  6  1  1
  7  8  2  0
  7  5  1  0
  9  7  1  0
 10  9  1  0
 11 12  1  0
 10 11  1  6
 12 13  2  0
 12 16  1  0
 13 14  1  0
 14 15  1  0
 16 15  2  0
 17 18  2  0
 17 10  1  0
 20 21  2  0
 20 19  1  0
 22 20  1  0
 23 24  1  0
 23 22  1  1
 24 17  1  0
 25 23  1  0
 26 25  1  0
 27 25  2  0
M  END
$$$$
