MHN.pdb
     RDKit          3D

 27 27  0  0  1  0  0  0  0  0999 V2000
    8.1609  -11.7915   27.0416 C   0  0  0  0  0  0  0  0  0  0  0  0
    6.8759  -11.9131   25.7490 S   0  0  0  0  0  0  0  0  0  0  0  0
    6.1281  -13.5874   25.8587 C   0  0  0  0  0  0  0  0  0  0  0  0
    7.1835  -14.6073   25.6078 C   0  0  0  0  0  0  0  0  0  0  0  0
    6.9578  -15.4884   24.4055 C   0  0  2  0  0  0  0  0  0  0  0  0
    5.7562  -16.2609   24.7043 N   0  0  0  0  0  0  0  0  0  0  0  0
    8.1315  -16.3753   24.2444 C   0  0  0  0  0  0  0  0  0  0  0  0
    8.2653  -17.3640   24.9792 O   0  0  0  0  0  0  0  0  0  0  0  0
    9.1464  -16.1601   23.2719 N   0  0  0  0  0  0  0  0  0  0  0  0
   10.2433  -17.0732   23.0276 C   0  0  1  0  0  0  0  0  0  0  0  0
   10.9516  -16.7652   21.7401 C   0  0  0  0  0  0  0  0  0  0  0  0
   10.1891  -17.0584   20.5365 C   0  0  0  0  0  0  0  0  0  0  0  0
    9.3167  -18.1009   20.2592 C   0  0  0  0  0  0  0  0  0  0  0  0
    8.8433  -17.9536   18.9992 N   0  0  0  0  0  0  0  0  0  0  0  0
    9.4015  -16.8453   18.4898 C   0  0  0  0  0  0  0  0  0  0  0  0
   10.2064  -16.3140   19.4157 N   0  0  0  0  0  0  0  0  0  0  0  0
   11.1495  -17.1882   24.1871 C   0  0  0  0  0  0  0  0  0  0  0  0
   11.7358  -16.1520   24.5991 O   0  0  0  0  0  0  0  0  0  0  0  0
    9.8553  -18.3924   27.3911 N   0  0  0  0  0  0  0  0  0  0  0  0
   10.7284  -19.5133   27.5914 C   0  0  0  0  0  0  0  0  0  0  0  0
   10.3727  -20.4462   28.3384 O   0  0  0  0  0  0  0  0  0  0  0  0
   12.0426  -19.5735   26.9225 C   0  0  0  0  0  0  0  0  0  0  0  0
   12.3125  -18.4202   25.9888 C   0  0  2  0  0  0  0  0  0  0  0  0
   11.4014  -18.4062   24.8706 N   0  0  0  0  0  0  0  0  0  0  0  0
   13.7017  -18.5166   25.4702 C   0  0  0  0  0  0  0  0  0  0  0  0
   14.7909  -18.3671   26.3541 O   0  0  0  0  0  0  0  0  0  0  0  0
   13.9876  -18.7291   24.2579 O   0  0  0  0  0  0  0  0  0  0  0  0
  2  1  1  0
  3  2  1  0
  4  5  1  0
  4  3  1  0
  5  6  1  1
  7  8  2  0
  7  5  1  0
  9  7  1  0
 10  9  1  0
 11 12  1  0
 10 11  1  6
 12 13  2  0
 12 16  1  0
 13 14  1  0
 14 15  1  0
 16 15  2  0
 17 18  2  0
 17 10  1  0
 20 21  2  0
 20 19  1  0
 22 20  1  0
 23 24  1  0
 23 22  1  1
 24 17  1  0
 25 23  1  0
 26 25  1  0
 27 25  2  0
M  END
$$$$
