MHN.pdb
     RDKit          3D

 27 27  0  0  1  0  0  0  0  0999 V2000
    8.4465  -12.0281   20.3506 C   0  0  0  0  0  0  0  0  0  0  0  0
    7.1636  -12.3721   19.0965 S   0  0  0  0  0  0  0  0  0  0  0  0
    7.8389  -13.6235   17.9335 C   0  0  0  0  0  0  0  0  0  0  0  0
    8.4553  -14.7301   18.7161 C   0  0  0  0  0  0  0  0  0  0  0  0
    9.2830  -15.7039   17.9164 C   0  0  2  0  0  0  0  0  0  0  0  0
    8.3901  -16.2259   16.8868 N   0  0  0  0  0  0  0  0  0  0  0  0
    9.7411  -16.7843   18.8181 C   0  0  0  0  0  0  0  0  0  0  0  0
    9.0817  -17.0685   19.8280 O   0  0  0  0  0  0  0  0  0  0  0  0
   10.9244  -17.5405   18.5943 N   0  0  0  0  0  0  0  0  0  0  0  0
   11.4200  -18.5587   19.4966 C   0  0  1  0  0  0  0  0  0  0  0  0
   11.8422  -19.7988   18.7631 C   0  0  0  0  0  0  0  0  0  0  0  0
   10.8891  -20.2804   17.7754 C   0  0  0  0  0  0  0  0  0  0  0  0
   10.9430  -20.2534   16.3893 C   0  0  0  0  0  0  0  0  0  0  0  0
    9.8178  -20.8219   15.8952 N   0  0  0  0  0  0  0  0  0  0  0  0
    9.0688  -21.2002   16.9417 C   0  0  0  0  0  0  0  0  0  0  0  0
    9.7162  -20.8730   18.0647 N   0  0  0  0  0  0  0  0  0  0  0  0
   12.4477  -18.0406   20.4208 C   0  0  0  0  0  0  0  0  0  0  0  0
   13.2084  -18.8622   20.9982 O   0  0  0  0  0  0  0  0  0  0  0  0
   14.1745  -14.0601   18.9970 N   0  0  0  0  0  0  0  0  0  0  0  0
   14.8211  -14.7309   20.0882 C   0  0  0  0  0  0  0  0  0  0  0  0
   15.9654  -15.2010   19.9318 O   0  0  0  0  0  0  0  0  0  0  0  0
   14.1462  -14.8702   21.3932 C   0  0  0  0  0  0  0  0  0  0  0  0
   13.6187  -16.2559   21.6697 C   0  0  2  0  0  0  0  0  0  0  0  0
   12.6311  -16.6612   20.6998 N   0  0  0  0  0  0  0  0  0  0  0  0
   13.0018  -16.2912   23.0212 C   0  0  0  0  0  0  0  0  0  0  0  0
   11.6177  -16.5297   23.1529 O   0  0  0  0  0  0  0  0  0  0  0  0
   13.6462  -16.1178   24.0941 O   0  0  0  0  0  0  0  0  0  0  0  0
  2  1  1  0
  3  2  1  0
  4  5  1  0
  4  3  1  0
  5  6  1  6
  7  8  2  0
  7  5  1  0
  9  7  1  0
 10  9  1  0
 11 12  1  0
 10 11  1  6
 12 13  2  0
 12 16  1  0
 13 14  1  0
 14 15  1  0
 16 15  2  0
 17 18  2  0
 17 10  1  0
 20 21  2  0
 20 19  1  0
 22 20  1  0
 23 24  1  0
 23 22  1  6
 24 17  1  0
 25 23  1  0
 26 25  1  0
 27 25  2  0
M  END
$$$$
