MRH.pdb
     RDKit          3D

 30 30  0  0  1  0  0  0  0  0999 V2000
   28.2728  -15.7615  -15.7761 C   0  0  0  0  0  0  0  0  0  0  0  0
   26.9237  -16.5805  -16.6387 S   0  0  0  0  0  0  0  0  0  0  0  0
   26.9321  -18.3627  -16.2909 C   0  0  0  0  0  0  0  0  0  0  0  0
   27.8317  -18.5698  -15.0674 C   0  0  0  0  0  0  0  0  0  0  0  0
   27.8880  -20.0431  -14.8386 C   0  0  2  0  0  0  0  0  0  0  0  0
   28.2081  -20.7089  -16.0833 N   0  0  0  0  0  0  0  0  0  0  0  0
   26.6469  -20.6071  -14.2287 C   0  0  0  0  0  0  0  0  0  0  0  0
   25.8029  -21.2431  -14.9098 O   0  0  0  0  0  0  0  0  0  0  0  0
   26.8215  -20.5558   -5.7894 N   0  0  0  0  0  0  0  0  0  0  0  0
   26.6473  -19.6652   -6.8884 C   0  0  0  0  0  0  0  0  0  0  0  0
   26.7023  -18.3942   -6.6866 N   0  0  0  0  0  0  0  0  0  0  0  0
   26.4156  -20.1139   -8.2038 N   0  0  0  0  0  0  0  0  0  0  0  0
   26.4249  -21.5067   -8.5958 C   0  0  0  0  0  0  0  0  0  0  0  0
   26.4362  -21.5594  -10.1085 C   0  0  0  0  0  0  0  0  0  0  0  0
   25.2957  -20.8397  -10.7314 C   0  0  0  0  0  0  0  0  0  0  0  0
   25.1579  -20.9900  -12.2208 C   0  0  2  0  0  0  0  0  0  0  0  0
   26.3519  -20.4541  -12.8478 N   0  0  0  0  0  0  0  0  0  0  0  0
   23.9539  -20.2019  -12.6070 C   0  0  0  0  0  0  0  0  0  0  0  0
   24.1255  -19.1270  -13.2184 O   0  0  0  0  0  0  0  0  0  0  0  0
   26.5465  -17.6919   -7.4288 N   0  0  0  0  0  0  0  0  0  0  0  0
   22.6563  -20.6583  -12.2900 C   0  0  1  0  0  0  0  0  0  0  0  0
   21.5478  -20.2484  -13.1240 C   0  0  0  0  0  0  0  0  0  0  0  0
   21.7709  -20.8438  -14.4976 C   0  0  0  0  0  0  0  0  0  0  0  0
   22.0213  -19.8222  -15.5150 C   0  0  0  0  0  0  0  0  0  0  0  0
   21.9859  -18.4693  -15.3171 N   0  0  0  0  0  0  0  0  0  0  0  0
   22.2744  -17.8761  -16.5102 C   0  0  0  0  0  0  0  0  0  0  0  0
   22.4842  -18.8309  -17.4282 N   0  0  0  0  0  0  0  0  0  0  0  0
   22.3221  -20.0244  -16.7891 C   0  0  0  0  0  0  0  0  0  0  0  0
   20.2411  -20.6211  -12.5593 O   0  0  0  0  0  0  0  0  0  0  0  0
   19.9828  -21.6482  -11.9185 O   0  0  0  0  0  0  0  0  0  0  0  0
  1  2  1  0
  2  3  1  0
  4  3  1  0
  5  4  1  0
  5  6  1  6
  7  8  2  0
  7  5  1  0
  9 10  1  0
 10 11  2  0
 12 13  1  0
 12 10  1  0
 13 14  1  0
 14 15  1  0
 16 15  1  1
 16 17  1  0
 17  7  1  0
 18 16  1  0
 19 18  2  0
 20 18  1  0
 21 28  1  0
 21 20  1  0
 21 22  1  1
 22 23  1  0
 23 27  1  0
 24 23  2  0
 24 25  1  0
 25 26  1  0
 27 26  2  0
 28 30  1  0
 29 28  2  0
M  END
$$$$
