MRH.pdb
     RDKit          3D

 30 30  0  0  1  0  0  0  0  0999 V2000
   25.8061  -15.1312  -18.3839 C   0  0  0  0  0  0  0  0  0  0  0  0
   27.4099  -14.9272  -19.1718 S   0  0  0  0  0  0  0  0  0  0  0  0
   28.3019  -16.5080  -19.2227 C   0  0  0  0  0  0  0  0  0  0  0  0
   27.6341  -17.4255  -18.1925 C   0  0  0  0  0  0  0  0  0  0  0  0
   28.4024  -18.7042  -18.2160 C   0  0  2  0  0  0  0  0  0  0  0  0
   28.5688  -19.1373  -19.5871 N   0  0  0  0  0  0  0  0  0  0  0  0
   27.8018  -19.7847  -17.3781 C   0  0  0  0  0  0  0  0  0  0  0  0
   26.9148  -20.5555  -17.8252 O   0  0  0  0  0  0  0  0  0  0  0  0
   32.3832  -24.2700  -12.0856 N   0  0  0  0  0  0  0  0  0  0  0  0
   32.0529  -22.8884  -12.2014 C   0  0  0  0  0  0  0  0  0  0  0  0
   32.5782  -22.0424  -11.3843 N   0  0  0  0  0  0  0  0  0  0  0  0
   31.1678  -22.3958  -13.1809 N   0  0  0  0  0  0  0  0  0  0  0  0
   30.4783  -23.2311  -14.1402 C   0  0  0  0  0  0  0  0  0  0  0  0
   29.6484  -22.3267  -15.0259 C   0  0  0  0  0  0  0  0  0  0  0  0
   28.5794  -21.6026  -14.2915 C   0  0  0  0  0  0  0  0  0  0  0  0
   27.5350  -20.9337  -15.1411 C   0  0  2  0  0  0  0  0  0  0  0  0
   28.1983  -19.9990  -16.0311 N   0  0  0  0  0  0  0  0  0  0  0  0
   26.6289  -20.2199  -14.1981 C   0  0  0  0  0  0  0  0  0  0  0  0
   26.9504  -19.0716  -13.8287 O   0  0  0  0  0  0  0  0  0  0  0  0
   32.3795  -21.0284  -11.4078 N   0  0  0  0  0  0  0  0  0  0  0  0
   25.4405  -20.8257  -13.7360 C   0  0  1  0  0  0  0  0  0  0  0  0
   24.2158  -20.0561  -13.7409 C   0  0  0  0  0  0  0  0  0  0  0  0
   24.0344  -19.5035  -15.1383 C   0  0  0  0  0  0  0  0  0  0  0  0
   22.7809  -18.7634  -15.2877 C   0  0  0  0  0  0  0  0  0  0  0  0
   21.8566  -18.5468  -14.3030 N   0  0  0  0  0  0  0  0  0  0  0  0
   20.8419  -17.8194  -14.8506 C   0  0  0  0  0  0  0  0  0  0  0  0
   21.1236  -17.5877  -16.1413 N   0  0  0  0  0  0  0  0  0  0  0  0
   22.3264  -18.1809  -16.3872 C   0  0  0  0  0  0  0  0  0  0  0  0
   23.0509  -20.8357  -13.2931 O   0  0  0  0  0  0  0  0  0  0  0  0
   22.0938  -20.4137  -12.6312 O   0  0  0  0  0  0  0  0  0  0  0  0
  1  2  1  0
  2  3  1  0
  4  3  1  0
  5  4  1  0
  5  6  1  6
  7  8  2  0
  7  5  1  0
  9 10  1  0
 10 11  2  0
 12 13  1  0
 12 10  1  0
 13 14  1  0
 14 15  1  0
 16 15  1  1
 16 17  1  0
 17  7  1  0
 18 16  1  0
 19 18  2  0
 20 18  1  0
 21 28  1  0
 21 20  1  0
 21 22  1  1
 22 23  1  0
 23 27  1  0
 24 23  2  0
 24 25  1  0
 25 26  1  0
 27 26  2  0
 28 30  1  0
 29 28  2  0
M  END
$$$$
