MRH.pdb
     RDKit          3D

 30 30  0  0  1  0  0  0  0  0999 V2000
   26.8315  -18.5744  -17.8818 C   0  0  0  0  0  0  0  0  0  0  0  0
   28.3180  -19.5865  -17.9053 S   0  0  0  0  0  0  0  0  0  0  0  0
   27.8955  -21.3357  -18.1486 C   0  0  0  0  0  0  0  0  0  0  0  0
   26.5898  -21.5851  -17.3858 C   0  0  0  0  0  0  0  0  0  0  0  0
   26.9373  -22.4935  -16.2544 C   0  0  2  0  0  0  0  0  0  0  0  0
   27.4132  -23.7545  -16.7819 N   0  0  0  0  0  0  0  0  0  0  0  0
   25.8221  -22.7015  -15.2830 C   0  0  0  0  0  0  0  0  0  0  0  0
   25.0673  -23.7052  -15.3444 O   0  0  0  0  0  0  0  0  0  0  0  0
   21.1280  -20.4470   -9.0452 N   0  0  0  0  0  0  0  0  0  0  0  0
   22.1895  -21.0578   -8.3164 C   0  0  0  0  0  0  0  0  0  0  0  0
   21.9212  -21.7186   -7.2438 N   0  0  0  0  0  0  0  0  0  0  0  0
   23.5373  -20.9737   -8.7185 N   0  0  0  0  0  0  0  0  0  0  0  0
   23.9925  -20.2193   -9.8663 C   0  0  0  0  0  0  0  0  0  0  0  0
   23.6169  -20.9988  -11.1082 C   0  0  0  0  0  0  0  0  0  0  0  0
   24.7254  -21.1115  -12.0906 C   0  0  0  0  0  0  0  0  0  0  0  0
   24.4228  -21.8965  -13.3364 C   0  0  2  0  0  0  0  0  0  0  0  0
   25.5528  -21.7769  -14.2390 N   0  0  0  0  0  0  0  0  0  0  0  0
   23.2014  -21.2810  -13.9274 C   0  0  0  0  0  0  0  0  0  0  0  0
   23.1618  -20.0379  -14.0343 O   0  0  0  0  0  0  0  0  0  0  0  0
   20.9644  -21.8362   -6.8710 N   0  0  0  0  0  0  0  0  0  0  0  0
   22.1199  -22.0817  -14.3540 C   0  0  2  0  0  0  0  0  0  0  0  0
   20.9294  -21.4358  -14.8617 C   0  0  0  0  0  0  0  0  0  0  0  0
   19.9562  -22.5262  -15.2553 C   0  0  0  0  0  0  0  0  0  0  0  0
   18.7598  -21.9967  -15.9108 C   0  0  0  0  0  0  0  0  0  0  0  0
   18.7432  -21.1652  -16.9967 N   0  0  0  0  0  0  0  0  0  0  0  0
   17.4374  -20.9085  -17.2925 C   0  0  0  0  0  0  0  0  0  0  0  0
   16.6593  -21.5609  -16.4163 N   0  0  0  0  0  0  0  0  0  0  0  0
   17.4995  -22.2258  -15.5730 C   0  0  0  0  0  0  0  0  0  0  0  0
   20.3445  -20.4843  -13.9037 O   0  0  0  0  0  0  0  0  0  0  0  0
   19.9315  -19.3453  -14.1573 O   0  0  0  0  0  0  0  0  0  0  0  0
  1  2  1  0
  2  3  1  0
  4  3  1  0
  5  4  1  0
  5  6  1  6
  7  8  2  0
  7  5  1  0
  9 10  1  0
 10 11  2  0
 12 13  1  0
 12 10  1  0
 13 14  1  0
 14 15  1  0
 16 15  1  1
 16 17  1  0
 17  7  1  0
 18 16  1  0
 19 18  2  0
 20 18  1  0
 21 28  1  0
 21 20  1  0
 21 22  1  1
 22 23  1  0
 23 27  1  0
 24 23  2  0
 24 25  1  0
 25 26  1  0
 27 26  2  0
 28 30  1  0
 29 28  2  0
M  END
$$$$
