MRH.pdb
     RDKit          3D

 30 30  0  0  1  0  0  0  0  0999 V2000
   24.9982  -15.3040  -21.7615 C   0  0  0  0  0  0  0  0  0  0  0  0
   25.8850  -14.5940  -20.3672 S   0  0  0  0  0  0  0  0  0  0  0  0
   27.1834  -15.7261  -19.7929 C   0  0  0  0  0  0  0  0  0  0  0  0
   26.4880  -17.0361  -19.4061 C   0  0  0  0  0  0  0  0  0  0  0  0
   26.1055  -16.8947  -17.9709 C   0  0  2  0  0  0  0  0  0  0  0  0
   27.3021  -16.7602  -17.1678 N   0  0  0  0  0  0  0  0  0  0  0  0
   25.2381  -18.0005  -17.4657 C   0  0  0  0  0  0  0  0  0  0  0  0
   24.0948  -18.2172  -17.9416 O   0  0  0  0  0  0  0  0  0  0  0  0
   26.6778  -25.4064  -16.4849 N   0  0  0  0  0  0  0  0  0  0  0  0
   27.8066  -24.6444  -16.9048 C   0  0  0  0  0  0  0  0  0  0  0  0
   28.4935  -25.0396  -17.9202 N   0  0  0  0  0  0  0  0  0  0  0  0
   28.2129  -23.4622  -16.2545 N   0  0  0  0  0  0  0  0  0  0  0  0
   27.4025  -22.7518  -15.2890 C   0  0  0  0  0  0  0  0  0  0  0  0
   26.5071  -21.7989  -16.0514 C   0  0  0  0  0  0  0  0  0  0  0  0
   25.7074  -20.9098  -15.1702 C   0  0  0  0  0  0  0  0  0  0  0  0
   24.8212  -19.9162  -15.8683 C   0  0  2  0  0  0  0  0  0  0  0  0
   25.6566  -18.8655  -16.4197 N   0  0  0  0  0  0  0  0  0  0  0  0
   23.9037  -19.3757  -14.8263 C   0  0  0  0  0  0  0  0  0  0  0  0
   24.3119  -18.4360  -14.1130 O   0  0  0  0  0  0  0  0  0  0  0  0
   29.2668  -24.4920  -18.3334 N   0  0  0  0  0  0  0  0  0  0  0  0
   22.6096  -19.9116  -14.6512 C   0  0  2  0  0  0  0  0  0  0  0  0
   21.5446  -19.0376  -14.2104 C   0  0  0  0  0  0  0  0  0  0  0  0
   21.6226  -17.7750  -15.0416 C   0  0  0  0  0  0  0  0  0  0  0  0
   20.5410  -16.8379  -14.7361 C   0  0  0  0  0  0  0  0  0  0  0  0
   19.5808  -17.0081  -13.7769 N   0  0  0  0  0  0  0  0  0  0  0  0
   18.7687  -15.9138  -13.8157 C   0  0  0  0  0  0  0  0  0  0  0  0
   19.2084  -15.0827  -14.7721 N   0  0  0  0  0  0  0  0  0  0  0  0
   20.3040  -15.6757  -15.3262 C   0  0  0  0  0  0  0  0  0  0  0  0
   20.2192  -19.6727  -14.2827 O   0  0  0  0  0  0  0  0  0  0  0  0
   19.2917  -19.5331  -13.4749 O   0  0  0  0  0  0  0  0  0  0  0  0
  1  2  1  0
  2  3  1  0
  4  3  1  0
  5  4  1  0
  5  6  1  1
  7  8  2  0
  7  5  1  0
  9 10  1  0
 10 11  2  0
 12 13  1  0
 12 10  1  0
 13 14  1  0
 14 15  1  0
 16 15  1  1
 16 17  1  0
 17  7  1  0
 18 16  1  0
 19 18  2  0
 20 18  1  0
 21 28  1  0
 21 20  1  0
 21 22  1  1
 22 23  1  0
 23 27  1  0
 24 23  2  0
 24 25  1  0
 25 26  1  0
 27 26  2  0
 28 30  1  0
 29 28  2  0
M  END
$$$$
