MRH.pdb
     RDKit          3D

 30 30  0  0  1  0  0  0  0  0999 V2000
   28.6544  -18.9812   -6.1884 C   0  0  0  0  0  0  0  0  0  0  0  0
   27.3484  -20.2144   -6.2788 S   0  0  0  0  0  0  0  0  0  0  0  0
   27.5569  -21.2584   -7.7499 C   0  0  0  0  0  0  0  0  0  0  0  0
   27.0751  -20.4339   -8.9487 C   0  0  0  0  0  0  0  0  0  0  0  0
   27.3461  -21.2636  -10.1587 C   0  0  2  0  0  0  0  0  0  0  0  0
   28.7709  -21.4909  -10.2738 N   0  0  0  0  0  0  0  0  0  0  0  0
   26.7874  -20.6917  -11.4202 C   0  0  0  0  0  0  0  0  0  0  0  0
   27.2606  -19.6510  -11.9434 O   0  0  0  0  0  0  0  0  0  0  0  0
   28.2838  -25.1231  -15.9952 N   0  0  0  0  0  0  0  0  0  0  0  0
   26.9028  -25.1602  -15.6452 C   0  0  0  0  0  0  0  0  0  0  0  0
   26.3920  -26.2573  -15.2038 N   0  0  0  0  0  0  0  0  0  0  0  0
   26.0572  -24.0389  -15.7590 N   0  0  0  0  0  0  0  0  0  0  0  0
   26.4965  -22.7389  -16.2181 C   0  0  0  0  0  0  0  0  0  0  0  0
   26.4817  -21.8016  -15.0298 C   0  0  0  0  0  0  0  0  0  0  0  0
   25.1437  -21.6735  -14.3973 C   0  0  0  0  0  0  0  0  0  0  0  0
   25.0468  -20.7014  -13.2547 C   0  0  2  0  0  0  0  0  0  0  0  0
   25.6911  -21.2909  -12.0958 N   0  0  0  0  0  0  0  0  0  0  0  0
   23.5919  -20.4956  -13.0082 C   0  0  0  0  0  0  0  0  0  0  0  0
   23.0095  -21.2818  -12.2328 O   0  0  0  0  0  0  0  0  0  0  0  0
   25.4332  -26.3274  -14.8242 N   0  0  0  0  0  0  0  0  0  0  0  0
   22.8925  -19.4412  -13.6342 C   0  0  2  0  0  0  0  0  0  0  0  0
   21.5015  -19.2289  -13.2990 C   0  0  0  0  0  0  0  0  0  0  0  0
   21.0594  -17.9561  -13.9886 C   0  0  0  0  0  0  0  0  0  0  0  0
   19.6837  -17.5878  -13.6521 C   0  0  0  0  0  0  0  0  0  0  0  0
   18.8595  -18.2658  -12.7967 N   0  0  0  0  0  0  0  0  0  0  0  0
   17.6718  -17.5975  -12.7609 C   0  0  0  0  0  0  0  0  0  0  0  0
   17.7509  -16.5317  -13.5711 N   0  0  0  0  0  0  0  0  0  0  0  0
   19.0033  -16.5475  -14.1100 C   0  0  0  0  0  0  0  0  0  0  0  0
   20.6496  -20.3772  -13.6467 O   0  0  0  0  0  0  0  0  0  0  0  0
   20.7173  -21.0575  -14.6786 O   0  0  0  0  0  0  0  0  0  0  0  0
  1  2  1  0
  2  3  1  0
  4  3  1  0
  5  4  1  0
  5  6  1  6
  7  8  2  0
  7  5  1  0
  9 10  1  0
 10 11  2  0
 12 13  1  0
 12 10  1  0
 13 14  1  0
 14 15  1  0
 16 15  1  6
 16 17  1  0
 17  7  1  0
 18 16  1  0
 19 18  2  0
 20 18  1  0
 21 28  1  0
 21 20  1  0
 21 22  1  6
 22 23  1  0
 23 27  1  0
 24 23  2  0
 24 25  1  0
 25 26  1  0
 27 26  2  0
 28 30  1  0
 29 28  2  0
M  END
$$$$
