MRH.pdb
     RDKit          3D

 30 30  0  0  1  0  0  0  0  0999 V2000
   27.6930  -20.5590   -7.8984 C   0  0  0  0  0  0  0  0  0  0  0  0
   28.7482  -21.0814   -9.2579 S   0  0  0  0  0  0  0  0  0  0  0  0
   27.7473  -21.6845  -10.6477 C   0  0  0  0  0  0  0  0  0  0  0  0
   26.6571  -20.6358  -10.8948 C   0  0  0  0  0  0  0  0  0  0  0  0
   25.7787  -21.1944  -11.9636 C   0  0  2  0  0  0  0  0  0  0  0  0
   26.6004  -21.7916  -12.9948 N   0  0  0  0  0  0  0  0  0  0  0  0
   24.8250  -20.2010  -12.5416 C   0  0  0  0  0  0  0  0  0  0  0  0
   23.9119  -19.6794  -11.8526 O   0  0  0  0  0  0  0  0  0  0  0  0
   27.6620  -17.3090  -18.2571 N   0  0  0  0  0  0  0  0  0  0  0  0
   26.5062  -18.0232  -18.6875 C   0  0  0  0  0  0  0  0  0  0  0  0
   26.6502  -19.1366  -19.3190 N   0  0  0  0  0  0  0  0  0  0  0  0
   25.1950  -17.5646  -18.4514 N   0  0  0  0  0  0  0  0  0  0  0  0
   24.8651  -16.5011  -17.5275 C   0  0  0  0  0  0  0  0  0  0  0  0
   24.0579  -17.1054  -16.3987 C   0  0  0  0  0  0  0  0  0  0  0  0
   24.7954  -18.1478  -15.6396 C   0  0  0  0  0  0  0  0  0  0  0  0
   24.0703  -18.7423  -14.4646 C   0  0  2  0  0  0  0  0  0  0  0  0
   24.8967  -19.7932  -13.9003 N   0  0  0  0  0  0  0  0  0  0  0  0
   22.7960  -19.2970  -15.0016 C   0  0  0  0  0  0  0  0  0  0  0  0
   22.8634  -20.1936  -15.8676 O   0  0  0  0  0  0  0  0  0  0  0  0
   25.8576  -19.6990  -19.6709 N   0  0  0  0  0  0  0  0  0  0  0  0
   21.5483  -18.8214  -14.5437 C   0  0  2  0  0  0  0  0  0  0  0  0
   20.3382  -19.3781  -15.1077 C   0  0  0  0  0  0  0  0  0  0  0  0
   19.2357  -19.1898  -14.0879 C   0  0  0  0  0  0  0  0  0  0  0  0
   17.9626  -19.7596  -14.5305 C   0  0  0  0  0  0  0  0  0  0  0  0
   17.8114  -20.7879  -15.4196 N   0  0  0  0  0  0  0  0  0  0  0  0
   16.4738  -21.0122  -15.5585 C   0  0  0  0  0  0  0  0  0  0  0  0
   15.8074  -20.1486  -14.7784 N   0  0  0  0  0  0  0  0  0  0  0  0
   16.7490  -19.3855  -14.1536 C   0  0  0  0  0  0  0  0  0  0  0  0
   19.9965  -18.7930  -16.4140 O   0  0  0  0  0  0  0  0  0  0  0  0
   20.4194  -17.7248  -16.8748 O   0  0  0  0  0  0  0  0  0  0  0  0
  1  2  1  0
  2  3  1  0
  4  3  1  0
  5  4  1  0
  5  6  1  6
  7  8  2  0
  7  5  1  0
  9 10  1  0
 10 11  2  0
 12 13  1  0
 12 10  1  0
 13 14  1  0
 14 15  1  0
 16 15  1  6
 16 17  1  0
 17  7  1  0
 18 16  1  0
 19 18  2  0
 20 18  1  0
 21 28  1  0
 21 20  1  0
 21 22  1  6
 22 23  1  0
 23 27  1  0
 24 23  2  0
 24 25  1  0
 25 26  1  0
 27 26  2  0
 28 30  1  0
 29 28  2  0
M  END
$$$$
