MRH.pdb
     RDKit          3D

 30 30  0  0  1  0  0  0  0  0999 V2000
   24.5640  -20.6875   -7.5081 C   0  0  0  0  0  0  0  0  0  0  0  0
   26.1080  -19.7912   -7.7259 S   0  0  0  0  0  0  0  0  0  0  0  0
   26.8715  -20.2124   -9.3186 C   0  0  0  0  0  0  0  0  0  0  0  0
   25.7258  -20.4881  -10.2986 C   0  0  0  0  0  0  0  0  0  0  0  0
   26.3660  -20.9330  -11.5707 C   0  0  2  0  0  0  0  0  0  0  0  0
   27.3686  -19.9666  -11.9654 N   0  0  0  0  0  0  0  0  0  0  0  0
   25.3963  -21.1871  -12.6778 C   0  0  0  0  0  0  0  0  0  0  0  0
   24.9674  -20.2594  -13.4100 O   0  0  0  0  0  0  0  0  0  0  0  0
   25.0739  -24.9081  -18.2371 N   0  0  0  0  0  0  0  0  0  0  0  0
   25.6780  -25.7171  -17.2312 C   0  0  0  0  0  0  0  0  0  0  0  0
   26.9427  -25.9549  -17.2866 N   0  0  0  0  0  0  0  0  0  0  0  0
   24.9487  -26.2766  -16.1632 N   0  0  0  0  0  0  0  0  0  0  0  0
   23.5254  -26.0966  -15.9749 C   0  0  0  0  0  0  0  0  0  0  0  0
   23.2910  -24.6523  -15.5876 C   0  0  0  0  0  0  0  0  0  0  0  0
   24.1735  -24.1870  -14.4870 C   0  0  0  0  0  0  0  0  0  0  0  0
   23.9590  -22.7724  -14.0256 C   0  0  2  0  0  0  0  0  0  0  0  0
   24.9050  -22.4891  -12.9622 N   0  0  0  0  0  0  0  0  0  0  0  0
   22.5579  -22.7085  -13.5232 C   0  0  0  0  0  0  0  0  0  0  0  0
   22.3787  -22.5335  -12.3002 O   0  0  0  0  0  0  0  0  0  0  0  0
   27.4532  -26.4951  -16.5683 N   0  0  0  0  0  0  0  0  0  0  0  0
   21.4644  -22.8422  -14.4058 C   0  0  2  0  0  0  0  0  0  0  0  0
   20.3261  -21.9639  -14.2469 C   0  0  0  0  0  0  0  0  0  0  0  0
   20.8316  -20.5423  -14.3673 C   0  0  0  0  0  0  0  0  0  0  0  0
   20.6288  -19.7718  -13.1399 C   0  0  0  0  0  0  0  0  0  0  0  0
   20.0554  -20.2364  -11.9883 N   0  0  0  0  0  0  0  0  0  0  0  0
   20.0563  -19.2102  -11.0907 C   0  0  0  0  0  0  0  0  0  0  0  0
   20.6145  -18.1343  -11.6648 N   0  0  0  0  0  0  0  0  0  0  0  0
   20.9598  -18.5064  -12.9303 C   0  0  0  0  0  0  0  0  0  0  0  0
   19.2443  -22.2545  -15.2011 O   0  0  0  0  0  0  0  0  0  0  0  0
   18.0301  -22.2493  -14.9603 O   0  0  0  0  0  0  0  0  0  0  0  0
  1  2  1  0
  2  3  1  0
  4  3  1  0
  5  4  1  0
  5  6  1  6
  7  8  2  0
  7  5  1  0
  9 10  1  0
 10 11  2  0
 12 13  1  0
 12 10  1  0
 13 14  1  0
 14 15  1  0
 16 15  1  1
 16 17  1  0
 17  7  1  0
 18 16  1  0
 19 18  2  0
 20 18  1  0
 21 28  1  0
 21 20  1  0
 21 22  1  1
 22 23  1  0
 23 27  1  0
 24 23  2  0
 24 25  1  0
 25 26  1  0
 27 26  2  0
 28 30  1  0
 29 28  2  0
M  END
$$$$
