MRH.pdb
     RDKit          3D

 30 30  0  0  1  0  0  0  0  0999 V2000
   21.5672  -27.9319  -13.8566 C   0  0  0  0  0  0  0  0  0  0  0  0
   20.7237  -26.6612  -14.8096 S   0  0  0  0  0  0  0  0  0  0  0  0
   21.9204  -25.6582  -15.7365 C   0  0  0  0  0  0  0  0  0  0  0  0
   22.9172  -25.1023  -14.7135 C   0  0  0  0  0  0  0  0  0  0  0  0
   23.8862  -24.2724  -15.4871 C   0  0  2  0  0  0  0  0  0  0  0  0
   25.1752  -24.9305  -15.5015 N   0  0  0  0  0  0  0  0  0  0  0  0
   24.0035  -22.8668  -14.9962 C   0  0  0  0  0  0  0  0  0  0  0  0
   24.5584  -22.5902  -13.9024 O   0  0  0  0  0  0  0  0  0  0  0  0
   26.7657  -16.3889  -19.4843 N   0  0  0  0  0  0  0  0  0  0  0  0
   25.7347  -16.2888  -18.5054 C   0  0  0  0  0  0  0  0  0  0  0  0
   25.0217  -15.2177  -18.4458 N   0  0  0  0  0  0  0  0  0  0  0  0
   25.4527  -17.3198  -17.5873 N   0  0  0  0  0  0  0  0  0  0  0  0
   26.1650  -18.5784  -17.5419 C   0  0  0  0  0  0  0  0  0  0  0  0
   25.6349  -19.3654  -16.3626 C   0  0  0  0  0  0  0  0  0  0  0  0
   24.1633  -19.5642  -16.4008 C   0  0  0  0  0  0  0  0  0  0  0  0
   23.5822  -20.3903  -15.2874 C   0  0  2  0  0  0  0  0  0  0  0  0
   23.4936  -21.7673  -15.7367 N   0  0  0  0  0  0  0  0  0  0  0  0
   22.2283  -19.8295  -15.0186 C   0  0  0  0  0  0  0  0  0  0  0  0
   21.2883  -20.1795  -15.7618 O   0  0  0  0  0  0  0  0  0  0  0  0
   24.2729  -15.0694  -17.7488 N   0  0  0  0  0  0  0  0  0  0  0  0
   22.0154  -18.9278  -13.9536 C   0  0  2  0  0  0  0  0  0  0  0  0
   20.6862  -18.3981  -13.7411 C   0  0  0  0  0  0  0  0  0  0  0  0
   20.5964  -17.9696  -12.2922 C   0  0  0  0  0  0  0  0  0  0  0  0
   20.4980  -19.1083  -11.3783 C   0  0  0  0  0  0  0  0  0  0  0  0
   20.4027  -20.4228  -11.7442 N   0  0  0  0  0  0  0  0  0  0  0  0
   20.3319  -21.1595  -10.5992 C   0  0  0  0  0  0  0  0  0  0  0  0
   20.3813  -20.3293   -9.5471 N   0  0  0  0  0  0  0  0  0  0  0  0
   20.4838  -19.0678  -10.0543 C   0  0  0  0  0  0  0  0  0  0  0  0
   20.3532  -17.3051  -14.6683 O   0  0  0  0  0  0  0  0  0  0  0  0
   21.1553  -16.6186  -15.3144 O   0  0  0  0  0  0  0  0  0  0  0  0
  1  2  1  0
  2  3  1  0
  4  3  1  0
  5  4  1  0
  5  6  1  1
  7  8  2  0
  7  5  1  0
  9 10  1  0
 10 11  2  0
 12 13  1  0
 12 10  1  0
 13 14  1  0
 14 15  1  0
 16 15  1  6
 16 17  1  0
 17  7  1  0
 18 16  1  0
 19 18  2  0
 20 18  1  0
 21 28  1  0
 21 20  1  0
 21 22  1  1
 22 23  1  0
 23 27  1  0
 24 23  2  0
 24 25  1  0
 25 26  1  0
 27 26  2  0
 28 30  1  0
 29 28  2  0
M  END
$$$$
