MRH.pdb
     RDKit          3D

 30 30  0  0  1  0  0  0  0  0999 V2000
   25.6261  -19.0864   -7.8171 C   0  0  0  0  0  0  0  0  0  0  0  0
   26.5313  -20.6309   -7.6443 S   0  0  0  0  0  0  0  0  0  0  0  0
   27.0822  -21.2329   -9.2665 C   0  0  0  0  0  0  0  0  0  0  0  0
   26.0786  -20.7051  -10.2977 C   0  0  0  0  0  0  0  0  0  0  0  0
   26.5536  -21.1917  -11.6257 C   0  0  2  0  0  0  0  0  0  0  0  0
   27.9101  -20.7366  -11.8449 N   0  0  0  0  0  0  0  0  0  0  0  0
   25.6651  -20.8067  -12.7627 C   0  0  0  0  0  0  0  0  0  0  0  0
   25.7568  -19.6868  -13.3266 O   0  0  0  0  0  0  0  0  0  0  0  0
   22.8194  -26.6402  -18.0465 N   0  0  0  0  0  0  0  0  0  0  0  0
   23.1820  -26.2050  -16.7387 C   0  0  0  0  0  0  0  0  0  0  0  0
   23.5532  -27.0744  -15.8638 N   0  0  0  0  0  0  0  0  0  0  0  0
   23.1547  -24.8506  -16.3511 N   0  0  0  0  0  0  0  0  0  0  0  0
   22.3697  -23.8349  -17.0187 C   0  0  0  0  0  0  0  0  0  0  0  0
   22.6436  -22.5149  -16.3305 C   0  0  0  0  0  0  0  0  0  0  0  0
   23.5477  -22.6382  -15.1583 C   0  0  0  0  0  0  0  0  0  0  0  0
   23.8263  -21.3668  -14.4061 C   0  0  2  0  0  0  0  0  0  0  0  0
   24.6679  -21.6834  -13.2671 N   0  0  0  0  0  0  0  0  0  0  0  0
   22.5016  -20.8493  -13.9621 C   0  0  0  0  0  0  0  0  0  0  0  0
   21.9294  -21.4307  -13.0171 O   0  0  0  0  0  0  0  0  0  0  0  0
   23.8274  -26.8297  -14.8977 N   0  0  0  0  0  0  0  0  0  0  0  0
   21.9108  -19.7332  -14.5929 C   0  0  2  0  0  0  0  0  0  0  0  0
   20.6905  -19.1843  -14.0434 C   0  0  0  0  0  0  0  0  0  0  0  0
   20.6532  -17.7147  -14.4035 C   0  0  0  0  0  0  0  0  0  0  0  0
   19.4611  -17.0429  -13.8850 C   0  0  0  0  0  0  0  0  0  0  0  0
   19.2025  -16.7729  -12.5693 N   0  0  0  0  0  0  0  0  0  0  0  0
   17.9956  -16.1411  -12.5133 C   0  0  0  0  0  0  0  0  0  0  0  0
   17.5131  -16.0195  -13.7588 N   0  0  0  0  0  0  0  0  0  0  0  0
   18.4364  -16.5841  -14.5882 C   0  0  0  0  0  0  0  0  0  0  0  0
   19.4881  -19.9011  -14.4970 O   0  0  0  0  0  0  0  0  0  0  0  0
   19.3189  -20.4259  -15.6052 O   0  0  0  0  0  0  0  0  0  0  0  0
  1  2  1  0
  2  3  1  0
  4  3  1  0
  5  4  1  0
  5  6  1  6
  7  8  2  0
  7  5  1  0
  9 10  1  0
 10 11  2  0
 12 13  1  0
 12 10  1  0
 13 14  1  0
 14 15  1  0
 16 15  1  1
 16 17  1  0
 17  7  1  0
 18 16  1  0
 19 18  2  0
 20 18  1  0
 21 28  1  0
 21 20  1  0
 21 22  1  6
 22 23  1  0
 23 27  1  0
 24 23  2  0
 24 25  1  0
 25 26  1  0
 27 26  2  0
 28 30  1  0
 29 28  2  0
M  END
$$$$
