MRH.pdb
     RDKit          3D

 30 30  0  0  1  0  0  0  0  0999 V2000
   28.5480  -20.2062   -4.3146 C   0  0  0  0  0  0  0  0  0  0  0  0
   28.0861  -19.4112   -5.8603 S   0  0  0  0  0  0  0  0  0  0  0  0
   27.8391  -20.6488   -7.1659 C   0  0  0  0  0  0  0  0  0  0  0  0
   27.4390  -19.8822   -8.4314 C   0  0  0  0  0  0  0  0  0  0  0  0
   27.1000  -20.9157   -9.4527 C   0  0  2  0  0  0  0  0  0  0  0  0
   28.2380  -21.7889   -9.6459 N   0  0  0  0  0  0  0  0  0  0  0  0
   26.6283  -20.3488  -10.7514 C   0  0  0  0  0  0  0  0  0  0  0  0
   27.4213  -19.8208  -11.5718 O   0  0  0  0  0  0  0  0  0  0  0  0
   23.7716  -25.1396  -16.7183 N   0  0  0  0  0  0  0  0  0  0  0  0
   23.8366  -25.2041  -15.2960 C   0  0  0  0  0  0  0  0  0  0  0  0
   23.1812  -26.1224  -14.6745 N   0  0  0  0  0  0  0  0  0  0  0  0
   24.5947  -24.3000  -14.5259 N   0  0  0  0  0  0  0  0  0  0  0  0
   25.4198  -23.2531  -15.0888 C   0  0  0  0  0  0  0  0  0  0  0  0
   24.9252  -21.9318  -14.5406 C   0  0  0  0  0  0  0  0  0  0  0  0
   25.2795  -21.7163  -13.1142 C   0  0  0  0  0  0  0  0  0  0  0  0
   24.8109  -20.4227  -12.5084 C   0  0  2  0  0  0  0  0  0  0  0  0
   25.2593  -20.3738  -11.1292 N   0  0  0  0  0  0  0  0  0  0  0  0
   23.3231  -20.4446  -12.5844 C   0  0  0  0  0  0  0  0  0  0  0  0
   22.7070  -21.2274  -11.8321 O   0  0  0  0  0  0  0  0  0  0  0  0
   23.1511  -26.2035  -13.6445 N   0  0  0  0  0  0  0  0  0  0  0  0
   22.6306  -19.6037  -13.4822 C   0  0  2  0  0  0  0  0  0  0  0  0
   21.1868  -19.5467  -13.4144 C   0  0  0  0  0  0  0  0  0  0  0  0
   20.7318  -18.4612  -14.3660 C   0  0  0  0  0  0  0  0  0  0  0  0
   19.2858  -18.2431  -14.3138 C   0  0  0  0  0  0  0  0  0  0  0  0
   18.4106  -18.8734  -13.4726 N   0  0  0  0  0  0  0  0  0  0  0  0
   17.1656  -18.3884  -13.7432 C   0  0  0  0  0  0  0  0  0  0  0  0
   17.2594  -17.4805  -14.7258 N   0  0  0  0  0  0  0  0  0  0  0  0
   18.5790  -17.4085  -15.0614 C   0  0  0  0  0  0  0  0  0  0  0  0
   20.5511  -20.8426  -13.7006 O   0  0  0  0  0  0  0  0  0  0  0  0
   20.8571  -21.6277  -14.6073 O   0  0  0  0  0  0  0  0  0  0  0  0
  1  2  1  0
  2  3  1  0
  4  3  1  0
  5  4  1  0
  5  6  1  6
  7  8  2  0
  7  5  1  0
  9 10  1  0
 10 11  2  0
 12 13  1  0
 12 10  1  0
 13 14  1  0
 14 15  1  0
 16 15  1  1
 16 17  1  0
 17  7  1  0
 18 16  1  0
 19 18  2  0
 20 18  1  0
 21 28  1  0
 21 20  1  0
 21 22  1  6
 22 23  1  0
 23 27  1  0
 24 23  2  0
 24 25  1  0
 25 26  1  0
 27 26  2  0
 28 30  1  0
 29 28  2  0
M  END
$$$$
