MRH.pdb
     RDKit          3D

 30 30  0  0  1  0  0  0  0  0999 V2000
   15.1581  -13.7164  -14.6229 C   0  0  0  0  0  0  0  0  0  0  0  0
   15.4140  -14.4422  -16.2484 S   0  0  0  0  0  0  0  0  0  0  0  0
   16.6526  -13.4976  -17.1816 C   0  0  0  0  0  0  0  0  0  0  0  0
   17.4828  -12.7212  -16.1534 C   0  0  0  0  0  0  0  0  0  0  0  0
   18.5178  -11.9793  -16.9308 C   0  0  2  0  0  0  0  0  0  0  0  0
   19.2638  -12.9132  -17.7472 N   0  0  0  0  0  0  0  0  0  0  0  0
   19.4305  -11.1530  -16.0855 C   0  0  0  0  0  0  0  0  0  0  0  0
   18.9917  -10.2926  -15.2806 O   0  0  0  0  0  0  0  0  0  0  0  0
   28.0444  -11.8281  -16.5969 N   0  0  0  0  0  0  0  0  0  0  0  0
   27.0215  -11.0433  -17.2045 C   0  0  0  0  0  0  0  0  0  0  0  0
   27.1600  -10.6615  -18.4268 N   0  0  0  0  0  0  0  0  0  0  0  0
   25.8489  -10.6604  -16.5235 N   0  0  0  0  0  0  0  0  0  0  0  0
   25.6151  -10.9049  -15.1167 C   0  0  0  0  0  0  0  0  0  0  0  0
   24.2329  -10.3864  -14.7826 C   0  0  0  0  0  0  0  0  0  0  0  0
   23.1588  -11.0005  -15.6047 C   0  0  0  0  0  0  0  0  0  0  0  0
   21.7567  -10.5571  -15.2923 C   0  0  2  0  0  0  0  0  0  0  0  0
   20.8427  -11.2928  -16.1463 N   0  0  0  0  0  0  0  0  0  0  0  0
   21.7074   -9.0983  -15.5910 C   0  0  0  0  0  0  0  0  0  0  0  0
   21.8503   -8.7353  -16.7768 O   0  0  0  0  0  0  0  0  0  0  0  0
   26.4609  -10.0881  -18.9276 N   0  0  0  0  0  0  0  0  0  0  0  0
   21.5048   -8.1539  -14.5615 C   0  0  1  0  0  0  0  0  0  0  0  0
   21.4393   -6.7500  -14.9035 C   0  0  0  0  0  0  0  0  0  0  0  0
   20.0138   -6.4507  -15.3149 C   0  0  0  0  0  0  0  0  0  0  0  0
   19.8044   -5.0333  -15.6122 C   0  0  0  0  0  0  0  0  0  0  0  0
   19.9622   -3.9985  -14.7318 N   0  0  0  0  0  0  0  0  0  0  0  0
   19.6711   -2.8470  -15.4011 C   0  0  0  0  0  0  0  0  0  0  0  0
   19.3404   -3.1530  -16.6643 N   0  0  0  0  0  0  0  0  0  0  0  0
   19.4303   -4.5095  -16.7700 C   0  0  0  0  0  0  0  0  0  0  0  0
   21.9013   -5.8756  -13.8138 O   0  0  0  0  0  0  0  0  0  0  0  0
   21.9908   -6.1771  -12.6166 O   0  0  0  0  0  0  0  0  0  0  0  0
  1  2  1  0
  2  3  1  0
  4  3  1  0
  5  4  1  0
  5  6  1  1
  7  8  2  0
  7  5  1  0
  9 10  1  0
 10 11  2  0
 12 13  1  0
 12 10  1  0
 13 14  1  0
 14 15  1  0
 16 15  1  6
 16 17  1  0
 17  7  1  0
 18 16  1  0
 19 18  2  0
 20 18  1  0
 21 28  1  0
 21 20  1  0
 21 22  1  1
 22 23  1  0
 23 27  1  0
 24 23  2  0
 24 25  1  0
 25 26  1  0
 27 26  2  0
 28 30  1  0
 29 28  2  0
M  END
$$$$
