MRH.pdb
     RDKit          3D

 30 30  0  0  1  0  0  0  0  0999 V2000
   27.0112  -19.4680   -7.9191 C   0  0  0  0  0  0  0  0  0  0  0  0
   26.9749  -21.2652   -7.9782 S   0  0  0  0  0  0  0  0  0  0  0  0
   26.2277  -21.8379   -9.5310 C   0  0  0  0  0  0  0  0  0  0  0  0
   25.3179  -20.7083  -10.0265 C   0  0  0  0  0  0  0  0  0  0  0  0
   24.7091  -21.1939  -11.2991 C   0  0  2  0  0  0  0  0  0  0  0  0
   25.5924  -22.1621  -11.9132 N   0  0  0  0  0  0  0  0  0  0  0  0
   24.3575  -20.1018  -12.2552 C   0  0  0  0  0  0  0  0  0  0  0  0
   23.5776  -19.1680  -11.9381 O   0  0  0  0  0  0  0  0  0  0  0  0
   27.2483  -20.3140  -17.3113 N   0  0  0  0  0  0  0  0  0  0  0  0
   28.3623  -20.4028  -16.4268 C   0  0  0  0  0  0  0  0  0  0  0  0
   28.9570  -21.5347  -16.2711 N   0  0  0  0  0  0  0  0  0  0  0  0
   28.8523  -19.2964  -15.7049 N   0  0  0  0  0  0  0  0  0  0  0  0
   28.1789  -18.0179  -15.6301 C   0  0  0  0  0  0  0  0  0  0  0  0
   26.9857  -18.1788  -14.7128 C   0  0  0  0  0  0  0  0  0  0  0  0
   25.8063  -18.7857  -15.3816 C   0  0  0  0  0  0  0  0  0  0  0  0
   24.5948  -18.9945  -14.5164 C   0  0  2  0  0  0  0  0  0  0  0  0
   24.8830  -20.0598  -13.5741 N   0  0  0  0  0  0  0  0  0  0  0  0
   23.4898  -19.3824  -15.4375 C   0  0  0  0  0  0  0  0  0  0  0  0
   23.7918  -19.8782  -16.5427 O   0  0  0  0  0  0  0  0  0  0  0  0
   29.7952  -21.6617  -15.6798 N   0  0  0  0  0  0  0  0  0  0  0  0
   22.1399  -19.1942  -15.0701 C   0  0  1  0  0  0  0  0  0  0  0  0
   21.1751  -20.2190  -15.4037 C   0  0  0  0  0  0  0  0  0  0  0  0
   21.6849  -21.5238  -14.8306 C   0  0  0  0  0  0  0  0  0  0  0  0
   20.7703  -22.6385  -15.0806 C   0  0  0  0  0  0  0  0  0  0  0  0
   19.5319  -22.5452  -15.6536 N   0  0  0  0  0  0  0  0  0  0  0  0
   19.0114  -23.8042  -15.7045 C   0  0  0  0  0  0  0  0  0  0  0  0
   19.8991  -24.6606  -15.1782 N   0  0  0  0  0  0  0  0  0  0  0  0
   20.9773  -23.9165  -14.8001 C   0  0  0  0  0  0  0  0  0  0  0  0
   19.8172  -19.8969  -14.9373 O   0  0  0  0  0  0  0  0  0  0  0  0
   18.8061  -20.5972  -15.0769 O   0  0  0  0  0  0  0  0  0  0  0  0
  1  2  1  0
  2  3  1  0
  4  3  1  0
  5  4  1  0
  5  6  1  6
  7  8  2  0
  7  5  1  0
  9 10  1  0
 10 11  2  0
 12 13  1  0
 12 10  1  0
 13 14  1  0
 14 15  1  0
 16 15  1  6
 16 17  1  0
 17  7  1  0
 18 16  1  0
 19 18  2  0
 20 18  1  0
 21 28  1  0
 21 20  1  0
 21 22  1  6
 22 23  1  0
 23 27  1  0
 24 23  2  0
 24 25  1  0
 25 26  1  0
 27 26  2  0
 28 30  1  0
 29 28  2  0
M  END
$$$$
