MRH.pdb
     RDKit          3D

 30 30  0  0  1  0  0  0  0  0999 V2000
   23.3017  -13.1303  -19.4125 C   0  0  0  0  0  0  0  0  0  0  0  0
   24.8772  -12.6841  -20.1563 S   0  0  0  0  0  0  0  0  0  0  0  0
   26.1217  -13.9663  -19.8330 C   0  0  0  0  0  0  0  0  0  0  0  0
   25.4281  -15.0578  -19.0104 C   0  0  0  0  0  0  0  0  0  0  0  0
   26.4886  -16.0441  -18.6519 C   0  0  2  0  0  0  0  0  0  0  0  0
   27.0132  -16.6433  -19.8605 N   0  0  0  0  0  0  0  0  0  0  0  0
   26.0393  -17.0882  -17.6832 C   0  0  0  0  0  0  0  0  0  0  0  0
   25.2386  -17.9993  -18.0139 O   0  0  0  0  0  0  0  0  0  0  0  0
   25.8670  -21.8191  -11.1485 N   0  0  0  0  0  0  0  0  0  0  0  0
   26.1858  -22.0287  -12.5218 C   0  0  0  0  0  0  0  0  0  0  0  0
   25.6658  -23.0285  -13.1457 N   0  0  0  0  0  0  0  0  0  0  0  0
   27.0535  -21.1827  -13.2406 N   0  0  0  0  0  0  0  0  0  0  0  0
   27.5846  -19.9409  -12.7217 C   0  0  0  0  0  0  0  0  0  0  0  0
   26.5702  -18.8531  -13.0025 C   0  0  0  0  0  0  0  0  0  0  0  0
   26.9375  -17.9881  -14.1530 C   0  0  0  0  0  0  0  0  0  0  0  0
   26.0411  -18.0788  -15.3564 C   0  0  2  0  0  0  0  0  0  0  0  0
   26.4903  -17.1075  -16.3365 N   0  0  0  0  0  0  0  0  0  0  0  0
   24.6685  -17.7550  -14.8758 C   0  0  0  0  0  0  0  0  0  0  0  0
   24.4624  -16.6163  -14.4075 O   0  0  0  0  0  0  0  0  0  0  0  0
   25.9000  -23.2757  -14.1216 N   0  0  0  0  0  0  0  0  0  0  0  0
   23.6310  -18.7095  -14.9482 C   0  0  2  0  0  0  0  0  0  0  0  0
   22.2699  -18.2821  -14.7090 C   0  0  0  0  0  0  0  0  0  0  0  0
   21.9361  -17.2332  -15.7479 C   0  0  0  0  0  0  0  0  0  0  0  0
   20.5835  -16.6984  -15.5866 C   0  0  0  0  0  0  0  0  0  0  0  0
   19.6809  -17.0778  -14.6315 N   0  0  0  0  0  0  0  0  0  0  0  0
   18.5492  -16.3432  -14.8268 C   0  0  0  0  0  0  0  0  0  0  0  0
   18.7386  -15.5275  -15.8744 N   0  0  0  0  0  0  0  0  0  0  0  0
   20.0027  -15.7656  -16.3265 C   0  0  0  0  0  0  0  0  0  0  0  0
   21.3122  -19.3993  -14.7156 O   0  0  0  0  0  0  0  0  0  0  0  0
   21.4533  -20.4857  -15.2918 O   0  0  0  0  0  0  0  0  0  0  0  0
  1  2  1  0
  2  3  1  0
  4  3  1  0
  5  4  1  0
  5  6  1  6
  7  8  2  0
  7  5  1  0
  9 10  1  0
 10 11  2  0
 12 13  1  0
 12 10  1  0
 13 14  1  0
 14 15  1  0
 16 15  1  1
 16 17  1  0
 17  7  1  0
 18 16  1  0
 19 18  2  0
 20 18  1  0
 21 28  1  0
 21 20  1  0
 21 22  1  6
 22 23  1  0
 23 27  1  0
 24 23  2  0
 24 25  1  0
 25 26  1  0
 27 26  2  0
 28 30  1  0
 29 28  2  0
M  END
$$$$
