MRH.pdb
     RDKit          3D

 30 30  0  0  1  0  0  0  0  0999 V2000
   28.4702  -19.7769   -4.8295 C   0  0  0  0  0  0  0  0  0  0  0  0
   27.0823  -19.1781   -5.8041 S   0  0  0  0  0  0  0  0  0  0  0  0
   26.2754  -20.5509   -6.6768 C   0  0  0  0  0  0  0  0  0  0  0  0
   26.8763  -20.5926   -8.0861 C   0  0  0  0  0  0  0  0  0  0  0  0
   25.7331  -20.4225   -9.0297 C   0  0  2  0  0  0  0  0  0  0  0  0
   24.9752  -21.6542   -9.0902 N   0  0  0  0  0  0  0  0  0  0  0  0
   26.1389  -19.9711  -10.3943 C   0  0  0  0  0  0  0  0  0  0  0  0
   26.5315  -18.7974  -10.6154 O   0  0  0  0  0  0  0  0  0  0  0  0
   30.1577  -23.9455  -17.3894 N   0  0  0  0  0  0  0  0  0  0  0  0
   29.5344  -22.7269  -17.7865 C   0  0  0  0  0  0  0  0  0  0  0  0
   29.6760  -22.3099  -18.9970 N   0  0  0  0  0  0  0  0  0  0  0  0
   28.7587  -21.9457  -16.9071 N   0  0  0  0  0  0  0  0  0  0  0  0
   28.4419  -22.3316  -15.5491 C   0  0  0  0  0  0  0  0  0  0  0  0
   27.5480  -21.2603  -14.9624 C   0  0  0  0  0  0  0  0  0  0  0  0
   27.2817  -21.4443  -13.5126 C   0  0  0  0  0  0  0  0  0  0  0  0
   26.3948  -20.4139  -12.8709 C   0  0  2  0  0  0  0  0  0  0  0  0
   26.1015  -20.8420  -11.5157 N   0  0  0  0  0  0  0  0  0  0  0  0
   25.1541  -20.3647  -13.6943 C   0  0  0  0  0  0  0  0  0  0  0  0
   24.4087  -21.3661  -13.6957 O   0  0  0  0  0  0  0  0  0  0  0  0
   29.2880  -21.4157  -19.3409 N   0  0  0  0  0  0  0  0  0  0  0  0
   24.8313  -19.2178  -14.4513 C   0  0  2  0  0  0  0  0  0  0  0  0
   23.5761  -19.1844  -15.1694 C   0  0  0  0  0  0  0  0  0  0  0  0
   23.1312  -17.7392  -15.2356 C   0  0  0  0  0  0  0  0  0  0  0  0
   21.8998  -17.5690  -16.0077 C   0  0  0  0  0  0  0  0  0  0  0  0
   21.1325  -18.5767  -16.5240 N   0  0  0  0  0  0  0  0  0  0  0  0
   20.0809  -17.9972  -17.1697 C   0  0  0  0  0  0  0  0  0  0  0  0
   20.1875  -16.6647  -17.0604 N   0  0  0  0  0  0  0  0  0  0  0  0
   21.3191  -16.4251  -16.3384 C   0  0  0  0  0  0  0  0  0  0  0  0
   23.6649  -19.8029  -16.5016 O   0  0  0  0  0  0  0  0  0  0  0  0
   24.6085  -19.7047  -17.2968 O   0  0  0  0  0  0  0  0  0  0  0  0
  1  2  1  0
  2  3  1  0
  4  3  1  0
  5  4  1  0
  5  6  1  6
  7  8  2  0
  7  5  1  0
  9 10  1  0
 10 11  2  0
 12 13  1  0
 12 10  1  0
 13 14  1  0
 14 15  1  0
 16 15  1  6
 16 17  1  0
 17  7  1  0
 18 16  1  0
 19 18  2  0
 20 18  1  0
 21 28  1  0
 21 20  1  0
 21 22  1  1
 22 23  1  0
 23 27  1  0
 24 23  2  0
 24 25  1  0
 25 26  1  0
 27 26  2  0
 28 30  1  0
 29 28  2  0
M  END
$$$$
