WFH.pdb
     RDKit          3D

 36 39  0  0  1  0  0  0  0  0999 V2000
   19.6851  -13.6469  -17.7583 N   0  0  0  0  0  0  0  0  0  0  0  0
   19.9339  -12.3792  -18.3497 C   0  0  1  0  0  0  0  0  0  0  0  0
   19.1489  -12.0481  -19.5711 C   0  0  0  0  0  0  0  0  0  0  0  0
   19.6426  -12.8574  -20.7071 C   0  0  0  0  0  0  0  0  0  0  0  0
   19.5043  -14.2272  -20.8642 C   0  0  0  0  0  0  0  0  0  0  0  0
   20.0485  -14.6179  -22.0235 N   0  0  0  0  0  0  0  0  0  0  0  0
   20.5403  -13.5126  -22.6214 C   0  0  0  0  0  0  0  0  0  0  0  0
   21.1943  -13.3582  -23.8105 C   0  0  0  0  0  0  0  0  0  0  0  0
   21.6267  -12.1227  -24.2407 C   0  0  0  0  0  0  0  0  0  0  0  0
   21.3898  -11.0336  -23.4502 C   0  0  0  0  0  0  0  0  0  0  0  0
   20.7245  -11.1738  -22.2358 C   0  0  0  0  0  0  0  0  0  0  0  0
   20.2997  -12.4068  -21.8209 C   0  0  0  0  0  0  0  0  0  0  0  0
   19.8150  -11.3099  -17.2989 C   0  0  0  0  0  0  0  0  0  0  0  0
   18.7972  -11.2905  -16.5416 O   0  0  0  0  0  0  0  0  0  0  0  0
   20.7809  -10.3125  -17.1012 N   0  0  0  0  0  0  0  0  0  0  0  0
   20.5925   -9.2613  -16.0615 C   0  0  1  0  0  0  0  0  0  0  0  0
   21.8991   -9.1934  -15.3592 C   0  0  0  0  0  0  0  0  0  0  0  0
   22.0763   -8.1707  -14.3395 C   0  0  0  0  0  0  0  0  0  0  0  0
   21.7368   -8.3782  -13.0257 C   0  0  0  0  0  0  0  0  0  0  0  0
   21.9078   -7.3947  -12.0544 C   0  0  0  0  0  0  0  0  0  0  0  0
   22.4337   -6.1688  -12.4091 C   0  0  0  0  0  0  0  0  0  0  0  0
   22.7736   -5.9635  -13.7291 C   0  0  0  0  0  0  0  0  0  0  0  0
   22.6061   -6.9355  -14.6970 C   0  0  0  0  0  0  0  0  0  0  0  0
   20.2650   -8.0224  -16.7791 C   0  0  0  0  0  0  0  0  0  0  0  0
   20.9193   -7.6980  -17.8316 O   0  0  0  0  0  0  0  0  0  0  0  0
   19.2331   -7.0942  -16.4096 N   0  0  0  0  0  0  0  0  0  0  0  0
   19.0713   -5.8509  -17.1087 C   0  0  1  0  0  0  0  0  0  0  0  0
   17.6328   -5.5522  -17.3716 C   0  0  0  0  0  0  0  0  0  0  0  0
   16.9039   -6.5058  -18.2083 C   0  0  0  0  0  0  0  0  0  0  0  0
   17.1362   -6.9424  -19.4835 C   0  0  0  0  0  0  0  0  0  0  0  0
   16.1937   -7.8744  -19.8293 N   0  0  0  0  0  0  0  0  0  0  0  0
   15.4076   -7.9930  -18.7703 C   0  0  0  0  0  0  0  0  0  0  0  0
   15.8015   -7.1915  -17.7842 N   0  0  0  0  0  0  0  0  0  0  0  0
   19.7358   -4.6914  -16.4869 C   0  0  0  0  0  0  0  0  0  0  0  0
   20.3875   -3.6717  -17.1122 O   0  0  0  0  0  0  0  0  0  0  0  0
   19.6938   -4.6400  -15.2095 O   0  0  0  0  0  0  0  0  0  0  0  0
  2  1  1  1
  3  2  1  0
  4  3  1  0
  4  5  2  0
  6  5  1  0
  7 12  2  0
  7  6  1  0
  8  7  1  0
  9  8  2  0
 10  9  1  0
 10 11  2  0
 11 12  1  0
 12  4  1  0
 13  2  1  0
 14 13  2  0
 15 13  1  0
 16 24  1  0
 16 15  1  0
 16 17  1  6
 18 17  1  0
 19 18  2  0
 20 19  1  0
 21 22  1  0
 21 20  2  0
 22 23  2  0
 23 18  1  0
 24 25  2  0
 26 27  1  0
 26 24  1  0
 27 28  1  1
 28 29  1  0
 29 30  2  0
 30 31  1  0
 32 31  1  0
 33 29  1  0
 33 32  2  0
 34 35  1  0
 34 27  1  0
 36 34  2  0
M  END
$$$$
