WFH.pdb
     RDKit          3D

 36 39  0  0  1  0  0  0  0  0999 V2000
   26.6117  -21.7125  -13.7896 N   0  0  0  0  0  0  0  0  0  0  0  0
   25.8523  -20.8288  -12.9765 C   0  0  1  0  0  0  0  0  0  0  0  0
   24.4051  -20.7004  -13.3034 C   0  0  0  0  0  0  0  0  0  0  0  0
   24.2566  -20.1769  -14.6794 C   0  0  0  0  0  0  0  0  0  0  0  0
   24.1629  -20.9272  -15.8406 C   0  0  0  0  0  0  0  0  0  0  0  0
   24.0108  -20.1234  -16.9005 N   0  0  0  0  0  0  0  0  0  0  0  0
   24.0054  -18.8558  -16.4375 C   0  0  0  0  0  0  0  0  0  0  0  0
   23.8855  -17.6660  -17.0975 C   0  0  0  0  0  0  0  0  0  0  0  0
   23.9124  -16.4630  -16.4262 C   0  0  0  0  0  0  0  0  0  0  0  0
   24.0633  -16.4735  -15.0681 C   0  0  0  0  0  0  0  0  0  0  0  0
   24.1865  -17.6773  -14.3806 C   0  0  0  0  0  0  0  0  0  0  0  0
   24.1573  -18.8651  -15.0597 C   0  0  0  0  0  0  0  0  0  0  0  0
   26.0725  -21.1739  -11.5294 C   0  0  0  0  0  0  0  0  0  0  0  0
   25.8506  -22.3576  -11.1300 O   0  0  0  0  0  0  0  0  0  0  0  0
   26.5174  -20.2476  -10.5751 N   0  0  0  0  0  0  0  0  0  0  0  0
   26.6196  -20.6220   -9.1361 C   0  0  1  0  0  0  0  0  0  0  0  0
   27.6189  -19.6775   -8.5753 C   0  0  0  0  0  0  0  0  0  0  0  0
   27.8139  -19.6628   -7.1335 C   0  0  0  0  0  0  0  0  0  0  0  0
   28.5483  -20.6229   -6.4827 C   0  0  0  0  0  0  0  0  0  0  0  0
   28.7302  -20.6039   -5.1021 C   0  0  0  0  0  0  0  0  0  0  0  0
   28.1607  -19.5949   -4.3519 C   0  0  0  0  0  0  0  0  0  0  0  0
   27.4239  -18.6323   -5.0083 C   0  0  0  0  0  0  0  0  0  0  0  0
   27.2399  -18.6460   -6.3779 C   0  0  0  0  0  0  0  0  0  0  0  0
   25.2790  -20.4405   -8.5642 C   0  0  0  0  0  0  0  0  0  0  0  0
   24.5510  -19.4539   -8.9352 O   0  0  0  0  0  0  0  0  0  0  0  0
   24.6665  -21.2993   -7.5894 N   0  0  0  0  0  0  0  0  0  0  0  0
   23.2497  -21.2668   -7.3609 C   0  0  1  0  0  0  0  0  0  0  0  0
   22.4854  -21.5395   -8.6136 C   0  0  0  0  0  0  0  0  0  0  0  0
   21.0273  -21.5833   -8.4996 C   0  0  0  0  0  0  0  0  0  0  0  0
   20.2059  -21.4222   -7.4180 C   0  0  0  0  0  0  0  0  0  0  0  0
   18.8983  -21.5131   -7.8162 N   0  0  0  0  0  0  0  0  0  0  0  0
   18.9397  -21.7255   -9.1225 C   0  0  0  0  0  0  0  0  0  0  0  0
   20.1936  -21.7732   -9.5646 N   0  0  0  0  0  0  0  0  0  0  0  0
   22.7718  -22.1283   -6.2646 C   0  0  0  0  0  0  0  0  0  0  0  0
   21.6906  -21.9290   -5.4604 O   0  0  0  0  0  0  0  0  0  0  0  0
   23.4555  -23.1869   -6.0452 O   0  0  0  0  0  0  0  0  0  0  0  0
  2  1  1  6
  3  2  1  0
  4  3  1  0
  4  5  2  0
  6  5  1  0
  7 12  2  0
  7  6  1  0
  8  7  1  0
  9  8  2  0
 10  9  1  0
 10 11  2  0
 11 12  1  0
 12  4  1  0
 13  2  1  0
 14 13  2  0
 15 13  1  0
 16 24  1  0
 16 15  1  0
 16 17  1  1
 18 17  1  0
 19 18  2  0
 20 19  1  0
 21 22  1  0
 21 20  2  0
 22 23  2  0
 23 18  1  0
 24 25  2  0
 26 27  1  0
 26 24  1  0
 27 28  1  6
 28 29  1  0
 29 30  2  0
 30 31  1  0
 32 31  1  0
 33 29  1  0
 33 32  2  0
 34 35  1  0
 34 27  1  0
 36 34  2  0
M  END
$$$$
