WFH.pdb
     RDKit          3D

 36 39  0  0  1  0  0  0  0  0999 V2000
   28.2817  -22.3985  -16.4103 N   0  0  0  0  0  0  0  0  0  0  0  0
   27.0706  -21.6576  -16.3560 C   0  0  1  0  0  0  0  0  0  0  0  0
   26.0626  -21.9499  -17.4125 C   0  0  0  0  0  0  0  0  0  0  0  0
   26.4866  -21.3221  -18.6835 C   0  0  0  0  0  0  0  0  0  0  0  0
   27.0257  -21.9707  -19.7830 C   0  0  0  0  0  0  0  0  0  0  0  0
   27.2675  -21.0939  -20.7656 N   0  0  0  0  0  0  0  0  0  0  0  0
   26.8902  -19.8797  -20.3133 C   0  0  0  0  0  0  0  0  0  0  0  0
   26.9298  -18.6531  -20.9127 C   0  0  0  0  0  0  0  0  0  0  0  0
   26.4952  -17.5184  -20.2629 C   0  0  0  0  0  0  0  0  0  0  0  0
   26.0153  -17.6359  -18.9889 C   0  0  0  0  0  0  0  0  0  0  0  0
   25.9680  -18.8786  -18.3639 C   0  0  0  0  0  0  0  0  0  0  0  0
   26.4022  -19.9977  -19.0212 C   0  0  0  0  0  0  0  0  0  0  0  0
   26.4844  -21.7661  -14.9753 C   0  0  0  0  0  0  0  0  0  0  0  0
   26.1117  -22.8995  -14.5436 O   0  0  0  0  0  0  0  0  0  0  0  0
   26.3214  -20.6679  -14.1185 N   0  0  0  0  0  0  0  0  0  0  0  0
   25.6597  -20.8248  -12.7922 C   0  0  1  0  0  0  0  0  0  0  0  0
   26.4948  -20.0234  -11.8619 C   0  0  0  0  0  0  0  0  0  0  0  0
   27.8023  -20.5446  -11.4932 C   0  0  0  0  0  0  0  0  0  0  0  0
   28.9113  -20.3693  -12.2830 C   0  0  0  0  0  0  0  0  0  0  0  0
   30.1600  -20.8717  -11.9250 C   0  0  0  0  0  0  0  0  0  0  0  0
   30.3019  -21.5694  -10.7425 C   0  0  0  0  0  0  0  0  0  0  0  0
   29.1865  -21.7438   -9.9516 C   0  0  0  0  0  0  0  0  0  0  0  0
   27.9451  -21.2476  -10.3017 C   0  0  0  0  0  0  0  0  0  0  0  0
   24.2995  -20.2914  -12.9418 C   0  0  0  0  0  0  0  0  0  0  0  0
   24.0275  -19.4859  -13.9000 O   0  0  0  0  0  0  0  0  0  0  0  0
   23.1862  -20.5986  -12.0878 N   0  0  0  0  0  0  0  0  0  0  0  0
   21.8744  -20.8119  -12.6303 C   0  0  1  0  0  0  0  0  0  0  0  0
   21.8765  -21.8883  -13.6643 C   0  0  0  0  0  0  0  0  0  0  0  0
   20.5906  -22.2091  -14.2843 C   0  0  0  0  0  0  0  0  0  0  0  0
   19.6664  -23.1728  -13.9882 C   0  0  0  0  0  0  0  0  0  0  0  0
   18.5937  -23.0558  -14.8320 N   0  0  0  0  0  0  0  0  0  0  0  0
   18.8751  -22.0318  -15.6230 C   0  0  0  0  0  0  0  0  0  0  0  0
   20.0586  -21.5022  -15.3249 N   0  0  0  0  0  0  0  0  0  0  0  0
   20.8157  -21.0532  -11.6337 C   0  0  0  0  0  0  0  0  0  0  0  0
   19.4847  -20.7887  -11.7526 O   0  0  0  0  0  0  0  0  0  0  0  0
   21.1950  -21.5721  -10.5277 O   0  0  0  0  0  0  0  0  0  0  0  0
  2  1  1  1
  3  2  1  0
  4  3  1  0
  4  5  2  0
  6  5  1  0
  7 12  2  0
  7  6  1  0
  8  7  1  0
  9  8  2  0
 10  9  1  0
 10 11  2  0
 11 12  1  0
 12  4  1  0
 13  2  1  0
 14 13  2  0
 15 13  1  0
 16 24  1  0
 16 15  1  0
 16 17  1  1
 18 17  1  0
 19 18  2  0
 20 19  1  0
 21 22  1  0
 21 20  2  0
 22 23  2  0
 23 18  1  0
 24 25  2  0
 26 27  1  0
 26 24  1  0
 27 28  1  6
 28 29  1  0
 29 30  2  0
 30 31  1  0
 32 31  1  0
 33 29  1  0
 33 32  2  0
 34 35  1  0
 34 27  1  0
 36 34  2  0
M  END
$$$$
