WFH.pdb
     RDKit          3D

 36 39  0  0  1  0  0  0  0  0999 V2000
   27.9134  -21.2283  -16.5893 N   0  0  0  0  0  0  0  0  0  0  0  0
   26.6173  -20.6786  -16.3974 C   0  0  1  0  0  0  0  0  0  0  0  0
   25.6507  -20.8441  -17.5182 C   0  0  0  0  0  0  0  0  0  0  0  0
   25.9440  -19.8472  -18.5715 C   0  0  0  0  0  0  0  0  0  0  0  0
   26.5513  -20.0932  -19.7924 C   0  0  0  0  0  0  0  0  0  0  0  0
   26.6328  -18.9629  -20.5054 N   0  0  0  0  0  0  0  0  0  0  0  0
   26.0836  -17.9833  -19.7572 C   0  0  0  0  0  0  0  0  0  0  0  0
   25.9203  -16.6515  -20.0125 C   0  0  0  0  0  0  0  0  0  0  0  0
   25.3310  -15.8083  -19.0957 C   0  0  0  0  0  0  0  0  0  0  0  0
   24.9041  -16.3286  -17.9065 C   0  0  0  0  0  0  0  0  0  0  0  0
   25.0629  -17.6836  -17.6309 C   0  0  0  0  0  0  0  0  0  0  0  0
   25.6491  -18.5100  -18.5508 C   0  0  0  0  0  0  0  0  0  0  0  0
   26.0559  -21.1757  -15.0938 C   0  0  0  0  0  0  0  0  0  0  0  0
   25.9594  -22.4247  -14.8925 O   0  0  0  0  0  0  0  0  0  0  0  0
   25.6238  -20.3249  -14.0662 N   0  0  0  0  0  0  0  0  0  0  0  0
   25.0757  -20.8782  -12.7954 C   0  0  1  0  0  0  0  0  0  0  0  0
   25.7868  -20.1318  -11.7266 C   0  0  0  0  0  0  0  0  0  0  0  0
   27.2071  -20.3880  -11.5409 C   0  0  0  0  0  0  0  0  0  0  0  0
   27.6797  -21.2217  -10.5580 C   0  0  0  0  0  0  0  0  0  0  0  0
   29.0406  -21.4618  -10.3845 C   0  0  0  0  0  0  0  0  0  0  0  0
   29.9539  -20.8498  -11.2191 C   0  0  0  0  0  0  0  0  0  0  0  0
   29.4762  -20.0132  -12.2051 C   0  0  0  0  0  0  0  0  0  0  0  0
   28.1271  -19.7712  -12.3819 C   0  0  0  0  0  0  0  0  0  0  0  0
   23.6318  -20.6101  -12.8151 C   0  0  0  0  0  0  0  0  0  0  0  0
   23.2025  -19.4206  -13.0193 O   0  0  0  0  0  0  0  0  0  0  0  0
   22.6002  -21.5914  -12.6263 N   0  0  0  0  0  0  0  0  0  0  0  0
   21.2188  -21.2079  -12.5531 C   0  0  1  0  0  0  0  0  0  0  0  0
   20.4187  -21.8260  -13.6511 C   0  0  0  0  0  0  0  0  0  0  0  0
   20.7588  -21.4298  -15.0179 C   0  0  0  0  0  0  0  0  0  0  0  0
   20.7245  -20.2091  -15.6339 C   0  0  0  0  0  0  0  0  0  0  0  0
   21.1756  -20.3311  -16.9215 N   0  0  0  0  0  0  0  0  0  0  0  0
   21.4767  -21.6119  -17.0716 C   0  0  0  0  0  0  0  0  0  0  0  0
   21.2408  -22.2974  -15.9561 N   0  0  0  0  0  0  0  0  0  0  0  0
   20.5728  -21.4385  -11.2485 C   0  0  0  0  0  0  0  0  0  0  0  0
   19.3283  -21.0480  -10.8554 O   0  0  0  0  0  0  0  0  0  0  0  0
   21.2652  -22.0812  -10.3861 O   0  0  0  0  0  0  0  0  0  0  0  0
  2  1  1  6
  3  2  1  0
  4  3  1  0
  4  5  2  0
  6  5  1  0
  7 12  2  0
  7  6  1  0
  8  7  1  0
  9  8  2  0
 10  9  1  0
 10 11  2  0
 11 12  1  0
 12  4  1  0
 13  2  1  0
 14 13  2  0
 15 13  1  0
 16 24  1  0
 16 15  1  0
 16 17  1  1
 18 17  1  0
 19 18  2  0
 20 19  1  0
 21 22  1  0
 21 20  2  0
 22 23  2  0
 23 18  1  0
 24 25  2  0
 26 27  1  0
 26 24  1  0
 27 28  1  6
 28 29  1  0
 29 30  2  0
 30 31  1  0
 32 31  1  0
 33 29  1  0
 33 32  2  0
 34 35  1  0
 34 27  1  0
 36 34  2  0
M  END
$$$$
