WFH.pdb
     RDKit          3D

 36 39  0  0  1  0  0  0  0  0999 V2000
   26.9735  -23.1214  -16.9847 N   0  0  0  0  0  0  0  0  0  0  0  0
   26.3567  -21.9325  -16.5105 C   0  0  1  0  0  0  0  0  0  0  0  0
   25.2679  -21.3650  -17.3533 C   0  0  0  0  0  0  0  0  0  0  0  0
   25.8551  -20.7361  -18.5570 C   0  0  0  0  0  0  0  0  0  0  0  0
   26.9039  -21.2301  -19.3160 C   0  0  0  0  0  0  0  0  0  0  0  0
   27.1542  -20.4137  -20.3473 N   0  0  0  0  0  0  0  0  0  0  0  0
   26.2765  -19.3920  -20.2645 C   0  0  0  0  0  0  0  0  0  0  0  0
   26.1084  -18.2943  -21.0597 C   0  0  0  0  0  0  0  0  0  0  0  0
   25.1410  -17.3505  -20.7910 C   0  0  0  0  0  0  0  0  0  0  0  0
   24.3371  -17.5279  -19.7003 C   0  0  0  0  0  0  0  0  0  0  0  0
   24.4953  -18.6412  -18.8802 C   0  0  0  0  0  0  0  0  0  0  0  0
   25.4596  -19.5714  -19.1590 C   0  0  0  0  0  0  0  0  0  0  0  0
   25.9166  -22.1361  -15.0870 C   0  0  0  0  0  0  0  0  0  0  0  0
   25.0023  -22.9779  -14.8314 O   0  0  0  0  0  0  0  0  0  0  0  0
   26.4668  -21.4375  -14.0026 N   0  0  0  0  0  0  0  0  0  0  0  0
   25.8324  -21.4949  -12.6551 C   0  0  1  0  0  0  0  0  0  0  0  0
   26.8247  -20.8632  -11.7488 C   0  0  0  0  0  0  0  0  0  0  0  0
   26.4241  -20.5929  -10.3763 C   0  0  0  0  0  0  0  0  0  0  0  0
   27.2951  -20.0854   -9.4444 C   0  0  0  0  0  0  0  0  0  0  0  0
   26.9059  -19.8299   -8.1318 C   0  0  0  0  0  0  0  0  0  0  0  0
   25.6077  -20.0900   -7.7415 C   0  0  0  0  0  0  0  0  0  0  0  0
   24.7356  -20.5996   -8.6795 C   0  0  0  0  0  0  0  0  0  0  0  0
   25.1161  -20.8551   -9.9832 C   0  0  0  0  0  0  0  0  0  0  0  0
   24.5815  -20.7314  -12.7529 C   0  0  0  0  0  0  0  0  0  0  0  0
   24.4821  -19.7665  -13.5896 O   0  0  0  0  0  0  0  0  0  0  0  0
   23.3979  -20.9694  -11.9748 N   0  0  0  0  0  0  0  0  0  0  0  0
   22.1390  -20.3884  -12.3464 C   0  0  1  0  0  0  0  0  0  0  0  0
   21.6089  -20.9870  -13.6068 C   0  0  0  0  0  0  0  0  0  0  0  0
   21.8567  -20.2456  -14.8436 C   0  0  0  0  0  0  0  0  0  0  0  0
   21.6411  -20.5830  -16.1514 C   0  0  0  0  0  0  0  0  0  0  0  0
   21.9992  -19.5377  -16.9609 N   0  0  0  0  0  0  0  0  0  0  0  0
   22.4235  -18.5859  -16.1438 C   0  0  0  0  0  0  0  0  0  0  0  0
   22.3525  -18.9733  -14.8731 N   0  0  0  0  0  0  0  0  0  0  0  0
   21.1078  -20.4011  -11.2934 C   0  0  0  0  0  0  0  0  0  0  0  0
   21.1907  -20.9602  -10.0540 O   0  0  0  0  0  0  0  0  0  0  0  0
   20.0063  -19.8177  -11.5807 O   0  0  0  0  0  0  0  0  0  0  0  0
  2  1  1  6
  3  2  1  0
  4  3  1  0
  4  5  2  0
  6  5  1  0
  7 12  2  0
  7  6  1  0
  8  7  1  0
  9  8  2  0
 10  9  1  0
 10 11  2  0
 11 12  1  0
 12  4  1  0
 13  2  1  0
 14 13  2  0
 15 13  1  0
 16 24  1  0
 16 15  1  0
 16 17  1  1
 18 17  1  0
 19 18  2  0
 20 19  1  0
 21 22  1  0
 21 20  2  0
 22 23  2  0
 23 18  1  0
 24 25  2  0
 26 27  1  0
 26 24  1  0
 27 28  1  6
 28 29  1  0
 29 30  2  0
 30 31  1  0
 32 31  1  0
 33 29  1  0
 33 32  2  0
 34 35  1  0
 34 27  1  0
 36 34  2  0
M  END
$$$$
