WFH.pdb
     RDKit          3D

 36 39  0  0  1  0  0  0  0  0999 V2000
   26.3557  -21.6070  -13.3271 N   0  0  0  0  0  0  0  0  0  0  0  0
   25.8130  -20.6713  -12.4060 C   0  0  1  0  0  0  0  0  0  0  0  0
   24.3440  -20.4386  -12.4800 C   0  0  0  0  0  0  0  0  0  0  0  0
   23.9984  -19.8995  -13.8139 C   0  0  0  0  0  0  0  0  0  0  0  0
   24.5758  -18.8031  -14.4342 C   0  0  0  0  0  0  0  0  0  0  0  0
   24.0356  -18.6182  -15.6452 N   0  0  0  0  0  0  0  0  0  0  0  0
   23.1106  -19.5857  -15.8172 C   0  0  0  0  0  0  0  0  0  0  0  0
   22.2763  -19.8452  -16.8670 C   0  0  0  0  0  0  0  0  0  0  0  0
   21.3862  -20.8967  -16.8380 C   0  0  0  0  0  0  0  0  0  0  0  0
   21.3465  -21.6914  -15.7272 C   0  0  0  0  0  0  0  0  0  0  0  0
   22.1902  -21.4407  -14.6490 C   0  0  0  0  0  0  0  0  0  0  0  0
   23.0701  -20.3934  -14.6913 C   0  0  0  0  0  0  0  0  0  0  0  0
   26.2549  -21.0321  -11.0144 C   0  0  0  0  0  0  0  0  0  0  0  0
   26.1970  -22.2417  -10.6359 O   0  0  0  0  0  0  0  0  0  0  0  0
   26.7368  -20.0932  -10.0909 N   0  0  0  0  0  0  0  0  0  0  0  0
   26.9294  -20.4589   -8.6589 C   0  0  1  0  0  0  0  0  0  0  0  0
   27.9911  -19.5385   -8.1787 C   0  0  0  0  0  0  0  0  0  0  0  0
   28.2781  -19.5082   -6.7525 C   0  0  0  0  0  0  0  0  0  0  0  0
   28.9986  -20.4959   -6.1282 C   0  0  0  0  0  0  0  0  0  0  0  0
   29.2689  -20.4618   -4.7624 C   0  0  0  0  0  0  0  0  0  0  0  0
   28.8045  -19.4088   -4.0003 C   0  0  0  0  0  0  0  0  0  0  0  0
   28.0813  -18.4186   -4.6302 C   0  0  0  0  0  0  0  0  0  0  0  0
   27.8100  -18.4471   -5.9850 C   0  0  0  0  0  0  0  0  0  0  0  0
   25.6377  -20.2353   -7.9965 C   0  0  0  0  0  0  0  0  0  0  0  0
   24.8680  -19.2911   -8.3927 O   0  0  0  0  0  0  0  0  0  0  0  0
   25.1192  -21.0066   -6.9014 N   0  0  0  0  0  0  0  0  0  0  0  0
   23.7149  -21.2825   -6.7902 C   0  0  1  0  0  0  0  0  0  0  0  0
   23.1729  -21.8843   -8.0439 C   0  0  0  0  0  0  0  0  0  0  0  0
   21.9054  -21.3463   -8.5389 C   0  0  0  0  0  0  0  0  0  0  0  0
   21.0474  -20.4284   -7.9987 C   0  0  0  0  0  0  0  0  0  0  0  0
   20.0014  -20.2159   -8.8572 N   0  0  0  0  0  0  0  0  0  0  0  0
   20.2338  -20.9988   -9.8995 C   0  0  0  0  0  0  0  0  0  0  0  0
   21.3612  -21.6877   -9.7442 N   0  0  0  0  0  0  0  0  0  0  0  0
   23.3252  -22.0875   -5.6187 C   0  0  0  0  0  0  0  0  0  0  0  0
   22.1715  -22.0056   -4.8991 O   0  0  0  0  0  0  0  0  0  0  0  0
   24.1727  -22.9654   -5.2351 O   0  0  0  0  0  0  0  0  0  0  0  0
  2  1  1  6
  3  2  1  0
  4  3  1  0
  4  5  2  0
  6  5  1  0
  7 12  2  0
  7  6  1  0
  8  7  1  0
  9  8  2  0
 10  9  1  0
 10 11  2  0
 11 12  1  0
 12  4  1  0
 13  2  1  0
 14 13  2  0
 15 13  1  0
 16 24  1  0
 16 15  1  0
 16 17  1  1
 18 17  1  0
 19 18  2  0
 20 19  1  0
 21 22  1  0
 21 20  2  0
 22 23  2  0
 23 18  1  0
 24 25  2  0
 26 27  1  0
 26 24  1  0
 27 28  1  6
 28 29  1  0
 29 30  2  0
 30 31  1  0
 32 31  1  0
 33 29  1  0
 33 32  2  0
 34 35  1  0
 34 27  1  0
 36 34  2  0
M  END
$$$$
