WFH.pdb
     RDKit          3D

 36 39  0  0  1  0  0  0  0  0999 V2000
   15.0114  -13.8224    5.5137 N   0  0  0  0  0  0  0  0  0  0  0  0
   16.2513  -14.1860    6.1043 C   0  0  1  0  0  0  0  0  0  0  0  0
   16.4158  -13.8773    7.5519 C   0  0  0  0  0  0  0  0  0  0  0  0
   17.3023  -12.7027    7.7063 C   0  0  0  0  0  0  0  0  0  0  0  0
   16.9037  -11.3854    7.8674 C   0  0  0  0  0  0  0  0  0  0  0  0
   17.9730  -10.5911    8.0031 N   0  0  0  0  0  0  0  0  0  0  0  0
   19.0642  -11.3818    7.9308 C   0  0  0  0  0  0  0  0  0  0  0  0
   20.3933  -11.0759    8.0044 C   0  0  0  0  0  0  0  0  0  0  0  0
   21.3640  -12.0481    7.8981 C   0  0  0  0  0  0  0  0  0  0  0  0
   20.9752  -13.3453    7.7149 C   0  0  0  0  0  0  0  0  0  0  0  0
   19.6249  -13.6736    7.6382 C   0  0  0  0  0  0  0  0  0  0  0  0
   18.6711  -12.6981    7.7461 C   0  0  0  0  0  0  0  0  0  0  0  0
   16.5398  -15.6307    5.8021 C   0  0  0  0  0  0  0  0  0  0  0  0
   15.5763  -16.4485    5.6895 O   0  0  0  0  0  0  0  0  0  0  0  0
   17.8359  -16.1392    5.6336 N   0  0  0  0  0  0  0  0  0  0  0  0
   18.0548  -17.5639    5.2548 C   0  0  1  0  0  0  0  0  0  0  0  0
   18.9904  -17.5039    4.1033 C   0  0  0  0  0  0  0  0  0  0  0  0
   18.4634  -17.0842    2.8136 C   0  0  0  0  0  0  0  0  0  0  0  0
   17.7581  -17.9337    1.9978 C   0  0  0  0  0  0  0  0  0  0  0  0
   17.2571  -17.5263    0.7638 C   0  0  0  0  0  0  0  0  0  0  0  0
   17.4686  -16.2315    0.3347 C   0  0  0  0  0  0  0  0  0  0  0  0
   18.1771  -15.3809    1.1560 C   0  0  0  0  0  0  0  0  0  0  0  0
   18.6765  -15.7796    2.3814 C   0  0  0  0  0  0  0  0  0  0  0  0
   18.6391  -18.2207    6.4314 C   0  0  0  0  0  0  0  0  0  0  0  0
   19.6762  -17.7234    6.9953 O   0  0  0  0  0  0  0  0  0  0  0  0
   18.1410  -19.4175    7.0499 N   0  0  0  0  0  0  0  0  0  0  0  0
   18.8642  -20.0575    8.1120 C   0  0  1  0  0  0  0  0  0  0  0  0
   18.0848  -20.0569    9.3849 C   0  0  0  0  0  0  0  0  0  0  0  0
   17.5641  -18.7669    9.8383 C   0  0  0  0  0  0  0  0  0  0  0  0
   18.2020  -17.5914   10.1242 C   0  0  0  0  0  0  0  0  0  0  0  0
   17.2800  -16.6422   10.4784 N   0  0  0  0  0  0  0  0  0  0  0  0
   16.1037  -17.2456   10.4036 C   0  0  0  0  0  0  0  0  0  0  0  0
   16.2348  -18.5142   10.0246 N   0  0  0  0  0  0  0  0  0  0  0  0
   19.3567  -21.4127    7.8069 C   0  0  0  0  0  0  0  0  0  0  0  0
   19.0735  -22.1748    6.7139 O   0  0  0  0  0  0  0  0  0  0  0  0
   20.1422  -21.9316    8.6730 O   0  0  0  0  0  0  0  0  0  0  0  0
  2  1  1  1
  3  2  1  0
  4  3  1  0
  4  5  2  0
  6  5  1  0
  7 12  2  0
  7  6  1  0
  8  7  1  0
  9  8  2  0
 10  9  1  0
 10 11  2  0
 11 12  1  0
 12  4  1  0
 13  2  1  0
 14 13  2  0
 15 13  1  0
 16 24  1  0
 16 15  1  0
 16 17  1  6
 18 17  1  0
 19 18  2  0
 20 19  1  0
 21 22  1  0
 21 20  2  0
 22 23  2  0
 23 18  1  0
 24 25  2  0
 26 27  1  0
 26 24  1  0
 27 28  1  1
 28 29  1  0
 29 30  2  0
 30 31  1  0
 32 31  1  0
 33 29  1  0
 33 32  2  0
 34 35  1  0
 34 27  1  0
 36 34  2  0
M  END
$$$$
