WFH.pdb
     RDKit          3D

 36 39  0  0  1  0  0  0  0  0999 V2000
   27.8598  -21.6103  -16.9962 N   0  0  0  0  0  0  0  0  0  0  0  0
   27.3471  -20.6024  -16.1360 C   0  0  1  0  0  0  0  0  0  0  0  0
   26.2229  -19.7822  -16.6664 C   0  0  0  0  0  0  0  0  0  0  0  0
   26.7318  -18.8696  -17.7139 C   0  0  0  0  0  0  0  0  0  0  0  0
   26.6787  -19.0760  -19.0831 C   0  0  0  0  0  0  0  0  0  0  0  0
   27.2098  -18.0311  -19.7302 N   0  0  0  0  0  0  0  0  0  0  0  0
   27.6085  -17.1466  -18.7921 C   0  0  0  0  0  0  0  0  0  0  0  0
   28.2124  -15.9277  -18.9153 C   0  0  0  0  0  0  0  0  0  0  0  0
   28.5488  -15.1747  -17.8115 C   0  0  0  0  0  0  0  0  0  0  0  0
   28.2665  -15.6698  -16.5695 C   0  0  0  0  0  0  0  0  0  0  0  0
   27.6512  -16.9100  -16.4268 C   0  0  0  0  0  0  0  0  0  0  0  0
   27.3218  -17.6472  -17.5317 C   0  0  0  0  0  0  0  0  0  0  0  0
   27.0171  -21.2108  -14.8009 C   0  0  0  0  0  0  0  0  0  0  0  0
   26.3628  -22.2970  -14.7553 O   0  0  0  0  0  0  0  0  0  0  0  0
   27.3965  -20.6386  -13.5780 N   0  0  0  0  0  0  0  0  0  0  0  0
   26.7403  -21.0509  -12.3049 C   0  0  1  0  0  0  0  0  0  0  0  0
   27.5342  -20.3822  -11.2429 C   0  0  0  0  0  0  0  0  0  0  0  0
   27.0348  -20.4369   -9.8773 C   0  0  0  0  0  0  0  0  0  0  0  0
   27.4970  -21.3508   -8.9632 C   0  0  0  0  0  0  0  0  0  0  0  0
   27.0141  -21.3988   -7.6578 C   0  0  0  0  0  0  0  0  0  0  0  0
   26.0407  -20.5062   -7.2565 C   0  0  0  0  0  0  0  0  0  0  0  0
   25.5786  -19.5897   -8.1766 C   0  0  0  0  0  0  0  0  0  0  0  0
   26.0540  -19.5374   -9.4732 C   0  0  0  0  0  0  0  0  0  0  0  0
   25.3564  -20.5639  -12.3751 C   0  0  0  0  0  0  0  0  0  0  0  0
   25.0938  -19.4593  -12.9682 O   0  0  0  0  0  0  0  0  0  0  0  0
   24.2097  -21.2329  -11.8269 N   0  0  0  0  0  0  0  0  0  0  0  0
   22.8923  -20.6813  -11.9712 C   0  0  1  0  0  0  0  0  0  0  0  0
   22.2580  -21.1037  -13.2545 C   0  0  0  0  0  0  0  0  0  0  0  0
   20.8933  -20.6367  -13.5002 C   0  0  0  0  0  0  0  0  0  0  0  0
   20.2759  -19.4590  -13.1800 C   0  0  0  0  0  0  0  0  0  0  0  0
   18.9916  -19.4688  -13.6565 N   0  0  0  0  0  0  0  0  0  0  0  0
   18.8449  -20.6405  -14.2556 C   0  0  0  0  0  0  0  0  0  0  0  0
   19.9594  -21.3634  -14.1821 N   0  0  0  0  0  0  0  0  0  0  0  0
   21.9824  -20.9274  -10.8381 C   0  0  0  0  0  0  0  0  0  0  0  0
   20.9845  -20.1203  -10.3815 O   0  0  0  0  0  0  0  0  0  0  0  0
   22.1528  -22.0296  -10.2117 O   0  0  0  0  0  0  0  0  0  0  0  0
  2  1  1  6
  3  2  1  0
  4  3  1  0
  4  5  2  0
  6  5  1  0
  7 12  2  0
  7  6  1  0
  8  7  1  0
  9  8  2  0
 10  9  1  0
 10 11  2  0
 11 12  1  0
 12  4  1  0
 13  2  1  0
 14 13  2  0
 15 13  1  0
 16 24  1  0
 16 15  1  0
 16 17  1  1
 18 17  1  0
 19 18  2  0
 20 19  1  0
 21 22  1  0
 21 20  2  0
 22 23  2  0
 23 18  1  0
 24 25  2  0
 26 27  1  0
 26 24  1  0
 27 28  1  6
 28 29  1  0
 29 30  2  0
 30 31  1  0
 32 31  1  0
 33 29  1  0
 33 32  2  0
 34 35  1  0
 34 27  1  0
 36 34  2  0
M  END
$$$$
