WFH.pdb
     RDKit          3D

 36 39  0  0  1  0  0  0  0  0999 V2000
   23.6911  -10.9962  -19.4258 N   0  0  0  0  0  0  0  0  0  0  0  0
   22.9745   -9.7943  -19.6720 C   0  0  1  0  0  0  0  0  0  0  0  0
   21.7018   -9.9216  -20.4347 C   0  0  0  0  0  0  0  0  0  0  0  0
   21.9815  -10.5112  -21.7627 C   0  0  0  0  0  0  0  0  0  0  0  0
   21.9335  -11.8560  -22.0935 C   0  0  0  0  0  0  0  0  0  0  0  0
   22.2188  -12.0244  -23.3908 N   0  0  0  0  0  0  0  0  0  0  0  0
   22.4527  -10.7993  -23.9061 C   0  0  0  0  0  0  0  0  0  0  0  0
   22.7880  -10.4140  -25.1729 C   0  0  0  0  0  0  0  0  0  0  0  0
   22.9927   -9.0896  -25.4935 C   0  0  0  0  0  0  0  0  0  0  0  0
   22.8539   -8.1487  -24.5124 C   0  0  0  0  0  0  0  0  0  0  0  0
   22.5123   -8.5247  -23.2166 C   0  0  0  0  0  0  0  0  0  0  0  0
   22.3112   -9.8436  -22.9120 C   0  0  0  0  0  0  0  0  0  0  0  0
   22.7806   -9.0582  -18.3749 C   0  0  0  0  0  0  0  0  0  0  0  0
   22.2577   -9.6608  -17.3883 O   0  0  0  0  0  0  0  0  0  0  0  0
   23.1502   -7.7187  -18.1860 N   0  0  0  0  0  0  0  0  0  0  0  0
   22.8845   -7.0276  -16.8925 C   0  0  1  0  0  0  0  0  0  0  0  0
   24.2296   -6.8141  -16.3008 C   0  0  0  0  0  0  0  0  0  0  0  0
   24.9774   -7.9821  -15.8604 C   0  0  0  0  0  0  0  0  0  0  0  0
   26.1221   -8.4010  -16.4917 C   0  0  0  0  0  0  0  0  0  0  0  0
   26.8329   -9.5205  -16.0660 C   0  0  0  0  0  0  0  0  0  0  0  0
   26.3844  -10.2408  -14.9773 C   0  0  0  0  0  0  0  0  0  0  0  0
   25.2347   -9.8176  -14.3455 C   0  0  0  0  0  0  0  0  0  0  0  0
   24.5254   -8.7076  -14.7634 C   0  0  0  0  0  0  0  0  0  0  0  0
   22.2019   -5.7707  -17.2265 C   0  0  0  0  0  0  0  0  0  0  0  0
   22.7163   -4.9687  -18.0827 O   0  0  0  0  0  0  0  0  0  0  0  0
   20.9534   -5.3283  -16.6710 N   0  0  0  0  0  0  0  0  0  0  0  0
   20.4070   -4.0446  -17.0087 C   0  0  1  0  0  0  0  0  0  0  0  0
   18.9979   -4.1567  -17.4879 C   0  0  0  0  0  0  0  0  0  0  0  0
   18.7593   -5.0353  -18.6334 C   0  0  0  0  0  0  0  0  0  0  0  0
   18.5370   -6.3832  -18.7003 C   0  0  0  0  0  0  0  0  0  0  0  0
   18.3274   -6.7504  -20.0032 N   0  0  0  0  0  0  0  0  0  0  0  0
   18.4230   -5.6324  -20.7062 C   0  0  0  0  0  0  0  0  0  0  0  0
   18.6798   -4.5890  -19.9218 N   0  0  0  0  0  0  0  0  0  0  0  0
   20.5154   -3.0203  -15.9544 C   0  0  0  0  0  0  0  0  0  0  0  0
   20.9702   -3.1820  -14.6805 O   0  0  0  0  0  0  0  0  0  0  0  0
   20.1369   -1.8418  -16.2770 O   0  0  0  0  0  0  0  0  0  0  0  0
  2  1  1  1
  3  2  1  0
  4  3  1  0
  4  5  2  0
  6  5  1  0
  7 12  2  0
  7  6  1  0
  8  7  1  0
  9  8  2  0
 10  9  1  0
 10 11  2  0
 11 12  1  0
 12  4  1  0
 13  2  1  0
 14 13  2  0
 15 13  1  0
 16 24  1  0
 16 15  1  0
 16 17  1  6
 18 17  1  0
 19 18  2  0
 20 19  1  0
 21 22  1  0
 21 20  2  0
 22 23  2  0
 23 18  1  0
 24 25  2  0
 26 27  1  0
 26 24  1  0
 27 28  1  1
 28 29  1  0
 29 30  2  0
 30 31  1  0
 32 31  1  0
 33 29  1  0
 33 32  2  0
 34 35  1  0
 34 27  1  0
 36 34  2  0
M  END
$$$$
