WFH.pdb
     RDKit          3D

 36 39  0  0  1  0  0  0  0  0999 V2000
   26.6290  -37.6550   -7.3699 N   0  0  0  0  0  0  0  0  0  0  0  0
   26.9917  -37.3947   -6.0210 C   0  0  1  0  0  0  0  0  0  0  0  0
   27.0378  -38.5681   -5.1052 C   0  0  0  0  0  0  0  0  0  0  0  0
   25.6776  -39.1322   -4.9602 C   0  0  0  0  0  0  0  0  0  0  0  0
   24.8465  -39.5525   -5.9863 C   0  0  0  0  0  0  0  0  0  0  0  0
   23.7001  -40.0316   -5.4871 N   0  0  0  0  0  0  0  0  0  0  0  0
   23.7791  -39.9256   -4.1441 C   0  0  0  0  0  0  0  0  0  0  0  0
   22.8842  -40.2628   -3.1689 C   0  0  0  0  0  0  0  0  0  0  0  0
   23.1623  -40.0622   -1.8343 C   0  0  0  0  0  0  0  0  0  0  0  0
   24.3651  -39.5122   -1.4909 C   0  0  0  0  0  0  0  0  0  0  0  0
   25.2881  -39.1634   -2.4724 C   0  0  0  0  0  0  0  0  0  0  0  0
   24.9994  -39.3688   -3.7943 C   0  0  0  0  0  0  0  0  0  0  0  0
   28.2752  -36.6115   -5.9950 C   0  0  0  0  0  0  0  0  0  0  0  0
   29.2418  -36.9739   -6.7327 O   0  0  0  0  0  0  0  0  0  0  0  0
   28.4726  -35.4816   -5.1881 N   0  0  0  0  0  0  0  0  0  0  0  0
   29.6916  -35.3509   -4.3406 C   0  0  1  0  0  0  0  0  0  0  0  0
   30.0069  -33.9000   -4.3622 C   0  0  0  0  0  0  0  0  0  0  0  0
   31.3084  -33.4892   -4.8667 C   0  0  0  0  0  0  0  0  0  0  0  0
   31.4910  -33.0515   -6.1550 C   0  0  0  0  0  0  0  0  0  0  0  0
   32.7396  -32.6608   -6.6323 C   0  0  0  0  0  0  0  0  0  0  0  0
   33.8365  -32.7099   -5.7957 C   0  0  0  0  0  0  0  0  0  0  0  0
   33.6500  -33.1499   -4.5028 C   0  0  0  0  0  0  0  0  0  0  0  0
   32.4134  -33.5388   -4.0237 C   0  0  0  0  0  0  0  0  0  0  0  0
   29.3212  -35.8347   -3.0042 C   0  0  0  0  0  0  0  0  0  0  0  0
   28.4889  -36.8004   -2.8788 O   0  0  0  0  0  0  0  0  0  0  0  0
   29.8243  -35.3169   -1.7624 N   0  0  0  0  0  0  0  0  0  0  0  0
   30.9791  -35.8933   -1.1343 C   0  0  1  0  0  0  0  0  0  0  0  0
   32.1382  -35.9600   -2.0723 C   0  0  0  0  0  0  0  0  0  0  0  0
   32.3719  -37.2402   -2.7412 C   0  0  0  0  0  0  0  0  0  0  0  0
   31.5461  -38.3115   -2.9437 C   0  0  0  0  0  0  0  0  0  0  0  0
   32.2076  -39.2728   -3.6612 N   0  0  0  0  0  0  0  0  0  0  0  0
   33.4158  -38.7792   -3.8850 C   0  0  0  0  0  0  0  0  0  0  0  0
   33.5493  -37.5681   -3.3507 N   0  0  0  0  0  0  0  0  0  0  0  0
   31.3784  -35.2666    0.1386 C   0  0  0  0  0  0  0  0  0  0  0  0
   32.5583  -34.6507    0.4291 O   0  0  0  0  0  0  0  0  0  0  0  0
   30.5127  -35.3080    1.0794 O   0  0  0  0  0  0  0  0  0  0  0  0
  2  1  1  6
  3  2  1  0
  4  3  1  0
  4  5  2  0
  6  5  1  0
  7 12  2  0
  7  6  1  0
  8  7  1  0
  9  8  2  0
 10  9  1  0
 10 11  2  0
 11 12  1  0
 12  4  1  0
 13  2  1  0
 14 13  2  0
 15 13  1  0
 16 24  1  0
 16 15  1  0
 16 17  1  1
 18 17  1  0
 19 18  2  0
 20 19  1  0
 21 22  1  0
 21 20  2  0
 22 23  2  0
 23 18  1  0
 24 25  2  0
 26 27  1  0
 26 24  1  0
 27 28  1  6
 28 29  1  0
 29 30  2  0
 30 31  1  0
 32 31  1  0
 33 29  1  0
 33 32  2  0
 34 35  1  0
 34 27  1  0
 36 34  2  0
M  END
$$$$
