WFH.pdb
     RDKit          3D

 36 39  0  0  1  0  0  0  0  0999 V2000
   26.3837  -19.1762  -18.6379 N   0  0  0  0  0  0  0  0  0  0  0  0
   25.3055  -18.9032  -17.7539 C   0  0  1  0  0  0  0  0  0  0  0  0
   23.9386  -18.9208  -18.3446 C   0  0  0  0  0  0  0  0  0  0  0  0
   23.8427  -17.8810  -19.3929 C   0  0  0  0  0  0  0  0  0  0  0  0
   23.7521  -18.0945  -20.7591 C   0  0  0  0  0  0  0  0  0  0  0  0
   23.6544  -16.9258  -21.4051 N   0  0  0  0  0  0  0  0  0  0  0  0
   23.6814  -15.9537  -20.4695 C   0  0  0  0  0  0  0  0  0  0  0  0
   23.6193  -14.5949  -20.5935 C   0  0  0  0  0  0  0  0  0  0  0  0
   23.6712  -13.7672  -19.4931 C   0  0  0  0  0  0  0  0  0  0  0  0
   23.7877  -14.3310  -18.2537 C   0  0  0  0  0  0  0  0  0  0  0  0
   23.8519  -15.7138  -18.1103 C   0  0  0  0  0  0  0  0  0  0  0  0
   23.7985  -16.5243  -19.2117 C   0  0  0  0  0  0  0  0  0  0  0  0
   25.4095  -19.8018  -16.5525 C   0  0  0  0  0  0  0  0  0  0  0  0
   25.3491  -21.0597  -16.7077 O   0  0  0  0  0  0  0  0  0  0  0  0
   25.5726  -19.3240  -15.2441 N   0  0  0  0  0  0  0  0  0  0  0  0
   25.5022  -20.2495  -14.0780 C   0  0  1  0  0  0  0  0  0  0  0  0
   26.3049  -19.5809  -13.0226 C   0  0  0  0  0  0  0  0  0  0  0  0
   26.3007  -20.1608  -11.6881 C   0  0  0  0  0  0  0  0  0  0  0  0
   27.0211  -21.2868  -11.3754 C   0  0  0  0  0  0  0  0  0  0  0  0
   27.0120  -21.8378  -10.0964 C   0  0  0  0  0  0  0  0  0  0  0  0
   26.2603  -21.2444   -9.1024 C   0  0  0  0  0  0  0  0  0  0  0  0
   25.5381  -20.1139   -9.4195 C   0  0  0  0  0  0  0  0  0  0  0  0
   25.5433  -19.5627  -10.6868 C   0  0  0  0  0  0  0  0  0  0  0  0
   24.0810  -20.3660  -13.7263 C   0  0  0  0  0  0  0  0  0  0  0  0
   23.3596  -19.3137  -13.6119 O   0  0  0  0  0  0  0  0  0  0  0  0
   23.3797  -21.5974  -13.4921 N   0  0  0  0  0  0  0  0  0  0  0  0
   22.0302  -21.5986  -13.0025 C   0  0  1  0  0  0  0  0  0  0  0  0
   21.4099  -22.9522  -13.1065 C   0  0  0  0  0  0  0  0  0  0  0  0
   20.0386  -23.0882  -12.6145 C   0  0  0  0  0  0  0  0  0  0  0  0
   18.8755  -22.4951  -13.0218 C   0  0  0  0  0  0  0  0  0  0  0  0
   17.8306  -22.9709  -12.2746 N   0  0  0  0  0  0  0  0  0  0  0  0
   18.3654  -23.8399  -11.4306 C   0  0  0  0  0  0  0  0  0  0  0  0
   19.6809  -23.9356  -11.6048 N   0  0  0  0  0  0  0  0  0  0  0  0
   21.8557  -21.0518  -11.6450 C   0  0  0  0  0  0  0  0  0  0  0  0
   22.6184  -21.2989  -10.5437 O   0  0  0  0  0  0  0  0  0  0  0  0
   20.8707  -20.2514  -11.4857 O   0  0  0  0  0  0  0  0  0  0  0  0
  2  1  1  6
  3  2  1  0
  4  3  1  0
  4  5  2  0
  6  5  1  0
  7 12  2  0
  7  6  1  0
  8  7  1  0
  9  8  2  0
 10  9  1  0
 10 11  2  0
 11 12  1  0
 12  4  1  0
 13  2  1  0
 14 13  2  0
 15 13  1  0
 16 24  1  0
 16 15  1  0
 16 17  1  1
 18 17  1  0
 19 18  2  0
 20 19  1  0
 21 22  1  0
 21 20  2  0
 22 23  2  0
 23 18  1  0
 24 25  2  0
 26 27  1  0
 26 24  1  0
 27 28  1  1
 28 29  1  0
 29 30  2  0
 30 31  1  0
 32 31  1  0
 33 29  1  0
 33 32  2  0
 34 35  1  0
 34 27  1  0
 36 34  2  0
M  END
$$$$
