WFH.pdb
     RDKit          3D

 36 39  0  0  1  0  0  0  0  0999 V2000
   26.5384  -21.1761  -14.0556 N   0  0  0  0  0  0  0  0  0  0  0  0
   25.1843  -20.7651  -13.9282 C   0  0  1  0  0  0  0  0  0  0  0  0
   24.2995  -21.0133  -15.1000 C   0  0  0  0  0  0  0  0  0  0  0  0
   24.5080  -19.9497  -16.1073 C   0  0  0  0  0  0  0  0  0  0  0  0
   25.6928  -19.6578  -16.7639 C   0  0  0  0  0  0  0  0  0  0  0  0
   25.5085  -18.6504  -17.6264 N   0  0  0  0  0  0  0  0  0  0  0  0
   24.2127  -18.2844  -17.5353 C   0  0  0  0  0  0  0  0  0  0  0  0
   23.5131  -17.3108  -18.1897 C   0  0  0  0  0  0  0  0  0  0  0  0
   22.1756  -17.0926  -17.9403 C   0  0  0  0  0  0  0  0  0  0  0  0
   21.5453  -17.8752  -17.0142 C   0  0  0  0  0  0  0  0  0  0  0  0
   22.2439  -18.8717  -16.3389 C   0  0  0  0  0  0  0  0  0  0  0  0
   23.5719  -19.0782  -16.5968 C   0  0  0  0  0  0  0  0  0  0  0  0
   24.6103  -21.3353  -12.6605 C   0  0  0  0  0  0  0  0  0  0  0  0
   24.8265  -22.5514  -12.3700 O   0  0  0  0  0  0  0  0  0  0  0  0
   23.8347  -20.5891  -11.7615 N   0  0  0  0  0  0  0  0  0  0  0  0
   23.2983  -21.2094  -10.5169 C   0  0  1  0  0  0  0  0  0  0  0  0
   23.4472  -20.1557   -9.4813 C   0  0  0  0  0  0  0  0  0  0  0  0
   24.7149  -20.0656   -8.7728 C   0  0  0  0  0  0  0  0  0  0  0  0
   25.0494  -20.9248   -7.7557 C   0  0  0  0  0  0  0  0  0  0  0  0
   26.2641  -20.8327   -7.0806 C   0  0  0  0  0  0  0  0  0  0  0  0
   27.1693  -19.8524   -7.4340 C   0  0  0  0  0  0  0  0  0  0  0  0
   26.8305  -18.9913   -8.4557 C   0  0  0  0  0  0  0  0  0  0  0  0
   25.6268  -19.0779   -9.1291 C   0  0  0  0  0  0  0  0  0  0  0  0
   21.8952  -21.5450  -10.7923 C   0  0  0  0  0  0  0  0  0  0  0  0
   21.0131  -20.6180  -10.8510 O   0  0  0  0  0  0  0  0  0  0  0  0
   21.3850  -22.8681  -11.0201 N   0  0  0  0  0  0  0  0  0  0  0  0
   19.9727  -23.1247  -11.0305 C   0  0  1  0  0  0  0  0  0  0  0  0
   19.5350  -23.8370   -9.7940 C   0  0  0  0  0  0  0  0  0  0  0  0
   18.1062  -24.1270   -9.6712 C   0  0  0  0  0  0  0  0  0  0  0  0
   17.0588  -23.8508  -10.5063 C   0  0  0  0  0  0  0  0  0  0  0  0
   15.9020  -24.3578   -9.9760 N   0  0  0  0  0  0  0  0  0  0  0  0
   16.2562  -24.9314   -8.8363 C   0  0  0  0  0  0  0  0  0  0  0  0
   17.5640  -24.8133   -8.6222 N   0  0  0  0  0  0  0  0  0  0  0  0
   19.1233  -21.9456  -11.2770 C   0  0  0  0  0  0  0  0  0  0  0  0
   17.9228  -21.9043  -11.9193 O   0  0  0  0  0  0  0  0  0  0  0  0
   19.5694  -20.8314  -10.8346 O   0  0  0  0  0  0  0  0  0  0  0  0
  2  1  1  6
  3  2  1  0
  4  3  1  0
  4  5  2  0
  6  5  1  0
  7 12  2  0
  7  6  1  0
  8  7  1  0
  9  8  2  0
 10  9  1  0
 10 11  2  0
 11 12  1  0
 12  4  1  0
 13  2  1  0
 14 13  2  0
 15 13  1  0
 16 24  1  0
 16 15  1  0
 16 17  1  1
 18 17  1  0
 19 18  2  0
 20 19  1  0
 21 22  1  0
 21 20  2  0
 22 23  2  0
 23 18  1  0
 24 25  2  0
 26 27  1  0
 26 24  1  0
 27 28  1  1
 28 29  1  0
 29 30  2  0
 30 31  1  0
 32 31  1  0
 33 29  1  0
 33 32  2  0
 34 35  1  0
 34 27  1  0
 36 34  2  0
M  END
$$$$
