WFH.pdb
     RDKit          3D

 36 39  0  0  1  0  0  0  0  0999 V2000
   22.8511  -17.4609  -19.6143 N   0  0  0  0  0  0  0  0  0  0  0  0
   22.0932  -16.7162  -18.6711 C   0  0  1  0  0  0  0  0  0  0  0  0
   21.0627  -15.7939  -19.2236 C   0  0  0  0  0  0  0  0  0  0  0  0
   21.7282  -14.6166  -19.8242 C   0  0  0  0  0  0  0  0  0  0  0  0
   22.5361  -14.6123  -20.9500 C   0  0  0  0  0  0  0  0  0  0  0  0
   22.9457  -13.3668  -21.2214 N   0  0  0  0  0  0  0  0  0  0  0  0
   22.4107  -12.5610  -20.2803 C   0  0  0  0  0  0  0  0  0  0  0  0
   22.5181  -11.2119  -20.0958 C   0  0  0  0  0  0  0  0  0  0  0  0
   21.8870  -10.5746  -19.0497 C   0  0  0  0  0  0  0  0  0  0  0  0
   21.1388  -11.3207  -18.1832 C   0  0  0  0  0  0  0  0  0  0  0  0
   21.0190  -12.6963  -18.3574 C   0  0  0  0  0  0  0  0  0  0  0  0
   21.6506  -13.3165  -19.4012 C   0  0  0  0  0  0  0  0  0  0  0  0
   21.5158  -17.6546  -17.6474 C   0  0  0  0  0  0  0  0  0  0  0  0
   21.0811  -18.7882  -18.0159 O   0  0  0  0  0  0  0  0  0  0  0  0
   21.4269  -17.3461  -16.2823 N   0  0  0  0  0  0  0  0  0  0  0  0
   20.7975  -18.2975  -15.3231 C   0  0  1  0  0  0  0  0  0  0  0  0
   21.4908  -18.0414  -14.0351 C   0  0  0  0  0  0  0  0  0  0  0  0
   20.9635  -18.6741  -12.8356 C   0  0  0  0  0  0  0  0  0  0  0  0
   20.2569  -17.9758  -11.8881 C   0  0  0  0  0  0  0  0  0  0  0  0
   19.7557  -18.5870  -10.7414 C   0  0  0  0  0  0  0  0  0  0  0  0
   19.9681  -19.9355  -10.5379 C   0  0  0  0  0  0  0  0  0  0  0  0
   20.6779  -20.6339  -11.4910 C   0  0  0  0  0  0  0  0  0  0  0  0
   21.1776  -20.0329  -12.6307 C   0  0  0  0  0  0  0  0  0  0  0  0
   19.3691  -17.9584  -15.2796 C   0  0  0  0  0  0  0  0  0  0  0  0
   19.0028  -16.7439  -15.1010 O   0  0  0  0  0  0  0  0  0  0  0  0
   18.2871  -18.8909  -15.4303 N   0  0  0  0  0  0  0  0  0  0  0  0
   16.9303  -18.4972  -15.1759 C   0  0  1  0  0  0  0  0  0  0  0  0
   15.9752  -19.2043  -16.0789 C   0  0  0  0  0  0  0  0  0  0  0  0
   14.5610  -18.8523  -15.9481 C   0  0  0  0  0  0  0  0  0  0  0  0
   13.6488  -19.1470  -14.9726 C   0  0  0  0  0  0  0  0  0  0  0  0
   12.4482  -18.5601  -15.2735 N   0  0  0  0  0  0  0  0  0  0  0  0
   12.6428  -17.9210  -16.4168 C   0  0  0  0  0  0  0  0  0  0  0  0
   13.8919  -18.0733  -16.8486 N   0  0  0  0  0  0  0  0  0  0  0  0
   16.4972  -18.6122  -13.7718 C   0  0  0  0  0  0  0  0  0  0  0  0
   16.6619  -19.6738  -12.9343 O   0  0  0  0  0  0  0  0  0  0  0  0
   15.8960  -17.5932  -13.2856 O   0  0  0  0  0  0  0  0  0  0  0  0
  2  1  1  6
  3  2  1  0
  4  3  1  0
  4  5  2  0
  6  5  1  0
  7 12  2  0
  7  6  1  0
  8  7  1  0
  9  8  2  0
 10  9  1  0
 10 11  2  0
 11 12  1  0
 12  4  1  0
 13  2  1  0
 14 13  2  0
 15 13  1  0
 16 24  1  0
 16 15  1  0
 16 17  1  1
 18 17  1  0
 19 18  2  0
 20 19  1  0
 21 22  1  0
 21 20  2  0
 22 23  2  0
 23 18  1  0
 24 25  2  0
 26 27  1  0
 26 24  1  0
 27 28  1  6
 28 29  1  0
 29 30  2  0
 30 31  1  0
 32 31  1  0
 33 29  1  0
 33 32  2  0
 34 35  1  0
 34 27  1  0
 36 34  2  0
M  END
$$$$
