WFH.pdb
     RDKit          3D

 36 39  0  0  1  0  0  0  0  0999 V2000
   29.4909  -19.5528   10.0554 N   0  0  0  0  0  0  0  0  0  0  0  0
   30.4561  -20.2490   10.8315 C   0  0  1  0  0  0  0  0  0  0  0  0
   29.9644  -20.9041   12.0752 C   0  0  0  0  0  0  0  0  0  0  0  0
   29.6226  -19.8678   13.0745 C   0  0  0  0  0  0  0  0  0  0  0  0
   30.1147  -18.5732   13.1199 C   0  0  0  0  0  0  0  0  0  0  0  0
   29.5685  -17.9056   14.1439 N   0  0  0  0  0  0  0  0  0  0  0  0
   28.7251  -18.7564   14.7653 C   0  0  0  0  0  0  0  0  0  0  0  0
   27.9284  -18.5809   15.8607 C   0  0  0  0  0  0  0  0  0  0  0  0
   27.1351  -19.5977   16.3459 C   0  0  0  0  0  0  0  0  0  0  0  0
   27.1546  -20.8057   15.7074 C   0  0  0  0  0  0  0  0  0  0  0  0
   27.9606  -21.0008   14.5897 C   0  0  0  0  0  0  0  0  0  0  0  0
   28.7431  -19.9820   14.1179 C   0  0  0  0  0  0  0  0  0  0  0  0
   31.2028  -21.2102    9.9481 C   0  0  0  0  0  0  0  0  0  0  0  0
   30.5553  -22.0629    9.2672 O   0  0  0  0  0  0  0  0  0  0  0  0
   32.6000  -21.2215    9.8290 N   0  0  0  0  0  0  0  0  0  0  0  0
   33.2811  -22.1755    8.9085 C   0  0  1  0  0  0  0  0  0  0  0  0
   33.9768  -21.3099    7.9227 C   0  0  0  0  0  0  0  0  0  0  0  0
   33.2599  -20.9365    6.7128 C   0  0  0  0  0  0  0  0  0  0  0  0
   32.6026  -19.7376    6.5901 C   0  0  0  0  0  0  0  0  0  0  0  0
   31.9171  -19.3864    5.4297 C   0  0  0  0  0  0  0  0  0  0  0  0
   31.8892  -20.2608    4.3620 C   0  0  0  0  0  0  0  0  0  0  0  0
   32.5502  -21.4638    4.4882 C   0  0  0  0  0  0  0  0  0  0  0  0
   33.2319  -21.8176    5.6371 C   0  0  0  0  0  0  0  0  0  0  0  0
   34.2087  -22.9587    9.7351 C   0  0  0  0  0  0  0  0  0  0  0  0
   34.8207  -22.4043   10.7144 O   0  0  0  0  0  0  0  0  0  0  0  0
   34.5112  -24.3513    9.5553 N   0  0  0  0  0  0  0  0  0  0  0  0
   35.5337  -24.9925   10.3324 C   0  0  1  0  0  0  0  0  0  0  0  0
   35.3529  -26.4738   10.3620 C   0  0  0  0  0  0  0  0  0  0  0  0
   34.1398  -26.9768   11.0072 C   0  0  0  0  0  0  0  0  0  0  0  0
   33.2865  -26.3875   11.8988 C   0  0  0  0  0  0  0  0  0  0  0  0
   32.2610  -27.2473   12.1910 N   0  0  0  0  0  0  0  0  0  0  0  0
   32.5001  -28.3385   11.4799 C   0  0  0  0  0  0  0  0  0  0  0  0
   33.6128  -28.2127   10.7615 N   0  0  0  0  0  0  0  0  0  0  0  0
   36.9163  -24.6470    9.9559 C   0  0  0  0  0  0  0  0  0  0  0  0
   38.0335  -24.7215   10.7317 O   0  0  0  0  0  0  0  0  0  0  0  0
   37.0829  -24.2278    8.7590 O   0  0  0  0  0  0  0  0  0  0  0  0
  2  1  1  6
  3  2  1  0
  4  3  1  0
  4  5  2  0
  6  5  1  0
  7 12  2  0
  7  6  1  0
  8  7  1  0
  9  8  2  0
 10  9  1  0
 10 11  2  0
 11 12  1  0
 12  4  1  0
 13  2  1  0
 14 13  2  0
 15 13  1  0
 16 24  1  0
 16 15  1  0
 16 17  1  6
 18 17  1  0
 19 18  2  0
 20 19  1  0
 21 22  1  0
 21 20  2  0
 22 23  2  0
 23 18  1  0
 24 25  2  0
 26 27  1  0
 26 24  1  0
 27 28  1  6
 28 29  1  0
 29 30  2  0
 30 31  1  0
 32 31  1  0
 33 29  1  0
 33 32  2  0
 34 35  1  0
 34 27  1  0
 36 34  2  0
M  END
$$$$
