NHI.pdb
     RDKit          3D

 27 27  0  0  1  0  0  0  0  0999 V2000
   26.1952  -24.0782  -15.4133 N   0  0  0  0  0  0  0  0  0  0  0  0
   24.9913  -24.3276  -16.1160 C   0  0  0  0  0  0  0  0  0  0  0  0
   24.9952  -25.2930  -16.9371 O   0  0  0  0  0  0  0  0  0  0  0  0
   23.7443  -23.5711  -15.9790 C   0  0  0  0  0  0  0  0  0  0  0  0
   23.8196  -22.4753  -14.9590 C   0  0  2  0  0  0  0  0  0  0  0  0
   24.0145  -22.9173  -13.6224 N   0  0  0  0  0  0  0  0  0  0  0  0
   22.5245  -21.7042  -15.0346 C   0  0  0  0  0  0  0  0  0  0  0  0
   21.6168  -22.1578  -15.8056 O   0  0  0  0  0  0  0  0  0  0  0  0
   22.4063  -20.5456  -14.2556 N   0  0  0  0  0  0  0  0  0  0  0  0
   21.2927  -19.6555  -14.2018 C   0  0  1  0  0  0  0  0  0  0  0  0
   20.8370  -19.2576  -12.8115 C   0  0  0  0  0  0  0  0  0  0  0  0
   20.0193  -20.3089  -12.1627 C   0  0  0  0  0  0  0  0  0  0  0  0
   19.6716  -21.5273  -12.6575 C   0  0  0  0  0  0  0  0  0  0  0  0
   18.9204  -22.1903  -11.7551 N   0  0  0  0  0  0  0  0  0  0  0  0
   18.8038  -21.3767  -10.6970 C   0  0  0  0  0  0  0  0  0  0  0  0
   19.4725  -20.2228  -10.9357 N   0  0  0  0  0  0  0  0  0  0  0  0
   21.4256  -18.5640  -15.1523 C   0  0  0  0  0  0  0  0  0  0  0  0
   22.3848  -17.7234  -15.0779 O   0  0  0  0  0  0  0  0  0  0  0  0
   20.7039  -17.1217  -20.9626 C   0  0  0  0  0  0  0  0  0  0  0  0
   20.2407  -16.8438  -19.5614 C   0  0  0  0  0  0  0  0  0  0  0  0
   21.0406  -17.5685  -18.5020 C   0  0  2  0  0  0  0  0  0  0  0  0
   20.9168  -19.0340  -18.7757 C   0  0  0  0  0  0  0  0  0  0  0  0
   20.6141  -17.1740  -17.1098 C   0  0  2  0  0  0  0  0  0  0  0  0
   20.5176  -18.3311  -16.2361 N   0  0  0  0  0  0  0  0  0  0  0  0
   19.3855  -16.3617  -17.0969 C   0  0  0  0  0  0  0  0  0  0  0  0
   18.2711  -16.7709  -16.7047 O   0  0  0  0  0  0  0  0  0  0  0  0
   19.4121  -15.0263  -17.5457 O   0  0  0  0  0  0  0  0  0  0  0  0
  1  2  1  0
  2  3  2  0
  4  2  1  0
  5  4  1  0
  5  6  1  1
  7  5  1  0
  7  8  2  0
  9  7  1  0
 10 11  1  1
 10  9  1  0
 12 13  2  0
 12 11  1  0
 14 13  1  0
 15 16  2  0
 15 14  1  0
 16 12  1  0
 17 10  1  0
 18 17  2  0
 20 19  1  0
 21 23  1  0
 21 20  1  0
 21 22  1  1
 23 24  1  1
 24 17  1  0
 25 27  1  0
 25 23  1  0
 26 25  2  0
M  END
$$$$
