NHI.pdb
     RDKit          3D

 27 27  0  0  1  0  0  0  0  0999 V2000
   25.7864  -23.5049  -14.7626 N   0  0  0  0  0  0  0  0  0  0  0  0
   24.4141  -23.3080  -15.0513 C   0  0  0  0  0  0  0  0  0  0  0  0
   24.0326  -23.5689  -16.2314 O   0  0  0  0  0  0  0  0  0  0  0  0
   23.3981  -22.8310  -14.1100 C   0  0  0  0  0  0  0  0  0  0  0  0
   22.7426  -21.5522  -14.5363 C   0  0  2  0  0  0  0  0  0  0  0  0
   23.6341  -20.4645  -14.7409 N   0  0  0  0  0  0  0  0  0  0  0  0
   21.7526  -21.1769  -13.4608 C   0  0  0  0  0  0  0  0  0  0  0  0
   22.2226  -20.7703  -12.3482 O   0  0  0  0  0  0  0  0  0  0  0  0
   20.3883  -21.2998  -13.7554 N   0  0  0  0  0  0  0  0  0  0  0  0
   19.2923  -21.0228  -12.8851 C   0  0  1  0  0  0  0  0  0  0  0  0
   18.3692  -19.9045  -13.3276 C   0  0  0  0  0  0  0  0  0  0  0  0
   19.0369  -18.5820  -13.3136 C   0  0  0  0  0  0  0  0  0  0  0  0
   20.3049  -18.2856  -12.9207 C   0  0  0  0  0  0  0  0  0  0  0  0
   20.5307  -16.9638  -13.0623 N   0  0  0  0  0  0  0  0  0  0  0  0
   19.3955  -16.4412  -13.5454 C   0  0  0  0  0  0  0  0  0  0  0  0
   18.4749  -17.4225  -13.7031 N   0  0  0  0  0  0  0  0  0  0  0  0
   18.6324  -22.2394  -12.4413 C   0  0  0  0  0  0  0  0  0  0  0  0
   18.5310  -23.2621  -13.2004 O   0  0  0  0  0  0  0  0  0  0  0  0
   19.3373  -24.4914   -7.6147 C   0  0  0  0  0  0  0  0  0  0  0  0
   19.0228  -24.2183   -9.0575 C   0  0  0  0  0  0  0  0  0  0  0  0
   17.5557  -23.9636   -9.3220 C   0  0  2  0  0  0  0  0  0  0  0  0
   16.8053  -25.1773   -8.8728 C   0  0  0  0  0  0  0  0  0  0  0  0
   17.3018  -23.5928  -10.7620 C   0  0  2  0  0  0  0  0  0  0  0  0
   18.0471  -22.4053  -11.1439 N   0  0  0  0  0  0  0  0  0  0  0  0
   15.8678  -23.4765  -11.0781 C   0  0  0  0  0  0  0  0  0  0  0  0
   15.2027  -22.4234  -10.9696 O   0  0  0  0  0  0  0  0  0  0  0  0
   15.1486  -24.5975  -11.5380 O   0  0  0  0  0  0  0  0  0  0  0  0
  1  2  1  0
  2  3  2  0
  4  2  1  0
  5  4  1  0
  5  6  1  1
  7  5  1  0
  7  8  2  0
  9  7  1  0
 10 11  1  6
 10  9  1  0
 12 13  2  0
 12 11  1  0
 14 13  1  0
 15 16  2  0
 15 14  1  0
 16 12  1  0
 17 10  1  0
 18 17  2  0
 20 19  1  0
 21 23  1  0
 21 20  1  0
 21 22  1  6
 23 24  1  1
 24 17  1  0
 25 27  1  0
 25 23  1  0
 26 25  2  0
M  END
$$$$
