NHI.pdb
     RDKit          3D

 27 27  0  0  1  0  0  0  0  0999 V2000
   15.5134  -16.0201  -17.1335 N   0  0  0  0  0  0  0  0  0  0  0  0
   16.7794  -16.0889  -17.7640 C   0  0  0  0  0  0  0  0  0  0  0  0
   17.1516  -17.2261  -18.1819 O   0  0  0  0  0  0  0  0  0  0  0  0
   17.6956  -14.9657  -17.9763 C   0  0  0  0  0  0  0  0  0  0  0  0
   17.1680  -13.6597  -17.4635 C   0  0  2  0  0  0  0  0  0  0  0  0
   16.0477  -13.1491  -18.1735 N   0  0  0  0  0  0  0  0  0  0  0  0
   18.2951  -12.6593  -17.5445 C   0  0  0  0  0  0  0  0  0  0  0  0
   19.4055  -12.9834  -17.0098 O   0  0  0  0  0  0  0  0  0  0  0  0
   18.0470  -11.4457  -18.1993 N   0  0  0  0  0  0  0  0  0  0  0  0
   18.9683  -10.3760  -18.4056 C   0  0  1  0  0  0  0  0  0  0  0  0
   18.6881   -9.4905  -19.6040 C   0  0  0  0  0  0  0  0  0  0  0  0
   19.7465   -8.4758  -19.8163 C   0  0  0  0  0  0  0  0  0  0  0  0
   20.9903   -8.6559  -20.3366 C   0  0  0  0  0  0  0  0  0  0  0  0
   21.6499   -7.4801  -20.3632 N   0  0  0  0  0  0  0  0  0  0  0  0
   20.8084   -6.5689  -19.8565 C   0  0  0  0  0  0  0  0  0  0  0  0
   19.6408   -7.1673  -19.5187 N   0  0  0  0  0  0  0  0  0  0  0  0
   19.2712   -9.6760  -17.1684 C   0  0  0  0  0  0  0  0  0  0  0  0
   18.3621   -9.4012  -16.3139 O   0  0  0  0  0  0  0  0  0  0  0  0
   23.2023  -11.1380  -14.0210 C   0  0  0  0  0  0  0  0  0  0  0  0
   21.9507  -10.5257  -14.5812 C   0  0  0  0  0  0  0  0  0  0  0  0
   22.0724   -9.0450  -14.8639 C   0  0  2  0  0  0  0  0  0  0  0  0
   22.3616   -8.3658  -13.5628 C   0  0  0  0  0  0  0  0  0  0  0  0
   20.8529   -8.5070  -15.5703 C   0  0  2  0  0  0  0  0  0  0  0  0
   20.5840   -9.2380  -16.7970 N   0  0  0  0  0  0  0  0  0  0  0  0
   20.9154   -7.0520  -15.7909 C   0  0  0  0  0  0  0  0  0  0  0  0
   20.4194   -6.1984  -15.0237 O   0  0  0  0  0  0  0  0  0  0  0  0
   21.5667   -6.5331  -16.9275 O   0  0  0  0  0  0  0  0  0  0  0  0
  1  2  1  0
  2  3  2  0
  4  2  1  0
  5  4  1  0
  5  6  1  6
  7  5  1  0
  7  8  2  0
  9  7  1  0
 10 11  1  6
 10  9  1  0
 12 13  2  0
 12 11  1  0
 14 13  1  0
 15 16  2  0
 15 14  1  0
 16 12  1  0
 17 10  1  0
 18 17  2  0
 20 19  1  0
 21 23  1  0
 21 20  1  0
 21 22  1  1
 23 24  1  6
 24 17  1  0
 25 27  1  0
 25 23  1  0
 26 25  2  0
M  END
$$$$
