NHI.pdb
     RDKit          3D

 27 27  0  0  1  0  0  0  0  0999 V2000
   25.4403  -30.9502  -19.2793 N   0  0  0  0  0  0  0  0  0  0  0  0
   24.5672  -32.0641  -19.2309 C   0  0  0  0  0  0  0  0  0  0  0  0
   24.0807  -32.4605  -20.3320 O   0  0  0  0  0  0  0  0  0  0  0  0
   24.1770  -32.7979  -18.0245 C   0  0  0  0  0  0  0  0  0  0  0  0
   24.8557  -32.3072  -16.7814 C   0  0  2  0  0  0  0  0  0  0  0  0
   26.1640  -32.8221  -16.5735 N   0  0  0  0  0  0  0  0  0  0  0  0
   23.9851  -32.6985  -15.6124 C   0  0  0  0  0  0  0  0  0  0  0  0
   22.7724  -32.3074  -15.6284 O   0  0  0  0  0  0  0  0  0  0  0  0
   24.5654  -33.4625  -14.5912 N   0  0  0  0  0  0  0  0  0  0  0  0
   23.9318  -33.9310  -13.4019 C   0  0  1  0  0  0  0  0  0  0  0  0
   24.3267  -35.3244  -12.9530 C   0  0  0  0  0  0  0  0  0  0  0  0
   23.8673  -36.3723  -13.8941 C   0  0  0  0  0  0  0  0  0  0  0  0
   22.9939  -36.2470  -14.9294 C   0  0  0  0  0  0  0  0  0  0  0  0
   22.8405  -37.4367  -15.5452 N   0  0  0  0  0  0  0  0  0  0  0  0
   23.6237  -38.3014  -14.8865 C   0  0  0  0  0  0  0  0  0  0  0  0
   24.2567  -37.6607  -13.8744 N   0  0  0  0  0  0  0  0  0  0  0  0
   23.9206  -32.9182  -12.3594 C   0  0  0  0  0  0  0  0  0  0  0  0
   24.9976  -32.5231  -11.7971 O   0  0  0  0  0  0  0  0  0  0  0  0
   21.1776  -27.7080  -10.7049 C   0  0  0  0  0  0  0  0  0  0  0  0
   21.9967  -28.9055  -10.3170 C   0  0  0  0  0  0  0  0  0  0  0  0
   21.9325  -30.0362  -11.3193 C   0  0  2  0  0  0  0  0  0  0  0  0
   20.4875  -30.3558  -11.5377 C   0  0  0  0  0  0  0  0  0  0  0  0
   22.7556  -31.2218  -10.8805 C   0  0  2  0  0  0  0  0  0  0  0  0
   22.7320  -32.2816  -11.8742 N   0  0  0  0  0  0  0  0  0  0  0  0
   22.3891  -31.7072   -9.5390 C   0  0  0  0  0  0  0  0  0  0  0  0
   21.6894  -32.7199   -9.3200 O   0  0  0  0  0  0  0  0  0  0  0  0
   22.8309  -31.0213   -8.3902 O   0  0  0  0  0  0  0  0  0  0  0  0
  1  2  1  0
  2  3  2  0
  4  2  1  0
  5  4  1  0
  5  6  1  1
  7  5  1  0
  7  8  2  0
  9  7  1  0
 10 11  1  1
 10  9  1  0
 12 13  2  0
 12 11  1  0
 14 13  1  0
 15 16  2  0
 15 14  1  0
 16 12  1  0
 17 10  1  0
 18 17  2  0
 20 19  1  0
 21 23  1  0
 21 20  1  0
 21 22  1  1
 23 24  1  6
 24 17  1  0
 25 27  1  0
 25 23  1  0
 26 25  2  0
M  END
$$$$
