NHI.pdb
     RDKit          3D

 27 27  0  0  1  0  0  0  0  0999 V2000
   45.4903   -7.7791   -5.4727 N   0  0  0  0  0  0  0  0  0  0  0  0
   44.0906   -7.8713   -5.6672 C   0  0  0  0  0  0  0  0  0  0  0  0
   43.3941   -8.2225   -4.6684 O   0  0  0  0  0  0  0  0  0  0  0  0
   43.3773   -7.5973   -6.9171 C   0  0  0  0  0  0  0  0  0  0  0  0
   42.3757   -8.6529   -7.2767 C   0  0  2  0  0  0  0  0  0  0  0  0
   42.9318   -9.9281   -7.5677 N   0  0  0  0  0  0  0  0  0  0  0  0
   41.6224   -8.1605   -8.4881 C   0  0  0  0  0  0  0  0  0  0  0  0
   42.1440   -8.3774   -9.6304 O   0  0  0  0  0  0  0  0  0  0  0  0
   40.4046   -7.5001   -8.2776 N   0  0  0  0  0  0  0  0  0  0  0  0
   39.5153   -6.9982   -9.2739 C   0  0  1  0  0  0  0  0  0  0  0  0
   38.1933   -7.7295   -9.4022 C   0  0  0  0  0  0  0  0  0  0  0  0
   38.3206   -8.9982  -10.1567 C   0  0  0  0  0  0  0  0  0  0  0  0
   39.4273   -9.5087  -10.7606 C   0  0  0  0  0  0  0  0  0  0  0  0
   39.1286  -10.6883  -11.3416 N   0  0  0  0  0  0  0  0  0  0  0  0
   37.8300  -10.9072  -11.0949 C   0  0  0  0  0  0  0  0  0  0  0  0
   37.3258   -9.8794  -10.3705 N   0  0  0  0  0  0  0  0  0  0  0  0
   39.4264   -5.5479   -9.2393 C   0  0  0  0  0  0  0  0  0  0  0  0
   39.1143   -4.9207   -8.1709 O   0  0  0  0  0  0  0  0  0  0  0  0
   42.5059   -2.2931  -12.5040 C   0  0  0  0  0  0  0  0  0  0  0  0
   41.7040   -2.9370  -11.4096 C   0  0  0  0  0  0  0  0  0  0  0  0
   40.2361   -2.5742  -11.4378 C   0  0  2  0  0  0  0  0  0  0  0  0
   40.1456   -1.0818  -11.3872 C   0  0  0  0  0  0  0  0  0  0  0  0
   39.4666   -3.2654  -10.3398 C   0  0  2  0  0  0  0  0  0  0  0  0
   39.6739   -4.7033  -10.3702 N   0  0  0  0  0  0  0  0  0  0  0  0
   38.0376   -2.9083  -10.3311 C   0  0  0  0  0  0  0  0  0  0  0  0
   37.5529   -1.9458   -9.6971 O   0  0  0  0  0  0  0  0  0  0  0  0
   37.1106   -3.6696  -11.0705 O   0  0  0  0  0  0  0  0  0  0  0  0
  1  2  1  0
  2  3  2  0
  4  2  1  0
  5  4  1  0
  5  6  1  6
  7  5  1  0
  7  8  2  0
  9  7  1  0
 10 11  1  1
 10  9  1  0
 12 13  2  0
 12 11  1  0
 14 13  1  0
 15 16  2  0
 15 14  1  0
 16 12  1  0
 17 10  1  0
 18 17  2  0
 20 19  1  0
 21 23  1  0
 21 20  1  0
 21 22  1  1
 23 24  1  6
 24 17  1  0
 25 27  1  0
 25 23  1  0
 26 25  2  0
M  END
$$$$
