NHI.pdb
     RDKit          3D

 27 27  0  0  1  0  0  0  0  0999 V2000
   27.7532  -19.0942  -20.1415 N   0  0  0  0  0  0  0  0  0  0  0  0
   29.0371  -19.0167  -19.5490 C   0  0  0  0  0  0  0  0  0  0  0  0
   29.8605  -18.2045  -20.0674 O   0  0  0  0  0  0  0  0  0  0  0  0
   29.4976  -19.7895  -18.3929 C   0  0  0  0  0  0  0  0  0  0  0  0
   28.5341  -20.8548  -17.9645 C   0  0  2  0  0  0  0  0  0  0  0  0
   27.8724  -21.5237  -19.0298 N   0  0  0  0  0  0  0  0  0  0  0  0
   27.5004  -20.1953  -17.0847 C   0  0  0  0  0  0  0  0  0  0  0  0
   27.9213  -19.5468  -16.0716 O   0  0  0  0  0  0  0  0  0  0  0  0
   26.1523  -20.3390  -17.4384 N   0  0  0  0  0  0  0  0  0  0  0  0
   25.0218  -19.8006  -16.7546 C   0  0  1  0  0  0  0  0  0  0  0  0
   23.8637  -19.3743  -17.6354 C   0  0  0  0  0  0  0  0  0  0  0  0
   22.7840  -18.7116  -16.8673 C   0  0  0  0  0  0  0  0  0  0  0  0
   22.8067  -17.4900  -16.2694 C   0  0  0  0  0  0  0  0  0  0  0  0
   21.6222  -17.2512  -15.6711 N   0  0  0  0  0  0  0  0  0  0  0  0
   20.8637  -18.3315  -15.9010 C   0  0  0  0  0  0  0  0  0  0  0  0
   21.5648  -19.2313  -16.6320 N   0  0  0  0  0  0  0  0  0  0  0  0
   24.6631  -20.5957  -15.5919 C   0  0  0  0  0  0  0  0  0  0  0  0
   24.4704  -21.8560  -15.6753 O   0  0  0  0  0  0  0  0  0  0  0  0
   25.9785  -21.3832   -9.7203 C   0  0  0  0  0  0  0  0  0  0  0  0
   25.0296  -21.6148  -10.8610 C   0  0  0  0  0  0  0  0  0  0  0  0
   25.2726  -20.7087  -12.0472 C   0  0  2  0  0  0  0  0  0  0  0  0
   25.3688  -19.3097  -11.5262 C   0  0  0  0  0  0  0  0  0  0  0  0
   24.2207  -20.8871  -13.1137 C   0  0  2  0  0  0  0  0  0  0  0  0
   24.4954  -20.0575  -14.2745 N   0  0  0  0  0  0  0  0  0  0  0  0
   22.8519  -20.6970  -12.6041 C   0  0  0  0  0  0  0  0  0  0  0  0
   22.2515  -19.6006  -12.5813 O   0  0  0  0  0  0  0  0  0  0  0  0
   22.1244  -21.7919  -12.0967 O   0  0  0  0  0  0  0  0  0  0  0  0
  1  2  1  0
  2  3  2  0
  4  2  1  0
  5  4  1  0
  5  6  1  6
  7  5  1  0
  7  8  2  0
  9  7  1  0
 10 11  1  6
 10  9  1  0
 12 13  2  0
 12 11  1  0
 14 13  1  0
 15 16  2  0
 15 14  1  0
 16 12  1  0
 17 10  1  0
 18 17  2  0
 20 19  1  0
 21 23  1  0
 21 20  1  0
 21 22  1  1
 23 24  1  6
 24 17  1  0
 25 27  1  0
 25 23  1  0
 26 25  2  0
M  END
$$$$
