NHI.pdb
     RDKit          3D

 27 27  0  0  1  0  0  0  0  0999 V2000
   16.0068  -28.1969   -6.6743 N   0  0  0  0  0  0  0  0  0  0  0  0
   17.1940  -27.5400   -6.2690 C   0  0  0  0  0  0  0  0  0  0  0  0
   18.2320  -27.7485   -6.9656 O   0  0  0  0  0  0  0  0  0  0  0  0
   17.3294  -26.6427   -5.1189 C   0  0  0  0  0  0  0  0  0  0  0  0
   16.0458  -26.4269   -4.3755 C   0  0  2  0  0  0  0  0  0  0  0  0
   15.0764  -25.6548   -5.0712 N   0  0  0  0  0  0  0  0  0  0  0  0
   16.3898  -25.7291   -3.0824 C   0  0  0  0  0  0  0  0  0  0  0  0
   17.5132  -25.1306   -3.0206 O   0  0  0  0  0  0  0  0  0  0  0  0
   15.4554  -25.7853   -2.0398 N   0  0  0  0  0  0  0  0  0  0  0  0
   15.5493  -25.1499   -0.7658 C   0  0  1  0  0  0  0  0  0  0  0  0
   14.2532  -24.5877   -0.2157 C   0  0  0  0  0  0  0  0  0  0  0  0
   13.6535  -23.5709   -1.1109 C   0  0  0  0  0  0  0  0  0  0  0  0
   14.1944  -22.3940   -1.5262 C   0  0  0  0  0  0  0  0  0  0  0  0
   13.3286  -21.7534   -2.3375 N   0  0  0  0  0  0  0  0  0  0  0  0
   12.2470  -22.5395   -2.4237 C   0  0  0  0  0  0  0  0  0  0  0  0
   12.4351  -23.6542   -1.6771 N   0  0  0  0  0  0  0  0  0  0  0  0
   16.3398  -25.9304    0.1715 C   0  0  0  0  0  0  0  0  0  0  0  0
   16.2192  -27.1995    0.2559 O   0  0  0  0  0  0  0  0  0  0  0  0
   21.5746  -24.9166    1.0422 C   0  0  0  0  0  0  0  0  0  0  0  0
   20.2221  -25.5566    0.9130 C   0  0  0  0  0  0  0  0  0  0  0  0
   19.4530  -25.6199    2.2136 C   0  0  2  0  0  0  0  0  0  0  0  0
   20.2777  -26.4093    3.1804 C   0  0  0  0  0  0  0  0  0  0  0  0
   18.0614  -26.1675    2.0160 C   0  0  2  0  0  0  0  0  0  0  0  0
   17.3053  -25.3669    1.0680 N   0  0  0  0  0  0  0  0  0  0  0  0
   17.3377  -26.3610    3.2842 C   0  0  0  0  0  0  0  0  0  0  0  0
   16.7132  -25.4609    3.8866 O   0  0  0  0  0  0  0  0  0  0  0  0
   17.3152  -27.6266    3.9033 O   0  0  0  0  0  0  0  0  0  0  0  0
  1  2  1  0
  2  3  2  0
  4  2  1  0
  5  4  1  0
  5  6  1  6
  7  5  1  0
  7  8  2  0
  9  7  1  0
 10 11  1  1
 10  9  1  0
 12 13  2  0
 12 11  1  0
 14 13  1  0
 15 16  2  0
 15 14  1  0
 16 12  1  0
 17 10  1  0
 18 17  2  0
 20 19  1  0
 21 23  1  0
 21 20  1  0
 21 22  1  1
 23 24  1  6
 24 17  1  0
 25 27  1  0
 25 23  1  0
 26 25  2  0
M  END
$$$$
