NHI.pdb
     RDKit          3D

 27 27  0  0  1  0  0  0  0  0999 V2000
   27.5412  -17.9147  -17.7238 N   0  0  0  0  0  0  0  0  0  0  0  0
   28.0973  -18.0695  -16.4307 C   0  0  0  0  0  0  0  0  0  0  0  0
   29.3619  -18.0808  -16.3473 O   0  0  0  0  0  0  0  0  0  0  0  0
   27.3433  -18.2173  -15.1835 C   0  0  0  0  0  0  0  0  0  0  0  0
   27.9561  -19.1958  -14.2276 C   0  0  2  0  0  0  0  0  0  0  0  0
   28.1329  -20.5066  -14.7478 N   0  0  0  0  0  0  0  0  0  0  0  0
   27.0533  -19.2670  -13.0204 C   0  0  0  0  0  0  0  0  0  0  0  0
   26.5712  -18.1710  -12.5840 O   0  0  0  0  0  0  0  0  0  0  0  0
   26.8061  -20.5279  -12.4615 N   0  0  0  0  0  0  0  0  0  0  0  0
   25.9374  -20.8297  -11.3708 C   0  0  1  0  0  0  0  0  0  0  0  0
   24.9530  -21.9580  -11.6084 C   0  0  0  0  0  0  0  0  0  0  0  0
   24.0226  -21.6702  -12.7248 C   0  0  0  0  0  0  0  0  0  0  0  0
   23.6486  -20.4577  -13.2149 C   0  0  0  0  0  0  0  0  0  0  0  0
   22.7851  -20.6238  -14.2371 N   0  0  0  0  0  0  0  0  0  0  0  0
   22.6251  -21.9465  -14.3789 C   0  0  0  0  0  0  0  0  0  0  0  0
   23.3778  -22.5962  -13.4587 N   0  0  0  0  0  0  0  0  0  0  0  0
   26.6531  -20.8803  -10.1067 C   0  0  0  0  0  0  0  0  0  0  0  0
   27.7020  -21.5945   -9.9584 O   0  0  0  0  0  0  0  0  0  0  0  0
   29.4247  -18.6472   -6.3923 C   0  0  0  0  0  0  0  0  0  0  0  0
   28.6060  -19.6047   -7.2097 C   0  0  0  0  0  0  0  0  0  0  0  0
   27.1923  -19.7820   -6.7025 C   0  0  2  0  0  0  0  0  0  0  0  0
   27.2836  -20.2519   -5.2853 C   0  0  0  0  0  0  0  0  0  0  0  0
   26.3876  -20.6956   -7.5932 C   0  0  2  0  0  0  0  0  0  0  0  0
   26.2619  -20.1534   -8.9354 N   0  0  0  0  0  0  0  0  0  0  0  0
   25.0824  -21.0556   -7.0130 C   0  0  0  0  0  0  0  0  0  0  0  0
   23.9783  -20.7070   -7.4846 O   0  0  0  0  0  0  0  0  0  0  0  0
   25.0165  -21.8452   -5.8477 O   0  0  0  0  0  0  0  0  0  0  0  0
  1  2  1  0
  2  3  2  0
  4  2  1  0
  5  4  1  0
  5  6  1  6
  7  5  1  0
  7  8  2  0
  9  7  1  0
 10 11  1  6
 10  9  1  0
 12 13  2  0
 12 11  1  0
 14 13  1  0
 15 16  2  0
 15 14  1  0
 16 12  1  0
 17 10  1  0
 18 17  2  0
 20 19  1  0
 21 23  1  0
 21 20  1  0
 21 22  1  1
 23 24  1  6
 24 17  1  0
 25 27  1  0
 25 23  1  0
 26 25  2  0
M  END
$$$$
