NHI.pdb
     RDKit          3D

 27 27  0  0  1  0  0  0  0  0999 V2000
   30.8438  -24.8936  -16.1788 N   0  0  0  0  0  0  0  0  0  0  0  0
   29.7390  -24.1471  -16.6558 C   0  0  0  0  0  0  0  0  0  0  0  0
   29.1700  -24.5712  -17.7058 O   0  0  0  0  0  0  0  0  0  0  0  0
   29.1961  -22.9311  -16.0453 C   0  0  0  0  0  0  0  0  0  0  0  0
   28.2653  -22.1757  -16.9451 C   0  0  2  0  0  0  0  0  0  0  0  0
   28.8925  -21.5289  -18.0442 N   0  0  0  0  0  0  0  0  0  0  0  0
   27.5701  -21.1372  -16.0990 C   0  0  0  0  0  0  0  0  0  0  0  0
   28.3042  -20.3568  -15.4089 O   0  0  0  0  0  0  0  0  0  0  0  0
   26.1698  -21.0999  -16.1280 N   0  0  0  0  0  0  0  0  0  0  0  0
   25.3155  -20.2640  -15.3489 C   0  0  1  0  0  0  0  0  0  0  0  0
   24.2159  -19.5542  -16.1143 C   0  0  0  0  0  0  0  0  0  0  0  0
   24.6795  -18.2854  -16.7225 C   0  0  0  0  0  0  0  0  0  0  0  0
   25.8902  -17.6809  -16.5844 C   0  0  0  0  0  0  0  0  0  0  0  0
   25.9165  -16.5398  -17.3022 N   0  0  0  0  0  0  0  0  0  0  0  0
   24.7152  -16.4392  -17.8870 C   0  0  0  0  0  0  0  0  0  0  0  0
   23.9505  -17.5020  -17.5392 N   0  0  0  0  0  0  0  0  0  0  0  0
   24.9007  -20.9128  -14.1162 C   0  0  0  0  0  0  0  0  0  0  0  0
   24.3196  -22.0506  -14.1203 O   0  0  0  0  0  0  0  0  0  0  0  0
   25.7695  -21.1046   -7.9446 C   0  0  0  0  0  0  0  0  0  0  0  0
   24.9045  -21.3240   -9.1525 C   0  0  0  0  0  0  0  0  0  0  0  0
   25.4475  -20.6878  -10.4125 C   0  0  2  0  0  0  0  0  0  0  0  0
   25.6372  -19.2312  -10.1294 C   0  0  0  0  0  0  0  0  0  0  0  0
   24.5655  -20.9634  -11.6048 C   0  0  2  0  0  0  0  0  0  0  0  0
   25.0981  -20.3540  -12.8116 N   0  0  0  0  0  0  0  0  0  0  0  0
   23.1576  -20.5989  -11.3709 C   0  0  0  0  0  0  0  0  0  0  0  0
   22.6365  -19.5215  -11.7325 O   0  0  0  0  0  0  0  0  0  0  0  0
   22.2958  -21.4884  -10.6990 O   0  0  0  0  0  0  0  0  0  0  0  0
  1  2  1  0
  2  3  2  0
  4  2  1  0
  5  4  1  0
  5  6  1  6
  7  5  1  0
  7  8  2  0
  9  7  1  0
 10 11  1  6
 10  9  1  0
 12 13  2  0
 12 11  1  0
 14 13  1  0
 15 16  2  0
 15 14  1  0
 16 12  1  0
 17 10  1  0
 18 17  2  0
 20 19  1  0
 21 23  1  0
 21 20  1  0
 21 22  1  1
 23 24  1  6
 24 17  1  0
 25 27  1  0
 25 23  1  0
 26 25  2  0
M  END
$$$$
