NHI.pdb
     RDKit          3D

 27 27  0  0  1  0  0  0  0  0999 V2000
   11.7747  -23.4339    1.5579 N   0  0  0  0  0  0  0  0  0  0  0  0
   13.0003  -24.0650    1.2340 C   0  0  0  0  0  0  0  0  0  0  0  0
   12.9814  -25.3261    1.1096 O   0  0  0  0  0  0  0  0  0  0  0  0
   14.2854  -23.3920    1.0301 C   0  0  0  0  0  0  0  0  0  0  0  0
   14.2174  -21.9062    1.2156 C   0  0  2  0  0  0  0  0  0  0  0  0
   13.7374  -21.1859    0.0883 N   0  0  0  0  0  0  0  0  0  0  0  0
   15.6127  -21.4317    1.5406 C   0  0  0  0  0  0  0  0  0  0  0  0
   16.5705  -21.9135    0.8518 O   0  0  0  0  0  0  0  0  0  0  0  0
   15.7620  -20.4968    2.5736 N   0  0  0  0  0  0  0  0  0  0  0  0
   16.9654  -19.8443    2.9754 C   0  0  1  0  0  0  0  0  0  0  0  0
   17.0820  -18.3839    2.5848 C   0  0  0  0  0  0  0  0  0  0  0  0
   16.2580  -17.5020    3.4439 C   0  0  0  0  0  0  0  0  0  0  0  0
   15.4790  -17.8508    4.5031 C   0  0  0  0  0  0  0  0  0  0  0  0
   14.8914  -16.7528    5.0202 N   0  0  0  0  0  0  0  0  0  0  0  0
   15.3100  -15.7202    4.2761 C   0  0  0  0  0  0  0  0  0  0  0  0
   16.1467  -16.1673    3.3088 N   0  0  0  0  0  0  0  0  0  0  0  0
   17.3151  -20.1530    4.3519 C   0  0  0  0  0  0  0  0  0  0  0  0
   16.4870  -20.7194    5.1430 O   0  0  0  0  0  0  0  0  0  0  0  0
   21.4852  -22.3959    8.0757 C   0  0  0  0  0  0  0  0  0  0  0  0
   20.3479  -21.4301    7.9043 C   0  0  0  0  0  0  0  0  0  0  0  0
   20.0991  -21.0333    6.4664 C   0  0  2  0  0  0  0  0  0  0  0  0
   21.3634  -20.4253    5.9472 C   0  0  0  0  0  0  0  0  0  0  0  0
   18.8952  -20.1342    6.3332 C   0  0  2  0  0  0  0  0  0  0  0  0
   18.5887  -19.8599    4.9395 N   0  0  0  0  0  0  0  0  0  0  0  0
   19.0109  -18.9018    7.1314 C   0  0  0  0  0  0  0  0  0  0  0  0
   19.3691  -17.7943    6.6748 O   0  0  0  0  0  0  0  0  0  0  0  0
   18.7092  -18.9159    8.5078 O   0  0  0  0  0  0  0  0  0  0  0  0
  1  2  1  0
  2  3  2  0
  4  2  1  0
  5  4  1  0
  5  6  1  6
  7  5  1  0
  7  8  2  0
  9  7  1  0
 10 11  1  1
 10  9  1  0
 12 13  2  0
 12 11  1  0
 14 13  1  0
 15 16  2  0
 15 14  1  0
 16 12  1  0
 17 10  1  0
 18 17  2  0
 20 19  1  0
 21 23  1  0
 21 20  1  0
 21 22  1  1
 23 24  1  6
 24 17  1  0
 25 27  1  0
 25 23  1  0
 26 25  2  0
M  END
$$$$
