NHI.pdb
     RDKit          3D

 27 27  0  0  1  0  0  0  0  0999 V2000
   22.9196  -12.1648  -22.2806 N   0  0  0  0  0  0  0  0  0  0  0  0
   22.5115  -12.7677  -21.0660 C   0  0  0  0  0  0  0  0  0  0  0  0
   21.8642  -13.8538  -21.1532 O   0  0  0  0  0  0  0  0  0  0  0  0
   22.7700  -12.2493  -19.7204 C   0  0  0  0  0  0  0  0  0  0  0  0
   23.5311  -10.9581  -19.7139 C   0  0  2  0  0  0  0  0  0  0  0  0
   24.8354  -11.0319  -20.2736 N   0  0  0  0  0  0  0  0  0  0  0  0
   23.6408  -10.5107  -18.2767 C   0  0  0  0  0  0  0  0  0  0  0  0
   22.6960  -10.8396  -17.4872 O   0  0  0  0  0  0  0  0  0  0  0  0
   24.7691   -9.7667  -17.9073 N   0  0  0  0  0  0  0  0  0  0  0  0
   25.0229   -9.1614  -16.6405 C   0  0  1  0  0  0  0  0  0  0  0  0
   26.4304   -9.3298  -16.1028 C   0  0  0  0  0  0  0  0  0  0  0  0
   26.8513  -10.7495  -16.0567 C   0  0  0  0  0  0  0  0  0  0  0  0
   26.1367  -11.8494  -16.4171 C   0  0  0  0  0  0  0  0  0  0  0  0
   26.8779  -12.9596  -16.2258 N   0  0  0  0  0  0  0  0  0  0  0  0
   28.0567  -12.5426  -15.7445 C   0  0  0  0  0  0  0  0  0  0  0  0
   28.0514  -11.1921  -15.6372 N   0  0  0  0  0  0  0  0  0  0  0  0
   24.4824   -7.8141  -16.5662 C   0  0  0  0  0  0  0  0  0  0  0  0
   24.9973   -6.8481  -17.2250 O   0  0  0  0  0  0  0  0  0  0  0  0
   19.1642   -6.6399  -16.9671 C   0  0  0  0  0  0  0  0  0  0  0  0
   20.4138   -6.7993  -16.1495 C   0  0  0  0  0  0  0  0  0  0  0  0
   21.5910   -6.0112  -16.6789 C   0  0  2  0  0  0  0  0  0  0  0  0
   21.8573   -6.4899  -18.0709 C   0  0  0  0  0  0  0  0  0  0  0  0
   22.7875   -6.1088  -15.7653 C   0  0  2  0  0  0  0  0  0  0  0  0
   23.3498   -7.4487  -15.7681 N   0  0  0  0  0  0  0  0  0  0  0  0
   22.5074   -5.6247  -14.4027 C   0  0  0  0  0  0  0  0  0  0  0  0
   22.4904   -6.3495  -13.3841 O   0  0  0  0  0  0  0  0  0  0  0  0
   22.2340   -4.2612  -14.1755 O   0  0  0  0  0  0  0  0  0  0  0  0
  1  2  1  0
  2  3  2  0
  4  2  1  0
  5  4  1  0
  5  6  1  1
  7  5  1  0
  7  8  2  0
  9  7  1  0
 10 11  1  6
 10  9  1  0
 12 13  2  0
 12 11  1  0
 14 13  1  0
 15 16  2  0
 15 14  1  0
 16 12  1  0
 17 10  1  0
 18 17  2  0
 20 19  1  0
 21 23  1  0
 21 20  1  0
 21 22  1  6
 23 24  1  1
 24 17  1  0
 25 27  1  0
 25 23  1  0
 26 25  2  0
M  END
$$$$
