NHI.pdb
     RDKit          3D

 27 27  0  0  1  0  0  0  0  0999 V2000
   24.1826  -16.9103  -17.4975 N   0  0  0  0  0  0  0  0  0  0  0  0
   23.3416  -16.8914  -16.3584 C   0  0  0  0  0  0  0  0  0  0  0  0
   23.5971  -16.0237  -15.4705 O   0  0  0  0  0  0  0  0  0  0  0  0
   22.2050  -17.7829  -16.1148 C   0  0  0  0  0  0  0  0  0  0  0  0
   21.9327  -18.7263  -17.2473 C   0  0  2  0  0  0  0  0  0  0  0  0
   21.4893  -18.1058  -18.4467 N   0  0  0  0  0  0  0  0  0  0  0  0
   20.8745  -19.6946  -16.7782 C   0  0  0  0  0  0  0  0  0  0  0  0
   19.6801  -19.2592  -16.6893 O   0  0  0  0  0  0  0  0  0  0  0  0
   21.2735  -21.0026  -16.4727 N   0  0  0  0  0  0  0  0  0  0  0  0
   20.4612  -22.0469  -15.9391 C   0  0  1  0  0  0  0  0  0  0  0  0
   20.7564  -23.4396  -16.4606 C   0  0  0  0  0  0  0  0  0  0  0  0
   20.4064  -23.5927  -17.8920 C   0  0  0  0  0  0  0  0  0  0  0  0
   19.7823  -22.6977  -18.7043 C   0  0  0  0  0  0  0  0  0  0  0  0
   19.6495  -23.2176  -19.9414 N   0  0  0  0  0  0  0  0  0  0  0  0
   20.1947  -24.4405  -19.8925 C   0  0  0  0  0  0  0  0  0  0  0  0
   20.6610  -24.6802  -18.6432 N   0  0  0  0  0  0  0  0  0  0  0  0
   20.3164  -21.9371  -14.4970 C   0  0  0  0  0  0  0  0  0  0  0  0
   21.2579  -22.2728  -13.7013 O   0  0  0  0  0  0  0  0  0  0  0  0
   20.8597  -18.7096  -10.0783 C   0  0  0  0  0  0  0  0  0  0  0  0
   19.9096  -19.7794  -10.5345 C   0  0  0  0  0  0  0  0  0  0  0  0
   19.9819  -20.0639  -12.0181 C   0  0  2  0  0  0  0  0  0  0  0  0
   19.6903  -18.7819  -12.7318 C   0  0  0  0  0  0  0  0  0  0  0  0
   19.0721  -21.1995  -12.4162 C   0  0  2  0  0  0  0  0  0  0  0  0
   19.1351  -21.4544  -13.8453 N   0  0  0  0  0  0  0  0  0  0  0  0
   17.6893  -21.0170  -11.9429 C   0  0  0  0  0  0  0  0  0  0  0  0
   16.7443  -20.6168  -12.6570 O   0  0  0  0  0  0  0  0  0  0  0  0
   17.3539  -21.2982  -10.6035 O   0  0  0  0  0  0  0  0  0  0  0  0
  1  2  1  0
  2  3  2  0
  4  2  1  0
  5  4  1  0
  5  6  1  6
  7  5  1  0
  7  8  2  0
  9  7  1  0
 10 11  1  1
 10  9  1  0
 12 13  2  0
 12 11  1  0
 14 13  1  0
 15 16  2  0
 15 14  1  0
 16 12  1  0
 17 10  1  0
 18 17  2  0
 20 19  1  0
 21 23  1  0
 21 20  1  0
 21 22  1  6
 23 24  1  6
 24 17  1  0
 25 27  1  0
 25 23  1  0
 26 25  2  0
M  END
$$$$
