NHI.pdb
     RDKit          3D

 27 27  0  0  1  0  0  0  0  0999 V2000
   26.5883  -10.9419  -21.5496 N   0  0  0  0  0  0  0  0  0  0  0  0
   26.2760   -9.6115  -21.9209 C   0  0  0  0  0  0  0  0  0  0  0  0
   26.9188   -9.1221  -22.8975 O   0  0  0  0  0  0  0  0  0  0  0  0
   25.2786   -8.7520  -21.2786 C   0  0  0  0  0  0  0  0  0  0  0  0
   24.5740   -9.4097  -20.1307 C   0  0  2  0  0  0  0  0  0  0  0  0
   23.5937  -10.3690  -20.5035 N   0  0  0  0  0  0  0  0  0  0  0  0
   23.9088   -8.3176  -19.3293 C   0  0  0  0  0  0  0  0  0  0  0  0
   24.6659   -7.4676  -18.7562 O   0  0  0  0  0  0  0  0  0  0  0  0
   22.5090   -8.3105  -19.2684 N   0  0  0  0  0  0  0  0  0  0  0  0
   21.6828   -7.3700  -18.5841 C   0  0  1  0  0  0  0  0  0  0  0  0
   20.7156   -6.5911  -19.4538 C   0  0  0  0  0  0  0  0  0  0  0  0
   19.9685   -5.5655  -18.6891 C   0  0  0  0  0  0  0  0  0  0  0  0
   20.0542   -5.2795  -17.3620 C   0  0  0  0  0  0  0  0  0  0  0  0
   19.2083   -4.2754  -17.0547 N   0  0  0  0  0  0  0  0  0  0  0  0
   18.5970   -3.9394  -18.1986 C   0  0  0  0  0  0  0  0  0  0  0  0
   19.0547   -4.7225  -19.2050 N   0  0  0  0  0  0  0  0  0  0  0  0
   21.1178   -7.9302  -17.3677 C   0  0  0  0  0  0  0  0  0  0  0  0
   20.2980   -8.9096  -17.3986 O   0  0  0  0  0  0  0  0  0  0  0  0
   23.4618  -10.6283  -13.9441 C   0  0  0  0  0  0  0  0  0  0  0  0
   22.4044   -9.9083  -14.7307 C   0  0  0  0  0  0  0  0  0  0  0  0
   21.7997   -8.7304  -14.0000 C   0  0  2  0  0  0  0  0  0  0  0  0
   21.2306   -9.2472  -12.7168 C   0  0  0  0  0  0  0  0  0  0  0  0
   20.7976   -7.9949  -14.8546 C   0  0  2  0  0  0  0  0  0  0  0  0
   21.4175   -7.4510  -16.0509 N   0  0  0  0  0  0  0  0  0  0  0  0
   20.0451   -6.9752  -14.1039 C   0  0  0  0  0  0  0  0  0  0  0  0
   19.1196   -7.2269  -13.3019 O   0  0  0  0  0  0  0  0  0  0  0  0
   20.3485   -5.6084  -14.2626 O   0  0  0  0  0  0  0  0  0  0  0  0
  1  2  1  0
  2  3  2  0
  4  2  1  0
  5  4  1  0
  5  6  1  6
  7  5  1  0
  7  8  2  0
  9  7  1  0
 10 11  1  6
 10  9  1  0
 12 13  2  0
 12 11  1  0
 14 13  1  0
 15 16  2  0
 15 14  1  0
 16 12  1  0
 17 10  1  0
 18 17  2  0
 20 19  1  0
 21 23  1  0
 21 20  1  0
 21 22  1  1
 23 24  1  6
 24 17  1  0
 25 27  1  0
 25 23  1  0
 26 25  2  0
M  END
$$$$
