NHI.pdb
     RDKit          3D

 27 27  0  0  1  0  0  0  0  0999 V2000
   29.7653  -23.9045  -17.8513 N   0  0  0  0  0  0  0  0  0  0  0  0
   29.5795  -22.5236  -17.5985 C   0  0  0  0  0  0  0  0  0  0  0  0
   30.5975  -21.7772  -17.7117 O   0  0  0  0  0  0  0  0  0  0  0  0
   28.3185  -21.8820  -17.2186 C   0  0  0  0  0  0  0  0  0  0  0  0
   27.1974  -22.8521  -16.9986 C   0  0  2  0  0  0  0  0  0  0  0  0
   26.8362  -23.6152  -18.1419 N   0  0  0  0  0  0  0  0  0  0  0  0
   25.9989  -22.0552  -16.5447 C   0  0  0  0  0  0  0  0  0  0  0  0
   26.0768  -20.7854  -16.6206 O   0  0  0  0  0  0  0  0  0  0  0  0
   24.8846  -22.7609  -16.0718 N   0  0  0  0  0  0  0  0  0  0  0  0
   23.6634  -22.2108  -15.5805 C   0  0  1  0  0  0  0  0  0  0  0  0
   22.4050  -22.6652  -16.2937 C   0  0  0  0  0  0  0  0  0  0  0  0
   22.2903  -22.0939  -17.6558 C   0  0  0  0  0  0  0  0  0  0  0  0
   23.0936  -21.1708  -18.2497 C   0  0  0  0  0  0  0  0  0  0  0  0
   22.6519  -20.9151  -19.4979 N   0  0  0  0  0  0  0  0  0  0  0  0
   21.5697  -21.6848  -19.6755 C   0  0  0  0  0  0  0  0  0  0  0  0
   21.3395  -22.4102  -18.5547 N   0  0  0  0  0  0  0  0  0  0  0  0
   23.6031  -22.2373  -14.1285 C   0  0  0  0  0  0  0  0  0  0  0  0
   23.5678  -23.3369  -13.4790 O   0  0  0  0  0  0  0  0  0  0  0  0
   27.0107  -20.9545  -10.6817 C   0  0  0  0  0  0  0  0  0  0  0  0
   25.7736  -21.4564  -11.3694 C   0  0  0  0  0  0  0  0  0  0  0  0
   24.5466  -20.6128  -11.1048 C   0  0  2  0  0  0  0  0  0  0  0  0
   24.3401  -20.5799   -9.6236 C   0  0  0  0  0  0  0  0  0  0  0  0
   23.3475  -21.1109  -11.8728 C   0  0  2  0  0  0  0  0  0  0  0  0
   23.5781  -21.0637  -13.3066 N   0  0  0  0  0  0  0  0  0  0  0  0
   22.0988  -20.4321  -11.4864 C   0  0  0  0  0  0  0  0  0  0  0  0
   21.6609  -19.3941  -12.0288 O   0  0  0  0  0  0  0  0  0  0  0  0
   21.3054  -20.9452  -10.4411 O   0  0  0  0  0  0  0  0  0  0  0  0
  1  2  1  0
  2  3  2  0
  4  2  1  0
  5  4  1  0
  5  6  1  6
  7  5  1  0
  7  8  2  0
  9  7  1  0
 10 11  1  6
 10  9  1  0
 12 13  2  0
 12 11  1  0
 14 13  1  0
 15 16  2  0
 15 14  1  0
 16 12  1  0
 17 10  1  0
 18 17  2  0
 20 19  1  0
 21 23  1  0
 21 20  1  0
 21 22  1  1
 23 24  1  6
 24 17  1  0
 25 27  1  0
 25 23  1  0
 26 25  2  0
M  END
$$$$
