LMA.pdb
     RDKit          3D

 22 21  0  0  1  0  0  0  0  0999 V2000
   27.7848  -19.4870  -15.0259 C   0  0  0  0  0  0  0  0  0  0  0  0
   26.4747  -18.9030  -15.5011 C   0  0  2  0  0  0  0  0  0  0  0  0
   26.6504  -17.5793  -16.2088 C   0  0  0  0  0  0  0  0  0  0  0  0
   25.4356  -18.8620  -14.4159 C   0  0  0  0  0  0  0  0  0  0  0  0
   25.1739  -20.2197  -13.8080 C   0  0  2  0  0  0  0  0  0  0  0  0
   25.6128  -21.2897  -14.6746 N   0  0  0  0  0  0  0  0  0  0  0  0
   23.7134  -20.3329  -13.5928 C   0  0  0  0  0  0  0  0  0  0  0  0
   23.1221  -19.4177  -12.9729 O   0  0  0  0  0  0  0  0  0  0  0  0
   18.9284  -19.8188  -17.2497 C   0  0  0  0  0  0  0  0  0  0  0  0
   18.4535  -19.9632  -15.5044 S   0  0  0  0  0  0  0  0  0  0  0  0
   19.2522  -21.4917  -14.8720 C   0  0  0  0  0  0  0  0  0  0  0  0
   20.7337  -21.4386  -15.1024 C   0  0  0  0  0  0  0  0  0  0  0  0
   21.4760  -21.4903  -13.8112 C   0  0  2  0  0  0  0  0  0  0  0  0
   22.9310  -21.4155  -14.0443 N   0  0  0  0  0  0  0  0  0  0  0  0
   21.1484  -22.5839  -12.8981 C   0  0  0  0  0  0  0  0  0  0  0  0
   21.5783  -23.7532  -13.0114 O   0  0  0  0  0  0  0  0  0  0  0  0
   19.2506  -22.8666   -9.6586 C   0  0  0  0  0  0  0  0  0  0  0  0
   19.9000  -23.4643  -10.9047 C   0  0  2  0  0  0  0  0  0  0  0  0
   20.2725  -22.3738  -11.7626 N   0  0  0  0  0  0  0  0  0  0  0  0
   19.0323  -24.4487  -11.5443 C   0  0  0  0  0  0  0  0  0  0  0  0
   18.4754  -24.1740  -12.6275 O   0  0  0  0  0  0  0  0  0  0  0  0
   18.8077  -25.6866  -10.9803 O   0  0  0  0  0  0  0  0  0  0  0  0
  2  1  1  1
  2  4  1  0
  2  3  1  0
  4  5  1  0
  5  7  1  0
  5  6  1  6
  7  8  2  0
  9 10  1  0
 10 11  1  0
 11 12  1  0
 13 12  1  6
 13 15  1  0
 14 13  1  0
 14  7  1  0
 15 19  1  0
 15 16  2  0
 18 17  1  1
 18 20  1  0
 19 18  1  0
 20 21  2  0
 20 22  1  0
M  END
$$$$
