LMA.pdb
     RDKit          3D

 22 21  0  0  1  0  0  0  0  0999 V2000
   21.9724  -19.6834  -13.1992 C   0  0  0  0  0  0  0  0  0  0  0  0
   22.7407  -20.7727  -12.4877 C   0  0  2  0  0  0  0  0  0  0  0  0
   22.3062  -22.1587  -12.9049 C   0  0  0  0  0  0  0  0  0  0  0  0
   22.7629  -20.5817  -10.9970 C   0  0  0  0  0  0  0  0  0  0  0  0
   23.9831  -21.1922  -10.3492 C   0  0  2  0  0  0  0  0  0  0  0  0
   23.9766  -21.0126   -8.9153 N   0  0  0  0  0  0  0  0  0  0  0  0
   25.1706  -20.5174  -10.9210 C   0  0  0  0  0  0  0  0  0  0  0  0
   25.4022  -19.3282  -10.5991 O   0  0  0  0  0  0  0  0  0  0  0  0
   31.7673  -21.3468  -10.9329 C   0  0  0  0  0  0  0  0  0  0  0  0
   30.3801  -22.4669  -10.5955 S   0  0  0  0  0  0  0  0  0  0  0  0
   28.8503  -21.4616  -10.7465 C   0  0  0  0  0  0  0  0  0  0  0  0
   28.4759  -21.2967  -12.1899 C   0  0  0  0  0  0  0  0  0  0  0  0
   27.2672  -20.4365  -12.3320 C   0  0  2  0  0  0  0  0  0  0  0  0
   26.0716  -21.1302  -11.8158 N   0  0  0  0  0  0  0  0  0  0  0  0
   27.0096  -19.8628  -13.6516 C   0  0  0  0  0  0  0  0  0  0  0  0
   26.4224  -20.4601  -14.5807 O   0  0  0  0  0  0  0  0  0  0  0  0
   27.4398  -16.4409  -15.1646 C   0  0  0  0  0  0  0  0  0  0  0  0
   27.1271  -17.9328  -15.2544 C   0  0  2  0  0  0  0  0  0  0  0  0
   27.4344  -18.5160  -13.9780 N   0  0  0  0  0  0  0  0  0  0  0  0
   27.8222  -18.5619  -16.3734 C   0  0  0  0  0  0  0  0  0  0  0  0
   27.5114  -18.2613  -17.5448 O   0  0  0  0  0  0  0  0  0  0  0  0
   28.8230  -19.4885  -16.1717 O   0  0  0  0  0  0  0  0  0  0  0  0
  2  1  1  6
  2  4  1  0
  2  3  1  0
  4  5  1  0
  5  7  1  0
  5  6  1  1
  7  8  2  0
  9 10  1  0
 10 11  1  0
 11 12  1  0
 13 12  1  6
 13 15  1  0
 14 13  1  0
 14  7  1  0
 15 19  1  0
 15 16  2  0
 18 17  1  1
 18 20  1  0
 19 18  1  0
 20 21  2  0
 20 22  1  0
M  END
$$$$
