LMA.pdb
     RDKit          3D

 22 21  0  0  1  0  0  0  0  0999 V2000
   26.5619  -32.0351   -8.9891 C   0  0  0  0  0  0  0  0  0  0  0  0
   25.5292  -32.9413   -8.3602 C   0  0  2  0  0  0  0  0  0  0  0  0
   24.3339  -32.1825   -7.8316 C   0  0  0  0  0  0  0  0  0  0  0  0
   26.1270  -33.8827   -7.3525 C   0  0  0  0  0  0  0  0  0  0  0  0
   27.3550  -34.5911   -7.8735 C   0  0  2  0  0  0  0  0  0  0  0  0
   27.0177  -35.6071   -8.8443 N   0  0  0  0  0  0  0  0  0  0  0  0
   28.0238  -35.2252   -6.7146 C   0  0  0  0  0  0  0  0  0  0  0  0
   27.5211  -36.2620   -6.2209 O   0  0  0  0  0  0  0  0  0  0  0  0
   34.0702  -33.8545   -4.1600 C   0  0  0  0  0  0  0  0  0  0  0  0
   33.8713  -35.6557   -4.0683 S   0  0  0  0  0  0  0  0  0  0  0  0
   32.0641  -35.9773   -3.9992 C   0  0  0  0  0  0  0  0  0  0  0  0
   31.3551  -35.1961   -5.0657 C   0  0  0  0  0  0  0  0  0  0  0  0
   29.8858  -35.4407   -5.0176 C   0  0  2  0  0  0  0  0  0  0  0  0
   29.2047  -34.7352   -6.1200 N   0  0  0  0  0  0  0  0  0  0  0  0
   29.2112  -35.1953   -3.7441 C   0  0  0  0  0  0  0  0  0  0  0  0
   28.9968  -34.0602   -3.2641 O   0  0  0  0  0  0  0  0  0  0  0  0
   27.5609  -37.3577   -1.1362 C   0  0  0  0  0  0  0  0  0  0  0  0
   28.2147  -36.0608   -1.6075 C   0  0  2  0  0  0  0  0  0  0  0  0
   28.7312  -36.2925   -2.9278 N   0  0  0  0  0  0  0  0  0  0  0  0
   29.2160  -35.5865   -0.6569 C   0  0  0  0  0  0  0  0  0  0  0  0
   30.4118  -35.9161   -0.7992 O   0  0  0  0  0  0  0  0  0  0  0  0
   28.8752  -34.7759    0.4052 O   0  0  0  0  0  0  0  0  0  0  0  0
  2  1  1  1
  2  4  1  0
  2  3  1  0
  4  5  1  0
  5  7  1  0
  5  6  1  6
  7  8  2  0
  9 10  1  0
 10 11  1  0
 11 12  1  0
 13 12  1  1
 13 15  1  0
 14 13  1  0
 14  7  1  0
 15 19  1  0
 15 16  2  0
 18 17  1  1
 18 20  1  0
 19 18  1  0
 20 21  2  0
 20 22  1  0
M  END
$$$$
