LMA.pdb
     RDKit          3D

 22 21  0  0  1  0  0  0  0  0999 V2000
   23.9341  -10.0762  -14.7952 C   0  0  0  0  0  0  0  0  0  0  0  0
   22.7094  -10.6465  -15.4720 C   0  0  2  0  0  0  0  0  0  0  0  0
   23.0154  -11.8865  -16.2798 C   0  0  0  0  0  0  0  0  0  0  0  0
   21.9434   -9.6094  -16.2446 C   0  0  0  0  0  0  0  0  0  0  0  0
   21.6050   -8.3950  -15.4128 C   0  0  2  0  0  0  0  0  0  0  0  0
   20.7538   -8.7305  -14.2941 N   0  0  0  0  0  0  0  0  0  0  0  0
   20.8983   -7.4386  -16.2951 C   0  0  0  0  0  0  0  0  0  0  0  0
   21.4682   -7.0485  -17.3413 O   0  0  0  0  0  0  0  0  0  0  0  0
   14.1867   -5.3589  -17.1855 C   0  0  0  0  0  0  0  0  0  0  0  0
   15.1831   -5.9992  -18.5601 S   0  0  0  0  0  0  0  0  0  0  0  0
   16.9145   -5.4786  -18.2351 C   0  0  0  0  0  0  0  0  0  0  0  0
   17.5527   -6.3913  -17.2300 C   0  0  0  0  0  0  0  0  0  0  0  0
   18.9473   -5.9605  -16.9290 C   0  0  2  0  0  0  0  0  0  0  0  0
   19.6094   -6.9295  -16.0348 N   0  0  0  0  0  0  0  0  0  0  0  0
   19.1323   -4.5930  -16.4466 C   0  0  0  0  0  0  0  0  0  0  0  0
   18.9947   -4.2383  -15.2550 O   0  0  0  0  0  0  0  0  0  0  0  0
   20.2149   -1.3506  -18.0477 C   0  0  0  0  0  0  0  0  0  0  0  0
   19.7295   -2.1903  -16.8683 C   0  0  2  0  0  0  0  0  0  0  0  0
   19.5002   -3.5232  -17.3527 N   0  0  0  0  0  0  0  0  0  0  0  0
   18.5670   -1.5890  -16.2218 C   0  0  0  0  0  0  0  0  0  0  0  0
   17.4179   -1.8957  -16.6020 O   0  0  0  0  0  0  0  0  0  0  0  0
   18.7030   -0.6824  -15.1919 O   0  0  0  0  0  0  0  0  0  0  0  0
  2  1  1  6
  2  4  1  0
  2  3  1  0
  4  5  1  0
  5  7  1  0
  5  6  1  1
  7  8  2  0
  9 10  1  0
 10 11  1  0
 11 12  1  0
 13 12  1  1
 13 15  1  0
 14 13  1  0
 14  7  1  0
 15 19  1  0
 15 16  2  0
 18 17  1  6
 18 20  1  0
 19 18  1  0
 20 21  2  0
 20 22  1  0
M  END
$$$$
