LMA.pdb
     RDKit          3D

 22 21  0  0  1  0  0  0  0  0999 V2000
   21.6716  -22.9987  -12.9788 C   0  0  0  0  0  0  0  0  0  0  0  0
   21.0454  -21.6295  -12.8507 C   0  0  2  0  0  0  0  0  0  0  0  0
   20.2566  -21.2334  -14.0774 C   0  0  0  0  0  0  0  0  0  0  0  0
   22.0335  -20.5830  -12.4175 C   0  0  0  0  0  0  0  0  0  0  0  0
   23.1454  -21.1484  -11.5659 C   0  0  2  0  0  0  0  0  0  0  0  0
   22.9277  -20.8938  -10.1601 N   0  0  0  0  0  0  0  0  0  0  0  0
   24.4037  -20.4944  -11.9919 C   0  0  0  0  0  0  0  0  0  0  0  0
   24.4301  -19.2453  -12.0936 O   0  0  0  0  0  0  0  0  0  0  0  0
   29.9313  -22.4818  -10.1933 C   0  0  0  0  0  0  0  0  0  0  0  0
   30.6707  -21.2428  -11.2937 S   0  0  0  0  0  0  0  0  0  0  0  0
   29.2765  -20.4122  -12.1541 C   0  0  0  0  0  0  0  0  0  0  0  0
   28.0060  -21.1840  -11.9522 C   0  0  0  0  0  0  0  0  0  0  0  0
   26.8562  -20.4984  -12.6071 C   0  0  2  0  0  0  0  0  0  0  0  0
   25.5914  -21.1912  -12.2953 N   0  0  0  0  0  0  0  0  0  0  0  0
   26.9675  -20.2334  -14.0404 C   0  0  0  0  0  0  0  0  0  0  0  0
   26.7544  -21.0810  -14.9354 O   0  0  0  0  0  0  0  0  0  0  0  0
   27.8435  -17.1988  -16.1106 C   0  0  0  0  0  0  0  0  0  0  0  0
   27.4269  -18.6581  -15.9416 C   0  0  2  0  0  0  0  0  0  0  0  0
   27.3458  -18.9235  -14.5321 N   0  0  0  0  0  0  0  0  0  0  0  0
   28.3211  -19.5598  -16.6616 C   0  0  0  0  0  0  0  0  0  0  0  0
   28.1890  -19.7113  -17.8939 O   0  0  0  0  0  0  0  0  0  0  0  0
   29.3183  -20.2566  -16.0127 O   0  0  0  0  0  0  0  0  0  0  0  0
  2  1  1  6
  2  4  1  0
  2  3  1  0
  4  5  1  0
  5  7  1  0
  5  6  1  1
  7  8  2  0
  9 10  1  0
 10 11  1  0
 11 12  1  0
 13 12  1  6
 13 15  1  0
 14 13  1  0
 14  7  1  0
 15 19  1  0
 15 16  2  0
 18 17  1  1
 18 20  1  0
 19 18  1  0
 20 21  2  0
 20 22  1  0
M  END
$$$$
