LMA.pdb
     RDKit          3D

 22 21  0  0  1  0  0  0  0  0999 V2000
   20.8739  -22.2285  -13.0952 C   0  0  0  0  0  0  0  0  0  0  0  0
   20.8368  -20.7339  -12.8763 C   0  0  2  0  0  0  0  0  0  0  0  0
   20.3098  -19.9829  -14.0772 C   0  0  0  0  0  0  0  0  0  0  0  0
   22.1436  -20.1943  -12.3661 C   0  0  0  0  0  0  0  0  0  0  0  0
   22.6759  -20.9746  -11.1875 C   0  0  2  0  0  0  0  0  0  0  0  0
   21.7288  -21.0126  -10.0966 N   0  0  0  0  0  0  0  0  0  0  0  0
   23.9150  -20.3016  -10.7359 C   0  0  0  0  0  0  0  0  0  0  0  0
   24.3719  -19.3560  -11.4205 O   0  0  0  0  0  0  0  0  0  0  0  0
   27.1806  -20.7056   -4.9777 C   0  0  0  0  0  0  0  0  0  0  0  0
   27.7123  -19.1365   -5.7179 S   0  0  0  0  0  0  0  0  0  0  0  0
   27.4851  -19.3129   -7.5321 C   0  0  0  0  0  0  0  0  0  0  0  0
   26.2315  -20.0823   -7.8275 C   0  0  0  0  0  0  0  0  0  0  0  0
   25.9886  -20.1617   -9.2957 C   0  0  2  0  0  0  0  0  0  0  0  0
   24.6263  -20.6569   -9.5715 N   0  0  0  0  0  0  0  0  0  0  0  0
   26.9780  -20.8805  -10.0965 C   0  0  0  0  0  0  0  0  0  0  0  0
   27.9315  -21.5363   -9.6214 O   0  0  0  0  0  0  0  0  0  0  0  0
   29.0392  -21.7143  -12.2494 C   0  0  0  0  0  0  0  0  0  0  0  0
   28.0651  -20.5415  -12.3349 C   0  0  2  0  0  0  0  0  0  0  0  0
   26.9137  -20.8780  -11.5444 N   0  0  0  0  0  0  0  0  0  0  0  0
   27.7517  -20.2021  -13.7197 C   0  0  0  0  0  0  0  0  0  0  0  0
   26.5607  -20.1446  -14.0901 O   0  0  0  0  0  0  0  0  0  0  0  0
   28.7440  -19.9402  -14.6404 O   0  0  0  0  0  0  0  0  0  0  0  0
  2  1  1  6
  2  4  1  0
  2  3  1  0
  4  5  1  0
  5  7  1  0
  5  6  1  1
  7  8  2  0
  9 10  1  0
 10 11  1  0
 11 12  1  0
 13 12  1  1
 13 15  1  0
 14 13  1  0
 14  7  1  0
 15 19  1  0
 15 16  2  0
 18 17  1  6
 18 20  1  0
 19 18  1  0
 20 21  2  0
 20 22  1  0
M  END
$$$$
