LMA.pdb
     RDKit          3D

 22 21  0  0  1  0  0  0  0  0999 V2000
   20.6224  -23.6455  -14.6176 C   0  0  0  0  0  0  0  0  0  0  0  0
   20.1047  -22.2684  -14.9624 C   0  0  2  0  0  0  0  0  0  0  0  0
   19.6953  -22.1468  -16.4120 C   0  0  0  0  0  0  0  0  0  0  0  0
   21.0345  -21.1754  -14.5151 C   0  0  0  0  0  0  0  0  0  0  0  0
   21.5433  -21.3826  -13.1081 C   0  0  2  0  0  0  0  0  0  0  0  0
   20.5992  -20.9110  -12.1208 N   0  0  0  0  0  0  0  0  0  0  0  0
   22.8067  -20.6214  -12.9791 C   0  0  0  0  0  0  0  0  0  0  0  0
   22.7524  -19.3720  -12.8934 O   0  0  0  0  0  0  0  0  0  0  0  0
   28.7010  -20.9447   -9.9249 C   0  0  0  0  0  0  0  0  0  0  0  0
   27.0538  -21.1329   -9.1873 S   0  0  0  0  0  0  0  0  0  0  0  0
   25.8523  -20.5150  -10.4318 C   0  0  0  0  0  0  0  0  0  0  0  0
   26.2284  -20.9957  -11.8022 C   0  0  0  0  0  0  0  0  0  0  0  0
   25.3231  -20.4193  -12.8362 C   0  0  2  0  0  0  0  0  0  0  0  0
   24.0853  -21.2149  -12.9455 N   0  0  0  0  0  0  0  0  0  0  0  0
   25.8975  -20.1623  -14.1556 C   0  0  0  0  0  0  0  0  0  0  0  0
   25.9668  -21.0084  -15.0744 O   0  0  0  0  0  0  0  0  0  0  0  0
   27.6407  -17.2144  -15.7441 C   0  0  0  0  0  0  0  0  0  0  0  0
   27.0931  -18.6398  -15.7556 C   0  0  2  0  0  0  0  0  0  0  0  0
   26.4429  -18.8628  -14.4941 N   0  0  0  0  0  0  0  0  0  0  0  0
   28.1357  -19.6144  -16.0627 C   0  0  0  0  0  0  0  0  0  0  0  0
   28.7150  -20.2164  -15.1348 O   0  0  0  0  0  0  0  0  0  0  0  0
   28.5029  -19.8923  -17.3623 O   0  0  0  0  0  0  0  0  0  0  0  0
  2  1  1  6
  2  4  1  0
  2  3  1  0
  4  5  1  0
  5  7  1  0
  5  6  1  1
  7  8  2  0
  9 10  1  0
 10 11  1  0
 11 12  1  0
 13 12  1  1
 13 15  1  0
 14 13  1  0
 14  7  1  0
 15 19  1  0
 15 16  2  0
 18 17  1  1
 18 20  1  0
 19 18  1  0
 20 21  2  0
 20 22  1  0
M  END
$$$$
