LMA.pdb
     RDKit          3D

 22 21  0  0  1  0  0  0  0  0999 V2000
   27.4248  -16.6360  -18.7425 C   0  0  0  0  0  0  0  0  0  0  0  0
   28.3596  -17.4976  -17.9257 C   0  0  2  0  0  0  0  0  0  0  0  0
   29.5276  -18.0157  -18.7327 C   0  0  0  0  0  0  0  0  0  0  0  0
   27.6354  -18.5766  -17.1704 C   0  0  0  0  0  0  0  0  0  0  0  0
   26.4276  -18.0573  -16.4268 C   0  0  2  0  0  0  0  0  0  0  0  0
   26.7700  -16.9687  -15.5402 N   0  0  0  0  0  0  0  0  0  0  0  0
   25.8814  -19.1813  -15.6326 C   0  0  0  0  0  0  0  0  0  0  0  0
   25.5983  -20.2526  -16.2186 O   0  0  0  0  0  0  0  0  0  0  0  0
   25.7173  -19.8840   -9.0530 C   0  0  0  0  0  0  0  0  0  0  0  0
   25.6457  -21.5849   -9.6811 S   0  0  0  0  0  0  0  0  0  0  0  0
   24.9572  -21.4838  -11.3811 C   0  0  0  0  0  0  0  0  0  0  0  0
   25.5723  -20.3350  -12.1245 C   0  0  0  0  0  0  0  0  0  0  0  0
   25.0145  -20.2324  -13.5027 C   0  0  2  0  0  0  0  0  0  0  0  0
   25.6548  -19.1277  -14.2420 N   0  0  0  0  0  0  0  0  0  0  0  0
   23.5594  -20.1718  -13.6293 C   0  0  0  0  0  0  0  0  0  0  0  0
   22.8694  -19.1575  -13.3846 O   0  0  0  0  0  0  0  0  0  0  0  0
   20.9550  -22.2745  -15.2543 C   0  0  0  0  0  0  0  0  0  0  0  0
   21.3674  -21.2633  -14.1870 C   0  0  2  0  0  0  0  0  0  0  0  0
   22.7972  -21.3261  -14.0622 N   0  0  0  0  0  0  0  0  0  0  0  0
   20.6550  -21.4846  -12.9322 C   0  0  0  0  0  0  0  0  0  0  0  0
   21.2472  -22.0107  -11.9670 O   0  0  0  0  0  0  0  0  0  0  0  0
   19.3326  -21.1252  -12.7805 O   0  0  0  0  0  0  0  0  0  0  0  0
  2  1  1  6
  2  4  1  0
  2  3  1  0
  4  5  1  0
  5  7  1  0
  5  6  1  1
  7  8  2  0
  9 10  1  0
 10 11  1  0
 11 12  1  0
 13 12  1  1
 13 15  1  0
 14 13  1  0
 14  7  1  0
 15 19  1  0
 15 16  2  0
 18 17  1  6
 18 20  1  0
 19 18  1  0
 20 21  2  0
 20 22  1  0
M  END
$$$$
