LMA.pdb
     RDKit          3D

 22 21  0  0  1  0  0  0  0  0999 V2000
   12.1087  -12.2952  -11.0790 C   0  0  0  0  0  0  0  0  0  0  0  0
   13.5121  -12.8246  -11.2625 C   0  0  2  0  0  0  0  0  0  0  0  0
   13.7596  -14.0978  -10.4869 C   0  0  0  0  0  0  0  0  0  0  0  0
   14.5595  -11.7729  -11.0260 C   0  0  0  0  0  0  0  0  0  0  0  0
   14.3129  -10.5149  -11.8247 C   0  0  2  0  0  0  0  0  0  0  0  0
   14.4261  -10.7502  -13.2460 N   0  0  0  0  0  0  0  0  0  0  0  0
   15.3311   -9.5227  -11.4109 C   0  0  0  0  0  0  0  0  0  0  0  0
   15.5330   -9.3398  -10.1873 O   0  0  0  0  0  0  0  0  0  0  0  0
   21.8009   -5.7322  -11.8108 C   0  0  0  0  0  0  0  0  0  0  0  0
   20.7406   -7.0226  -12.5201 S   0  0  0  0  0  0  0  0  0  0  0  0
   19.0218   -6.3779  -12.4559 C   0  0  0  0  0  0  0  0  0  0  0  0
   18.0540   -7.4288  -12.9140 C   0  0  0  0  0  0  0  0  0  0  0  0
   17.0375   -7.7122  -11.8617 C   0  0  2  0  0  0  0  0  0  0  0  0
   16.1002   -8.7587  -12.3125 N   0  0  0  0  0  0  0  0  0  0  0  0
   16.3163   -6.5679  -11.3073 C   0  0  0  0  0  0  0  0  0  0  0  0
   15.5364   -5.8393  -11.9597 O   0  0  0  0  0  0  0  0  0  0  0  0
   15.8060   -5.1514   -7.8670 C   0  0  0  0  0  0  0  0  0  0  0  0
   15.8070   -5.0289   -9.3891 C   0  0  2  0  0  0  0  0  0  0  0  0
   16.4655   -6.1922   -9.9154 N   0  0  0  0  0  0  0  0  0  0  0  0
   16.3973   -3.7677   -9.8271 C   0  0  0  0  0  0  0  0  0  0  0  0
   15.8314   -2.6892   -9.5520 O   0  0  0  0  0  0  0  0  0  0  0  0
   17.5748   -3.7329  -10.5435 O   0  0  0  0  0  0  0  0  0  0  0  0
  2  1  1  1
  2  4  1  0
  2  3  1  0
  4  5  1  0
  5  7  1  0
  5  6  1  6
  7  8  2  0
  9 10  1  0
 10 11  1  0
 11 12  1  0
 13 12  1  6
 13 15  1  0
 14 13  1  0
 14  7  1  0
 15 19  1  0
 15 16  2  0
 18 17  1  1
 18 20  1  0
 19 18  1  0
 20 21  2  0
 20 22  1  0
M  END
$$$$
