FMK.pdb
     RDKit          3D

 29 29  0  0  1  0  0  0  0  0999 V2000
    5.6802  -18.0486   25.2926 N   0  0  0  0  0  0  0  0  0  0  0  0
    6.1553  -16.7038   25.2432 C   0  0  1  0  0  0  0  0  0  0  0  0
    6.6290  -16.1909   26.5815 C   0  0  0  0  0  0  0  0  0  0  0  0
    6.7257  -14.7310   26.5211 C   0  0  0  0  0  0  0  0  0  0  0  0
    5.5675  -13.9880   26.4296 C   0  0  0  0  0  0  0  0  0  0  0  0
    5.6333  -12.6047   26.3700 C   0  0  0  0  0  0  0  0  0  0  0  0
    6.8428  -11.9403   26.3998 C   0  0  0  0  0  0  0  0  0  0  0  0
    8.0061  -12.6836   26.4916 C   0  0  0  0  0  0  0  0  0  0  0  0
    7.9123  -14.0554   26.5496 C   0  0  0  0  0  0  0  0  0  0  0  0
    7.3473  -16.5929   24.3226 C   0  0  0  0  0  0  0  0  0  0  0  0
    8.2216  -17.5027   24.2954 O   0  0  0  0  0  0  0  0  0  0  0  0
    8.5646  -11.5719   19.9624 C   0  0  0  0  0  0  0  0  0  0  0  0
    7.2166  -12.7446   19.6205 S   0  0  0  0  0  0  0  0  0  0  0  0
    7.1644  -13.9778   20.9196 C   0  0  0  0  0  0  0  0  0  0  0  0
    8.4126  -14.1932   21.6547 C   0  0  0  0  0  0  0  0  0  0  0  0
    8.6152  -15.4312   22.4558 C   0  0  2  0  0  0  0  0  0  0  0  0
    7.5113  -15.4728   23.4728 N   0  0  0  0  0  0  0  0  0  0  0  0
    9.8775  -15.6340   23.1339 C   0  0  0  0  0  0  0  0  0  0  0  0
   10.2521  -14.7399   23.9570 O   0  0  0  0  0  0  0  0  0  0  0  0
   10.7667  -16.7390   23.0008 N   0  0  0  0  0  0  0  0  0  0  0  0
   12.1084  -16.6903   23.6009 C   0  0  1  0  0  0  0  0  0  0  0  0
   12.3238  -17.9967   24.3711 C   0  0  0  0  0  0  0  0  0  0  0  0
   11.3691  -18.0587   25.5255 C   0  0  0  0  0  0  0  0  0  0  0  0
   11.5922  -19.3295   26.3508 C   0  0  0  0  0  0  0  0  0  0  0  0
   10.6187  -19.4552   27.4823 C   0  0  0  0  0  0  0  0  0  0  0  0
   10.7132  -20.7058   28.1945 N   0  0  0  0  0  0  0  0  0  0  0  0
   13.1708  -16.4835   22.6284 C   0  0  0  0  0  0  0  0  0  0  0  0
   13.0091  -16.5235   21.3877 O   0  0  0  0  0  0  0  0  0  0  0  0
   14.4644  -16.2182   23.0550 O   0  0  0  0  0  0  0  0  0  0  0  0
  2  1  1  1
  3  2  1  0
  3  4  1  0
  4  9  2  0
  4  5  1  0
  5  6  2  0
  6  7  1  0
  8  7  2  0
  9  8  1  0
 10  2  1  0
 11 10  2  0
 12 13  1  0
 13 14  1  0
 15 14  1  0
 16 15  1  1
 16 17  1  0
 17 10  1  0
 18 16  1  0
 18 20  1  0
 19 18  2  0
 21 20  1  0
 21 27  1  0
 21 22  1  6
 23 22  1  0
 24 23  1  0
 25 24  1  0
 26 25  1  0
 27 29  1  0
 28 27  2  0
M  END
$$$$
