FMK.pdb
     RDKit          3D

 29 29  0  0  1  0  0  0  0  0999 V2000
    5.9846  -16.6555   25.4906 N   0  0  0  0  0  0  0  0  0  0  0  0
    7.0717  -16.0105   24.8282 C   0  0  1  0  0  0  0  0  0  0  0  0
    8.0412  -15.3518   25.7794 C   0  0  0  0  0  0  0  0  0  0  0  0
    7.5024  -14.0496   26.1773 C   0  0  0  0  0  0  0  0  0  0  0  0
    6.2090  -13.9783   26.6507 C   0  0  0  0  0  0  0  0  0  0  0  0
    5.6762  -12.7569   27.0325 C   0  0  0  0  0  0  0  0  0  0  0  0
    6.4141  -11.5933   26.9510 C   0  0  0  0  0  0  0  0  0  0  0  0
    7.7119  -11.6624   26.4763 C   0  0  0  0  0  0  0  0  0  0  0  0
    8.2163  -12.8877   26.1043 C   0  0  0  0  0  0  0  0  0  0  0  0
    7.8889  -17.0111   24.0462 C   0  0  0  0  0  0  0  0  0  0  0  0
    7.5195  -18.2152   23.9653 O   0  0  0  0  0  0  0  0  0  0  0  0
    7.6125  -11.7901   20.3730 C   0  0  0  0  0  0  0  0  0  0  0  0
    7.6808  -13.5003   19.7567 S   0  0  0  0  0  0  0  0  0  0  0  0
    7.1025  -14.6121   21.0376 C   0  0  0  0  0  0  0  0  0  0  0  0
    8.0329  -14.8653   22.1400 C   0  0  0  0  0  0  0  0  0  0  0  0
    9.0399  -15.9571   22.0446 C   0  0  2  0  0  0  0  0  0  0  0  0
    9.0815  -16.6249   23.3888 N   0  0  0  0  0  0  0  0  0  0  0  0
   10.3933  -15.6356   21.6451 C   0  0  0  0  0  0  0  0  0  0  0  0
   10.6125  -15.4560   20.4055 O   0  0  0  0  0  0  0  0  0  0  0  0
   11.5329  -15.4803   22.4858 N   0  0  0  0  0  0  0  0  0  0  0  0
   11.9936  -16.5948   23.3273 C   0  0  1  0  0  0  0  0  0  0  0  0
   11.6734  -17.8996   22.5917 C   0  0  0  0  0  0  0  0  0  0  0  0
   12.2423  -19.0566   23.3569 C   0  0  0  0  0  0  0  0  0  0  0  0
   11.1311  -19.8574   24.0421 C   0  0  0  0  0  0  0  0  0  0  0  0
   11.6597  -21.0354   24.8015 C   0  0  0  0  0  0  0  0  0  0  0  0
   10.6571  -21.7262   25.5748 N   0  0  0  0  0  0  0  0  0  0  0  0
   13.4085  -16.5236   23.6595 C   0  0  0  0  0  0  0  0  0  0  0  0
   13.8579  -16.4855   24.8272 O   0  0  0  0  0  0  0  0  0  0  0  0
   14.3609  -16.4969   22.6505 O   0  0  0  0  0  0  0  0  0  0  0  0
  2  1  1  1
  3  2  1  0
  3  4  1  0
  4  9  2  0
  4  5  1  0
  5  6  2  0
  6  7  1  0
  8  7  2  0
  9  8  1  0
 10  2  1  0
 11 10  2  0
 12 13  1  0
 13 14  1  0
 15 14  1  0
 16 15  1  1
 16 17  1  0
 17 10  1  0
 18 16  1  0
 18 20  1  0
 19 18  2  0
 21 20  1  0
 21 27  1  0
 21 22  1  6
 23 22  1  0
 24 23  1  0
 25 24  1  0
 26 25  1  0
 27 29  1  0
 28 27  2  0
M  END
$$$$
