FMK.pdb
     RDKit          3D

 29 29  0  0  1  0  0  0  0  0999 V2000
    7.2450  -18.1208   21.0915 N   0  0  0  0  0  0  0  0  0  0  0  0
    6.4861  -17.3334   22.0083 C   0  0  1  0  0  0  0  0  0  0  0  0
    5.6188  -18.1603   22.9263 C   0  0  0  0  0  0  0  0  0  0  0  0
    4.4968  -18.7014   22.1563 C   0  0  0  0  0  0  0  0  0  0  0  0
    4.2653  -20.0608   22.1783 C   0  0  0  0  0  0  0  0  0  0  0  0
    3.2101  -20.5968   21.4568 C   0  0  0  0  0  0  0  0  0  0  0  0
    2.3726  -19.7969   20.7059 C   0  0  0  0  0  0  0  0  0  0  0  0
    2.6029  -18.4329   20.6821 C   0  0  0  0  0  0  0  0  0  0  0  0
    3.6572  -17.9269   21.4078 C   0  0  0  0  0  0  0  0  0  0  0  0
    7.3990  -16.5444   22.9164 C   0  0  0  0  0  0  0  0  0  0  0  0
    8.6491  -16.7118   22.8690 O   0  0  0  0  0  0  0  0  0  0  0  0
    6.1501  -10.3059   25.8376 C   0  0  0  0  0  0  0  0  0  0  0  0
    6.4268  -11.6285   27.0557 S   0  0  0  0  0  0  0  0  0  0  0  0
    7.5385  -12.8489   26.3584 C   0  0  0  0  0  0  0  0  0  0  0  0
    6.9566  -13.7626   25.3728 C   0  0  0  0  0  0  0  0  0  0  0  0
    7.7877  -14.8235   24.7411 C   0  0  2  0  0  0  0  0  0  0  0  0
    6.8778  -15.6037   23.8367 N   0  0  0  0  0  0  0  0  0  0  0  0
    8.5083  -15.7518   25.5859 C   0  0  0  0  0  0  0  0  0  0  0  0
    9.3529  -15.2672   26.4037 O   0  0  0  0  0  0  0  0  0  0  0  0
    8.3788  -17.1700   25.6251 N   0  0  0  0  0  0  0  0  0  0  0  0
    9.2331  -17.9703   26.5153 C   0  0  1  0  0  0  0  0  0  0  0  0
    9.0403  -19.4446   26.1472 C   0  0  0  0  0  0  0  0  0  0  0  0
    7.7200  -19.9220   26.6734 C   0  0  0  0  0  0  0  0  0  0  0  0
    7.4682  -21.3793   26.2752 C   0  0  0  0  0  0  0  0  0  0  0  0
    6.1200  -21.8664   26.7096 C   0  0  0  0  0  0  0  0  0  0  0  0
    5.7997  -23.1906   26.2360 N   0  0  0  0  0  0  0  0  0  0  0  0
   10.6395  -17.6025   26.4533 C   0  0  0  0  0  0  0  0  0  0  0  0
   11.3863  -17.4988   27.4526 O   0  0  0  0  0  0  0  0  0  0  0  0
   11.2389  -17.3431   25.2288 O   0  0  0  0  0  0  0  0  0  0  0  0
  2  1  1  6
  3  2  1  0
  3  4  1  0
  4  9  2  0
  4  5  1  0
  5  6  2  0
  6  7  1  0
  8  7  2  0
  9  8  1  0
 10  2  1  0
 11 10  2  0
 12 13  1  0
 13 14  1  0
 15 14  1  0
 16 15  1  1
 16 17  1  0
 17 10  1  0
 18 16  1  0
 18 20  1  0
 19 18  2  0
 21 20  1  0
 21 27  1  0
 21 22  1  6
 23 22  1  0
 24 23  1  0
 25 24  1  0
 26 25  1  0
 27 29  1  0
 28 27  2  0
M  END
$$$$
