FMK.pdb
     RDKit          3D

 29 29  0  0  1  0  0  0  0  0999 V2000
    8.0142  -16.1855   21.2884 N   0  0  0  0  0  0  0  0  0  0  0  0
    9.3880  -15.8717   21.5131 C   0  0  1  0  0  0  0  0  0  0  0  0
    9.8146  -14.5743   20.8701 C   0  0  0  0  0  0  0  0  0  0  0  0
    8.7320  -14.0954   20.0081 C   0  0  0  0  0  0  0  0  0  0  0  0
    7.8895  -13.1102   20.4787 C   0  0  0  0  0  0  0  0  0  0  0  0
    6.8568  -12.6413   19.6818 C   0  0  0  0  0  0  0  0  0  0  0  0
    6.6448  -13.1399   18.4123 C   0  0  0  0  0  0  0  0  0  0  0  0
    7.4887  -14.1283   17.9380 C   0  0  0  0  0  0  0  0  0  0  0  0
    8.5061  -14.5756   18.7497 C   0  0  0  0  0  0  0  0  0  0  0  0
    9.6617  -15.7012   22.9884 C   0  0  0  0  0  0  0  0  0  0  0  0
   10.8371  -15.5007   23.4021 O   0  0  0  0  0  0  0  0  0  0  0  0
    6.6029  -10.7494   26.5940 C   0  0  0  0  0  0  0  0  0  0  0  0
    6.3890  -12.5507   26.7316 S   0  0  0  0  0  0  0  0  0  0  0  0
    7.7772  -13.3707   25.9494 C   0  0  0  0  0  0  0  0  0  0  0  0
    7.7617  -14.8348   25.9795 C   0  0  0  0  0  0  0  0  0  0  0  0
    8.8912  -15.6156   25.4052 C   0  0  2  0  0  0  0  0  0  0  0  0
    8.6128  -15.7615   23.9370 N   0  0  0  0  0  0  0  0  0  0  0  0
    9.1958  -16.9210   25.9508 C   0  0  0  0  0  0  0  0  0  0  0  0
    8.2628  -17.7850   25.9619 O   0  0  0  0  0  0  0  0  0  0  0  0
   10.4399  -17.3729   26.4776 N   0  0  0  0  0  0  0  0  0  0  0  0
   10.5636  -18.7288   27.0333 C   0  0  1  0  0  0  0  0  0  0  0  0
   11.9013  -19.3071   26.5620 C   0  0  0  0  0  0  0  0  0  0  0  0
   12.0254  -20.7254   27.0322 C   0  0  0  0  0  0  0  0  0  0  0  0
   13.3702  -21.3247   26.6104 C   0  0  0  0  0  0  0  0  0  0  0  0
   13.5371  -22.7391   27.0745 C   0  0  0  0  0  0  0  0  0  0  0  0
   14.6978  -23.3976   26.5273 N   0  0  0  0  0  0  0  0  0  0  0  0
   10.4657  -18.7713   28.4845 C   0  0  0  0  0  0  0  0  0  0  0  0
   10.7677  -17.8199   29.2401 O   0  0  0  0  0  0  0  0  0  0  0  0
   10.0101  -19.9182   29.1192 O   0  0  0  0  0  0  0  0  0  0  0  0
  2  1  1  1
  3  2  1  0
  3  4  1  0
  4  9  2  0
  4  5  1  0
  5  6  2  0
  6  7  1  0
  8  7  2  0
  9  8  1  0
 10  2  1  0
 11 10  2  0
 12 13  1  0
 13 14  1  0
 15 14  1  0
 16 15  1  1
 16 17  1  0
 17 10  1  0
 18 16  1  0
 18 20  1  0
 19 18  2  0
 21 20  1  0
 21 27  1  0
 21 22  1  1
 23 22  1  0
 24 23  1  0
 25 24  1  0
 26 25  1  0
 27 29  1  0
 28 27  2  0
M  END
$$$$
