FMK.pdb
     RDKit          3D

 29 29  0  0  1  0  0  0  0  0999 V2000
    8.9919  -19.8474   27.5082 N   0  0  0  0  0  0  0  0  0  0  0  0
    9.1429  -18.4288   27.5407 C   0  0  1  0  0  0  0  0  0  0  0  0
   10.5850  -17.9834   27.5158 C   0  0  0  0  0  0  0  0  0  0  0  0
   10.6567  -16.5884   27.9555 C   0  0  0  0  0  0  0  0  0  0  0  0
   10.6842  -16.3145   29.3069 C   0  0  0  0  0  0  0  0  0  0  0  0
   10.7509  -15.0020   29.7476 C   0  0  0  0  0  0  0  0  0  0  0  0
   10.7909  -13.9462   28.8594 C   0  0  0  0  0  0  0  0  0  0  0  0
   10.7633  -14.2185   27.5032 C   0  0  0  0  0  0  0  0  0  0  0  0
   10.6973  -15.5305   27.0928 C   0  0  0  0  0  0  0  0  0  0  0  0
    8.5033  -17.7965   26.3274 C   0  0  0  0  0  0  0  0  0  0  0  0
    8.3483  -18.4618   25.2662 O   0  0  0  0  0  0  0  0  0  0  0  0
    6.4173  -11.7543   26.9002 C   0  0  0  0  0  0  0  0  0  0  0  0
    6.0958  -11.8744   25.1137 S   0  0  0  0  0  0  0  0  0  0  0  0
    6.3547  -13.5656   24.5806 C   0  0  0  0  0  0  0  0  0  0  0  0
    7.1044  -14.4240   25.5003 C   0  0  0  0  0  0  0  0  0  0  0  0
    7.3005  -15.8680   25.1979 C   0  0  2  0  0  0  0  0  0  0  0  0
    8.0647  -16.4510   26.3514 N   0  0  0  0  0  0  0  0  0  0  0  0
    7.9594  -16.2478   23.9666 C   0  0  0  0  0  0  0  0  0  0  0  0
    7.4837  -17.2391   23.3278 O   0  0  0  0  0  0  0  0  0  0  0  0
    9.0914  -15.6298   23.3614 N   0  0  0  0  0  0  0  0  0  0  0  0
    9.8045  -16.2979   22.2625 C   0  0  1  0  0  0  0  0  0  0  0  0
    9.3586  -15.6451   20.9505 C   0  0  0  0  0  0  0  0  0  0  0  0
    9.2009  -14.1683   21.1561 C   0  0  0  0  0  0  0  0  0  0  0  0
    8.6938  -13.4905   19.8799 C   0  0  0  0  0  0  0  0  0  0  0  0
    8.6562  -11.9979   20.0009 C   0  0  0  0  0  0  0  0  0  0  0  0
    8.2168  -11.3281   18.8015 N   0  0  0  0  0  0  0  0  0  0  0  0
   11.2525  -16.2491   22.3971 C   0  0  0  0  0  0  0  0  0  0  0  0
   12.0553  -16.7104   21.5546 O   0  0  0  0  0  0  0  0  0  0  0  0
   11.8293  -15.6599   23.5133 O   0  0  0  0  0  0  0  0  0  0  0  0
  2  1  1  6
  3  2  1  0
  3  4  1  0
  4  9  2  0
  4  5  1  0
  5  6  2  0
  6  7  1  0
  8  7  2  0
  9  8  1  0
 10  2  1  0
 11 10  2  0
 12 13  1  0
 13 14  1  0
 15 14  1  0
 16 15  1  1
 16 17  1  0
 17 10  1  0
 18 16  1  0
 18 20  1  0
 19 18  2  0
 21 20  1  0
 21 27  1  0
 21 22  1  6
 23 22  1  0
 24 23  1  0
 25 24  1  0
 26 25  1  0
 27 29  1  0
 28 27  2  0
M  END
$$$$
