FMK.pdb
     RDKit          3D

 29 29  0  0  1  0  0  0  0  0999 V2000
   10.8637  -17.7159   21.4045 N   0  0  0  0  0  0  0  0  0  0  0  0
   10.0340  -16.5570   21.4757 C   0  0  1  0  0  0  0  0  0  0  0  0
    8.7541  -16.6926   20.6869 C   0  0  0  0  0  0  0  0  0  0  0  0
    8.1137  -15.3789   20.5954 C   0  0  0  0  0  0  0  0  0  0  0  0
    6.8435  -15.2177   21.1079 C   0  0  0  0  0  0  0  0  0  0  0  0
    6.2160  -13.9840   21.0322 C   0  0  0  0  0  0  0  0  0  0  0  0
    6.8354  -12.8967   20.4498 C   0  0  0  0  0  0  0  0  0  0  0  0
    8.1097  -13.0559   19.9350 C   0  0  0  0  0  0  0  0  0  0  0  0
    8.7098  -14.2913   20.0236 C   0  0  0  0  0  0  0  0  0  0  0  0
    9.6056  -16.2946   22.8998 C   0  0  0  0  0  0  0  0  0  0  0  0
    9.8266  -17.1489   23.8021 O   0  0  0  0  0  0  0  0  0  0  0  0
    7.4194  -11.2383   27.6858 C   0  0  0  0  0  0  0  0  0  0  0  0
    6.4739  -11.8507   26.2572 S   0  0  0  0  0  0  0  0  0  0  0  0
    6.8327  -13.5895   26.0145 C   0  0  0  0  0  0  0  0  0  0  0  0
    7.4465  -13.9487   24.7342 C   0  0  0  0  0  0  0  0  0  0  0  0
    8.7052  -14.7420   24.6944 C   0  0  2  0  0  0  0  0  0  0  0  0
    8.9502  -15.0913   23.2549 N   0  0  0  0  0  0  0  0  0  0  0  0
    8.8039  -15.9488   25.4871 C   0  0  0  0  0  0  0  0  0  0  0  0
    9.5767  -15.9265   26.4968 O   0  0  0  0  0  0  0  0  0  0  0  0
    8.1202  -17.1815   25.2805 N   0  0  0  0  0  0  0  0  0  0  0  0
    7.9611  -18.1379   26.3861 C   0  0  1  0  0  0  0  0  0  0  0  0
    7.1431  -19.3233   25.8648 C   0  0  0  0  0  0  0  0  0  0  0  0
    6.9097  -20.2978   26.9801 C   0  0  0  0  0  0  0  0  0  0  0  0
    6.1411  -21.5249   26.4811 C   0  0  0  0  0  0  0  0  0  0  0  0
    5.8179  -22.4853   27.5842 C   0  0  0  0  0  0  0  0  0  0  0  0
    6.9561  -23.2374   28.0525 N   0  0  0  0  0  0  0  0  0  0  0  0
    9.2251  -18.5902   26.9473 C   0  0  0  0  0  0  0  0  0  0  0  0
    9.3277  -19.2994   27.9738 O   0  0  0  0  0  0  0  0  0  0  0  0
   10.4225  -18.2412   26.3389 O   0  0  0  0  0  0  0  0  0  0  0  0
  2  1  1  1
  3  2  1  0
  3  4  1  0
  4  9  2  0
  4  5  1  0
  5  6  2  0
  6  7  1  0
  8  7  2  0
  9  8  1  0
 10  2  1  0
 11 10  2  0
 12 13  1  0
 13 14  1  0
 15 14  1  0
 16 15  1  6
 16 17  1  0
 17 10  1  0
 18 16  1  0
 18 20  1  0
 19 18  2  0
 21 20  1  0
 21 27  1  0
 21 22  1  6
 23 22  1  0
 24 23  1  0
 25 24  1  0
 26 25  1  0
 27 29  1  0
 28 27  2  0
M  END
$$$$
