FMK.pdb
     RDKit          3D

 29 29  0  0  1  0  0  0  0  0999 V2000
    5.7272  -17.9515   25.7978 N   0  0  0  0  0  0  0  0  0  0  0  0
    6.3787  -16.7308   25.4488 C   0  0  1  0  0  0  0  0  0  0  0  0
    7.4289  -16.3103   26.4482 C   0  0  0  0  0  0  0  0  0  0  0  0
    7.5352  -14.8498   26.4362 C   0  0  0  0  0  0  0  0  0  0  0  0
    6.3813  -14.0956   26.4763 C   0  0  0  0  0  0  0  0  0  0  0  0
    6.4562  -12.7116   26.4647 C   0  0  0  0  0  0  0  0  0  0  0  0
    7.6705  -12.0574   26.4134 C   0  0  0  0  0  0  0  0  0  0  0  0
    8.8295  -12.8119   26.3730 C   0  0  0  0  0  0  0  0  0  0  0  0
    8.7267  -14.1843   26.3859 C   0  0  0  0  0  0  0  0  0  0  0  0
    7.1061  -16.8719   24.1329 C   0  0  0  0  0  0  0  0  0  0  0  0
    7.7868  -17.9055   23.8857 O   0  0  0  0  0  0  0  0  0  0  0  0
    7.2439  -11.7380   20.2933 C   0  0  0  0  0  0  0  0  0  0  0  0
    8.3363  -12.7639   19.2618 S   0  0  0  0  0  0  0  0  0  0  0  0
    8.3079  -14.4497   19.8688 C   0  0  0  0  0  0  0  0  0  0  0  0
    7.8187  -14.6343   21.2369 C   0  0  0  0  0  0  0  0  0  0  0  0
    7.7806  -15.9897   21.8506 C   0  0  2  0  0  0  0  0  0  0  0  0
    7.0421  -15.8545   23.1508 N   0  0  0  0  0  0  0  0  0  0  0  0
    9.0241  -16.6888   22.0948 C   0  0  0  0  0  0  0  0  0  0  0  0
    9.1682  -17.8341   21.5611 O   0  0  0  0  0  0  0  0  0  0  0  0
   10.1354  -16.2403   22.8650 N   0  0  0  0  0  0  0  0  0  0  0  0
   11.5030  -16.6373   22.4982 C   0  0  1  0  0  0  0  0  0  0  0  0
   11.8064  -16.0485   21.1172 C   0  0  0  0  0  0  0  0  0  0  0  0
   13.1715  -16.4855   20.6771 C   0  0  0  0  0  0  0  0  0  0  0  0
   13.4607  -16.0162   19.2482 C   0  0  0  0  0  0  0  0  0  0  0  0
   14.7701  -16.5287   18.7317 C   0  0  0  0  0  0  0  0  0  0  0  0
   15.0553  -16.1320   17.3746 N   0  0  0  0  0  0  0  0  0  0  0  0
   12.5061  -16.2231   23.4675 C   0  0  0  0  0  0  0  0  0  0  0  0
   12.3012  -15.3970   24.3856 O   0  0  0  0  0  0  0  0  0  0  0  0
   13.7877  -16.7526   23.4140 O   0  0  0  0  0  0  0  0  0  0  0  0
  2  1  1  1
  3  2  1  0
  3  4  1  0
  4  9  2  0
  4  5  1  0
  5  6  2  0
  6  7  1  0
  8  7  2  0
  9  8  1  0
 10  2  1  0
 11 10  2  0
 12 13  1  0
 13 14  1  0
 15 14  1  0
 16 15  1  1
 16 17  1  0
 17 10  1  0
 18 16  1  0
 18 20  1  0
 19 18  2  0
 21 20  1  0
 21 27  1  0
 21 22  1  6
 23 22  1  0
 24 23  1  0
 25 24  1  0
 26 25  1  0
 27 29  1  0
 28 27  2  0
M  END
$$$$
