FMK.pdb
     RDKit          3D

 29 29  0  0  1  0  0  0  0  0999 V2000
    6.4984  -18.0728   26.4543 N   0  0  0  0  0  0  0  0  0  0  0  0
    6.8191  -16.7703   25.9674 C   0  0  1  0  0  0  0  0  0  0  0  0
    7.9894  -16.1395   26.6823 C   0  0  0  0  0  0  0  0  0  0  0  0
    7.7631  -14.6959   26.7775 C   0  0  0  0  0  0  0  0  0  0  0  0
    6.4949  -14.2023   26.5539 C   0  0  0  0  0  0  0  0  0  0  0  0
    6.2561  -12.8394   26.6372 C   0  0  0  0  0  0  0  0  0  0  0  0
    7.2662  -11.9496   26.9419 C   0  0  0  0  0  0  0  0  0  0  0  0
    8.5393  -12.4424   27.1666 C   0  0  0  0  0  0  0  0  0  0  0  0
    8.7489  -13.7997   27.0778 C   0  0  0  0  0  0  0  0  0  0  0  0
    7.2177  -16.8283   24.5119 C   0  0  0  0  0  0  0  0  0  0  0  0
    7.4682  -17.9358   23.9609 O   0  0  0  0  0  0  0  0  0  0  0  0
    8.3281  -12.1640   18.1225 C   0  0  0  0  0  0  0  0  0  0  0  0
    7.8722  -12.3050   19.8780 S   0  0  0  0  0  0  0  0  0  0  0  0
    7.8751  -14.0336   20.3507 C   0  0  0  0  0  0  0  0  0  0  0  0
    7.6631  -14.3136   21.7725 C   0  0  0  0  0  0  0  0  0  0  0  0
    7.6752  -15.7134   22.2782 C   0  0  2  0  0  0  0  0  0  0  0  0
    7.3189  -15.6492   23.7353 N   0  0  0  0  0  0  0  0  0  0  0  0
    8.8765  -16.5068   22.1297 C   0  0  0  0  0  0  0  0  0  0  0  0
    8.8758  -17.4114   21.2359 O   0  0  0  0  0  0  0  0  0  0  0  0
   10.0898  -16.3913   22.8672 N   0  0  0  0  0  0  0  0  0  0  0  0
   11.3880  -16.4938   22.1840 C   0  0  1  0  0  0  0  0  0  0  0  0
   11.4780  -15.3441   21.1760 C   0  0  0  0  0  0  0  0  0  0  0  0
   12.8143  -15.3789   20.4971 C   0  0  0  0  0  0  0  0  0  0  0  0
   12.8429  -14.4256   19.2987 C   0  0  0  0  0  0  0  0  0  0  0  0
   14.1581  -14.4463   18.5823 C   0  0  0  0  0  0  0  0  0  0  0  0
   14.2593  -13.4717   17.5239 N   0  0  0  0  0  0  0  0  0  0  0  0
   12.5242  -16.4735   23.0928 C   0  0  0  0  0  0  0  0  0  0  0  0
   13.5288  -17.2122   22.9829 O   0  0  0  0  0  0  0  0  0  0  0  0
   12.5434  -15.5928   24.1651 O   0  0  0  0  0  0  0  0  0  0  0  0
  2  1  1  1
  3  2  1  0
  3  4  1  0
  4  9  2  0
  4  5  1  0
  5  6  2  0
  6  7  1  0
  8  7  2  0
  9  8  1  0
 10  2  1  0
 11 10  2  0
 12 13  1  0
 13 14  1  0
 15 14  1  0
 16 15  1  1
 16 17  1  0
 17 10  1  0
 18 16  1  0
 18 20  1  0
 19 18  2  0
 21 20  1  0
 21 27  1  0
 21 22  1  6
 23 22  1  0
 24 23  1  0
 25 24  1  0
 26 25  1  0
 27 29  1  0
 28 27  2  0
M  END
$$$$
