FMK.pdb
     RDKit          3D

 29 29  0  0  1  0  0  0  0  0999 V2000
    6.2168  -17.9218   26.2028 N   0  0  0  0  0  0  0  0  0  0  0  0
    6.7529  -16.7737   25.5464 C   0  0  1  0  0  0  0  0  0  0  0  0
    7.7819  -16.0419   26.3735 C   0  0  0  0  0  0  0  0  0  0  0  0
    7.5687  -14.6006   26.2266 C   0  0  0  0  0  0  0  0  0  0  0  0
    6.3288  -14.0750   26.5235 C   0  0  0  0  0  0  0  0  0  0  0  0
    6.1023  -12.7139   26.3912 C   0  0  0  0  0  0  0  0  0  0  0  0
    7.0970  -11.8575   25.9643 C   0  0  0  0  0  0  0  0  0  0  0  0
    8.3417  -12.3825   25.6657 C   0  0  0  0  0  0  0  0  0  0  0  0
    8.5397  -13.7372   25.8060 C   0  0  0  0  0  0  0  0  0  0  0  0
    7.4638  -17.1701   24.2743 C   0  0  0  0  0  0  0  0  0  0  0  0
    8.0309  -18.2938   24.1820 O   0  0  0  0  0  0  0  0  0  0  0  0
    8.3995  -11.7588   21.4336 C   0  0  0  0  0  0  0  0  0  0  0  0
    7.6336  -13.3376   21.9135 S   0  0  0  0  0  0  0  0  0  0  0  0
    7.8800  -14.5347   20.6029 C   0  0  0  0  0  0  0  0  0  0  0  0
    7.2823  -15.8548   20.8147 C   0  0  0  0  0  0  0  0  0  0  0  0
    7.8736  -16.8046   21.7963 C   0  0  2  0  0  0  0  0  0  0  0  0
    7.5105  -16.2963   23.1617 N   0  0  0  0  0  0  0  0  0  0  0  0
    9.2977  -17.0603   21.7609 C   0  0  0  0  0  0  0  0  0  0  0  0
    9.7756  -17.5740   20.7003 O   0  0  0  0  0  0  0  0  0  0  0  0
   10.2535  -16.7920   22.7826 N   0  0  0  0  0  0  0  0  0  0  0  0
   11.6334  -17.2848   22.6578 C   0  0  1  0  0  0  0  0  0  0  0  0
   12.5763  -16.1080   22.9263 C   0  0  0  0  0  0  0  0  0  0  0  0
   13.9960  -16.5892   22.8976 C   0  0  0  0  0  0  0  0  0  0  0  0
   14.9688  -15.4364   23.1629 C   0  0  0  0  0  0  0  0  0  0  0  0
   16.4014  -15.8636   23.0697 C   0  0  0  0  0  0  0  0  0  0  0  0
   17.3417  -14.8222   23.4038 N   0  0  0  0  0  0  0  0  0  0  0  0
   11.9331  -18.3989   23.5446 C   0  0  0  0  0  0  0  0  0  0  0  0
   12.8744  -19.2055   23.3707 O   0  0  0  0  0  0  0  0  0  0  0  0
   11.1549  -18.6213   24.6719 O   0  0  0  0  0  0  0  0  0  0  0  0
  2  1  1  1
  3  2  1  0
  3  4  1  0
  4  9  2  0
  4  5  1  0
  5  6  2  0
  6  7  1  0
  8  7  2  0
  9  8  1  0
 10  2  1  0
 11 10  2  0
 12 13  1  0
 13 14  1  0
 15 14  1  0
 16 15  1  6
 16 17  1  0
 17 10  1  0
 18 16  1  0
 18 20  1  0
 19 18  2  0
 21 20  1  0
 21 27  1  0
 21 22  1  1
 23 22  1  0
 24 23  1  0
 25 24  1  0
 26 25  1  0
 27 29  1  0
 28 27  2  0
M  END
$$$$
