FMK.pdb
     RDKit          3D

 29 29  0  0  1  0  0  0  0  0999 V2000
    5.9984  -17.0219   24.7280 N   0  0  0  0  0  0  0  0  0  0  0  0
    6.8281  -16.5607   23.6626 C   0  0  1  0  0  0  0  0  0  0  0  0
    6.3954  -15.2256   23.1069 C   0  0  0  0  0  0  0  0  0  0  0  0
    6.6902  -14.1847   24.0939 C   0  0  0  0  0  0  0  0  0  0  0  0
    5.9353  -14.1237   25.2464 C   0  0  0  0  0  0  0  0  0  0  0  0
    6.1946  -13.1468   26.1949 C   0  0  0  0  0  0  0  0  0  0  0  0
    7.2014  -12.2198   26.0159 C   0  0  0  0  0  0  0  0  0  0  0  0
    7.9601  -12.2788   24.8604 C   0  0  0  0  0  0  0  0  0  0  0  0
    7.6818  -13.2590   23.9352 C   0  0  0  0  0  0  0  0  0  0  0  0
    8.2466  -16.3596   24.1401 C   0  0  0  0  0  0  0  0  0  0  0  0
    9.1254  -15.9000   23.3595 O   0  0  0  0  0  0  0  0  0  0  0  0
   10.2232  -13.1472   29.0165 C   0  0  0  0  0  0  0  0  0  0  0  0
   11.3529  -14.5487   29.2797 S   0  0  0  0  0  0  0  0  0  0  0  0
   10.7992  -15.9440   28.3009 C   0  0  0  0  0  0  0  0  0  0  0  0
   10.0289  -15.6222   27.0976 C   0  0  0  0  0  0  0  0  0  0  0  0
   10.0459  -16.5345   25.9217 C   0  0  2  0  0  0  0  0  0  0  0  0
    8.6223  -16.6794   25.4668 N   0  0  0  0  0  0  0  0  0  0  0  0
   10.6242  -17.8539   26.0607 C   0  0  0  0  0  0  0  0  0  0  0  0
    9.9014  -18.7595   26.5846 O   0  0  0  0  0  0  0  0  0  0  0  0
   11.9256  -18.2774   25.6650 N   0  0  0  0  0  0  0  0  0  0  0  0
   12.3406  -19.6761   25.8496 C   0  0  1  0  0  0  0  0  0  0  0  0
   13.0569  -20.1238   24.5719 C   0  0  0  0  0  0  0  0  0  0  0  0
   13.6129  -21.5023   24.7682 C   0  0  0  0  0  0  0  0  0  0  0  0
   14.3949  -21.9568   23.5323 C   0  0  0  0  0  0  0  0  0  0  0  0
   14.9633  -23.3337   23.6892 C   0  0  0  0  0  0  0  0  0  0  0  0
   15.7736  -23.7589   22.5743 N   0  0  0  0  0  0  0  0  0  0  0  0
   13.1880  -19.8800   27.0147 C   0  0  0  0  0  0  0  0  0  0  0  0
   13.5201  -21.0027   27.4577 O   0  0  0  0  0  0  0  0  0  0  0  0
   13.6881  -18.7896   27.7124 O   0  0  0  0  0  0  0  0  0  0  0  0
  2  1  1  1
  3  2  1  0
  3  4  1  0
  4  9  2  0
  4  5  1  0
  5  6  2  0
  6  7  1  0
  8  7  2  0
  9  8  1  0
 10  2  1  0
 11 10  2  0
 12 13  1  0
 13 14  1  0
 15 14  1  0
 16 15  1  1
 16 17  1  0
 17 10  1  0
 18 16  1  0
 18 20  1  0
 19 18  2  0
 21 20  1  0
 21 27  1  0
 21 22  1  6
 23 22  1  0
 24 23  1  0
 25 24  1  0
 26 25  1  0
 27 29  1  0
 28 27  2  0
M  END
$$$$
