SGV.pdb
     RDKit          3D

 18 17  0  0  1  0  0  0  0  0999 V2000
   23.3574  -19.0212  -16.0384 O   0  0  0  0  0  0  0  0  0  0  0  0
   24.0568  -20.2045  -16.2364 C   0  0  0  0  0  0  0  0  0  0  0  0
   24.0319  -21.0364  -14.9701 C   0  0  2  0  0  0  0  0  0  0  0  0
   22.6853  -21.0912  -14.4706 N   0  0  0  0  0  0  0  0  0  0  0  0
   24.9354  -20.3345  -13.9910 C   0  0  0  0  0  0  0  0  0  0  0  0
   24.8472  -19.0856  -13.8803 O   0  0  0  0  0  0  0  0  0  0  0  0
   25.8653  -21.0498  -13.2086 N   0  0  0  0  0  0  0  0  0  0  0  0
   26.7422  -20.4512  -12.2355 C   0  0  0  0  0  0  0  0  0  0  0  0
   26.5273  -21.0416  -10.9031 C   0  0  0  0  0  0  0  0  0  0  0  0
   26.1384  -22.2579  -10.9037 O   0  0  0  0  0  0  0  0  0  0  0  0
   28.7466  -20.5199   -7.5026 C   0  0  0  0  0  0  0  0  0  0  0  0
   27.2470  -20.3155   -7.2985 C   0  0  1  0  0  0  0  0  0  0  0  0
   26.8884  -18.8696   -7.1982 C   0  0  0  0  0  0  0  0  0  0  0  0
   26.4617  -21.0240   -8.4111 C   0  0  2  0  0  0  0  0  0  0  0  0
   26.7266  -20.3547   -9.6929 N   0  0  0  0  0  0  0  0  0  0  0  0
   25.0300  -20.8249   -8.0958 C   0  0  0  0  0  0  0  0  0  0  0  0
   24.4017  -19.9393   -8.7163 O   0  0  0  0  0  0  0  0  0  0  0  0
   24.3538  -21.5688   -7.1502 O   0  0  0  0  0  0  0  0  0  0  0  0
  1  2  1  0
  3  2  1  0
  3  5  1  0
  3  4  1  1
  5  7  1  0
  6  5  2  0
  7  8  1  0
  9 10  2  0
  9  8  1  0
 12 11  1  6
 13 12  1  0
 14 12  1  0
 14 16  1  0
 14 15  1  6
 15  9  1  0
 16 18  1  0
 17 16  2  0
M  END
$$$$
