SGV.pdb
     RDKit          3D

 18 17  0  0  1  0  0  0  0  0999 V2000
   14.8452  -14.0773  -14.5119 O   0  0  0  0  0  0  0  0  0  0  0  0
   16.0719  -13.4917  -14.7966 C   0  0  0  0  0  0  0  0  0  0  0  0
   16.3162  -13.5074  -16.2920 C   0  0  2  0  0  0  0  0  0  0  0  0
   16.4893  -14.8668  -16.7252 N   0  0  0  0  0  0  0  0  0  0  0  0
   17.5743  -12.7115  -16.5183 C   0  0  0  0  0  0  0  0  0  0  0  0
   18.6740  -13.3195  -16.5438 O   0  0  0  0  0  0  0  0  0  0  0  0
   17.5350  -11.3135  -16.6993 N   0  0  0  0  0  0  0  0  0  0  0  0
   18.6796  -10.5015  -17.0229 C   0  0  0  0  0  0  0  0  0  0  0  0
   19.4027  -10.1050  -15.8024 C   0  0  0  0  0  0  0  0  0  0  0  0
   18.8709  -10.4883  -14.7066 O   0  0  0  0  0  0  0  0  0  0  0  0
   22.8158  -11.1097  -14.6954 C   0  0  0  0  0  0  0  0  0  0  0  0
   22.7597   -9.5838  -14.6678 C   0  0  1  0  0  0  0  0  0  0  0  0
   23.4345   -8.9780  -15.8540 C   0  0  0  0  0  0  0  0  0  0  0  0
   21.3051   -9.1116  -14.5339 C   0  0  2  0  0  0  0  0  0  0  0  0
   20.5961   -9.3620  -15.7972 N   0  0  0  0  0  0  0  0  0  0  0  0
   21.3638   -7.6458  -14.3426 C   0  0  0  0  0  0  0  0  0  0  0  0
   21.1755   -6.9083  -15.3350 O   0  0  0  0  0  0  0  0  0  0  0  0
   21.6162   -7.0523  -13.1224 O   0  0  0  0  0  0  0  0  0  0  0  0
  1  2  1  0
  3  2  1  0
  3  5  1  0
  3  4  1  1
  5  7  1  0
  6  5  2  0
  7  8  1  0
  9 10  2  0
  9  8  1  0
 12 11  1  6
 13 12  1  0
 14 12  1  0
 14 16  1  0
 14 15  1  6
 15  9  1  0
 16 18  1  0
 17 16  2  0
M  END
$$$$
