SGV.pdb
     RDKit          3D

 18 17  0  0  1  0  0  0  0  0999 V2000
   18.5960  -12.4768  -18.3647 O   0  0  0  0  0  0  0  0  0  0  0  0
   19.5213  -11.7976  -17.5829 C   0  0  0  0  0  0  0  0  0  0  0  0
   20.9051  -11.9357  -18.1847 C   0  0  2  0  0  0  0  0  0  0  0  0
   21.2449  -13.3299  -18.2658 N   0  0  0  0  0  0  0  0  0  0  0  0
   21.8405  -11.2125  -17.2521 C   0  0  0  0  0  0  0  0  0  0  0  0
   22.8412  -11.8289  -16.8069 O   0  0  0  0  0  0  0  0  0  0  0  0
   21.6113   -9.8724  -16.8776 N   0  0  0  0  0  0  0  0  0  0  0  0
   22.5341   -9.0701  -16.1166 C   0  0  0  0  0  0  0  0  0  0  0  0
   21.9995   -7.7137  -15.9067 C   0  0  0  0  0  0  0  0  0  0  0  0
   21.3471   -7.2280  -16.8911 O   0  0  0  0  0  0  0  0  0  0  0  0
   19.1454   -7.1487  -14.6360 C   0  0  0  0  0  0  0  0  0  0  0  0
   20.0367   -6.3535  -13.6845 C   0  0  1  0  0  0  0  0  0  0  0  0
   20.4024   -7.1423  -12.4706 C   0  0  0  0  0  0  0  0  0  0  0  0
   21.2774   -5.8404  -14.4287 C   0  0  2  0  0  0  0  0  0  0  0  0
   22.1678   -6.9723  -14.7242 N   0  0  0  0  0  0  0  0  0  0  0  0
   21.9886   -4.9537  -13.4816 C   0  0  0  0  0  0  0  0  0  0  0  0
   21.5803   -3.7796  -13.3450 O   0  0  0  0  0  0  0  0  0  0  0  0
   23.0806   -5.3591  -12.7414 O   0  0  0  0  0  0  0  0  0  0  0  0
  1  2  1  0
  3  2  1  0
  3  5  1  0
  3  4  1  1
  5  7  1  0
  6  5  2  0
  7  8  1  0
  9 10  2  0
  9  8  1  0
 12 11  1  6
 13 12  1  0
 14 12  1  0
 14 16  1  0
 14 15  1  1
 15  9  1  0
 16 18  1  0
 17 16  2  0
M  END
$$$$
