SGV.pdb
     RDKit          3D

 18 17  0  0  1  0  0  0  0  0999 V2000
   17.3210  -13.8018  -17.5128 O   0  0  0  0  0  0  0  0  0  0  0  0
   17.1206  -12.4778  -17.1448 C   0  0  0  0  0  0  0  0  0  0  0  0
   17.9131  -12.1652  -15.8916 C   0  0  2  0  0  0  0  0  0  0  0  0
   17.3281  -12.8631  -14.7797 N   0  0  0  0  0  0  0  0  0  0  0  0
   17.8158  -10.6751  -15.6965 C   0  0  0  0  0  0  0  0  0  0  0  0
   16.6990  -10.1200  -15.8518 O   0  0  0  0  0  0  0  0  0  0  0  0
   18.9450   -9.9062  -15.3468 N   0  0  0  0  0  0  0  0  0  0  0  0
   18.9197   -8.4876  -15.0998 C   0  0  0  0  0  0  0  0  0  0  0  0
   20.2560   -7.9980  -14.7194 C   0  0  0  0  0  0  0  0  0  0  0  0
   21.1447   -8.9029  -14.5713 O   0  0  0  0  0  0  0  0  0  0  0  0
   22.6943   -6.6544  -16.6687 C   0  0  0  0  0  0  0  0  0  0  0  0
   22.5235   -5.5953  -15.5817 C   0  0  1  0  0  0  0  0  0  0  0  0
   21.6784   -4.4536  -16.0416 C   0  0  0  0  0  0  0  0  0  0  0  0
   21.9707   -6.2373  -14.3016 C   0  0  2  0  0  0  0  0  0  0  0  0
   20.5755   -6.6427  -14.5264 N   0  0  0  0  0  0  0  0  0  0  0  0
   21.9616   -5.1705  -13.2765 C   0  0  0  0  0  0  0  0  0  0  0  0
   20.9005   -4.5363  -13.0873 O   0  0  0  0  0  0  0  0  0  0  0  0
   23.0671   -4.8411  -12.5188 O   0  0  0  0  0  0  0  0  0  0  0  0
  1  2  1  0
  3  2  1  0
  3  5  1  0
  3  4  1  1
  5  7  1  0
  6  5  2  0
  7  8  1  0
  9 10  2  0
  9  8  1  0
 12 11  1  6
 13 12  1  0
 14 12  1  0
 14 16  1  0
 14 15  1  6
 15  9  1  0
 16 18  1  0
 17 16  2  0
M  END
$$$$
