SGV.pdb
     RDKit          3D

 18 17  0  0  1  0  0  0  0  0999 V2000
   15.0591  -12.7836  -14.2961 O   0  0  0  0  0  0  0  0  0  0  0  0
   15.2161  -11.4881  -14.7709 C   0  0  0  0  0  0  0  0  0  0  0  0
   15.9556  -11.5095  -16.0933 C   0  0  2  0  0  0  0  0  0  0  0  0
   16.9508  -12.5459  -16.0580 N   0  0  0  0  0  0  0  0  0  0  0  0
   16.6004  -10.1559  -16.2336 C   0  0  0  0  0  0  0  0  0  0  0  0
   15.8716   -9.1337  -16.1738 O   0  0  0  0  0  0  0  0  0  0  0  0
   17.9907  -10.0226  -16.4283 N   0  0  0  0  0  0  0  0  0  0  0  0
   18.6702   -8.7668  -16.6160 C   0  0  0  0  0  0  0  0  0  0  0  0
   19.4076   -8.3831  -15.3999 C   0  0  0  0  0  0  0  0  0  0  0  0
   18.8655   -8.7397  -14.3001 O   0  0  0  0  0  0  0  0  0  0  0  0
   22.0603   -9.9139  -13.9086 C   0  0  0  0  0  0  0  0  0  0  0  0
   22.5631   -8.4910  -14.1432 C   0  0  1  0  0  0  0  0  0  0  0  0
   23.3862   -8.3866  -15.3846 C   0  0  0  0  0  0  0  0  0  0  0  0
   21.3829   -7.5095  -14.1549 C   0  0  2  0  0  0  0  0  0  0  0  0
   20.6242   -7.6788  -15.4027 N   0  0  0  0  0  0  0  0  0  0  0  0
   21.9747   -6.1538  -14.1775 C   0  0  0  0  0  0  0  0  0  0  0  0
   22.0055   -5.5361  -15.2645 O   0  0  0  0  0  0  0  0  0  0  0  0
   22.4946   -5.5373  -13.0574 O   0  0  0  0  0  0  0  0  0  0  0  0
  1  2  1  0
  3  2  1  0
  3  5  1  0
  3  4  1  1
  5  7  1  0
  6  5  2  0
  7  8  1  0
  9 10  2  0
  9  8  1  0
 12 11  1  6
 13 12  1  0
 14 12  1  0
 14 16  1  0
 14 15  1  6
 15  9  1  0
 16 18  1  0
 17 16  2  0
M  END
$$$$
