SGV.pdb
     RDKit          3D

 18 17  0  0  1  0  0  0  0  0999 V2000
   26.0727  -20.5386  -20.3677 O   0  0  0  0  0  0  0  0  0  0  0  0
   25.8563  -19.2703  -19.8451 C   0  0  0  0  0  0  0  0  0  0  0  0
   25.6141  -19.3621  -18.3521 C   0  0  2  0  0  0  0  0  0  0  0  0
   25.2809  -18.0576  -17.8492 N   0  0  0  0  0  0  0  0  0  0  0  0
   26.9039  -19.8524  -17.7489 C   0  0  0  0  0  0  0  0  0  0  0  0
   27.9299  -19.1349  -17.8584 O   0  0  0  0  0  0  0  0  0  0  0  0
   26.9741  -21.0880  -17.0728 N   0  0  0  0  0  0  0  0  0  0  0  0
   28.1717  -21.6255  -16.4804 C   0  0  0  0  0  0  0  0  0  0  0  0
   28.6875  -22.7544  -17.2736 C   0  0  0  0  0  0  0  0  0  0  0  0
   28.0322  -23.0154  -18.3380 O   0  0  0  0  0  0  0  0  0  0  0  0
   32.6719  -23.8521  -17.9271 C   0  0  0  0  0  0  0  0  0  0  0  0
   31.7295  -24.9547  -17.4491 C   0  0  1  0  0  0  0  0  0  0  0  0
   31.8934  -25.2375  -15.9922 C   0  0  0  0  0  0  0  0  0  0  0  0
   30.2788  -24.5990  -17.8033 C   0  0  2  0  0  0  0  0  0  0  0  0
   29.8173  -23.5146  -16.9243 N   0  0  0  0  0  0  0  0  0  0  0  0
   29.4717  -25.7981  -17.4875 C   0  0  0  0  0  0  0  0  0  0  0  0
   28.9844  -25.9020  -16.3404 O   0  0  0  0  0  0  0  0  0  0  0  0
   29.2304  -26.8077  -18.3970 O   0  0  0  0  0  0  0  0  0  0  0  0
  1  2  1  0
  3  2  1  0
  3  5  1  0
  3  4  1  1
  5  7  1  0
  6  5  2  0
  7  8  1  0
  9 10  2  0
  9  8  1  0
 12 11  1  1
 13 12  1  0
 14 12  1  0
 14 16  1  0
 14 15  1  1
 15  9  1  0
 16 18  1  0
 17 16  2  0
M  END
$$$$
