SGV.pdb
     RDKit          3D

 18 17  0  0  1  0  0  0  0  0999 V2000
   18.4940  -12.2431  -18.6431 O   0  0  0  0  0  0  0  0  0  0  0  0
   18.9498  -12.6723  -17.4035 C   0  0  0  0  0  0  0  0  0  0  0  0
   18.0815  -12.0921  -16.3055 C   0  0  2  0  0  0  0  0  0  0  0  0
   16.7425  -12.5934  -16.4515 N   0  0  0  0  0  0  0  0  0  0  0  0
   18.1147  -10.5982  -16.4920 C   0  0  0  0  0  0  0  0  0  0  0  0
   17.2403  -10.0635  -17.2194 O   0  0  0  0  0  0  0  0  0  0  0  0
   19.0997   -9.8033  -15.8701 N   0  0  0  0  0  0  0  0  0  0  0  0
   19.2262   -8.3792  -16.0437 C   0  0  0  0  0  0  0  0  0  0  0  0
   20.3057   -7.8421  -15.1974 C   0  0  0  0  0  0  0  0  0  0  0  0
   20.7230   -8.6300  -14.2833 O   0  0  0  0  0  0  0  0  0  0  0  0
   23.6957   -7.4040  -16.0316 C   0  0  0  0  0  0  0  0  0  0  0  0
   23.2541   -6.0323  -15.5257 C   0  0  1  0  0  0  0  0  0  0  0  0
   22.9618   -5.0906  -16.6469 C   0  0  0  0  0  0  0  0  0  0  0  0
   22.0572   -6.1804  -14.5760 C   0  0  2  0  0  0  0  0  0  0  0  0
   20.8680   -6.5629  -15.3512 N   0  0  0  0  0  0  0  0  0  0  0  0
   21.8062   -4.8341  -14.0164 C   0  0  0  0  0  0  0  0  0  0  0  0
   20.9617   -4.1036  -14.5796 O   0  0  0  0  0  0  0  0  0  0  0  0
   22.4587   -4.3448  -12.9030 O   0  0  0  0  0  0  0  0  0  0  0  0
  1  2  1  0
  3  2  1  0
  3  5  1  0
  3  4  1  6
  5  7  1  0
  6  5  2  0
  7  8  1  0
  9 10  2  0
  9  8  1  0
 12 11  1  6
 13 12  1  0
 14 12  1  0
 14 16  1  0
 14 15  1  6
 15  9  1  0
 16 18  1  0
 17 16  2  0
M  END
$$$$
