SGV.pdb
     RDKit          3D

 18 17  0  0  1  0  0  0  0  0999 V2000
   14.5850   -9.6661  -18.1778 O   0  0  0  0  0  0  0  0  0  0  0  0
   14.5119  -10.6834  -19.1204 C   0  0  0  0  0  0  0  0  0  0  0  0
   15.5523  -11.7427  -18.8177 C   0  0  2  0  0  0  0  0  0  0  0  0
   15.3648  -12.2144  -17.4731 N   0  0  0  0  0  0  0  0  0  0  0  0
   16.8906  -11.0680  -18.9642 C   0  0  0  0  0  0  0  0  0  0  0  0
   17.2514  -10.6898  -20.1072 O   0  0  0  0  0  0  0  0  0  0  0  0
   17.7316  -10.8583  -17.8518 N   0  0  0  0  0  0  0  0  0  0  0  0
   18.9998  -10.1779  -17.9064 C   0  0  0  0  0  0  0  0  0  0  0  0
   19.5826  -10.0470  -16.5598 C   0  0  0  0  0  0  0  0  0  0  0  0
   18.8148  -10.3912  -15.5993 O   0  0  0  0  0  0  0  0  0  0  0  0
   23.4559  -10.1891  -13.5721 C   0  0  0  0  0  0  0  0  0  0  0  0
   22.8535  -10.1905  -14.9755 C   0  0  1  0  0  0  0  0  0  0  0  0
   22.8966  -11.5456  -15.6009 C   0  0  0  0  0  0  0  0  0  0  0  0
   21.4279   -9.6224  -14.9383 C   0  0  2  0  0  0  0  0  0  0  0  0
   20.8854   -9.5850  -16.3042 N   0  0  0  0  0  0  0  0  0  0  0  0
   21.5539   -8.2234  -14.4740 C   0  0  0  0  0  0  0  0  0  0  0  0
   21.9340   -7.3570  -15.2920 O   0  0  0  0  0  0  0  0  0  0  0  0
   21.2725   -7.8275  -13.1821 O   0  0  0  0  0  0  0  0  0  0  0  0
  1  2  1  0
  3  2  1  0
  3  5  1  0
  3  4  1  1
  5  7  1  0
  6  5  2  0
  7  8  1  0
  9 10  2  0
  9  8  1  0
 12 11  1  1
 13 12  1  0
 14 12  1  0
 14 16  1  0
 14 15  1  6
 15  9  1  0
 16 18  1  0
 17 16  2  0
M  END
$$$$
