SGV.pdb
     RDKit          3D

 18 17  0  0  1  0  0  0  0  0999 V2000
   19.7146  -13.3027  -21.1842 O   0  0  0  0  0  0  0  0  0  0  0  0
   20.6790  -14.2921  -21.0435 C   0  0  0  0  0  0  0  0  0  0  0  0
   21.2378  -14.2711  -19.6351 C   0  0  2  0  0  0  0  0  0  0  0  0
   20.1528  -14.3717  -18.6978 N   0  0  0  0  0  0  0  0  0  0  0  0
   21.9492  -12.9521  -19.4873 C   0  0  0  0  0  0  0  0  0  0  0  0
   22.9902  -12.7515  -20.1624 O   0  0  0  0  0  0  0  0  0  0  0  0
   21.4695  -11.9540  -18.6141 N   0  0  0  0  0  0  0  0  0  0  0  0
   22.0505  -10.6433  -18.4777 C   0  0  0  0  0  0  0  0  0  0  0  0
   21.3272   -9.8521  -17.4674 C   0  0  0  0  0  0  0  0  0  0  0  0
   20.0804   -9.6924  -17.6923 O   0  0  0  0  0  0  0  0  0  0  0  0
   20.3555  -10.7127  -14.1366 C   0  0  0  0  0  0  0  0  0  0  0  0
   21.1532   -9.4176  -13.9992 C   0  0  1  0  0  0  0  0  0  0  0  0
   22.5578   -9.6701  -13.5601 C   0  0  0  0  0  0  0  0  0  0  0  0
   21.0979   -8.6223  -15.3110 C   0  0  2  0  0  0  0  0  0  0  0  0
   21.9246   -9.2972  -16.3222 N   0  0  0  0  0  0  0  0  0  0  0  0
   21.7276   -7.3141  -15.0265 C   0  0  0  0  0  0  0  0  0  0  0  0
   21.0803   -6.4739  -14.3637 O   0  0  0  0  0  0  0  0  0  0  0  0
   22.9944   -6.9755  -15.4567 O   0  0  0  0  0  0  0  0  0  0  0  0
  1  2  1  0
  3  2  1  0
  3  5  1  0
  3  4  1  1
  5  7  1  0
  6  5  2  0
  7  8  1  0
  9 10  2  0
  9  8  1  0
 12 11  1  6
 13 12  1  0
 14 12  1  0
 14 16  1  0
 14 15  1  6
 15  9  1  0
 16 18  1  0
 17 16  2  0
M  END
$$$$
