SGV.pdb
     RDKit          3D

 18 17  0  0  1  0  0  0  0  0999 V2000
   25.1800  -19.3747  -15.6664 O   0  0  0  0  0  0  0  0  0  0  0  0
   26.5648  -19.4756  -15.6373 C   0  0  0  0  0  0  0  0  0  0  0  0
   27.1345  -18.4724  -14.6549 C   0  0  2  0  0  0  0  0  0  0  0  0
   26.5212  -18.6725  -13.3706 N   0  0  0  0  0  0  0  0  0  0  0  0
   26.7936  -17.1116  -15.2022 C   0  0  0  0  0  0  0  0  0  0  0  0
   27.3160  -16.7518  -16.2872 O   0  0  0  0  0  0  0  0  0  0  0  0
   25.9089  -16.2486  -14.5229 N   0  0  0  0  0  0  0  0  0  0  0  0
   25.5289  -14.9401  -14.9893 C   0  0  0  0  0  0  0  0  0  0  0  0
   24.4549  -15.0331  -15.9932 C   0  0  0  0  0  0  0  0  0  0  0  0
   24.5482  -16.0188  -16.7995 O   0  0  0  0  0  0  0  0  0  0  0  0
   21.0368  -15.9520  -15.5076 C   0  0  0  0  0  0  0  0  0  0  0  0
   20.9853  -14.6082  -16.2314 C   0  0  1  0  0  0  0  0  0  0  0  0
   20.7074  -13.4791  -15.2948 C   0  0  0  0  0  0  0  0  0  0  0  0
   22.2799  -14.3871  -17.0262 C   0  0  2  0  0  0  0  0  0  0  0  0
   23.3842  -14.1274  -16.0910 N   0  0  0  0  0  0  0  0  0  0  0  0
   22.0718  -13.1548  -17.8180 C   0  0  0  0  0  0  0  0  0  0  0  0
   21.3389  -13.2143  -18.8296 O   0  0  0  0  0  0  0  0  0  0  0  0
   22.6472  -11.9426  -17.4949 O   0  0  0  0  0  0  0  0  0  0  0  0
  1  2  1  0
  3  2  1  0
  3  5  1  0
  3  4  1  1
  5  7  1  0
  6  5  2  0
  7  8  1  0
  9 10  2  0
  9  8  1  0
 12 11  1  1
 13 12  1  0
 14 12  1  0
 14 16  1  0
 14 15  1  1
 15  9  1  0
 16 18  1  0
 17 16  2  0
M  END
$$$$
