SGV.pdb
     RDKit          3D

 18 17  0  0  1  0  0  0  0  0999 V2000
   15.1502  -12.2023  -16.1107 O   0  0  0  0  0  0  0  0  0  0  0  0
   15.2069  -10.8652  -15.7397 C   0  0  0  0  0  0  0  0  0  0  0  0
   16.2746  -10.1517  -16.5441 C   0  0  2  0  0  0  0  0  0  0  0  0
   17.4943  -10.9094  -16.4819 N   0  0  0  0  0  0  0  0  0  0  0  0
   16.4519   -8.8024  -15.8992 C   0  0  0  0  0  0  0  0  0  0  0  0
   15.4775   -8.0086  -15.8882 O   0  0  0  0  0  0  0  0  0  0  0  0
   17.6789   -8.4239  -15.3162 N   0  0  0  0  0  0  0  0  0  0  0  0
   17.8883   -7.2052  -14.5780 C   0  0  0  0  0  0  0  0  0  0  0  0
   19.2599   -7.1450  -14.0441 C   0  0  0  0  0  0  0  0  0  0  0  0
   19.7878   -8.2756  -13.7727 O   0  0  0  0  0  0  0  0  0  0  0  0
   21.8823   -7.5676  -15.4995 C   0  0  0  0  0  0  0  0  0  0  0  0
   22.1521   -6.1728  -14.9391 C   0  0  1  0  0  0  0  0  0  0  0  0
   21.7952   -5.0999  -15.9142 C   0  0  0  0  0  0  0  0  0  0  0  0
   21.4254   -5.9930  -13.5989 C   0  0  2  0  0  0  0  0  0  0  0  0
   19.9750   -5.9528  -13.8357 N   0  0  0  0  0  0  0  0  0  0  0  0
   21.8271   -4.6641  -13.0875 C   0  0  0  0  0  0  0  0  0  0  0  0
   21.0655   -3.6932  -13.2911 O   0  0  0  0  0  0  0  0  0  0  0  0
   23.0013   -4.4435  -12.3966 O   0  0  0  0  0  0  0  0  0  0  0  0
  1  2  1  0
  3  2  1  0
  3  5  1  0
  3  4  1  1
  5  7  1  0
  6  5  2  0
  7  8  1  0
  9 10  2  0
  9  8  1  0
 12 11  1  6
 13 12  1  0
 14 12  1  0
 14 16  1  0
 14 15  1  6
 15  9  1  0
 16 18  1  0
 17 16  2  0
M  END
$$$$
