SGV.pdb
     RDKit          3D

 18 17  0  0  1  0  0  0  0  0999 V2000
   22.4705  -15.3446  -18.9105 O   0  0  0  0  0  0  0  0  0  0  0  0
   22.6712  -14.4927  -17.8323 C   0  0  0  0  0  0  0  0  0  0  0  0
   24.0990  -14.6128  -17.3389 C   0  0  2  0  0  0  0  0  0  0  0  0
   24.9896  -14.5820  -18.4665 N   0  0  0  0  0  0  0  0  0  0  0  0
   24.1853  -15.9372  -16.6274 C   0  0  0  0  0  0  0  0  0  0  0  0
   23.7982  -16.9699  -17.2301 O   0  0  0  0  0  0  0  0  0  0  0  0
   24.6874  -16.0320  -15.3130 N   0  0  0  0  0  0  0  0  0  0  0  0
   24.7085  -17.2435  -14.5346 C   0  0  0  0  0  0  0  0  0  0  0  0
   25.9550  -17.9935  -14.7660 C   0  0  0  0  0  0  0  0  0  0  0  0
   26.9853  -17.2765  -15.0006 O   0  0  0  0  0  0  0  0  0  0  0  0
   27.7717  -19.0609  -12.2732 C   0  0  0  0  0  0  0  0  0  0  0  0
   27.5533  -20.3545  -13.0550 C   0  0  1  0  0  0  0  0  0  0  0  0
   26.4243  -21.1590  -12.5004 C   0  0  0  0  0  0  0  0  0  0  0  0
   27.3564  -20.0435  -14.5453 C   0  0  2  0  0  0  0  0  0  0  0  0
   26.0506  -19.3957  -14.7368 N   0  0  0  0  0  0  0  0  0  0  0  0
   27.3070  -21.3509  -15.2360 C   0  0  0  0  0  0  0  0  0  0  0  0
   26.1934  -21.8964  -15.3982 O   0  0  0  0  0  0  0  0  0  0  0  0
   28.4301  -21.9981  -15.7101 O   0  0  0  0  0  0  0  0  0  0  0  0
  1  2  1  0
  3  2  1  0
  3  5  1  0
  3  4  1  6
  5  7  1  0
  6  5  2  0
  7  8  1  0
  9 10  2  0
  9  8  1  0
 12 11  1  1
 13 12  1  0
 14 12  1  0
 14 16  1  0
 14 15  1  1
 15  9  1  0
 16 18  1  0
 17 16  2  0
M  END
$$$$
