SGV.pdb
     RDKit          3D

 18 17  0  0  1  0  0  0  0  0999 V2000
   15.6271  -15.8896  -14.0288 O   0  0  0  0  0  0  0  0  0  0  0  0
   16.3831  -15.2996  -15.0333 C   0  0  0  0  0  0  0  0  0  0  0  0
   15.7830  -13.9605  -15.4114 C   0  0  2  0  0  0  0  0  0  0  0  0
   14.6489  -14.1788  -16.2669 N   0  0  0  0  0  0  0  0  0  0  0  0
   16.8646  -13.2090  -16.1416 C   0  0  0  0  0  0  0  0  0  0  0  0
   17.0182  -13.4197  -17.3710 O   0  0  0  0  0  0  0  0  0  0  0  0
   17.6950  -12.2857  -15.4733 N   0  0  0  0  0  0  0  0  0  0  0  0
   18.6781  -11.4565  -16.1217 C   0  0  0  0  0  0  0  0  0  0  0  0
   19.4365  -10.6718  -15.1322 C   0  0  0  0  0  0  0  0  0  0  0  0
   18.9715  -10.7009  -13.9433 O   0  0  0  0  0  0  0  0  0  0  0  0
   23.3403  -10.8356  -14.6312 C   0  0  0  0  0  0  0  0  0  0  0  0
   22.8650   -9.3853  -14.6870 C   0  0  1  0  0  0  0  0  0  0  0  0
   23.1728   -8.7463  -16.0008 C   0  0  0  0  0  0  0  0  0  0  0  0
   21.3697   -9.3067  -14.3487 C   0  0  2  0  0  0  0  0  0  0  0  0
   20.5948   -9.9329  -15.4298 N   0  0  0  0  0  0  0  0  0  0  0  0
   21.0257   -7.8678  -14.3341 C   0  0  0  0  0  0  0  0  0  0  0  0
   20.5845   -7.3510  -15.3839 O   0  0  0  0  0  0  0  0  0  0  0  0
   21.1679   -7.0681  -13.2183 O   0  0  0  0  0  0  0  0  0  0  0  0
  1  2  1  0
  3  2  1  0
  3  5  1  0
  3  4  1  6
  5  7  1  0
  6  5  2  0
  7  8  1  0
  9 10  2  0
  9  8  1  0
 12 11  1  6
 13 12  1  0
 14 12  1  0
 14 16  1  0
 14 15  1  6
 15  9  1  0
 16 18  1  0
 17 16  2  0
M  END
$$$$
