SGV.pdb
     RDKit          3D

 18 17  0  0  1  0  0  0  0  0999 V2000
   18.2279  -26.7216   -4.4401 O   0  0  0  0  0  0  0  0  0  0  0  0
   17.5304  -25.6604   -3.8781 C   0  0  0  0  0  0  0  0  0  0  0  0
   16.0766  -25.7167   -4.3018 C   0  0  2  0  0  0  0  0  0  0  0  0
   16.0069  -25.7614   -5.7366 N   0  0  0  0  0  0  0  0  0  0  0  0
   15.4389  -24.4579   -3.7760 C   0  0  0  0  0  0  0  0  0  0  0  0
   14.8884  -23.6766   -4.5922 O   0  0  0  0  0  0  0  0  0  0  0  0
   15.4514  -24.1491   -2.4001 N   0  0  0  0  0  0  0  0  0  0  0  0
   14.8259  -22.9888   -1.8200 C   0  0  0  0  0  0  0  0  0  0  0  0
   15.0117  -22.9687   -0.3588 C   0  0  0  0  0  0  0  0  0  0  0  0
   15.3469  -24.0854    0.1620 O   0  0  0  0  0  0  0  0  0  0  0  0
   16.4533  -20.6033    3.6594 C   0  0  0  0  0  0  0  0  0  0  0  0
   16.1481  -20.6650    2.1642 C   0  0  1  0  0  0  0  0  0  0  0  0
   17.3930  -20.6986    1.3405 C   0  0  0  0  0  0  0  0  0  0  0  0
   15.2296  -21.8573    1.8620 C   0  0  2  0  0  0  0  0  0  0  0  0
   14.8460  -21.8261    0.4432 N   0  0  0  0  0  0  0  0  0  0  0  0
   14.0007  -21.6426    2.6573 C   0  0  0  0  0  0  0  0  0  0  0  0
   13.1295  -20.8658    2.2081 O   0  0  0  0  0  0  0  0  0  0  0  0
   13.7686  -22.2577    3.8708 O   0  0  0  0  0  0  0  0  0  0  0  0
  1  2  1  0
  3  2  1  0
  3  5  1  0
  3  4  1  6
  5  7  1  0
  6  5  2  0
  7  8  1  0
  9 10  2  0
  9  8  1  0
 12 11  1  1
 13 12  1  0
 14 12  1  0
 14 16  1  0
 14 15  1  6
 15  9  1  0
 16 18  1  0
 17 16  2  0
M  END
$$$$
