LQK.pdb
     RDKit          3D

 27 26  0  0  1  0  0  0  0  0999 V2000
   29.0607  -20.5245   -5.7982 C   0  0  0  0  0  0  0  0  0  0  0  0
   27.6806  -20.1822   -6.3129 C   0  0  1  0  0  0  0  0  0  0  0  0
   27.2988  -18.7552   -6.0086 C   0  0  0  0  0  0  0  0  0  0  0  0
   27.6554  -20.3415   -7.8188 C   0  0  0  0  0  0  0  0  0  0  0  0
   26.2668  -20.0435   -8.2970 C   0  0  2  0  0  0  0  0  0  0  0  0
   25.2627  -20.9188   -7.7743 N   0  0  0  0  0  0  0  0  0  0  0  0
   26.2084  -20.0129   -9.7807 C   0  0  0  0  0  0  0  0  0  0  0  0
   26.9671  -19.2692  -10.4430 O   0  0  0  0  0  0  0  0  0  0  0  0
   25.9087  -22.0676  -15.1677 N   0  0  0  0  0  0  0  0  0  0  0  0
   27.1011  -22.0794  -14.4034 C   0  0  0  0  0  0  0  0  0  0  0  0
   28.2068  -21.9973  -14.9569 O   0  0  0  0  0  0  0  0  0  0  0  0
   26.9967  -22.1925  -12.9350 C   0  0  0  0  0  0  0  0  0  0  0  0
   25.6089  -22.1596  -12.4074 C   0  0  0  0  0  0  0  0  0  0  0  0
   25.1686  -20.7998  -11.9165 C   0  0  2  0  0  0  0  0  0  0  0  0
   25.2681  -20.8502  -10.4340 N   0  0  0  0  0  0  0  0  0  0  0  0
   23.7343  -20.6131  -12.1924 C   0  0  0  0  0  0  0  0  0  0  0  0
   22.8675  -21.0672  -11.3720 O   0  0  0  0  0  0  0  0  0  0  0  0
   23.2765  -19.9441  -13.3297 N   0  0  0  0  0  0  0  0  0  0  0  0
   21.8377  -19.7158  -13.5726 C   0  0  1  0  0  0  0  0  0  0  0  0
   21.7947  -18.6886  -14.6764 C   0  0  0  0  0  0  0  0  0  0  0  0
   20.4250  -18.3107  -15.1199 C   0  0  0  0  0  0  0  0  0  0  0  0
   20.4807  -17.2503  -16.1794 C   0  0  0  0  0  0  0  0  0  0  0  0
   19.0931  -16.7703  -16.5078 C   0  0  0  0  0  0  0  0  0  0  0  0
   19.1308  -15.7936  -17.5754 N   0  0  0  0  0  0  0  0  0  0  0  0
   21.1436  -20.9573  -13.9087 C   0  0  0  0  0  0  0  0  0  0  0  0
   21.7648  -21.9534  -14.6331 O   0  0  0  0  0  0  0  0  0  0  0  0
   19.9627  -21.1438  -13.5438 O   0  0  0  0  0  0  0  0  0  0  0  0
  2  4  1  0
  2  1  1  6
  3  2  1  0
  4  5  1  0
  5  6  1  6
  7  5  1  0
  8  7  2  0
 10  9  1  0
 10 12  1  0
 11 10  2  0
 13 12  1  0
 14 13  1  6
 14 15  1  0
 15  7  1  0
 16 18  1  0
 16 14  1  0
 17 16  2  0
 19 25  1  0
 19 18  1  0
 19 20  1  6
 20 21  1  0
 22 21  1  0
 23 22  1  0
 24 23  1  0
 25 26  1  0
 27 25  2  0
M  END
$$$$
