LQK.pdb
     RDKit          3D

 27 26  0  0  1  0  0  0  0  0999 V2000
   28.7871  -18.7701   -6.7301 C   0  0  0  0  0  0  0  0  0  0  0  0
   27.7644  -19.7827   -7.1943 C   0  0  1  0  0  0  0  0  0  0  0  0
   26.6050  -19.8988   -6.2366 C   0  0  0  0  0  0  0  0  0  0  0  0
   27.2001  -19.3463   -8.5303 C   0  0  0  0  0  0  0  0  0  0  0  0
   26.2507  -20.4044   -9.0045 C   0  0  2  0  0  0  0  0  0  0  0  0
   26.8219  -21.7136   -9.0902 N   0  0  0  0  0  0  0  0  0  0  0  0
   25.6294  -20.0228  -10.2984 C   0  0  0  0  0  0  0  0  0  0  0  0
   25.1225  -18.8901  -10.4637 O   0  0  0  0  0  0  0  0  0  0  0  0
   27.3824  -22.9080  -15.5452 N   0  0  0  0  0  0  0  0  0  0  0  0
   26.4503  -21.9723  -16.0570 C   0  0  0  0  0  0  0  0  0  0  0  0
   26.2950  -21.8399  -17.2794 O   0  0  0  0  0  0  0  0  0  0  0  0
   25.6703  -21.1594  -15.1028 C   0  0  0  0  0  0  0  0  0  0  0  0
   25.9503  -21.4432  -13.6723 C   0  0  0  0  0  0  0  0  0  0  0  0
   25.2093  -20.5445  -12.7095 C   0  0  2  0  0  0  0  0  0  0  0  0
   25.6233  -20.9764  -11.3485 N   0  0  0  0  0  0  0  0  0  0  0  0
   23.7664  -20.8311  -12.7737 C   0  0  0  0  0  0  0  0  0  0  0  0
   23.2939  -21.8435  -12.1554 O   0  0  0  0  0  0  0  0  0  0  0  0
   22.8790  -20.0246  -13.4899 N   0  0  0  0  0  0  0  0  0  0  0  0
   21.4256  -20.2864  -13.5025 C   0  0  1  0  0  0  0  0  0  0  0  0
   20.8350  -19.1270  -14.2656 C   0  0  0  0  0  0  0  0  0  0  0  0
   19.3496  -19.1386  -14.3611 C   0  0  0  0  0  0  0  0  0  0  0  0
   18.8526  -17.9291  -15.0959 C   0  0  0  0  0  0  0  0  0  0  0  0
   17.3482  -17.9142  -15.1151 C   0  0  0  0  0  0  0  0  0  0  0  0
   16.8592  -16.7967  -15.8942 N   0  0  0  0  0  0  0  0  0  0  0  0
   21.1168  -21.5869  -14.0938 C   0  0  0  0  0  0  0  0  0  0  0  0
   20.0870  -22.3681  -13.6120 O   0  0  0  0  0  0  0  0  0  0  0  0
   21.7853  -22.0219  -15.0563 O   0  0  0  0  0  0  0  0  0  0  0  0
  2  4  1  0
  2  1  1  1
  3  2  1  0
  4  5  1  0
  5  6  1  6
  7  5  1  0
  8  7  2  0
 10  9  1  0
 10 12  1  0
 11 10  2  0
 13 12  1  0
 14 13  1  6
 14 15  1  0
 15  7  1  0
 16 18  1  0
 16 14  1  0
 17 16  2  0
 19 25  1  0
 19 18  1  0
 19 20  1  6
 20 21  1  0
 22 21  1  0
 23 22  1  0
 24 23  1  0
 25 26  1  0
 27 25  2  0
M  END
$$$$
