LQK.pdb
     RDKit          3D

 27 26  0  0  1  0  0  0  0  0999 V2000
   18.4345  -13.4980  -16.1161 C   0  0  0  0  0  0  0  0  0  0  0  0
   17.4504  -12.4359  -15.6800 C   0  0  1  0  0  0  0  0  0  0  0  0
   16.1221  -13.0244  -15.2749 C   0  0  0  0  0  0  0  0  0  0  0  0
   18.0043  -11.7069  -14.4735 C   0  0  0  0  0  0  0  0  0  0  0  0
   17.0711  -10.5836  -14.1373 C   0  0  2  0  0  0  0  0  0  0  0  0
   16.6131   -9.8386  -15.2699 N   0  0  0  0  0  0  0  0  0  0  0  0
   17.6708   -9.6760  -13.1263 C   0  0  0  0  0  0  0  0  0  0  0  0
   18.1366  -10.1208  -12.0527 O   0  0  0  0  0  0  0  0  0  0  0  0
   21.3369   -5.1187  -14.5141 N   0  0  0  0  0  0  0  0  0  0  0  0
   21.1440   -4.8288  -13.1412 C   0  0  0  0  0  0  0  0  0  0  0  0
   21.8267   -3.9621  -12.5768 O   0  0  0  0  0  0  0  0  0  0  0  0
   20.1134   -5.5819  -12.3992 C   0  0  0  0  0  0  0  0  0  0  0  0
   19.3720   -6.5816  -13.2092 C   0  0  0  0  0  0  0  0  0  0  0  0
   18.3473   -7.3704  -12.4272 C   0  0  2  0  0  0  0  0  0  0  0  0
   17.7041   -8.2858  -13.4062 N   0  0  0  0  0  0  0  0  0  0  0  0
   17.2666   -6.4751  -11.9813 C   0  0  0  0  0  0  0  0  0  0  0  0
   16.4671   -5.9713  -12.8400 O   0  0  0  0  0  0  0  0  0  0  0  0
   17.0742   -6.1543  -10.6357 N   0  0  0  0  0  0  0  0  0  0  0  0
   16.1110   -5.1178  -10.2123 C   0  0  1  0  0  0  0  0  0  0  0  0
   15.2539   -5.7946   -9.1717 C   0  0  0  0  0  0  0  0  0  0  0  0
   14.0004   -6.4005   -9.6982 C   0  0  0  0  0  0  0  0  0  0  0  0
   13.2137   -7.0431   -8.5945 C   0  0  0  0  0  0  0  0  0  0  0  0
   11.9952   -7.7256   -9.1539 C   0  0  0  0  0  0  0  0  0  0  0  0
   11.1850   -8.2764   -8.0885 N   0  0  0  0  0  0  0  0  0  0  0  0
   16.7890   -3.9218   -9.7161 C   0  0  0  0  0  0  0  0  0  0  0  0
   16.1241   -2.7197   -9.5911 O   0  0  0  0  0  0  0  0  0  0  0  0
   17.9955   -3.9638   -9.3922 O   0  0  0  0  0  0  0  0  0  0  0  0
  2  4  1  0
  2  1  1  1
  3  2  1  0
  4  5  1  0
  5  6  1  6
  7  5  1  0
  8  7  2  0
 10  9  1  0
 10 12  1  0
 11 10  2  0
 13 12  1  0
 14 13  1  6
 14 15  1  0
 15  7  1  0
 16 18  1  0
 16 14  1  0
 17 16  2  0
 19 25  1  0
 19 18  1  0
 19 20  1  1
 20 21  1  0
 22 21  1  0
 23 22  1  0
 24 23  1  0
 25 26  1  0
 27 25  2  0
M  END
$$$$
