LQK.pdb
     RDKit          3D

 27 26  0  0  1  0  0  0  0  0999 V2000
   20.8230  -20.3348  -11.3498 C   0  0  0  0  0  0  0  0  0  0  0  0
   21.6414  -20.6590  -12.5793 C   0  0  1  0  0  0  0  0  0  0  0  0
   20.8712  -21.4960  -13.5698 C   0  0  0  0  0  0  0  0  0  0  0  0
   22.0212  -19.3714  -13.2804 C   0  0  0  0  0  0  0  0  0  0  0  0
   22.6703  -19.7233  -14.5844 C   0  0  2  0  0  0  0  0  0  0  0  0
   23.9604  -20.3289  -14.4564 N   0  0  0  0  0  0  0  0  0  0  0  0
   22.7373  -18.5426  -15.4829 C   0  0  0  0  0  0  0  0  0  0  0  0
   21.7723  -17.7518  -15.5854 O   0  0  0  0  0  0  0  0  0  0  0  0
   26.7020  -16.4182  -14.5441 N   0  0  0  0  0  0  0  0  0  0  0  0
   27.1021  -17.5024  -15.3630 C   0  0  0  0  0  0  0  0  0  0  0  0
   28.0035  -18.2704  -14.9979 O   0  0  0  0  0  0  0  0  0  0  0  0
   26.4224  -17.6956  -16.6594 C   0  0  0  0  0  0  0  0  0  0  0  0
   25.4337  -16.6426  -17.0045 C   0  0  0  0  0  0  0  0  0  0  0  0
   24.0134  -17.1456  -17.1206 C   0  0  2  0  0  0  0  0  0  0  0  0
   23.9265  -18.3302  -16.2266 N   0  0  0  0  0  0  0  0  0  0  0  0
   23.7843  -17.6771  -18.4746 C   0  0  0  0  0  0  0  0  0  0  0  0
   24.2503  -18.8227  -18.7922 O   0  0  0  0  0  0  0  0  0  0  0  0
   23.0619  -16.9705  -19.4387 N   0  0  0  0  0  0  0  0  0  0  0  0
   22.7996  -17.5297  -20.7802 C   0  0  1  0  0  0  0  0  0  0  0  0
   21.6401  -16.7236  -21.3104 C   0  0  0  0  0  0  0  0  0  0  0  0
   21.1592  -17.1387  -22.6565 C   0  0  0  0  0  0  0  0  0  0  0  0
   20.0186  -16.2743  -23.1057 C   0  0  0  0  0  0  0  0  0  0  0  0
   19.5436  -16.7061  -24.4664 C   0  0  0  0  0  0  0  0  0  0  0  0
   18.4835  -15.8393  -24.9352 N   0  0  0  0  0  0  0  0  0  0  0  0
   23.9859  -17.4681  -21.6317 C   0  0  0  0  0  0  0  0  0  0  0  0
   24.1320  -18.3022  -22.7206 O   0  0  0  0  0  0  0  0  0  0  0  0
   24.9005  -16.6514  -21.3887 O   0  0  0  0  0  0  0  0  0  0  0  0
  2  4  1  0
  2  1  1  1
  3  2  1  0
  4  5  1  0
  5  6  1  1
  7  5  1  0
  8  7  2  0
 10  9  1  0
 10 12  1  0
 11 10  2  0
 13 12  1  0
 14 13  1  6
 14 15  1  0
 15  7  1  0
 16 18  1  0
 16 14  1  0
 17 16  2  0
 19 25  1  0
 19 18  1  0
 19 20  1  6
 20 21  1  0
 22 21  1  0
 23 22  1  0
 24 23  1  0
 25 26  1  0
 27 25  2  0
M  END
$$$$
