LQK.pdb
     RDKit          3D

 27 26  0  0  1  0  0  0  0  0999 V2000
   29.1370  -19.9199  -19.3461 C   0  0  0  0  0  0  0  0  0  0  0  0
   28.2327  -19.0644  -18.4877 C   0  0  1  0  0  0  0  0  0  0  0  0
   27.5306  -17.9976  -19.2901 C   0  0  0  0  0  0  0  0  0  0  0  0
   27.1612  -19.9366  -17.8673 C   0  0  0  0  0  0  0  0  0  0  0  0
   26.3162  -19.0766  -16.9771 C   0  0  2  0  0  0  0  0  0  0  0  0
   27.0525  -18.1168  -16.2129 N   0  0  0  0  0  0  0  0  0  0  0  0
   25.4635  -19.9055  -16.0875 C   0  0  0  0  0  0  0  0  0  0  0  0
   24.7845  -20.8541  -16.5418 O   0  0  0  0  0  0  0  0  0  0  0  0
   26.4378  -20.5116   -9.9362 N   0  0  0  0  0  0  0  0  0  0  0  0
   25.1017  -20.9723  -10.0292 C   0  0  0  0  0  0  0  0  0  0  0  0
   24.4920  -21.3493   -9.0184 O   0  0  0  0  0  0  0  0  0  0  0  0
   24.4537  -20.9940  -11.3556 C   0  0  0  0  0  0  0  0  0  0  0  0
   25.2038  -20.2863  -12.4242 C   0  0  0  0  0  0  0  0  0  0  0  0
   24.5913  -20.4206  -13.7992 C   0  0  2  0  0  0  0  0  0  0  0  0
   25.4357  -19.5961  -14.7034 N   0  0  0  0  0  0  0  0  0  0  0  0
   23.2702  -19.7706  -13.8196 C   0  0  0  0  0  0  0  0  0  0  0  0
   23.1822  -18.5097  -13.6378 O   0  0  0  0  0  0  0  0  0  0  0  0
   22.0919  -20.4875  -14.0389 N   0  0  0  0  0  0  0  0  0  0  0  0
   20.7657  -19.8392  -13.9919 C   0  0  1  0  0  0  0  0  0  0  0  0
   20.3511  -19.7119  -15.4367 C   0  0  0  0  0  0  0  0  0  0  0  0
   19.0343  -19.0512  -15.6488 C   0  0  0  0  0  0  0  0  0  0  0  0
   18.6958  -18.9923  -17.1090 C   0  0  0  0  0  0  0  0  0  0  0  0
   17.4577  -18.1646  -17.3226 C   0  0  0  0  0  0  0  0  0  0  0  0
   17.2016  -17.9858  -18.7359 N   0  0  0  0  0  0  0  0  0  0  0  0
   19.8194  -20.6045  -13.1826 C   0  0  0  0  0  0  0  0  0  0  0  0
   18.7419  -19.9972  -12.5720 O   0  0  0  0  0  0  0  0  0  0  0  0
   19.9683  -21.8357  -13.0257 O   0  0  0  0  0  0  0  0  0  0  0  0
  2  4  1  0
  2  1  1  6
  3  2  1  0
  4  5  1  0
  5  6  1  1
  7  5  1  0
  8  7  2  0
 10  9  1  0
 10 12  1  0
 11 10  2  0
 13 12  1  0
 14 13  1  1
 14 15  1  0
 15  7  1  0
 16 18  1  0
 16 14  1  0
 17 16  2  0
 19 25  1  0
 19 18  1  0
 19 20  1  6
 20 21  1  0
 22 21  1  0
 23 22  1  0
 24 23  1  0
 25 26  1  0
 27 25  2  0
M  END
$$$$
