LQK.pdb
     RDKit          3D

 27 26  0  0  1  0  0  0  0  0999 V2000
   27.0076  -20.1644  -19.8918 C   0  0  0  0  0  0  0  0  0  0  0  0
   27.5893  -20.5161  -18.5410 C   0  0  1  0  0  0  0  0  0  0  0  0
   28.2341  -19.3272  -17.8734 C   0  0  0  0  0  0  0  0  0  0  0  0
   26.4793  -20.9950  -17.6286 C   0  0  0  0  0  0  0  0  0  0  0  0
   27.0973  -21.4572  -16.3440 C   0  0  2  0  0  0  0  0  0  0  0  0
   27.9593  -22.5914  -16.4790 N   0  0  0  0  0  0  0  0  0  0  0  0
   26.0584  -21.7138  -15.3140 C   0  0  0  0  0  0  0  0  0  0  0  0
   25.3737  -22.7617  -15.3325 O   0  0  0  0  0  0  0  0  0  0  0  0
   26.1304  -21.8059   -9.8869 N   0  0  0  0  0  0  0  0  0  0  0  0
   24.8479  -21.2113   -9.7990 C   0  0  0  0  0  0  0  0  0  0  0  0
   24.0926  -21.4761   -8.8529 O   0  0  0  0  0  0  0  0  0  0  0  0
   24.4321  -20.2712  -10.8588 C   0  0  0  0  0  0  0  0  0  0  0  0
   25.3471  -20.2088  -12.0268 C   0  0  0  0  0  0  0  0  0  0  0  0
   24.8857  -21.0206  -13.2149 C   0  0  2  0  0  0  0  0  0  0  0  0
   25.8585  -20.7389  -14.3032 N   0  0  0  0  0  0  0  0  0  0  0  0
   23.6032  -20.4922  -13.7090 C   0  0  0  0  0  0  0  0  0  0  0  0
   23.5506  -19.3144  -14.1995 O   0  0  0  0  0  0  0  0  0  0  0  0
   22.4248  -21.2408  -13.6676 N   0  0  0  0  0  0  0  0  0  0  0  0
   21.1346  -20.6883  -14.1274 C   0  0  1  0  0  0  0  0  0  0  0  0
   20.5404  -21.7729  -14.9911 C   0  0  0  0  0  0  0  0  0  0  0  0
   19.1754  -21.4783  -15.5064 C   0  0  0  0  0  0  0  0  0  0  0  0
   18.6885  -22.5868  -16.3919 C   0  0  0  0  0  0  0  0  0  0  0  0
   17.3935  -22.1954  -17.0503 C   0  0  0  0  0  0  0  0  0  0  0  0
   17.0402  -23.1443  -18.0846 N   0  0  0  0  0  0  0  0  0  0  0  0
   20.2798  -20.3080  -13.0046 C   0  0  0  0  0  0  0  0  0  0  0  0
   19.2961  -19.3509  -13.1434 O   0  0  0  0  0  0  0  0  0  0  0  0
   20.4237  -20.8466  -11.8857 O   0  0  0  0  0  0  0  0  0  0  0  0
  2  4  1  0
  2  1  1  6
  3  2  1  0
  4  5  1  0
  5  6  1  6
  7  5  1  0
  8  7  2  0
 10  9  1  0
 10 12  1  0
 11 10  2  0
 13 12  1  0
 14 13  1  1
 14 15  1  0
 15  7  1  0
 16 18  1  0
 16 14  1  0
 17 16  2  0
 19 25  1  0
 19 18  1  0
 19 20  1  1
 20 21  1  0
 22 21  1  0
 23 22  1  0
 24 23  1  0
 25 26  1  0
 27 25  2  0
M  END
$$$$
