LQK.pdb
     RDKit          3D

 27 26  0  0  1  0  0  0  0  0999 V2000
   29.4026  -18.4202  -18.5132 C   0  0  0  0  0  0  0  0  0  0  0  0
   28.2692  -17.8808  -17.6700 C   0  0  1  0  0  0  0  0  0  0  0  0
   27.2223  -17.1852  -18.5036 C   0  0  0  0  0  0  0  0  0  0  0  0
   27.5851  -19.0298  -16.9589 C   0  0  0  0  0  0  0  0  0  0  0  0
   26.5130  -18.4626  -16.0787 C   0  0  2  0  0  0  0  0  0  0  0  0
   26.9505  -17.3988  -15.2275 N   0  0  0  0  0  0  0  0  0  0  0  0
   25.8571  -19.5300  -15.2811 C   0  0  0  0  0  0  0  0  0  0  0  0
   25.4347  -20.5762  -15.8237 O   0  0  0  0  0  0  0  0  0  0  0  0
   26.1610  -19.7954   -8.9785 N   0  0  0  0  0  0  0  0  0  0  0  0
   25.3102  -20.8894   -9.2705 C   0  0  0  0  0  0  0  0  0  0  0  0
   24.9277  -21.6498   -8.3698 O   0  0  0  0  0  0  0  0  0  0  0  0
   24.8910  -21.1032  -10.6699 C   0  0  0  0  0  0  0  0  0  0  0  0
   25.4615  -20.1371  -11.6429 C   0  0  0  0  0  0  0  0  0  0  0  0
   25.0453  -20.3859  -13.0742 C   0  0  2  0  0  0  0  0  0  0  0  0
   25.7195  -19.3361  -13.8827 N   0  0  0  0  0  0  0  0  0  0  0  0
   23.6062  -20.1138  -13.2270 C   0  0  0  0  0  0  0  0  0  0  0  0
   23.1776  -18.9133  -13.1527 O   0  0  0  0  0  0  0  0  0  0  0  0
   22.6775  -21.1308  -13.4592 N   0  0  0  0  0  0  0  0  0  0  0  0
   21.2398  -20.8458  -13.6409 C   0  0  1  0  0  0  0  0  0  0  0  0
   20.9102  -21.3977  -15.0056 C   0  0  0  0  0  0  0  0  0  0  0  0
   19.4964  -21.2042  -15.4287 C   0  0  0  0  0  0  0  0  0  0  0  0
   19.2245  -21.9136  -16.7220 C   0  0  0  0  0  0  0  0  0  0  0  0
   17.8249  -21.6219  -17.1907 C   0  0  0  0  0  0  0  0  0  0  0  0
   17.4991  -22.4217  -18.3523 N   0  0  0  0  0  0  0  0  0  0  0  0
   20.4346  -21.4293  -12.5698 C   0  0  0  0  0  0  0  0  0  0  0  0
   19.2662  -20.8326  -12.1437 O   0  0  0  0  0  0  0  0  0  0  0  0
   20.7912  -22.4900  -12.0128 O   0  0  0  0  0  0  0  0  0  0  0  0
  2  4  1  0
  2  1  1  6
  3  2  1  0
  4  5  1  0
  5  6  1  1
  7  5  1  0
  8  7  2  0
 10  9  1  0
 10 12  1  0
 11 10  2  0
 13 12  1  0
 14 13  1  1
 14 15  1  0
 15  7  1  0
 16 18  1  0
 16 14  1  0
 17 16  2  0
 19 25  1  0
 19 18  1  0
 19 20  1  6
 20 21  1  0
 22 21  1  0
 23 22  1  0
 24 23  1  0
 25 26  1  0
 27 25  2  0
M  END
$$$$
