LQK.pdb
     RDKit          3D

 27 26  0  0  1  0  0  0  0  0999 V2000
   28.3815  -20.3097   -4.1086 C   0  0  0  0  0  0  0  0  0  0  0  0
   28.0439  -19.4854   -5.3306 C   0  0  1  0  0  0  0  0  0  0  0  0
   29.1874  -18.5953   -5.7489 C   0  0  0  0  0  0  0  0  0  0  0  0
   27.7489  -20.4116   -6.4920 C   0  0  0  0  0  0  0  0  0  0  0  0
   27.3840  -19.5719   -7.6783 C   0  0  2  0  0  0  0  0  0  0  0  0
   26.5324  -18.4624   -7.3758 N   0  0  0  0  0  0  0  0  0  0  0  0
   26.7920  -20.4021   -8.7581 C   0  0  0  0  0  0  0  0  0  0  0  0
   27.3092  -21.4916   -9.0940 O   0  0  0  0  0  0  0  0  0  0  0  0
   20.7728  -20.2062  -10.3417 N   0  0  0  0  0  0  0  0  0  0  0  0
   21.2946  -20.9681  -11.4155 C   0  0  0  0  0  0  0  0  0  0  0  0
   20.5389  -21.4673  -12.2614 O   0  0  0  0  0  0  0  0  0  0  0  0
   22.7566  -21.1543  -11.5035 C   0  0  0  0  0  0  0  0  0  0  0  0
   23.5293  -20.5262  -10.4017 C   0  0  0  0  0  0  0  0  0  0  0  0
   25.0217  -20.7454  -10.4932 C   0  0  2  0  0  0  0  0  0  0  0  0
   25.6206  -19.9299   -9.4038 N   0  0  0  0  0  0  0  0  0  0  0  0
   25.5356  -20.1487  -11.7374 C   0  0  0  0  0  0  0  0  0  0  0  0
   25.6132  -18.8787  -11.8455 O   0  0  0  0  0  0  0  0  0  0  0  0
   25.9535  -20.9277  -12.8186 N   0  0  0  0  0  0  0  0  0  0  0  0
   26.4138  -20.3207  -14.0840 C   0  0  1  0  0  0  0  0  0  0  0  0
   27.3695  -21.3315  -14.6674 C   0  0  0  0  0  0  0  0  0  0  0  0
   27.8604  -21.0051  -16.0341 C   0  0  0  0  0  0  0  0  0  0  0  0
   28.6926  -22.1255  -16.5839 C   0  0  0  0  0  0  0  0  0  0  0  0
   29.1486  -21.7977  -17.9797 C   0  0  0  0  0  0  0  0  0  0  0  0
   29.9444  -22.8779  -18.5230 N   0  0  0  0  0  0  0  0  0  0  0  0
   25.2945  -20.0035  -14.9686 C   0  0  0  0  0  0  0  0  0  0  0  0
   24.0912  -20.6709  -14.8713 O   0  0  0  0  0  0  0  0  0  0  0  0
   25.4053  -19.1133  -15.8392 O   0  0  0  0  0  0  0  0  0  0  0  0
  2  4  1  0
  2  1  1  1
  3  2  1  0
  4  5  1  0
  5  6  1  1
  7  5  1  0
  8  7  2  0
 10  9  1  0
 10 12  1  0
 11 10  2  0
 13 12  1  0
 14 13  1  6
 14 15  1  0
 15  7  1  0
 16 18  1  0
 16 14  1  0
 17 16  2  0
 19 25  1  0
 19 18  1  0
 19 20  1  6
 20 21  1  0
 22 21  1  0
 23 22  1  0
 24 23  1  0
 25 26  1  0
 27 25  2  0
M  END
$$$$
