LQK.pdb
     RDKit          3D

 27 26  0  0  1  0  0  0  0  0999 V2000
   27.7093  -18.9390  -18.4137 C   0  0  0  0  0  0  0  0  0  0  0  0
   27.5897  -19.3893  -16.9752 C   0  0  1  0  0  0  0  0  0  0  0  0
   28.0277  -18.3191  -16.0068 C   0  0  0  0  0  0  0  0  0  0  0  0
   26.1402  -19.7044  -16.6693 C   0  0  0  0  0  0  0  0  0  0  0  0
   26.0607  -20.2207  -15.2647 C   0  0  2  0  0  0  0  0  0  0  0  0
   26.9415  -21.3138  -14.9876 N   0  0  0  0  0  0  0  0  0  0  0  0
   24.6640  -20.5746  -14.9044 C   0  0  0  0  0  0  0  0  0  0  0  0
   23.9581  -21.2769  -15.6633 O   0  0  0  0  0  0  0  0  0  0  0  0
   22.3556  -19.7727   -9.0764 N   0  0  0  0  0  0  0  0  0  0  0  0
   21.2319  -20.2961   -9.7616 C   0  0  0  0  0  0  0  0  0  0  0  0
   20.1981  -20.5919   -9.1456 O   0  0  0  0  0  0  0  0  0  0  0  0
   21.3208  -20.4818  -11.2236 C   0  0  0  0  0  0  0  0  0  0  0  0
   22.6445  -20.1535  -11.8114 C   0  0  0  0  0  0  0  0  0  0  0  0
   22.7592  -20.4679  -13.2850 C   0  0  2  0  0  0  0  0  0  0  0  0
   24.1451  -20.0960  -13.6741 N   0  0  0  0  0  0  0  0  0  0  0  0
   21.8942  -19.5586  -14.0552 C   0  0  0  0  0  0  0  0  0  0  0  0
   22.2245  -18.3324  -14.1888 O   0  0  0  0  0  0  0  0  0  0  0  0
   20.7118  -19.9910  -14.6598 N   0  0  0  0  0  0  0  0  0  0  0  0
   19.8237  -19.0614  -15.3868 C   0  0  1  0  0  0  0  0  0  0  0  0
   19.5993  -19.7166  -16.7269 C   0  0  0  0  0  0  0  0  0  0  0  0
   18.6469  -18.9986  -17.6173 C   0  0  0  0  0  0  0  0  0  0  0  0
   18.4118  -19.7715  -18.8812 C   0  0  0  0  0  0  0  0  0  0  0  0
   17.4656  -19.0228  -19.7800 C   0  0  0  0  0  0  0  0  0  0  0  0
   17.2299  -19.7626  -21.0015 N   0  0  0  0  0  0  0  0  0  0  0  0
   18.5866  -18.8100  -14.6501 C   0  0  0  0  0  0  0  0  0  0  0  0
   17.8538  -17.6585  -14.8497 O   0  0  0  0  0  0  0  0  0  0  0  0
   18.1636  -19.6402  -13.8169 O   0  0  0  0  0  0  0  0  0  0  0  0
  2  4  1  0
  2  1  1  6
  3  2  1  0
  4  5  1  0
  5  6  1  6
  7  5  1  0
  8  7  2  0
 10  9  1  0
 10 12  1  0
 11 10  2  0
 13 12  1  0
 14 13  1  1
 14 15  1  0
 15  7  1  0
 16 18  1  0
 16 14  1  0
 17 16  2  0
 19 25  1  0
 19 18  1  0
 19 20  1  6
 20 21  1  0
 22 21  1  0
 23 22  1  0
 24 23  1  0
 25 26  1  0
 27 25  2  0
M  END
$$$$
