LQK.pdb
     RDKit          3D

 27 26  0  0  1  0  0  0  0  0999 V2000
   26.3447  -20.2949   -8.5020 C   0  0  0  0  0  0  0  0  0  0  0  0
   25.7660  -21.0282   -9.6912 C   0  0  1  0  0  0  0  0  0  0  0  0
   24.3453  -21.4723   -9.4482 C   0  0  0  0  0  0  0  0  0  0  0  0
   25.7471  -20.1012  -10.8888 C   0  0  0  0  0  0  0  0  0  0  0  0
   25.2712  -20.8816  -12.0763 C   0  0  2  0  0  0  0  0  0  0  0  0
   26.0910  -22.0061  -12.4097 N   0  0  0  0  0  0  0  0  0  0  0  0
   25.0931  -19.9998  -13.2579 C   0  0  0  0  0  0  0  0  0  0  0  0
   24.3172  -19.0179  -13.2215 O   0  0  0  0  0  0  0  0  0  0  0  0
   29.3703  -19.8237  -17.8526 N   0  0  0  0  0  0  0  0  0  0  0  0
   28.4076  -18.9072  -18.3417 C   0  0  0  0  0  0  0  0  0  0  0  0
   28.6227  -18.2562  -19.3740 O   0  0  0  0  0  0  0  0  0  0  0  0
   27.1446  -18.7449  -17.5945 C   0  0  0  0  0  0  0  0  0  0  0  0
   27.0394  -19.5735  -16.3666 C   0  0  0  0  0  0  0  0  0  0  0  0
   25.7724  -19.3443  -15.5755 C   0  0  2  0  0  0  0  0  0  0  0  0
   25.8262  -20.2969  -14.4353 N   0  0  0  0  0  0  0  0  0  0  0  0
   24.6078  -19.7711  -16.3691 C   0  0  0  0  0  0  0  0  0  0  0  0
   24.4145  -21.0135  -16.5919 O   0  0  0  0  0  0  0  0  0  0  0  0
   23.6886  -18.8583  -16.8912 N   0  0  0  0  0  0  0  0  0  0  0  0
   22.4618  -19.2992  -17.5854 C   0  0  1  0  0  0  0  0  0  0  0  0
   21.3320  -18.7875  -16.7269 C   0  0  0  0  0  0  0  0  0  0  0  0
   19.9717  -19.0375  -17.2771 C   0  0  0  0  0  0  0  0  0  0  0  0
   18.9160  -18.5185  -16.3465 C   0  0  0  0  0  0  0  0  0  0  0  0
   17.7187  -19.4295  -16.3588 C   0  0  0  0  0  0  0  0  0  0  0  0
   18.0249  -20.6828  -15.7026 N   0  0  0  0  0  0  0  0  0  0  0  0
   22.4136  -18.8068  -18.9607 C   0  0  0  0  0  0  0  0  0  0  0  0
   23.4056  -17.9928  -19.4668 O   0  0  0  0  0  0  0  0  0  0  0  0
   21.4644  -19.1158  -19.7131 O   0  0  0  0  0  0  0  0  0  0  0  0
  2  4  1  0
  2  1  1  1
  3  2  1  0
  4  5  1  0
  5  6  1  6
  7  5  1  0
  8  7  2  0
 10  9  1  0
 10 12  1  0
 11 10  2  0
 13 12  1  0
 14 13  1  6
 14 15  1  0
 15  7  1  0
 16 18  1  0
 16 14  1  0
 17 16  2  0
 19 25  1  0
 19 18  1  0
 19 20  1  1
 20 21  1  0
 22 21  1  0
 23 22  1  0
 24 23  1  0
 25 26  1  0
 27 25  2  0
M  END
$$$$
