LQK.pdb
     RDKit          3D

 27 26  0  0  1  0  0  0  0  0999 V2000
   29.1006  -20.3331   -4.7112 C   0  0  0  0  0  0  0  0  0  0  0  0
   27.7349  -20.0763   -5.3075 C   0  0  1  0  0  0  0  0  0  0  0  0
   27.1789  -18.7357   -4.8970 C   0  0  0  0  0  0  0  0  0  0  0  0
   27.8421  -20.0734   -6.8183 C   0  0  0  0  0  0  0  0  0  0  0  0
   26.4570  -19.9944   -7.3847 C   0  0  2  0  0  0  0  0  0  0  0  0
   25.5817  -21.0396   -6.9501 N   0  0  0  0  0  0  0  0  0  0  0  0
   26.4900  -19.9274   -8.8680 C   0  0  0  0  0  0  0  0  0  0  0  0
   27.2350  -19.1158   -9.4627 O   0  0  0  0  0  0  0  0  0  0  0  0
   28.6929  -21.2204  -12.2882 N   0  0  0  0  0  0  0  0  0  0  0  0
   27.8558  -21.7236  -13.3139 C   0  0  0  0  0  0  0  0  0  0  0  0
   28.2258  -21.7060  -14.4965 O   0  0  0  0  0  0  0  0  0  0  0  0
   26.5344  -22.2677  -12.9427 C   0  0  0  0  0  0  0  0  0  0  0  0
   26.2005  -22.1560  -11.5000 C   0  0  0  0  0  0  0  0  0  0  0  0
   25.7113  -20.7877  -11.0852 C   0  0  2  0  0  0  0  0  0  0  0  0
   25.6536  -20.8089   -9.5997 N   0  0  0  0  0  0  0  0  0  0  0  0
   24.3142  -20.6088  -11.5146 C   0  0  0  0  0  0  0  0  0  0  0  0
   23.3714  -21.1466  -10.8419 O   0  0  0  0  0  0  0  0  0  0  0  0
   23.9729  -19.8585  -12.6420 N   0  0  0  0  0  0  0  0  0  0  0  0
   22.5746  -19.7349  -13.1011 C   0  0  1  0  0  0  0  0  0  0  0  0
   22.6438  -18.8140  -14.2938 C   0  0  0  0  0  0  0  0  0  0  0  0
   21.3250  -18.4805  -14.8981 C   0  0  0  0  0  0  0  0  0  0  0  0
   21.4853  -17.4980  -16.0201 C   0  0  0  0  0  0  0  0  0  0  0  0
   20.1418  -17.1457  -16.5985 C   0  0  0  0  0  0  0  0  0  0  0  0
   20.2914  -16.2568  -17.7310 N   0  0  0  0  0  0  0  0  0  0  0  0
   21.9906  -21.0390  -13.4088 C   0  0  0  0  0  0  0  0  0  0  0  0
   20.6843  -21.3361  -13.0798 O   0  0  0  0  0  0  0  0  0  0  0  0
   22.6685  -21.9195  -13.9811 O   0  0  0  0  0  0  0  0  0  0  0  0
  2  4  1  0
  2  1  1  1
  3  2  1  0
  4  5  1  0
  5  6  1  6
  7  5  1  0
  8  7  2  0
 10  9  1  0
 10 12  1  0
 11 10  2  0
 13 12  1  0
 14 13  1  6
 14 15  1  0
 15  7  1  0
 16 18  1  0
 16 14  1  0
 17 16  2  0
 19 25  1  0
 19 18  1  0
 19 20  1  6
 20 21  1  0
 22 21  1  0
 23 22  1  0
 24 23  1  0
 25 26  1  0
 27 25  2  0
M  END
$$$$
