LQK.pdb
     RDKit          3D

 27 26  0  0  1  0  0  0  0  0999 V2000
   26.9197  -20.2403   -7.2886 C   0  0  0  0  0  0  0  0  0  0  0  0
   25.8292  -20.4433   -8.3163 C   0  0  1  0  0  0  0  0  0  0  0  0
   24.8123  -19.3296   -8.2928 C   0  0  0  0  0  0  0  0  0  0  0  0
   26.4439  -20.4597   -9.7003 C   0  0  0  0  0  0  0  0  0  0  0  0
   25.3326  -20.4368  -10.7054 C   0  0  2  0  0  0  0  0  0  0  0  0
   24.4035  -21.5180  -10.5819 N   0  0  0  0  0  0  0  0  0  0  0  0
   25.8663  -20.3659  -12.0896 C   0  0  0  0  0  0  0  0  0  0  0  0
   26.7198  -19.5083  -12.4109 O   0  0  0  0  0  0  0  0  0  0  0  0
   26.8314  -25.2602  -15.6304 N   0  0  0  0  0  0  0  0  0  0  0  0
   26.9228  -24.2498  -16.6186 C   0  0  0  0  0  0  0  0  0  0  0  0
   27.2785  -24.5259  -17.7731 O   0  0  0  0  0  0  0  0  0  0  0  0
   26.5861  -22.8624  -16.2422 C   0  0  0  0  0  0  0  0  0  0  0  0
   26.1474  -22.6908  -14.8339 C   0  0  0  0  0  0  0  0  0  0  0  0
   25.9240  -21.2520  -14.4292 C   0  0  2  0  0  0  0  0  0  0  0  0
   25.3843  -21.2974  -13.0446 N   0  0  0  0  0  0  0  0  0  0  0  0
   24.8390  -20.6717  -15.2382 C   0  0  0  0  0  0  0  0  0  0  0  0
   23.6249  -20.9649  -14.9726 O   0  0  0  0  0  0  0  0  0  0  0  0
   25.0877  -19.7955  -16.2970 N   0  0  0  0  0  0  0  0  0  0  0  0
   23.9920  -19.1931  -17.0830 C   0  0  1  0  0  0  0  0  0  0  0  0
   24.6018  -17.9635  -17.7088 C   0  0  0  0  0  0  0  0  0  0  0  0
   23.6849  -17.1999  -18.5987 C   0  0  0  0  0  0  0  0  0  0  0  0
   24.4028  -16.0538  -19.2476 C   0  0  0  0  0  0  0  0  0  0  0  0
   23.4701  -15.3072  -20.1622 C   0  0  0  0  0  0  0  0  0  0  0  0
   24.1051  -14.1102  -20.6713 N   0  0  0  0  0  0  0  0  0  0  0  0
   23.4499  -20.1335  -18.0618 C   0  0  0  0  0  0  0  0  0  0  0  0
   22.1261  -20.0853  -18.4466 O   0  0  0  0  0  0  0  0  0  0  0  0
   24.1808  -21.0083  -18.5747 O   0  0  0  0  0  0  0  0  0  0  0  0
  2  4  1  0
  2  1  1  1
  3  2  1  0
  4  5  1  0
  5  6  1  6
  7  5  1  0
  8  7  2  0
 10  9  1  0
 10 12  1  0
 11 10  2  0
 13 12  1  0
 14 13  1  6
 14 15  1  0
 15  7  1  0
 16 18  1  0
 16 14  1  0
 17 16  2  0
 19 25  1  0
 19 18  1  0
 19 20  1  6
 20 21  1  0
 22 21  1  0
 23 22  1  0
 24 23  1  0
 25 26  1  0
 27 25  2  0
M  END
$$$$
