LQK.pdb
     RDKit          3D

 27 26  0  0  1  0  0  0  0  0999 V2000
   28.7108  -19.7394   -5.5727 C   0  0  0  0  0  0  0  0  0  0  0  0
   27.3723  -19.4959   -6.2328 C   0  0  1  0  0  0  0  0  0  0  0  0
   27.1286  -18.0315   -6.4993 C   0  0  0  0  0  0  0  0  0  0  0  0
   27.3381  -20.2064   -7.5699 C   0  0  0  0  0  0  0  0  0  0  0  0
   25.9603  -20.0614   -8.1409 C   0  0  2  0  0  0  0  0  0  0  0  0
   24.9068  -20.2106   -7.1841 N   0  0  0  0  0  0  0  0  0  0  0  0
   25.7571  -20.9853   -9.2859 C   0  0  0  0  0  0  0  0  0  0  0  0
   25.8300  -22.2262   -9.1369 O   0  0  0  0  0  0  0  0  0  0  0  0
   21.0349  -21.5166  -12.2716 N   0  0  0  0  0  0  0  0  0  0  0  0
   21.6314  -20.2331  -12.2195 C   0  0  0  0  0  0  0  0  0  0  0  0
   20.9389  -19.2103  -12.3200 O   0  0  0  0  0  0  0  0  0  0  0  0
   23.0945  -20.1418  -12.0439 C   0  0  0  0  0  0  0  0  0  0  0  0
   23.7859  -21.4490  -11.9082 C   0  0  0  0  0  0  0  0  0  0  0  0
   25.2809  -21.3384  -11.7171 C   0  0  2  0  0  0  0  0  0  0  0  0
   25.4770  -20.4266  -10.5593 N   0  0  0  0  0  0  0  0  0  0  0  0
   25.8762  -20.6285  -12.8615 C   0  0  0  0  0  0  0  0  0  0  0  0
   26.0913  -19.3721  -12.7849 O   0  0  0  0  0  0  0  0  0  0  0  0
   26.2260  -21.2848  -14.0437 N   0  0  0  0  0  0  0  0  0  0  0  0
   26.8652  -20.5738  -15.1694 C   0  0  1  0  0  0  0  0  0  0  0  0
   27.3869  -21.6688  -16.0662 C   0  0  0  0  0  0  0  0  0  0  0  0
   28.8048  -22.0495  -15.8210 C   0  0  0  0  0  0  0  0  0  0  0  0
   29.2506  -23.1015  -16.7929 C   0  0  0  0  0  0  0  0  0  0  0  0
   30.6764  -23.4942  -16.5160 C   0  0  0  0  0  0  0  0  0  0  0  0
   31.0868  -24.5731  -17.3893 N   0  0  0  0  0  0  0  0  0  0  0  0
   25.9297  -19.6724  -15.8391 C   0  0  0  0  0  0  0  0  0  0  0  0
   26.3670  -18.5348  -16.4852 O   0  0  0  0  0  0  0  0  0  0  0  0
   24.7036  -19.9158  -15.8402 O   0  0  0  0  0  0  0  0  0  0  0  0
  2  4  1  0
  2  1  1  6
  3  2  1  0
  4  5  1  0
  5  6  1  1
  7  5  1  0
  8  7  2  0
 10  9  1  0
 10 12  1  0
 11 10  2  0
 13 12  1  0
 14 13  1  6
 14 15  1  0
 15  7  1  0
 16 18  1  0
 16 14  1  0
 17 16  2  0
 19 25  1  0
 19 18  1  0
 19 20  1  6
 20 21  1  0
 22 21  1  0
 23 22  1  0
 24 23  1  0
 25 26  1  0
 27 25  2  0
M  END
$$$$
