LQK.pdb
     RDKit          3D

 27 26  0  0  1  0  0  0  0  0999 V2000
   28.4107  -20.6168   -3.8490 C   0  0  0  0  0  0  0  0  0  0  0  0
   28.0926  -19.7245   -5.0276 C   0  0  1  0  0  0  0  0  0  0  0  0
   29.1728  -18.7009   -5.2728 C   0  0  0  0  0  0  0  0  0  0  0  0
   27.9839  -20.5701   -6.2794 C   0  0  0  0  0  0  0  0  0  0  0  0
   27.6156  -19.6709   -7.4201 C   0  0  2  0  0  0  0  0  0  0  0  0
   26.6932  -18.6319   -7.0778 N   0  0  0  0  0  0  0  0  0  0  0  0
   27.1098  -20.4548   -8.5758 C   0  0  0  0  0  0  0  0  0  0  0  0
   27.6991  -21.4890   -8.9638 O   0  0  0  0  0  0  0  0  0  0  0  0
   21.1253  -20.7069  -10.1303 N   0  0  0  0  0  0  0  0  0  0  0  0
   21.7007  -21.3335  -11.2627 C   0  0  0  0  0  0  0  0  0  0  0  0
   20.9833  -21.8516  -12.1303 O   0  0  0  0  0  0  0  0  0  0  0  0
   23.1718  -21.3560  -11.3850 C   0  0  0  0  0  0  0  0  0  0  0  0
   23.8986  -20.7403  -10.2457 C   0  0  0  0  0  0  0  0  0  0  0  0
   25.4034  -20.7915  -10.3749 C   0  0  2  0  0  0  0  0  0  0  0  0
   25.9373  -20.0025   -9.2335 N   0  0  0  0  0  0  0  0  0  0  0  0
   25.8238  -20.0501  -11.5756 C   0  0  0  0  0  0  0  0  0  0  0  0
   25.7636  -18.7747  -11.5855 O   0  0  0  0  0  0  0  0  0  0  0  0
   26.2986  -20.6952  -12.7198 N   0  0  0  0  0  0  0  0  0  0  0  0
   26.5928  -19.9568  -13.9646 C   0  0  1  0  0  0  0  0  0  0  0  0
   27.5950  -20.8181  -14.6922 C   0  0  0  0  0  0  0  0  0  0  0  0
   27.9854  -20.3148  -16.0374 C   0  0  0  0  0  0  0  0  0  0  0  0
   28.9880  -21.2280  -16.6785 C   0  0  0  0  0  0  0  0  0  0  0  0
   29.3795  -20.7015  -18.0325 C   0  0  0  0  0  0  0  0  0  0  0  0
   30.4031  -21.5344  -18.6269 N   0  0  0  0  0  0  0  0  0  0  0  0
   25.3800  -19.6992  -14.7385 C   0  0  0  0  0  0  0  0  0  0  0  0
   25.2511  -18.5663  -15.5149 O   0  0  0  0  0  0  0  0  0  0  0  0
   24.4263  -20.5068  -14.7124 O   0  0  0  0  0  0  0  0  0  0  0  0
  2  4  1  0
  2  1  1  1
  3  2  1  0
  4  5  1  0
  5  6  1  1
  7  5  1  0
  8  7  2  0
 10  9  1  0
 10 12  1  0
 11 10  2  0
 13 12  1  0
 14 13  1  1
 14 15  1  0
 15  7  1  0
 16 18  1  0
 16 14  1  0
 17 16  2  0
 19 25  1  0
 19 18  1  0
 19 20  1  6
 20 21  1  0
 22 21  1  0
 23 22  1  0
 24 23  1  0
 25 26  1  0
 27 25  2  0
M  END
$$$$
