FKY.pdb
     RDKit          3D

 33 34  0  0  1  0  0  0  0  0999 V2000
    7.6956  -17.0783   21.3290 N   0  0  0  0  0  0  0  0  0  0  0  0
    8.4436  -16.3282   22.2938 C   0  0  1  0  0  0  0  0  0  0  0  0
    7.6972  -15.1240   22.8020 C   0  0  0  0  0  0  0  0  0  0  0  0
    7.5242  -14.1796   21.6693 C   0  0  0  0  0  0  0  0  0  0  0  0
    8.5734  -13.3973   21.2949 C   0  0  0  0  0  0  0  0  0  0  0  0
    8.4351  -12.5183   20.2516 C   0  0  0  0  0  0  0  0  0  0  0  0
    7.2502  -12.4243   19.5868 C   0  0  0  0  0  0  0  0  0  0  0  0
    6.1905  -13.2102   19.9602 C   0  0  0  0  0  0  0  0  0  0  0  0
    6.3369  -14.0859   21.0038 C   0  0  0  0  0  0  0  0  0  0  0  0
    8.9163  -17.1569   23.4334 C   0  0  0  0  0  0  0  0  0  0  0  0
    8.1260  -17.9331   23.9880 O   0  0  0  0  0  0  0  0  0  0  0  0
   10.2756  -17.0667   23.8960 N   0  0  0  0  0  0  0  0  0  0  0  0
   10.7148  -17.7579   25.0902 C   0  0  1  0  0  0  0  0  0  0  0  0
   11.7952  -18.7785   24.7181 C   0  0  0  0  0  0  0  0  0  0  0  0
   11.7914  -19.0764   23.2589 C   0  0  0  0  0  0  0  0  0  0  0  0
   12.8761  -20.0629   22.9279 C   0  0  0  0  0  0  0  0  0  0  0  0
   12.9218  -20.4035   21.4778 C   0  0  0  0  0  0  0  0  0  0  0  0
   13.9824  -21.3740   21.2485 N   0  0  0  0  0  0  0  0  0  0  0  0
   11.3584  -16.7787   25.9835 C   0  0  0  0  0  0  0  0  0  0  0  0
   12.5585  -16.9246   26.2911 O   0  0  0  0  0  0  0  0  0  0  0  0
    6.5310  -11.3768   25.0238 O   0  0  0  0  0  0  0  0  0  0  0  0
    7.1382  -12.3625   25.8199 C   0  0  0  0  0  0  0  0  0  0  0  0
    8.3900  -12.1905   26.3606 C   0  0  0  0  0  0  0  0  0  0  0  0
    9.0217  -13.1285   27.1451 C   0  0  0  0  0  0  0  0  0  0  0  0
    8.3768  -14.3164   27.4149 C   0  0  0  0  0  0  0  0  0  0  0  0
    9.0350  -15.3386   28.2475 C   0  0  0  0  0  0  0  0  0  0  0  0
   10.5110  -15.5016   27.9612 C   0  0  2  0  0  0  0  0  0  0  0  0
   10.6497  -15.6696   26.5063 N   0  0  0  0  0  0  0  0  0  0  0  0
   11.0335  -16.7213   28.6053 C   0  0  0  0  0  0  0  0  0  0  0  0
   11.6132  -16.7277   29.8678 O   0  0  0  0  0  0  0  0  0  0  0  0
    7.1086  -14.5074   26.8755 C   0  0  0  0  0  0  0  0  0  0  0  0
    6.4934  -13.5504   26.0899 C   0  0  0  0  0  0  0  0  0  0  0  0
   10.9673  -17.8213   28.0108 O   0  0  0  0  0  0  0  0  0  0  0  0
  2  1  1  6
  3  2  1  0
  3  4  1  0
  4  9  2  0
  5  6  2  0
  5  4  1  0
  6  7  1  0
  7  8  2  0
  9  8  1  0
 10 12  1  0
 10  2  1  0
 11 10  2  0
 13 12  1  0
 13 19  1  0
 13 14  1  6
 15 14  1  0
 16 15  1  0
 17 16  1  0
 18 17  1  0
 19 28  1  0
 20 19  2  0
 22 23  2  0
 22 21  1  0
 24 23  1  0
 25 24  2  0
 26 25  1  0
 27 26  1  6
 27 29  1  0
 28 27  1  0
 29 30  1  0
 31 25  1  0
 31 32  2  0
 32 22  1  0
 33 29  2  0
M  END
$$$$
