FKY.pdb
     RDKit          3D

 33 34  0  0  1  0  0  0  0  0999 V2000
    7.9730  -16.4501   16.3827 N   0  0  0  0  0  0  0  0  0  0  0  0
    8.2126  -15.7623   17.6166 C   0  0  1  0  0  0  0  0  0  0  0  0
    7.3810  -14.5159   17.7602 C   0  0  0  0  0  0  0  0  0  0  0  0
    7.5310  -14.0219   19.1524 C   0  0  0  0  0  0  0  0  0  0  0  0
    8.4629  -13.0659   19.4176 C   0  0  0  0  0  0  0  0  0  0  0  0
    8.6180  -12.5957   20.6963 C   0  0  0  0  0  0  0  0  0  0  0  0
    7.8420  -13.0820   21.7044 C   0  0  0  0  0  0  0  0  0  0  0  0
    6.9018  -14.0450   21.4421 C   0  0  0  0  0  0  0  0  0  0  0  0
    6.7532  -14.5095   20.1618 C   0  0  0  0  0  0  0  0  0  0  0  0
    8.0416  -16.6328   18.8089 C   0  0  0  0  0  0  0  0  0  0  0  0
    6.9127  -17.0554   19.0948 O   0  0  0  0  0  0  0  0  0  0  0  0
    9.1686  -16.9877   19.6298 N   0  0  0  0  0  0  0  0  0  0  0  0
    9.0109  -17.7938   20.8222 C   0  0  1  0  0  0  0  0  0  0  0  0
    9.8003  -19.0971   20.6623 C   0  0  0  0  0  0  0  0  0  0  0  0
    9.6151  -19.9997   21.8325 C   0  0  0  0  0  0  0  0  0  0  0  0
   10.4696  -21.2269   21.6815 C   0  0  0  0  0  0  0  0  0  0  0  0
   10.2969  -22.1906   22.8051 C   0  0  0  0  0  0  0  0  0  0  0  0
   11.0914  -23.3812   22.5394 N   0  0  0  0  0  0  0  0  0  0  0  0
    9.6219  -17.0742   21.9536 C   0  0  0  0  0  0  0  0  0  0  0  0
   10.7482  -16.5562   21.8153 O   0  0  0  0  0  0  0  0  0  0  0  0
   10.5081  -13.2700   29.9429 O   0  0  0  0  0  0  0  0  0  0  0  0
   10.0624  -13.7722   28.7087 C   0  0  0  0  0  0  0  0  0  0  0  0
   10.9372  -14.1271   27.7099 C   0  0  0  0  0  0  0  0  0  0  0  0
   10.5447  -14.6226   26.4873 C   0  0  0  0  0  0  0  0  0  0  0  0
    9.1994  -14.7788   26.2313 C   0  0  0  0  0  0  0  0  0  0  0  0
    8.7542  -15.3020   24.9276 C   0  0  0  0  0  0  0  0  0  0  0  0
    9.6651  -16.3632   24.3522 C   0  0  2  0  0  0  0  0  0  0  0  0
    8.9633  -16.9529   23.2015 N   0  0  0  0  0  0  0  0  0  0  0  0
    9.8963  -17.4381   25.3353 C   0  0  0  0  0  0  0  0  0  0  0  0
   11.0698  -17.5602   26.0689 O   0  0  0  0  0  0  0  0  0  0  0  0
    8.2994  -14.4245   27.2314 C   0  0  0  0  0  0  0  0  0  0  0  0
    8.7171  -13.9287   28.4526 C   0  0  0  0  0  0  0  0  0  0  0  0
    9.0114  -18.2994   25.5417 O   0  0  0  0  0  0  0  0  0  0  0  0
  2  1  1  6
  3  2  1  0
  3  4  1  0
  4  9  2  0
  5  6  2  0
  5  4  1  0
  6  7  1  0
  7  8  2  0
  9  8  1  0
 10 12  1  0
 10  2  1  0
 11 10  2  0
 13 12  1  0
 13 19  1  0
 13 14  1  6
 15 14  1  0
 16 15  1  0
 17 16  1  0
 18 17  1  0
 19 28  1  0
 20 19  2  0
 22 23  2  0
 22 21  1  0
 24 23  1  0
 25 24  2  0
 26 25  1  0
 27 26  1  1
 27 29  1  0
 28 27  1  0
 29 30  1  0
 31 25  1  0
 31 32  2  0
 32 22  1  0
 33 29  2  0
M  END
$$$$
