FKY.pdb
     RDKit          3D

 33 34  0  0  1  0  0  0  0  0999 V2000
    5.9860  -16.6463   25.4509 N   0  0  0  0  0  0  0  0  0  0  0  0
    6.7960  -15.6030   24.8955 C   0  0  1  0  0  0  0  0  0  0  0  0
    7.3677  -14.6878   25.9448 C   0  0  0  0  0  0  0  0  0  0  0  0
    6.6130  -13.4098   25.8997 C   0  0  0  0  0  0  0  0  0  0  0  0
    7.1424  -12.3531   25.2244 C   0  0  0  0  0  0  0  0  0  0  0  0
    6.4622  -11.1639   25.1703 C   0  0  0  0  0  0  0  0  0  0  0  0
    5.2565  -11.0348   25.7905 C   0  0  0  0  0  0  0  0  0  0  0  0
    4.7191  -12.0964   26.4719 C   0  0  0  0  0  0  0  0  0  0  0  0
    5.4052  -13.2813   26.5212 C   0  0  0  0  0  0  0  0  0  0  0  0
    7.8795  -16.1152   24.0166 C   0  0  0  0  0  0  0  0  0  0  0  0
    8.4193  -17.1971   24.2865 O   0  0  0  0  0  0  0  0  0  0  0  0
    8.3051  -15.3705   22.8615 N   0  0  0  0  0  0  0  0  0  0  0  0
    9.5340  -15.6914   22.1663 C   0  0  1  0  0  0  0  0  0  0  0  0
    9.6822  -14.7752   20.9473 C   0  0  0  0  0  0  0  0  0  0  0  0
    8.3925  -14.6141   20.2201 C   0  0  0  0  0  0  0  0  0  0  0  0
    8.5954  -13.7886   18.9805 C   0  0  0  0  0  0  0  0  0  0  0  0
    7.3322  -13.5719   18.2199 C   0  0  0  0  0  0  0  0  0  0  0  0
    7.6205  -12.7838   17.0303 N   0  0  0  0  0  0  0  0  0  0  0  0
   10.6662  -15.3833   23.0576 C   0  0  0  0  0  0  0  0  0  0  0  0
   10.4874  -14.6374   24.0414 O   0  0  0  0  0  0  0  0  0  0  0  0
   10.7785  -15.6873   30.0456 O   0  0  0  0  0  0  0  0  0  0  0  0
   11.0635  -16.1026   28.7339 C   0  0  0  0  0  0  0  0  0  0  0  0
   12.3498  -16.1606   28.2534 C   0  0  0  0  0  0  0  0  0  0  0  0
   12.6740  -16.5610   26.9771 C   0  0  0  0  0  0  0  0  0  0  0  0
   11.6627  -16.9290   26.1160 C   0  0  0  0  0  0  0  0  0  0  0  0
   11.9842  -17.3559   24.7427 C   0  0  0  0  0  0  0  0  0  0  0  0
   12.7922  -16.3436   23.9620 C   0  0  2  0  0  0  0  0  0  0  0  0
   11.9596  -15.9126   22.8283 N   0  0  0  0  0  0  0  0  0  0  0  0
   14.0116  -16.9650   23.4120 C   0  0  0  0  0  0  0  0  0  0  0  0
   15.2454  -16.9159   24.0486 O   0  0  0  0  0  0  0  0  0  0  0  0
   10.3542  -16.8764   26.5860 C   0  0  0  0  0  0  0  0  0  0  0  0
   10.0523  -16.4709   27.8727 C   0  0  0  0  0  0  0  0  0  0  0  0
   13.9662  -17.5735   22.3187 O   0  0  0  0  0  0  0  0  0  0  0  0
  2  1  1  1
  3  2  1  0
  3  4  1  0
  4  9  2  0
  5  6  2  0
  5  4  1  0
  6  7  1  0
  7  8  2  0
  9  8  1  0
 10 12  1  0
 10  2  1  0
 11 10  2  0
 13 12  1  0
 13 19  1  0
 13 14  1  6
 15 14  1  0
 16 15  1  0
 17 16  1  0
 18 17  1  0
 19 28  1  0
 20 19  2  0
 22 23  2  0
 22 21  1  0
 24 23  1  0
 25 24  2  0
 26 25  1  0
 27 26  1  6
 27 29  1  0
 28 27  1  0
 29 30  1  0
 31 25  1  0
 31 32  2  0
 32 22  1  0
 33 29  2  0
M  END
$$$$
