FKY.pdb
     RDKit          3D

 33 34  0  0  1  0  0  0  0  0999 V2000
    6.0725  -17.9211   25.7835 N   0  0  0  0  0  0  0  0  0  0  0  0
    6.4914  -16.5702   25.5541 C   0  0  1  0  0  0  0  0  0  0  0  0
    6.9726  -15.8885   26.8068 C   0  0  0  0  0  0  0  0  0  0  0  0
    6.9328  -14.4223   26.5757 C   0  0  0  0  0  0  0  0  0  0  0  0
    5.7506  -13.7627   26.7184 C   0  0  0  0  0  0  0  0  0  0  0  0
    5.6916  -12.4088   26.5097 C   0  0  0  0  0  0  0  0  0  0  0  0
    6.8128  -11.7195   26.1595 C   0  0  0  0  0  0  0  0  0  0  0  0
    8.0059  -12.3795   26.0146 C   0  0  0  0  0  0  0  0  0  0  0  0
    8.0564  -13.7325   26.2250 C   0  0  0  0  0  0  0  0  0  0  0  0
    7.5140  -16.4539   24.4820 C   0  0  0  0  0  0  0  0  0  0  0  0
    8.5054  -17.1964   24.5059 O   0  0  0  0  0  0  0  0  0  0  0  0
    7.3643  -15.4924   23.4223 N   0  0  0  0  0  0  0  0  0  0  0  0
    8.3060  -15.4252   22.3244 C   0  0  1  0  0  0  0  0  0  0  0  0
    7.7638  -14.4801   21.2473 C   0  0  0  0  0  0  0  0  0  0  0  0
    8.6567  -14.4333   20.0563 C   0  0  0  0  0  0  0  0  0  0  0  0
    7.9811  -13.7030   18.9296 C   0  0  0  0  0  0  0  0  0  0  0  0
    8.8018  -13.6772   17.6860 C   0  0  0  0  0  0  0  0  0  0  0  0
    8.1550  -12.8178   16.7049 N   0  0  0  0  0  0  0  0  0  0  0  0
    9.5542  -14.8183   22.8194 C   0  0  0  0  0  0  0  0  0  0  0  0
    9.4974  -13.8256   23.5728 O   0  0  0  0  0  0  0  0  0  0  0  0
    9.9490  -15.0792   29.6445 O   0  0  0  0  0  0  0  0  0  0  0  0
   10.2820  -15.4965   28.3449 C   0  0  0  0  0  0  0  0  0  0  0  0
   10.1000  -14.6837   27.2517 C   0  0  0  0  0  0  0  0  0  0  0  0
   10.4119  -15.0513   25.9626 C   0  0  0  0  0  0  0  0  0  0  0  0
   10.9387  -16.3046   25.7350 C   0  0  0  0  0  0  0  0  0  0  0  0
   11.2753  -16.7233   24.3628 C   0  0  0  0  0  0  0  0  0  0  0  0
   11.8277  -15.6089   23.5025 C   0  0  2  0  0  0  0  0  0  0  0  0
   10.8245  -15.3325   22.4625 N   0  0  0  0  0  0  0  0  0  0  0  0
   13.0665  -16.0391   22.8275 C   0  0  0  0  0  0  0  0  0  0  0  0
   14.3362  -15.7856   23.3312 O   0  0  0  0  0  0  0  0  0  0  0  0
   11.1298  -17.1407   26.8304 C   0  0  0  0  0  0  0  0  0  0  0  0
   10.8090  -16.7496   28.1171 C   0  0  0  0  0  0  0  0  0  0  0  0
   13.0052  -16.6650   21.7448 O   0  0  0  0  0  0  0  0  0  0  0  0
  2  1  1  1
  3  2  1  0
  3  4  1  0
  4  9  2  0
  5  6  2  0
  5  4  1  0
  6  7  1  0
  7  8  2  0
  9  8  1  0
 10 12  1  0
 10  2  1  0
 11 10  2  0
 13 12  1  0
 13 19  1  0
 13 14  1  6
 15 14  1  0
 16 15  1  0
 17 16  1  0
 18 17  1  0
 19 28  1  0
 20 19  2  0
 22 23  2  0
 22 21  1  0
 24 23  1  0
 25 24  2  0
 26 25  1  0
 27 26  1  1
 27 29  1  0
 28 27  1  0
 29 30  1  0
 31 25  1  0
 31 32  2  0
 32 22  1  0
 33 29  2  0
M  END
$$$$
