FKY.pdb
     RDKit          3D

 33 34  0  0  1  0  0  0  0  0999 V2000
    7.0035  -18.0438   18.1454 N   0  0  0  0  0  0  0  0  0  0  0  0
    7.5310  -16.9105   18.8458 C   0  0  1  0  0  0  0  0  0  0  0  0
    6.4792  -15.8831   19.1679 C   0  0  0  0  0  0  0  0  0  0  0  0
    7.1426  -14.7480   19.8581 C   0  0  0  0  0  0  0  0  0  0  0  0
    7.0194  -14.6327   21.2088 C   0  0  0  0  0  0  0  0  0  0  0  0
    7.6238  -13.5922   21.8659 C   0  0  0  0  0  0  0  0  0  0  0  0
    8.3486  -12.6714   21.1718 C   0  0  0  0  0  0  0  0  0  0  0  0
    8.4756  -12.7832   19.8111 C   0  0  0  0  0  0  0  0  0  0  0  0
    7.8685  -13.8260   19.1620 C   0  0  0  0  0  0  0  0  0  0  0  0
    8.2764  -17.2842   20.0760 C   0  0  0  0  0  0  0  0  0  0  0  0
    7.6747  -17.8422   21.0041 O   0  0  0  0  0  0  0  0  0  0  0  0
    9.6825  -17.0056   20.1986 N   0  0  0  0  0  0  0  0  0  0  0  0
   10.4436  -17.4502   21.3474 C   0  0  1  0  0  0  0  0  0  0  0  0
   11.9301  -17.5073   20.9807 C   0  0  0  0  0  0  0  0  0  0  0  0
   12.6989  -18.3583   21.9310 C   0  0  0  0  0  0  0  0  0  0  0  0
   14.1156  -18.5179   21.4550 C   0  0  0  0  0  0  0  0  0  0  0  0
   14.9534  -19.3127   22.3970 C   0  0  0  0  0  0  0  0  0  0  0  0
   14.4548  -20.6797   22.4422 N   0  0  0  0  0  0  0  0  0  0  0  0
   10.3164  -16.4369   22.4095 C   0  0  0  0  0  0  0  0  0  0  0  0
   10.4469  -15.2294   22.1246 O   0  0  0  0  0  0  0  0  0  0  0  0
    6.2113  -11.3988   27.9660 O   0  0  0  0  0  0  0  0  0  0  0  0
    6.7157  -12.3614   27.0755 C   0  0  0  0  0  0  0  0  0  0  0  0
    8.0426  -12.3974   26.7195 C   0  0  0  0  0  0  0  0  0  0  0  0
    8.5788  -13.3215   25.8519 C   0  0  0  0  0  0  0  0  0  0  0  0
    7.7517  -14.2745   25.2972 C   0  0  0  0  0  0  0  0  0  0  0  0
    8.3013  -15.2710   24.3611 C   0  0  0  0  0  0  0  0  0  0  0  0
    9.6818  -15.7631   24.7341 C   0  0  2  0  0  0  0  0  0  0  0  0
   10.0485  -16.7961   23.7529 N   0  0  0  0  0  0  0  0  0  0  0  0
    9.6653  -16.3958   26.0663 C   0  0  0  0  0  0  0  0  0  0  0  0
   10.1152  -15.7607   27.2171 O   0  0  0  0  0  0  0  0  0  0  0  0
    6.4052  -14.2529   25.6467 C   0  0  0  0  0  0  0  0  0  0  0  0
    5.8888  -13.3146   26.5209 C   0  0  0  0  0  0  0  0  0  0  0  0
    9.2315  -17.5627   26.2005 O   0  0  0  0  0  0  0  0  0  0  0  0
  2  1  1  1
  3  2  1  0
  3  4  1  0
  4  9  2  0
  5  6  2  0
  5  4  1  0
  6  7  1  0
  7  8  2  0
  9  8  1  0
 10 12  1  0
 10  2  1  0
 11 10  2  0
 13 12  1  0
 13 19  1  0
 13 14  1  6
 15 14  1  0
 16 15  1  0
 17 16  1  0
 18 17  1  0
 19 28  1  0
 20 19  2  0
 22 23  2  0
 22 21  1  0
 24 23  1  0
 25 24  2  0
 26 25  1  0
 27 26  1  6
 27 29  1  0
 28 27  1  0
 29 30  1  0
 31 25  1  0
 31 32  2  0
 32 22  1  0
 33 29  2  0
M  END
$$$$
