FKY.pdb
     RDKit          3D

 33 34  0  0  1  0  0  0  0  0999 V2000
    5.4818  -18.7173   23.0510 N   0  0  0  0  0  0  0  0  0  0  0  0
    6.3075  -17.5878   22.7423 C   0  0  1  0  0  0  0  0  0  0  0  0
    6.0867  -16.4308   23.6795 C   0  0  0  0  0  0  0  0  0  0  0  0
    6.8135  -15.2553   23.1367 C   0  0  0  0  0  0  0  0  0  0  0  0
    7.5049  -14.4531   23.9919 C   0  0  0  0  0  0  0  0  0  0  0  0
    8.1829  -13.3623   23.5117 C   0  0  0  0  0  0  0  0  0  0  0  0
    8.1677  -13.0773   22.1800 C   0  0  0  0  0  0  0  0  0  0  0  0
    7.4728  -13.8824   21.3146 C   0  0  0  0  0  0  0  0  0  0  0  0
    6.7979  -14.9704   21.8025 C   0  0  0  0  0  0  0  0  0  0  0  0
    7.7531  -17.9263   22.6773 C   0  0  0  0  0  0  0  0  0  0  0  0
    8.2866  -18.4963   23.6392 O   0  0  0  0  0  0  0  0  0  0  0  0
    8.5346  -17.6001   21.5142 N   0  0  0  0  0  0  0  0  0  0  0  0
    9.9527  -17.8861   21.4522 C   0  0  1  0  0  0  0  0  0  0  0  0
   10.4568  -17.6488   20.0250 C   0  0  0  0  0  0  0  0  0  0  0  0
   11.9067  -17.9630   19.8942 C   0  0  0  0  0  0  0  0  0  0  0  0
   12.3250  -17.8918   18.4523 C   0  0  0  0  0  0  0  0  0  0  0  0
   13.7458  -18.2909   18.2446 C   0  0  0  0  0  0  0  0  0  0  0  0
   14.5916  -17.1094   18.3350 N   0  0  0  0  0  0  0  0  0  0  0  0
   10.6598  -16.9180   22.3089 C   0  0  0  0  0  0  0  0  0  0  0  0
   10.4869  -15.6961   22.1264 O   0  0  0  0  0  0  0  0  0  0  0  0
   10.2346  -13.9738   30.3105 O   0  0  0  0  0  0  0  0  0  0  0  0
   10.2507  -14.5963   29.0510 C   0  0  0  0  0  0  0  0  0  0  0  0
   10.2742  -13.8725   27.8829 C   0  0  0  0  0  0  0  0  0  0  0  0
   10.2906  -14.4404   26.6293 C   0  0  0  0  0  0  0  0  0  0  0  0
   10.2830  -15.8143   26.5190 C   0  0  0  0  0  0  0  0  0  0  0  0
   10.2944  -16.4458   25.1875 C   0  0  0  0  0  0  0  0  0  0  0  0
   11.6701  -16.5346   24.5656 C   0  0  2  0  0  0  0  0  0  0  0  0
   11.5356  -17.3370   23.3399 N   0  0  0  0  0  0  0  0  0  0  0  0
   12.6018  -17.2414   25.4643 C   0  0  0  0  0  0  0  0  0  0  0  0
   12.9777  -18.5665   25.2829 O   0  0  0  0  0  0  0  0  0  0  0  0
   10.2594  -16.5629   27.6915 C   0  0  0  0  0  0  0  0  0  0  0  0
   10.2434  -15.9702   28.9404 C   0  0  0  0  0  0  0  0  0  0  0  0
   13.0955  -16.6462   26.4490 O   0  0  0  0  0  0  0  0  0  0  0  0
  2  1  1  1
  3  2  1  0
  3  4  1  0
  4  9  2  0
  5  6  2  0
  5  4  1  0
  6  7  1  0
  7  8  2  0
  9  8  1  0
 10 12  1  0
 10  2  1  0
 11 10  2  0
 13 12  1  0
 13 19  1  0
 13 14  1  6
 15 14  1  0
 16 15  1  0
 17 16  1  0
 18 17  1  0
 19 28  1  0
 20 19  2  0
 22 23  2  0
 22 21  1  0
 24 23  1  0
 25 24  2  0
 26 25  1  0
 27 26  1  1
 27 29  1  0
 28 27  1  0
 29 30  1  0
 31 25  1  0
 31 32  2  0
 32 22  1  0
 33 29  2  0
M  END
$$$$
