FKY.pdb
     RDKit          3D

 33 34  0  0  1  0  0  0  0  0999 V2000
    7.8047  -16.5586   25.8620 N   0  0  0  0  0  0  0  0  0  0  0  0
    6.5117  -16.5832   25.2452 C   0  0  1  0  0  0  0  0  0  0  0  0
    5.5340  -15.6470   25.9034 C   0  0  0  0  0  0  0  0  0  0  0  0
    6.2576  -14.3980   26.2514 C   0  0  0  0  0  0  0  0  0  0  0  0
    7.3014  -14.0003   25.4735 C   0  0  0  0  0  0  0  0  0  0  0  0
    7.9834  -12.8502   25.7770 C   0  0  0  0  0  0  0  0  0  0  0  0
    7.6203  -12.1022   26.8558 C   0  0  0  0  0  0  0  0  0  0  0  0
    6.5696  -12.4987   27.6424 C   0  0  0  0  0  0  0  0  0  0  0  0
    5.8934  -13.6493   27.3323 C   0  0  0  0  0  0  0  0  0  0  0  0
    6.5617  -16.3267   23.7822 C   0  0  0  0  0  0  0  0  0  0  0  0
    5.8971  -17.0403   23.0181 O   0  0  0  0  0  0  0  0  0  0  0  0
    7.3702  -15.2634   23.2479 N   0  0  0  0  0  0  0  0  0  0  0  0
    8.0650  -15.4039   21.9853 C   0  0  1  0  0  0  0  0  0  0  0  0
    7.8313  -14.1512   21.1348 C   0  0  0  0  0  0  0  0  0  0  0  0
    8.3898  -14.3055   19.7628 C   0  0  0  0  0  0  0  0  0  0  0  0
    7.9769  -13.1454   18.9010 C   0  0  0  0  0  0  0  0  0  0  0  0
    8.4180  -13.2942   17.4852 C   0  0  0  0  0  0  0  0  0  0  0  0
    7.9053  -14.5493   16.9549 N   0  0  0  0  0  0  0  0  0  0  0  0
    9.5126  -15.4585   22.2552 C   0  0  0  0  0  0  0  0  0  0  0  0
   10.3109  -15.5653   21.3027 O   0  0  0  0  0  0  0  0  0  0  0  0
    9.8167  -16.6210   29.9196 O   0  0  0  0  0  0  0  0  0  0  0  0
   10.2866  -16.1014   28.7017 C   0  0  0  0  0  0  0  0  0  0  0  0
   11.4331  -16.5697   28.1060 C   0  0  0  0  0  0  0  0  0  0  0  0
   11.9291  -16.0903   26.9150 C   0  0  0  0  0  0  0  0  0  0  0  0
   11.2495  -15.0812   26.2671 C   0  0  0  0  0  0  0  0  0  0  0  0
   11.7638  -14.5474   24.9934 C   0  0  0  0  0  0  0  0  0  0  0  0
   11.4799  -15.4332   23.8010 C   0  0  2  0  0  0  0  0  0  0  0  0
   10.0270  -15.3928   23.5730 N   0  0  0  0  0  0  0  0  0  0  0  0
   11.8493  -16.8310   24.0926 C   0  0  0  0  0  0  0  0  0  0  0  0
   13.1600  -17.2477   24.2886 O   0  0  0  0  0  0  0  0  0  0  0  0
   10.0865  -14.5951   26.8560 C   0  0  0  0  0  0  0  0  0  0  0  0
    9.6071  -15.0924   28.0535 C   0  0  0  0  0  0  0  0  0  0  0  0
   10.9613  -17.7100   24.1734 O   0  0  0  0  0  0  0  0  0  0  0  0
  2  1  1  1
  3  2  1  0
  3  4  1  0
  4  9  2  0
  5  6  2  0
  5  4  1  0
  6  7  1  0
  7  8  2  0
  9  8  1  0
 10 12  1  0
 10  2  1  0
 11 10  2  0
 13 12  1  0
 13 19  1  0
 13 14  1  6
 15 14  1  0
 16 15  1  0
 17 16  1  0
 18 17  1  0
 19 28  1  0
 20 19  2  0
 22 23  2  0
 22 21  1  0
 24 23  1  0
 25 24  2  0
 26 25  1  0
 27 26  1  1
 27 29  1  0
 28 27  1  0
 29 30  1  0
 31 25  1  0
 31 32  2  0
 32 22  1  0
 33 29  2  0
M  END
$$$$
