FKY.pdb
     RDKit          3D

 33 34  0  0  1  0  0  0  0  0999 V2000
    5.7949  -17.7407   24.8538 N   0  0  0  0  0  0  0  0  0  0  0  0
    6.2721  -16.4039   24.6582 C   0  0  1  0  0  0  0  0  0  0  0  0
    6.4943  -15.6690   25.9528 C   0  0  0  0  0  0  0  0  0  0  0  0
    6.2892  -14.2204   25.6993 C   0  0  0  0  0  0  0  0  0  0  0  0
    5.0219  -13.7237   25.6916 C   0  0  0  0  0  0  0  0  0  0  0  0
    4.8101  -12.3890   25.4595 C   0  0  0  0  0  0  0  0  0  0  0  0
    5.8644  -11.5562   25.2362 C   0  0  0  0  0  0  0  0  0  0  0  0
    7.1429  -12.0518   25.2430 C   0  0  0  0  0  0  0  0  0  0  0  0
    7.3459  -13.3867   25.4757 C   0  0  0  0  0  0  0  0  0  0  0  0
    7.4956  -16.3418   23.8169 C   0  0  0  0  0  0  0  0  0  0  0  0
    8.4045  -17.1620   24.0063 O   0  0  0  0  0  0  0  0  0  0  0  0
    7.6338  -15.3436   22.7901 N   0  0  0  0  0  0  0  0  0  0  0  0
    8.7283  -15.3804   21.8428 C   0  0  1  0  0  0  0  0  0  0  0  0
    8.4910  -14.3317   20.7514 C   0  0  0  0  0  0  0  0  0  0  0  0
    8.7066  -14.8958   19.3900 C   0  0  0  0  0  0  0  0  0  0  0  0
    8.4130  -13.8561   18.3450 C   0  0  0  0  0  0  0  0  0  0  0  0
    8.6521  -14.3492   16.9591 C   0  0  0  0  0  0  0  0  0  0  0  0
    8.2715  -13.3119   16.0111 N   0  0  0  0  0  0  0  0  0  0  0  0
    9.9618  -14.9802   22.5423 C   0  0  0  0  0  0  0  0  0  0  0  0
   10.1658  -13.7737   22.7852 O   0  0  0  0  0  0  0  0  0  0  0  0
   11.8289  -15.7143   30.7446 O   0  0  0  0  0  0  0  0  0  0  0  0
   11.4527  -15.7728   29.3921 C   0  0  0  0  0  0  0  0  0  0  0  0
   11.4404  -16.9552   28.6918 C   0  0  0  0  0  0  0  0  0  0  0  0
   11.0794  -17.0582   27.3676 C   0  0  0  0  0  0  0  0  0  0  0  0
   10.7054  -15.9193   26.6874 C   0  0  0  0  0  0  0  0  0  0  0  0
   10.3201  -16.0032   25.2675 C   0  0  0  0  0  0  0  0  0  0  0  0
   11.4850  -15.8823   24.3106 C   0  0  2  0  0  0  0  0  0  0  0  0
   10.9288  -15.9314   22.9495 N   0  0  0  0  0  0  0  0  0  0  0  0
   12.4023  -17.0273   24.4616 C   0  0  0  0  0  0  0  0  0  0  0  0
   12.2925  -18.1950   23.7171 O   0  0  0  0  0  0  0  0  0  0  0  0
   10.7120  -14.7132   27.3810 C   0  0  0  0  0  0  0  0  0  0  0  0
   11.0785  -14.6339   28.7117 C   0  0  0  0  0  0  0  0  0  0  0  0
   13.3363  -16.9763   25.2941 O   0  0  0  0  0  0  0  0  0  0  0  0
  2  1  1  1
  3  2  1  0
  3  4  1  0
  4  9  2  0
  5  6  2  0
  5  4  1  0
  6  7  1  0
  7  8  2  0
  9  8  1  0
 10 12  1  0
 10  2  1  0
 11 10  2  0
 13 12  1  0
 13 19  1  0
 13 14  1  6
 15 14  1  0
 16 15  1  0
 17 16  1  0
 18 17  1  0
 19 28  1  0
 20 19  2  0
 22 23  2  0
 22 21  1  0
 24 23  1  0
 25 24  2  0
 26 25  1  0
 27 26  1  1
 27 29  1  0
 28 27  1  0
 29 30  1  0
 31 25  1  0
 31 32  2  0
 32 22  1  0
 33 29  2  0
M  END
$$$$
