FKY.pdb
     RDKit          3D

 33 34  0  0  1  0  0  0  0  0999 V2000
    6.5233  -16.2515   25.7062 N   0  0  0  0  0  0  0  0  0  0  0  0
    7.1912  -15.6262   24.6036 C   0  0  1  0  0  0  0  0  0  0  0  0
    7.9169  -14.3682   24.9992 C   0  0  0  0  0  0  0  0  0  0  0  0
    6.9024  -13.3162   25.2611 C   0  0  0  0  0  0  0  0  0  0  0  0
    6.9061  -12.6793   26.4642 C   0  0  0  0  0  0  0  0  0  0  0  0
    5.9781  -11.7047   26.7268 C   0  0  0  0  0  0  0  0  0  0  0  0
    5.0505  -11.3703   25.7873 C   0  0  0  0  0  0  0  0  0  0  0  0
    5.0427  -12.0089   24.5740 C   0  0  0  0  0  0  0  0  0  0  0  0
    5.9734  -12.9816   24.3195 C   0  0  0  0  0  0  0  0  0  0  0  0
    8.1125  -16.5455   23.8862 C   0  0  0  0  0  0  0  0  0  0  0  0
    8.5004  -17.5780   24.4505 O   0  0  0  0  0  0  0  0  0  0  0  0
    8.5559  -16.2496   22.5499 N   0  0  0  0  0  0  0  0  0  0  0  0
    9.6977  -16.9221   21.9663 C   0  0  1  0  0  0  0  0  0  0  0  0
    9.7993  -16.5552   20.4822 C   0  0  0  0  0  0  0  0  0  0  0  0
    8.5498  -16.8922   19.7453 C   0  0  0  0  0  0  0  0  0  0  0  0
    8.8799  -17.5952   18.4584 C   0  0  0  0  0  0  0  0  0  0  0  0
    7.6655  -17.9910   17.6906 C   0  0  0  0  0  0  0  0  0  0  0  0
    8.0643  -18.4380   16.3637 N   0  0  0  0  0  0  0  0  0  0  0  0
   10.9194  -16.4041   22.6068 C   0  0  0  0  0  0  0  0  0  0  0  0
   11.3428  -15.2726   22.2960 O   0  0  0  0  0  0  0  0  0  0  0  0
    9.8360  -16.7617   29.9137 O   0  0  0  0  0  0  0  0  0  0  0  0
   10.4762  -16.4223   28.7100 C   0  0  0  0  0  0  0  0  0  0  0  0
    9.7860  -16.3069   27.5272 C   0  0  0  0  0  0  0  0  0  0  0  0
   10.3723  -15.9770   26.3265 C   0  0  0  0  0  0  0  0  0  0  0  0
   11.7305  -15.7454   26.2884 C   0  0  0  0  0  0  0  0  0  0  0  0
   12.3821  -15.3963   25.0136 C   0  0  0  0  0  0  0  0  0  0  0  0
   12.8315  -16.5955   24.2091 C   0  0  2  0  0  0  0  0  0  0  0  0
   11.6313  -17.1583   23.5711 N   0  0  0  0  0  0  0  0  0  0  0  0
   13.3971  -17.6317   25.0932 C   0  0  0  0  0  0  0  0  0  0  0  0
   14.5884  -17.4717   25.7898 O   0  0  0  0  0  0  0  0  0  0  0  0
   12.4451  -15.8578   27.4768 C   0  0  0  0  0  0  0  0  0  0  0  0
   11.8344  -16.1905   28.6718 C   0  0  0  0  0  0  0  0  0  0  0  0
   12.7988  -18.7212   25.2443 O   0  0  0  0  0  0  0  0  0  0  0  0
  2  1  1  1
  3  2  1  0
  3  4  1  0
  4  9  2  0
  5  6  2  0
  5  4  1  0
  6  7  1  0
  7  8  2  0
  9  8  1  0
 10 12  1  0
 10  2  1  0
 11 10  2  0
 13 12  1  0
 13 19  1  0
 13 14  1  6
 15 14  1  0
 16 15  1  0
 17 16  1  0
 18 17  1  0
 19 28  1  0
 20 19  2  0
 22 23  2  0
 22 21  1  0
 24 23  1  0
 25 24  2  0
 26 25  1  0
 27 26  1  1
 27 29  1  0
 28 27  1  0
 29 30  1  0
 31 25  1  0
 31 32  2  0
 32 22  1  0
 33 29  2  0
M  END
$$$$
