FKY.pdb
     RDKit          3D

 33 34  0  0  1  0  0  0  0  0999 V2000
    5.5320  -17.3053   24.8463 N   0  0  0  0  0  0  0  0  0  0  0  0
    6.5180  -16.4098   24.3184 C   0  0  1  0  0  0  0  0  0  0  0  0
    7.0672  -15.4694   25.3574 C   0  0  0  0  0  0  0  0  0  0  0  0
    6.4940  -14.1228   25.1064 C   0  0  0  0  0  0  0  0  0  0  0  0
    7.1340  -13.2814   24.2489 C   0  0  0  0  0  0  0  0  0  0  0  0
    6.6219  -12.0335   24.0030 C   0  0  0  0  0  0  0  0  0  0  0  0
    5.4733  -11.6311   24.6142 C   0  0  0  0  0  0  0  0  0  0  0  0
    4.8250  -12.4751   25.4788 C   0  0  0  0  0  0  0  0  0  0  0  0
    5.3433  -13.7204   25.7191 C   0  0  0  0  0  0  0  0  0  0  0  0
    7.6287  -17.1131   23.6252 C   0  0  0  0  0  0  0  0  0  0  0  0
    7.4689  -18.2852   23.2575 O   0  0  0  0  0  0  0  0  0  0  0  0
    8.8809  -16.4491   23.3784 N   0  0  0  0  0  0  0  0  0  0  0  0
    9.8860  -17.0291   22.5123 C   0  0  1  0  0  0  0  0  0  0  0  0
    9.4315  -16.9076   21.0542 C   0  0  0  0  0  0  0  0  0  0  0  0
   10.4412  -17.4694   20.1145 C   0  0  0  0  0  0  0  0  0  0  0  0
    9.9550  -17.3482   18.6974 C   0  0  0  0  0  0  0  0  0  0  0  0
   10.9938  -17.7264   17.6980 C   0  0  0  0  0  0  0  0  0  0  0  0
   10.4429  -17.5808   16.3584 N   0  0  0  0  0  0  0  0  0  0  0  0
   11.1186  -16.2306   22.6311 C   0  0  0  0  0  0  0  0  0  0  0  0
   11.1616  -15.0896   22.1286 O   0  0  0  0  0  0  0  0  0  0  0  0
   11.3904  -15.6459   31.0284 O   0  0  0  0  0  0  0  0  0  0  0  0
   11.3270  -15.8273   29.6366 C   0  0  0  0  0  0  0  0  0  0  0  0
   11.2383  -17.0761   29.0698 C   0  0  0  0  0  0  0  0  0  0  0  0
   11.1740  -17.2996   27.7133 C   0  0  0  0  0  0  0  0  0  0  0  0
   11.1991  -16.2196   26.8572 C   0  0  0  0  0  0  0  0  0  0  0  0
   11.1373  -16.4337   25.4005 C   0  0  0  0  0  0  0  0  0  0  0  0
   12.4870  -16.3931   24.7195 C   0  0  2  0  0  0  0  0  0  0  0  0
   12.2632  -16.7238   23.3036 N   0  0  0  0  0  0  0  0  0  0  0  0
   13.3842  -17.4191   25.2832 C   0  0  0  0  0  0  0  0  0  0  0  0
   14.3753  -17.1361   26.2146 O   0  0  0  0  0  0  0  0  0  0  0  0
   11.2886  -14.9477   27.4138 C   0  0  0  0  0  0  0  0  0  0  0  0
   11.3519  -14.7474   28.7803 C   0  0  0  0  0  0  0  0  0  0  0  0
   13.2737  -18.6136   24.9245 O   0  0  0  0  0  0  0  0  0  0  0  0
  2  1  1  1
  3  2  1  0
  3  4  1  0
  4  9  2  0
  5  6  2  0
  5  4  1  0
  6  7  1  0
  7  8  2  0
  9  8  1  0
 10 12  1  0
 10  2  1  0
 11 10  2  0
 13 12  1  0
 13 19  1  0
 13 14  1  6
 15 14  1  0
 16 15  1  0
 17 16  1  0
 18 17  1  0
 19 28  1  0
 20 19  2  0
 22 23  2  0
 22 21  1  0
 24 23  1  0
 25 24  2  0
 26 25  1  0
 27 26  1  1
 27 29  1  0
 28 27  1  0
 29 30  1  0
 31 25  1  0
 31 32  2  0
 32 22  1  0
 33 29  2  0
M  END
$$$$
