FKY.pdb
     RDKit          3D

 33 34  0  0  1  0  0  0  0  0999 V2000
    5.9301  -17.4197   26.1594 N   0  0  0  0  0  0  0  0  0  0  0  0
    6.4803  -16.1721   25.7190 C   0  0  1  0  0  0  0  0  0  0  0  0
    7.0962  -15.3786   26.8400 C   0  0  0  0  0  0  0  0  0  0  0  0
    6.9115  -13.9368   26.5371 C   0  0  0  0  0  0  0  0  0  0  0  0
    5.6718  -13.3886   26.6625 C   0  0  0  0  0  0  0  0  0  0  0  0
    5.4792  -12.0592   26.3878 C   0  0  0  0  0  0  0  0  0  0  0  0
    6.5249  -11.2829   25.9892 C   0  0  0  0  0  0  0  0  0  0  0  0
    7.7754  -11.8305   25.8615 C   0  0  0  0  0  0  0  0  0  0  0  0
    7.9595  -13.1597   26.1379 C   0  0  0  0  0  0  0  0  0  0  0  0
    7.4530  -16.3274   24.6062 C   0  0  0  0  0  0  0  0  0  0  0  0
    8.3111  -17.2186   24.6703 O   0  0  0  0  0  0  0  0  0  0  0  0
    7.4078  -15.4573   23.4613 N   0  0  0  0  0  0  0  0  0  0  0  0
    8.3132  -15.6302   22.3446 C   0  0  1  0  0  0  0  0  0  0  0  0
    7.8913  -14.7028   21.2004 C   0  0  0  0  0  0  0  0  0  0  0  0
    8.6425  -14.9968   19.9484 C   0  0  0  0  0  0  0  0  0  0  0  0
    8.0684  -14.2118   18.8024 C   0  0  0  0  0  0  0  0  0  0  0  0
    8.6633  -14.5909   17.4896 C   0  0  0  0  0  0  0  0  0  0  0  0
    8.0548  -13.7866   16.4397 N   0  0  0  0  0  0  0  0  0  0  0  0
    9.6558  -15.1900   22.7626 C   0  0  0  0  0  0  0  0  0  0  0  0
    9.8879  -13.9718   22.8977 O   0  0  0  0  0  0  0  0  0  0  0  0
    8.7524  -15.9958   29.1979 O   0  0  0  0  0  0  0  0  0  0  0  0
    9.6184  -16.1271   28.0993 C   0  0  0  0  0  0  0  0  0  0  0  0
   10.2297  -17.3197   27.7943 C   0  0  0  0  0  0  0  0  0  0  0  0
   11.0840  -17.4928   26.7292 C   0  0  0  0  0  0  0  0  0  0  0  0
   11.3547  -16.4184   25.9093 C   0  0  0  0  0  0  0  0  0  0  0  0
   12.2707  -16.5775   24.7660 C   0  0  0  0  0  0  0  0  0  0  0  0
   11.9648  -15.6569   23.6058 C   0  0  2  0  0  0  0  0  0  0  0  0
   10.6970  -16.1156   23.0170 N   0  0  0  0  0  0  0  0  0  0  0  0
   13.0067  -15.7658   22.5675 C   0  0  0  0  0  0  0  0  0  0  0  0
   12.8015  -16.3930   21.3450 O   0  0  0  0  0  0  0  0  0  0  0  0
   10.7443  -15.2032   26.2034 C   0  0  0  0  0  0  0  0  0  0  0  0
    9.8890  -15.0529   27.2792 C   0  0  0  0  0  0  0  0  0  0  0  0
   14.1433  -15.2800   22.7670 O   0  0  0  0  0  0  0  0  0  0  0  0
  2  1  1  1
  3  2  1  0
  3  4  1  0
  4  9  2  0
  5  6  2  0
  5  4  1  0
  6  7  1  0
  7  8  2  0
  9  8  1  0
 10 12  1  0
 10  2  1  0
 11 10  2  0
 13 12  1  0
 13 19  1  0
 13 14  1  6
 15 14  1  0
 16 15  1  0
 17 16  1  0
 18 17  1  0
 19 28  1  0
 20 19  2  0
 22 23  2  0
 22 21  1  0
 24 23  1  0
 25 24  2  0
 26 25  1  0
 27 26  1  1
 27 29  1  0
 28 27  1  0
 29 30  1  0
 31 25  1  0
 31 32  2  0
 32 22  1  0
 33 29  2  0
M  END
$$$$
