FKY.pdb
     RDKit          3D

 33 34  0  0  1  0  0  0  0  0999 V2000
    5.6898  -18.2761   23.8869 N   0  0  0  0  0  0  0  0  0  0  0  0
    6.4935  -17.1007   24.0465 C   0  0  1  0  0  0  0  0  0  0  0  0
    6.1271  -16.3059   25.2711 C   0  0  0  0  0  0  0  0  0  0  0  0
    6.6021  -14.9131   25.0734 C   0  0  0  0  0  0  0  0  0  0  0  0
    6.8330  -14.1324   26.1643 C   0  0  0  0  0  0  0  0  0  0  0  0
    7.2719  -12.8433   26.0043 C   0  0  0  0  0  0  0  0  0  0  0  0
    7.4783  -12.3393   24.7559 C   0  0  0  0  0  0  0  0  0  0  0  0
    7.2471  -13.1218   23.6539 C   0  0  0  0  0  0  0  0  0  0  0  0
    6.8086  -14.4089   23.8225 C   0  0  0  0  0  0  0  0  0  0  0  0
    7.9514  -17.3893   24.0399 C   0  0  0  0  0  0  0  0  0  0  0  0
    8.4209  -18.1616   24.8872 O   0  0  0  0  0  0  0  0  0  0  0  0
    8.8179  -16.7836   23.0641 N   0  0  0  0  0  0  0  0  0  0  0  0
   10.1981  -17.1967   22.9193 C   0  0  1  0  0  0  0  0  0  0  0  0
   10.7355  -16.7087   21.5701 C   0  0  0  0  0  0  0  0  0  0  0  0
   12.0632  -17.3068   21.2577 C   0  0  0  0  0  0  0  0  0  0  0  0
   12.4846  -16.9353   19.8636 C   0  0  0  0  0  0  0  0  0  0  0  0
   13.8183  -17.4908   19.4979 C   0  0  0  0  0  0  0  0  0  0  0  0
   13.6689  -18.8937   19.1389 N   0  0  0  0  0  0  0  0  0  0  0  0
   10.9973  -16.5181   23.9547 C   0  0  0  0  0  0  0  0  0  0  0  0
   11.1346  -15.2790   23.9101 O   0  0  0  0  0  0  0  0  0  0  0  0
    8.0639  -13.2899   29.1299 O   0  0  0  0  0  0  0  0  0  0  0  0
    9.0783  -14.1537   28.6840 C   0  0  0  0  0  0  0  0  0  0  0  0
    8.7963  -15.3305   28.0324 C   0  0  0  0  0  0  0  0  0  0  0  0
    9.7575  -16.2052   27.5791 C   0  0  0  0  0  0  0  0  0  0  0  0
   11.0863  -15.9000   27.7816 C   0  0  0  0  0  0  0  0  0  0  0  0
   12.1335  -16.8235   27.3105 C   0  0  0  0  0  0  0  0  0  0  0  0
   12.5826  -16.5640   25.8899 C   0  0  2  0  0  0  0  0  0  0  0  0
   11.6180  -17.2362   25.0056 N   0  0  0  0  0  0  0  0  0  0  0  0
   13.9078  -17.1637   25.6463 C   0  0  0  0  0  0  0  0  0  0  0  0
   14.1109  -18.2432   24.7957 O   0  0  0  0  0  0  0  0  0  0  0  0
   11.3900  -14.7123   28.4396 C   0  0  0  0  0  0  0  0  0  0  0  0
   10.4072  -13.8486   28.8862 C   0  0  0  0  0  0  0  0  0  0  0  0
   14.9201  -16.7008   26.2196 O   0  0  0  0  0  0  0  0  0  0  0  0
  2  1  1  1
  3  2  1  0
  3  4  1  0
  4  9  2  0
  5  6  2  0
  5  4  1  0
  6  7  1  0
  7  8  2  0
  9  8  1  0
 10 12  1  0
 10  2  1  0
 11 10  2  0
 13 12  1  0
 13 19  1  0
 13 14  1  6
 15 14  1  0
 16 15  1  0
 17 16  1  0
 18 17  1  0
 19 28  1  0
 20 19  2  0
 22 23  2  0
 22 21  1  0
 24 23  1  0
 25 24  2  0
 26 25  1  0
 27 26  1  1
 27 29  1  0
 28 27  1  0
 29 30  1  0
 31 25  1  0
 31 32  2  0
 32 22  1  0
 33 29  2  0
M  END
$$$$
