FKY.pdb
     RDKit          3D

 33 34  0  0  1  0  0  0  0  0999 V2000
    7.6274  -16.4482   19.1292 N   0  0  0  0  0  0  0  0  0  0  0  0
    7.9656  -15.6472   20.2680 C   0  0  1  0  0  0  0  0  0  0  0  0
    6.9456  -14.5774   20.5519 C   0  0  0  0  0  0  0  0  0  0  0  0
    7.4961  -13.6858   21.6039 C   0  0  0  0  0  0  0  0  0  0  0  0
    8.3864  -12.7185   21.2509 C   0  0  0  0  0  0  0  0  0  0  0  0
    8.9071  -11.8844   22.2066 C   0  0  0  0  0  0  0  0  0  0  0  0
    8.5367  -12.0197   23.5102 C   0  0  0  0  0  0  0  0  0  0  0  0
    7.6402  -12.9926   23.8706 C   0  0  0  0  0  0  0  0  0  0  0  0
    7.1246  -13.8219   22.9097 C   0  0  0  0  0  0  0  0  0  0  0  0
    8.2167  -16.4537   21.4908 C   0  0  0  0  0  0  0  0  0  0  0  0
    7.3139  -17.1745   21.9381 O   0  0  0  0  0  0  0  0  0  0  0  0
    9.4913  -16.4055   22.1563 N   0  0  0  0  0  0  0  0  0  0  0  0
    9.8591  -17.3859   23.1564 C   0  0  1  0  0  0  0  0  0  0  0  0
   11.1189  -18.1289   22.7001 C   0  0  0  0  0  0  0  0  0  0  0  0
   10.8710  -18.9264   21.4669 C   0  0  0  0  0  0  0  0  0  0  0  0
   12.1310  -19.6253   21.0390 C   0  0  0  0  0  0  0  0  0  0  0  0
   11.9553  -20.4135   19.7865 C   0  0  0  0  0  0  0  0  0  0  0  0
   13.2340  -20.9958   19.4056 N   0  0  0  0  0  0  0  0  0  0  0  0
   10.2224  -16.6734   24.3939 C   0  0  0  0  0  0  0  0  0  0  0  0
   10.9309  -15.6488   24.3269 O   0  0  0  0  0  0  0  0  0  0  0  0
    5.8695  -11.7888   26.1424 O   0  0  0  0  0  0  0  0  0  0  0  0
    6.6665  -12.8732   26.5462 C   0  0  0  0  0  0  0  0  0  0  0  0
    6.3047  -14.1747   26.2937 C   0  0  0  0  0  0  0  0  0  0  0  0
    7.0543  -15.2658   26.6707 C   0  0  0  0  0  0  0  0  0  0  0  0
    8.2405  -15.0606   27.3419 C   0  0  0  0  0  0  0  0  0  0  0  0
    9.0578  -16.2130   27.7610 C   0  0  0  0  0  0  0  0  0  0  0  0
   10.2675  -16.4541   26.8860 C   0  0  2  0  0  0  0  0  0  0  0  0
    9.7879  -17.1208   25.6654 N   0  0  0  0  0  0  0  0  0  0  0  0
   11.2166  -17.3660   27.5516 C   0  0  0  0  0  0  0  0  0  0  0  0
   12.0635  -16.9676   28.5783 O   0  0  0  0  0  0  0  0  0  0  0  0
    8.6224  -13.7491   27.6059 C   0  0  0  0  0  0  0  0  0  0  0  0
    7.8529  -12.6682   27.2173 C   0  0  0  0  0  0  0  0  0  0  0  0
   11.2878  -18.5646   27.1965 O   0  0  0  0  0  0  0  0  0  0  0  0
  2  1  1  6
  3  2  1  0
  3  4  1  0
  4  9  2  0
  5  6  2  0
  5  4  1  0
  6  7  1  0
  7  8  2  0
  9  8  1  0
 10 12  1  0
 10  2  1  0
 11 10  2  0
 13 12  1  0
 13 19  1  0
 13 14  1  6
 15 14  1  0
 16 15  1  0
 17 16  1  0
 18 17  1  0
 19 28  1  0
 20 19  2  0
 22 23  2  0
 22 21  1  0
 24 23  1  0
 25 24  2  0
 26 25  1  0
 27 26  1  1
 27 29  1  0
 28 27  1  0
 29 30  1  0
 31 25  1  0
 31 32  2  0
 32 22  1  0
 33 29  2  0
M  END
$$$$
