FKY.pdb
     RDKit          3D

 33 34  0  0  1  0  0  0  0  0999 V2000
    5.4510  -17.8669   25.1461 N   0  0  0  0  0  0  0  0  0  0  0  0
    5.9695  -16.5316   25.1140 C   0  0  1  0  0  0  0  0  0  0  0  0
    6.4202  -16.0486   26.4664 C   0  0  0  0  0  0  0  0  0  0  0  0
    6.3598  -14.5650   26.4675 C   0  0  0  0  0  0  0  0  0  0  0  0
    7.5152  -13.8564   26.3416 C   0  0  0  0  0  0  0  0  0  0  0  0
    7.4821  -12.4856   26.3402 C   0  0  0  0  0  0  0  0  0  0  0  0
    6.2957  -11.8284   26.4645 C   0  0  0  0  0  0  0  0  0  0  0  0
    5.1292  -12.5378   26.5915 C   0  0  0  0  0  0  0  0  0  0  0  0
    5.1710  -13.9073   26.5920 C   0  0  0  0  0  0  0  0  0  0  0  0
    7.0583  -16.3558   24.1177 C   0  0  0  0  0  0  0  0  0  0  0  0
    7.9593  -17.2031   24.0477 O   0  0  0  0  0  0  0  0  0  0  0  0
    7.0756  -15.2170   23.2387 N   0  0  0  0  0  0  0  0  0  0  0  0
    8.1023  -15.0565   22.2302 C   0  0  1  0  0  0  0  0  0  0  0  0
    7.9294  -13.6991   21.5409 C   0  0  0  0  0  0  0  0  0  0  0  0
    8.9589  -13.4823   20.4868 C   0  0  0  0  0  0  0  0  0  0  0  0
    8.5093  -14.0927   19.1890 C   0  0  0  0  0  0  0  0  0  0  0  0
    9.5022  -13.9107   18.0926 C   0  0  0  0  0  0  0  0  0  0  0  0
    9.0480  -14.6325   16.9127 N   0  0  0  0  0  0  0  0  0  0  0  0
    9.4124  -15.0167   22.9032 C   0  0  0  0  0  0  0  0  0  0  0  0
    9.8330  -13.9367   23.3646 O   0  0  0  0  0  0  0  0  0  0  0  0
   10.0744  -13.9835   29.2692 O   0  0  0  0  0  0  0  0  0  0  0  0
   10.5072  -14.6897   28.1342 C   0  0  0  0  0  0  0  0  0  0  0  0
   11.6093  -14.2992   27.4119 C   0  0  0  0  0  0  0  0  0  0  0  0
   12.0679  -14.9605   26.2954 C   0  0  0  0  0  0  0  0  0  0  0  0
   11.3951  -16.0823   25.8610 C   0  0  0  0  0  0  0  0  0  0  0  0
   11.8634  -16.8042   24.6646 C   0  0  0  0  0  0  0  0  0  0  0  0
   11.6417  -16.0518   23.3716 C   0  0  2  0  0  0  0  0  0  0  0  0
   10.2133  -16.1764   23.0425 N   0  0  0  0  0  0  0  0  0  0  0  0
   12.4102  -16.6678   22.2738 C   0  0  0  0  0  0  0  0  0  0  0  0
   11.8166  -17.3240   21.2028 O   0  0  0  0  0  0  0  0  0  0  0  0
   10.2770  -16.4921   26.5805 C   0  0  0  0  0  0  0  0  0  0  0  0
    9.8346  -15.8116   27.6997 C   0  0  0  0  0  0  0  0  0  0  0  0
   13.6612  -16.6150   22.2781 O   0  0  0  0  0  0  0  0  0  0  0  0
  2  1  1  1
  3  2  1  0
  3  4  1  0
  4  9  2  0
  5  6  2  0
  5  4  1  0
  6  7  1  0
  7  8  2  0
  9  8  1  0
 10 12  1  0
 10  2  1  0
 11 10  2  0
 13 12  1  0
 13 19  1  0
 13 14  1  1
 15 14  1  0
 16 15  1  0
 17 16  1  0
 18 17  1  0
 19 28  1  0
 20 19  2  0
 22 23  2  0
 22 21  1  0
 24 23  1  0
 25 24  2  0
 26 25  1  0
 27 26  1  1
 27 29  1  0
 28 27  1  0
 29 30  1  0
 31 25  1  0
 31 32  2  0
 32 22  1  0
 33 29  2  0
M  END
$$$$
