FKY.pdb
     RDKit          3D

 33 34  0  0  1  0  0  0  0  0999 V2000
    6.8776  -17.2918   25.9633 N   0  0  0  0  0  0  0  0  0  0  0  0
    6.4497  -16.8725   24.6618 C   0  0  1  0  0  0  0  0  0  0  0  0
    5.4868  -15.7166   24.7091 C   0  0  0  0  0  0  0  0  0  0  0  0
    6.2097  -14.5388   25.2522 C   0  0  0  0  0  0  0  0  0  0  0  0
    6.1784  -14.3046   26.5927 C   0  0  0  0  0  0  0  0  0  0  0  0
    6.8391  -13.2227   27.1152 C   0  0  0  0  0  0  0  0  0  0  0  0
    7.5281  -12.3794   26.2971 C   0  0  0  0  0  0  0  0  0  0  0  0
    7.5625  -12.6112   24.9461 C   0  0  0  0  0  0  0  0  0  0  0  0
    6.8996  -13.6945   24.4320 C   0  0  0  0  0  0  0  0  0  0  0  0
    7.5822  -16.5594   23.7517 C   0  0  0  0  0  0  0  0  0  0  0  0
    8.6340  -17.2070   23.8468 O   0  0  0  0  0  0  0  0  0  0  0  0
    7.4691  -15.5171   22.7664 N   0  0  0  0  0  0  0  0  0  0  0  0
    8.3538  -15.4603   21.6216 C   0  0  1  0  0  0  0  0  0  0  0  0
    7.9313  -14.3037   20.7100 C   0  0  0  0  0  0  0  0  0  0  0  0
    8.6351  -14.3515   19.3983 C   0  0  0  0  0  0  0  0  0  0  0  0
    8.0656  -13.3193   18.4660 C   0  0  0  0  0  0  0  0  0  0  0  0
    8.7056  -13.3432   17.1203 C   0  0  0  0  0  0  0  0  0  0  0  0
    8.5668  -14.6752   16.5493 N   0  0  0  0  0  0  0  0  0  0  0  0
    9.7105  -15.1391   22.0984 C   0  0  0  0  0  0  0  0  0  0  0  0
   10.1489  -13.9787   21.9660 O   0  0  0  0  0  0  0  0  0  0  0  0
   11.1452  -15.1932   30.4837 O   0  0  0  0  0  0  0  0  0  0  0  0
   10.8258  -15.3584   29.1255 C   0  0  0  0  0  0  0  0  0  0  0  0
   10.5694  -14.2871   28.3037 C   0  0  0  0  0  0  0  0  0  0  0  0
   10.2531  -14.4029   26.9692 C   0  0  0  0  0  0  0  0  0  0  0  0
   10.1846  -15.6592   26.4063 C   0  0  0  0  0  0  0  0  0  0  0  0
    9.8422  -15.8093   24.9809 C   0  0  0  0  0  0  0  0  0  0  0  0
   11.0460  -15.9056   24.0706 C   0  0  2  0  0  0  0  0  0  0  0  0
   10.5365  -16.1156   22.7065 N   0  0  0  0  0  0  0  0  0  0  0  0
   11.8731  -17.0742   24.4251 C   0  0  0  0  0  0  0  0  0  0  0  0
   12.9748  -17.0003   25.2682 O   0  0  0  0  0  0  0  0  0  0  0  0
   10.4413  -16.7554   27.2237 C   0  0  0  0  0  0  0  0  0  0  0  0
   10.7574  -16.6147   28.5623 C   0  0  0  0  0  0  0  0  0  0  0  0
   11.5958  -18.2027   23.9591 O   0  0  0  0  0  0  0  0  0  0  0  0
  2  1  1  1
  3  2  1  0
  3  4  1  0
  4  9  2  0
  5  6  2  0
  5  4  1  0
  6  7  1  0
  7  8  2  0
  9  8  1  0
 10 12  1  0
 10  2  1  0
 11 10  2  0
 13 12  1  0
 13 19  1  0
 13 14  1  6
 15 14  1  0
 16 15  1  0
 17 16  1  0
 18 17  1  0
 19 28  1  0
 20 19  2  0
 22 23  2  0
 22 21  1  0
 24 23  1  0
 25 24  2  0
 26 25  1  0
 27 26  1  1
 27 29  1  0
 28 27  1  0
 29 30  1  0
 31 25  1  0
 31 32  2  0
 32 22  1  0
 33 29  2  0
M  END
$$$$
