FKY.pdb
     RDKit          3D

 33 34  0  0  1  0  0  0  0  0999 V2000
    5.7368  -17.6218   25.9096 N   0  0  0  0  0  0  0  0  0  0  0  0
    6.2534  -16.3332   25.5555 C   0  0  1  0  0  0  0  0  0  0  0  0
    6.7767  -15.5689   26.7419 C   0  0  0  0  0  0  0  0  0  0  0  0
    6.5606  -14.1220   26.4875 C   0  0  0  0  0  0  0  0  0  0  0  0
    7.6417  -13.3076   26.3434 C   0  0  0  0  0  0  0  0  0  0  0  0
    7.4646  -11.9685   26.1079 C   0  0  0  0  0  0  0  0  0  0  0  0
    6.2090  -11.4484   26.0174 C   0  0  0  0  0  0  0  0  0  0  0  0
    5.1169  -12.2648   26.1618 C   0  0  0  0  0  0  0  0  0  0  0  0
    5.3025  -13.6018   26.3969 C   0  0  0  0  0  0  0  0  0  0  0  0
    7.2869  -16.3953   24.4892 C   0  0  0  0  0  0  0  0  0  0  0  0
    8.1710  -17.2609   24.5510 O   0  0  0  0  0  0  0  0  0  0  0  0
    7.2703  -15.4649   23.3920 N   0  0  0  0  0  0  0  0  0  0  0  0
    8.2571  -15.5264   22.3342 C   0  0  1  0  0  0  0  0  0  0  0  0
    7.9414  -14.4582   21.2822 C   0  0  0  0  0  0  0  0  0  0  0  0
    8.8422  -14.5659   20.1011 C   0  0  0  0  0  0  0  0  0  0  0  0
    8.3794  -13.6419   19.0097 C   0  0  0  0  0  0  0  0  0  0  0  0
    9.1190  -13.8444   17.7318 C   0  0  0  0  0  0  0  0  0  0  0  0
    8.5437  -12.9862   16.7061 N   0  0  0  0  0  0  0  0  0  0  0  0
    9.5701  -15.1743   22.9026 C   0  0  0  0  0  0  0  0  0  0  0  0
    9.7784  -14.0067   23.2893 O   0  0  0  0  0  0  0  0  0  0  0  0
    9.2862  -15.6174   29.3718 O   0  0  0  0  0  0  0  0  0  0  0  0
   10.0400  -15.8561   28.2104 C   0  0  0  0  0  0  0  0  0  0  0  0
    9.5516  -16.6080   27.1688 C   0  0  0  0  0  0  0  0  0  0  0  0
   10.2548  -16.8666   26.0142 C   0  0  0  0  0  0  0  0  0  0  0  0
   11.5250  -16.3496   25.8765 C   0  0  0  0  0  0  0  0  0  0  0  0
   12.2999  -16.6174   24.6520 C   0  0  0  0  0  0  0  0  0  0  0  0
   11.9407  -15.7152   23.4926 C   0  0  2  0  0  0  0  0  0  0  0  0
   10.6091  -16.1290   23.0236 N   0  0  0  0  0  0  0  0  0  0  0  0
   12.8870  -15.9016   22.3768 C   0  0  0  0  0  0  0  0  0  0  0  0
   12.5289  -16.4705   21.1610 O   0  0  0  0  0  0  0  0  0  0  0  0
   12.0353  -15.5857   26.9214 C   0  0  0  0  0  0  0  0  0  0  0  0
   11.3102  -15.3389   28.0724 C   0  0  0  0  0  0  0  0  0  0  0  0
   14.0797  -15.5407   22.4996 O   0  0  0  0  0  0  0  0  0  0  0  0
  2  1  1  1
  3  2  1  0
  3  4  1  0
  4  9  2  0
  5  6  2  0
  5  4  1  0
  6  7  1  0
  7  8  2  0
  9  8  1  0
 10 12  1  0
 10  2  1  0
 11 10  2  0
 13 12  1  0
 13 19  1  0
 13 14  1  6
 15 14  1  0
 16 15  1  0
 17 16  1  0
 18 17  1  0
 19 28  1  0
 20 19  2  0
 22 23  2  0
 22 21  1  0
 24 23  1  0
 25 24  2  0
 26 25  1  0
 27 26  1  1
 27 29  1  0
 28 27  1  0
 29 30  1  0
 31 25  1  0
 31 32  2  0
 32 22  1  0
 33 29  2  0
M  END
$$$$
