FKY.pdb
     RDKit          3D

 33 34  0  0  1  0  0  0  0  0999 V2000
    5.4608  -16.3413   20.9620 N   0  0  0  0  0  0  0  0  0  0  0  0
    6.5033  -16.1052   21.9162 C   0  0  1  0  0  0  0  0  0  0  0  0
    6.6287  -14.6540   22.2954 C   0  0  0  0  0  0  0  0  0  0  0  0
    7.2330  -13.9304   21.1484 C   0  0  0  0  0  0  0  0  0  0  0  0
    6.4747  -13.0354   20.4579 C   0  0  0  0  0  0  0  0  0  0  0  0
    7.0131  -12.3564   19.3953 C   0  0  0  0  0  0  0  0  0  0  0  0
    8.3061  -12.5738   19.0268 C   0  0  0  0  0  0  0  0  0  0  0  0
    9.0740  -13.4743   19.7192 C   0  0  0  0  0  0  0  0  0  0  0  0
    8.5284  -14.1487   20.7798 C   0  0  0  0  0  0  0  0  0  0  0  0
    6.3745  -16.9446   23.1358 C   0  0  0  0  0  0  0  0  0  0  0  0
    5.4514  -16.7214   23.9314 O   0  0  0  0  0  0  0  0  0  0  0  0
    7.3066  -18.0082   23.4000 N   0  0  0  0  0  0  0  0  0  0  0  0
    7.3698  -18.6534   24.6948 C   0  0  1  0  0  0  0  0  0  0  0  0
    7.8374  -20.1017   24.5183 C   0  0  0  0  0  0  0  0  0  0  0  0
    6.8954  -20.8846   23.6711 C   0  0  0  0  0  0  0  0  0  0  0  0
    7.4357  -22.2674   23.4362 C   0  0  0  0  0  0  0  0  0  0  0  0
    6.5654  -23.0812   22.5411 C   0  0  0  0  0  0  0  0  0  0  0  0
    7.1866  -24.3796   22.3228 N   0  0  0  0  0  0  0  0  0  0  0  0
    8.4028  -17.9786   25.5002 C   0  0  0  0  0  0  0  0  0  0  0  0
    9.3953  -17.4800   24.9324 O   0  0  0  0  0  0  0  0  0  0  0  0
    8.2819  -11.2030   24.7036 O   0  0  0  0  0  0  0  0  0  0  0  0
    8.2365  -12.3303   25.5410 C   0  0  0  0  0  0  0  0  0  0  0  0
    9.2293  -13.2806   25.5348 C   0  0  0  0  0  0  0  0  0  0  0  0
    9.2252  -14.3988   26.3372 C   0  0  0  0  0  0  0  0  0  0  0  0
    8.1716  -14.5942   27.2041 C   0  0  0  0  0  0  0  0  0  0  0  0
    8.1418  -15.7868   28.0693 C   0  0  0  0  0  0  0  0  0  0  0  0
    9.0957  -16.8781   27.6378 C   0  0  2  0  0  0  0  0  0  0  0  0
    8.3010  -17.8791   26.9092 N   0  0  0  0  0  0  0  0  0  0  0  0
    9.6882  -17.5446   28.8126 C   0  0  0  0  0  0  0  0  0  0  0  0
    9.4034  -18.8570   29.1682 O   0  0  0  0  0  0  0  0  0  0  0  0
    7.1575  -13.6418   27.2237 C   0  0  0  0  0  0  0  0  0  0  0  0
    7.1831  -12.5257   26.4082 C   0  0  0  0  0  0  0  0  0  0  0  0
   10.4905  -16.9241   29.5467 O   0  0  0  0  0  0  0  0  0  0  0  0
  2  1  1  6
  3  2  1  0
  3  4  1  0
  4  9  2  0
  5  6  2  0
  5  4  1  0
  6  7  1  0
  7  8  2  0
  9  8  1  0
 10 12  1  0
 10  2  1  0
 11 10  2  0
 13 12  1  0
 13 19  1  0
 13 14  1  6
 15 14  1  0
 16 15  1  0
 17 16  1  0
 18 17  1  0
 19 28  1  0
 20 19  2  0
 22 23  2  0
 22 21  1  0
 24 23  1  0
 25 24  2  0
 26 25  1  0
 27 26  1  1
 27 29  1  0
 28 27  1  0
 29 30  1  0
 31 25  1  0
 31 32  2  0
 32 22  1  0
 33 29  2  0
M  END
$$$$
