LLF.pdb
     RDKit          3D

 28 28  0  0  1  0  0  0  0  0999 V2000
    6.4293  -21.1926   21.7830 C   0  0  0  0  0  0  0  0  0  0  0  0
    7.8823  -20.9899   21.3764 C   0  0  2  0  0  0  0  0  0  0  0  0
    8.6884  -22.1989   21.8077 C   0  0  0  0  0  0  0  0  0  0  0  0
    8.4390  -19.7173   21.9792 C   0  0  0  0  0  0  0  0  0  0  0  0
    7.6771  -18.5304   21.4280 C   0  0  2  0  0  0  0  0  0  0  0  0
    7.7743  -18.5055   20.0078 N   0  0  0  0  0  0  0  0  0  0  0  0
    8.0974  -17.2624   22.0032 C   0  0  0  0  0  0  0  0  0  0  0  0
    9.1465  -16.6466   21.5245 O   0  0  0  0  0  0  0  0  0  0  0  0
    7.6593  -12.3581   24.3856 C   0  0  0  0  0  0  0  0  0  0  0  0
    7.3810  -13.5437   25.2622 C   0  0  1  0  0  0  0  0  0  0  0  0
    6.2341  -13.1260   26.2025 C   0  0  0  0  0  0  0  0  0  0  0  0
    6.9862  -14.7777   24.5813 C   0  0  0  0  0  0  0  0  0  0  0  0
    7.9954  -15.3910   23.6366 C   0  0  2  0  0  0  0  0  0  0  0  0
    7.4547  -16.6201   23.0606 N   0  0  0  0  0  0  0  0  0  0  0  0
    9.2853  -15.7127   24.2202 C   0  0  0  0  0  0  0  0  0  0  0  0
   10.3297  -15.2182   23.7151 O   0  0  0  0  0  0  0  0  0  0  0  0
    9.5023  -16.5550   25.3535 N   0  0  0  0  0  0  0  0  0  0  0  0
   10.8705  -16.8987   25.7324 C   0  0  1  0  0  0  0  0  0  0  0  0
   11.5434  -15.6088   26.2628 C   0  0  0  0  0  0  0  0  0  0  0  0
   10.8720  -15.1121   27.4616 C   0  0  0  0  0  0  0  0  0  0  0  0
   10.1071  -13.9509   27.3477 C   0  0  0  0  0  0  0  0  0  0  0  0
    9.4367  -13.5003   28.4713 C   0  0  0  0  0  0  0  0  0  0  0  0
    9.5032  -14.1529   29.6705 C   0  0  0  0  0  0  0  0  0  0  0  0
   10.2663  -15.3106   29.7838 C   0  0  0  0  0  0  0  0  0  0  0  0
   10.9344  -15.7631   28.6711 C   0  0  0  0  0  0  0  0  0  0  0  0
   10.8981  -17.9117   26.7848 C   0  0  0  0  0  0  0  0  0  0  0  0
    9.7411  -18.5099   27.3322 O   0  0  0  0  0  0  0  0  0  0  0  0
   11.9689  -18.3586   27.3166 O   0  0  0  0  0  0  0  0  0  0  0  0
  2  1  1  1
  3  2  1  0
  4  2  1  0
  5  4  1  0
  5  6  1  6
  7  8  2  0
  7  5  1  0
 10  9  1  6
 10 12  1  0
 11 10  1  0
 13 12  1  1
 13 14  1  0
 14  7  1  0
 15 13  1  0
 15 17  1  0
 16 15  2  0
 18 17  1  0
 18 26  1  0
 18 19  1  1
 20 19  1  0
 20 21  2  0
 22 21  1  0
 23 22  2  0
 24 25  2  0
 24 23  1  0
 25 20  1  0
 26 28  2  0
 26 27  1  0
M  END
$$$$
