LLF.pdb
     RDKit          3D

 28 28  0  0  1  0  0  0  0  0999 V2000
    5.0867  -20.3025   23.4698 C   0  0  0  0  0  0  0  0  0  0  0  0
    6.4233  -20.9130   23.8683 C   0  0  2  0  0  0  0  0  0  0  0  0
    6.3880  -21.2572   25.3440 C   0  0  0  0  0  0  0  0  0  0  0  0
    7.5635  -19.9676   23.5538 C   0  0  0  0  0  0  0  0  0  0  0  0
    7.4268  -19.4797   22.1268 C   0  0  2  0  0  0  0  0  0  0  0  0
    7.8913  -20.4777   21.2238 N   0  0  0  0  0  0  0  0  0  0  0  0
    8.0930  -18.2089   21.8893 C   0  0  0  0  0  0  0  0  0  0  0  0
    9.3632  -18.1876   21.5809 O   0  0  0  0  0  0  0  0  0  0  0  0
    8.9298  -13.2271   20.0304 C   0  0  0  0  0  0  0  0  0  0  0  0
    7.9925  -13.2951   21.2002 C   0  0  1  0  0  0  0  0  0  0  0  0
    6.8893  -12.2538   20.9309 C   0  0  0  0  0  0  0  0  0  0  0  0
    7.3502  -14.5874   21.4448 C   0  0  0  0  0  0  0  0  0  0  0  0
    8.2474  -15.7277   21.8712 C   0  0  2  0  0  0  0  0  0  0  0  0
    7.4722  -16.9627   21.9635 N   0  0  0  0  0  0  0  0  0  0  0  0
    8.9323  -15.5461   23.1384 C   0  0  0  0  0  0  0  0  0  0  0  0
    9.9585  -14.8144   23.1839 O   0  0  0  0  0  0  0  0  0  0  0  0
    8.5462  -16.1240   24.3865 N   0  0  0  0  0  0  0  0  0  0  0  0
    9.3177  -15.8073   25.5857 C   0  0  1  0  0  0  0  0  0  0  0  0
    8.3088  -15.5349   26.7285 C   0  0  0  0  0  0  0  0  0  0  0  0
    7.6498  -14.2418   26.5601 C   0  0  0  0  0  0  0  0  0  0  0  0
    8.3968  -13.0907   26.8117 C   0  0  0  0  0  0  0  0  0  0  0  0
    7.7883  -11.8638   26.6139 C   0  0  0  0  0  0  0  0  0  0  0  0
    6.4951  -11.7520   26.1851 C   0  0  0  0  0  0  0  0  0  0  0  0
    5.7504  -12.9002   25.9347 C   0  0  0  0  0  0  0  0  0  0  0  0
    6.3496  -14.1218   26.1292 C   0  0  0  0  0  0  0  0  0  0  0  0
   10.1836  -16.9174   25.9762 C   0  0  0  0  0  0  0  0  0  0  0  0
   11.1109  -16.8559   27.0404 O   0  0  0  0  0  0  0  0  0  0  0  0
   10.1909  -18.0544   25.3962 O   0  0  0  0  0  0  0  0  0  0  0  0
  2  1  1  1
  3  2  1  0
  4  2  1  0
  5  4  1  0
  5  6  1  6
  7  8  2  0
  7  5  1  0
 10  9  1  6
 10 12  1  0
 11 10  1  0
 13 12  1  1
 13 14  1  0
 14  7  1  0
 15 13  1  0
 15 17  1  0
 16 15  2  0
 18 17  1  0
 18 26  1  0
 18 19  1  1
 20 19  1  0
 20 21  2  0
 22 21  1  0
 23 22  2  0
 24 25  2  0
 24 23  1  0
 25 20  1  0
 26 28  2  0
 26 27  1  0
M  END
$$$$
