LLF.pdb
     RDKit          3D

 28 28  0  0  1  0  0  0  0  0999 V2000
    4.8256  -20.3008   22.0424 C   0  0  0  0  0  0  0  0  0  0  0  0
    6.2522  -20.8123   22.1872 C   0  0  2  0  0  0  0  0  0  0  0  0
    6.3005  -21.8271   23.3120 C   0  0  0  0  0  0  0  0  0  0  0  0
    7.2124  -19.6690   22.4397 C   0  0  0  0  0  0  0  0  0  0  0  0
    7.5196  -18.9777   21.1280 C   0  0  2  0  0  0  0  0  0  0  0  0
    8.0977  -19.9029   20.2131 N   0  0  0  0  0  0  0  0  0  0  0  0
    8.3606  -17.8013   21.2834 C   0  0  0  0  0  0  0  0  0  0  0  0
    9.6607  -17.9163   21.2089 O   0  0  0  0  0  0  0  0  0  0  0  0
    6.6434  -12.6888   19.9757 C   0  0  0  0  0  0  0  0  0  0  0  0
    7.5291  -13.8871   20.1527 C   0  0  1  0  0  0  0  0  0  0  0  0
    8.6935  -13.7143   19.1587 C   0  0  0  0  0  0  0  0  0  0  0  0
    8.0948  -14.0862   21.4879 C   0  0  0  0  0  0  0  0  0  0  0  0
    8.8023  -15.3983   21.7427 C   0  0  2  0  0  0  0  0  0  0  0  0
    7.8841  -16.5113   21.5128 N   0  0  0  0  0  0  0  0  0  0  0  0
    9.3615  -15.5608   23.0726 C   0  0  0  0  0  0  0  0  0  0  0  0
   10.5560  -15.2159   23.2842 O   0  0  0  0  0  0  0  0  0  0  0  0
    8.6721  -16.0817   24.2103 N   0  0  0  0  0  0  0  0  0  0  0  0
    9.3890  -16.2163   25.4759 C   0  0  1  0  0  0  0  0  0  0  0  0
    9.7071  -14.7883   25.9835 C   0  0  0  0  0  0  0  0  0  0  0  0
    8.4913  -13.9910   26.1273 C   0  0  0  0  0  0  0  0  0  0  0  0
    7.2962  -14.5312   25.6513 C   0  0  0  0  0  0  0  0  0  0  0  0
    6.1362  -13.7965   25.8225 C   0  0  0  0  0  0  0  0  0  0  0  0
    6.1306  -12.5751   26.4361 C   0  0  0  0  0  0  0  0  0  0  0  0
    7.3225  -12.0365   26.9103 C   0  0  0  0  0  0  0  0  0  0  0  0
    8.4781  -12.7618   26.7433 C   0  0  0  0  0  0  0  0  0  0  0  0
    8.5813  -16.9045   26.4802 C   0  0  0  0  0  0  0  0  0  0  0  0
    9.0047  -17.1346   27.8083 O   0  0  0  0  0  0  0  0  0  0  0  0
    7.4124  -17.3677   26.2603 O   0  0  0  0  0  0  0  0  0  0  0  0
  2  1  1  1
  3  2  1  0
  4  2  1  0
  5  4  1  0
  5  6  1  6
  7  8  2  0
  7  5  1  0
 10  9  1  1
 10 12  1  0
 11 10  1  0
 13 12  1  1
 13 14  1  0
 14  7  1  0
 15 13  1  0
 15 17  1  0
 16 15  2  0
 18 17  1  0
 18 26  1  0
 18 19  1  1
 20 19  1  0
 20 21  2  0
 22 21  1  0
 23 22  2  0
 24 25  2  0
 24 23  1  0
 25 20  1  0
 26 28  2  0
 26 27  1  0
M  END
$$$$
