LLF.pdb
     RDKit          3D

 28 28  0  0  1  0  0  0  0  0999 V2000
    7.3872  -21.2872   20.0599 C   0  0  0  0  0  0  0  0  0  0  0  0
    8.3070  -21.0086   21.2408 C   0  0  2  0  0  0  0  0  0  0  0  0
    7.9351  -21.9316   22.3841 C   0  0  0  0  0  0  0  0  0  0  0  0
    8.2221  -19.5560   21.6599 C   0  0  0  0  0  0  0  0  0  0  0  0
    8.6184  -18.6769   20.4924 C   0  0  2  0  0  0  0  0  0  0  0  0
    9.5381  -19.3669   19.6527 N   0  0  0  0  0  0  0  0  0  0  0  0
    9.1506  -17.3866   20.9015 C   0  0  0  0  0  0  0  0  0  0  0  0
   10.4439  -17.2049   20.9595 O   0  0  0  0  0  0  0  0  0  0  0  0
    6.7936  -12.6470   19.6087 C   0  0  0  0  0  0  0  0  0  0  0  0
    7.8059  -13.7023   19.9451 C   0  0  1  0  0  0  0  0  0  0  0  0
    9.0967  -13.3167   19.1976 C   0  0  0  0  0  0  0  0  0  0  0  0
    8.1307  -13.8634   21.3632 C   0  0  0  0  0  0  0  0  0  0  0  0
    8.9885  -15.0512   21.7381 C   0  0  2  0  0  0  0  0  0  0  0  0
    8.3730  -16.2831   21.2500 N   0  0  0  0  0  0  0  0  0  0  0  0
    9.2381  -15.2205   23.1583 C   0  0  0  0  0  0  0  0  0  0  0  0
   10.0833  -14.4774   23.7274 O   0  0  0  0  0  0  0  0  0  0  0  0
    8.5967  -16.1701   24.0114 N   0  0  0  0  0  0  0  0  0  0  0  0
    8.9305  -16.1879   25.4333 C   0  0  1  0  0  0  0  0  0  0  0  0
    7.6213  -15.9358   26.2209 C   0  0  0  0  0  0  0  0  0  0  0  0
    7.3209  -14.5089   26.3120 C   0  0  0  0  0  0  0  0  0  0  0  0
    6.0151  -14.0981   26.0427 C   0  0  0  0  0  0  0  0  0  0  0  0
    5.7172  -12.7526   26.1679 C   0  0  0  0  0  0  0  0  0  0  0  0
    6.6539  -11.8303   26.5426 C   0  0  0  0  0  0  0  0  0  0  0  0
    7.9561  -12.2402   26.8107 C   0  0  0  0  0  0  0  0  0  0  0  0
    8.2579  -13.5756   26.6882 C   0  0  0  0  0  0  0  0  0  0  0  0
    9.4836  -17.4779   25.8391 C   0  0  0  0  0  0  0  0  0  0  0  0
    9.7226  -18.5475   24.9475 O   0  0  0  0  0  0  0  0  0  0  0  0
    9.8066  -17.7697   27.0390 O   0  0  0  0  0  0  0  0  0  0  0  0
  2  1  1  6
  3  2  1  0
  4  2  1  0
  5  4  1  0
  5  6  1  1
  7  8  2  0
  7  5  1  0
 10  9  1  1
 10 12  1  0
 11 10  1  0
 13 12  1  1
 13 14  1  0
 14  7  1  0
 15 13  1  0
 15 17  1  0
 16 15  2  0
 18 17  1  0
 18 26  1  0
 18 19  1  1
 20 19  1  0
 20 21  2  0
 22 21  1  0
 23 22  2  0
 24 25  2  0
 24 23  1  0
 25 20  1  0
 26 28  2  0
 26 27  1  0
M  END
$$$$
