LLF.pdb
     RDKit          3D

 28 28  0  0  1  0  0  0  0  0999 V2000
    8.8413  -13.4153   19.2588 C   0  0  0  0  0  0  0  0  0  0  0  0
    7.4811  -13.6196   19.9116 C   0  0  2  0  0  0  0  0  0  0  0  0
    6.8176  -12.2701   20.1016 C   0  0  0  0  0  0  0  0  0  0  0  0
    7.6197  -14.3520   21.2296 C   0  0  0  0  0  0  0  0  0  0  0  0
    8.3202  -15.6736   20.9937 C   0  0  2  0  0  0  0  0  0  0  0  0
    7.4712  -16.5516   20.2620 N   0  0  0  0  0  0  0  0  0  0  0  0
    8.7889  -16.3005   22.2196 C   0  0  0  0  0  0  0  0  0  0  0  0
    7.9467  -16.9448   22.9842 O   0  0  0  0  0  0  0  0  0  0  0  0
   13.3393  -19.0966   22.0462 C   0  0  0  0  0  0  0  0  0  0  0  0
   11.9623  -18.6785   22.4711 C   0  0  1  0  0  0  0  0  0  0  0  0
   11.2494  -19.9591   22.9464 C   0  0  0  0  0  0  0  0  0  0  0  0
   11.8859  -17.6881   23.5460 C   0  0  0  0  0  0  0  0  0  0  0  0
   10.5303  -17.0745   23.8161 C   0  0  2  0  0  0  0  0  0  0  0  0
   10.1087  -16.2749   22.6683 N   0  0  0  0  0  0  0  0  0  0  0  0
   10.4491  -16.2272   24.9923 C   0  0  0  0  0  0  0  0  0  0  0  0
   11.0871  -15.1395   25.0124 O   0  0  0  0  0  0  0  0  0  0  0  0
    9.6873  -16.5029   26.1689 N   0  0  0  0  0  0  0  0  0  0  0  0
   10.0458  -15.8393   27.4198 C   0  0  1  0  0  0  0  0  0  0  0  0
    8.7604  -15.1846   27.9831 C   0  0  0  0  0  0  0  0  0  0  0  0
    8.3723  -14.0134   27.2006 C   0  0  0  0  0  0  0  0  0  0  0  0
    7.3894  -14.1772   26.2241 C   0  0  0  0  0  0  0  0  0  0  0  0
    6.9902  -13.0617   25.5092 C   0  0  0  0  0  0  0  0  0  0  0  0
    7.5250  -11.8235   25.7312 C   0  0  0  0  0  0  0  0  0  0  0  0
    8.5054  -11.6607   26.7048 C   0  0  0  0  0  0  0  0  0  0  0  0
    8.9059  -12.7650   27.4184 C   0  0  0  0  0  0  0  0  0  0  0  0
   10.5609  -16.7890   28.4033 C   0  0  0  0  0  0  0  0  0  0  0  0
   11.1104  -16.4119   29.6491 O   0  0  0  0  0  0  0  0  0  0  0  0
   10.5673  -18.0545   28.2374 O   0  0  0  0  0  0  0  0  0  0  0  0
  2  1  1  1
  3  2  1  0
  4  2  1  0
  5  4  1  0
  5  6  1  1
  7  8  2  0
  7  5  1  0
 10  9  1  1
 10 12  1  0
 11 10  1  0
 13 12  1  6
 13 14  1  0
 14  7  1  0
 15 13  1  0
 15 17  1  0
 16 15  2  0
 18 17  1  0
 18 26  1  0
 18 19  1  1
 20 19  1  0
 20 21  2  0
 22 21  1  0
 23 22  2  0
 24 25  2  0
 24 23  1  0
 25 20  1  0
 26 28  2  0
 26 27  1  0
M  END
$$$$
