LLF.pdb
     RDKit          3D

 28 28  0  0  1  0  0  0  0  0999 V2000
   13.3743  -19.5422   17.6674 C   0  0  0  0  0  0  0  0  0  0  0  0
   12.0683  -19.4812   18.4474 C   0  0  2  0  0  0  0  0  0  0  0  0
   10.9304  -19.8997   17.5378 C   0  0  0  0  0  0  0  0  0  0  0  0
   11.8390  -18.0935   19.0082 C   0  0  0  0  0  0  0  0  0  0  0  0
   10.8563  -18.1768   20.1572 C   0  0  2  0  0  0  0  0  0  0  0  0
    9.6222  -18.7238   19.7046 N   0  0  0  0  0  0  0  0  0  0  0  0
   10.6489  -16.9027   20.8274 C   0  0  0  0  0  0  0  0  0  0  0  0
   11.6769  -16.2158   21.2520 O   0  0  0  0  0  0  0  0  0  0  0  0
    6.1367  -13.6455   19.9738 C   0  0  0  0  0  0  0  0  0  0  0  0
    7.5511  -14.0937   20.1981 C   0  0  1  0  0  0  0  0  0  0  0  0
    8.4495  -12.9134   19.7815 C   0  0  0  0  0  0  0  0  0  0  0  0
    7.9034  -14.4744   21.5667 C   0  0  0  0  0  0  0  0  0  0  0  0
    9.2819  -15.0583   21.7812 C   0  0  2  0  0  0  0  0  0  0  0  0
    9.4019  -16.3262   21.0654 N   0  0  0  0  0  0  0  0  0  0  0  0
    9.6515  -15.3007   23.1642 C   0  0  0  0  0  0  0  0  0  0  0  0
   10.8036  -14.9740   23.5596 O   0  0  0  0  0  0  0  0  0  0  0  0
    8.8127  -15.8844   24.1626 N   0  0  0  0  0  0  0  0  0  0  0  0
    9.3726  -16.1761   25.4798 C   0  0  1  0  0  0  0  0  0  0  0  0
    9.6820  -14.8215   26.1633 C   0  0  0  0  0  0  0  0  0  0  0  0
    8.4654  -14.0397   26.3713 C   0  0  0  0  0  0  0  0  0  0  0  0
    7.2834  -14.5058   25.7952 C   0  0  0  0  0  0  0  0  0  0  0  0
    6.1214  -13.7901   26.0241 C   0  0  0  0  0  0  0  0  0  0  0  0
    6.1018  -12.6566   26.7879 C   0  0  0  0  0  0  0  0  0  0  0  0
    7.2808  -12.1919   27.3620 C   0  0  0  0  0  0  0  0  0  0  0  0
    8.4382  -12.8988   27.1382 C   0  0  0  0  0  0  0  0  0  0  0  0
    8.4291  -16.9192   26.3119 C   0  0  0  0  0  0  0  0  0  0  0  0
    7.1545  -17.3411   25.8722 O   0  0  0  0  0  0  0  0  0  0  0  0
    8.6599  -17.2622   27.5195 O   0  0  0  0  0  0  0  0  0  0  0  0
  2  1  1  6
  3  2  1  0
  4  2  1  0
  5  4  1  0
  5  6  1  6
  7  8  2  0
  7  5  1  0
 10  9  1  1
 10 12  1  0
 11 10  1  0
 13 12  1  1
 13 14  1  0
 14  7  1  0
 15 13  1  0
 15 17  1  0
 16 15  2  0
 18 17  1  0
 18 26  1  0
 18 19  1  1
 20 19  1  0
 20 21  2  0
 22 21  1  0
 23 22  2  0
 24 25  2  0
 24 23  1  0
 25 20  1  0
 26 28  2  0
 26 27  1  0
M  END
$$$$
