LLF.pdb
     RDKit          3D

 28 28  0  0  1  0  0  0  0  0999 V2000
   10.4608  -20.8004   18.7398 C   0  0  0  0  0  0  0  0  0  0  0  0
    9.5459  -19.6616   18.3107 C   0  0  2  0  0  0  0  0  0  0  0  0
    9.4986  -19.6107   16.7966 C   0  0  0  0  0  0  0  0  0  0  0  0
   10.0175  -18.3437   18.8884 C   0  0  0  0  0  0  0  0  0  0  0  0
    9.6069  -18.2625   20.3437 C   0  0  2  0  0  0  0  0  0  0  0  0
    8.2493  -18.6658   20.4904 N   0  0  0  0  0  0  0  0  0  0  0  0
    9.8285  -16.9497   20.9291 C   0  0  0  0  0  0  0  0  0  0  0  0
   11.0435  -16.4771   21.0263 O   0  0  0  0  0  0  0  0  0  0  0  0
    6.7009  -12.6564   19.9060 C   0  0  0  0  0  0  0  0  0  0  0  0
    7.8584  -13.5468   20.2511 C   0  0  1  0  0  0  0  0  0  0  0  0
    9.1181  -12.8500   19.7020 C   0  0  0  0  0  0  0  0  0  0  0  0
    8.0699  -13.8166   21.6740 C   0  0  0  0  0  0  0  0  0  0  0  0
    9.1355  -14.8298   22.0275 C   0  0  2  0  0  0  0  0  0  0  0  0
    8.8202  -16.1178   21.4140 N   0  0  0  0  0  0  0  0  0  0  0  0
    9.3357  -15.0594   23.4470 C   0  0  0  0  0  0  0  0  0  0  0  0
   10.0125  -14.2310   24.1149 O   0  0  0  0  0  0  0  0  0  0  0  0
    8.8201  -16.1617   24.1954 N   0  0  0  0  0  0  0  0  0  0  0  0
    9.0593  -16.2175   25.6353 C   0  0  1  0  0  0  0  0  0  0  0  0
    7.6821  -16.1339   26.3383 C   0  0  0  0  0  0  0  0  0  0  0  0
    7.2393  -14.7488   26.4794 C   0  0  0  0  0  0  0  0  0  0  0  0
    8.1043  -13.8468   27.0997 C   0  0  0  0  0  0  0  0  0  0  0  0
    7.7054  -12.5255   27.1984 C   0  0  0  0  0  0  0  0  0  0  0  0
    6.5053  -12.0879   26.7118 C   0  0  0  0  0  0  0  0  0  0  0  0
    5.6428  -12.9876   26.0936 C   0  0  0  0  0  0  0  0  0  0  0  0
    6.0337  -14.3015   25.9924 C   0  0  0  0  0  0  0  0  0  0  0  0
    9.7116  -17.4658   26.0236 C   0  0  0  0  0  0  0  0  0  0  0  0
   10.1690  -18.4346   25.1025 O   0  0  0  0  0  0  0  0  0  0  0  0
    9.9341  -17.8081   27.2329 O   0  0  0  0  0  0  0  0  0  0  0  0
  2  1  1  6
  3  2  1  0
  4  2  1  0
  5  4  1  0
  5  6  1  6
  7  8  2  0
  7  5  1  0
 10  9  1  1
 10 12  1  0
 11 10  1  0
 13 12  1  1
 13 14  1  0
 14  7  1  0
 15 13  1  0
 15 17  1  0
 16 15  2  0
 18 17  1  0
 18 26  1  0
 18 19  1  1
 20 19  1  0
 20 21  2  0
 22 21  1  0
 23 22  2  0
 24 25  2  0
 24 23  1  0
 25 20  1  0
 26 28  2  0
 26 27  1  0
M  END
$$$$
