LLF.pdb
     RDKit          3D

 28 28  0  0  1  0  0  0  0  0999 V2000
    6.0499  -21.2200   22.8477 C   0  0  0  0  0  0  0  0  0  0  0  0
    7.5498  -21.4785   22.8870 C   0  0  2  0  0  0  0  0  0  0  0  0
    7.8911  -22.2079   24.1710 C   0  0  0  0  0  0  0  0  0  0  0  0
    8.3240  -20.1823   22.7712 C   0  0  0  0  0  0  0  0  0  0  0  0
    7.8824  -19.4483   21.5225 C   0  0  2  0  0  0  0  0  0  0  0  0
    8.2918  -20.1674   20.3639 N   0  0  0  0  0  0  0  0  0  0  0  0
    8.3457  -18.0705   21.4737 C   0  0  0  0  0  0  0  0  0  0  0  0
    9.6086  -17.8161   21.2514 O   0  0  0  0  0  0  0  0  0  0  0  0
    8.7822  -12.9967   20.0621 C   0  0  0  0  0  0  0  0  0  0  0  0
    7.5881  -13.2386   20.9382 C   0  0  1  0  0  0  0  0  0  0  0  0
    6.4375  -12.4073   20.3392 C   0  0  0  0  0  0  0  0  0  0  0  0
    7.1366  -14.6260   21.0538 C   0  0  0  0  0  0  0  0  0  0  0  0
    8.0950  -15.6068   21.6914 C   0  0  2  0  0  0  0  0  0  0  0  0
    7.5300  -16.9535   21.6489 N   0  0  0  0  0  0  0  0  0  0  0  0
    8.4531  -15.3266   23.0702 C   0  0  0  0  0  0  0  0  0  0  0  0
    7.9724  -14.3071   23.6359 O   0  0  0  0  0  0  0  0  0  0  0  0
    9.3182  -16.1189   23.8857 N   0  0  0  0  0  0  0  0  0  0  0  0
    9.6686  -15.6434   25.2216 C   0  0  1  0  0  0  0  0  0  0  0  0
    8.3464  -15.4118   25.9937 C   0  0  0  0  0  0  0  0  0  0  0  0
    7.9827  -13.9970   26.0147 C   0  0  0  0  0  0  0  0  0  0  0  0
    9.0019  -13.0637   26.2064 C   0  0  0  0  0  0  0  0  0  0  0  0
    8.6673  -11.7212   26.1860 C   0  0  0  0  0  0  0  0  0  0  0  0
    7.3848  -11.2924   25.9861 C   0  0  0  0  0  0  0  0  0  0  0  0
    6.3687  -12.2233   25.7954 C   0  0  0  0  0  0  0  0  0  0  0  0
    6.6951  -13.5584   25.8144 C   0  0  0  0  0  0  0  0  0  0  0  0
   10.4725  -16.6242   25.9472 C   0  0  0  0  0  0  0  0  0  0  0  0
   10.8874  -17.8599   25.4023 O   0  0  0  0  0  0  0  0  0  0  0  0
   10.8810  -16.4650   27.1459 O   0  0  0  0  0  0  0  0  0  0  0  0
  2  1  1  1
  3  2  1  0
  4  2  1  0
  5  4  1  0
  5  6  1  6
  7  8  2  0
  7  5  1  0
 10  9  1  6
 10 12  1  0
 11 10  1  0
 13 12  1  1
 13 14  1  0
 14  7  1  0
 15 13  1  0
 15 17  1  0
 16 15  2  0
 18 17  1  0
 18 26  1  0
 18 19  1  1
 20 19  1  0
 20 21  2  0
 22 21  1  0
 23 22  2  0
 24 25  2  0
 24 23  1  0
 25 20  1  0
 26 28  2  0
 26 27  1  0
M  END
$$$$
