LLF.pdb
     RDKit          3D

 28 28  0  0  1  0  0  0  0  0999 V2000
   11.4316  -21.7733   19.8453 C   0  0  0  0  0  0  0  0  0  0  0  0
   10.9886  -20.7472   18.8115 C   0  0  2  0  0  0  0  0  0  0  0  0
   11.6324  -21.0790   17.4800 C   0  0  0  0  0  0  0  0  0  0  0  0
   11.3441  -19.3443   19.2569 C   0  0  0  0  0  0  0  0  0  0  0  0
   10.6419  -19.0441   20.5645 C   0  0  2  0  0  0  0  0  0  0  0  0
    9.3847  -19.7111   20.6071 N   0  0  0  0  0  0  0  0  0  0  0  0
   10.4872  -17.6203   20.8182 C   0  0  0  0  0  0  0  0  0  0  0  0
   11.5323  -16.8357   20.7829 O   0  0  0  0  0  0  0  0  0  0  0  0
    8.6471  -12.6618   20.2189 C   0  0  0  0  0  0  0  0  0  0  0  0
    7.7189  -13.5470   20.9977 C   0  0  1  0  0  0  0  0  0  0  0  0
    6.2945  -13.2069   20.5190 C   0  0  0  0  0  0  0  0  0  0  0  0
    7.9180  -14.9894   20.8486 C   0  0  0  0  0  0  0  0  0  0  0  0
    9.2144  -15.5597   21.3788 C   0  0  2  0  0  0  0  0  0  0  0  0
    9.2754  -16.9937   21.1059 N   0  0  0  0  0  0  0  0  0  0  0  0
    9.4452  -15.3753   22.8003 C   0  0  0  0  0  0  0  0  0  0  0  0
    9.8429  -14.2541   23.2188 O   0  0  0  0  0  0  0  0  0  0  0  0
    9.2537  -16.3651   23.8126 N   0  0  0  0  0  0  0  0  0  0  0  0
    9.0730  -15.9394   25.1982 C   0  0  1  0  0  0  0  0  0  0  0  0
    7.5663  -15.6448   25.4007 C   0  0  0  0  0  0  0  0  0  0  0  0
    7.3465  -14.2671   25.8343 C   0  0  0  0  0  0  0  0  0  0  0  0
    8.4106  -13.5942   26.4353 C   0  0  0  0  0  0  0  0  0  0  0  0
    8.2187  -12.2760   26.8101 C   0  0  0  0  0  0  0  0  0  0  0  0
    7.0327  -11.6264   26.6099 C   0  0  0  0  0  0  0  0  0  0  0  0
    5.9717  -12.2979   26.0108 C   0  0  0  0  0  0  0  0  0  0  0  0
    6.1565  -13.6074   25.6362 C   0  0  0  0  0  0  0  0  0  0  0  0
    9.4800  -16.9815   26.1377 C   0  0  0  0  0  0  0  0  0  0  0  0
    9.6806  -16.7616   27.5188 O   0  0  0  0  0  0  0  0  0  0  0  0
    9.6958  -18.1953   25.8070 O   0  0  0  0  0  0  0  0  0  0  0  0
  2  1  1  1
  3  2  1  0
  4  2  1  0
  5  4  1  0
  5  6  1  6
  7  8  2  0
  7  5  1  0
 10  9  1  6
 10 12  1  0
 11 10  1  0
 13 12  1  1
 13 14  1  0
 14  7  1  0
 15 13  1  0
 15 17  1  0
 16 15  2  0
 18 17  1  0
 18 26  1  0
 18 19  1  6
 20 19  1  0
 20 21  2  0
 22 21  1  0
 23 22  2  0
 24 25  2  0
 24 23  1  0
 25 20  1  0
 26 28  2  0
 26 27  1  0
M  END
$$$$
