LLF.pdb
     RDKit          3D

 28 28  0  0  1  0  0  0  0  0999 V2000
    8.2815  -19.1991   25.5108 C   0  0  0  0  0  0  0  0  0  0  0  0
    6.9644  -19.1921   24.7472 C   0  0  2  0  0  0  0  0  0  0  0  0
    5.8757  -19.7590   25.6365 C   0  0  0  0  0  0  0  0  0  0  0  0
    7.0835  -19.9784   23.4587 C   0  0  0  0  0  0  0  0  0  0  0  0
    6.7638  -19.0704   22.2898 C   0  0  2  0  0  0  0  0  0  0  0  0
    6.8050  -19.8090   21.0733 N   0  0  0  0  0  0  0  0  0  0  0  0
    7.6251  -17.9005   22.2207 C   0  0  0  0  0  0  0  0  0  0  0  0
    8.8933  -18.0419   21.9368 O   0  0  0  0  0  0  0  0  0  0  0  0
    8.6053  -14.4145   19.3860 C   0  0  0  0  0  0  0  0  0  0  0  0
    8.1781  -13.6031   20.5738 C   0  0  1  0  0  0  0  0  0  0  0  0
    7.2905  -12.4693   20.0257 C   0  0  0  0  0  0  0  0  0  0  0  0
    7.4249  -14.3123   21.6091 C   0  0  0  0  0  0  0  0  0  0  0  0
    8.1228  -15.4659   22.2941 C   0  0  2  0  0  0  0  0  0  0  0  0
    7.2009  -16.5902   22.4379 N   0  0  0  0  0  0  0  0  0  0  0  0
    8.6680  -15.1772   23.6084 C   0  0  0  0  0  0  0  0  0  0  0  0
    8.5863  -14.0042   24.0644 O   0  0  0  0  0  0  0  0  0  0  0  0
    9.3031  -16.1194   24.4742 N   0  0  0  0  0  0  0  0  0  0  0  0
    9.5312  -15.7598   25.8715 C   0  0  1  0  0  0  0  0  0  0  0  0
    8.1446  -15.5962   26.5412 C   0  0  0  0  0  0  0  0  0  0  0  0
    7.6648  -14.2196   26.4432 C   0  0  0  0  0  0  0  0  0  0  0  0
    8.5637  -13.1928   26.7334 C   0  0  0  0  0  0  0  0  0  0  0  0
    8.1247  -11.8872   26.6021 C   0  0  0  0  0  0  0  0  0  0  0  0
    6.8538  -11.5820   26.2017 C   0  0  0  0  0  0  0  0  0  0  0  0
    5.9576  -12.6062   25.9127 C   0  0  0  0  0  0  0  0  0  0  0  0
    6.3881  -13.9053   26.0411 C   0  0  0  0  0  0  0  0  0  0  0  0
   10.2766  -16.7984   26.5787 C   0  0  0  0  0  0  0  0  0  0  0  0
   10.6777  -18.0186   25.9903 O   0  0  0  0  0  0  0  0  0  0  0  0
   10.6405  -16.7096   27.7989 O   0  0  0  0  0  0  0  0  0  0  0  0
  2  1  1  1
  3  2  1  0
  4  2  1  0
  5  4  1  0
  5  6  1  6
  7  8  2  0
  7  5  1  0
 10  9  1  6
 10 12  1  0
 11 10  1  0
 13 12  1  1
 13 14  1  0
 14  7  1  0
 15 13  1  0
 15 17  1  0
 16 15  2  0
 18 17  1  0
 18 26  1  0
 18 19  1  1
 20 19  1  0
 20 21  2  0
 22 21  1  0
 23 22  2  0
 24 25  2  0
 24 23  1  0
 25 20  1  0
 26 28  2  0
 26 27  1  0
M  END
$$$$
