LLF.pdb
     RDKit          3D

 28 28  0  0  1  0  0  0  0  0999 V2000
    9.7092  -20.6872   24.5120 C   0  0  0  0  0  0  0  0  0  0  0  0
    8.7867  -19.8983   23.5929 C   0  0  2  0  0  0  0  0  0  0  0  0
    7.3572  -20.0632   24.0691 C   0  0  0  0  0  0  0  0  0  0  0  0
    8.9408  -20.3506   22.1561 C   0  0  0  0  0  0  0  0  0  0  0  0
    8.2233  -19.3749   21.2472 C   0  0  2  0  0  0  0  0  0  0  0  0
    8.3072  -19.8155   19.8959 N   0  0  0  0  0  0  0  0  0  0  0  0
    8.7018  -18.0081   21.3821 C   0  0  0  0  0  0  0  0  0  0  0  0
    9.9387  -17.7182   21.0740 O   0  0  0  0  0  0  0  0  0  0  0  0
    9.0671  -13.0510   20.0158 C   0  0  0  0  0  0  0  0  0  0  0  0
    7.9079  -13.2607   20.9453 C   0  0  1  0  0  0  0  0  0  0  0  0
    6.7273  -12.4709   20.3484 C   0  0  0  0  0  0  0  0  0  0  0  0
    7.4763  -14.6449   21.1448 C   0  0  0  0  0  0  0  0  0  0  0  0
    8.4540  -15.5749   21.8278 C   0  0  2  0  0  0  0  0  0  0  0  0
    7.9273  -16.9377   21.8274 N   0  0  0  0  0  0  0  0  0  0  0  0
    8.7876  -15.2358   23.1995 C   0  0  0  0  0  0  0  0  0  0  0  0
    8.2373  -14.2369   23.7378 O   0  0  0  0  0  0  0  0  0  0  0  0
    9.7014  -15.9466   24.0366 N   0  0  0  0  0  0  0  0  0  0  0  0
    9.9123  -15.4896   25.4079 C   0  0  1  0  0  0  0  0  0  0  0  0
    8.5888  -15.7121   26.1803 C   0  0  0  0  0  0  0  0  0  0  0  0
    7.7871  -14.4915   26.2259 C   0  0  0  0  0  0  0  0  0  0  0  0
    8.4070  -13.3191   26.6590 C   0  0  0  0  0  0  0  0  0  0  0  0
    7.6621  -12.1529   26.6646 C   0  0  0  0  0  0  0  0  0  0  0  0
    6.3558  -12.1202   26.2633 C   0  0  0  0  0  0  0  0  0  0  0  0
    5.7379  -13.2896   25.8319 C   0  0  0  0  0  0  0  0  0  0  0  0
    6.4728  -14.4511   25.8239 C   0  0  0  0  0  0  0  0  0  0  0  0
   10.9757  -16.2435   26.0678 C   0  0  0  0  0  0  0  0  0  0  0  0
   11.7006  -17.2872   25.4503 O   0  0  0  0  0  0  0  0  0  0  0  0
   11.3573  -16.0366   27.2681 O   0  0  0  0  0  0  0  0  0  0  0  0
  2  1  1  1
  3  2  1  0
  4  2  1  0
  5  4  1  0
  5  6  1  6
  7  8  2  0
  7  5  1  0
 10  9  1  6
 10 12  1  0
 11 10  1  0
 13 12  1  1
 13 14  1  0
 14  7  1  0
 15 13  1  0
 15 17  1  0
 16 15  2  0
 18 17  1  0
 18 26  1  0
 18 19  1  1
 20 19  1  0
 20 21  2  0
 22 21  1  0
 23 22  2  0
 24 25  2  0
 24 23  1  0
 25 20  1  0
 26 28  2  0
 26 27  1  0
M  END
$$$$
