LLF.pdb
     RDKit          3D

 28 28  0  0  1  0  0  0  0  0999 V2000
    7.1481  -20.5212   20.9698 C   0  0  0  0  0  0  0  0  0  0  0  0
    8.6298  -20.2208   20.7899 C   0  0  2  0  0  0  0  0  0  0  0  0
    9.4343  -21.4310   21.2206 C   0  0  0  0  0  0  0  0  0  0  0  0
    9.0300  -18.9896   21.5752 C   0  0  0  0  0  0  0  0  0  0  0  0
    8.2146  -17.8068   21.0966 C   0  0  2  0  0  0  0  0  0  0  0  0
    8.4560  -17.5763   19.7125 N   0  0  0  0  0  0  0  0  0  0  0  0
    8.4439  -16.6000   21.8753 C   0  0  0  0  0  0  0  0  0  0  0  0
    9.4407  -15.8100   21.5731 O   0  0  0  0  0  0  0  0  0  0  0  0
    7.3570  -12.1299   24.8712 C   0  0  0  0  0  0  0  0  0  0  0  0
    7.0723  -13.4604   25.5040 C   0  0  1  0  0  0  0  0  0  0  0  0
    5.7985  -13.2726   26.3502 C   0  0  0  0  0  0  0  0  0  0  0  0
    6.8512  -14.5816   24.5895 C   0  0  0  0  0  0  0  0  0  0  0  0
    8.0327  -15.0307   23.7592 C   0  0  2  0  0  0  0  0  0  0  0  0
    7.6634  -16.1948   22.9573 N   0  0  0  0  0  0  0  0  0  0  0  0
    9.2285  -15.3766   24.5064 C   0  0  0  0  0  0  0  0  0  0  0  0
   10.1805  -14.5512   24.5606 O   0  0  0  0  0  0  0  0  0  0  0  0
    9.4439  -16.5954   25.2199 N   0  0  0  0  0  0  0  0  0  0  0  0
   10.7517  -16.8462   25.8203 C   0  0  1  0  0  0  0  0  0  0  0  0
   10.5317  -17.0665   27.3372 C   0  0  0  0  0  0  0  0  0  0  0  0
   10.5219  -15.7989   28.0636 C   0  0  0  0  0  0  0  0  0  0  0  0
    9.6128  -14.8213   27.6582 C   0  0  0  0  0  0  0  0  0  0  0  0
    9.5725  -13.6351   28.3697 C   0  0  0  0  0  0  0  0  0  0  0  0
   10.3868  -13.4001   29.4422 C   0  0  0  0  0  0  0  0  0  0  0  0
   11.2934  -14.3751   29.8459 C   0  0  0  0  0  0  0  0  0  0  0  0
   11.3380  -15.5555   29.1431 C   0  0  0  0  0  0  0  0  0  0  0  0
   11.3815  -18.0384   25.2574 C   0  0  0  0  0  0  0  0  0  0  0  0
   10.8128  -18.8154   24.2235 O   0  0  0  0  0  0  0  0  0  0  0  0
   12.5080  -18.4989   25.6420 O   0  0  0  0  0  0  0  0  0  0  0  0
  2  1  1  1
  3  2  1  0
  4  2  1  0
  5  4  1  0
  5  6  1  6
  7  8  2  0
  7  5  1  0
 10  9  1  6
 10 12  1  0
 11 10  1  0
 13 12  1  1
 13 14  1  0
 14  7  1  0
 15 13  1  0
 15 17  1  0
 16 15  2  0
 18 17  1  0
 18 26  1  0
 18 19  1  1
 20 19  1  0
 20 21  2  0
 22 21  1  0
 23 22  2  0
 24 25  2  0
 24 23  1  0
 25 20  1  0
 26 28  2  0
 26 27  1  0
M  END
$$$$
