LLF.pdb
     RDKit          3D

 28 28  0  0  1  0  0  0  0  0999 V2000
    8.3452  -21.4486   20.5491 C   0  0  0  0  0  0  0  0  0  0  0  0
    8.1606  -20.0319   20.0231 C   0  0  2  0  0  0  0  0  0  0  0  0
    8.4285  -20.0208   18.5313 C   0  0  0  0  0  0  0  0  0  0  0  0
    9.0701  -19.0636   20.7499 C   0  0  0  0  0  0  0  0  0  0  0  0
    8.5299  -17.6580   20.5909 C   0  0  2  0  0  0  0  0  0  0  0  0
    8.9943  -17.0925   19.3695 N   0  0  0  0  0  0  0  0  0  0  0  0
    8.8406  -16.7937   21.7187 C   0  0  0  0  0  0  0  0  0  0  0  0
   10.0361  -16.2773   21.8329 O   0  0  0  0  0  0  0  0  0  0  0  0
    7.8853  -12.6013   25.0841 C   0  0  0  0  0  0  0  0  0  0  0  0
    7.2858  -13.9234   25.4640 C   0  0  1  0  0  0  0  0  0  0  0  0
    5.9141  -13.6112   26.0924 C   0  0  0  0  0  0  0  0  0  0  0  0
    7.0820  -14.8817   24.3766 C   0  0  0  0  0  0  0  0  0  0  0  0
    8.3184  -15.5295   23.7947 C   0  0  2  0  0  0  0  0  0  0  0  0
    7.9406  -16.4533   22.7276 N   0  0  0  0  0  0  0  0  0  0  0  0
    9.1434  -16.2643   24.7368 C   0  0  0  0  0  0  0  0  0  0  0  0
    8.7138  -17.3492   25.2152 O   0  0  0  0  0  0  0  0  0  0  0  0
   10.4421  -15.8767   25.1885 N   0  0  0  0  0  0  0  0  0  0  0  0
   11.2679  -16.8503   25.8983 C   0  0  1  0  0  0  0  0  0  0  0  0
   12.2915  -16.0587   26.7489 C   0  0  0  0  0  0  0  0  0  0  0  0
   11.6234  -15.1360   27.6637 C   0  0  0  0  0  0  0  0  0  0  0  0
   11.5342  -15.4995   29.0078 C   0  0  0  0  0  0  0  0  0  0  0  0
   10.9385  -14.6099   29.8843 C   0  0  0  0  0  0  0  0  0  0  0  0
   10.4433  -13.4035   29.4745 C   0  0  0  0  0  0  0  0  0  0  0  0
   10.5321  -13.0415   28.1341 C   0  0  0  0  0  0  0  0  0  0  0  0
   11.1230  -13.9211   27.2586 C   0  0  0  0  0  0  0  0  0  0  0  0
   10.4661  -17.6893   26.7859 C   0  0  0  0  0  0  0  0  0  0  0  0
    9.0746  -17.5321   26.9733 O   0  0  0  0  0  0  0  0  0  0  0  0
   10.9405  -18.6483   27.4818 O   0  0  0  0  0  0  0  0  0  0  0  0
  2  1  1  1
  3  2  1  0
  4  2  1  0
  5  4  1  0
  5  6  1  6
  7  8  2  0
  7  5  1  0
 10  9  1  6
 10 12  1  0
 11 10  1  0
 13 12  1  1
 13 14  1  0
 14  7  1  0
 15 13  1  0
 15 17  1  0
 16 15  2  0
 18 17  1  0
 18 26  1  0
 18 19  1  1
 20 19  1  0
 20 21  2  0
 22 21  1  0
 23 22  2  0
 24 25  2  0
 24 23  1  0
 25 20  1  0
 26 28  2  0
 26 27  1  0
M  END
$$$$
