MCT.pdb
     RDKit          3D

 22 21  0  0  1  0  0  0  0  0999 V2000
   19.0300  -13.2301  -14.4453 C   0  0  0  0  0  0  0  0  0  0  0  0
   17.8228  -12.2140  -13.5985 S   0  0  0  0  0  0  0  0  0  0  0  0
   18.2133  -10.4771  -13.5989 C   0  0  0  0  0  0  0  0  0  0  0  0
   17.1926   -9.6023  -12.9514 C   0  0  0  0  0  0  0  0  0  0  0  0
   16.5386  -10.1532  -11.7279 C   0  0  2  0  0  0  0  0  0  0  0  0
   15.5607  -11.1893  -12.0268 N   0  0  0  0  0  0  0  0  0  0  0  0
   15.7875   -8.9983  -11.1104 C   0  0  0  0  0  0  0  0  0  0  0  0
   14.7877   -8.5524  -11.7165 O   0  0  0  0  0  0  0  0  0  0  0  0
   16.1634   -8.4147   -9.8991 N   0  0  0  0  0  0  0  0  0  0  0  0
   15.3072   -7.3879   -9.3143 C   0  0  1  0  0  0  0  0  0  0  0  0
   14.8400   -7.9883   -8.0024 C   0  0  0  0  0  0  0  0  0  0  0  0
   13.6011   -9.2759   -8.2092 S   0  0  0  0  0  0  0  0  0  0  0  0
   16.0090   -6.1145   -9.1787 C   0  0  0  0  0  0  0  0  0  0  0  0
   17.1049   -6.0976   -8.5389 O   0  0  0  0  0  0  0  0  0  0  0  0
   17.5597   -3.8127  -11.7555 C   0  0  0  0  0  0  0  0  0  0  0  0
   16.4675   -3.0591  -11.0276 C   0  0  1  0  0  0  0  0  0  0  0  0
   15.2661   -3.2281  -11.7483 O   0  0  0  0  0  0  0  0  0  0  0  0
   16.2054   -3.6493   -9.6607 C   0  0  2  0  0  0  0  0  0  0  0  0
   15.5220   -4.9274   -9.7249 N   0  0  0  0  0  0  0  0  0  0  0  0
   15.3408   -2.6972   -8.9297 C   0  0  0  0  0  0  0  0  0  0  0  0
   14.0260   -3.0250   -8.6549 O   0  0  0  0  0  0  0  0  0  0  0  0
   15.7609   -1.5696   -8.5353 O   0  0  0  0  0  0  0  0  0  0  0  0
  2  1  1  0
  3  2  1  0
  3  4  1  0
  4  5  1  0
  5  7  1  0
  5  6  1  6
  7  9  1  0
  7  8  2  0
  9 10  1  0
 10 13  1  0
 10 11  1  1
 11 12  1  0
 13 14  2  0
 16 15  1  6
 16 18  1  0
 16 17  1  0
 18 20  1  0
 19 13  1  0
 18 19  1  6
 20 21  1  0
 22 20  2  0
M  END
$$$$
