MCT.pdb
     RDKit          3D

 22 21  0  0  1  0  0  0  0  0999 V2000
   25.9611  -21.0776   -7.4193 C   0  0  0  0  0  0  0  0  0  0  0  0
   27.1228  -19.7150   -7.4493 S   0  0  0  0  0  0  0  0  0  0  0  0
   27.7403  -19.3283   -9.0736 C   0  0  0  0  0  0  0  0  0  0  0  0
   28.8853  -20.1700   -9.5286 C   0  0  0  0  0  0  0  0  0  0  0  0
   28.5359  -21.5221  -10.0556 C   0  0  2  0  0  0  0  0  0  0  0  0
   29.6964  -22.3876  -10.2076 N   0  0  0  0  0  0  0  0  0  0  0  0
   27.9713  -21.2893  -11.4364 C   0  0  0  0  0  0  0  0  0  0  0  0
   28.5511  -21.8218  -12.4089 O   0  0  0  0  0  0  0  0  0  0  0  0
   26.8365  -20.5093  -11.6663 N   0  0  0  0  0  0  0  0  0  0  0  0
   25.8537  -20.9637  -12.6445 C   0  0  1  0  0  0  0  0  0  0  0  0
   25.1573  -22.1281  -11.9670 C   0  0  0  0  0  0  0  0  0  0  0  0
   23.8151  -22.8215  -12.9434 S   0  0  0  0  0  0  0  0  0  0  0  0
   24.9612  -19.8826  -13.0536 C   0  0  0  0  0  0  0  0  0  0  0  0
   24.1998  -19.3684  -12.1781 O   0  0  0  0  0  0  0  0  0  0  0  0
   26.1451  -16.8517  -15.5127 C   0  0  0  0  0  0  0  0  0  0  0  0
   24.8453  -17.5019  -15.9350 C   0  0  1  0  0  0  0  0  0  0  0  0
   25.1464  -18.5058  -16.8798 O   0  0  0  0  0  0  0  0  0  0  0  0
   24.1852  -18.2191  -14.7794 C   0  0  2  0  0  0  0  0  0  0  0  0
   24.9188  -19.3986  -14.3608 N   0  0  0  0  0  0  0  0  0  0  0  0
   22.8438  -18.6448  -15.2353 C   0  0  0  0  0  0  0  0  0  0  0  0
   21.8971  -17.6988  -15.5829 O   0  0  0  0  0  0  0  0  0  0  0  0
   22.5165  -19.8649  -15.3236 O   0  0  0  0  0  0  0  0  0  0  0  0
  2  1  1  0
  3  2  1  0
  3  4  1  0
  4  5  1  0
  5  7  1  0
  5  6  1  6
  7  9  1  0
  7  8  2  0
  9 10  1  0
 10 13  1  0
 10 11  1  1
 11 12  1  0
 13 14  2  0
 16 15  1  1
 16 18  1  0
 16 17  1  0
 18 20  1  0
 19 13  1  0
 18 19  1  6
 20 21  1  0
 22 20  2  0
M  END
$$$$
