MCT.pdb
     RDKit          3D

 22 21  0  0  1  0  0  0  0  0999 V2000
   19.0946  -17.9753  -15.5446 C   0  0  0  0  0  0  0  0  0  0  0  0
   18.3920  -17.2323  -17.0148 S   0  0  0  0  0  0  0  0  0  0  0  0
   18.0812  -15.4860  -16.8631 C   0  0  0  0  0  0  0  0  0  0  0  0
   19.2979  -14.6235  -16.9108 C   0  0  0  0  0  0  0  0  0  0  0  0
   19.6391  -14.0449  -18.2438 C   0  0  2  0  0  0  0  0  0  0  0  0
   20.4076  -14.9581  -19.0772 N   0  0  0  0  0  0  0  0  0  0  0  0
   20.5220  -12.8538  -17.9587 C   0  0  0  0  0  0  0  0  0  0  0  0
   21.7600  -12.9960  -18.0712 O   0  0  0  0  0  0  0  0  0  0  0  0
   20.0129  -11.6108  -17.5781 N   0  0  0  0  0  0  0  0  0  0  0  0
   20.9358  -10.4947  -17.3989 C   0  0  1  0  0  0  0  0  0  0  0  0
   21.5191  -10.2620  -18.7791 C   0  0  0  0  0  0  0  0  0  0  0  0
   22.4656   -8.7375  -18.9049 S   0  0  0  0  0  0  0  0  0  0  0  0
   20.2680   -9.3310  -16.8222 C   0  0  0  0  0  0  0  0  0  0  0  0
   19.2127   -8.9045  -17.3835 O   0  0  0  0  0  0  0  0  0  0  0  0
   19.0847   -8.8255  -13.0972 C   0  0  0  0  0  0  0  0  0  0  0  0
   20.0396   -7.7303  -13.5210 C   0  0  1  0  0  0  0  0  0  0  0  0
   21.3442   -8.1228  -13.1535 O   0  0  0  0  0  0  0  0  0  0  0  0
   20.0720   -7.5767  -15.0246 C   0  0  2  0  0  0  0  0  0  0  0  0
   20.7445   -8.6794  -15.6851 N   0  0  0  0  0  0  0  0  0  0  0  0
   20.8164   -6.3336  -15.3230 C   0  0  0  0  0  0  0  0  0  0  0  0
   20.3143   -5.1106  -14.9183 O   0  0  0  0  0  0  0  0  0  0  0  0
   21.9184   -6.3401  -15.9468 O   0  0  0  0  0  0  0  0  0  0  0  0
  2  1  1  0
  3  2  1  0
  3  4  1  0
  4  5  1  0
  5  7  1  0
  5  6  1  6
  7  9  1  0
  7  8  2  0
  9 10  1  0
 10 13  1  0
 10 11  1  6
 11 12  1  0
 13 14  2  0
 16 15  1  6
 16 18  1  0
 16 17  1  0
 18 20  1  0
 19 13  1  0
 18 19  1  6
 20 21  1  0
 22 20  2  0
M  END
$$$$
