MCT.pdb
     RDKit          3D

 22 21  0  0  1  0  0  0  0  0999 V2000
   17.4703  -26.4022  -14.9422 C   0  0  0  0  0  0  0  0  0  0  0  0
   17.1785  -24.7104  -15.4520 S   0  0  0  0  0  0  0  0  0  0  0  0
   18.6300  -23.6809  -15.4024 C   0  0  0  0  0  0  0  0  0  0  0  0
   19.5916  -24.0008  -14.3072 C   0  0  0  0  0  0  0  0  0  0  0  0
   19.7557  -22.9563  -13.2535 C   0  0  2  0  0  0  0  0  0  0  0  0
   20.9913  -22.1996  -13.3943 N   0  0  0  0  0  0  0  0  0  0  0  0
   19.8398  -23.7050  -11.9452 C   0  0  0  0  0  0  0  0  0  0  0  0
   20.9319  -24.2310  -11.6350 O   0  0  0  0  0  0  0  0  0  0  0  0
   18.7543  -23.8308  -11.0763 N   0  0  0  0  0  0  0  0  0  0  0  0
   18.9271  -24.5761   -9.8337 C   0  0  1  0  0  0  0  0  0  0  0  0
   18.9919  -23.5083   -8.7590 C   0  0  0  0  0  0  0  0  0  0  0  0
   18.9400  -24.1742   -7.0888 S   0  0  0  0  0  0  0  0  0  0  0  0
   17.8646  -25.5597   -9.6434 C   0  0  0  0  0  0  0  0  0  0  0  0
   16.6611  -25.1743   -9.7609 O   0  0  0  0  0  0  0  0  0  0  0  0
   18.3300  -29.7155  -10.4693 C   0  0  0  0  0  0  0  0  0  0  0  0
   17.6970  -29.3175   -9.1533 C   0  0  1  0  0  0  0  0  0  0  0  0
   18.7174  -29.2497   -8.1811 O   0  0  0  0  0  0  0  0  0  0  0  0
   17.1098  -27.9261   -9.2210 C   0  0  2  0  0  0  0  0  0  0  0  0
   18.1244  -26.8962   -9.3418 N   0  0  0  0  0  0  0  0  0  0  0  0
   16.3679  -27.7007   -7.9611 C   0  0  0  0  0  0  0  0  0  0  0  0
   15.2615  -28.4735   -7.6604 O   0  0  0  0  0  0  0  0  0  0  0  0
   16.7090  -26.8113   -7.1268 O   0  0  0  0  0  0  0  0  0  0  0  0
  2  1  1  0
  3  2  1  0
  3  4  1  0
  4  5  1  0
  5  7  1  0
  5  6  1  6
  7  9  1  0
  7  8  2  0
  9 10  1  0
 10 13  1  0
 10 11  1  1
 11 12  1  0
 13 14  2  0
 16 15  1  6
 16 18  1  0
 16 17  1  0
 18 20  1  0
 19 13  1  0
 18 19  1  1
 20 21  1  0
 22 20  2  0
M  END
$$$$
