MCT.pdb
     RDKit          3D

 22 21  0  0  1  0  0  0  0  0999 V2000
   23.5969  -37.1956  -10.4636 C   0  0  0  0  0  0  0  0  0  0  0  0
   23.5540  -37.6510  -12.1950 S   0  0  0  0  0  0  0  0  0  0  0  0
   23.5435  -36.2610  -13.3072 C   0  0  0  0  0  0  0  0  0  0  0  0
   24.7386  -35.3723  -13.2154 C   0  0  0  0  0  0  0  0  0  0  0  0
   24.4700  -33.9477  -12.8596 C   0  0  2  0  0  0  0  0  0  0  0  0
   24.7395  -33.0299  -13.9569 N   0  0  0  0  0  0  0  0  0  0  0  0
   25.4399  -33.6130  -11.7521 C   0  0  0  0  0  0  0  0  0  0  0  0
   26.4748  -32.9742  -12.0463 O   0  0  0  0  0  0  0  0  0  0  0  0
   25.2269  -33.9861  -10.4237 N   0  0  0  0  0  0  0  0  0  0  0  0
   26.0826  -33.4210   -9.3856 C   0  0  1  0  0  0  0  0  0  0  0  0
   25.8083  -31.9306   -9.4403 C   0  0  0  0  0  0  0  0  0  0  0  0
   24.1743  -31.4842   -8.8351 S   0  0  0  0  0  0  0  0  0  0  0  0
   25.8277  -34.0338   -8.0848 C   0  0  0  0  0  0  0  0  0  0  0  0
   24.6222  -34.1879   -7.7192 O   0  0  0  0  0  0  0  0  0  0  0  0
   28.3017  -37.0084   -6.5753 C   0  0  0  0  0  0  0  0  0  0  0  0
   27.9048  -35.9420   -5.5772 C   0  0  1  0  0  0  0  0  0  0  0  0
   28.9246  -34.9672   -5.5516 O   0  0  0  0  0  0  0  0  0  0  0  0
   26.6571  -35.2104   -6.0171 C   0  0  2  0  0  0  0  0  0  0  0  0
   26.8539  -34.4537   -7.2391 N   0  0  0  0  0  0  0  0  0  0  0  0
   26.2995  -34.2639   -4.9378 C   0  0  0  0  0  0  0  0  0  0  0  0
   25.9895  -34.7363   -3.6759 O   0  0  0  0  0  0  0  0  0  0  0  0
   26.2642  -33.0116   -5.1226 O   0  0  0  0  0  0  0  0  0  0  0  0
  2  1  1  0
  3  2  1  0
  3  4  1  0
  4  5  1  0
  5  7  1  0
  5  6  1  6
  7  9  1  0
  7  8  2  0
  9 10  1  0
 10 13  1  0
 10 11  1  1
 11 12  1  0
 13 14  2  0
 16 15  1  6
 16 18  1  0
 16 17  1  0
 18 20  1  0
 19 13  1  0
 18 19  1  6
 20 21  1  0
 22 20  2  0
M  END
$$$$
