MCT.pdb
     RDKit          3D

 22 21  0  0  1  0  0  0  0  0999 V2000
   27.5908  -13.6932  -14.7535 C   0  0  0  0  0  0  0  0  0  0  0  0
   28.2555  -12.6787  -16.0712 S   0  0  0  0  0  0  0  0  0  0  0  0
   27.2313  -12.6228  -17.5262 C   0  0  0  0  0  0  0  0  0  0  0  0
   25.9602  -11.8566  -17.3722 C   0  0  0  0  0  0  0  0  0  0  0  0
   24.9976  -12.3810  -16.3590 C   0  0  2  0  0  0  0  0  0  0  0  0
   24.4292  -13.6683  -16.7315 N   0  0  0  0  0  0  0  0  0  0  0  0
   23.8613  -11.3876  -16.3219 C   0  0  0  0  0  0  0  0  0  0  0  0
   22.7791  -11.7078  -16.8620 O   0  0  0  0  0  0  0  0  0  0  0  0
   23.9722  -10.1364  -15.7125 N   0  0  0  0  0  0  0  0  0  0  0  0
   22.7694   -9.3303  -15.5312 C   0  0  1  0  0  0  0  0  0  0  0  0
   21.9697  -10.0765  -14.4809 C   0  0  0  0  0  0  0  0  0  0  0  0
   20.6152   -9.1103  -13.7970 S   0  0  0  0  0  0  0  0  0  0  0  0
   23.0936   -7.9515  -15.1755 C   0  0  0  0  0  0  0  0  0  0  0  0
   23.9784   -7.7523  -14.2877 O   0  0  0  0  0  0  0  0  0  0  0  0
   23.2852   -4.9882  -17.9718 C   0  0  0  0  0  0  0  0  0  0  0  0
   22.5137   -4.5849  -16.7336 C   0  0  1  0  0  0  0  0  0  0  0  0
   21.1419   -4.7988  -16.9854 O   0  0  0  0  0  0  0  0  0  0  0  0
   22.8523   -5.4729  -15.5579 C   0  0  2  0  0  0  0  0  0  0  0  0
   22.4717   -6.8561  -15.7738 N   0  0  0  0  0  0  0  0  0  0  0  0
   22.1008   -4.9617  -14.3907 C   0  0  0  0  0  0  0  0  0  0  0  0
   22.4294   -3.7386  -13.8360 O   0  0  0  0  0  0  0  0  0  0  0  0
   21.1479   -5.6094  -13.8652 O   0  0  0  0  0  0  0  0  0  0  0  0
  2  1  1  0
  3  2  1  0
  3  4  1  0
  4  5  1  0
  5  7  1  0
  5  6  1  6
  7  9  1  0
  7  8  2  0
  9 10  1  0
 10 13  1  0
 10 11  1  1
 11 12  1  0
 13 14  2  0
 16 15  1  6
 16 18  1  0
 16 17  1  0
 18 20  1  0
 19 13  1  0
 18 19  1  6
 20 21  1  0
 22 20  2  0
M  END
$$$$
