MCT.pdb
     RDKit          3D

 22 21  0  0  1  0  0  0  0  0999 V2000
   28.5745  -12.0904  -17.2102 C   0  0  0  0  0  0  0  0  0  0  0  0
   28.6785  -13.1623  -15.7794 S   0  0  0  0  0  0  0  0  0  0  0  0
   27.1478  -13.9756  -15.3738 C   0  0  0  0  0  0  0  0  0  0  0  0
   25.9158  -13.2148  -15.7342 C   0  0  0  0  0  0  0  0  0  0  0  0
   24.6200  -13.9192  -15.5047 C   0  0  2  0  0  0  0  0  0  0  0  0
   24.5088  -15.1596  -16.2584 N   0  0  0  0  0  0  0  0  0  0  0  0
   23.5508  -12.9874  -16.0225 C   0  0  0  0  0  0  0  0  0  0  0  0
   23.2431  -13.0564  -17.2333 O   0  0  0  0  0  0  0  0  0  0  0  0
   22.8984  -12.0602  -15.2077 N   0  0  0  0  0  0  0  0  0  0  0  0
   21.9048  -11.1728  -15.8033 C   0  0  1  0  0  0  0  0  0  0  0  0
   20.5734  -11.7330  -15.3417 C   0  0  0  0  0  0  0  0  0  0  0  0
   19.2216  -10.5531  -15.4684 S   0  0  0  0  0  0  0  0  0  0  0  0
   22.1348   -9.7796  -15.4307 C   0  0  0  0  0  0  0  0  0  0  0  0
   22.4766   -9.5261  -14.2350 O   0  0  0  0  0  0  0  0  0  0  0  0
   24.1444   -7.0761  -17.6630 C   0  0  0  0  0  0  0  0  0  0  0  0
   22.7872   -6.5687  -17.2256 C   0  0  1  0  0  0  0  0  0  0  0  0
   21.8693   -6.8256  -18.2661 O   0  0  0  0  0  0  0  0  0  0  0  0
   22.2691   -7.3363  -16.0307 C   0  0  2  0  0  0  0  0  0  0  0  0
   21.9951   -8.7279  -16.3357 N   0  0  0  0  0  0  0  0  0  0  0  0
   21.0032   -6.6953  -15.6122 C   0  0  0  0  0  0  0  0  0  0  0  0
   21.0174   -5.4278  -15.0599 O   0  0  0  0  0  0  0  0  0  0  0  0
   19.8815   -7.2689  -15.7404 O   0  0  0  0  0  0  0  0  0  0  0  0
  2  1  1  0
  3  2  1  0
  3  4  1  0
  4  5  1  0
  5  7  1  0
  5  6  1  6
  7  9  1  0
  7  8  2  0
  9 10  1  0
 10 13  1  0
 10 11  1  1
 11 12  1  0
 13 14  2  0
 16 15  1  6
 16 18  1  0
 16 17  1  0
 18 20  1  0
 19 13  1  0
 18 19  1  6
 20 21  1  0
 22 20  2  0
M  END
$$$$
