MCT.pdb
     RDKit          3D

 22 21  0  0  1  0  0  0  0  0999 V2000
   27.7947  -15.6718  -15.7173 C   0  0  0  0  0  0  0  0  0  0  0  0
   26.1735  -14.9961  -15.3672 S   0  0  0  0  0  0  0  0  0  0  0  0
   25.3806  -14.2541  -16.7778 C   0  0  0  0  0  0  0  0  0  0  0  0
   24.0394  -13.6593  -16.5055 C   0  0  0  0  0  0  0  0  0  0  0  0
   23.6067  -13.6453  -15.0770 C   0  0  2  0  0  0  0  0  0  0  0  0
   22.8569  -14.8351  -14.7012 N   0  0  0  0  0  0  0  0  0  0  0  0
   22.6692  -12.4693  -14.9453 C   0  0  0  0  0  0  0  0  0  0  0  0
   21.4386  -12.6842  -15.0160 O   0  0  0  0  0  0  0  0  0  0  0  0
   23.1202  -11.1626  -14.7491 N   0  0  0  0  0  0  0  0  0  0  0  0
   22.1413  -10.1040  -14.5247 C   0  0  1  0  0  0  0  0  0  0  0  0
   21.5331  -10.4322  -13.1750 C   0  0  0  0  0  0  0  0  0  0  0  0
   22.7552  -10.8742  -11.9312 S   0  0  0  0  0  0  0  0  0  0  0  0
   22.7520   -8.7799  -14.6052 C   0  0  0  0  0  0  0  0  0  0  0  0
   23.9917   -8.6739  -14.3550 O   0  0  0  0  0  0  0  0  0  0  0  0
   22.6226   -6.3922  -17.6597 C   0  0  0  0  0  0  0  0  0  0  0  0
   22.1138   -5.6709  -16.4302 C   0  0  1  0  0  0  0  0  0  0  0  0
   20.7089   -5.7992  -16.3991 O   0  0  0  0  0  0  0  0  0  0  0  0
   22.6078   -6.3266  -15.1608 C   0  0  2  0  0  0  0  0  0  0  0  0
   22.0269   -7.6386  -14.9463 N   0  0  0  0  0  0  0  0  0  0  0  0
   22.2124   -5.4544  -14.0333 C   0  0  0  0  0  0  0  0  0  0  0  0
   22.8461   -4.2407  -13.8404 O   0  0  0  0  0  0  0  0  0  0  0  0
   21.2984   -5.7772  -13.2184 O   0  0  0  0  0  0  0  0  0  0  0  0
  2  1  1  0
  3  2  1  0
  3  4  1  0
  4  5  1  0
  5  7  1  0
  5  6  1  6
  7  9  1  0
  7  8  2  0
  9 10  1  0
 10 13  1  0
 10 11  1  1
 11 12  1  0
 13 14  2  0
 16 15  1  6
 16 18  1  0
 16 17  1  0
 18 20  1  0
 19 13  1  0
 18 19  1  1
 20 21  1  0
 22 20  2  0
M  END
$$$$
