MCT.pdb
     RDKit          3D

 22 21  0  0  1  0  0  0  0  0999 V2000
   17.9822  -27.1479   -0.5472 C   0  0  0  0  0  0  0  0  0  0  0  0
   18.7111  -27.4413   -2.1564 S   0  0  0  0  0  0  0  0  0  0  0  0
   17.5573  -28.0382   -3.3737 C   0  0  0  0  0  0  0  0  0  0  0  0
   17.0092  -26.9933   -4.2872 C   0  0  0  0  0  0  0  0  0  0  0  0
   17.4792  -25.5978   -4.0432 C   0  0  2  0  0  0  0  0  0  0  0  0
   16.6483  -24.8797   -3.0877 N   0  0  0  0  0  0  0  0  0  0  0  0
   17.3498  -24.8853   -5.3680 C   0  0  0  0  0  0  0  0  0  0  0  0
   16.3145  -24.2153   -5.5796 O   0  0  0  0  0  0  0  0  0  0  0  0
   18.3337  -24.9454   -6.3567 N   0  0  0  0  0  0  0  0  0  0  0  0
   18.1402  -24.1932   -7.5921 C   0  0  1  0  0  0  0  0  0  0  0  0
   19.5450  -23.8537   -8.0512 C   0  0  0  0  0  0  0  0  0  0  0  0
   19.5946  -23.0556   -9.6625 S   0  0  0  0  0  0  0  0  0  0  0  0
   17.3536  -24.9474   -8.5643 C   0  0  0  0  0  0  0  0  0  0  0  0
   17.6092  -26.1812   -8.7163 O   0  0  0  0  0  0  0  0  0  0  0  0
   13.6217  -25.7833   -8.7350 C   0  0  0  0  0  0  0  0  0  0  0  0
   14.0159  -24.9329   -9.9234 C   0  0  1  0  0  0  0  0  0  0  0  0
   13.8460  -23.5784   -9.5662 O   0  0  0  0  0  0  0  0  0  0  0  0
   15.4845  -25.0843  -10.2482 C   0  0  2  0  0  0  0  0  0  0  0  0
   16.3391  -24.3644   -9.3230 N   0  0  0  0  0  0  0  0  0  0  0  0
   15.6944  -24.5273  -11.6026 C   0  0  0  0  0  0  0  0  0  0  0  0
   15.1247  -25.1434  -12.7015 O   0  0  0  0  0  0  0  0  0  0  0  0
   16.3883  -23.4875  -11.8048 O   0  0  0  0  0  0  0  0  0  0  0  0
  2  1  1  0
  3  2  1  0
  3  4  1  0
  4  5  1  0
  5  7  1  0
  5  6  1  1
  7  9  1  0
  7  8  2  0
  9 10  1  0
 10 13  1  0
 10 11  1  6
 11 12  1  0
 13 14  2  0
 16 15  1  1
 16 18  1  0
 16 17  1  0
 18 20  1  0
 19 13  1  0
 18 19  1  1
 20 21  1  0
 22 20  2  0
M  END
$$$$
