MCT.pdb
     RDKit          3D

 22 21  0  0  1  0  0  0  0  0999 V2000
   21.6953  -17.6744  -14.8622 C   0  0  0  0  0  0  0  0  0  0  0  0
   20.0915  -18.0048  -15.5873 S   0  0  0  0  0  0  0  0  0  0  0  0
   19.0924  -16.5504  -15.8235 C   0  0  0  0  0  0  0  0  0  0  0  0
   19.8585  -15.2820  -15.9983 C   0  0  0  0  0  0  0  0  0  0  0  0
   19.9003  -14.7273  -17.3835 C   0  0  2  0  0  0  0  0  0  0  0  0
   20.5921  -15.5993  -18.3216 N   0  0  0  0  0  0  0  0  0  0  0  0
   20.7019  -13.4514  -17.2890 C   0  0  0  0  0  0  0  0  0  0  0  0
   21.9349  -13.5122  -17.4927 O   0  0  0  0  0  0  0  0  0  0  0  0
   20.1237  -12.2173  -16.9859 N   0  0  0  0  0  0  0  0  0  0  0  0
   20.9655  -11.0255  -16.9800 C   0  0  1  0  0  0  0  0  0  0  0  0
   21.4378  -10.8899  -18.4146 C   0  0  0  0  0  0  0  0  0  0  0  0
   22.2546   -9.3228  -18.7508 S   0  0  0  0  0  0  0  0  0  0  0  0
   20.2473   -9.8612  -16.4689 C   0  0  0  0  0  0  0  0  0  0  0  0
   19.1299   -9.5666  -16.9936 O   0  0  0  0  0  0  0  0  0  0  0  0
   18.9547   -9.1487  -12.9801 C   0  0  0  0  0  0  0  0  0  0  0  0
   19.8928   -8.0254  -13.3657 C   0  0  1  0  0  0  0  0  0  0  0  0
   21.1765   -8.3399  -12.8715 O   0  0  0  0  0  0  0  0  0  0  0  0
   20.0501   -7.9273  -14.8661 C   0  0  2  0  0  0  0  0  0  0  0  0
   20.7413   -9.0704  -15.4319 N   0  0  0  0  0  0  0  0  0  0  0  0
   20.8517   -6.7157  -15.1453 C   0  0  0  0  0  0  0  0  0  0  0  0
   20.3623   -5.4675  -14.8075 O   0  0  0  0  0  0  0  0  0  0  0  0
   21.9924   -6.7723  -15.6923 O   0  0  0  0  0  0  0  0  0  0  0  0
  2  1  1  0
  3  2  1  0
  3  4  1  0
  4  5  1  0
  5  7  1  0
  5  6  1  6
  7  9  1  0
  7  8  2  0
  9 10  1  0
 10 13  1  0
 10 11  1  6
 11 12  1  0
 13 14  2  0
 16 15  1  6
 16 18  1  0
 16 17  1  0
 18 20  1  0
 19 13  1  0
 18 19  1  1
 20 21  1  0
 22 20  2  0
M  END
$$$$
