MCT.pdb
     RDKit          3D

 22 21  0  0  1  0  0  0  0  0999 V2000
   26.3864  -15.8715  -14.7160 C   0  0  0  0  0  0  0  0  0  0  0  0
   27.6135  -16.5162  -15.8499 S   0  0  0  0  0  0  0  0  0  0  0  0
   28.0476  -18.2170  -15.5534 C   0  0  0  0  0  0  0  0  0  0  0  0
   27.1900  -18.9209  -14.5556 C   0  0  0  0  0  0  0  0  0  0  0  0
   27.6501  -20.2779  -14.1376 C   0  0  2  0  0  0  0  0  0  0  0  0
   27.9578  -21.1439  -15.2665 N   0  0  0  0  0  0  0  0  0  0  0  0
   26.4835  -20.8981  -13.4070 C   0  0  0  0  0  0  0  0  0  0  0  0
   25.7487  -21.6930  -14.0345 O   0  0  0  0  0  0  0  0  0  0  0  0
   26.1969  -20.6205  -12.0691 N   0  0  0  0  0  0  0  0  0  0  0  0
   24.9855  -21.1775  -11.4761 C   0  0  1  0  0  0  0  0  0  0  0  0
   25.1838  -21.0077   -9.9824 C   0  0  0  0  0  0  0  0  0  0  0  0
   26.9144  -20.9727   -9.4928 S   0  0  0  0  0  0  0  0  0  0  0  0
   23.7840  -20.5351  -12.0019 C   0  0  0  0  0  0  0  0  0  0  0  0
   23.5960  -19.3074  -11.7409 O   0  0  0  0  0  0  0  0  0  0  0  0
   22.9169  -20.0516  -15.5961 C   0  0  0  0  0  0  0  0  0  0  0  0
   21.7723  -20.8087  -14.9578 C   0  0  1  0  0  0  0  0  0  0  0  0
   22.0108  -22.1885  -15.1322 O   0  0  0  0  0  0  0  0  0  0  0  0
   21.7317  -20.5912  -13.4624 C   0  0  2  0  0  0  0  0  0  0  0  0
   22.8457  -21.2175  -12.7756 N   0  0  0  0  0  0  0  0  0  0  0  0
   20.4786  -21.1993  -12.9640 C   0  0  0  0  0  0  0  0  0  0  0  0
   19.2580  -20.6362  -13.2880 O   0  0  0  0  0  0  0  0  0  0  0  0
   20.4739  -22.2364  -12.2374 O   0  0  0  0  0  0  0  0  0  0  0  0
  2  1  1  0
  3  2  1  0
  3  4  1  0
  4  5  1  0
  5  7  1  0
  5  6  1  6
  7  9  1  0
  7  8  2  0
  9 10  1  0
 10 13  1  0
 10 11  1  1
 11 12  1  0
 13 14  2  0
 16 15  1  1
 16 18  1  0
 16 17  1  0
 18 20  1  0
 19 13  1  0
 18 19  1  1
 20 21  1  0
 22 20  2  0
M  END
$$$$
