YHD.pdb
     RDKit          3D

 31 32  0  0  1  0  0  0  0  0999 V2000
    5.2714  -10.6734   28.5847 O   0  0  0  0  0  0  0  0  0  0  0  0
    5.8764  -11.5605   27.7020 C   0  0  0  0  0  0  0  0  0  0  0  0
    5.2701  -11.8433   26.4948 C   0  0  0  0  0  0  0  0  0  0  0  0
    5.8415  -12.7151   25.6005 C   0  0  0  0  0  0  0  0  0  0  0  0
    7.0531  -13.3441   25.8814 C   0  0  0  0  0  0  0  0  0  0  0  0
    7.7102  -14.2822   24.9681 C   0  0  0  0  0  0  0  0  0  0  0  0
    6.8354  -15.4739   24.6560 C   0  0  2  0  0  0  0  0  0  0  0  0
    6.6308  -16.2399   25.8451 N   0  0  0  0  0  0  0  0  0  0  0  0
    7.5493  -16.2839   23.5980 C   0  0  0  0  0  0  0  0  0  0  0  0
    8.1415  -17.3451   23.9137 O   0  0  0  0  0  0  0  0  0  0  0  0
    7.6382  -13.0497   27.0849 C   0  0  0  0  0  0  0  0  0  0  0  0
    7.0759  -12.1785   27.9886 C   0  0  0  0  0  0  0  0  0  0  0  0
    7.5622  -15.8645   22.2480 N   0  0  0  0  0  0  0  0  0  0  0  0
    8.1797  -16.6961   21.1752 C   0  0  1  0  0  0  0  0  0  0  0  0
    7.4843  -16.3928   19.8841 C   0  0  0  0  0  0  0  0  0  0  0  0
    7.8855  -15.1422   19.2738 C   0  0  0  0  0  0  0  0  0  0  0  0
    7.3482  -13.8956   19.4768 C   0  0  0  0  0  0  0  0  0  0  0  0
    7.9590  -13.0245   18.6890 N   0  0  0  0  0  0  0  0  0  0  0  0
    8.8796  -13.7009   17.9854 C   0  0  0  0  0  0  0  0  0  0  0  0
    8.8397  -14.9883   18.3364 N   0  0  0  0  0  0  0  0  0  0  0  0
    9.6331  -16.5459   21.2105 C   0  0  0  0  0  0  0  0  0  0  0  0
   10.1200  -15.4670   21.6835 O   0  0  0  0  0  0  0  0  0  0  0  0
   10.5694  -17.5150   20.7664 N   0  0  0  0  0  0  0  0  0  0  0  0
   11.9957  -17.3826   21.0081 C   0  0  1  0  0  0  0  0  0  0  0  0
   12.2984  -17.0715   22.4465 C   0  0  0  0  0  0  0  0  0  0  0  0
   13.7400  -17.0419   22.7549 C   0  0  0  0  0  0  0  0  0  0  0  0
   14.2723  -17.9561   23.4233 O   0  0  0  0  0  0  0  0  0  0  0  0
   12.8087  -18.4974   20.4972 C   0  0  0  0  0  0  0  0  0  0  0  0
   14.0502  -18.6128   20.5562 O   0  0  0  0  0  0  0  0  0  0  0  0
   14.5741  -16.0171   22.3292 O   0  0  0  0  0  0  0  0  0  0  0  0
   12.1571  -19.5778   19.8628 O   0  0  0  0  0  0  0  0  0  0  0  0
  2 12  2  0
  2  1  1  0
  3  2  1  0
  4  5  1  0
  4  3  2  0
  5 11  2  0
  6  5  1  0
  6  7  1  0
  7  9  1  0
  7  8  1  1
  9 13  1  0
 10  9  2  0
 11 12  1  0
 13 14  1  0
 14 15  1  6
 15 16  1  0
 16 17  2  0
 18 17  1  0
 19 18  1  0
 20 19  2  0
 20 16  1  0
 21 22  2  0
 21 14  1  0
 23 21  1  0
 24 23  1  0
 24 28  1  0
 24 25  1  1
 26 25  1  0
 26 27  2  0
 28 31  1  0
 29 28  2  0
 30 26  1  0
M  END
$$$$
