YHD.pdb
     RDKit          3D

 31 32  0  0  1  0  0  0  0  0999 V2000
    6.6510  -10.4385   27.8802 O   0  0  0  0  0  0  0  0  0  0  0  0
    6.9291  -11.6981   27.3622 C   0  0  0  0  0  0  0  0  0  0  0  0
    7.1385  -12.7587   28.2202 C   0  0  0  0  0  0  0  0  0  0  0  0
    7.4153  -14.0156   27.7408 C   0  0  0  0  0  0  0  0  0  0  0  0
    7.4940  -14.2633   26.3715 C   0  0  0  0  0  0  0  0  0  0  0  0
    7.7854  -15.5809   25.8015 C   0  0  0  0  0  0  0  0  0  0  0  0
    6.6315  -16.1101   24.9822 C   0  0  2  0  0  0  0  0  0  0  0  0
    6.1915  -17.3560   25.5269 N   0  0  0  0  0  0  0  0  0  0  0  0
    7.1325  -16.2773   23.5658 C   0  0  0  0  0  0  0  0  0  0  0  0
    7.4139  -17.4211   23.1308 O   0  0  0  0  0  0  0  0  0  0  0  0
    7.2829  -13.1970   25.5372 C   0  0  0  0  0  0  0  0  0  0  0  0
    7.0050  -11.9338   26.0051 C   0  0  0  0  0  0  0  0  0  0  0  0
    7.2911  -15.1596   22.7148 N   0  0  0  0  0  0  0  0  0  0  0  0
    7.7435  -15.3086   21.3017 C   0  0  1  0  0  0  0  0  0  0  0  0
    7.5476  -13.9988   20.6030 C   0  0  0  0  0  0  0  0  0  0  0  0
    7.9275  -14.0093   19.2054 C   0  0  0  0  0  0  0  0  0  0  0  0
    8.7915  -13.1592   18.5613 C   0  0  0  0  0  0  0  0  0  0  0  0
    8.8266  -13.4671   17.2743 N   0  0  0  0  0  0  0  0  0  0  0  0
    7.9949  -14.5036   17.0897 C   0  0  0  0  0  0  0  0  0  0  0  0
    7.4455  -14.8375   18.2597 N   0  0  0  0  0  0  0  0  0  0  0  0
    9.0815  -15.8959   21.2721 C   0  0  0  0  0  0  0  0  0  0  0  0
    9.4423  -16.5306   20.2271 O   0  0  0  0  0  0  0  0  0  0  0  0
   10.0374  -15.8136   22.3174 N   0  0  0  0  0  0  0  0  0  0  0  0
   11.3097  -16.5124   22.2612 C   0  0  1  0  0  0  0  0  0  0  0  0
   12.4448  -15.6594   22.7527 C   0  0  0  0  0  0  0  0  0  0  0  0
   13.3360  -15.1840   21.6785 C   0  0  0  0  0  0  0  0  0  0  0  0
   13.1439  -15.5211   20.4888 O   0  0  0  0  0  0  0  0  0  0  0  0
   11.3040  -17.8445   22.8858 C   0  0  0  0  0  0  0  0  0  0  0  0
   10.4060  -18.3381   23.5985 O   0  0  0  0  0  0  0  0  0  0  0  0
   14.4194  -14.3505   21.9208 O   0  0  0  0  0  0  0  0  0  0  0  0
   12.4148  -18.6931   22.6850 O   0  0  0  0  0  0  0  0  0  0  0  0
  2 12  2  0
  2  1  1  0
  3  2  1  0
  4  5  1  0
  4  3  2  0
  5 11  2  0
  6  5  1  0
  6  7  1  0
  7  9  1  0
  7  8  1  1
  9 13  1  0
 10  9  2  0
 11 12  1  0
 13 14  1  0
 14 15  1  1
 15 16  1  0
 16 17  2  0
 18 17  1  0
 19 18  1  0
 20 19  2  0
 20 16  1  0
 21 22  2  0
 21 14  1  0
 23 21  1  0
 24 23  1  0
 24 28  1  0
 24 25  1  1
 26 25  1  0
 26 27  2  0
 28 31  1  0
 29 28  2  0
 30 26  1  0
M  END
$$$$
