YHD.pdb
     RDKit          3D

 31 32  0  0  1  0  0  0  0  0999 V2000
    8.0916  -12.3230   17.0288 O   0  0  0  0  0  0  0  0  0  0  0  0
    8.0525  -12.8610   18.3099 C   0  0  0  0  0  0  0  0  0  0  0  0
    6.9217  -12.6995   19.0845 C   0  0  0  0  0  0  0  0  0  0  0  0
    6.8508  -13.2186   20.3541 C   0  0  0  0  0  0  0  0  0  0  0  0
    7.9183  -13.9263   20.9037 C   0  0  0  0  0  0  0  0  0  0  0  0
    7.9012  -14.5024   22.2504 C   0  0  0  0  0  0  0  0  0  0  0  0
    8.8605  -15.6624   22.3812 C   0  0  2  0  0  0  0  0  0  0  0  0
    8.6484  -16.5803   21.3064 N   0  0  0  0  0  0  0  0  0  0  0  0
    8.5911  -16.3128   23.7189 C   0  0  0  0  0  0  0  0  0  0  0  0
    8.5691  -15.6152   24.7627 O   0  0  0  0  0  0  0  0  0  0  0  0
    9.0312  -14.0753   20.1183 C   0  0  0  0  0  0  0  0  0  0  0  0
    9.1142  -13.5602   18.8457 C   0  0  0  0  0  0  0  0  0  0  0  0
    8.3615  -17.7043   23.8168 N   0  0  0  0  0  0  0  0  0  0  0  0
    8.2374  -18.3871   25.1367 C   0  0  1  0  0  0  0  0  0  0  0  0
    7.1914  -19.4522   25.0205 C   0  0  0  0  0  0  0  0  0  0  0  0
    7.1001  -20.3225   26.1746 C   0  0  0  0  0  0  0  0  0  0  0  0
    6.4491  -20.0844   27.3593 C   0  0  0  0  0  0  0  0  0  0  0  0
    6.6501  -21.1041   28.1791 N   0  0  0  0  0  0  0  0  0  0  0  0
    7.4220  -21.9900   27.5314 C   0  0  0  0  0  0  0  0  0  0  0  0
    7.6987  -21.5204   26.3127 N   0  0  0  0  0  0  0  0  0  0  0  0
    9.5606  -18.7893   25.6096 C   0  0  0  0  0  0  0  0  0  0  0  0
   10.4102  -19.2035   24.7544 O   0  0  0  0  0  0  0  0  0  0  0  0
    9.9967  -18.7505   26.9592 N   0  0  0  0  0  0  0  0  0  0  0  0
   11.2440  -19.3588   27.3887 C   0  0  1  0  0  0  0  0  0  0  0  0
   12.0384  -18.4485   28.2818 C   0  0  0  0  0  0  0  0  0  0  0  0
   13.3190  -19.0272   28.7281 C   0  0  0  0  0  0  0  0  0  0  0  0
   14.1787  -19.3999   27.8987 O   0  0  0  0  0  0  0  0  0  0  0  0
   11.1025  -20.7093   27.9553 C   0  0  0  0  0  0  0  0  0  0  0  0
   10.0517  -21.2522   28.3541 O   0  0  0  0  0  0  0  0  0  0  0  0
   13.6387  -19.1890   30.0693 O   0  0  0  0  0  0  0  0  0  0  0  0
   12.2543  -21.5167   28.0813 O   0  0  0  0  0  0  0  0  0  0  0  0
  2 12  2  0
  2  1  1  0
  3  2  1  0
  4  5  1  0
  4  3  2  0
  5 11  2  0
  6  5  1  0
  6  7  1  0
  7  9  1  0
  7  8  1  6
  9 13  1  0
 10  9  2  0
 11 12  1  0
 13 14  1  0
 14 15  1  6
 15 16  1  0
 16 17  2  0
 18 17  1  0
 19 18  1  0
 20 19  2  0
 20 16  1  0
 21 22  2  0
 21 14  1  0
 23 21  1  0
 24 23  1  0
 24 28  1  0
 24 25  1  1
 26 25  1  0
 26 27  2  0
 28 31  1  0
 29 28  2  0
 30 26  1  0
M  END
$$$$
