YHD.pdb
     RDKit          3D

 31 32  0  0  1  0  0  0  0  0999 V2000
    6.3362  -11.4049   19.1908 O   0  0  0  0  0  0  0  0  0  0  0  0
    7.1154  -12.5181   19.4833 C   0  0  0  0  0  0  0  0  0  0  0  0
    6.6057  -13.5166   20.2884 C   0  0  0  0  0  0  0  0  0  0  0  0
    7.3495  -14.6293   20.5964 C   0  0  0  0  0  0  0  0  0  0  0  0
    8.6446  -14.7884   20.1066 C   0  0  0  0  0  0  0  0  0  0  0  0
    9.4851  -15.9516   20.4004 C   0  0  0  0  0  0  0  0  0  0  0  0
    9.5276  -16.9245   19.2453 C   0  0  2  0  0  0  0  0  0  0  0  0
    8.4659  -17.8718   19.3802 N   0  0  0  0  0  0  0  0  0  0  0  0
   10.8773  -17.6040   19.2865 C   0  0  0  0  0  0  0  0  0  0  0  0
   11.0436  -18.6264   19.9961 O   0  0  0  0  0  0  0  0  0  0  0  0
    9.1316  -13.7859   19.3094 C   0  0  0  0  0  0  0  0  0  0  0  0
    8.3966  -12.6671   18.9939 C   0  0  0  0  0  0  0  0  0  0  0  0
   11.9649  -17.1049   18.5338 N   0  0  0  0  0  0  0  0  0  0  0  0
   13.3048  -17.7587   18.5649 C   0  0  1  0  0  0  0  0  0  0  0  0
   13.9198  -17.6391   17.2048 C   0  0  0  0  0  0  0  0  0  0  0  0
   13.2850  -18.4577   16.1927 C   0  0  0  0  0  0  0  0  0  0  0  0
   12.3022  -18.0909   15.3075 C   0  0  0  0  0  0  0  0  0  0  0  0
   11.9524  -19.1432   14.5846 N   0  0  0  0  0  0  0  0  0  0  0  0
   12.7004  -20.1773   14.9984 C   0  0  0  0  0  0  0  0  0  0  0  0
   13.5122  -19.7669   15.9756 N   0  0  0  0  0  0  0  0  0  0  0  0
   14.0738  -17.2526   19.7002 C   0  0  0  0  0  0  0  0  0  0  0  0
   13.9723  -16.0176   19.9991 O   0  0  0  0  0  0  0  0  0  0  0  0
   14.9320  -18.0284   20.5215 N   0  0  0  0  0  0  0  0  0  0  0  0
   15.6128  -17.4699   21.6769 C   0  0  1  0  0  0  0  0  0  0  0  0
   14.8083  -17.6254   22.9363 C   0  0  0  0  0  0  0  0  0  0  0  0
   15.4571  -17.0482   24.1279 C   0  0  0  0  0  0  0  0  0  0  0  0
   16.6057  -16.5565   24.0587 O   0  0  0  0  0  0  0  0  0  0  0  0
   17.0028  -17.9220   21.8454 C   0  0  0  0  0  0  0  0  0  0  0  0
   17.7916  -17.6063   22.7598 O   0  0  0  0  0  0  0  0  0  0  0  0
   14.8422  -17.0175   25.3722 O   0  0  0  0  0  0  0  0  0  0  0  0
   17.5476  -18.8110   20.8930 O   0  0  0  0  0  0  0  0  0  0  0  0
  2 12  2  0
  2  1  1  0
  3  2  1  0
  4  5  1  0
  4  3  2  0
  5 11  2  0
  6  5  1  0
  6  7  1  0
  7  9  1  0
  7  8  1  1
  9 13  1  0
 10  9  2  0
 11 12  1  0
 13 14  1  0
 14 15  1  6
 15 16  1  0
 16 17  2  0
 18 17  1  0
 19 18  1  0
 20 19  2  0
 20 16  1  0
 21 22  2  0
 21 14  1  0
 23 21  1  0
 24 23  1  0
 24 28  1  0
 24 25  1  1
 26 25  1  0
 26 27  2  0
 28 31  1  0
 29 28  2  0
 30 26  1  0
M  END
$$$$
