YHD.pdb
     RDKit          3D

 31 32  0  0  1  0  0  0  0  0999 V2000
    7.9281  -12.3423   16.8402 O   0  0  0  0  0  0  0  0  0  0  0  0
    7.8249  -12.7697   18.1588 C   0  0  0  0  0  0  0  0  0  0  0  0
    6.9786  -13.8133   18.4745 C   0  0  0  0  0  0  0  0  0  0  0  0
    6.8536  -14.2597   19.7673 C   0  0  0  0  0  0  0  0  0  0  0  0
    7.5770  -13.6742   20.8048 C   0  0  0  0  0  0  0  0  0  0  0  0
    7.4856  -14.1066   22.2014 C   0  0  0  0  0  0  0  0  0  0  0  0
    8.6227  -15.0246   22.5846 C   0  0  2  0  0  0  0  0  0  0  0  0
    8.9112  -15.9061   21.4972 N   0  0  0  0  0  0  0  0  0  0  0  0
    8.1805  -15.7918   23.8098 C   0  0  0  0  0  0  0  0  0  0  0  0
    7.7826  -15.1733   24.8275 O   0  0  0  0  0  0  0  0  0  0  0  0
    8.4113  -12.6400   20.4700 C   0  0  0  0  0  0  0  0  0  0  0  0
    8.5451  -12.1841   19.1793 C   0  0  0  0  0  0  0  0  0  0  0  0
    8.2072  -17.2051   23.8305 N   0  0  0  0  0  0  0  0  0  0  0  0
    8.0322  -17.9735   25.0965 C   0  0  1  0  0  0  0  0  0  0  0  0
    6.9867  -19.0217   24.8714 C   0  0  0  0  0  0  0  0  0  0  0  0
    6.7223  -19.8536   26.0271 C   0  0  0  0  0  0  0  0  0  0  0  0
    7.2965  -19.7737   27.2713 C   0  0  0  0  0  0  0  0  0  0  0  0
    6.8248  -20.7489   28.0320 N   0  0  0  0  0  0  0  0  0  0  0  0
    5.9565  -21.4504   27.2877 C   0  0  0  0  0  0  0  0  0  0  0  0
    5.8901  -20.9111   26.0682 N   0  0  0  0  0  0  0  0  0  0  0  0
    9.3355  -18.4151   25.5890 C   0  0  0  0  0  0  0  0  0  0  0  0
   10.3486  -18.2827   24.8266 O   0  0  0  0  0  0  0  0  0  0  0  0
    9.5818  -18.9797   26.8671 N   0  0  0  0  0  0  0  0  0  0  0  0
   10.8962  -18.9557   27.4850 C   0  0  1  0  0  0  0  0  0  0  0  0
   11.7825  -17.9002   26.8867 C   0  0  0  0  0  0  0  0  0  0  0  0
   12.6744  -18.4071   25.8277 C   0  0  0  0  0  0  0  0  0  0  0  0
   13.2495  -19.5120   25.9471 O   0  0  0  0  0  0  0  0  0  0  0  0
   10.8800  -18.9005   28.9552 C   0  0  0  0  0  0  0  0  0  0  0  0
    9.8829  -18.7573   29.6924 O   0  0  0  0  0  0  0  0  0  0  0  0
   12.9229  -17.7006   24.6587 O   0  0  0  0  0  0  0  0  0  0  0  0
   12.1025  -19.0180   29.6524 O   0  0  0  0  0  0  0  0  0  0  0  0
  2 12  2  0
  2  1  1  0
  3  2  1  0
  4  5  1  0
  4  3  2  0
  5 11  2  0
  6  5  1  0
  6  7  1  0
  7  9  1  0
  7  8  1  6
  9 13  1  0
 10  9  2  0
 11 12  1  0
 13 14  1  0
 14 15  1  6
 15 16  1  0
 16 17  2  0
 18 17  1  0
 19 18  1  0
 20 19  2  0
 20 16  1  0
 21 22  2  0
 21 14  1  0
 23 21  1  0
 24 23  1  0
 24 28  1  0
 24 25  1  6
 26 25  1  0
 26 27  2  0
 28 31  1  0
 29 28  2  0
 30 26  1  0
M  END
$$$$
