YHD.pdb
     RDKit          3D

 31 32  0  0  1  0  0  0  0  0999 V2000
    5.8620  -10.5339   28.7100 O   0  0  0  0  0  0  0  0  0  0  0  0
    6.3850  -11.4871   27.8440 C   0  0  0  0  0  0  0  0  0  0  0  0
    5.8222  -11.6579   26.5954 C   0  0  0  0  0  0  0  0  0  0  0  0
    6.3150  -12.5908   25.7162 C   0  0  0  0  0  0  0  0  0  0  0  0
    7.4004  -13.3971   26.0546 C   0  0  0  0  0  0  0  0  0  0  0  0
    7.9692  -14.4079   25.1599 C   0  0  0  0  0  0  0  0  0  0  0  0
    6.9046  -15.2993   24.5644 C   0  0  2  0  0  0  0  0  0  0  0  0
    6.6723  -16.4106   25.4327 N   0  0  0  0  0  0  0  0  0  0  0  0
    7.4104  -15.7546   23.2147 C   0  0  0  0  0  0  0  0  0  0  0  0
    7.8940  -16.9057   23.0815 O   0  0  0  0  0  0  0  0  0  0  0  0
    7.9443  -13.2116   27.2985 C   0  0  0  0  0  0  0  0  0  0  0  0
    7.4598  -12.2808   28.1876 C   0  0  0  0  0  0  0  0  0  0  0  0
    7.3483  -14.9003   22.0899 N   0  0  0  0  0  0  0  0  0  0  0  0
    7.8530  -15.3271   20.7532 C   0  0  1  0  0  0  0  0  0  0  0  0
    7.4968  -14.2694   19.7547 C   0  0  0  0  0  0  0  0  0  0  0  0
    7.8860  -14.5818   18.3952 C   0  0  0  0  0  0  0  0  0  0  0  0
    8.6075  -15.6626   17.9531 C   0  0  0  0  0  0  0  0  0  0  0  0
    8.7996  -15.5535   16.6479 N   0  0  0  0  0  0  0  0  0  0  0  0
    8.2092  -14.4156   16.2520 C   0  0  0  0  0  0  0  0  0  0  0  0
    7.6524  -13.8207   17.3095 N   0  0  0  0  0  0  0  0  0  0  0  0
    9.2594  -15.7109   20.8570 C   0  0  0  0  0  0  0  0  0  0  0  0
   10.0705  -14.8983   21.4110 O   0  0  0  0  0  0  0  0  0  0  0  0
    9.8127  -16.9337   20.3971 N   0  0  0  0  0  0  0  0  0  0  0  0
   11.2454  -17.1710   20.3598 C   0  0  1  0  0  0  0  0  0  0  0  0
   11.6190  -18.4749   21.0062 C   0  0  0  0  0  0  0  0  0  0  0  0
   11.3580  -18.5125   22.4569 C   0  0  0  0  0  0  0  0  0  0  0  0
   11.7247  -17.5744   23.1995 O   0  0  0  0  0  0  0  0  0  0  0  0
   11.8571  -17.0135   19.0310 C   0  0  0  0  0  0  0  0  0  0  0  0
   11.2701  -16.7755   17.9554 O   0  0  0  0  0  0  0  0  0  0  0  0
   10.7027  -19.5711   23.0709 O   0  0  0  0  0  0  0  0  0  0  0  0
   13.2587  -17.1365   18.9100 O   0  0  0  0  0  0  0  0  0  0  0  0
  2 12  2  0
  2  1  1  0
  3  2  1  0
  4  5  1  0
  4  3  2  0
  5 11  2  0
  6  5  1  0
  6  7  1  0
  7  9  1  0
  7  8  1  1
  9 13  1  0
 10  9  2  0
 11 12  1  0
 13 14  1  0
 14 15  1  6
 15 16  1  0
 16 17  2  0
 18 17  1  0
 19 18  1  0
 20 19  2  0
 20 16  1  0
 21 22  2  0
 21 14  1  0
 23 21  1  0
 24 23  1  0
 24 28  1  0
 24 25  1  6
 26 25  1  0
 26 27  2  0
 28 31  1  0
 29 28  2  0
 30 26  1  0
M  END
$$$$
