YHD.pdb
     RDKit          3D

 31 32  0  0  1  0  0  0  0  0999 V2000
   17.8592  -18.6508   12.7059 O   0  0  0  0  0  0  0  0  0  0  0  0
   17.1553  -18.0611   13.7494 C   0  0  0  0  0  0  0  0  0  0  0  0
   17.6753  -16.9505   14.3827 C   0  0  0  0  0  0  0  0  0  0  0  0
   17.0051  -16.3442   15.4169 C   0  0  0  0  0  0  0  0  0  0  0  0
   15.7770  -16.8297   15.8624 C   0  0  0  0  0  0  0  0  0  0  0  0
   15.0165  -16.2262   16.9594 C   0  0  0  0  0  0  0  0  0  0  0  0
   14.2525  -15.0022   16.5112 C   0  0  2  0  0  0  0  0  0  0  0  0
   15.1715  -13.9494   16.2115 N   0  0  0  0  0  0  0  0  0  0  0  0
   13.3275  -14.6169   17.6430 C   0  0  0  0  0  0  0  0  0  0  0  0
   13.8026  -14.1882   18.7233 O   0  0  0  0  0  0  0  0  0  0  0  0
   15.2785  -17.9329   15.2204 C   0  0  0  0  0  0  0  0  0  0  0  0
   15.9401  -18.5487   14.1837 C   0  0  0  0  0  0  0  0  0  0  0  0
   11.9251  -14.7316   17.5059 N   0  0  0  0  0  0  0  0  0  0  0  0
   10.9961  -14.3449   18.6064 C   0  0  1  0  0  0  0  0  0  0  0  0
    9.6289  -14.1563   18.0253 C   0  0  0  0  0  0  0  0  0  0  0  0
    8.6003  -13.8793   19.0065 C   0  0  0  0  0  0  0  0  0  0  0  0
    8.1620  -12.6545   19.4442 C   0  0  0  0  0  0  0  0  0  0  0  0
    7.2486  -12.8299   20.3861 N   0  0  0  0  0  0  0  0  0  0  0  0
    7.0991  -14.1526   20.5547 C   0  0  0  0  0  0  0  0  0  0  0  0
    7.9180  -14.7955   19.7191 N   0  0  0  0  0  0  0  0  0  0  0  0
   11.1330  -15.2825   19.7191 C   0  0  0  0  0  0  0  0  0  0  0  0
   11.2438  -16.5247   19.4553 O   0  0  0  0  0  0  0  0  0  0  0  0
   11.1641  -14.9276   21.0925 N   0  0  0  0  0  0  0  0  0  0  0  0
   11.0738  -15.9180   22.1514 C   0  0  1  0  0  0  0  0  0  0  0  0
   12.2892  -15.9130   23.0347 C   0  0  0  0  0  0  0  0  0  0  0  0
   13.5382  -16.2442   22.3246 C   0  0  0  0  0  0  0  0  0  0  0  0
   13.6389  -17.3006   21.6616 O   0  0  0  0  0  0  0  0  0  0  0  0
    9.8234  -15.8735   22.9255 C   0  0  0  0  0  0  0  0  0  0  0  0
    8.8891  -15.0552   22.8003 O   0  0  0  0  0  0  0  0  0  0  0  0
   14.6537  -15.4182   22.3503 O   0  0  0  0  0  0  0  0  0  0  0  0
    9.6126  -16.8424   23.9310 O   0  0  0  0  0  0  0  0  0  0  0  0
  2 12  2  0
  2  1  1  0
  3  2  1  0
  4  5  1  0
  4  3  2  0
  5 11  2  0
  6  5  1  0
  6  7  1  0
  7  9  1  0
  7  8  1  1
  9 13  1  0
 10  9  2  0
 11 12  1  0
 13 14  1  0
 14 15  1  6
 15 16  1  0
 16 17  2  0
 18 17  1  0
 19 18  1  0
 20 19  2  0
 20 16  1  0
 21 22  2  0
 21 14  1  0
 23 21  1  0
 24 23  1  0
 24 28  1  0
 24 25  1  1
 26 25  1  0
 26 27  2  0
 28 31  1  0
 29 28  2  0
 30 26  1  0
M  END
$$$$
