YHD.pdb
     RDKit          3D

 31 32  0  0  1  0  0  0  0  0999 V2000
    6.8884  -11.2749   18.8799 O   0  0  0  0  0  0  0  0  0  0  0  0
    7.3258  -12.5118   19.3392 C   0  0  0  0  0  0  0  0  0  0  0  0
    8.6037  -12.6401   19.8445 C   0  0  0  0  0  0  0  0  0  0  0  0
    9.0665  -13.8480   20.3063 C   0  0  0  0  0  0  0  0  0  0  0  0
    8.2617  -14.9855   20.2804 C   0  0  0  0  0  0  0  0  0  0  0  0
    8.6994  -16.2992   20.7582 C   0  0  0  0  0  0  0  0  0  0  0  0
    9.3408  -17.1152   19.6603 C   0  0  2  0  0  0  0  0  0  0  0  0
    8.3968  -17.3242   18.6077 N   0  0  0  0  0  0  0  0  0  0  0  0
    9.7741  -18.4258   20.2763 C   0  0  0  0  0  0  0  0  0  0  0  0
    9.3532  -19.5105   19.8042 O   0  0  0  0  0  0  0  0  0  0  0  0
    6.9967  -14.8366   19.7749 C   0  0  0  0  0  0  0  0  0  0  0  0
    6.5219  -13.6325   19.3096 C   0  0  0  0  0  0  0  0  0  0  0  0
   10.6524  -18.4525   21.3839 N   0  0  0  0  0  0  0  0  0  0  0  0
   11.9992  -19.0871   21.3007 C   0  0  1  0  0  0  0  0  0  0  0  0
   12.6950  -18.5595   20.0842 C   0  0  0  0  0  0  0  0  0  0  0  0
   13.9470  -19.2221   19.7826 C   0  0  0  0  0  0  0  0  0  0  0  0
   14.7272  -19.9724   20.6266 C   0  0  0  0  0  0  0  0  0  0  0  0
   15.8187  -20.3570   19.9838 N   0  0  0  0  0  0  0  0  0  0  0  0
   15.7442  -19.8605   18.7396 C   0  0  0  0  0  0  0  0  0  0  0  0
   14.6089  -19.1698   18.6114 N   0  0  0  0  0  0  0  0  0  0  0  0
   12.6872  -18.9529   22.5831 C   0  0  0  0  0  0  0  0  0  0  0  0
   13.1600  -17.8126   22.9013 O   0  0  0  0  0  0  0  0  0  0  0  0
   12.8716  -19.9945   23.5287 N   0  0  0  0  0  0  0  0  0  0  0  0
   13.6139  -19.7995   24.7621 C   0  0  1  0  0  0  0  0  0  0  0  0
   14.7911  -20.7273   24.8656 C   0  0  0  0  0  0  0  0  0  0  0  0
   14.6651  -21.7253   25.9436 C   0  0  0  0  0  0  0  0  0  0  0  0
   13.6830  -21.7120   26.7191 O   0  0  0  0  0  0  0  0  0  0  0  0
   13.9808  -18.4022   25.0406 C   0  0  0  0  0  0  0  0  0  0  0  0
   14.8169  -17.7068   24.4279 O   0  0  0  0  0  0  0  0  0  0  0  0
   15.6111  -22.7187   26.1564 O   0  0  0  0  0  0  0  0  0  0  0  0
   13.3437  -17.7330   26.1086 O   0  0  0  0  0  0  0  0  0  0  0  0
  2 12  2  0
  2  1  1  0
  3  2  1  0
  4  5  1  0
  4  3  2  0
  5 11  2  0
  6  5  1  0
  6  7  1  0
  7  9  1  0
  7  8  1  6
  9 13  1  0
 10  9  2  0
 11 12  1  0
 13 14  1  0
 14 15  1  6
 15 16  1  0
 16 17  2  0
 18 17  1  0
 19 18  1  0
 20 19  2  0
 20 16  1  0
 21 22  2  0
 21 14  1  0
 23 21  1  0
 24 23  1  0
 24 28  1  0
 24 25  1  6
 26 25  1  0
 26 27  2  0
 28 31  1  0
 29 28  2  0
 30 26  1  0
M  END
$$$$
