YHD.pdb
     RDKit          3D

 31 32  0  0  1  0  0  0  0  0999 V2000
    5.5458  -10.2702   27.6668 O   0  0  0  0  0  0  0  0  0  0  0  0
    6.0396  -11.4814   27.1966 C   0  0  0  0  0  0  0  0  0  0  0  0
    7.0170  -11.4887   26.2221 C   0  0  0  0  0  0  0  0  0  0  0  0
    7.5261  -12.6681   25.7361 C   0  0  0  0  0  0  0  0  0  0  0  0
    7.0733  -13.8979   26.2103 C   0  0  0  0  0  0  0  0  0  0  0  0
    7.5777  -15.1870   25.7310 C   0  0  0  0  0  0  0  0  0  0  0  0
    6.9258  -15.6018   24.4327 C   0  0  2  0  0  0  0  0  0  0  0  0
    5.9356  -16.5990   24.6935 N   0  0  0  0  0  0  0  0  0  0  0  0
    8.0199  -16.1366   23.5373 C   0  0  0  0  0  0  0  0  0  0  0  0
    8.2991  -17.3607   23.5503 O   0  0  0  0  0  0  0  0  0  0  0  0
    6.1030  -13.8685   27.1774 C   0  0  0  0  0  0  0  0  0  0  0  0
    5.5853  -12.6941   27.6719 C   0  0  0  0  0  0  0  0  0  0  0  0
    8.7407  -15.2759   22.6779 N   0  0  0  0  0  0  0  0  0  0  0  0
    9.7982  -15.7901   21.7609 C   0  0  1  0  0  0  0  0  0  0  0  0
   10.0507  -14.7577   20.7060 C   0  0  0  0  0  0  0  0  0  0  0  0
    8.9599  -14.5884   19.7685 C   0  0  0  0  0  0  0  0  0  0  0  0
    7.8184  -15.3427   19.6596 C   0  0  0  0  0  0  0  0  0  0  0  0
    7.0982  -14.8984   18.6416 N   0  0  0  0  0  0  0  0  0  0  0  0
    7.7671  -13.8694   18.0995 C   0  0  0  0  0  0  0  0  0  0  0  0
    8.8993  -13.6763   18.7800 N   0  0  0  0  0  0  0  0  0  0  0  0
   10.9445  -16.2525   22.5408 C   0  0  0  0  0  0  0  0  0  0  0  0
   11.4059  -15.4893   23.4517 O   0  0  0  0  0  0  0  0  0  0  0  0
   11.5968  -17.5022   22.3795 N   0  0  0  0  0  0  0  0  0  0  0  0
   12.7509  -17.8827   23.1754 C   0  0  1  0  0  0  0  0  0  0  0  0
   12.5298  -19.1752   23.9090 C   0  0  0  0  0  0  0  0  0  0  0  0
   12.3080  -20.3300   23.0194 C   0  0  0  0  0  0  0  0  0  0  0  0
   12.1044  -20.1677   21.7955 O   0  0  0  0  0  0  0  0  0  0  0  0
   14.0285  -17.8687   22.4458 C   0  0  0  0  0  0  0  0  0  0  0  0
   14.1979  -17.6522   21.2282 O   0  0  0  0  0  0  0  0  0  0  0  0
   12.3122  -21.6395   23.4802 O   0  0  0  0  0  0  0  0  0  0  0  0
   15.2204  -18.1227   23.1593 O   0  0  0  0  0  0  0  0  0  0  0  0
  2 12  2  0
  2  1  1  0
  3  2  1  0
  4  5  1  0
  4  3  2  0
  5 11  2  0
  6  5  1  0
  6  7  1  0
  7  9  1  0
  7  8  1  1
  9 13  1  0
 10  9  2  0
 11 12  1  0
 13 14  1  0
 14 15  1  6
 15 16  1  0
 16 17  2  0
 18 17  1  0
 19 18  1  0
 20 19  2  0
 20 16  1  0
 21 22  2  0
 21 14  1  0
 23 21  1  0
 24 23  1  0
 24 28  1  0
 24 25  1  6
 26 25  1  0
 26 27  2  0
 28 31  1  0
 29 28  2  0
 30 26  1  0
M  END
$$$$
