DSR.pdb
     RDKit          3D

 26 25  0  0  1  0  0  0  0  0999 V2000
   12.4942  -14.9477   17.6446 N   0  0  0  0  0  0  0  0  0  0  0  0
   12.8548  -15.0848   19.0344 C   0  0  1  0  0  0  0  0  0  0  0  0
   14.0465  -14.1399   19.2391 C   0  0  0  0  0  0  0  0  0  0  0  0
   15.1480  -14.5661   18.3695 C   0  0  0  0  0  0  0  0  0  0  0  0
   16.2292  -13.9401   18.3810 O   0  0  0  0  0  0  0  0  0  0  0  0
   11.7947  -14.6384   19.9548 C   0  0  0  0  0  0  0  0  0  0  0  0
   11.9704  -14.7197   21.1947 O   0  0  0  0  0  0  0  0  0  0  0  0
   14.9941  -15.6499   17.5436 O   0  0  0  0  0  0  0  0  0  0  0  0
    7.8940  -13.4409   18.7530 O   0  0  0  0  0  0  0  0  0  0  0  0
    8.5340  -12.7810   19.7927 C   0  0  0  0  0  0  0  0  0  0  0  0
    9.5782  -13.6477   20.4864 C   0  0  2  0  0  0  0  0  0  0  0  0
   10.5606  -14.1103   19.4996 N   0  0  0  0  0  0  0  0  0  0  0  0
    8.9276  -14.8235   21.0854 C   0  0  0  0  0  0  0  0  0  0  0  0
    8.9323  -15.9158   20.4870 O   0  0  0  0  0  0  0  0  0  0  0  0
    8.7066  -14.3105   29.3308 N   0  0  0  0  0  0  0  0  0  0  0  0
    9.8857  -14.5904   28.5994 C   0  0  0  0  0  0  0  0  0  0  0  0
   11.0377  -14.3745   29.1590 N   0  0  0  0  0  0  0  0  0  0  0  0
    9.8186  -15.0994   27.2739 N   0  0  0  0  0  0  0  0  0  0  0  0
    8.5533  -15.1706   26.5650 C   0  0  0  0  0  0  0  0  0  0  0  0
    8.7527  -15.5905   25.1243 C   0  0  0  0  0  0  0  0  0  0  0  0
    7.4495  -15.5917   24.3727 C   0  0  0  0  0  0  0  0  0  0  0  0
    7.6493  -15.8816   22.9216 C   0  0  2  0  0  0  0  0  0  0  0  0
    8.3001  -14.7112   22.3372 N   0  0  0  0  0  0  0  0  0  0  0  0
    6.4039  -16.1337   22.1809 C   0  0  0  0  0  0  0  0  0  0  0  0
    5.8036  -17.3762   22.0820 O   0  0  0  0  0  0  0  0  0  0  0  0
    5.7984  -15.1909   21.5746 O   0  0  0  0  0  0  0  0  0  0  0  0
  2  1  1  6
  2  3  1  0
  3  4  1  0
  4  8  1  0
  4  5  2  0
  6  2  1  0
  7  6  2  0
  9 10  1  0
 11 10  1  6
 11 12  1  0
 12  6  1  0
 13 11  1  0
 13 23  1  0
 14 13  2  0
 16 15  1  0
 17 16  2  0
 18 16  1  0
 19 18  1  0
 20 19  1  0
 21 20  1  0
 22 21  1  1
 22 23  1  0
 24 22  1  0
 25 24  1  0
 26 24  2  0
M  END
$$$$
