DSR.pdb
     RDKit          3D

 26 25  0  0  1  0  0  0  0  0999 V2000
    9.2422  -15.2830   16.2536 N   0  0  0  0  0  0  0  0  0  0  0  0
    9.2237  -16.2194   17.3505 C   0  0  1  0  0  0  0  0  0  0  0  0
   10.6569  -16.7591   17.4469 C   0  0  0  0  0  0  0  0  0  0  0  0
   10.9041  -17.6606   16.3167 C   0  0  0  0  0  0  0  0  0  0  0  0
   10.0597  -18.5315   16.0177 O   0  0  0  0  0  0  0  0  0  0  0  0
    8.9186  -15.5880   18.6462 C   0  0  0  0  0  0  0  0  0  0  0  0
    9.8141  -14.9572   19.2586 O   0  0  0  0  0  0  0  0  0  0  0  0
   12.0602  -17.5501   15.5873 O   0  0  0  0  0  0  0  0  0  0  0  0
    5.2706  -16.0701   20.7874 O   0  0  0  0  0  0  0  0  0  0  0  0
    5.9044  -14.8358   20.7575 C   0  0  0  0  0  0  0  0  0  0  0  0
    7.4040  -14.9495   20.5103 C   0  0  2  0  0  0  0  0  0  0  0  0
    7.6370  -15.6591   19.2474 N   0  0  0  0  0  0  0  0  0  0  0  0
    8.0291  -15.7156   21.5997 C   0  0  0  0  0  0  0  0  0  0  0  0
    8.4313  -16.8771   21.3990 O   0  0  0  0  0  0  0  0  0  0  0  0
   10.5682  -13.5260   29.9545 N   0  0  0  0  0  0  0  0  0  0  0  0
   10.8380  -14.8961   29.7228 C   0  0  0  0  0  0  0  0  0  0  0  0
   11.6239  -15.5282   30.5411 N   0  0  0  0  0  0  0  0  0  0  0  0
   10.2624  -15.5759   28.6150 N   0  0  0  0  0  0  0  0  0  0  0  0
    9.8520  -14.8509   27.4258 C   0  0  0  0  0  0  0  0  0  0  0  0
    9.4209  -15.7975   26.3258 C   0  0  0  0  0  0  0  0  0  0  0  0
    8.9562  -15.0430   25.1100 C   0  0  0  0  0  0  0  0  0  0  0  0
    8.5697  -15.9660   24.0018 C   0  0  2  0  0  0  0  0  0  0  0  0
    8.1722  -15.1324   22.8695 N   0  0  0  0  0  0  0  0  0  0  0  0
    7.4507  -16.8632   24.3281 C   0  0  0  0  0  0  0  0  0  0  0  0
    7.6097  -18.1558   24.7947 O   0  0  0  0  0  0  0  0  0  0  0  0
    6.2427  -16.4822   24.1920 O   0  0  0  0  0  0  0  0  0  0  0  0
  2  1  1  6
  2  3  1  0
  3  4  1  0
  4  8  1  0
  4  5  2  0
  6  2  1  0
  7  6  2  0
  9 10  1  0
 11 10  1  1
 11 12  1  0
 12  6  1  0
 13 11  1  0
 13 23  1  0
 14 13  2  0
 16 15  1  0
 17 16  2  0
 18 16  1  0
 19 18  1  0
 20 19  1  0
 21 20  1  0
 22 21  1  1
 22 23  1  0
 24 22  1  0
 25 24  1  0
 26 24  2  0
M  END
$$$$
