DSR.pdb
     RDKit          3D

 26 25  0  0  1  0  0  0  0  0999 V2000
    7.4348  -13.6156   14.5470 N   0  0  0  0  0  0  0  0  0  0  0  0
    7.4350  -14.5997   15.6015 C   0  0  1  0  0  0  0  0  0  0  0  0
    8.2028  -15.8012   15.0344 C   0  0  0  0  0  0  0  0  0  0  0  0
    7.4401  -16.3714   13.9188 C   0  0  0  0  0  0  0  0  0  0  0  0
    6.2461  -16.7002   14.0836 O   0  0  0  0  0  0  0  0  0  0  0  0
    8.1619  -14.1595   16.8048 C   0  0  0  0  0  0  0  0  0  0  0  0
    9.3206  -13.6897   16.6964 O   0  0  0  0  0  0  0  0  0  0  0  0
    8.0346  -16.5447   12.6952 O   0  0  0  0  0  0  0  0  0  0  0  0
    6.8963  -14.9747   20.7497 O   0  0  0  0  0  0  0  0  0  0  0  0
    7.5416  -13.7715   20.5007 C   0  0  0  0  0  0  0  0  0  0  0  0
    8.4164  -13.8193   19.2535 C   0  0  2  0  0  0  0  0  0  0  0  0
    7.6056  -14.2416   18.1059 N   0  0  0  0  0  0  0  0  0  0  0  0
    9.4999  -14.7958   19.4455 C   0  0  0  0  0  0  0  0  0  0  0  0
    9.4736  -15.8877   18.8468 O   0  0  0  0  0  0  0  0  0  0  0  0
   17.1746  -13.0678   21.5246 N   0  0  0  0  0  0  0  0  0  0  0  0
   17.3283  -14.4623   21.7128 C   0  0  0  0  0  0  0  0  0  0  0  0
   18.2648  -14.8893   22.5049 N   0  0  0  0  0  0  0  0  0  0  0  0
   16.4759  -15.3864   21.0495 N   0  0  0  0  0  0  0  0  0  0  0  0
   15.4106  -14.9254   20.1770 C   0  0  0  0  0  0  0  0  0  0  0  0
   14.1138  -15.6533   20.4602 C   0  0  0  0  0  0  0  0  0  0  0  0
   12.9293  -14.7426   20.2846 C   0  0  0  0  0  0  0  0  0  0  0  0
   11.6403  -15.4674   20.4910 C   0  0  2  0  0  0  0  0  0  0  0  0
   10.5672  -14.4929   20.3071 N   0  0  0  0  0  0  0  0  0  0  0  0
   11.4937  -16.0671   21.8260 C   0  0  0  0  0  0  0  0  0  0  0  0
   10.6039  -15.6117   22.7823 O   0  0  0  0  0  0  0  0  0  0  0  0
   12.2018  -17.0660   22.1783 O   0  0  0  0  0  0  0  0  0  0  0  0
  2  1  1  6
  2  3  1  0
  3  4  1  0
  4  8  1  0
  4  5  2  0
  6  2  1  0
  7  6  2  0
  9 10  1  0
 11 10  1  1
 11 12  1  0
 12  6  1  0
 13 11  1  0
 13 23  1  0
 14 13  2  0
 16 15  1  0
 17 16  2  0
 18 16  1  0
 19 18  1  0
 20 19  1  0
 21 20  1  0
 22 21  1  1
 22 23  1  0
 24 22  1  0
 25 24  1  0
 26 24  2  0
M  END
$$$$
