DSR.pdb
     RDKit          3D

 26 25  0  0  1  0  0  0  0  0999 V2000
   10.1281  -18.7783   18.0416 N   0  0  0  0  0  0  0  0  0  0  0  0
   10.4706  -17.3779   18.0840 C   0  0  1  0  0  0  0  0  0  0  0  0
   10.3653  -16.8907   16.6327 C   0  0  0  0  0  0  0  0  0  0  0  0
   11.5290  -17.3734   15.8818 C   0  0  0  0  0  0  0  0  0  0  0  0
   12.3377  -18.1579   16.4218 O   0  0  0  0  0  0  0  0  0  0  0  0
    9.5221  -16.5730   18.8731 C   0  0  0  0  0  0  0  0  0  0  0  0
    9.7198  -15.3425   19.0198 O   0  0  0  0  0  0  0  0  0  0  0  0
   11.7319  -16.9655   14.5883 O   0  0  0  0  0  0  0  0  0  0  0  0
    6.2787  -18.2760   20.9207 O   0  0  0  0  0  0  0  0  0  0  0  0
    6.1969  -16.9342   20.5760 C   0  0  0  0  0  0  0  0  0  0  0  0
    7.5650  -16.2921   20.3791 C   0  0  2  0  0  0  0  0  0  0  0  0
    8.3731  -17.1315   19.4872 N   0  0  0  0  0  0  0  0  0  0  0  0
    8.2543  -16.1873   21.6746 C   0  0  0  0  0  0  0  0  0  0  0  0
    9.2712  -16.8698   21.9011 O   0  0  0  0  0  0  0  0  0  0  0  0
    5.6757   -9.9987   26.1919 N   0  0  0  0  0  0  0  0  0  0  0  0
    6.2500  -11.0423   26.9566 C   0  0  0  0  0  0  0  0  0  0  0  0
    6.0878  -11.0387   28.2452 N   0  0  0  0  0  0  0  0  0  0  0  0
    6.9933  -12.0805   26.3320 N   0  0  0  0  0  0  0  0  0  0  0  0
    7.3468  -13.2866   27.0593 C   0  0  0  0  0  0  0  0  0  0  0  0
    8.1766  -14.2210   26.2048 C   0  0  0  0  0  0  0  0  0  0  0  0
    7.6333  -14.3042   24.8044 C   0  0  0  0  0  0  0  0  0  0  0  0
    8.4017  -15.2760   23.9710 C   0  0  2  0  0  0  0  0  0  0  0  0
    7.7620  -15.3131   22.6578 N   0  0  0  0  0  0  0  0  0  0  0  0
    8.4259  -16.6443   24.5100 C   0  0  0  0  0  0  0  0  0  0  0  0
    9.5089  -17.1926   25.1736 O   0  0  0  0  0  0  0  0  0  0  0  0
    7.4195  -17.4159   24.3878 O   0  0  0  0  0  0  0  0  0  0  0  0
  2  1  1  6
  2  3  1  0
  3  4  1  0
  4  8  1  0
  4  5  2  0
  6  2  1  0
  7  6  2  0
  9 10  1  0
 11 10  1  1
 11 12  1  0
 12  6  1  0
 13 11  1  0
 13 23  1  0
 14 13  2  0
 16 15  1  0
 17 16  2  0
 18 16  1  0
 19 18  1  0
 20 19  1  0
 21 20  1  0
 22 21  1  1
 22 23  1  0
 24 22  1  0
 25 24  1  0
 26 24  2  0
M  END
$$$$
