DSR.pdb
     RDKit          3D

 26 25  0  0  1  0  0  0  0  0999 V2000
   12.4387  -18.6907   20.5941 N   0  0  0  0  0  0  0  0  0  0  0  0
   11.3063  -18.7854   21.4824 C   0  0  1  0  0  0  0  0  0  0  0  0
   11.3855  -20.1916   22.0916 C   0  0  0  0  0  0  0  0  0  0  0  0
   11.1658  -21.1831   21.0334 C   0  0  0  0  0  0  0  0  0  0  0  0
   10.2010  -21.0551   20.2499 O   0  0  0  0  0  0  0  0  0  0  0  0
   11.3679  -17.8317   22.6035 C   0  0  0  0  0  0  0  0  0  0  0  0
   12.4278  -17.7149   23.2652 O   0  0  0  0  0  0  0  0  0  0  0  0
   12.0166  -22.2505   20.9019 O   0  0  0  0  0  0  0  0  0  0  0  0
    8.0233  -15.6791   24.1243 O   0  0  0  0  0  0  0  0  0  0  0  0
    9.2797  -15.0902   24.0983 C   0  0  0  0  0  0  0  0  0  0  0  0
   10.4100  -16.1124   24.1211 C   0  0  2  0  0  0  0  0  0  0  0  0
   10.2665  -17.0225   22.9792 N   0  0  0  0  0  0  0  0  0  0  0  0
   10.3391  -16.9021   25.3604 C   0  0  0  0  0  0  0  0  0  0  0  0
    9.9897  -18.0970   25.3237 O   0  0  0  0  0  0  0  0  0  0  0  0
   14.1589  -22.0481   30.1979 N   0  0  0  0  0  0  0  0  0  0  0  0
   12.7878  -22.1082   30.5445 C   0  0  0  0  0  0  0  0  0  0  0  0
   12.3513  -23.1392   31.2027 N   0  0  0  0  0  0  0  0  0  0  0  0
   11.8970  -21.0615   30.1817 N   0  0  0  0  0  0  0  0  0  0  0  0
   12.3200  -19.9976   29.2887 C   0  0  0  0  0  0  0  0  0  0  0  0
   11.2727  -18.9085   29.1956 C   0  0  0  0  0  0  0  0  0  0  0  0
   11.4357  -18.1033   27.9352 C   0  0  0  0  0  0  0  0  0  0  0  0
   10.4069  -17.0262   27.8313 C   0  0  2  0  0  0  0  0  0  0  0  0
   10.6677  -16.3039   26.5882 N   0  0  0  0  0  0  0  0  0  0  0  0
   10.4332  -16.0595   28.9396 C   0  0  0  0  0  0  0  0  0  0  0  0
   10.6162  -14.6986   28.7715 O   0  0  0  0  0  0  0  0  0  0  0  0
   10.2849  -16.4402   30.1463 O   0  0  0  0  0  0  0  0  0  0  0  0
  2  1  1  6
  2  3  1  0
  3  4  1  0
  4  8  1  0
  4  5  2  0
  6  2  1  0
  7  6  2  0
  9 10  1  0
 11 10  1  1
 11 12  1  0
 12  6  1  0
 13 11  1  0
 13 23  1  0
 14 13  2  0
 16 15  1  0
 17 16  2  0
 18 16  1  0
 19 18  1  0
 20 19  1  0
 21 20  1  0
 22 21  1  1
 22 23  1  0
 24 22  1  0
 25 24  1  0
 26 24  2  0
M  END
$$$$
