DSR.pdb
     RDKit          3D

 26 25  0  0  1  0  0  0  0  0999 V2000
    7.6964  -15.5864   16.1612 N   0  0  0  0  0  0  0  0  0  0  0  0
    8.5787  -14.4466   16.1099 C   0  0  1  0  0  0  0  0  0  0  0  0
    7.8002  -13.3652   15.3488 C   0  0  0  0  0  0  0  0  0  0  0  0
    7.5094  -13.8501   13.9955 C   0  0  0  0  0  0  0  0  0  0  0  0
    7.8720  -14.9954   13.6524 O   0  0  0  0  0  0  0  0  0  0  0  0
    8.8875  -13.8925   17.4395 C   0  0  0  0  0  0  0  0  0  0  0  0
    9.6728  -12.9190   17.5423 O   0  0  0  0  0  0  0  0  0  0  0  0
    6.8408  -13.0492   13.1055 O   0  0  0  0  0  0  0  0  0  0  0  0
    7.6951  -15.8530   21.0155 O   0  0  0  0  0  0  0  0  0  0  0  0
    8.0579  -14.5141   21.0572 C   0  0  0  0  0  0  0  0  0  0  0  0
    8.9834  -14.1187   19.9126 C   0  0  2  0  0  0  0  0  0  0  0  0
    8.3296  -14.4153   18.6331 N   0  0  0  0  0  0  0  0  0  0  0  0
   10.2300  -14.8960   19.9922 C   0  0  0  0  0  0  0  0  0  0  0  0
   10.3979  -15.8889   19.2594 O   0  0  0  0  0  0  0  0  0  0  0  0
   17.1402  -15.3719   18.4640 N   0  0  0  0  0  0  0  0  0  0  0  0
   16.6870  -14.0363   18.3439 C   0  0  0  0  0  0  0  0  0  0  0  0
   16.7506  -13.4537   17.1849 N   0  0  0  0  0  0  0  0  0  0  0  0
   16.1696  -13.3375   19.4684 N   0  0  0  0  0  0  0  0  0  0  0  0
   16.0668  -13.9826   20.7652 C   0  0  0  0  0  0  0  0  0  0  0  0
   14.9344  -14.9869   20.7919 C   0  0  0  0  0  0  0  0  0  0  0  0
   13.5985  -14.2987   20.8625 C   0  0  0  0  0  0  0  0  0  0  0  0
   12.4765  -15.2795   20.9573 C   0  0  2  0  0  0  0  0  0  0  0  0
   11.2331  -14.5143   20.8985 N   0  0  0  0  0  0  0  0  0  0  0  0
   12.4718  -16.0710   22.1970 C   0  0  0  0  0  0  0  0  0  0  0  0
   11.8752  -15.6563   23.3742 O   0  0  0  0  0  0  0  0  0  0  0  0
   13.0352  -17.2124   22.2493 O   0  0  0  0  0  0  0  0  0  0  0  0
  2  1  1  1
  2  3  1  0
  3  4  1  0
  4  8  1  0
  4  5  2  0
  6  2  1  0
  7  6  2  0
  9 10  1  0
 11 10  1  1
 11 12  1  0
 12  6  1  0
 13 11  1  0
 13 23  1  0
 14 13  2  0
 16 15  1  0
 17 16  2  0
 18 16  1  0
 19 18  1  0
 20 19  1  0
 21 20  1  0
 22 21  1  1
 22 23  1  0
 24 22  1  0
 25 24  1  0
 26 24  2  0
M  END
$$$$
