DSR.pdb
     RDKit          3D

 26 25  0  0  1  0  0  0  0  0999 V2000
   12.5540  -18.0491   16.6426 N   0  0  0  0  0  0  0  0  0  0  0  0
   11.4191  -17.3726   16.0640 C   0  0  1  0  0  0  0  0  0  0  0  0
   10.9020  -18.3136   14.9677 C   0  0  0  0  0  0  0  0  0  0  0  0
    9.8291  -17.6404   14.2281 C   0  0  0  0  0  0  0  0  0  0  0  0
    8.6624  -17.6512   14.6747 O   0  0  0  0  0  0  0  0  0  0  0  0
   10.3119  -17.1799   17.0165 C   0  0  0  0  0  0  0  0  0  0  0  0
    9.3169  -16.4908   16.6849 O   0  0  0  0  0  0  0  0  0  0  0  0
   10.1035  -16.9991   13.0474 O   0  0  0  0  0  0  0  0  0  0  0  0
    9.5109  -19.7110   20.2118 O   0  0  0  0  0  0  0  0  0  0  0  0
    8.5764  -18.8999   19.5834 C   0  0  0  0  0  0  0  0  0  0  0  0
    9.1476  -17.5452   19.1816 C   0  0  2  0  0  0  0  0  0  0  0  0
   10.3150  -17.7463   18.3158 N   0  0  0  0  0  0  0  0  0  0  0  0
    9.5768  -16.8124   20.3829 C   0  0  0  0  0  0  0  0  0  0  0  0
   10.7889  -16.6574   20.6235 O   0  0  0  0  0  0  0  0  0  0  0  0
    5.3069  -12.2379   27.2575 N   0  0  0  0  0  0  0  0  0  0  0  0
    6.4404  -11.7147   26.5904 C   0  0  0  0  0  0  0  0  0  0  0  0
    6.6088  -10.4275   26.5542 N   0  0  0  0  0  0  0  0  0  0  0  0
    7.3832  -12.5774   25.9678 N   0  0  0  0  0  0  0  0  0  0  0  0
    7.0402  -13.3128   24.7637 C   0  0  0  0  0  0  0  0  0  0  0  0
    8.1523  -14.2576   24.3606 C   0  0  0  0  0  0  0  0  0  0  0  0
    7.8367  -14.9460   23.0607 C   0  0  0  0  0  0  0  0  0  0  0  0
    9.0482  -15.5851   22.4662 C   0  0  2  0  0  0  0  0  0  0  0  0
    8.6139  -16.2860   21.2598 N   0  0  0  0  0  0  0  0  0  0  0  0
    9.7113  -16.5565   23.3494 C   0  0  0  0  0  0  0  0  0  0  0  0
   10.8404  -16.2735   24.0970 O   0  0  0  0  0  0  0  0  0  0  0  0
    9.2649  -17.7434   23.4724 O   0  0  0  0  0  0  0  0  0  0  0  0
  2  1  1  1
  2  3  1  0
  3  4  1  0
  4  8  1  0
  4  5  2  0
  6  2  1  0
  7  6  2  0
  9 10  1  0
 11 10  1  1
 11 12  1  0
 12  6  1  0
 13 11  1  0
 13 23  1  0
 14 13  2  0
 16 15  1  0
 17 16  2  0
 18 16  1  0
 19 18  1  0
 20 19  1  0
 21 20  1  0
 22 21  1  1
 22 23  1  0
 24 22  1  0
 25 24  1  0
 26 24  2  0
M  END
$$$$
