DSR.pdb
     RDKit          3D

 26 25  0  0  1  0  0  0  0  0999 V2000
    9.5430  -17.4409   17.5867 N   0  0  0  0  0  0  0  0  0  0  0  0
   10.4023  -17.4322   18.7451 C   0  0  1  0  0  0  0  0  0  0  0  0
   11.7285  -16.8304   18.2616 C   0  0  0  0  0  0  0  0  0  0  0  0
   12.3574  -17.7593   17.3167 C   0  0  0  0  0  0  0  0  0  0  0  0
   12.3377  -18.9877   17.5436 O   0  0  0  0  0  0  0  0  0  0  0  0
    9.9088  -16.5614   19.8261 C   0  0  0  0  0  0  0  0  0  0  0  0
   10.6379  -16.3275   20.8203 O   0  0  0  0  0  0  0  0  0  0  0  0
   12.9675  -17.2826   16.1847 O   0  0  0  0  0  0  0  0  0  0  0  0
    5.8232  -15.6235   20.5241 O   0  0  0  0  0  0  0  0  0  0  0  0
    6.7817  -14.6340   20.6923 C   0  0  0  0  0  0  0  0  0  0  0  0
    8.1704  -15.1994   20.9661 C   0  0  2  0  0  0  0  0  0  0  0  0
    8.6246  -15.9620   19.7978 N   0  0  0  0  0  0  0  0  0  0  0  0
    8.1170  -16.1053   22.1242 C   0  0  0  0  0  0  0  0  0  0  0  0
    8.0717  -17.3383   21.9544 O   0  0  0  0  0  0  0  0  0  0  0  0
   11.3903  -15.5284   30.5261 N   0  0  0  0  0  0  0  0  0  0  0  0
   10.9190  -14.8017   29.4066 C   0  0  0  0  0  0  0  0  0  0  0  0
   10.9742  -13.5043   29.4318 N   0  0  0  0  0  0  0  0  0  0  0  0
   10.3924  -15.4733   28.2699 N   0  0  0  0  0  0  0  0  0  0  0  0
    8.9865  -15.8296   28.1985 C   0  0  0  0  0  0  0  0  0  0  0  0
    8.6875  -16.6432   26.9573 C   0  0  0  0  0  0  0  0  0  0  0  0
    8.6500  -15.7716   25.7316 C   0  0  0  0  0  0  0  0  0  0  0  0
    8.0362  -16.4799   24.5692 C   0  0  2  0  0  0  0  0  0  0  0  0
    8.1181  -15.5750   23.4249 N   0  0  0  0  0  0  0  0  0  0  0  0
    6.6257  -16.8481   24.7649 C   0  0  0  0  0  0  0  0  0  0  0  0
    6.2118  -17.9993   25.4108 O   0  0  0  0  0  0  0  0  0  0  0  0
    5.6868  -16.1019   24.3350 O   0  0  0  0  0  0  0  0  0  0  0  0
  2  1  1  6
  2  3  1  0
  3  4  1  0
  4  8  1  0
  4  5  2  0
  6  2  1  0
  7  6  2  0
  9 10  1  0
 11 10  1  6
 11 12  1  0
 12  6  1  0
 13 11  1  0
 13 23  1  0
 14 13  2  0
 16 15  1  0
 17 16  2  0
 18 16  1  0
 19 18  1  0
 20 19  1  0
 21 20  1  0
 22 21  1  1
 22 23  1  0
 24 22  1  0
 25 24  1  0
 26 24  2  0
M  END
$$$$
