DSR.pdb
     RDKit          3D

 26 25  0  0  1  0  0  0  0  0999 V2000
    9.3735  -20.1675   16.4523 N   0  0  0  0  0  0  0  0  0  0  0  0
    8.8069  -20.4918   17.7384 C   0  0  1  0  0  0  0  0  0  0  0  0
    7.6584  -21.4652   17.4415 C   0  0  0  0  0  0  0  0  0  0  0  0
    6.8034  -20.8902   16.3977 C   0  0  0  0  0  0  0  0  0  0  0  0
    6.5595  -19.6648   16.3967 O   0  0  0  0  0  0  0  0  0  0  0  0
    9.7473  -21.2004   18.6238 C   0  0  0  0  0  0  0  0  0  0  0  0
    9.6182  -22.4346   18.8107 O   0  0  0  0  0  0  0  0  0  0  0  0
    6.2708  -21.6942   15.4228 O   0  0  0  0  0  0  0  0  0  0  0  0
   13.1270  -19.3797   20.4510 O   0  0  0  0  0  0  0  0  0  0  0  0
   13.1224  -20.7118   20.0620 C   0  0  0  0  0  0  0  0  0  0  0  0
   11.7326  -21.3355   20.1127 C   0  0  2  0  0  0  0  0  0  0  0  0
   10.8130  -20.5433   19.2884 N   0  0  0  0  0  0  0  0  0  0  0  0
   11.2388  -21.3333   21.4986 C   0  0  0  0  0  0  0  0  0  0  0  0
   10.6293  -20.3434   21.9456 O   0  0  0  0  0  0  0  0  0  0  0  0
   11.7479  -27.6878   24.9899 N   0  0  0  0  0  0  0  0  0  0  0  0
   11.8129  -27.5215   23.5858 C   0  0  0  0  0  0  0  0  0  0  0  0
   12.8066  -28.0487   22.9366 N   0  0  0  0  0  0  0  0  0  0  0  0
   10.8113  -26.7909   22.8904 N   0  0  0  0  0  0  0  0  0  0  0  0
    9.7732  -26.0762   23.6114 C   0  0  0  0  0  0  0  0  0  0  0  0
    9.7934  -24.5984   23.2835 C   0  0  0  0  0  0  0  0  0  0  0  0
   10.8161  -23.8711   24.1133 C   0  0  0  0  0  0  0  0  0  0  0  0
   10.9568  -22.4457   23.6914 C   0  0  2  0  0  0  0  0  0  0  0  0
   11.4562  -22.4532   22.3182 N   0  0  0  0  0  0  0  0  0  0  0  0
   11.8897  -21.6629   24.5162 C   0  0  0  0  0  0  0  0  0  0  0  0
   11.6478  -20.3667   24.9347 O   0  0  0  0  0  0  0  0  0  0  0  0
   13.0013  -22.1554   24.8969 O   0  0  0  0  0  0  0  0  0  0  0  0
  2  1  1  6
  2  3  1  0
  3  4  1  0
  4  8  1  0
  4  5  2  0
  6  2  1  0
  7  6  2  0
  9 10  1  0
 11 10  1  1
 11 12  1  0
 12  6  1  0
 13 11  1  0
 13 23  1  0
 14 13  2  0
 16 15  1  0
 17 16  2  0
 18 16  1  0
 19 18  1  0
 20 19  1  0
 21 20  1  0
 22 21  1  1
 22 23  1  0
 24 22  1  0
 25 24  1  0
 26 24  2  0
M  END
$$$$
