DSR.pdb
     RDKit          3D

 26 25  0  0  1  0  0  0  0  0999 V2000
   12.7720  -16.1534   14.0891 N   0  0  0  0  0  0  0  0  0  0  0  0
   12.1456  -16.9930   15.0806 C   0  0  1  0  0  0  0  0  0  0  0  0
   13.1780  -18.0826   15.3997 C   0  0  0  0  0  0  0  0  0  0  0  0
   13.2377  -19.0262   14.2785 C   0  0  0  0  0  0  0  0  0  0  0  0
   14.2952  -19.6486   14.0433 O   0  0  0  0  0  0  0  0  0  0  0  0
   11.8662  -16.2884   16.3438 C   0  0  0  0  0  0  0  0  0  0  0  0
   12.8034  -15.7386   16.9716 O   0  0  0  0  0  0  0  0  0  0  0  0
   12.1357  -19.2269   13.4874 O   0  0  0  0  0  0  0  0  0  0  0  0
    8.0252  -16.0539   18.0585 O   0  0  0  0  0  0  0  0  0  0  0  0
    8.8958  -14.9823   18.1993 C   0  0  0  0  0  0  0  0  0  0  0  0
   10.3597  -15.3966   18.1078 C   0  0  2  0  0  0  0  0  0  0  0  0
   10.5639  -16.1986   16.8963 N   0  0  0  0  0  0  0  0  0  0  0  0
   10.7168  -16.2156   19.2767 C   0  0  0  0  0  0  0  0  0  0  0  0
   10.5398  -17.4482   19.2566 O   0  0  0  0  0  0  0  0  0  0  0  0
   17.3796  -14.5637   23.0694 N   0  0  0  0  0  0  0  0  0  0  0  0
   17.2631  -15.7611   22.3235 C   0  0  0  0  0  0  0  0  0  0  0  0
   18.3122  -16.2264   21.7154 N   0  0  0  0  0  0  0  0  0  0  0  0
   16.0221  -16.4487   22.2366 N   0  0  0  0  0  0  0  0  0  0  0  0
   14.7860  -15.7288   21.9870 C   0  0  0  0  0  0  0  0  0  0  0  0
   13.6620  -16.2469   22.8587 C   0  0  0  0  0  0  0  0  0  0  0  0
   12.3591  -15.5735   22.5236 C   0  0  0  0  0  0  0  0  0  0  0  0
   11.5259  -16.4082   21.6077 C   0  0  2  0  0  0  0  0  0  0  0  0
   11.2599  -15.6027   20.4180 N   0  0  0  0  0  0  0  0  0  0  0  0
   10.2363  -16.8251   22.1791 C   0  0  0  0  0  0  0  0  0  0  0  0
   10.0796  -17.9179   23.0129 O   0  0  0  0  0  0  0  0  0  0  0  0
    9.1670  -16.1805   21.9258 O   0  0  0  0  0  0  0  0  0  0  0  0
  2  1  1  6
  2  3  1  0
  3  4  1  0
  4  8  1  0
  4  5  2  0
  6  2  1  0
  7  6  2  0
  9 10  1  0
 11 10  1  1
 11 12  1  0
 12  6  1  0
 13 11  1  0
 13 23  1  0
 14 13  2  0
 16 15  1  0
 17 16  2  0
 18 16  1  0
 19 18  1  0
 20 19  1  0
 21 20  1  0
 22 21  1  1
 22 23  1  0
 24 22  1  0
 25 24  1  0
 26 24  2  0
M  END
$$$$
