DSR.pdb
     RDKit          3D

 26 25  0  0  1  0  0  0  0  0999 V2000
   15.7196  -21.4635   16.2445 N   0  0  0  0  0  0  0  0  0  0  0  0
   16.7229  -20.9350   17.1359 C   0  0  1  0  0  0  0  0  0  0  0  0
   17.9983  -20.8232   16.2900 C   0  0  0  0  0  0  0  0  0  0  0  0
   19.1384  -20.5693   17.1770 C   0  0  0  0  0  0  0  0  0  0  0  0
   18.9582  -20.4634   18.4088 O   0  0  0  0  0  0  0  0  0  0  0  0
   16.4121  -19.5783   17.6188 C   0  0  0  0  0  0  0  0  0  0  0  0
   16.4935  -18.6030   16.8334 O   0  0  0  0  0  0  0  0  0  0  0  0
   20.4017  -20.4477   16.6577 O   0  0  0  0  0  0  0  0  0  0  0  0
   15.3629  -18.7056   21.6207 O   0  0  0  0  0  0  0  0  0  0  0  0
   14.8450  -17.9333   20.5906 C   0  0  0  0  0  0  0  0  0  0  0  0
   15.7331  -17.9315   19.3519 C   0  0  2  0  0  0  0  0  0  0  0  0
   16.0173  -19.3150   18.9545 N   0  0  0  0  0  0  0  0  0  0  0  0
   17.0068  -17.2611   19.6564 C   0  0  0  0  0  0  0  0  0  0  0  0
   18.0168  -17.9325   19.9400 O   0  0  0  0  0  0  0  0  0  0  0  0
   21.2062   -9.1891   17.7832 N   0  0  0  0  0  0  0  0  0  0  0  0
   20.6861  -10.2914   17.0636 C   0  0  0  0  0  0  0  0  0  0  0  0
   20.3693  -10.1323   15.8141 N   0  0  0  0  0  0  0  0  0  0  0  0
   20.5103  -11.5548   17.6908 N   0  0  0  0  0  0  0  0  0  0  0  0
   19.5096  -11.7410   18.7264 C   0  0  0  0  0  0  0  0  0  0  0  0
   19.6055  -13.1205   19.3425 C   0  0  0  0  0  0  0  0  0  0  0  0
   18.3192  -13.8822   19.1737 C   0  0  0  0  0  0  0  0  0  0  0  0
   18.3642  -15.2026   19.8695 C   0  0  2  0  0  0  0  0  0  0  0  0
   17.0816  -15.8587   19.6256 N   0  0  0  0  0  0  0  0  0  0  0  0
   18.5650  -15.1104   21.3237 C   0  0  0  0  0  0  0  0  0  0  0  0
   19.8072  -15.0265   21.9267 O   0  0  0  0  0  0  0  0  0  0  0  0
   17.5738  -15.1037   22.1241 O   0  0  0  0  0  0  0  0  0  0  0  0
  2  1  1  6
  2  3  1  0
  3  4  1  0
  4  8  1  0
  4  5  2  0
  6  2  1  0
  7  6  2  0
  9 10  1  0
 11 10  1  1
 11 12  1  0
 12  6  1  0
 13 11  1  0
 13 23  1  0
 14 13  2  0
 16 15  1  0
 17 16  2  0
 18 16  1  0
 19 18  1  0
 20 19  1  0
 21 20  1  0
 22 21  1  1
 22 23  1  0
 24 22  1  0
 25 24  1  0
 26 24  2  0
M  END
$$$$
