DSR.pdb
     RDKit          3D

 26 25  0  0  1  0  0  0  0  0999 V2000
    8.8896  -18.0371   16.5565 N   0  0  0  0  0  0  0  0  0  0  0  0
    7.9078  -17.8228   17.5912 C   0  0  1  0  0  0  0  0  0  0  0  0
    7.4354  -19.2248   17.9985 C   0  0  0  0  0  0  0  0  0  0  0  0
    6.5303  -19.7417   16.9666 C   0  0  0  0  0  0  0  0  0  0  0  0
    6.3206  -19.0754   15.9308 O   0  0  0  0  0  0  0  0  0  0  0  0
    8.4679  -17.1944   18.8002 C   0  0  0  0  0  0  0  0  0  0  0  0
    9.5918  -17.5548   19.2266 O   0  0  0  0  0  0  0  0  0  0  0  0
    5.9133  -20.9547   17.1361 O   0  0  0  0  0  0  0  0  0  0  0  0
    6.2809  -14.8498   21.5241 O   0  0  0  0  0  0  0  0  0  0  0  0
    7.5722  -14.4422   21.2199 C   0  0  0  0  0  0  0  0  0  0  0  0
    8.4384  -15.5777   20.6875 C   0  0  2  0  0  0  0  0  0  0  0  0
    7.7860  -16.1817   19.5203 N   0  0  0  0  0  0  0  0  0  0  0  0
    8.5930  -16.6106   21.7237 C   0  0  0  0  0  0  0  0  0  0  0  0
    7.8908  -17.6388   21.6941 O   0  0  0  0  0  0  0  0  0  0  0  0
   13.6981  -21.6482   20.3391 N   0  0  0  0  0  0  0  0  0  0  0  0
   14.3754  -20.5169   20.8538 C   0  0  0  0  0  0  0  0  0  0  0  0
   15.6382  -20.3673   20.5896 N   0  0  0  0  0  0  0  0  0  0  0  0
   13.6920  -19.5561   21.6478 N   0  0  0  0  0  0  0  0  0  0  0  0
   12.2997  -19.7452   22.0141 C   0  0  0  0  0  0  0  0  0  0  0  0
   11.7571  -18.5410   22.7540 C   0  0  0  0  0  0  0  0  0  0  0  0
   10.2797  -18.6763   23.0036 C   0  0  0  0  0  0  0  0  0  0  0  0
    9.7329  -17.4947   23.7348 C   0  0  2  0  0  0  0  0  0  0  0  0
    9.5373  -16.4344   22.7487 N   0  0  0  0  0  0  0  0  0  0  0  0
   10.6147  -16.9813   24.7941 C   0  0  0  0  0  0  0  0  0  0  0  0
   10.8317  -17.6282   25.9975 O   0  0  0  0  0  0  0  0  0  0  0  0
   11.2408  -15.8810   24.6511 O   0  0  0  0  0  0  0  0  0  0  0  0
  2  1  1  6
  2  3  1  0
  3  4  1  0
  4  8  1  0
  4  5  2  0
  6  2  1  0
  7  6  2  0
  9 10  1  0
 11 10  1  1
 11 12  1  0
 12  6  1  0
 13 11  1  0
 13 23  1  0
 14 13  2  0
 16 15  1  0
 17 16  2  0
 18 16  1  0
 19 18  1  0
 20 19  1  0
 21 20  1  0
 22 21  1  6
 22 23  1  0
 24 22  1  0
 25 24  1  0
 26 24  2  0
M  END
$$$$
