DSR.pdb
     RDKit          3D

 26 25  0  0  1  0  0  0  0  0999 V2000
    9.3708  -14.7674   14.0338 N   0  0  0  0  0  0  0  0  0  0  0  0
    8.3021  -14.8516   14.9988 C   0  0  1  0  0  0  0  0  0  0  0  0
    7.8499  -16.3178   14.9759 C   0  0  0  0  0  0  0  0  0  0  0  0
    7.1428  -16.5794   13.7179 C   0  0  0  0  0  0  0  0  0  0  0  0
    6.9160  -15.6419   12.9237 O   0  0  0  0  0  0  0  0  0  0  0  0
    8.7402  -14.5626   16.3753 C   0  0  0  0  0  0  0  0  0  0  0  0
    9.9428  -14.7262   16.6942 O   0  0  0  0  0  0  0  0  0  0  0  0
    6.7295  -17.8505   13.4112 O   0  0  0  0  0  0  0  0  0  0  0  0
    6.2236  -14.0863   19.8008 O   0  0  0  0  0  0  0  0  0  0  0  0
    7.2754  -13.2090   19.5769 C   0  0  0  0  0  0  0  0  0  0  0  0
    8.3778  -13.8178   18.7185 C   0  0  2  0  0  0  0  0  0  0  0  0
    7.8519  -14.0991   17.3780 N   0  0  0  0  0  0  0  0  0  0  0  0
    8.8312  -15.0826   19.3181 C   0  0  0  0  0  0  0  0  0  0  0  0
    8.6716  -16.1577   18.7099 O   0  0  0  0  0  0  0  0  0  0  0  0
   14.4167  -19.5316   17.4078 N   0  0  0  0  0  0  0  0  0  0  0  0
   13.0158  -19.3927   17.2607 C   0  0  0  0  0  0  0  0  0  0  0  0
   12.4608  -19.7707   16.1490 N   0  0  0  0  0  0  0  0  0  0  0  0
   12.2225  -18.8493   18.3076 N   0  0  0  0  0  0  0  0  0  0  0  0
   12.8272  -18.4191   19.5556 C   0  0  0  0  0  0  0  0  0  0  0  0
   11.7759  -17.9939   20.5585 C   0  0  0  0  0  0  0  0  0  0  0  0
   11.0977  -16.7215   20.1291 C   0  0  0  0  0  0  0  0  0  0  0  0
   10.0402  -16.3056   21.0979 C   0  0  2  0  0  0  0  0  0  0  0  0
    9.4465  -15.0746   20.5808 N   0  0  0  0  0  0  0  0  0  0  0  0
   10.5385  -16.0411   22.4563 C   0  0  0  0  0  0  0  0  0  0  0  0
   10.8732  -14.7827   22.9233 O   0  0  0  0  0  0  0  0  0  0  0  0
   10.6918  -16.9876   23.2951 O   0  0  0  0  0  0  0  0  0  0  0  0
  2  1  1  6
  2  3  1  0
  3  4  1  0
  4  8  1  0
  4  5  2  0
  6  2  1  0
  7  6  2  0
  9 10  1  0
 11 10  1  1
 11 12  1  0
 12  6  1  0
 13 11  1  0
 13 23  1  0
 14 13  2  0
 16 15  1  0
 17 16  2  0
 18 16  1  0
 19 18  1  0
 20 19  1  0
 21 20  1  0
 22 21  1  6
 22 23  1  0
 24 22  1  0
 25 24  1  0
 26 24  2  0
M  END
$$$$
