QLA.pdb
     RDKit          3D

 23 22  0  0  1  0  0  0  0  0999 V2000
    9.1238  -13.8433   17.4996 N   0  0  0  0  0  0  0  0  0  0  0  0
    8.2666  -13.3288   18.5013 C   0  0  0  0  0  0  0  0  0  0  0  0
    8.0098  -12.1129   18.5396 O   0  0  0  0  0  0  0  0  0  0  0  0
    7.6493  -14.2217   19.5343 C   0  0  0  0  0  0  0  0  0  0  0  0
    8.7075  -14.8641   20.3855 C   0  0  0  0  0  0  0  0  0  0  0  0
    8.1938  -15.8054   21.4169 C   0  0  2  0  0  0  0  0  0  0  0  0
    6.7072  -15.8608   21.3275 N   0  0  0  0  0  0  0  0  0  0  0  0
    8.5312  -15.5280   22.8042 C   0  0  0  0  0  0  0  0  0  0  0  0
    9.7746  -15.5204   23.1240 O   0  0  0  0  0  0  0  0  0  0  0  0
    8.2027  -12.1366   25.9651 C   0  0  0  0  0  0  0  0  0  0  0  0
    6.8936  -12.8578   25.5921 C   0  0  2  0  0  0  0  0  0  0  0  0
    5.8052  -12.1204   26.3370 C   0  0  0  0  0  0  0  0  0  0  0  0
    7.0589  -14.2674   26.0246 C   0  0  0  0  0  0  0  0  0  0  0  0
    8.1021  -15.0535   25.2389 C   0  0  2  0  0  0  0  0  0  0  0  0
    7.6499  -15.2532   23.8759 N   0  0  0  0  0  0  0  0  0  0  0  0
    8.4378  -16.3238   25.8949 C   0  0  0  0  0  0  0  0  0  0  0  0
    7.5017  -17.1256   26.1659 O   0  0  0  0  0  0  0  0  0  0  0  0
   10.7411  -18.9913   25.9946 C   0  0  0  0  0  0  0  0  0  0  0  0
    9.9464  -18.0709   26.8822 C   0  0  2  0  0  0  0  0  0  0  0  0
    9.7348  -16.7607   26.2659 N   0  0  0  0  0  0  0  0  0  0  0  0
   10.5450  -17.9481   28.2237 C   0  0  0  0  0  0  0  0  0  0  0  0
   11.0164  -16.7580   28.7484 O   0  0  0  0  0  0  0  0  0  0  0  0
   10.6298  -18.9779   28.9249 O   0  0  0  0  0  0  0  0  0  0  0  0
  1  2  1  0
  2  4  1  0
  3  2  2  0
  4  5  1  0
  6  8  1  0
  6  5  1  0
  6  7  1  1
  8 15  1  0
  9  8  2  0
 11 10  1  1
 11 13  1  0
 12 11  1  0
 14 13  1  1
 14 16  1  0
 15 14  1  0
 16 17  2  0
 16 20  1  0
 19 18  1  6
 19 21  1  0
 20 19  1  0
 21 22  1  0
 23 21  2  0
M  END
$$$$
