QLA.pdb
     RDKit          3D

 23 22  0  0  1  0  0  0  0  0999 V2000
    8.9033  -12.2973   18.4098 N   0  0  0  0  0  0  0  0  0  0  0  0
    8.1877  -13.4345   17.9655 C   0  0  0  0  0  0  0  0  0  0  0  0
    7.7517  -13.4830   16.8022 O   0  0  0  0  0  0  0  0  0  0  0  0
    7.9359  -14.6012   18.8715 C   0  0  0  0  0  0  0  0  0  0  0  0
    8.5296  -14.3597   20.2301 C   0  0  0  0  0  0  0  0  0  0  0  0
    8.3987  -15.4969   21.1806 C   0  0  2  0  0  0  0  0  0  0  0  0
    7.0101  -16.0335   21.1087 N   0  0  0  0  0  0  0  0  0  0  0  0
    8.6863  -15.2348   22.5821 C   0  0  0  0  0  0  0  0  0  0  0  0
    9.9031  -14.9790   22.9019 O   0  0  0  0  0  0  0  0  0  0  0  0
    8.0611  -12.1885   26.0278 C   0  0  0  0  0  0  0  0  0  0  0  0
    6.8214  -12.9588   25.5351 C   0  0  2  0  0  0  0  0  0  0  0  0
    5.6563  -12.3685   26.2951 C   0  0  0  0  0  0  0  0  0  0  0  0
    7.0704  -14.3880   25.8462 C   0  0  0  0  0  0  0  0  0  0  0  0
    8.1986  -15.0246   25.0427 C   0  0  2  0  0  0  0  0  0  0  0  0
    7.7802  -15.2186   23.6682 N   0  0  0  0  0  0  0  0  0  0  0  0
    8.6662  -16.2755   25.6535 C   0  0  0  0  0  0  0  0  0  0  0  0
    7.8635  -17.2467   25.7232 O   0  0  0  0  0  0  0  0  0  0  0  0
   11.4831  -18.4470   26.0599 C   0  0  0  0  0  0  0  0  0  0  0  0
   10.3086  -17.8179   26.7609 C   0  0  2  0  0  0  0  0  0  0  0  0
    9.9575  -16.5187   26.1866 N   0  0  0  0  0  0  0  0  0  0  0  0
   10.5213  -17.7270   28.2168 C   0  0  0  0  0  0  0  0  0  0  0  0
   10.7826  -18.8195   29.0244 O   0  0  0  0  0  0  0  0  0  0  0  0
   10.4623  -16.5991   28.7492 O   0  0  0  0  0  0  0  0  0  0  0  0
  1  2  1  0
  2  4  1  0
  3  2  2  0
  4  5  1  0
  6  8  1  0
  6  5  1  0
  6  7  1  1
  8 15  1  0
  9  8  2  0
 11 10  1  1
 11 13  1  0
 12 11  1  0
 14 13  1  1
 14 16  1  0
 15 14  1  0
 16 17  2  0
 16 20  1  0
 19 18  1  6
 19 21  1  0
 20 19  1  0
 21 22  1  0
 23 21  2  0
M  END
$$$$
