QLA.pdb
     RDKit          3D

 23 22  0  0  1  0  0  0  0  0999 V2000
    9.0349  -12.4000   18.5186 N   0  0  0  0  0  0  0  0  0  0  0  0
    8.2236  -13.5097   18.1820 C   0  0  0  0  0  0  0  0  0  0  0  0
    7.7419  -13.6077   17.0401 O   0  0  0  0  0  0  0  0  0  0  0  0
    7.9234  -14.5877   19.1785 C   0  0  0  0  0  0  0  0  0  0  0  0
    8.5318  -14.2649   20.5136 C   0  0  0  0  0  0  0  0  0  0  0  0
    8.5053  -15.3797   21.4987 C   0  0  2  0  0  0  0  0  0  0  0  0
    7.1725  -16.0445   21.4450 N   0  0  0  0  0  0  0  0  0  0  0  0
    8.7653  -15.0493   22.8911 C   0  0  0  0  0  0  0  0  0  0  0  0
    9.9621  -14.7098   23.2085 O   0  0  0  0  0  0  0  0  0  0  0  0
    7.8011  -11.8769   25.9939 C   0  0  0  0  0  0  0  0  0  0  0  0
    6.6495  -12.8391   25.6463 C   0  0  2  0  0  0  0  0  0  0  0  0
    5.4432  -12.2994   26.3790 C   0  0  0  0  0  0  0  0  0  0  0  0
    7.0757  -14.1817   26.1123 C   0  0  0  0  0  0  0  0  0  0  0  0
    8.2458  -14.7792   25.3394 C   0  0  2  0  0  0  0  0  0  0  0  0
    7.8509  -15.0469   23.9703 N   0  0  0  0  0  0  0  0  0  0  0  0
    8.7810  -15.9777   25.9980 C   0  0  0  0  0  0  0  0  0  0  0  0
    8.8952  -15.9721   27.2548 O   0  0  0  0  0  0  0  0  0  0  0  0
    9.8183  -19.5558   25.3505 C   0  0  0  0  0  0  0  0  0  0  0  0
    9.8278  -18.2568   26.1115 C   0  0  2  0  0  0  0  0  0  0  0  0
    9.1932  -17.1743   25.3586 N   0  0  0  0  0  0  0  0  0  0  0  0
   11.1852  -17.8873   26.5518 C   0  0  0  0  0  0  0  0  0  0  0  0
   11.8818  -16.7976   26.0606 O   0  0  0  0  0  0  0  0  0  0  0  0
   11.7354  -18.5991   27.4177 O   0  0  0  0  0  0  0  0  0  0  0  0
  1  2  1  0
  2  4  1  0
  3  2  2  0
  4  5  1  0
  6  8  1  0
  6  5  1  0
  6  7  1  1
  8 15  1  0
  9  8  2  0
 11 10  1  1
 11 13  1  0
 12 11  1  0
 14 13  1  1
 14 16  1  0
 15 14  1  0
 16 17  2  0
 16 20  1  0
 19 18  1  6
 19 21  1  0
 20 19  1  0
 21 22  1  0
 23 21  2  0
M  END
$$$$
