QLA.pdb
     RDKit          3D

 23 22  0  0  1  0  0  0  0  0999 V2000
    9.6454  -20.6061   28.5877 N   0  0  0  0  0  0  0  0  0  0  0  0
   10.5822  -19.5878   28.8846 C   0  0  0  0  0  0  0  0  0  0  0  0
   11.5146  -19.8085   29.6769 O   0  0  0  0  0  0  0  0  0  0  0  0
   10.4814  -18.2287   28.2616 C   0  0  0  0  0  0  0  0  0  0  0  0
    9.2190  -18.1028   27.4570 C   0  0  0  0  0  0  0  0  0  0  0  0
    9.3784  -17.4146   26.1475 C   0  0  2  0  0  0  0  0  0  0  0  0
   10.5637  -16.5135   26.2127 N   0  0  0  0  0  0  0  0  0  0  0  0
    8.2590  -16.6188   25.6686 C   0  0  0  0  0  0  0  0  0  0  0  0
    7.1194  -17.1999   25.5599 O   0  0  0  0  0  0  0  0  0  0  0  0
    5.7406  -13.1387   26.9845 C   0  0  0  0  0  0  0  0  0  0  0  0
    7.1489  -12.8634   26.4244 C   0  0  2  0  0  0  0  0  0  0  0  0
    7.4306  -11.4142   26.7467 C   0  0  0  0  0  0  0  0  0  0  0  0
    7.0792  -13.1454   24.9694 C   0  0  0  0  0  0  0  0  0  0  0  0
    7.1506  -14.6240   24.6060 C   0  0  2  0  0  0  0  0  0  0  0  0
    8.2566  -15.2528   25.3015 N   0  0  0  0  0  0  0  0  0  0  0  0
    7.2323  -14.8267   23.1538 C   0  0  0  0  0  0  0  0  0  0  0  0
    6.2369  -14.5091   22.4461 O   0  0  0  0  0  0  0  0  0  0  0  0
    8.1096  -14.0506   20.3633 C   0  0  0  0  0  0  0  0  0  0  0  0
    8.3425  -15.4052   20.9776 C   0  0  2  0  0  0  0  0  0  0  0  0
    8.3386  -15.3532   22.4400 N   0  0  0  0  0  0  0  0  0  0  0  0
    9.5688  -16.0397   20.4613 C   0  0  0  0  0  0  0  0  0  0  0  0
    9.6006  -17.3017   19.8954 O   0  0  0  0  0  0  0  0  0  0  0  0
   10.6383  -15.4000   20.5397 O   0  0  0  0  0  0  0  0  0  0  0  0
  1  2  1  0
  2  4  1  0
  3  2  2  0
  4  5  1  0
  6  8  1  0
  6  5  1  0
  6  7  1  1
  8 15  1  0
  9  8  2  0
 11 10  1  1
 11 13  1  0
 12 11  1  0
 14 13  1  6
 14 16  1  0
 15 14  1  0
 16 17  2  0
 16 20  1  0
 19 18  1  6
 19 21  1  0
 20 19  1  0
 21 22  1  0
 23 21  2  0
M  END
$$$$
