QLA.pdb
     RDKit          3D

 23 22  0  0  1  0  0  0  0  0999 V2000
    6.9794  -19.4224   20.3645 N   0  0  0  0  0  0  0  0  0  0  0  0
    6.5925  -18.4876   19.3750 C   0  0  0  0  0  0  0  0  0  0  0  0
    5.9802  -18.8677   18.3619 O   0  0  0  0  0  0  0  0  0  0  0  0
    6.9045  -17.0287   19.5152 C   0  0  0  0  0  0  0  0  0  0  0  0
    7.4702  -16.7322   20.8749 C   0  0  0  0  0  0  0  0  0  0  0  0
    7.5650  -15.2858   21.2107 C   0  0  2  0  0  0  0  0  0  0  0  0
    8.4095  -14.6037   20.1896 N   0  0  0  0  0  0  0  0  0  0  0  0
    8.1015  -14.9352   22.5164 C   0  0  0  0  0  0  0  0  0  0  0  0
    9.3626  -14.7098   22.6004 O   0  0  0  0  0  0  0  0  0  0  0  0
    7.7928  -11.6338   25.5682 C   0  0  0  0  0  0  0  0  0  0  0  0
    6.5895  -12.5954   25.5462 C   0  0  2  0  0  0  0  0  0  0  0  0
    5.5791  -11.9923   26.4942 C   0  0  0  0  0  0  0  0  0  0  0  0
    7.1047  -13.9147   25.9882 C   0  0  0  0  0  0  0  0  0  0  0  0
    8.0633  -14.5817   25.0084 C   0  0  2  0  0  0  0  0  0  0  0  0
    7.4006  -14.8007   23.7376 N   0  0  0  0  0  0  0  0  0  0  0  0
    8.6247  -15.8244   25.5533 C   0  0  0  0  0  0  0  0  0  0  0  0
    7.8355  -16.7693   25.8305 O   0  0  0  0  0  0  0  0  0  0  0  0
   11.7938  -17.7645   25.7029 C   0  0  0  0  0  0  0  0  0  0  0  0
   10.4436  -17.4031   26.2622 C   0  0  2  0  0  0  0  0  0  0  0  0
    9.9949  -16.0867   25.8074 N   0  0  0  0  0  0  0  0  0  0  0  0
   10.4110  -17.5085   27.7322 C   0  0  0  0  0  0  0  0  0  0  0  0
   10.7437  -18.6574   28.4273 O   0  0  0  0  0  0  0  0  0  0  0  0
   10.0638  -16.5024   28.3851 O   0  0  0  0  0  0  0  0  0  0  0  0
  1  2  1  0
  2  4  1  0
  3  2  2  0
  4  5  1  0
  6  8  1  0
  6  5  1  0
  6  7  1  6
  8 15  1  0
  9  8  2  0
 11 10  1  1
 11 13  1  0
 12 11  1  0
 14 13  1  1
 14 16  1  0
 15 14  1  0
 16 17  2  0
 16 20  1  0
 19 18  1  1
 19 21  1  0
 20 19  1  0
 21 22  1  0
 23 21  2  0
M  END
$$$$
