QLA.pdb
     RDKit          3D

 23 22  0  0  1  0  0  0  0  0999 V2000
    9.4725  -12.7709   18.1539 N   0  0  0  0  0  0  0  0  0  0  0  0
    8.2008  -13.3833   18.0522 C   0  0  0  0  0  0  0  0  0  0  0  0
    7.6281  -13.4545   16.9510 O   0  0  0  0  0  0  0  0  0  0  0  0
    7.5130  -13.9578   19.2531 C   0  0  0  0  0  0  0  0  0  0  0  0
    8.3421  -13.7574   20.4897 C   0  0  0  0  0  0  0  0  0  0  0  0
    8.4235  -14.9420   21.3865 C   0  0  2  0  0  0  0  0  0  0  0  0
    7.1186  -15.6615   21.3613 N   0  0  0  0  0  0  0  0  0  0  0  0
    8.7564  -14.7037   22.7821 C   0  0  0  0  0  0  0  0  0  0  0  0
    9.9600  -14.3495   23.0545 O   0  0  0  0  0  0  0  0  0  0  0  0
    7.7304  -11.7605   25.9891 C   0  0  0  0  0  0  0  0  0  0  0  0
    6.6714  -12.8430   25.7066 C   0  0  2  0  0  0  0  0  0  0  0  0
    5.4532  -12.4258   26.4973 C   0  0  0  0  0  0  0  0  0  0  0  0
    7.2609  -14.1277   26.1578 C   0  0  0  0  0  0  0  0  0  0  0  0
    8.3820  -14.6570   25.2710 C   0  0  2  0  0  0  0  0  0  0  0  0
    7.9080  -14.8078   23.9092 N   0  0  0  0  0  0  0  0  0  0  0  0
    8.9488  -15.9067   25.7939 C   0  0  0  0  0  0  0  0  0  0  0  0
    9.1558  -15.9993   27.0353 O   0  0  0  0  0  0  0  0  0  0  0  0
    9.8259  -19.4435   24.7728 C   0  0  0  0  0  0  0  0  0  0  0  0
    9.8743  -18.2374   25.6725 C   0  0  2  0  0  0  0  0  0  0  0  0
    9.2967  -17.0533   25.0356 N   0  0  0  0  0  0  0  0  0  0  0  0
   11.2376  -17.9753   26.1682 C   0  0  0  0  0  0  0  0  0  0  0  0
   11.9709  -16.8492   25.8397 O   0  0  0  0  0  0  0  0  0  0  0  0
   11.7579  -18.8186   26.9281 O   0  0  0  0  0  0  0  0  0  0  0  0
  1  2  1  0
  2  4  1  0
  3  2  2  0
  4  5  1  0
  6  8  1  0
  6  5  1  0
  6  7  1  1
  8 15  1  0
  9  8  2  0
 11 10  1  1
 11 13  1  0
 12 11  1  0
 14 13  1  1
 14 16  1  0
 15 14  1  0
 16 17  2  0
 16 20  1  0
 19 18  1  6
 19 21  1  0
 20 19  1  0
 21 22  1  0
 23 21  2  0
M  END
$$$$
