QLA.pdb
     RDKit          3D

 23 22  0  0  1  0  0  0  0  0999 V2000
    6.1704  -17.8268   19.6540 N   0  0  0  0  0  0  0  0  0  0  0  0
    7.5340  -18.1959   19.5704 C   0  0  0  0  0  0  0  0  0  0  0  0
    8.2286  -17.8081   18.6149 O   0  0  0  0  0  0  0  0  0  0  0  0
    8.1757  -19.0548   20.6172 C   0  0  0  0  0  0  0  0  0  0  0  0
    8.8109  -18.2101   21.6848 C   0  0  0  0  0  0  0  0  0  0  0  0
    8.6710  -16.7422   21.4862 C   0  0  2  0  0  0  0  0  0  0  0  0
    9.6398  -16.2979   20.4445 N   0  0  0  0  0  0  0  0  0  0  0  0
    8.8658  -15.8878   22.6471 C   0  0  0  0  0  0  0  0  0  0  0  0
   10.0729  -15.6340   23.0031 O   0  0  0  0  0  0  0  0  0  0  0  0
    5.7526  -12.4373   26.7537 C   0  0  0  0  0  0  0  0  0  0  0  0
    7.1243  -13.0509   26.4147 C   0  0  2  0  0  0  0  0  0  0  0  0
    8.0764  -11.8803   26.3337 C   0  0  0  0  0  0  0  0  0  0  0  0
    6.9518  -13.7663   25.1264 C   0  0  0  0  0  0  0  0  0  0  0  0
    8.1923  -14.5080   24.6419 C   0  0  2  0  0  0  0  0  0  0  0  0
    7.8773  -15.2786   23.4548 N   0  0  0  0  0  0  0  0  0  0  0  0
    8.7760  -15.3450   25.6979 C   0  0  0  0  0  0  0  0  0  0  0  0
    8.0488  -16.2227   26.2395 O   0  0  0  0  0  0  0  0  0  0  0  0
   12.0875  -16.5056   26.9712 C   0  0  0  0  0  0  0  0  0  0  0  0
   10.6133  -16.2558   27.1464 C   0  0  2  0  0  0  0  0  0  0  0  0
   10.1047  -15.2739   26.1879 N   0  0  0  0  0  0  0  0  0  0  0  0
   10.2796  -15.8825   28.5329 C   0  0  0  0  0  0  0  0  0  0  0  0
    9.8934  -14.6098   28.9138 O   0  0  0  0  0  0  0  0  0  0  0  0
   10.3495  -16.7668   29.4116 O   0  0  0  0  0  0  0  0  0  0  0  0
  1  2  1  0
  2  4  1  0
  3  2  2  0
  4  5  1  0
  6  8  1  0
  6  5  1  0
  6  7  1  6
  8 15  1  0
  9  8  2  0
 11 10  1  6
 11 13  1  0
 12 11  1  0
 14 13  1  1
 14 16  1  0
 15 14  1  0
 16 17  2  0
 16 20  1  0
 19 18  1  1
 19 21  1  0
 20 19  1  0
 21 22  1  0
 23 21  2  0
M  END
$$$$
