QLA.pdb
     RDKit          3D

 23 22  0  0  1  0  0  0  0  0999 V2000
    9.3230  -12.5295   18.2329 N   0  0  0  0  0  0  0  0  0  0  0  0
    8.2571  -13.4082   17.9256 C   0  0  0  0  0  0  0  0  0  0  0  0
    7.9029  -13.5716   16.7451 O   0  0  0  0  0  0  0  0  0  0  0  0
    7.5308  -14.1597   18.9994 C   0  0  0  0  0  0  0  0  0  0  0  0
    8.0641  -13.7995   20.3568 C   0  0  0  0  0  0  0  0  0  0  0  0
    8.2868  -14.9548   21.2676 C   0  0  2  0  0  0  0  0  0  0  0  0
    7.0564  -15.7953   21.2970 N   0  0  0  0  0  0  0  0  0  0  0  0
    8.6401  -14.6612   22.6477 C   0  0  0  0  0  0  0  0  0  0  0  0
    9.8269  -14.2295   22.8790 O   0  0  0  0  0  0  0  0  0  0  0  0
    7.8124  -11.7158   25.9369 C   0  0  0  0  0  0  0  0  0  0  0  0
    6.6801  -12.7226   25.6590 C   0  0  2  0  0  0  0  0  0  0  0  0
    5.5204  -12.2650   26.5128 C   0  0  0  0  0  0  0  0  0  0  0  0
    7.2080  -14.0560   26.0397 C   0  0  0  0  0  0  0  0  0  0  0  0
    8.3272  -14.5742   25.1439 C   0  0  2  0  0  0  0  0  0  0  0  0
    7.8282  -14.7861   23.7992 N   0  0  0  0  0  0  0  0  0  0  0  0
    8.9501  -15.7854   25.6929 C   0  0  0  0  0  0  0  0  0  0  0  0
    9.2143  -15.8188   26.9264 O   0  0  0  0  0  0  0  0  0  0  0  0
    9.7462  -19.3717   24.8393 C   0  0  0  0  0  0  0  0  0  0  0  0
    9.9140  -18.1029   25.6320 C   0  0  2  0  0  0  0  0  0  0  0  0
    9.2952  -16.9547   24.9686 N   0  0  0  0  0  0  0  0  0  0  0  0
   11.3273  -17.8421   25.9600 C   0  0  0  0  0  0  0  0  0  0  0  0
   12.0898  -18.6592   26.7756 O   0  0  0  0  0  0  0  0  0  0  0  0
   11.8650  -16.8260   25.4727 O   0  0  0  0  0  0  0  0  0  0  0  0
  1  2  1  0
  2  4  1  0
  3  2  2  0
  4  5  1  0
  6  8  1  0
  6  5  1  0
  6  7  1  1
  8 15  1  0
  9  8  2  0
 11 10  1  1
 11 13  1  0
 12 11  1  0
 14 13  1  1
 14 16  1  0
 15 14  1  0
 16 17  2  0
 16 20  1  0
 19 18  1  6
 19 21  1  0
 20 19  1  0
 21 22  1  0
 23 21  2  0
M  END
$$$$
