QLA.pdb
     RDKit          3D

 23 22  0  0  1  0  0  0  0  0999 V2000
    8.8938  -12.3332   18.4121 N   0  0  0  0  0  0  0  0  0  0  0  0
    8.2010  -13.4846   17.9680 C   0  0  0  0  0  0  0  0  0  0  0  0
    7.8598  -13.5876   16.7769 O   0  0  0  0  0  0  0  0  0  0  0  0
    7.8610  -14.6015   18.9072 C   0  0  0  0  0  0  0  0  0  0  0  0
    8.2883  -14.2691   20.3086 C   0  0  0  0  0  0  0  0  0  0  0  0
    8.3431  -15.4302   21.2374 C   0  0  2  0  0  0  0  0  0  0  0  0
    7.0385  -16.1495   21.1943 N   0  0  0  0  0  0  0  0  0  0  0  0
    8.6372  -15.1563   22.6352 C   0  0  0  0  0  0  0  0  0  0  0  0
    9.8305  -14.7859   22.9306 O   0  0  0  0  0  0  0  0  0  0  0  0
    8.0312  -12.1507   26.0291 C   0  0  0  0  0  0  0  0  0  0  0  0
    6.7929  -12.9401   25.5638 C   0  0  2  0  0  0  0  0  0  0  0  0
    5.6304  -12.3428   26.3222 C   0  0  0  0  0  0  0  0  0  0  0  0
    7.0554  -14.3607   25.9020 C   0  0  0  0  0  0  0  0  0  0  0  0
    8.1863  -15.0032   25.1071 C   0  0  2  0  0  0  0  0  0  0  0  0
    7.7601  -15.2408   23.7418 N   0  0  0  0  0  0  0  0  0  0  0  0
    8.6764  -16.2302   25.7479 C   0  0  0  0  0  0  0  0  0  0  0  0
    7.8652  -17.1804   25.9256 O   0  0  0  0  0  0  0  0  0  0  0  0
   11.7406  -18.2077   26.0882 C   0  0  0  0  0  0  0  0  0  0  0  0
   10.4119  -17.7962   26.6639 C   0  0  2  0  0  0  0  0  0  0  0  0
    9.9986  -16.4713   26.1999 N   0  0  0  0  0  0  0  0  0  0  0  0
   10.3994  -17.8831   28.1354 C   0  0  0  0  0  0  0  0  0  0  0  0
   10.6131  -19.0560   28.8373 O   0  0  0  0  0  0  0  0  0  0  0  0
   10.1841  -16.8375   28.7832 O   0  0  0  0  0  0  0  0  0  0  0  0
  1  2  1  0
  2  4  1  0
  3  2  2  0
  4  5  1  0
  6  8  1  0
  6  5  1  0
  6  7  1  1
  8 15  1  0
  9  8  2  0
 11 10  1  1
 11 13  1  0
 12 11  1  0
 14 13  1  1
 14 16  1  0
 15 14  1  0
 16 17  2  0
 16 20  1  0
 19 18  1  1
 19 21  1  0
 20 19  1  0
 21 22  1  0
 23 21  2  0
M  END
$$$$
