QLA.pdb
     RDKit          3D

 23 22  0  0  1  0  0  0  0  0999 V2000
    8.1222  -15.0907   17.2942 N   0  0  0  0  0  0  0  0  0  0  0  0
    8.0056  -13.8493   17.9637 C   0  0  0  0  0  0  0  0  0  0  0  0
    8.4573  -12.8143   17.4436 O   0  0  0  0  0  0  0  0  0  0  0  0
    7.3427  -13.7445   19.3034 C   0  0  0  0  0  0  0  0  0  0  0  0
    8.3624  -13.7657   20.4065 C   0  0  0  0  0  0  0  0  0  0  0  0
    8.2307  -14.9023   21.3576 C   0  0  2  0  0  0  0  0  0  0  0  0
    6.8128  -15.3611   21.3739 N   0  0  0  0  0  0  0  0  0  0  0  0
    8.6231  -14.6688   22.7386 C   0  0  0  0  0  0  0  0  0  0  0  0
    9.8485  -14.3598   22.9647 O   0  0  0  0  0  0  0  0  0  0  0  0
    7.7268  -11.6401   25.8556 C   0  0  0  0  0  0  0  0  0  0  0  0
    6.6437  -12.7215   25.6808 C   0  0  2  0  0  0  0  0  0  0  0  0
    5.4784  -12.2597   26.5247 C   0  0  0  0  0  0  0  0  0  0  0  0
    7.2481  -13.9933   26.1481 C   0  0  0  0  0  0  0  0  0  0  0  0
    8.3349  -14.5515   25.2366 C   0  0  2  0  0  0  0  0  0  0  0  0
    7.8129  -14.7333   23.8962 N   0  0  0  0  0  0  0  0  0  0  0  0
    8.9129  -15.7913   25.7708 C   0  0  0  0  0  0  0  0  0  0  0  0
    9.1726  -15.8502   27.0043 O   0  0  0  0  0  0  0  0  0  0  0  0
    9.5278  -19.4001   24.8777 C   0  0  0  0  0  0  0  0  0  0  0  0
    9.7619  -18.1525   25.6871 C   0  0  2  0  0  0  0  0  0  0  0  0
    9.2179  -16.9625   25.0319 N   0  0  0  0  0  0  0  0  0  0  0  0
   11.1848  -17.9789   26.0310 C   0  0  0  0  0  0  0  0  0  0  0  0
   11.8693  -18.8031   26.9063 O   0  0  0  0  0  0  0  0  0  0  0  0
   11.8057  -17.0342   25.5007 O   0  0  0  0  0  0  0  0  0  0  0  0
  1  2  1  0
  2  4  1  0
  3  2  2  0
  4  5  1  0
  6  8  1  0
  6  5  1  0
  6  7  1  1
  8 15  1  0
  9  8  2  0
 11 10  1  1
 11 13  1  0
 12 11  1  0
 14 13  1  1
 14 16  1  0
 15 14  1  0
 16 17  2  0
 16 20  1  0
 19 18  1  6
 19 21  1  0
 20 19  1  0
 21 22  1  0
 23 21  2  0
M  END
$$$$
