QLA.pdb
     RDKit          3D

 23 22  0  0  1  0  0  0  0  0999 V2000
    7.3978  -13.4521   18.0341 N   0  0  0  0  0  0  0  0  0  0  0  0
    8.3264  -12.8093   18.8869 C   0  0  0  0  0  0  0  0  0  0  0  0
    9.0821  -11.9302   18.4378 O   0  0  0  0  0  0  0  0  0  0  0  0
    8.4270  -13.1635   20.3394 C   0  0  0  0  0  0  0  0  0  0  0  0
    7.4389  -14.2372   20.6966 C   0  0  0  0  0  0  0  0  0  0  0  0
    8.0068  -15.3798   21.4618 C   0  0  2  0  0  0  0  0  0  0  0  0
    6.9852  -16.4613   21.5507 N   0  0  0  0  0  0  0  0  0  0  0  0
    8.4716  -15.1150   22.8144 C   0  0  0  0  0  0  0  0  0  0  0  0
    9.6809  -14.7091   22.9591 O   0  0  0  0  0  0  0  0  0  0  0  0
    8.0514  -12.0788   25.9995 C   0  0  0  0  0  0  0  0  0  0  0  0
    6.8761  -13.0565   25.8103 C   0  0  2  0  0  0  0  0  0  0  0  0
    5.7527  -12.4983   26.6527 C   0  0  0  0  0  0  0  0  0  0  0  0
    7.3608  -14.3815   26.2695 C   0  0  0  0  0  0  0  0  0  0  0  0
    8.3528  -15.0549   25.3282 C   0  0  2  0  0  0  0  0  0  0  0  0
    7.7489  -15.2434   24.0236 N   0  0  0  0  0  0  0  0  0  0  0  0
    8.8622  -16.3159   25.8820 C   0  0  0  0  0  0  0  0  0  0  0  0
    8.0303  -17.1987   26.2301 O   0  0  0  0  0  0  0  0  0  0  0  0
   11.8871  -18.4712   25.9349 C   0  0  0  0  0  0  0  0  0  0  0  0
   10.6109  -17.9824   26.5663 C   0  0  2  0  0  0  0  0  0  0  0  0
   10.2246  -16.6604   26.0719 N   0  0  0  0  0  0  0  0  0  0  0  0
   10.6793  -18.0115   28.0386 C   0  0  0  0  0  0  0  0  0  0  0  0
   10.4591  -16.9052   28.8396 O   0  0  0  0  0  0  0  0  0  0  0  0
   10.9511  -19.0973   28.5921 O   0  0  0  0  0  0  0  0  0  0  0  0
  1  2  1  0
  2  4  1  0
  3  2  2  0
  4  5  1  0
  6  8  1  0
  6  5  1  0
  6  7  1  1
  8 15  1  0
  9  8  2  0
 11 10  1  1
 11 13  1  0
 12 11  1  0
 14 13  1  1
 14 16  1  0
 15 14  1  0
 16 17  2  0
 16 20  1  0
 19 18  1  6
 19 21  1  0
 20 19  1  0
 21 22  1  0
 23 21  2  0
M  END
$$$$
