QLA.pdb
     RDKit          3D

 23 22  0  0  1  0  0  0  0  0999 V2000
   12.1056  -16.5087   14.8566 N   0  0  0  0  0  0  0  0  0  0  0  0
   11.0104  -17.3860   15.0397 C   0  0  0  0  0  0  0  0  0  0  0  0
   10.4960  -17.9556   14.0616 O   0  0  0  0  0  0  0  0  0  0  0  0
   10.4433  -17.6527   16.4008 C   0  0  0  0  0  0  0  0  0  0  0  0
   11.2253  -16.9248   17.4568 C   0  0  0  0  0  0  0  0  0  0  0  0
   11.0585  -17.4567   18.8364 C   0  0  2  0  0  0  0  0  0  0  0  0
    9.8827  -18.3721   18.8657 N   0  0  0  0  0  0  0  0  0  0  0  0
   10.8788  -16.4912   19.9092 C   0  0  0  0  0  0  0  0  0  0  0  0
   11.9204  -16.1354   20.5701 O   0  0  0  0  0  0  0  0  0  0  0  0
    8.9371  -12.5377   19.5463 C   0  0  0  0  0  0  0  0  0  0  0  0
    7.9525  -13.6587   19.9295 C   0  0  2  0  0  0  0  0  0  0  0  0
    6.5807  -13.0305   19.8478 C   0  0  0  0  0  0  0  0  0  0  0  0
    8.3275  -14.0901   21.2987 C   0  0  0  0  0  0  0  0  0  0  0  0
    9.6321  -14.8741   21.3815 C   0  0  2  0  0  0  0  0  0  0  0  0
    9.6790  -15.8713   20.3301 N   0  0  0  0  0  0  0  0  0  0  0  0
    9.8283  -15.4701   22.7092 C   0  0  0  0  0  0  0  0  0  0  0  0
    9.8165  -14.7101   23.7166 O   0  0  0  0  0  0  0  0  0  0  0  0
    9.6584  -18.7248   24.5356 C   0  0  0  0  0  0  0  0  0  0  0  0
   10.1812  -17.3232   24.3659 C   0  0  2  0  0  0  0  0  0  0  0  0
   10.0337  -16.8446   22.9910 N   0  0  0  0  0  0  0  0  0  0  0  0
   11.5715  -17.1938   24.8384 C   0  0  0  0  0  0  0  0  0  0  0  0
   11.9585  -17.3958   26.1511 O   0  0  0  0  0  0  0  0  0  0  0  0
   12.4482  -16.8848   24.0047 O   0  0  0  0  0  0  0  0  0  0  0  0
  1  2  1  0
  2  4  1  0
  3  2  2  0
  4  5  1  0
  6  8  1  0
  6  5  1  0
  6  7  1  6
  8 15  1  0
  9  8  2  0
 11 10  1  1
 11 13  1  0
 12 11  1  0
 14 13  1  1
 14 16  1  0
 15 14  1  0
 16 17  2  0
 16 20  1  0
 19 18  1  6
 19 21  1  0
 20 19  1  0
 21 22  1  0
 23 21  2  0
M  END
$$$$
