QLA.pdb
     RDKit          3D

 23 22  0  0  1  0  0  0  0  0999 V2000
   12.8374  -15.6738   13.8694 N   0  0  0  0  0  0  0  0  0  0  0  0
   11.5388  -16.2094   14.0417 C   0  0  0  0  0  0  0  0  0  0  0  0
   10.7501  -16.2563   13.0818 O   0  0  0  0  0  0  0  0  0  0  0  0
   11.0792  -16.7302   15.3694 C   0  0  0  0  0  0  0  0  0  0  0  0
   11.8240  -16.0636   16.4909 C   0  0  0  0  0  0  0  0  0  0  0  0
   11.5707  -16.6401   17.8390 C   0  0  2  0  0  0  0  0  0  0  0  0
   10.4309  -17.5963   17.7528 N   0  0  0  0  0  0  0  0  0  0  0  0
   11.2731  -15.7123   18.9190 C   0  0  0  0  0  0  0  0  0  0  0  0
   12.2157  -14.9340   19.3114 O   0  0  0  0  0  0  0  0  0  0  0  0
    8.7527  -12.1687   19.5538 C   0  0  0  0  0  0  0  0  0  0  0  0
    7.9704  -13.4919   19.6541 C   0  0  2  0  0  0  0  0  0  0  0  0
    6.5164  -13.0903   19.7439 C   0  0  0  0  0  0  0  0  0  0  0  0
    8.4726  -14.1797   20.8691 C   0  0  0  0  0  0  0  0  0  0  0  0
    9.9084  -14.6813   20.7659 C   0  0  2  0  0  0  0  0  0  0  0  0
   10.0502  -15.5447   19.6099 N   0  0  0  0  0  0  0  0  0  0  0  0
   10.3455  -15.3451   22.0007 C   0  0  0  0  0  0  0  0  0  0  0  0
   10.2280  -14.7219   23.0918 O   0  0  0  0  0  0  0  0  0  0  0  0
   10.6754  -18.5453   23.6556 C   0  0  0  0  0  0  0  0  0  0  0  0
   11.2996  -17.1997   23.3983 C   0  0  2  0  0  0  0  0  0  0  0  0
   10.8988  -16.6466   22.1042 N   0  0  0  0  0  0  0  0  0  0  0  0
   12.7664  -17.2376   23.5404 C   0  0  0  0  0  0  0  0  0  0  0  0
   13.4158  -17.5186   24.7292 O   0  0  0  0  0  0  0  0  0  0  0  0
   13.4602  -17.0031   22.5290 O   0  0  0  0  0  0  0  0  0  0  0  0
  1  2  1  0
  2  4  1  0
  3  2  2  0
  4  5  1  0
  6  8  1  0
  6  5  1  0
  6  7  1  6
  8 15  1  0
  9  8  2  0
 11 10  1  1
 11 13  1  0
 12 11  1  0
 14 13  1  1
 14 16  1  0
 15 14  1  0
 16 17  2  0
 16 20  1  0
 19 18  1  6
 19 21  1  0
 20 19  1  0
 21 22  1  0
 23 21  2  0
M  END
$$$$
