QLA.pdb
     RDKit          3D

 23 22  0  0  1  0  0  0  0  0999 V2000
    6.3817  -19.6724   20.5541 N   0  0  0  0  0  0  0  0  0  0  0  0
    7.7611  -19.9886   20.5538 C   0  0  0  0  0  0  0  0  0  0  0  0
    8.1728  -20.9876   19.9388 O   0  0  0  0  0  0  0  0  0  0  0  0
    8.7564  -19.1403   21.2854 C   0  0  0  0  0  0  0  0  0  0  0  0
    8.0649  -18.0557   22.0614 C   0  0  0  0  0  0  0  0  0  0  0  0
    8.5411  -16.6768   21.7685 C   0  0  2  0  0  0  0  0  0  0  0  0
    9.8097  -16.7553   20.9903 N   0  0  0  0  0  0  0  0  0  0  0  0
    8.7851  -15.7977   22.9013 C   0  0  0  0  0  0  0  0  0  0  0  0
   10.0063  -15.5720   23.2269 O   0  0  0  0  0  0  0  0  0  0  0  0
    5.8601  -12.2126   27.0266 C   0  0  0  0  0  0  0  0  0  0  0  0
    7.2295  -12.7789   26.6060 C   0  0  2  0  0  0  0  0  0  0  0  0
    8.1172  -11.5721   26.4087 C   0  0  0  0  0  0  0  0  0  0  0  0
    6.9941  -13.5526   25.3621 C   0  0  0  0  0  0  0  0  0  0  0  0
    8.1921  -14.3652   24.8844 C   0  0  2  0  0  0  0  0  0  0  0  0
    7.8320  -15.1366   23.7108 N   0  0  0  0  0  0  0  0  0  0  0  0
    8.7364  -15.2151   25.9511 C   0  0  0  0  0  0  0  0  0  0  0  0
    8.0191  -16.1526   26.3972 O   0  0  0  0  0  0  0  0  0  0  0  0
   11.8790  -16.6210   27.0634 C   0  0  0  0  0  0  0  0  0  0  0  0
   10.5212  -16.1144   27.4708 C   0  0  2  0  0  0  0  0  0  0  0  0
   10.0161  -15.0953   26.5501 N   0  0  0  0  0  0  0  0  0  0  0  0
   10.5074  -15.6387   28.8659 C   0  0  0  0  0  0  0  0  0  0  0  0
   10.8237  -16.4351   29.9520 O   0  0  0  0  0  0  0  0  0  0  0  0
   10.1927  -14.4489   29.0772 O   0  0  0  0  0  0  0  0  0  0  0  0
  1  2  1  0
  2  4  1  0
  3  2  2  0
  4  5  1  0
  6  8  1  0
  6  5  1  0
  6  7  1  1
  8 15  1  0
  9  8  2  0
 11 10  1  6
 11 13  1  0
 12 11  1  0
 14 13  1  1
 14 16  1  0
 15 14  1  0
 16 17  2  0
 16 20  1  0
 19 18  1  6
 19 21  1  0
 20 19  1  0
 21 22  1  0
 23 21  2  0
M  END
$$$$
