QLA.pdb
     RDKit          3D

 23 22  0  0  1  0  0  0  0  0999 V2000
    8.3951  -11.8641   18.6569 N   0  0  0  0  0  0  0  0  0  0  0  0
    7.9979  -13.0839   18.0593 C   0  0  0  0  0  0  0  0  0  0  0  0
    7.7734  -13.1370   16.8377 O   0  0  0  0  0  0  0  0  0  0  0  0
    7.8374  -14.3341   18.8697 C   0  0  0  0  0  0  0  0  0  0  0  0
    8.1185  -14.0688   20.3214 C   0  0  0  0  0  0  0  0  0  0  0  0
    8.2186  -15.2860   21.1713 C   0  0  2  0  0  0  0  0  0  0  0  0
    6.9039  -15.9879   21.1724 N   0  0  0  0  0  0  0  0  0  0  0  0
    8.6095  -15.1027   22.5602 C   0  0  0  0  0  0  0  0  0  0  0  0
    9.8425  -14.8385   22.8013 O   0  0  0  0  0  0  0  0  0  0  0  0
    8.2050  -12.1822   25.9481 C   0  0  0  0  0  0  0  0  0  0  0  0
    6.9388  -13.0014   25.6339 C   0  0  2  0  0  0  0  0  0  0  0  0
    5.8545  -12.4104   26.5046 C   0  0  0  0  0  0  0  0  0  0  0  0
    7.2638  -14.4108   25.9649 C   0  0  0  0  0  0  0  0  0  0  0  0
    8.3102  -15.0497   25.0591 C   0  0  2  0  0  0  0  0  0  0  0  0
    7.7904  -15.1733   23.7113 N   0  0  0  0  0  0  0  0  0  0  0  0
    8.7752  -16.3392   25.5859 C   0  0  0  0  0  0  0  0  0  0  0  0
    7.9360  -17.2727   25.7161 O   0  0  0  0  0  0  0  0  0  0  0  0
   11.6401  -18.5717   25.7829 C   0  0  0  0  0  0  0  0  0  0  0  0
   10.4424  -17.9878   26.4835 C   0  0  2  0  0  0  0  0  0  0  0  0
   10.1011  -16.6594   25.9734 N   0  0  0  0  0  0  0  0  0  0  0  0
   10.6119  -17.9788   27.9478 C   0  0  0  0  0  0  0  0  0  0  0  0
   10.5017  -16.8407   28.7266 O   0  0  0  0  0  0  0  0  0  0  0  0
   10.8690  -19.0608   28.5155 O   0  0  0  0  0  0  0  0  0  0  0  0
  1  2  1  0
  2  4  1  0
  3  2  2  0
  4  5  1  0
  6  8  1  0
  6  5  1  0
  6  7  1  1
  8 15  1  0
  9  8  2  0
 11 10  1  1
 11 13  1  0
 12 11  1  0
 14 13  1  1
 14 16  1  0
 15 14  1  0
 16 17  2  0
 16 20  1  0
 19 18  1  6
 19 21  1  0
 20 19  1  0
 21 22  1  0
 23 21  2  0
M  END
$$$$
