ALI.pdb
     RDKit          3D

 22 21  0  0  1  0  0  0  0  0999 V2000
    7.4829   21.9130  -57.5221 C   0  0  0  0  0  0  0  0  0  0  0  0
    7.9616   22.7240  -56.3588 C   0  0  2  0  0  0  0  0  0  0  0  0
    8.3312   24.0512  -56.7371 N   0  0  0  0  0  0  0  0  0  0  0  0
    9.0896   22.0311  -55.6277 C   0  0  0  0  0  0  0  0  0  0  0  0
    8.8411   21.4438  -54.5513 O   0  0  0  0  0  0  0  0  0  0  0  0
   12.2317   18.4064  -53.5189 C   0  0  0  0  0  0  0  0  0  0  0  0
   12.6119   19.4306  -54.6027 C   0  0  2  0  0  0  0  0  0  0  0  0
   14.0109   19.9073  -54.3560 C   0  0  0  0  0  0  0  0  0  0  0  0
   11.6063   20.5517  -54.6282 C   0  0  0  0  0  0  0  0  0  0  0  0
   11.4156   21.0381  -56.0367 C   0  0  2  0  0  0  0  0  0  0  0  0
   10.4017   22.0418  -56.1431 N   0  0  0  0  0  0  0  0  0  0  0  0
   11.4075   20.0225  -57.0777 C   0  0  0  0  0  0  0  0  0  0  0  0
   12.2887   19.0966  -56.9757 O   0  0  0  0  0  0  0  0  0  0  0  0
    8.6609   15.5378  -59.2186 C   0  0  0  0  0  0  0  0  0  0  0  0
    8.7602   16.7588  -58.3335 C   0  0  0  0  0  0  0  0  0  0  0  0
    9.6683   17.8122  -58.9307 C   0  0  2  0  0  0  0  0  0  0  0  0
   11.1167   17.5003  -58.7378 C   0  0  0  0  0  0  0  0  0  0  0  0
    9.3776   19.1074  -58.1637 C   0  0  2  0  0  0  0  0  0  0  0  0
   10.5320   19.9685  -58.1681 N   0  0  0  0  0  0  0  0  0  0  0  0
    8.9330   18.7849  -56.7789 C   0  0  0  0  0  0  0  0  0  0  0  0
    7.7223   18.8353  -56.4318 O   0  0  0  0  0  0  0  0  0  0  0  0
    9.8508   18.4118  -55.8081 O   0  0  0  0  0  0  0  0  0  0  0  0
  2  1  1  6
  3  2  1  0
  4  2  1  0
  4 11  1  0
  5  4  2  0
  7  6  1  1
  7  9  1  0
  8  7  1  0
 10  9  1  1
 10 11  1  0
 10 12  1  0
 12 19  1  0
 13 12  2  0
 14 15  1  0
 16 17  1  1
 16 15  1  0
 16 18  1  0
 18 20  1  0
 18 19  1  1
 20 21  2  0
 20 22  1  0
M  END
$$$$
