ALI.pdb
     RDKit          3D

 22 21  0  0  1  0  0  0  0  0999 V2000
   23.9608   -5.9708  -21.5384 C   0  0  0  0  0  0  0  0  0  0  0  0
   23.8584   -7.4331  -21.2358 C   0  0  2  0  0  0  0  0  0  0  0  0
   23.1399   -8.1473  -22.2432 N   0  0  0  0  0  0  0  0  0  0  0  0
   23.2636   -7.6748  -19.8666 C   0  0  0  0  0  0  0  0  0  0  0  0
   22.2064   -7.0832  -19.5543 O   0  0  0  0  0  0  0  0  0  0  0  0
   24.3668  -11.7013  -15.1879 C   0  0  0  0  0  0  0  0  0  0  0  0
   23.5436  -10.5523  -15.7964 C   0  0  2  0  0  0  0  0  0  0  0  0
   22.0998  -10.9511  -15.8333 C   0  0  0  0  0  0  0  0  0  0  0  0
   24.0872  -10.1912  -17.1539 C   0  0  0  0  0  0  0  0  0  0  0  0
   23.4670   -8.9087  -17.6307 C   0  0  2  0  0  0  0  0  0  0  0  0
   23.8833   -8.5500  -18.9516 N   0  0  0  0  0  0  0  0  0  0  0  0
   23.4134   -7.8182  -16.6699 C   0  0  0  0  0  0  0  0  0  0  0  0
   24.5129   -7.1941  -16.4561 O   0  0  0  0  0  0  0  0  0  0  0  0
   21.3919   -2.5713  -15.3734 C   0  0  0  0  0  0  0  0  0  0  0  0
   21.8764   -3.8801  -14.7936 C   0  0  0  0  0  0  0  0  0  0  0  0
   21.7890   -5.0065  -15.8009 C   0  0  2  0  0  0  0  0  0  0  0  0
   20.3841   -5.2998  -16.2162 C   0  0  0  0  0  0  0  0  0  0  0  0
   22.3211   -6.2553  -15.0883 C   0  0  2  0  0  0  0  0  0  0  0  0
   22.2796   -7.3958  -15.9668 N   0  0  0  0  0  0  0  0  0  0  0  0
   21.5465   -6.4912  -13.8378 C   0  0  0  0  0  0  0  0  0  0  0  0
   20.5104   -7.2087  -13.8132 O   0  0  0  0  0  0  0  0  0  0  0  0
   21.9452   -5.9204  -12.6382 O   0  0  0  0  0  0  0  0  0  0  0  0
  2  1  1  6
  3  2  1  0
  4  2  1  0
  4 11  1  0
  5  4  2  0
  7  6  1  6
  7  9  1  0
  8  7  1  0
 10  9  1  1
 10 11  1  0
 10 12  1  0
 12 19  1  0
 13 12  2  0
 14 15  1  0
 16 17  1  1
 16 15  1  0
 16 18  1  0
 18 20  1  0
 18 19  1  6
 20 21  2  0
 20 22  1  0
M  END
$$$$
