ALI.pdb
     RDKit          3D

 22 21  0  0  1  0  0  0  0  0999 V2000
   18.2019  -10.2519  -19.1601 C   0  0  0  0  0  0  0  0  0  0  0  0
   19.0599  -11.2714  -18.4783 C   0  0  2  0  0  0  0  0  0  0  0  0
   18.3152  -12.4173  -18.0621 N   0  0  0  0  0  0  0  0  0  0  0  0
   19.8238  -10.6675  -17.3212 C   0  0  0  0  0  0  0  0  0  0  0  0
   19.1936  -10.3156  -16.2994 O   0  0  0  0  0  0  0  0  0  0  0  0
   25.8055  -10.1437  -15.6132 C   0  0  0  0  0  0  0  0  0  0  0  0
   24.3178   -9.8324  -15.3720 C   0  0  2  0  0  0  0  0  0  0  0  0
   23.9422  -10.2786  -13.9918 C   0  0  0  0  0  0  0  0  0  0  0  0
   23.4766  -10.4728  -16.4447 C   0  0  0  0  0  0  0  0  0  0  0  0
   22.0955   -9.8817  -16.4353 C   0  0  2  0  0  0  0  0  0  0  0  0
   21.2221  -10.5002  -17.3846 N   0  0  0  0  0  0  0  0  0  0  0  0
   22.0115   -8.4320  -16.3541 C   0  0  0  0  0  0  0  0  0  0  0  0
   22.3726   -7.7821  -17.3989 O   0  0  0  0  0  0  0  0  0  0  0  0
   17.8326   -5.8200  -16.3196 C   0  0  0  0  0  0  0  0  0  0  0  0
   19.2913   -6.2125  -16.3674 C   0  0  0  0  0  0  0  0  0  0  0  0
   20.0218   -5.8118  -15.1038 C   0  0  2  0  0  0  0  0  0  0  0  0
   20.0372   -4.3329  -14.8919 C   0  0  0  0  0  0  0  0  0  0  0  0
   21.4762   -6.2574  -15.2950 C   0  0  2  0  0  0  0  0  0  0  0  0
   21.5761   -7.6934  -15.2482 N   0  0  0  0  0  0  0  0  0  0  0  0
   22.3416   -5.6087  -14.2704 C   0  0  0  0  0  0  0  0  0  0  0  0
   22.7373   -4.4170  -14.3805 O   0  0  0  0  0  0  0  0  0  0  0  0
   22.7482   -6.3049  -13.1417 O   0  0  0  0  0  0  0  0  0  0  0  0
  2  1  1  1
  3  2  1  0
  4  2  1  0
  4 11  1  0
  5  4  2  0
  7  6  1  6
  7  9  1  0
  8  7  1  0
 10  9  1  6
 10 11  1  0
 10 12  1  0
 12 19  1  0
 13 12  2  0
 14 15  1  0
 16 17  1  6
 16 15  1  0
 16 18  1  0
 18 20  1  0
 18 19  1  1
 20 21  2  0
 20 22  1  0
M  END
$$$$
