ALI.pdb
     RDKit          3D

 22 21  0  0  1  0  0  0  0  0999 V2000
   20.4191  -19.0300  -14.6293 C   0  0  0  0  0  0  0  0  0  0  0  0
   21.7967  -19.5942  -14.4731 C   0  0  2  0  0  0  0  0  0  0  0  0
   22.2839  -20.1803  -15.6815 N   0  0  0  0  0  0  0  0  0  0  0  0
   21.8662  -20.5753  -13.3244 C   0  0  0  0  0  0  0  0  0  0  0  0
   21.4417  -21.7393  -13.4977 O   0  0  0  0  0  0  0  0  0  0  0  0
   25.2465  -21.7582  -11.0970 C   0  0  0  0  0  0  0  0  0  0  0  0
   24.8430  -20.3596  -10.5977 C   0  0  2  0  0  0  0  0  0  0  0  0
   25.9276  -19.8241   -9.7134 C   0  0  0  0  0  0  0  0  0  0  0  0
   23.5043  -20.4239   -9.9104 C   0  0  0  0  0  0  0  0  0  0  0  0
   22.4639  -20.9446  -10.8607 C   0  0  2  0  0  0  0  0  0  0  0  0
   22.3986  -20.1931  -12.0763 N   0  0  0  0  0  0  0  0  0  0  0  0
   21.1828  -21.3147  -10.2801 C   0  0  0  0  0  0  0  0  0  0  0  0
   20.3184  -20.3747  -10.1638 O   0  0  0  0  0  0  0  0  0  0  0  0
   17.6219  -24.0541  -12.2381 C   0  0  0  0  0  0  0  0  0  0  0  0
   18.4126  -23.1540  -11.3169 C   0  0  0  0  0  0  0  0  0  0  0  0
   18.7117  -23.8278   -9.9949 C   0  0  2  0  0  0  0  0  0  0  0  0
   17.4785  -24.1073   -9.1991 C   0  0  0  0  0  0  0  0  0  0  0  0
   19.5535  -22.8301   -9.1910 C   0  0  2  0  0  0  0  0  0  0  0  0
   20.8158  -22.5922   -9.8425 N   0  0  0  0  0  0  0  0  0  0  0  0
   19.7345  -23.3291   -7.7990 C   0  0  0  0  0  0  0  0  0  0  0  0
   18.7915  -23.3478   -6.9628 O   0  0  0  0  0  0  0  0  0  0  0  0
   20.9669  -23.7979   -7.3682 O   0  0  0  0  0  0  0  0  0  0  0  0
  2  1  1  6
  3  2  1  0
  4  2  1  0
  4 11  1  0
  5  4  2  0
  7  6  1  1
  7  9  1  0
  8  7  1  0
 10  9  1  1
 10 11  1  0
 10 12  1  0
 12 19  1  0
 13 12  2  0
 14 15  1  0
 16 17  1  1
 16 15  1  0
 16 18  1  0
 18 20  1  0
 18 19  1  6
 20 21  2  0
 20 22  1  0
M  END
$$$$
