ALI.pdb
     RDKit          3D

 22 21  0  0  1  0  0  0  0  0999 V2000
   21.2035  -19.2644  -13.6123 C   0  0  0  0  0  0  0  0  0  0  0  0
   22.3875  -19.9650  -14.2021 C   0  0  2  0  0  0  0  0  0  0  0  0
   22.0103  -21.0711  -15.0239 N   0  0  0  0  0  0  0  0  0  0  0  0
   23.3688  -20.3896  -13.1327 C   0  0  0  0  0  0  0  0  0  0  0  0
   22.9640  -21.1087  -12.1925 O   0  0  0  0  0  0  0  0  0  0  0  0
   26.8583  -22.3209  -14.2156 C   0  0  0  0  0  0  0  0  0  0  0  0
   27.1408  -20.8128  -14.3340 C   0  0  2  0  0  0  0  0  0  0  0  0
   28.4292  -20.6129  -15.0724 C   0  0  0  0  0  0  0  0  0  0  0  0
   27.1437  -20.1799  -12.9673 C   0  0  0  0  0  0  0  0  0  0  0  0
   25.7983  -20.3483  -12.3206 C   0  0  2  0  0  0  0  0  0  0  0  0
   24.7187  -19.9865  -13.1867 N   0  0  0  0  0  0  0  0  0  0  0  0
   25.6795  -19.8952  -10.9438 C   0  0  0  0  0  0  0  0  0  0  0  0
   25.4182  -18.6512  -10.7750 O   0  0  0  0  0  0  0  0  0  0  0  0
   22.8528  -21.6887   -6.8088 C   0  0  0  0  0  0  0  0  0  0  0  0
   23.6929  -20.8928   -7.7809 C   0  0  0  0  0  0  0  0  0  0  0  0
   25.1694  -21.0011   -7.4658 C   0  0  2  0  0  0  0  0  0  0  0  0
   25.5078  -20.4811   -6.1066 C   0  0  0  0  0  0  0  0  0  0  0  0
   25.8873  -20.1081   -8.4844 C   0  0  2  0  0  0  0  0  0  0  0  0
   25.8240  -20.6892   -9.8006 N   0  0  0  0  0  0  0  0  0  0  0  0
   27.2929  -19.8754   -8.0491 C   0  0  0  0  0  0  0  0  0  0  0  0
   28.2516  -20.5805   -8.4644 O   0  0  0  0  0  0  0  0  0  0  0  0
   27.6001  -18.8582   -7.1574 O   0  0  0  0  0  0  0  0  0  0  0  0
  2  1  1  1
  3  2  1  0
  4  2  1  0
  4 11  1  0
  5  4  2  0
  7  6  1  1
  7  9  1  0
  8  7  1  0
 10  9  1  6
 10 11  1  0
 10 12  1  0
 12 19  1  0
 13 12  2  0
 14 15  1  0
 16 17  1  1
 16 15  1  0
 16 18  1  0
 18 20  1  0
 18 19  1  6
 20 21  2  0
 20 22  1  0
M  END
$$$$
