ALI.pdb
     RDKit          3D

 22 21  0  0  1  0  0  0  0  0999 V2000
   26.7942  -19.5984  -16.5148 C   0  0  0  0  0  0  0  0  0  0  0  0
   27.1942  -20.5237  -15.4084 C   0  0  2  0  0  0  0  0  0  0  0  0
   27.9825  -21.6199  -15.8753 N   0  0  0  0  0  0  0  0  0  0  0  0
   25.9915  -21.0091  -14.6307 C   0  0  0  0  0  0  0  0  0  0  0  0
   25.2991  -21.9366  -15.1057 O   0  0  0  0  0  0  0  0  0  0  0  0
   25.7937  -22.4865  -10.6503 C   0  0  0  0  0  0  0  0  0  0  0  0
   25.9563  -20.9566  -10.6150 C   0  0  2  0  0  0  0  0  0  0  0  0
   26.2986  -20.5330   -9.2192 C   0  0  0  0  0  0  0  0  0  0  0  0
   24.7100  -20.2934  -11.1402 C   0  0  0  0  0  0  0  0  0  0  0  0
   24.4956  -20.6696  -12.5787 C   0  0  2  0  0  0  0  0  0  0  0  0
   25.6491  -20.4320  -13.3909 N   0  0  0  0  0  0  0  0  0  0  0  0
   23.2221  -20.2850  -13.1664 C   0  0  0  0  0  0  0  0  0  0  0  0
   23.0239  -19.0276  -13.3214 O   0  0  0  0  0  0  0  0  0  0  0  0
   21.6632  -21.8022  -17.7085 C   0  0  0  0  0  0  0  0  0  0  0  0
   21.8480  -21.1504  -16.3576 C   0  0  0  0  0  0  0  0  0  0  0  0
   20.6594  -21.3902  -15.4516 C   0  0  2  0  0  0  0  0  0  0  0  0
   19.3971  -20.7986  -15.9890 C   0  0  0  0  0  0  0  0  0  0  0  0
   20.9751  -20.6673  -14.1371 C   0  0  2  0  0  0  0  0  0  0  0  0
   22.2062  -21.1574  -13.5727 N   0  0  0  0  0  0  0  0  0  0  0  0
   19.8339  -20.8183  -13.1914 C   0  0  0  0  0  0  0  0  0  0  0  0
   18.9269  -19.9492  -13.0869 O   0  0  0  0  0  0  0  0  0  0  0  0
   19.7284  -21.9386  -12.3803 O   0  0  0  0  0  0  0  0  0  0  0  0
  2  1  1  6
  3  2  1  0
  4  2  1  0
  4 11  1  0
  5  4  2  0
  7  6  1  1
  7  9  1  0
  8  7  1  0
 10  9  1  1
 10 11  1  0
 10 12  1  0
 12 19  1  0
 13 12  2  0
 14 15  1  0
 16 17  1  6
 16 15  1  0
 16 18  1  0
 18 20  1  0
 18 19  1  1
 20 21  2  0
 20 22  1  0
M  END
$$$$
