ALI.pdb
     RDKit          3D

 22 21  0  0  1  0  0  0  0  0999 V2000
   24.9313  -25.6242  -16.2253 C   0  0  0  0  0  0  0  0  0  0  0  0
   24.2033  -24.7047  -15.2953 C   0  0  2  0  0  0  0  0  0  0  0  0
   23.3273  -23.8136  -15.9879 N   0  0  0  0  0  0  0  0  0  0  0  0
   25.1614  -23.9454  -14.4051 C   0  0  0  0  0  0  0  0  0  0  0  0
   25.9184  -24.5889  -13.6448 O   0  0  0  0  0  0  0  0  0  0  0  0
   27.7555  -18.3323  -14.1744 C   0  0  0  0  0  0  0  0  0  0  0  0
   27.5828  -19.7544  -13.6123 C   0  0  2  0  0  0  0  0  0  0  0  0
   28.9226  -20.4225  -13.5517 C   0  0  0  0  0  0  0  0  0  0  0  0
   26.5834  -20.5184  -14.4407 C   0  0  0  0  0  0  0  0  0  0  0  0
   26.0135  -21.6540  -13.6392 C   0  0  2  0  0  0  0  0  0  0  0  0
   25.2074  -22.5366  -14.4253 N   0  0  0  0  0  0  0  0  0  0  0  0
   25.4840  -21.3194  -12.3266 C   0  0  0  0  0  0  0  0  0  0  0  0
   24.2080  -21.2346  -12.2328 O   0  0  0  0  0  0  0  0  0  0  0  0
   28.7739  -20.5506   -7.8052 C   0  0  0  0  0  0  0  0  0  0  0  0
   27.6933  -21.1169   -8.6972 C   0  0  0  0  0  0  0  0  0  0  0  0
   26.5956  -20.1080   -8.9583 C   0  0  2  0  0  0  0  0  0  0  0  0
   25.8401  -19.7458   -7.7212 C   0  0  0  0  0  0  0  0  0  0  0  0
   25.6069  -20.7930   -9.9089 C   0  0  2  0  0  0  0  0  0  0  0  0
   26.2371  -21.0846  -11.1707 N   0  0  0  0  0  0  0  0  0  0  0  0
   24.3968  -19.9408  -10.0784 C   0  0  0  0  0  0  0  0  0  0  0  0
   24.4179  -18.8648  -10.7346 O   0  0  0  0  0  0  0  0  0  0  0  0
   23.1856  -20.3079   -9.5107 O   0  0  0  0  0  0  0  0  0  0  0  0
  2  1  1  6
  3  2  1  0
  4  2  1  0
  4 11  1  0
  5  4  2  0
  7  6  1  6
  7  9  1  0
  8  7  1  0
 10  9  1  6
 10 11  1  0
 10 12  1  0
 12 19  1  0
 13 12  2  0
 14 15  1  0
 16 17  1  1
 16 15  1  0
 16 18  1  0
 18 20  1  0
 18 19  1  6
 20 21  2  0
 20 22  1  0
M  END
$$$$
