ALI.pdb
     RDKit          3D

 22 21  0  0  1  0  0  0  0  0999 V2000
   21.8269  -20.1111  -11.3808 C   0  0  0  0  0  0  0  0  0  0  0  0
   22.9000  -20.8217  -12.1450 C   0  0  2  0  0  0  0  0  0  0  0  0
   22.4254  -22.0200  -12.7612 N   0  0  0  0  0  0  0  0  0  0  0  0
   24.1082  -21.0959  -11.2777 C   0  0  0  0  0  0  0  0  0  0  0  0
   24.1035  -22.1037  -10.5365 O   0  0  0  0  0  0  0  0  0  0  0  0
   28.0763  -21.6641  -12.4722 C   0  0  0  0  0  0  0  0  0  0  0  0
   27.7711  -20.1570  -12.5328 C   0  0  2  0  0  0  0  0  0  0  0  0
   28.8671  -19.4658  -13.2852 C   0  0  0  0  0  0  0  0  0  0  0  0
   27.5817  -19.6130  -11.1411 C   0  0  0  0  0  0  0  0  0  0  0  0
   26.4028  -20.2757  -10.4870 C   0  0  2  0  0  0  0  0  0  0  0  0
   25.2249  -20.2357  -11.2979 N   0  0  0  0  0  0  0  0  0  0  0  0
   26.2037  -19.9959   -9.0737 C   0  0  0  0  0  0  0  0  0  0  0  0
   25.2866  -19.1472   -8.7857 O   0  0  0  0  0  0  0  0  0  0  0  0
   30.0140  -21.2386   -4.9592 C   0  0  0  0  0  0  0  0  0  0  0  0
   29.1102  -20.6502   -6.0181 C   0  0  0  0  0  0  0  0  0  0  0  0
   27.6488  -20.8864   -5.7027 C   0  0  2  0  0  0  0  0  0  0  0  0
   27.2315  -22.3023   -5.9335 C   0  0  0  0  0  0  0  0  0  0  0  0
   26.8566  -20.0147   -6.6840 C   0  0  2  0  0  0  0  0  0  0  0  0
   26.9174  -20.5656   -8.0134 N   0  0  0  0  0  0  0  0  0  0  0  0
   27.3663  -18.6155   -6.6409 C   0  0  0  0  0  0  0  0  0  0  0  0
   27.9688  -18.0883   -7.6144 O   0  0  0  0  0  0  0  0  0  0  0  0
   27.1925  -17.8319   -5.5096 O   0  0  0  0  0  0  0  0  0  0  0  0
  2  1  1  1
  3  2  1  0
  4  2  1  0
  4 11  1  0
  5  4  2  0
  7  6  1  1
  7  9  1  0
  8  7  1  0
 10  9  1  6
 10 11  1  0
 10 12  1  0
 12 19  1  0
 13 12  2  0
 14 15  1  0
 16 17  1  6
 16 15  1  0
 16 18  1  0
 18 20  1  0
 18 19  1  6
 20 21  2  0
 20 22  1  0
M  END
$$$$
