ALI.pdb
     RDKit          3D

 22 21  0  0  1  0  0  0  0  0999 V2000
   22.0362  -14.1047  -18.3724 C   0  0  0  0  0  0  0  0  0  0  0  0
   22.0638  -12.7008  -18.8908 C   0  0  2  0  0  0  0  0  0  0  0  0
   23.1316  -12.4838  -19.8148 N   0  0  0  0  0  0  0  0  0  0  0  0
   22.1062  -11.6949  -17.7624 C   0  0  0  0  0  0  0  0  0  0  0  0
   21.2028  -11.7192  -16.8972 O   0  0  0  0  0  0  0  0  0  0  0  0
   24.8249  -10.6941  -14.4934 C   0  0  0  0  0  0  0  0  0  0  0  0
   25.4173  -10.4076  -15.8846 C   0  0  2  0  0  0  0  0  0  0  0  0
   26.8908  -10.1720  -15.7498 C   0  0  0  0  0  0  0  0  0  0  0  0
   24.6946   -9.2514  -16.5245 C   0  0  0  0  0  0  0  0  0  0  0  0
   23.2648   -9.6254  -16.7939 C   0  0  2  0  0  0  0  0  0  0  0  0
   23.1422  -10.7425  -17.6791 N   0  0  0  0  0  0  0  0  0  0  0  0
   22.3420   -8.5274  -17.0346 C   0  0  0  0  0  0  0  0  0  0  0  0
   22.4091   -7.9704  -18.1876 O   0  0  0  0  0  0  0  0  0  0  0  0
   17.0532   -6.5746  -17.9734 C   0  0  0  0  0  0  0  0  0  0  0  0
   18.3767   -6.2142  -17.3390 C   0  0  0  0  0  0  0  0  0  0  0  0
   19.1969   -7.4443  -17.0147 C   0  0  2  0  0  0  0  0  0  0  0  0
   18.5767   -8.2846  -15.9462 C   0  0  0  0  0  0  0  0  0  0  0  0
   20.5342   -6.9309  -16.4685 C   0  0  2  0  0  0  0  0  0  0  0  0
   21.3982   -8.0317  -16.1280 N   0  0  0  0  0  0  0  0  0  0  0  0
   20.2927   -6.0356  -15.3025 C   0  0  0  0  0  0  0  0  0  0  0  0
   20.2847   -6.4624  -14.1165 O   0  0  0  0  0  0  0  0  0  0  0  0
   20.0647   -4.6796  -15.4848 O   0  0  0  0  0  0  0  0  0  0  0  0
  2  1  1  1
  3  2  1  0
  4  2  1  0
  4 11  1  0
  5  4  2  0
  7  6  1  1
  7  9  1  0
  8  7  1  0
 10  9  1  6
 10 11  1  0
 10 12  1  0
 12 19  1  0
 13 12  2  0
 14 15  1  0
 16 17  1  1
 16 15  1  0
 16 18  1  0
 18 20  1  0
 18 19  1  1
 20 21  2  0
 20 22  1  0
M  END
$$$$
