ALI.pdb
     RDKit          3D

 22 21  0  0  1  0  0  0  0  0999 V2000
   13.9798  -21.4763    0.9963 C   0  0  0  0  0  0  0  0  0  0  0  0
   15.1247  -20.7316    0.3841 C   0  0  2  0  0  0  0  0  0  0  0  0
   15.5511  -21.3103   -0.8506 N   0  0  0  0  0  0  0  0  0  0  0  0
   16.2793  -20.5987    1.3517 C   0  0  0  0  0  0  0  0  0  0  0  0
   16.9295  -21.6219    1.6605 O   0  0  0  0  0  0  0  0  0  0  0  0
   20.3145  -18.4542    1.7953 C   0  0  0  0  0  0  0  0  0  0  0  0
   19.0878  -17.5539    1.5650 C   0  0  2  0  0  0  0  0  0  0  0  0
   19.5517  -16.1559    1.2902 C   0  0  0  0  0  0  0  0  0  0  0  0
   18.1553  -17.6412    2.7446 C   0  0  0  0  0  0  0  0  0  0  0  0
   17.6242  -19.0402    2.8766 C   0  0  2  0  0  0  0  0  0  0  0  0
   16.6238  -19.3469    1.9011 N   0  0  0  0  0  0  0  0  0  0  0  0
   17.3495  -19.5044    4.2273 C   0  0  0  0  0  0  0  0  0  0  0  0
   16.1748  -19.2658    4.6826 O   0  0  0  0  0  0  0  0  0  0  0  0
   18.5223  -23.7344    8.4769 C   0  0  0  0  0  0  0  0  0  0  0  0
   17.9394  -22.4151    8.0254 C   0  0  0  0  0  0  0  0  0  0  0  0
   18.5644  -21.9390    6.7317 C   0  0  2  0  0  0  0  0  0  0  0  0
   20.0199  -21.6329    6.8739 C   0  0  0  0  0  0  0  0  0  0  0  0
   17.8576  -20.6256    6.3771 C   0  0  2  0  0  0  0  0  0  0  0  0
   18.2449  -20.1809    5.0632 N   0  0  0  0  0  0  0  0  0  0  0  0
   18.1486  -19.5992    7.4170 C   0  0  0  0  0  0  0  0  0  0  0  0
   19.1091  -18.7896    7.3134 O   0  0  0  0  0  0  0  0  0  0  0  0
   17.3598  -19.4975    8.5535 O   0  0  0  0  0  0  0  0  0  0  0  0
  2  1  1  1
  3  2  1  0
  4  2  1  0
  4 11  1  0
  5  4  2  0
  7  6  1  1
  7  9  1  0
  8  7  1  0
 10  9  1  1
 10 11  1  0
 10 12  1  0
 12 19  1  0
 13 12  2  0
 14 15  1  0
 16 17  1  1
 16 15  1  0
 16 18  1  0
 18 20  1  0
 18 19  1  6
 20 21  2  0
 20 22  1  0
M  END
$$$$
