ALI.pdb
     RDKit          3D

 22 21  0  0  1  0  0  0  0  0999 V2000
   30.7099  -22.0926   12.5351 C   0  0  0  0  0  0  0  0  0  0  0  0
   30.3177  -21.9249   11.1004 C   0  0  2  0  0  0  0  0  0  0  0  0
   28.9755  -22.3463   10.8513 N   0  0  0  0  0  0  0  0  0  0  0  0
   31.2892  -22.6234   10.1756 C   0  0  0  0  0  0  0  0  0  0  0  0
   31.3488  -23.8729   10.1941 O   0  0  0  0  0  0  0  0  0  0  0  0
   32.1547  -22.8342    5.4359 C   0  0  0  0  0  0  0  0  0  0  0  0
   32.0701  -21.5783    6.3212 C   0  0  2  0  0  0  0  0  0  0  0  0
   31.8858  -20.3752    5.4473 C   0  0  0  0  0  0  0  0  0  0  0  0
   33.2899  -21.4837    7.1998 C   0  0  0  0  0  0  0  0  0  0  0  0
   33.1233  -22.3637    8.4059 C   0  0  2  0  0  0  0  0  0  0  0  0
   32.1174  -21.8868    9.3044 N   0  0  0  0  0  0  0  0  0  0  0  0
   34.3451  -22.8480    9.0287 C   0  0  0  0  0  0  0  0  0  0  0  0
   34.9001  -22.0636    9.8778 O   0  0  0  0  0  0  0  0  0  0  0  0
   34.9572  -27.2451   11.6823 C   0  0  0  0  0  0  0  0  0  0  0  0
   35.0932  -25.8835   11.0408 C   0  0  0  0  0  0  0  0  0  0  0  0
   36.1387  -25.8809    9.9462 C   0  0  2  0  0  0  0  0  0  0  0  0
   37.5018  -26.2262   10.4512 C   0  0  0  0  0  0  0  0  0  0  0  0
   36.2007  -24.4415    9.4220 C   0  0  2  0  0  0  0  0  0  0  0  0
   34.9605  -24.0809    8.7848 N   0  0  0  0  0  0  0  0  0  0  0  0
   37.3612  -24.2897    8.5004 C   0  0  0  0  0  0  0  0  0  0  0  0
   37.2739  -24.5210    7.2644 O   0  0  0  0  0  0  0  0  0  0  0  0
   38.5979  -23.8820    8.9783 O   0  0  0  0  0  0  0  0  0  0  0  0
  2  1  1  1
  3  2  1  0
  4  2  1  0
  4 11  1  0
  5  4  2  0
  7  6  1  6
  7  9  1  0
  8  7  1  0
 10  9  1  6
 10 11  1  0
 10 12  1  0
 12 19  1  0
 13 12  2  0
 14 15  1  0
 16 17  1  1
 16 15  1  0
 16 18  1  0
 18 20  1  0
 18 19  1  6
 20 21  2  0
 20 22  1  0
M  END
$$$$
