KKN.pdb
     RDKit          3D

 27 26  0  0  1  0  0  0  0  0999 V2000
   25.0300  -14.5120  -18.5516 N   0  0  0  0  0  0  0  0  0  0  0  0
   23.6130  -14.7222  -18.4055 C   0  0  1  0  0  0  0  0  0  0  0  0
   22.8459  -14.2926  -19.6426 C   0  0  0  0  0  0  0  0  0  0  0  0
   23.0678  -12.8342  -19.8472 C   0  0  0  0  0  0  0  0  0  0  0  0
   23.2198  -12.0164  -18.6145 C   0  0  0  0  0  0  0  0  0  0  0  0
   23.3242  -10.5438  -18.8092 C   0  0  0  0  0  0  0  0  0  0  0  0
   22.0991   -9.8526  -19.0403 N   0  0  0  0  0  0  0  0  0  0  0  0
   23.3871  -16.1676  -18.0841 C   0  0  0  0  0  0  0  0  0  0  0  0
   22.2785  -16.6547  -18.3314 O   0  0  0  0  0  0  0  0  0  0  0  0
   24.4022  -16.9677  -17.5137 N   0  0  0  0  0  0  0  0  0  0  0  0
   24.3156  -18.3219  -17.1232 C   0  0  1  0  0  0  0  0  0  0  0  0
   25.5871  -19.1271  -17.1359 C   0  0  0  0  0  0  0  0  0  0  0  0
   25.4563  -20.5840  -16.8968 C   0  0  0  0  0  0  0  0  0  0  0  0
   26.7964  -21.3224  -17.0380 C   0  0  0  0  0  0  0  0  0  0  0  0
   26.6513  -22.8010  -16.9205 C   0  0  0  0  0  0  0  0  0  0  0  0
   27.9039  -23.4603  -17.2609 N   0  0  0  0  0  0  0  0  0  0  0  0
   23.5366  -18.5976  -15.9009 C   0  0  0  0  0  0  0  0  0  0  0  0
   23.8318  -17.9967  -14.8468 O   0  0  0  0  0  0  0  0  0  0  0  0
   18.8543  -18.6855  -13.0172 N   0  0  0  0  0  0  0  0  0  0  0  0
   20.2767  -18.7076  -12.9054 C   0  0  0  0  0  0  0  0  0  0  0  0
   20.7403  -18.9742  -11.7527 O   0  0  0  0  0  0  0  0  0  0  0  0
   21.1138  -18.4293  -14.0931 C   0  0  0  0  0  0  0  0  0  0  0  0
   21.6225  -19.7004  -14.6619 C   0  0  2  0  0  0  0  0  0  0  0  0
   22.4544  -19.5148  -15.8357 N   0  0  0  0  0  0  0  0  0  0  0  0
   20.5552  -20.7018  -14.9179 C   0  0  0  0  0  0  0  0  0  0  0  0
   20.1598  -21.0474  -16.0529 O   0  0  0  0  0  0  0  0  0  0  0  0
   19.9339  -21.3159  -13.8317 O   0  0  0  0  0  0  0  0  0  0  0  0
  2  1  1  6
  3  2  1  0
  4  3  1  0
  5  4  1  0
  5  6  1  0
  7  6  1  0
  8  2  1  0
  8  9  2  0
 10 11  1  0
 10  8  1  0
 11 12  1  1
 13 12  1  0
 14 13  1  0
 15 14  1  0
 16 15  1  0
 17 18  2  0
 17 11  1  0
 19 20  1  0
 20 21  2  0
 20 22  1  0
 23 22  1  6
 23 24  1  0
 23 25  1  0
 24 17  1  0
 25 27  1  0
 26 25  2  0
M  END
$$$$
