KKN.pdb
     RDKit          3D

 27 26  0  0  1  0  0  0  0  0999 V2000
   21.4511  -22.7150  -14.8765 N   0  0  0  0  0  0  0  0  0  0  0  0
   21.0848  -21.9941  -13.6851 C   0  0  1  0  0  0  0  0  0  0  0  0
   20.8143  -20.5283  -13.9704 C   0  0  0  0  0  0  0  0  0  0  0  0
   22.0864  -19.8967  -14.4188 C   0  0  0  0  0  0  0  0  0  0  0  0
   21.9677  -18.8826  -15.4998 C   0  0  0  0  0  0  0  0  0  0  0  0
   23.2263  -18.1942  -15.8988 C   0  0  0  0  0  0  0  0  0  0  0  0
   23.0980  -17.1730  -16.8851 N   0  0  0  0  0  0  0  0  0  0  0  0
   19.8954  -22.6720  -13.0775 C   0  0  0  0  0  0  0  0  0  0  0  0
   18.9347  -22.9336  -13.8097 O   0  0  0  0  0  0  0  0  0  0  0  0
   19.8553  -23.0109  -11.7065 N   0  0  0  0  0  0  0  0  0  0  0  0
   18.7812  -23.5837  -10.9908 C   0  0  1  0  0  0  0  0  0  0  0  0
   19.0588  -24.0554   -9.5889 C   0  0  0  0  0  0  0  0  0  0  0  0
   17.9787  -24.8135   -8.9141 C   0  0  0  0  0  0  0  0  0  0  0  0
   18.2629  -26.3229   -8.8702 C   0  0  0  0  0  0  0  0  0  0  0  0
   17.1682  -27.0936   -8.2154 C   0  0  0  0  0  0  0  0  0  0  0  0
   17.4883  -28.5138   -8.2016 N   0  0  0  0  0  0  0  0  0  0  0  0
   17.4985  -22.8572  -11.0516 C   0  0  0  0  0  0  0  0  0  0  0  0
   17.5116  -21.6096  -11.1046 O   0  0  0  0  0  0  0  0  0  0  0  0
   13.4581  -20.1089  -12.6771 N   0  0  0  0  0  0  0  0  0  0  0  0
   13.6802  -21.4952  -12.9325 C   0  0  0  0  0  0  0  0  0  0  0  0
   12.6878  -22.1423  -13.3919 O   0  0  0  0  0  0  0  0  0  0  0  0
   15.0064  -22.0915  -12.6605 C   0  0  0  0  0  0  0  0  0  0  0  0
   14.9849  -22.7988  -11.3577 C   0  0  2  0  0  0  0  0  0  0  0  0
   16.2256  -23.4867  -11.0544 N   0  0  0  0  0  0  0  0  0  0  0  0
   13.8194  -23.7063  -11.1976 C   0  0  0  0  0  0  0  0  0  0  0  0
   13.8047  -24.9123  -11.5279 O   0  0  0  0  0  0  0  0  0  0  0  0
   12.6452  -23.2019  -10.6408 O   0  0  0  0  0  0  0  0  0  0  0  0
  2  1  1  6
  3  2  1  0
  4  3  1  0
  5  4  1  0
  5  6  1  0
  7  6  1  0
  8  2  1  0
  8  9  2  0
 10 11  1  0
 10  8  1  0
 11 12  1  1
 13 12  1  0
 14 13  1  0
 15 14  1  0
 16 15  1  0
 17 18  2  0
 17 11  1  0
 19 20  1  0
 20 21  2  0
 20 22  1  0
 23 22  1  6
 23 24  1  0
 23 25  1  0
 24 17  1  0
 25 27  1  0
 26 25  2  0
M  END
$$$$
