KKN.pdb
     RDKit          3D

 27 26  0  0  1  0  0  0  0  0999 V2000
   20.7100  -25.5977  -14.6340 N   0  0  0  0  0  0  0  0  0  0  0  0
   19.8571  -24.4378  -14.6566 C   0  0  1  0  0  0  0  0  0  0  0  0
   19.2637  -24.1974  -16.0326 C   0  0  0  0  0  0  0  0  0  0  0  0
   19.9940  -23.0639  -16.6650 C   0  0  0  0  0  0  0  0  0  0  0  0
   21.4282  -23.3026  -16.9773 C   0  0  0  0  0  0  0  0  0  0  0  0
   22.1557  -22.1808  -17.6326 C   0  0  0  0  0  0  0  0  0  0  0  0
   23.5479  -22.3839  -17.8614 N   0  0  0  0  0  0  0  0  0  0  0  0
   18.7951  -24.6201  -13.6162 C   0  0  0  0  0  0  0  0  0  0  0  0
   17.6450  -24.8709  -13.9930 O   0  0  0  0  0  0  0  0  0  0  0  0
   19.0820  -24.5122  -12.2371 N   0  0  0  0  0  0  0  0  0  0  0  0
   18.1883  -24.6708  -11.1554 C   0  0  1  0  0  0  0  0  0  0  0  0
   18.7861  -24.8324   -9.7836 C   0  0  0  0  0  0  0  0  0  0  0  0
   17.8461  -25.1322   -8.6776 C   0  0  0  0  0  0  0  0  0  0  0  0
   18.5702  -25.3764   -7.3445 C   0  0  0  0  0  0  0  0  0  0  0  0
   17.6442  -25.8090   -6.2599 C   0  0  0  0  0  0  0  0  0  0  0  0
   18.3870  -26.0694   -5.0352 N   0  0  0  0  0  0  0  0  0  0  0  0
   17.0416  -23.7432  -11.1180 C   0  0  0  0  0  0  0  0  0  0  0  0
   17.2560  -22.5139  -11.1651 O   0  0  0  0  0  0  0  0  0  0  0  0
   13.0588  -21.3122  -11.0357 N   0  0  0  0  0  0  0  0  0  0  0  0
   14.1036  -21.0961  -11.9832 C   0  0  0  0  0  0  0  0  0  0  0  0
   14.1924  -19.9195  -12.4549 O   0  0  0  0  0  0  0  0  0  0  0  0
   15.0010  -22.2109  -12.3579 C   0  0  0  0  0  0  0  0  0  0  0  0
   14.5848  -23.4511  -11.6601 C   0  0  2  0  0  0  0  0  0  0  0  0
   15.6856  -24.1557  -11.0307 N   0  0  0  0  0  0  0  0  0  0  0  0
   13.7830  -24.3671  -12.5118 C   0  0  0  0  0  0  0  0  0  0  0  0
   14.1548  -24.8219  -13.6159 O   0  0  0  0  0  0  0  0  0  0  0  0
   12.5217  -24.7645  -12.0710 O   0  0  0  0  0  0  0  0  0  0  0  0
  2  1  1  6
  3  2  1  0
  4  3  1  0
  5  4  1  0
  5  6  1  0
  7  6  1  0
  8  2  1  0
  8  9  2  0
 10 11  1  0
 10  8  1  0
 11 12  1  1
 13 12  1  0
 14 13  1  0
 15 14  1  0
 16 15  1  0
 17 18  2  0
 17 11  1  0
 19 20  1  0
 20 21  2  0
 20 22  1  0
 23 22  1  6
 23 24  1  0
 23 25  1  0
 24 17  1  0
 25 27  1  0
 26 25  2  0
M  END
$$$$
