KKN.pdb
     RDKit          3D

 27 26  0  0  1  0  0  0  0  0999 V2000
   20.0633  -24.9234  -12.3728 N   0  0  0  0  0  0  0  0  0  0  0  0
   19.7705  -23.5302  -12.1569 C   0  0  1  0  0  0  0  0  0  0  0  0
   18.8525  -23.3219  -10.9664 C   0  0  0  0  0  0  0  0  0  0  0  0
   19.0964  -24.4201   -9.9904 C   0  0  0  0  0  0  0  0  0  0  0  0
   18.2018  -24.4505   -8.8029 C   0  0  0  0  0  0  0  0  0  0  0  0
   18.2872  -25.6639   -7.9441 C   0  0  0  0  0  0  0  0  0  0  0  0
   17.3694  -25.7285   -6.8554 N   0  0  0  0  0  0  0  0  0  0  0  0
   21.0687  -22.8012  -11.9934 C   0  0  0  0  0  0  0  0  0  0  0  0
   22.0398  -23.4282  -11.5560 O   0  0  0  0  0  0  0  0  0  0  0  0
   21.1981  -21.4340  -12.3253 N   0  0  0  0  0  0  0  0  0  0  0  0
   21.3634  -20.8702  -13.6093 C   0  0  1  0  0  0  0  0  0  0  0  0
   21.9582  -21.7478  -14.6776 C   0  0  0  0  0  0  0  0  0  0  0  0
   23.4084  -21.5897  -14.9397 C   0  0  0  0  0  0  0  0  0  0  0  0
   24.0875  -22.9220  -15.2930 C   0  0  0  0  0  0  0  0  0  0  0  0
   25.5451  -22.7684  -15.5634 C   0  0  0  0  0  0  0  0  0  0  0  0
   26.1356  -24.0566  -15.8971 N   0  0  0  0  0  0  0  0  0  0  0  0
   20.2146  -20.1108  -14.1388 C   0  0  0  0  0  0  0  0  0  0  0  0
   19.2784  -20.7316  -14.6842 O   0  0  0  0  0  0  0  0  0  0  0  0
   21.1198  -16.1210  -18.0990 N   0  0  0  0  0  0  0  0  0  0  0  0
   20.1932  -16.9100  -17.3540 C   0  0  0  0  0  0  0  0  0  0  0  0
   18.9712  -16.7900  -17.6809 O   0  0  0  0  0  0  0  0  0  0  0  0
   20.6811  -17.7977  -16.2757 C   0  0  0  0  0  0  0  0  0  0  0  0
   19.6779  -17.8680  -15.1863 C   0  0  2  0  0  0  0  0  0  0  0  0
   20.0946  -18.6974  -14.0714 N   0  0  0  0  0  0  0  0  0  0  0  0
   18.3212  -18.2496  -15.6566 C   0  0  0  0  0  0  0  0  0  0  0  0
   18.0556  -19.2904  -16.2971 O   0  0  0  0  0  0  0  0  0  0  0  0
   17.2492  -17.4040  -15.3763 O   0  0  0  0  0  0  0  0  0  0  0  0
  2  1  1  1
  3  2  1  0
  4  3  1  0
  5  4  1  0
  5  6  1  0
  7  6  1  0
  8  2  1  0
  8  9  2  0
 10 11  1  0
 10  8  1  0
 11 12  1  6
 13 12  1  0
 14 13  1  0
 15 14  1  0
 16 15  1  0
 17 18  2  0
 17 11  1  0
 19 20  1  0
 20 21  2  0
 20 22  1  0
 23 22  1  6
 23 24  1  0
 23 25  1  0
 24 17  1  0
 25 27  1  0
 26 25  2  0
M  END
$$$$
