KKN.pdb
     RDKit          3D

 27 26  0  0  1  0  0  0  0  0999 V2000
   20.5228  -26.0660  -16.3944 N   0  0  0  0  0  0  0  0  0  0  0  0
   21.0721  -25.3017  -15.3047 C   0  0  1  0  0  0  0  0  0  0  0  0
   21.8138  -24.0710  -15.7929 C   0  0  0  0  0  0  0  0  0  0  0  0
   23.0390  -24.5182  -16.5119 C   0  0  0  0  0  0  0  0  0  0  0  0
   24.2284  -24.7998  -15.6650 C   0  0  0  0  0  0  0  0  0  0  0  0
   25.4793  -25.1647  -16.3856 C   0  0  0  0  0  0  0  0  0  0  0  0
   26.6010  -25.4932  -15.5697 N   0  0  0  0  0  0  0  0  0  0  0  0
   19.9531  -24.9453  -14.3750 C   0  0  0  0  0  0  0  0  0  0  0  0
   18.9286  -24.4495  -14.8569 O   0  0  0  0  0  0  0  0  0  0  0  0
   20.0483  -25.1631  -12.9823 N   0  0  0  0  0  0  0  0  0  0  0  0
   19.2535  -24.5930  -11.9640 C   0  0  1  0  0  0  0  0  0  0  0  0
   19.3465  -25.2039  -10.5917 C   0  0  0  0  0  0  0  0  0  0  0  0
   18.4266  -24.6692   -9.5599 C   0  0  0  0  0  0  0  0  0  0  0  0
   18.6149  -25.3537   -8.1971 C   0  0  0  0  0  0  0  0  0  0  0  0
   17.7143  -24.7986   -7.1475 C   0  0  0  0  0  0  0  0  0  0  0  0
   18.0241  -25.3876   -5.8526 N   0  0  0  0  0  0  0  0  0  0  0  0
   19.2622  -23.1200  -11.8803 C   0  0  0  0  0  0  0  0  0  0  0  0
   20.3577  -22.5207  -11.8756 O   0  0  0  0  0  0  0  0  0  0  0  0
   20.5419  -18.4679  -13.5433 N   0  0  0  0  0  0  0  0  0  0  0  0
   19.4153  -19.0914  -12.9282 C   0  0  0  0  0  0  0  0  0  0  0  0
   18.6468  -18.3247  -12.2677 O   0  0  0  0  0  0  0  0  0  0  0  0
   19.2032  -20.5473  -13.0827 C   0  0  0  0  0  0  0  0  0  0  0  0
   18.0030  -20.9668  -12.3200 C   0  0  2  0  0  0  0  0  0  0  0  0
   18.0919  -22.3194  -11.8032 N   0  0  0  0  0  0  0  0  0  0  0  0
   16.7313  -20.7616  -13.0604 C   0  0  0  0  0  0  0  0  0  0  0  0
   16.1861  -21.6176  -13.7912 O   0  0  0  0  0  0  0  0  0  0  0  0
   16.0780  -19.5354  -12.9489 O   0  0  0  0  0  0  0  0  0  0  0  0
  2  1  1  6
  3  2  1  0
  4  3  1  0
  5  4  1  0
  5  6  1  0
  7  6  1  0
  8  2  1  0
  8  9  2  0
 10 11  1  0
 10  8  1  0
 11 12  1  1
 13 12  1  0
 14 13  1  0
 15 14  1  0
 16 15  1  0
 17 18  2  0
 17 11  1  0
 19 20  1  0
 20 21  2  0
 20 22  1  0
 23 22  1  6
 23 24  1  0
 23 25  1  0
 24 17  1  0
 25 27  1  0
 26 25  2  0
M  END
$$$$
