KKN.pdb
     RDKit          3D

 27 26  0  0  1  0  0  0  0  0999 V2000
   21.6195  -26.2359  -14.7865 N   0  0  0  0  0  0  0  0  0  0  0  0
   21.7135  -24.8047  -14.6587 C   0  0  1  0  0  0  0  0  0  0  0  0
   22.0615  -24.1397  -15.9777 C   0  0  0  0  0  0  0  0  0  0  0  0
   23.4464  -24.5401  -16.3520 C   0  0  0  0  0  0  0  0  0  0  0  0
   24.5444  -23.8866  -15.5914 C   0  0  0  0  0  0  0  0  0  0  0  0
   25.9311  -24.2679  -15.9772 C   0  0  0  0  0  0  0  0  0  0  0  0
   26.9811  -23.6512  -15.2361 N   0  0  0  0  0  0  0  0  0  0  0  0
   20.4160  -24.3002  -14.1059 C   0  0  0  0  0  0  0  0  0  0  0  0
   19.4315  -24.2791  -14.8527 O   0  0  0  0  0  0  0  0  0  0  0  0
   20.3021  -23.8567  -12.7693 N   0  0  0  0  0  0  0  0  0  0  0  0
   19.2054  -23.2003  -12.1691 C   0  0  1  0  0  0  0  0  0  0  0  0
   18.9447  -23.4812  -10.7137 C   0  0  0  0  0  0  0  0  0  0  0  0
   18.6889  -24.8932  -10.3423 C   0  0  0  0  0  0  0  0  0  0  0  0
   18.5287  -25.0792   -8.8255 C   0  0  0  0  0  0  0  0  0  0  0  0
   18.1411  -26.4700   -8.4563 C   0  0  0  0  0  0  0  0  0  0  0  0
   17.9363  -26.5728   -7.0185 N   0  0  0  0  0  0  0  0  0  0  0  0
   19.0761  -21.7582  -12.4526 C   0  0  0  0  0  0  0  0  0  0  0  0
   20.0459  -21.0065  -12.2204 O   0  0  0  0  0  0  0  0  0  0  0  0
   19.7763  -17.0685  -14.7652 N   0  0  0  0  0  0  0  0  0  0  0  0
   18.6943  -17.9970  -14.8239 C   0  0  0  0  0  0  0  0  0  0  0  0
   17.5964  -17.5442  -15.2759 O   0  0  0  0  0  0  0  0  0  0  0  0
   18.8944  -19.3915  -14.3723 C   0  0  0  0  0  0  0  0  0  0  0  0
   17.8349  -19.7665  -13.4052 C   0  0  2  0  0  0  0  0  0  0  0  0
   17.9057  -21.1519  -12.9808 N   0  0  0  0  0  0  0  0  0  0  0  0
   16.4656  -19.4193  -13.8655 C   0  0  0  0  0  0  0  0  0  0  0  0
   15.9259  -18.3010  -13.7165 O   0  0  0  0  0  0  0  0  0  0  0  0
   15.7066  -20.3922  -14.5138 O   0  0  0  0  0  0  0  0  0  0  0  0
  2  1  1  6
  3  2  1  0
  4  3  1  0
  5  4  1  0
  5  6  1  0
  7  6  1  0
  8  2  1  0
  8  9  2  0
 10 11  1  0
 10  8  1  0
 11 12  1  1
 13 12  1  0
 14 13  1  0
 15 14  1  0
 16 15  1  0
 17 18  2  0
 17 11  1  0
 19 20  1  0
 20 21  2  0
 20 22  1  0
 23 22  1  6
 23 24  1  0
 23 25  1  0
 24 17  1  0
 25 27  1  0
 26 25  2  0
M  END
$$$$
