KKN.pdb
     RDKit          3D

 27 26  0  0  1  0  0  0  0  0999 V2000
   19.0836  -22.2484  -15.5231 N   0  0  0  0  0  0  0  0  0  0  0  0
   19.7320  -21.3589  -14.5948 C   0  0  1  0  0  0  0  0  0  0  0  0
   19.4183  -21.7168  -13.1537 C   0  0  0  0  0  0  0  0  0  0  0  0
   18.3409  -22.7451  -13.1514 C   0  0  0  0  0  0  0  0  0  0  0  0
   18.0245  -23.3580  -11.8340 C   0  0  0  0  0  0  0  0  0  0  0  0
   16.9502  -24.3891  -11.8277 C   0  0  0  0  0  0  0  0  0  0  0  0
   16.5787  -24.9010  -10.5502 N   0  0  0  0  0  0  0  0  0  0  0  0
   21.2041  -21.3916  -14.8689 C   0  0  0  0  0  0  0  0  0  0  0  0
   21.9328  -20.6159  -14.2406 O   0  0  0  0  0  0  0  0  0  0  0  0
   21.7623  -22.2786  -15.8164 N   0  0  0  0  0  0  0  0  0  0  0  0
   23.1070  -22.3526  -16.2408 C   0  0  1  0  0  0  0  0  0  0  0  0
   23.6225  -23.6997  -16.6704 C   0  0  0  0  0  0  0  0  0  0  0  0
   25.0751  -23.8007  -16.9474 C   0  0  0  0  0  0  0  0  0  0  0  0
   25.5004  -25.2277  -17.3267 C   0  0  0  0  0  0  0  0  0  0  0  0
   26.9440  -25.3193  -17.6855 C   0  0  0  0  0  0  0  0  0  0  0  0
   27.7722  -24.9494  -16.5467 N   0  0  0  0  0  0  0  0  0  0  0  0
   23.5525  -21.3019  -17.1759 C   0  0  0  0  0  0  0  0  0  0  0  0
   22.6951  -20.6605  -17.8184 O   0  0  0  0  0  0  0  0  0  0  0  0
   25.9783  -16.5116  -15.7093 N   0  0  0  0  0  0  0  0  0  0  0  0
   25.4235  -17.3164  -16.7489 C   0  0  0  0  0  0  0  0  0  0  0  0
   25.3404  -16.7686  -17.8924 O   0  0  0  0  0  0  0  0  0  0  0  0
   24.9874  -18.6996  -16.4571 C   0  0  0  0  0  0  0  0  0  0  0  0
   25.3875  -19.6000  -17.5649 C   0  0  2  0  0  0  0  0  0  0  0  0
   24.9123  -20.9610  -17.4022 N   0  0  0  0  0  0  0  0  0  0  0  0
   26.8457  -19.5750  -17.8488 C   0  0  0  0  0  0  0  0  0  0  0  0
   27.3780  -18.9447  -18.7887 O   0  0  0  0  0  0  0  0  0  0  0  0
   27.7048  -20.2975  -17.0224 O   0  0  0  0  0  0  0  0  0  0  0  0
  2  1  1  6
  3  2  1  0
  4  3  1  0
  5  4  1  0
  5  6  1  0
  7  6  1  0
  8  2  1  0
  8  9  2  0
 10 11  1  0
 10  8  1  0
 11 12  1  6
 13 12  1  0
 14 13  1  0
 15 14  1  0
 16 15  1  0
 17 18  2  0
 17 11  1  0
 19 20  1  0
 20 21  2  0
 20 22  1  0
 23 22  1  1
 23 24  1  0
 23 25  1  0
 24 17  1  0
 25 27  1  0
 26 25  2  0
M  END
$$$$
