KKN.pdb
     RDKit          3D

 27 26  0  0  1  0  0  0  0  0999 V2000
   19.6070  -13.1232  -18.1703 N   0  0  0  0  0  0  0  0  0  0  0  0
   18.5698  -12.4874  -17.4000 C   0  0  1  0  0  0  0  0  0  0  0  0
   18.3530  -13.1753  -16.0647 C   0  0  0  0  0  0  0  0  0  0  0  0
   17.8931  -14.5677  -16.3254 C   0  0  0  0  0  0  0  0  0  0  0  0
   17.7105  -15.4312  -15.1286 C   0  0  0  0  0  0  0  0  0  0  0  0
   17.1355  -16.7829  -15.3726 C   0  0  0  0  0  0  0  0  0  0  0  0
   16.9500  -17.6033  -14.2218 N   0  0  0  0  0  0  0  0  0  0  0  0
   18.9335  -11.0443  -17.2305 C   0  0  0  0  0  0  0  0  0  0  0  0
   20.1308  -10.7379  -17.2458 O   0  0  0  0  0  0  0  0  0  0  0  0
   17.9482  -10.0468  -17.0569 N   0  0  0  0  0  0  0  0  0  0  0  0
   18.1456   -8.6570  -16.9042 C   0  0  1  0  0  0  0  0  0  0  0  0
   16.9438   -7.7664  -17.0702 C   0  0  0  0  0  0  0  0  0  0  0  0
   17.1904   -6.3049  -17.0610 C   0  0  0  0  0  0  0  0  0  0  0  0
   15.8991   -5.4926  -17.2448 C   0  0  0  0  0  0  0  0  0  0  0  0
   16.1496   -4.0250  -17.3113 C   0  0  0  0  0  0  0  0  0  0  0  0
   14.8953   -3.3055  -17.4810 N   0  0  0  0  0  0  0  0  0  0  0  0
   18.9473   -8.2383  -15.7386 C   0  0  0  0  0  0  0  0  0  0  0  0
   18.8245   -8.8625  -14.6640 O   0  0  0  0  0  0  0  0  0  0  0  0
   22.2091   -6.1904  -12.4646 N   0  0  0  0  0  0  0  0  0  0  0  0
   22.2180   -7.5575  -12.8736 C   0  0  0  0  0  0  0  0  0  0  0  0
   22.9120   -8.3473  -12.1602 O   0  0  0  0  0  0  0  0  0  0  0  0
   21.4471   -7.9753  -14.0652 C   0  0  0  0  0  0  0  0  0  0  0  0
   20.7245   -6.8119  -14.6331 C   0  0  2  0  0  0  0  0  0  0  0  0
   19.8662   -7.1557  -15.7510 N   0  0  0  0  0  0  0  0  0  0  0  0
   21.6153   -5.6732  -14.9755 C   0  0  0  0  0  0  0  0  0  0  0  0
   21.8525   -4.7027  -14.2233 O   0  0  0  0  0  0  0  0  0  0  0  0
   22.2451   -5.6618  -16.2190 O   0  0  0  0  0  0  0  0  0  0  0  0
  2  1  1  1
  3  2  1  0
  4  3  1  0
  5  4  1  0
  5  6  1  0
  7  6  1  0
  8  2  1  0
  8  9  2  0
 10 11  1  0
 10  8  1  0
 11 12  1  1
 13 12  1  0
 14 13  1  0
 15 14  1  0
 16 15  1  0
 17 18  2  0
 17 11  1  0
 19 20  1  0
 20 21  2  0
 20 22  1  0
 23 22  1  6
 23 24  1  0
 23 25  1  0
 24 17  1  0
 25 27  1  0
 26 25  2  0
M  END
$$$$
