KKN.pdb
     RDKit          3D

 27 26  0  0  1  0  0  0  0  0999 V2000
   25.3132  -21.4175  -10.9797 N   0  0  0  0  0  0  0  0  0  0  0  0
   25.1316  -21.6722  -12.3853 C   0  0  1  0  0  0  0  0  0  0  0  0
   23.9952  -22.6445  -12.6428 C   0  0  0  0  0  0  0  0  0  0  0  0
   24.5375  -23.8079  -13.3981 C   0  0  0  0  0  0  0  0  0  0  0  0
   24.8701  -23.5629  -14.8266 C   0  0  0  0  0  0  0  0  0  0  0  0
   25.4513  -24.7118  -15.5745 C   0  0  0  0  0  0  0  0  0  0  0  0
   25.8060  -24.4622  -16.9324 N   0  0  0  0  0  0  0  0  0  0  0  0
   24.9080  -20.3598  -13.0715 C   0  0  0  0  0  0  0  0  0  0  0  0
   24.1183  -19.5593  -12.5585 O   0  0  0  0  0  0  0  0  0  0  0  0
   25.5731  -20.0286  -14.2732 N   0  0  0  0  0  0  0  0  0  0  0  0
   25.3598  -18.8996  -15.0940 C   0  0  1  0  0  0  0  0  0  0  0  0
   26.5078  -18.4443  -15.9541 C   0  0  0  0  0  0  0  0  0  0  0  0
   26.2888  -17.2252  -16.7681 C   0  0  0  0  0  0  0  0  0  0  0  0
   27.5301  -16.8375  -17.5865 C   0  0  0  0  0  0  0  0  0  0  0  0
   27.2998  -15.6416  -18.4456 C   0  0  0  0  0  0  0  0  0  0  0  0
   28.5098  -15.3093  -19.1840 N   0  0  0  0  0  0  0  0  0  0  0  0
   24.0972  -18.8796  -15.8570 C   0  0  0  0  0  0  0  0  0  0  0  0
   23.7850  -19.8796  -16.5367 O   0  0  0  0  0  0  0  0  0  0  0  0
   18.7207  -19.0235  -15.3983 N   0  0  0  0  0  0  0  0  0  0  0  0
   19.4665  -17.8216  -15.5867 C   0  0  0  0  0  0  0  0  0  0  0  0
   18.8552  -16.8733  -16.1712 O   0  0  0  0  0  0  0  0  0  0  0  0
   20.8646  -17.7394  -15.1101 C   0  0  0  0  0  0  0  0  0  0  0  0
   21.7976  -17.8941  -16.2519 C   0  0  2  0  0  0  0  0  0  0  0  0
   23.1940  -17.7840  -15.8744 N   0  0  0  0  0  0  0  0  0  0  0  0
   21.4829  -17.0011  -17.3968 C   0  0  0  0  0  0  0  0  0  0  0  0
   20.4386  -17.0623  -18.0822 O   0  0  0  0  0  0  0  0  0  0  0  0
   22.4010  -16.0147  -17.7532 O   0  0  0  0  0  0  0  0  0  0  0  0
  2  1  1  1
  3  2  1  0
  4  3  1  0
  5  4  1  0
  5  6  1  0
  7  6  1  0
  8  2  1  0
  8  9  2  0
 10 11  1  0
 10  8  1  0
 11 12  1  6
 13 12  1  0
 14 13  1  0
 15 14  1  0
 16 15  1  0
 17 18  2  0
 17 11  1  0
 19 20  1  0
 20 21  2  0
 20 22  1  0
 23 22  1  1
 23 24  1  0
 23 25  1  0
 24 17  1  0
 25 27  1  0
 26 25  2  0
M  END
$$$$
