KKN.pdb
     RDKit          3D

 27 26  0  0  1  0  0  0  0  0999 V2000
   26.4110  -21.8980  -15.6566 N   0  0  0  0  0  0  0  0  0  0  0  0
   25.7834  -20.6021  -15.6745 C   0  0  1  0  0  0  0  0  0  0  0  0
   26.2502  -19.7626  -16.8494 C   0  0  0  0  0  0  0  0  0  0  0  0
   27.7235  -19.5770  -16.7352 C   0  0  0  0  0  0  0  0  0  0  0  0
   28.3782  -18.8396  -17.8483 C   0  0  0  0  0  0  0  0  0  0  0  0
   29.8509  -18.6501  -17.7372 C   0  0  0  0  0  0  0  0  0  0  0  0
   30.4837  -17.9926  -18.8322 N   0  0  0  0  0  0  0  0  0  0  0  0
   24.2992  -20.8035  -15.6886 C   0  0  0  0  0  0  0  0  0  0  0  0
   23.7677  -21.1569  -16.7470 O   0  0  0  0  0  0  0  0  0  0  0  0
   23.5124  -20.5999  -14.5330 N   0  0  0  0  0  0  0  0  0  0  0  0
   22.1055  -20.6563  -14.4268 C   0  0  1  0  0  0  0  0  0  0  0  0
   21.5312  -21.3109  -13.1993 C   0  0  0  0  0  0  0  0  0  0  0  0
   20.0583  -21.4710  -13.1560 C   0  0  0  0  0  0  0  0  0  0  0  0
   19.5856  -22.1931  -11.8847 C   0  0  0  0  0  0  0  0  0  0  0  0
   18.1005  -22.2351  -11.7680 C   0  0  0  0  0  0  0  0  0  0  0  0
   17.7105  -22.7250  -10.4536 N   0  0  0  0  0  0  0  0  0  0  0  0
   21.3793  -19.4111  -14.7413 C   0  0  0  0  0  0  0  0  0  0  0  0
   21.6069  -18.3894  -14.0603 O   0  0  0  0  0  0  0  0  0  0  0  0
   19.5197  -15.2911  -18.2571 N   0  0  0  0  0  0  0  0  0  0  0  0
   18.9399  -16.5091  -17.7918 C   0  0  0  0  0  0  0  0  0  0  0  0
   17.6795  -16.4994  -17.6305 O   0  0  0  0  0  0  0  0  0  0  0  0
   19.8018  -17.6824  -17.5287 C   0  0  0  0  0  0  0  0  0  0  0  0
   19.7226  -18.0566  -16.0963 C   0  0  2  0  0  0  0  0  0  0  0  0
   20.4217  -19.2885  -15.7827 N   0  0  0  0  0  0  0  0  0  0  0  0
   18.3340  -18.0826  -15.5687 C   0  0  0  0  0  0  0  0  0  0  0  0
   17.7170  -17.0843  -15.1367 O   0  0  0  0  0  0  0  0  0  0  0  0
   17.6464  -19.2949  -15.5429 O   0  0  0  0  0  0  0  0  0  0  0  0
  2  1  1  6
  3  2  1  0
  4  3  1  0
  5  4  1  0
  5  6  1  0
  7  6  1  0
  8  2  1  0
  8  9  2  0
 10 11  1  0
 10  8  1  0
 11 12  1  1
 13 12  1  0
 14 13  1  0
 15 14  1  0
 16 15  1  0
 17 18  2  0
 17 11  1  0
 19 20  1  0
 20 21  2  0
 20 22  1  0
 23 22  1  6
 23 24  1  0
 23 25  1  0
 24 17  1  0
 25 27  1  0
 26 25  2  0
M  END
$$$$
