KKN.pdb
     RDKit          3D

 27 26  0  0  1  0  0  0  0  0999 V2000
   27.1990  -18.7378  -17.0308 N   0  0  0  0  0  0  0  0  0  0  0  0
   26.4940  -19.7524  -16.2911 C   0  0  1  0  0  0  0  0  0  0  0  0
   27.3534  -20.3546  -15.1948 C   0  0  0  0  0  0  0  0  0  0  0  0
   28.4197  -21.1747  -15.8340 C   0  0  0  0  0  0  0  0  0  0  0  0
   27.9616  -22.3768  -16.5799 C   0  0  0  0  0  0  0  0  0  0  0  0
   29.0287  -23.2455  -17.1491 C   0  0  0  0  0  0  0  0  0  0  0  0
   28.6039  -24.5032  -17.6685 N   0  0  0  0  0  0  0  0  0  0  0  0
   25.2396  -19.1433  -15.7443 C   0  0  0  0  0  0  0  0  0  0  0  0
   25.3204  -18.4654  -14.7140 O   0  0  0  0  0  0  0  0  0  0  0  0
   23.9894  -19.3278  -16.3759 N   0  0  0  0  0  0  0  0  0  0  0  0
   22.7240  -18.8895  -15.9280 C   0  0  1  0  0  0  0  0  0  0  0  0
   21.7348  -18.4514  -16.9742 C   0  0  0  0  0  0  0  0  0  0  0  0
   20.4595  -17.8747  -16.4863 C   0  0  0  0  0  0  0  0  0  0  0  0
   19.4900  -17.5458  -17.6322 C   0  0  0  0  0  0  0  0  0  0  0  0
   18.2517  -16.8657  -17.1580 C   0  0  0  0  0  0  0  0  0  0  0  0
   17.3730  -16.5747  -18.2817 N   0  0  0  0  0  0  0  0  0  0  0  0
   22.0671  -19.7315  -14.9101 C   0  0  0  0  0  0  0  0  0  0  0  0
   21.9857  -20.9625  -15.1038 O   0  0  0  0  0  0  0  0  0  0  0  0
   20.8513  -20.5657   -8.9869 N   0  0  0  0  0  0  0  0  0  0  0  0
   20.7219  -20.7813  -10.3915 C   0  0  0  0  0  0  0  0  0  0  0  0
   19.9878  -21.7585  -10.7392 O   0  0  0  0  0  0  0  0  0  0  0  0
   21.4227  -19.8898  -11.3417 C   0  0  0  0  0  0  0  0  0  0  0  0
   20.8673  -20.0675  -12.7048 C   0  0  2  0  0  0  0  0  0  0  0  0
   21.5101  -19.2333  -13.7026 N   0  0  0  0  0  0  0  0  0  0  0  0
   19.3895  -19.9260  -12.7635 C   0  0  0  0  0  0  0  0  0  0  0  0
   18.7762  -18.8366  -12.7319 O   0  0  0  0  0  0  0  0  0  0  0  0
   18.6067  -21.0751  -12.8617 O   0  0  0  0  0  0  0  0  0  0  0  0
  2  1  1  1
  3  2  1  0
  4  3  1  0
  5  4  1  0
  5  6  1  0
  7  6  1  0
  8  2  1  0
  8  9  2  0
 10 11  1  0
 10  8  1  0
 11 12  1  6
 13 12  1  0
 14 13  1  0
 15 14  1  0
 16 15  1  0
 17 18  2  0
 17 11  1  0
 19 20  1  0
 20 21  2  0
 20 22  1  0
 23 22  1  1
 23 24  1  0
 23 25  1  0
 24 17  1  0
 25 27  1  0
 26 25  2  0
M  END
$$$$
