KKN.pdb
     RDKit          3D

 27 26  0  0  1  0  0  0  0  0999 V2000
   23.2818  -28.7567  -14.3416 N   0  0  0  0  0  0  0  0  0  0  0  0
   22.0505  -28.0956  -14.6883 C   0  0  1  0  0  0  0  0  0  0  0  0
   20.9104  -28.5055  -13.7743 C   0  0  0  0  0  0  0  0  0  0  0  0
   20.6324  -29.9521  -13.9936 C   0  0  0  0  0  0  0  0  0  0  0  0
   21.2306  -30.8901  -13.0068 C   0  0  0  0  0  0  0  0  0  0  0  0
   21.0075  -32.3408  -13.2573 C   0  0  0  0  0  0  0  0  0  0  0  0
   21.6068  -33.2382  -12.3258 N   0  0  0  0  0  0  0  0  0  0  0  0
   22.2893  -26.6174  -14.6523 C   0  0  0  0  0  0  0  0  0  0  0  0
   22.8416  -26.1389  -13.6556 O   0  0  0  0  0  0  0  0  0  0  0  0
   21.9006  -25.7774  -15.7197 N   0  0  0  0  0  0  0  0  0  0  0  0
   22.1720  -24.4006  -15.8764 C   0  0  1  0  0  0  0  0  0  0  0  0
   22.6890  -23.9465  -17.2149 C   0  0  0  0  0  0  0  0  0  0  0  0
   22.8773  -22.4877  -17.3973 C   0  0  0  0  0  0  0  0  0  0  0  0
   24.3610  -22.0902  -17.4395 C   0  0  0  0  0  0  0  0  0  0  0  0
   24.5571  -20.6154  -17.5259 C   0  0  0  0  0  0  0  0  0  0  0  0
   25.9711  -20.2864  -17.4167 N   0  0  0  0  0  0  0  0  0  0  0  0
   21.1400  -23.4732  -15.3747 C   0  0  0  0  0  0  0  0  0  0  0  0
   20.0394  -23.4173  -15.9622 O   0  0  0  0  0  0  0  0  0  0  0  0
   20.7907  -17.7153  -13.7981 N   0  0  0  0  0  0  0  0  0  0  0  0
   20.3202  -19.0595  -13.7088 C   0  0  0  0  0  0  0  0  0  0  0  0
   19.1212  -19.2042  -13.3137 O   0  0  0  0  0  0  0  0  0  0  0  0
   21.2174  -20.1798  -14.0672 C   0  0  0  0  0  0  0  0  0  0  0  0
   20.4819  -21.4642  -13.9797 C   0  0  2  0  0  0  0  0  0  0  0  0
   21.3114  -22.6232  -14.2501 N   0  0  0  0  0  0  0  0  0  0  0  0
   19.2431  -21.4923  -14.7995 C   0  0  0  0  0  0  0  0  0  0  0  0
   18.0921  -21.6739  -14.3454 O   0  0  0  0  0  0  0  0  0  0  0  0
   19.3433  -21.3045  -16.1770 O   0  0  0  0  0  0  0  0  0  0  0  0
  2  1  1  1
  3  2  1  0
  4  3  1  0
  5  4  1  0
  5  6  1  0
  7  6  1  0
  8  2  1  0
  8  9  2  0
 10 11  1  0
 10  8  1  0
 11 12  1  6
 13 12  1  0
 14 13  1  0
 15 14  1  0
 16 15  1  0
 17 18  2  0
 17 11  1  0
 19 20  1  0
 20 21  2  0
 20 22  1  0
 23 22  1  6
 23 24  1  0
 23 25  1  0
 24 17  1  0
 25 27  1  0
 26 25  2  0
M  END
$$$$
