KKN.pdb
     RDKit          3D

 27 26  0  0  1  0  0  0  0  0999 V2000
   21.8685  -13.6348  -17.6105 N   0  0  0  0  0  0  0  0  0  0  0  0
   22.1147  -12.6313  -18.6134 C   0  0  1  0  0  0  0  0  0  0  0  0
   21.5605  -13.0352  -19.9673 C   0  0  0  0  0  0  0  0  0  0  0  0
   22.3864  -14.1567  -20.4948 C   0  0  0  0  0  0  0  0  0  0  0  0
   21.9433  -15.5266  -20.1230 C   0  0  0  0  0  0  0  0  0  0  0  0
   22.8138  -16.6466  -20.5759 C   0  0  0  0  0  0  0  0  0  0  0  0
   22.5039  -17.9348  -20.0502 N   0  0  0  0  0  0  0  0  0  0  0  0
   21.5273  -11.3395  -18.1340 C   0  0  0  0  0  0  0  0  0  0  0  0
   21.7296  -10.3212  -18.8046 O   0  0  0  0  0  0  0  0  0  0  0  0
   20.7599  -11.2683  -16.9500 N   0  0  0  0  0  0  0  0  0  0  0  0
   20.0191  -10.1673  -16.4674 C   0  0  1  0  0  0  0  0  0  0  0  0
   18.6856  -10.4569  -15.8325 C   0  0  0  0  0  0  0  0  0  0  0  0
   17.4821  -10.0300  -16.5848 C   0  0  0  0  0  0  0  0  0  0  0  0
   16.1782  -10.4669  -15.8991 C   0  0  0  0  0  0  0  0  0  0  0  0
   14.9677   -9.8872  -16.5468 C   0  0  0  0  0  0  0  0  0  0  0  0
   13.7617  -10.4766  -15.9833 N   0  0  0  0  0  0  0  0  0  0  0  0
   20.7700   -9.1763  -15.6730 C   0  0  0  0  0  0  0  0  0  0  0  0
   21.5767   -9.5792  -14.8091 O   0  0  0  0  0  0  0  0  0  0  0  0
   22.1621   -3.2384  -14.9620 N   0  0  0  0  0  0  0  0  0  0  0  0
   22.4135   -4.6360  -14.8213 C   0  0  0  0  0  0  0  0  0  0  0  0
   23.1987   -4.9680  -13.8791 O   0  0  0  0  0  0  0  0  0  0  0  0
   21.7716   -5.5969  -15.7450 C   0  0  0  0  0  0  0  0  0  0  0  0
   21.3358   -6.8015  -14.9984 C   0  0  2  0  0  0  0  0  0  0  0  0
   20.6390   -7.7704  -15.8232 N   0  0  0  0  0  0  0  0  0  0  0  0
   20.5573   -6.4869  -13.7727 C   0  0  0  0  0  0  0  0  0  0  0  0
   19.3209   -6.3021  -13.7417 O   0  0  0  0  0  0  0  0  0  0  0  0
   21.2297   -6.3855  -12.5559 O   0  0  0  0  0  0  0  0  0  0  0  0
  2  1  1  1
  3  2  1  0
  4  3  1  0
  5  4  1  0
  5  6  1  0
  7  6  1  0
  8  2  1  0
  8  9  2  0
 10 11  1  0
 10  8  1  0
 11 12  1  1
 13 12  1  0
 14 13  1  0
 15 14  1  0
 16 15  1  0
 17 18  2  0
 17 11  1  0
 19 20  1  0
 20 21  2  0
 20 22  1  0
 23 22  1  6
 23 24  1  0
 23 25  1  0
 24 17  1  0
 25 27  1  0
 26 25  2  0
M  END
$$$$
