GFD.pdb
     RDKit          3D

 24 24  0  0  1  0  0  0  0  0999 V2000
    4.5460  -19.1195   23.2281 N   0  0  0  0  0  0  0  0  0  0  0  0
    4.9039  -17.9551   24.0124 C   0  0  0  0  0  0  0  0  0  0  0  0
    6.1216  -17.2980   23.4595 C   0  0  0  0  0  0  0  0  0  0  0  0
    6.7567  -17.7592   22.4860 O   0  0  0  0  0  0  0  0  0  0  0  0
    6.5674  -16.1076   24.0667 N   0  0  0  0  0  0  0  0  0  0  0  0
    7.7451  -15.4055   23.6413 C   0  0  1  0  0  0  0  0  0  0  0  0
    7.6619  -13.9338   23.8138 C   0  0  0  0  0  0  0  0  0  0  0  0
    7.3697  -13.5372   25.2257 C   0  0  0  0  0  0  0  0  0  0  0  0
    6.0641  -13.3470   25.6196 C   0  0  0  0  0  0  0  0  0  0  0  0
    5.7446  -12.9796   26.9214 C   0  0  0  0  0  0  0  0  0  0  0  0
    6.7274  -12.7921   27.8685 C   0  0  0  0  0  0  0  0  0  0  0  0
    8.0346  -12.9809   27.4799 C   0  0  0  0  0  0  0  0  0  0  0  0
    8.3571  -13.3508   26.1689 C   0  0  0  0  0  0  0  0  0  0  0  0
    8.9979  -15.9203   24.2444 C   0  0  0  0  0  0  0  0  0  0  0  0
    9.0613  -16.6244   25.2845 O   0  0  0  0  0  0  0  0  0  0  0  0
   10.2227  -15.5985   23.6026 N   0  0  0  0  0  0  0  0  0  0  0  0
   11.4029  -16.4620   23.8451 C   0  0  1  0  0  0  0  0  0  0  0  0
   12.4230  -16.0243   22.8174 C   0  0  0  0  0  0  0  0  0  0  0  0
   13.6935  -16.7304   22.8683 C   0  0  0  0  0  0  0  0  0  0  0  0
   13.7313  -17.9700   23.0152 O   0  0  0  0  0  0  0  0  0  0  0  0
   11.9487  -16.1993   25.1920 C   0  0  0  0  0  0  0  0  0  0  0  0
   12.8139  -16.9540   25.6802 O   0  0  0  0  0  0  0  0  0  0  0  0
   14.8810  -16.0361   22.7543 O   0  0  0  0  0  0  0  0  0  0  0  0
   11.5015  -15.1169   25.9109 O   0  0  0  0  0  0  0  0  0  0  0  0
  2  1  1  0
  3  2  1  0
  3  5  1  0
  4  3  2  0
  6  5  1  0
  6 14  1  0
  6  7  1  1
  8  7  1  0
  8 13  2  0
  9  8  1  0
 10  9  2  0
 10 11  1  0
 11 12  2  0
 12 13  1  0
 14 16  1  0
 15 14  2  0
 16 17  1  0
 17 18  1  6
 17 21  1  0
 19 18  1  0
 20 19  2  0
 21 24  1  0
 22 21  2  0
 23 19  1  0
M  END
$$$$
