GFD.pdb
     RDKit          3D

 24 24  0  0  1  0  0  0  0  0999 V2000
    6.6819  -14.4553   19.8260 N   0  0  0  0  0  0  0  0  0  0  0  0
    6.3144  -14.9919   21.1207 C   0  0  0  0  0  0  0  0  0  0  0  0
    7.4240  -14.8191   22.1000 C   0  0  0  0  0  0  0  0  0  0  0  0
    8.5299  -14.3248   21.7895 O   0  0  0  0  0  0  0  0  0  0  0  0
    7.2073  -15.2336   23.4288 N   0  0  0  0  0  0  0  0  0  0  0  0
    8.2239  -15.1797   24.4410 C   0  0  1  0  0  0  0  0  0  0  0  0
    7.6908  -15.1118   25.8244 C   0  0  0  0  0  0  0  0  0  0  0  0
    7.2076  -13.7437   26.1865 C   0  0  0  0  0  0  0  0  0  0  0  0
    8.1011  -12.6967   26.2211 C   0  0  0  0  0  0  0  0  0  0  0  0
    7.6975  -11.4082   26.5508 C   0  0  0  0  0  0  0  0  0  0  0  0
    6.3829  -11.1314   26.8558 C   0  0  0  0  0  0  0  0  0  0  0  0
    5.4852  -12.1748   26.8229 C   0  0  0  0  0  0  0  0  0  0  0  0
    5.8911  -13.4728   26.4910 C   0  0  0  0  0  0  0  0  0  0  0  0
    9.2309  -16.2627   24.3344 C   0  0  0  0  0  0  0  0  0  0  0  0
    8.9683  -17.4924   24.3184 O   0  0  0  0  0  0  0  0  0  0  0  0
   10.5975  -15.8893   24.2416 N   0  0  0  0  0  0  0  0  0  0  0  0
   11.6182  -16.9531   24.0877 C   0  0  1  0  0  0  0  0  0  0  0  0
   12.8243  -16.2533   23.5013 C   0  0  0  0  0  0  0  0  0  0  0  0
   13.9998  -17.0912   23.3251 C   0  0  0  0  0  0  0  0  0  0  0  0
   14.0227  -17.9869   22.4551 O   0  0  0  0  0  0  0  0  0  0  0  0
   11.9848  -17.4925   25.4127 C   0  0  0  0  0  0  0  0  0  0  0  0
   12.6411  -18.5495   25.5039 O   0  0  0  0  0  0  0  0  0  0  0  0
   15.1121  -16.9068   24.1214 O   0  0  0  0  0  0  0  0  0  0  0  0
   11.6013  -16.8256   26.5515 O   0  0  0  0  0  0  0  0  0  0  0  0
  2  1  1  0
  3  2  1  0
  3  5  1  0
  4  3  2  0
  6  5  1  0
  6 14  1  0
  6  7  1  1
  8  7  1  0
  8 13  2  0
  9  8  1  0
 10  9  2  0
 10 11  1  0
 11 12  2  0
 12 13  1  0
 14 16  1  0
 15 14  2  0
 16 17  1  0
 17 18  1  1
 17 21  1  0
 19 18  1  0
 20 19  2  0
 21 24  1  0
 22 21  2  0
 23 19  1  0
M  END
$$$$
