GFD.pdb
     RDKit          3D

 24 24  0  0  1  0  0  0  0  0999 V2000
    9.0679  -18.0814   17.4227 N   0  0  0  0  0  0  0  0  0  0  0  0
    8.7783  -18.2682   18.8299 C   0  0  0  0  0  0  0  0  0  0  0  0
    9.5538  -17.3061   19.6625 C   0  0  0  0  0  0  0  0  0  0  0  0
   10.5874  -16.7349   19.2510 O   0  0  0  0  0  0  0  0  0  0  0  0
    9.0945  -17.0360   20.9665 N   0  0  0  0  0  0  0  0  0  0  0  0
    9.8079  -16.1998   21.8900 C   0  0  1  0  0  0  0  0  0  0  0  0
    8.9612  -15.1742   22.5488 C   0  0  0  0  0  0  0  0  0  0  0  0
    8.2436  -14.3051   21.5660 C   0  0  0  0  0  0  0  0  0  0  0  0
    6.9107  -14.5329   21.3070 C   0  0  0  0  0  0  0  0  0  0  0  0
    6.2025  -13.7501   20.4028 C   0  0  0  0  0  0  0  0  0  0  0  0
    6.8120  -12.7134   19.7305 C   0  0  0  0  0  0  0  0  0  0  0  0
    8.1449  -12.4814   19.9857 C   0  0  0  0  0  0  0  0  0  0  0  0
    8.8586  -13.2695   20.8962 C   0  0  0  0  0  0  0  0  0  0  0  0
   10.5791  -16.9550   22.9065 C   0  0  0  0  0  0  0  0  0  0  0  0
   10.2295  -18.0545   23.4067 O   0  0  0  0  0  0  0  0  0  0  0  0
   11.8077  -16.4003   23.3522 N   0  0  0  0  0  0  0  0  0  0  0  0
   12.6371  -17.1774   24.3036 C   0  0  1  0  0  0  0  0  0  0  0  0
   13.9685  -16.4599   24.3353 C   0  0  0  0  0  0  0  0  0  0  0  0
   14.6718  -16.4063   23.0634 C   0  0  0  0  0  0  0  0  0  0  0  0
   14.5544  -17.3269   22.2278 O   0  0  0  0  0  0  0  0  0  0  0  0
   12.0395  -17.1208   25.6529 C   0  0  0  0  0  0  0  0  0  0  0  0
   11.0702  -16.3697   25.8825 O   0  0  0  0  0  0  0  0  0  0  0  0
   15.4831  -15.3312   22.7612 O   0  0  0  0  0  0  0  0  0  0  0  0
   12.5536  -17.9008   26.6609 O   0  0  0  0  0  0  0  0  0  0  0  0
  2  1  1  0
  3  2  1  0
  3  5  1  0
  4  3  2  0
  6  5  1  0
  6 14  1  0
  6  7  1  1
  8  7  1  0
  8 13  2  0
  9  8  1  0
 10  9  2  0
 10 11  1  0
 11 12  2  0
 12 13  1  0
 14 16  1  0
 15 14  2  0
 16 17  1  0
 17 18  1  1
 17 21  1  0
 19 18  1  0
 20 19  2  0
 21 24  1  0
 22 21  2  0
 23 19  1  0
M  END
$$$$
