GFD.pdb
     RDKit          3D

 24 24  0  0  1  0  0  0  0  0999 V2000
    9.9723  -16.7505   18.7339 N   0  0  0  0  0  0  0  0  0  0  0  0
    8.7696  -16.6466   19.5351 C   0  0  0  0  0  0  0  0  0  0  0  0
    9.0509  -15.9572   20.8257 C   0  0  0  0  0  0  0  0  0  0  0  0
   10.2030  -15.8544   21.3012 O   0  0  0  0  0  0  0  0  0  0  0  0
    7.9660  -15.4015   21.5319 N   0  0  0  0  0  0  0  0  0  0  0  0
    8.0911  -14.8500   22.8514 C   0  0  1  0  0  0  0  0  0  0  0  0
    6.9551  -13.9820   23.2496 C   0  0  0  0  0  0  0  0  0  0  0  0
    7.1776  -13.3154   24.5695 C   0  0  0  0  0  0  0  0  0  0  0  0
    6.4761  -13.7466   25.6731 C   0  0  0  0  0  0  0  0  0  0  0  0
    6.6511  -13.1583   26.9202 C   0  0  0  0  0  0  0  0  0  0  0  0
    7.5369  -12.1181   27.0973 C   0  0  0  0  0  0  0  0  0  0  0  0
    8.2408  -11.6828   25.9970 C   0  0  0  0  0  0  0  0  0  0  0  0
    8.0650  -12.2749   24.7408 C   0  0  0  0  0  0  0  0  0  0  0  0
    8.3506  -15.8649   23.9007 C   0  0  0  0  0  0  0  0  0  0  0  0
    7.6025  -16.8419   24.1597 O   0  0  0  0  0  0  0  0  0  0  0  0
    9.5331  -15.7296   24.6747 N   0  0  0  0  0  0  0  0  0  0  0  0
    9.8662  -16.7873   25.6583 C   0  0  1  0  0  0  0  0  0  0  0  0
   11.3585  -16.9921   25.5192 C   0  0  0  0  0  0  0  0  0  0  0  0
   11.7959  -17.4889   24.2242 C   0  0  0  0  0  0  0  0  0  0  0  0
   11.3799  -18.5810   23.7839 O   0  0  0  0  0  0  0  0  0  0  0  0
    9.5821  -16.3082   27.0260 C   0  0  0  0  0  0  0  0  0  0  0  0
    9.3494  -15.1007   27.2359 O   0  0  0  0  0  0  0  0  0  0  0  0
   12.6817  -16.7561   23.4602 O   0  0  0  0  0  0  0  0  0  0  0  0
    9.5730  -17.1981   28.0732 O   0  0  0  0  0  0  0  0  0  0  0  0
  2  1  1  0
  3  2  1  0
  3  5  1  0
  4  3  2  0
  6  5  1  0
  6 14  1  0
  6  7  1  1
  8  7  1  0
  8 13  2  0
  9  8  1  0
 10  9  2  0
 10 11  1  0
 11 12  2  0
 12 13  1  0
 14 16  1  0
 15 14  2  0
 16 17  1  0
 17 18  1  1
 17 21  1  0
 19 18  1  0
 20 19  2  0
 21 24  1  0
 22 21  2  0
 23 19  1  0
M  END
$$$$
