GFD.pdb
     RDKit          3D

 24 24  0  0  1  0  0  0  0  0999 V2000
    6.9200  -16.4593   20.0348 N   0  0  0  0  0  0  0  0  0  0  0  0
    6.3097  -16.6809   21.3300 C   0  0  0  0  0  0  0  0  0  0  0  0
    7.2495  -16.3170   22.4276 C   0  0  0  0  0  0  0  0  0  0  0  0
    8.4473  -16.0217   22.2229 O   0  0  0  0  0  0  0  0  0  0  0  0
    6.7575  -16.3087   23.7475 N   0  0  0  0  0  0  0  0  0  0  0  0
    7.5881  -16.0556   24.8908 C   0  0  1  0  0  0  0  0  0  0  0  0
    6.8520  -15.5116   26.0590 C   0  0  0  0  0  0  0  0  0  0  0  0
    6.8265  -14.0165   26.0755 C   0  0  0  0  0  0  0  0  0  0  0  0
    7.7427  -13.3149   25.3244 C   0  0  0  0  0  0  0  0  0  0  0  0
    7.7560  -11.9252   25.3075 C   0  0  0  0  0  0  0  0  0  0  0  0
    6.8485  -11.1968   26.0450 C   0  0  0  0  0  0  0  0  0  0  0  0
    5.9302  -11.8933   26.7980 C   0  0  0  0  0  0  0  0  0  0  0  0
    5.9164  -13.2930   26.8155 C   0  0  0  0  0  0  0  0  0  0  0  0
    8.4094  -17.2197   25.3016 C   0  0  0  0  0  0  0  0  0  0  0  0
    7.9536  -18.3479   25.6187 O   0  0  0  0  0  0  0  0  0  0  0  0
    9.8190  -17.0545   25.3407 N   0  0  0  0  0  0  0  0  0  0  0  0
   10.6660  -18.2300   25.6540 C   0  0  1  0  0  0  0  0  0  0  0  0
   12.0323  -17.8824   25.1056 C   0  0  0  0  0  0  0  0  0  0  0  0
   13.0635  -18.8813   25.3376 C   0  0  0  0  0  0  0  0  0  0  0  0
   13.1475  -19.4715   26.4349 O   0  0  0  0  0  0  0  0  0  0  0  0
   10.7739  -18.3951   27.1175 C   0  0  0  0  0  0  0  0  0  0  0  0
   11.1390  -19.4843   27.6043 O   0  0  0  0  0  0  0  0  0  0  0  0
   13.9684  -19.1920   24.3425 O   0  0  0  0  0  0  0  0  0  0  0  0
   10.4714  -17.3426   27.9477 O   0  0  0  0  0  0  0  0  0  0  0  0
  2  1  1  0
  3  2  1  0
  3  5  1  0
  4  3  2  0
  6  5  1  0
  6 14  1  0
  6  7  1  1
  8  7  1  0
  8 13  2  0
  9  8  1  0
 10  9  2  0
 10 11  1  0
 11 12  2  0
 12 13  1  0
 14 16  1  0
 15 14  2  0
 16 17  1  0
 17 18  1  1
 17 21  1  0
 19 18  1  0
 20 19  2  0
 21 24  1  0
 22 21  2  0
 23 19  1  0
M  END
$$$$
