GFD.pdb
     RDKit          3D

 24 24  0  0  1  0  0  0  0  0999 V2000
    9.9475  -16.8333   18.9859 N   0  0  0  0  0  0  0  0  0  0  0  0
    8.7076  -16.5916   19.6954 C   0  0  0  0  0  0  0  0  0  0  0  0
    8.9666  -15.9246   21.0024 C   0  0  0  0  0  0  0  0  0  0  0  0
   10.1174  -15.7688   21.4665 O   0  0  0  0  0  0  0  0  0  0  0  0
    7.8614  -15.4535   21.7379 N   0  0  0  0  0  0  0  0  0  0  0  0
    7.9853  -14.8391   23.0295 C   0  0  1  0  0  0  0  0  0  0  0  0
    6.8108  -14.0202   23.4200 C   0  0  0  0  0  0  0  0  0  0  0  0
    6.9820  -13.3725   24.7569 C   0  0  0  0  0  0  0  0  0  0  0  0
    7.7336  -12.2236   24.8618 C   0  0  0  0  0  0  0  0  0  0  0  0
    7.9190  -11.5861   26.0830 C   0  0  0  0  0  0  0  0  0  0  0  0
    7.3545  -12.0833   27.2371 C   0  0  0  0  0  0  0  0  0  0  0  0
    6.6021  -13.2320   27.1379 C   0  0  0  0  0  0  0  0  0  0  0  0
    6.4151  -13.8745   25.9084 C   0  0  0  0  0  0  0  0  0  0  0  0
    8.3273  -15.7912   24.1135 C   0  0  0  0  0  0  0  0  0  0  0  0
    7.6593  -16.8139   24.4122 O   0  0  0  0  0  0  0  0  0  0  0  0
    9.4978  -15.5348   24.8750 N   0  0  0  0  0  0  0  0  0  0  0  0
   10.0041  -16.5925   25.7817 C   0  0  1  0  0  0  0  0  0  0  0  0
   11.4767  -16.7115   25.4568 C   0  0  0  0  0  0  0  0  0  0  0  0
   11.8299  -17.8231   24.5881 C   0  0  0  0  0  0  0  0  0  0  0  0
   10.9564  -18.6124   24.1715 O   0  0  0  0  0  0  0  0  0  0  0  0
    9.8653  -16.1582   27.1863 C   0  0  0  0  0  0  0  0  0  0  0  0
    9.5803  -14.9738   27.4553 O   0  0  0  0  0  0  0  0  0  0  0  0
   13.1426  -18.0217   24.2104 O   0  0  0  0  0  0  0  0  0  0  0  0
   10.0503  -17.0644   28.2028 O   0  0  0  0  0  0  0  0  0  0  0  0
  2  1  1  0
  3  2  1  0
  3  5  1  0
  4  3  2  0
  6  5  1  0
  6 14  1  0
  6  7  1  1
  8  7  1  0
  8 13  2  0
  9  8  1  0
 10  9  2  0
 10 11  1  0
 11 12  2  0
 12 13  1  0
 14 16  1  0
 15 14  2  0
 16 17  1  0
 17 18  1  6
 17 21  1  0
 19 18  1  0
 20 19  2  0
 21 24  1  0
 22 21  2  0
 23 19  1  0
M  END
$$$$
