GFD.pdb
     RDKit          3D

 24 24  0  0  1  0  0  0  0  0999 V2000
    8.8442  -15.5074   19.7230 N   0  0  0  0  0  0  0  0  0  0  0  0
    7.8551  -15.9047   20.7043 C   0  0  0  0  0  0  0  0  0  0  0  0
    8.3797  -15.7257   22.0874 C   0  0  0  0  0  0  0  0  0  0  0  0
    9.5578  -15.3802   22.3250 O   0  0  0  0  0  0  0  0  0  0  0  0
    7.5030  -15.9582   23.1652 N   0  0  0  0  0  0  0  0  0  0  0  0
    7.9164  -15.8927   24.5385 C   0  0  1  0  0  0  0  0  0  0  0  0
    6.8278  -15.5209   25.4762 C   0  0  0  0  0  0  0  0  0  0  0  0
    6.8779  -14.0794   25.8708 C   0  0  0  0  0  0  0  0  0  0  0  0
    5.9914  -13.1907   25.3049 C   0  0  0  0  0  0  0  0  0  0  0  0
    5.9999  -11.8424   25.6421 C   0  0  0  0  0  0  0  0  0  0  0  0
    6.8997  -11.3448   26.5591 C   0  0  0  0  0  0  0  0  0  0  0  0
    7.7885  -12.2291   27.1280 C   0  0  0  0  0  0  0  0  0  0  0  0
    7.7805  -13.5871   26.7887 C   0  0  0  0  0  0  0  0  0  0  0  0
    8.6042  -17.1170   25.0142 C   0  0  0  0  0  0  0  0  0  0  0  0
    8.1313  -18.2805   24.9509 O   0  0  0  0  0  0  0  0  0  0  0  0
    9.8962  -16.9714   25.5844 N   0  0  0  0  0  0  0  0  0  0  0  0
   10.6279  -18.1876   26.0118 C   0  0  1  0  0  0  0  0  0  0  0  0
   12.0538  -17.9630   25.5593 C   0  0  0  0  0  0  0  0  0  0  0  0
   12.9871  -19.0221   25.9093 C   0  0  0  0  0  0  0  0  0  0  0  0
   12.7277  -20.2156   25.6491 O   0  0  0  0  0  0  0  0  0  0  0  0
   10.6121  -18.2912   27.4849 C   0  0  0  0  0  0  0  0  0  0  0  0
   10.2150  -17.3346   28.1804 O   0  0  0  0  0  0  0  0  0  0  0  0
   14.1788  -18.7205   26.5373 O   0  0  0  0  0  0  0  0  0  0  0  0
   11.0364  -19.4484   28.0927 O   0  0  0  0  0  0  0  0  0  0  0  0
  2  1  1  0
  3  2  1  0
  3  5  1  0
  4  3  2  0
  6  5  1  0
  6 14  1  0
  6  7  1  1
  8  7  1  0
  8 13  2  0
  9  8  1  0
 10  9  2  0
 10 11  1  0
 11 12  2  0
 12 13  1  0
 14 16  1  0
 15 14  2  0
 16 17  1  0
 17 18  1  1
 17 21  1  0
 19 18  1  0
 20 19  2  0
 21 24  1  0
 22 21  2  0
 23 19  1  0
M  END
$$$$
