GFD.pdb
     RDKit          3D

 24 24  0  0  1  0  0  0  0  0999 V2000
    7.7996  -17.3965   19.9586 N   0  0  0  0  0  0  0  0  0  0  0  0
    7.2898  -17.5365   21.3075 C   0  0  0  0  0  0  0  0  0  0  0  0
    8.0946  -16.7263   22.2646 C   0  0  0  0  0  0  0  0  0  0  0  0
    9.1745  -16.1806   21.9484 O   0  0  0  0  0  0  0  0  0  0  0  0
    7.6094  -16.5753   23.5784 N   0  0  0  0  0  0  0  0  0  0  0  0
    8.3571  -15.9285   24.6194 C   0  0  1  0  0  0  0  0  0  0  0  0
    7.5194  -15.4243   25.7359 C   0  0  0  0  0  0  0  0  0  0  0  0
    8.3147  -14.6747   26.7566 C   0  0  0  0  0  0  0  0  0  0  0  0
    8.3153  -13.2980   26.7377 C   0  0  0  0  0  0  0  0  0  0  0  0
    9.0381  -12.5592   27.6671 C   0  0  0  0  0  0  0  0  0  0  0  0
    9.7830  -13.1812   28.6450 C   0  0  0  0  0  0  0  0  0  0  0  0
    9.7860  -14.5578   28.6684 C   0  0  0  0  0  0  0  0  0  0  0  0
    9.0583  -15.3024   27.7326 C   0  0  0  0  0  0  0  0  0  0  0  0
    9.4747  -16.7467   25.1486 C   0  0  0  0  0  0  0  0  0  0  0  0
    9.3836  -17.9506   25.4999 O   0  0  0  0  0  0  0  0  0  0  0  0
   10.7477  -16.1297   25.2688 N   0  0  0  0  0  0  0  0  0  0  0  0
   11.9482  -16.9905   25.3920 C   0  0  1  0  0  0  0  0  0  0  0  0
   13.0625  -16.1994   24.7434 C   0  0  0  0  0  0  0  0  0  0  0  0
   14.3531  -16.8687   24.7033 C   0  0  0  0  0  0  0  0  0  0  0  0
   14.4592  -18.0734   25.0146 O   0  0  0  0  0  0  0  0  0  0  0  0
   12.2794  -17.1889   26.8174 C   0  0  0  0  0  0  0  0  0  0  0  0
   11.9546  -16.3336   27.6656 O   0  0  0  0  0  0  0  0  0  0  0  0
   15.4842  -16.1775   24.3185 O   0  0  0  0  0  0  0  0  0  0  0  0
   12.9484  -18.3228   27.2117 O   0  0  0  0  0  0  0  0  0  0  0  0
  2  1  1  0
  3  2  1  0
  3  5  1  0
  4  3  2  0
  6  5  1  0
  6 14  1  0
  6  7  1  1
  8  7  1  0
  8 13  2  0
  9  8  1  0
 10  9  2  0
 10 11  1  0
 11 12  2  0
 12 13  1  0
 14 16  1  0
 15 14  2  0
 16 17  1  0
 17 18  1  6
 17 21  1  0
 19 18  1  0
 20 19  2  0
 21 24  1  0
 22 21  2  0
 23 19  1  0
M  END
$$$$
