GFD.pdb
     RDKit          3D

 24 24  0  0  1  0  0  0  0  0999 V2000
    9.2149  -16.9783   18.9888 N   0  0  0  0  0  0  0  0  0  0  0  0
    8.1549  -17.0352   19.9749 C   0  0  0  0  0  0  0  0  0  0  0  0
    8.5260  -16.2665   21.1962 C   0  0  0  0  0  0  0  0  0  0  0  0
    9.6919  -15.8739   21.4207 O   0  0  0  0  0  0  0  0  0  0  0  0
    7.5130  -15.9754   22.1308 N   0  0  0  0  0  0  0  0  0  0  0  0
    7.7603  -15.2793   23.3618 C   0  0  1  0  0  0  0  0  0  0  0  0
    6.5899  -14.5200   23.8679 C   0  0  0  0  0  0  0  0  0  0  0  0
    6.9192  -13.6910   25.0680 C   0  0  0  0  0  0  0  0  0  0  0  0
    6.5080  -14.1091   26.3138 C   0  0  0  0  0  0  0  0  0  0  0  0
    6.7922  -13.3722   27.4576 C   0  0  0  0  0  0  0  0  0  0  0  0
    7.4990  -12.1918   27.3851 C   0  0  0  0  0  0  0  0  0  0  0  0
    7.9125  -11.7691   26.1418 C   0  0  0  0  0  0  0  0  0  0  0  0
    7.6265  -12.5107   24.9895 C   0  0  0  0  0  0  0  0  0  0  0  0
    8.3127  -16.1410   24.4346 C   0  0  0  0  0  0  0  0  0  0  0  0
    7.7845  -17.2043   24.8490 O   0  0  0  0  0  0  0  0  0  0  0  0
    9.5314  -15.7412   25.0432 N   0  0  0  0  0  0  0  0  0  0  0  0
   10.2372  -16.7023   25.9238 C   0  0  1  0  0  0  0  0  0  0  0  0
   11.7018  -16.5404   25.5816 C   0  0  0  0  0  0  0  0  0  0  0  0
   12.0509  -16.8406   24.2021 C   0  0  0  0  0  0  0  0  0  0  0  0
   11.7857  -17.9540   23.7026 O   0  0  0  0  0  0  0  0  0  0  0  0
   10.0396  -16.3259   27.3380 C   0  0  0  0  0  0  0  0  0  0  0  0
    9.5639  -15.2111   27.6336 O   0  0  0  0  0  0  0  0  0  0  0  0
   12.6836  -15.8936   23.4221 O   0  0  0  0  0  0  0  0  0  0  0  0
   10.3808  -17.2092   28.3340 O   0  0  0  0  0  0  0  0  0  0  0  0
  2  1  1  0
  3  2  1  0
  3  5  1  0
  4  3  2  0
  6  5  1  0
  6 14  1  0
  6  7  1  1
  8  7  1  0
  8 13  2  0
  9  8  1  0
 10  9  2  0
 10 11  1  0
 11 12  2  0
 12 13  1  0
 14 16  1  0
 15 14  2  0
 16 17  1  0
 17 18  1  6
 17 21  1  0
 19 18  1  0
 20 19  2  0
 21 24  1  0
 22 21  2  0
 23 19  1  0
M  END
$$$$
