GFD.pdb
     RDKit          3D

 24 24  0  0  1  0  0  0  0  0999 V2000
    7.5767  -15.1013   19.4204 N   0  0  0  0  0  0  0  0  0  0  0  0
    6.8804  -15.6945   20.5439 C   0  0  0  0  0  0  0  0  0  0  0  0
    7.6033  -15.4231   21.8183 C   0  0  0  0  0  0  0  0  0  0  0  0
    8.7875  -15.0225   21.8526 O   0  0  0  0  0  0  0  0  0  0  0  0
    6.9144  -15.6299   23.0295 N   0  0  0  0  0  0  0  0  0  0  0  0
    7.5338  -15.4859   24.3166 C   0  0  1  0  0  0  0  0  0  0  0  0
    6.5838  -15.1487   25.4058 C   0  0  0  0  0  0  0  0  0  0  0  0
    6.8093  -13.7783   25.9599 C   0  0  0  0  0  0  0  0  0  0  0  0
    7.9879  -13.4974   26.6140 C   0  0  0  0  0  0  0  0  0  0  0  0
    8.2420  -12.2379   27.1440 C   0  0  0  0  0  0  0  0  0  0  0  0
    7.3195  -11.2208   27.0329 C   0  0  0  0  0  0  0  0  0  0  0  0
    6.1391  -11.4962   26.3799 C   0  0  0  0  0  0  0  0  0  0  0  0
    5.8826  -12.7646   25.8460 C   0  0  0  0  0  0  0  0  0  0  0  0
    8.3707  -16.6450   24.7096 C   0  0  0  0  0  0  0  0  0  0  0  0
    7.9782  -17.8392   24.7440 O   0  0  0  0  0  0  0  0  0  0  0  0
    9.7196  -16.3942   25.0746 N   0  0  0  0  0  0  0  0  0  0  0  0
   10.5960  -17.5448   25.3991 C   0  0  1  0  0  0  0  0  0  0  0  0
   11.9604  -17.1547   24.8752 C   0  0  0  0  0  0  0  0  0  0  0  0
   13.0087  -18.1402   25.0874 C   0  0  0  0  0  0  0  0  0  0  0  0
   12.7403  -19.3587   25.1402 O   0  0  0  0  0  0  0  0  0  0  0  0
   10.6839  -17.7113   26.8639 C   0  0  0  0  0  0  0  0  0  0  0  0
   11.2732  -18.6964   27.3525 O   0  0  0  0  0  0  0  0  0  0  0  0
   14.3215  -17.7397   25.2340 O   0  0  0  0  0  0  0  0  0  0  0  0
   10.1141  -16.7752   27.6931 O   0  0  0  0  0  0  0  0  0  0  0  0
  2  1  1  0
  3  2  1  0
  3  5  1  0
  4  3  2  0
  6  5  1  0
  6 14  1  0
  6  7  1  1
  8  7  1  0
  8 13  2  0
  9  8  1  0
 10  9  2  0
 10 11  1  0
 11 12  2  0
 12 13  1  0
 14 16  1  0
 15 14  2  0
 16 17  1  0
 17 18  1  1
 17 21  1  0
 19 18  1  0
 20 19  2  0
 21 24  1  0
 22 21  2  0
 23 19  1  0
M  END
$$$$
