GFD.pdb
     RDKit          3D

 24 24  0  0  1  0  0  0  0  0999 V2000
    8.8661  -16.7665   18.7580 N   0  0  0  0  0  0  0  0  0  0  0  0
    8.0050  -17.0521   19.8876 C   0  0  0  0  0  0  0  0  0  0  0  0
    8.4071  -16.2488   21.0764 C   0  0  0  0  0  0  0  0  0  0  0  0
    9.5650  -15.8027   21.2317 O   0  0  0  0  0  0  0  0  0  0  0  0
    7.4340  -15.9871   22.0608 N   0  0  0  0  0  0  0  0  0  0  0  0
    7.7192  -15.2718   23.2724 C   0  0  1  0  0  0  0  0  0  0  0  0
    6.5446  -14.5680   23.8449 C   0  0  0  0  0  0  0  0  0  0  0  0
    6.8970  -13.7430   25.0412 C   0  0  0  0  0  0  0  0  0  0  0  0
    6.5317  -14.1778   26.2955 C   0  0  0  0  0  0  0  0  0  0  0  0
    6.8388  -13.4452   27.4361 C   0  0  0  0  0  0  0  0  0  0  0  0
    7.5233  -12.2525   27.3518 C   0  0  0  0  0  0  0  0  0  0  0  0
    7.8909  -11.8131   26.0999 C   0  0  0  0  0  0  0  0  0  0  0  0
    7.5818  -12.5504   24.9508 C   0  0  0  0  0  0  0  0  0  0  0  0
    8.3765  -16.0982   24.3133 C   0  0  0  0  0  0  0  0  0  0  0  0
    7.8953  -17.1482   24.8106 O   0  0  0  0  0  0  0  0  0  0  0  0
    9.6470  -15.6781   24.7876 N   0  0  0  0  0  0  0  0  0  0  0  0
   10.4114  -16.5849   25.6767 C   0  0  1  0  0  0  0  0  0  0  0  0
   11.8629  -16.2342   25.4352 C   0  0  0  0  0  0  0  0  0  0  0  0
   12.3654  -16.5610   24.1101 C   0  0  0  0  0  0  0  0  0  0  0  0
   11.8109  -17.4365   23.4134 O   0  0  0  0  0  0  0  0  0  0  0  0
   10.0857  -16.2965   27.0879 C   0  0  0  0  0  0  0  0  0  0  0  0
   10.3226  -17.1407   27.9754 O   0  0  0  0  0  0  0  0  0  0  0  0
   13.4681  -15.9042   23.6021 O   0  0  0  0  0  0  0  0  0  0  0  0
    9.5193  -15.0907   27.4254 O   0  0  0  0  0  0  0  0  0  0  0  0
  2  1  1  0
  3  2  1  0
  3  5  1  0
  4  3  2  0
  6  5  1  0
  6 14  1  0
  6  7  1  1
  8  7  1  0
  8 13  2  0
  9  8  1  0
 10  9  2  0
 10 11  1  0
 11 12  2  0
 12 13  1  0
 14 16  1  0
 15 14  2  0
 16 17  1  0
 17 18  1  1
 17 21  1  0
 19 18  1  0
 20 19  2  0
 21 24  1  0
 22 21  2  0
 23 19  1  0
M  END
$$$$
