GFD.pdb
     RDKit          3D

 24 24  0  0  1  0  0  0  0  0999 V2000
    9.2961  -17.7736   20.1005 N   0  0  0  0  0  0  0  0  0  0  0  0
    8.5768  -18.0281   21.3321 C   0  0  0  0  0  0  0  0  0  0  0  0
    8.8371  -16.9520   22.3294 C   0  0  0  0  0  0  0  0  0  0  0  0
    9.8395  -16.2063   22.2745 O   0  0  0  0  0  0  0  0  0  0  0  0
    7.9085  -16.7762   23.3740 N   0  0  0  0  0  0  0  0  0  0  0  0
    8.0978  -15.8320   24.4387 C   0  0  1  0  0  0  0  0  0  0  0  0
    6.8329  -15.2727   24.9772 C   0  0  0  0  0  0  0  0  0  0  0  0
    7.0622  -14.1105   25.8898 C   0  0  0  0  0  0  0  0  0  0  0  0
    7.1001  -12.8367   25.3683 C   0  0  0  0  0  0  0  0  0  0  0  0
    7.3089  -11.7264   26.1779 C   0  0  0  0  0  0  0  0  0  0  0  0
    7.4860  -11.8615   27.5375 C   0  0  0  0  0  0  0  0  0  0  0  0
    7.4492  -13.1331   28.0642 C   0  0  0  0  0  0  0  0  0  0  0  0
    7.2389  -14.2517   27.2492 C   0  0  0  0  0  0  0  0  0  0  0  0
    8.9429  -16.3412   25.5454 C   0  0  0  0  0  0  0  0  0  0  0  0
    8.7106  -17.3837   26.2091 O   0  0  0  0  0  0  0  0  0  0  0  0
   10.1054  -15.6005   25.8855 N   0  0  0  0  0  0  0  0  0  0  0  0
   11.0663  -16.1855   26.8508 C   0  0  1  0  0  0  0  0  0  0  0  0
   12.3992  -15.5628   26.4988 C   0  0  0  0  0  0  0  0  0  0  0  0
   12.9277  -15.9302   25.1947 C   0  0  0  0  0  0  0  0  0  0  0  0
   12.6799  -17.0477   24.6954 O   0  0  0  0  0  0  0  0  0  0  0  0
   10.7060  -15.7818   28.2249 C   0  0  0  0  0  0  0  0  0  0  0  0
    9.9371  -14.8186   28.4183 O   0  0  0  0  0  0  0  0  0  0  0  0
   13.7147  -15.0437   24.4874 O   0  0  0  0  0  0  0  0  0  0  0  0
   11.2201  -16.4719   29.2964 O   0  0  0  0  0  0  0  0  0  0  0  0
  2  1  1  0
  3  2  1  0
  3  5  1  0
  4  3  2  0
  6  5  1  0
  6 14  1  0
  6  7  1  1
  8  7  1  0
  8 13  2  0
  9  8  1  0
 10  9  2  0
 10 11  1  0
 11 12  2  0
 12 13  1  0
 14 16  1  0
 15 14  2  0
 16 17  1  0
 17 18  1  6
 17 21  1  0
 19 18  1  0
 20 19  2  0
 21 24  1  0
 22 21  2  0
 23 19  1  0
M  END
$$$$
