GFD.pdb
     RDKit          3D

 24 24  0  0  1  0  0  0  0  0999 V2000
    6.6092  -18.1574   19.6541 N   0  0  0  0  0  0  0  0  0  0  0  0
    6.1115  -18.1461   21.0147 C   0  0  0  0  0  0  0  0  0  0  0  0
    6.8654  -17.1662   21.8463 C   0  0  0  0  0  0  0  0  0  0  0  0
    7.9459  -16.6556   21.4779 O   0  0  0  0  0  0  0  0  0  0  0  0
    6.3295  -16.8070   23.0986 N   0  0  0  0  0  0  0  0  0  0  0  0
    7.0065  -15.9384   24.0196 C   0  0  1  0  0  0  0  0  0  0  0  0
    6.1136  -15.3272   25.0354 C   0  0  0  0  0  0  0  0  0  0  0  0
    6.7767  -14.2193   25.7898 C   0  0  0  0  0  0  0  0  0  0  0  0
    6.5911  -12.9170   25.3833 C   0  0  0  0  0  0  0  0  0  0  0  0
    7.1860  -11.8550   26.0544 C   0  0  0  0  0  0  0  0  0  0  0  0
    7.9861  -12.0687   27.1553 C   0  0  0  0  0  0  0  0  0  0  0  0
    8.1752  -13.3692   27.5660 C   0  0  0  0  0  0  0  0  0  0  0  0
    7.5764  -14.4392   26.8905 C   0  0  0  0  0  0  0  0  0  0  0  0
    8.1778  -16.5638   24.6793 C   0  0  0  0  0  0  0  0  0  0  0  0
    8.1670  -17.6773   25.2635 O   0  0  0  0  0  0  0  0  0  0  0  0
    9.4088  -15.8571   24.6514 N   0  0  0  0  0  0  0  0  0  0  0  0
   10.6688  -16.6120   24.8510 C   0  0  1  0  0  0  0  0  0  0  0  0
   11.7177  -15.8249   24.0969 C   0  0  0  0  0  0  0  0  0  0  0  0
   13.0523  -16.4026   24.1109 C   0  0  0  0  0  0  0  0  0  0  0  0
   13.2813  -17.4700   24.7174 O   0  0  0  0  0  0  0  0  0  0  0  0
   11.0267  -16.6214   26.2838 C   0  0  0  0  0  0  0  0  0  0  0  0
   12.0428  -17.2296   26.6762 O   0  0  0  0  0  0  0  0  0  0  0  0
   14.0895  -15.7754   23.4505 O   0  0  0  0  0  0  0  0  0  0  0  0
   10.2363  -15.9554   27.1895 O   0  0  0  0  0  0  0  0  0  0  0  0
  2  1  1  0
  3  2  1  0
  3  5  1  0
  4  3  2  0
  6  5  1  0
  6 14  1  0
  6  7  1  1
  8  7  1  0
  8 13  2  0
  9  8  1  0
 10  9  2  0
 10 11  1  0
 11 12  2  0
 12 13  1  0
 14 16  1  0
 15 14  2  0
 16 17  1  0
 17 18  1  6
 17 21  1  0
 19 18  1  0
 20 19  2  0
 21 24  1  0
 22 21  2  0
 23 19  1  0
M  END
$$$$
