GFD.pdb
     RDKit          3D

 24 24  0  0  1  0  0  0  0  0999 V2000
    7.8222  -16.4950   19.1669 N   0  0  0  0  0  0  0  0  0  0  0  0
    7.0351  -16.5630   20.3814 C   0  0  0  0  0  0  0  0  0  0  0  0
    7.7318  -15.8729   21.5033 C   0  0  0  0  0  0  0  0  0  0  0  0
    8.9342  -15.5337   21.4470 O   0  0  0  0  0  0  0  0  0  0  0  0
    6.9956  -15.5960   22.6719 N   0  0  0  0  0  0  0  0  0  0  0  0
    7.5970  -15.0955   23.8756 C   0  0  1  0  0  0  0  0  0  0  0  0
    6.6260  -14.5121   24.8344 C   0  0  0  0  0  0  0  0  0  0  0  0
    7.2922  -13.9031   26.0266 C   0  0  0  0  0  0  0  0  0  0  0  0
    7.4659  -12.5384   26.0822 C   0  0  0  0  0  0  0  0  0  0  0  0
    8.0782  -11.9280   27.1705 C   0  0  0  0  0  0  0  0  0  0  0  0
    8.5351  -12.6703   28.2374 C   0  0  0  0  0  0  0  0  0  0  0  0
    8.3640  -14.0355   28.1869 C   0  0  0  0  0  0  0  0  0  0  0  0
    7.7475  -14.6508   27.0911 C   0  0  0  0  0  0  0  0  0  0  0  0
    8.4651  -16.0810   24.5639 C   0  0  0  0  0  0  0  0  0  0  0  0
    8.1413  -17.2672   24.8271 O   0  0  0  0  0  0  0  0  0  0  0  0
    9.7625  -15.6595   24.9571 N   0  0  0  0  0  0  0  0  0  0  0  0
   10.7701  -16.6883   25.3086 C   0  0  1  0  0  0  0  0  0  0  0  0
   12.0489  -16.2220   24.6487 C   0  0  0  0  0  0  0  0  0  0  0  0
   13.1919  -17.1041   24.8238 C   0  0  0  0  0  0  0  0  0  0  0  0
   13.0755  -18.1897   25.4300 O   0  0  0  0  0  0  0  0  0  0  0  0
   10.9757  -16.7107   26.7708 C   0  0  0  0  0  0  0  0  0  0  0  0
   10.7888  -15.6811   27.4500 O   0  0  0  0  0  0  0  0  0  0  0  0
   14.4275  -16.7512   24.3195 O   0  0  0  0  0  0  0  0  0  0  0  0
   11.3743  -17.8728   27.3867 O   0  0  0  0  0  0  0  0  0  0  0  0
  2  1  1  0
  3  2  1  0
  3  5  1  0
  4  3  2  0
  6  5  1  0
  6 14  1  0
  6  7  1  1
  8  7  1  0
  8 13  2  0
  9  8  1  0
 10  9  2  0
 10 11  1  0
 11 12  2  0
 12 13  1  0
 14 16  1  0
 15 14  2  0
 16 17  1  0
 17 18  1  6
 17 21  1  0
 19 18  1  0
 20 19  2  0
 21 24  1  0
 22 21  2  0
 23 19  1  0
M  END
$$$$
