GFD.pdb
     RDKit          3D

 24 24  0  0  1  0  0  0  0  0999 V2000
    9.4389  -16.4437   18.6231 N   0  0  0  0  0  0  0  0  0  0  0  0
    8.3643  -16.6189   19.5789 C   0  0  0  0  0  0  0  0  0  0  0  0
    8.6861  -15.9431   20.8673 C   0  0  0  0  0  0  0  0  0  0  0  0
    9.8587  -15.7196   21.2401 O   0  0  0  0  0  0  0  0  0  0  0  0
    7.6167  -15.5434   21.6926 N   0  0  0  0  0  0  0  0  0  0  0  0
    7.8055  -14.9616   22.9914 C   0  0  1  0  0  0  0  0  0  0  0  0
    6.6165  -14.2353   23.5027 C   0  0  0  0  0  0  0  0  0  0  0  0
    6.8969  -13.4984   24.7732 C   0  0  0  0  0  0  0  0  0  0  0  0
    7.4526  -12.2398   24.7180 C   0  0  0  0  0  0  0  0  0  0  0  0
    7.7293  -11.5169   25.8724 C   0  0  0  0  0  0  0  0  0  0  0  0
    7.4558  -12.0361   27.1189 C   0  0  0  0  0  0  0  0  0  0  0  0
    6.9001  -13.2944   27.1798 C   0  0  0  0  0  0  0  0  0  0  0  0
    6.6214  -14.0230   26.0175 C   0  0  0  0  0  0  0  0  0  0  0  0
    8.2947  -15.9214   24.0102 C   0  0  0  0  0  0  0  0  0  0  0  0
    7.7088  -16.9841   24.3399 O   0  0  0  0  0  0  0  0  0  0  0  0
    9.5182  -15.6241   24.6662 N   0  0  0  0  0  0  0  0  0  0  0  0
   10.1690  -16.6824   25.4747 C   0  0  1  0  0  0  0  0  0  0  0  0
   11.6531  -16.4387   25.3127 C   0  0  0  0  0  0  0  0  0  0  0  0
   12.1770  -16.6819   23.9780 C   0  0  0  0  0  0  0  0  0  0  0  0
   11.7887  -17.6607   23.3065 O   0  0  0  0  0  0  0  0  0  0  0  0
    9.8168  -16.5139   26.8990 C   0  0  0  0  0  0  0  0  0  0  0  0
   10.0637  -17.4191   27.7213 O   0  0  0  0  0  0  0  0  0  0  0  0
   13.1158  -15.8296   23.4324 O   0  0  0  0  0  0  0  0  0  0  0  0
    9.2147  -15.3528   27.3209 O   0  0  0  0  0  0  0  0  0  0  0  0
  2  1  1  0
  3  2  1  0
  3  5  1  0
  4  3  2  0
  6  5  1  0
  6 14  1  0
  6  7  1  1
  8  7  1  0
  8 13  2  0
  9  8  1  0
 10  9  2  0
 10 11  1  0
 11 12  2  0
 12 13  1  0
 14 16  1  0
 15 14  2  0
 16 17  1  0
 17 18  1  1
 17 21  1  0
 19 18  1  0
 20 19  2  0
 21 24  1  0
 22 21  2  0
 23 19  1  0
M  END
$$$$
