KAF.pdb
     RDKit          3D

 26 26  0  0  1  0  0  0  0  0999 V2000
    7.5207  -18.6643   19.2039 N   0  0  0  0  0  0  0  0  0  0  0  0
    7.1373  -17.9228   20.4136 C   0  0  1  0  0  0  0  0  0  0  0  0
    7.2825  -18.8948   21.5587 C   0  0  0  0  0  0  0  0  0  0  0  0
    6.3359  -20.0269   21.3909 C   0  0  0  0  0  0  0  0  0  0  0  0
    5.4969  -20.2624   22.6461 C   0  0  0  0  0  0  0  0  0  0  0  0
    4.6476  -21.4873   22.3619 C   0  0  0  0  0  0  0  0  0  0  0  0
    3.8634  -21.7800   23.5267 N   0  0  0  0  0  0  0  0  0  0  0  0
    8.0653  -16.7924   20.6341 C   0  0  0  0  0  0  0  0  0  0  0  0
    9.3061  -16.9183   20.5363 O   0  0  0  0  0  0  0  0  0  0  0  0
    7.7431  -13.0472   21.1547 C   0  0  0  0  0  0  0  0  0  0  0  0
    8.4736  -14.3799   21.2756 C   0  0  2  0  0  0  0  0  0  0  0  0
    7.5686  -15.4779   20.9762 N   0  0  0  0  0  0  0  0  0  0  0  0
    8.9673  -14.5470   22.6626 C   0  0  0  0  0  0  0  0  0  0  0  0
    9.9386  -13.8771   23.1066 O   0  0  0  0  0  0  0  0  0  0  0  0
    8.3722  -15.4711   23.5653 N   0  0  0  0  0  0  0  0  0  0  0  0
    8.7871  -15.4905   24.9772 C   0  0  1  0  0  0  0  0  0  0  0  0
    7.4971  -15.4455   25.7700 C   0  0  0  0  0  0  0  0  0  0  0  0
    6.9736  -14.0945   25.9866 C   0  0  0  0  0  0  0  0  0  0  0  0
    5.6337  -13.8264   25.8379 C   0  0  0  0  0  0  0  0  0  0  0  0
    5.1205  -12.5521   26.0420 C   0  0  0  0  0  0  0  0  0  0  0  0
    5.9866  -11.5338   26.4035 C   0  0  0  0  0  0  0  0  0  0  0  0
    7.3233  -11.8176   26.5482 C   0  0  0  0  0  0  0  0  0  0  0  0
    7.8331  -13.0846   26.3453 C   0  0  0  0  0  0  0  0  0  0  0  0
    9.5757  -16.7126   25.2065 C   0  0  0  0  0  0  0  0  0  0  0  0
   10.0525  -16.9090   26.3535 O   0  0  0  0  0  0  0  0  0  0  0  0
    9.8297  -17.6694   24.2340 O   0  0  0  0  0  0  0  0  0  0  0  0
  2  3  1  0
  2  1  1  6
  4  3  1  0
  5  4  1  0
  6  5  1  0
  7  6  1  0
  8  9  2  0
  8  2  1  0
 11 10  1  1
 11 12  1  0
 12  8  1  0
 13 14  2  0
 13 11  1  0
 15 13  1  0
 16 17  1  1
 16 15  1  0
 18 17  1  0
 18 23  2  0
 19 18  1  0
 20 19  2  0
 20 21  1  0
 21 22  2  0
 22 23  1  0
 24 16  1  0
 25 24  2  0
 26 24  1  0
M  END
$$$$
