KAF.pdb
     RDKit          3D

 26 26  0  0  1  0  0  0  0  0999 V2000
    6.4235  -17.1669   20.5552 N   0  0  0  0  0  0  0  0  0  0  0  0
    7.5997  -16.5963   21.2268 C   0  0  1  0  0  0  0  0  0  0  0  0
    7.5509  -15.1123   20.9580 C   0  0  0  0  0  0  0  0  0  0  0  0
    8.0927  -14.8200   19.6064 C   0  0  0  0  0  0  0  0  0  0  0  0
    8.1660  -13.3187   19.3315 C   0  0  0  0  0  0  0  0  0  0  0  0
    8.5789  -13.1757   17.8784 C   0  0  0  0  0  0  0  0  0  0  0  0
    8.5064  -11.7895   17.5169 N   0  0  0  0  0  0  0  0  0  0  0  0
    7.5087  -16.8143   22.6868 C   0  0  0  0  0  0  0  0  0  0  0  0
    6.4186  -16.7834   23.2999 O   0  0  0  0  0  0  0  0  0  0  0  0
    9.0998  -18.8170   25.1404 C   0  0  0  0  0  0  0  0  0  0  0  0
    8.6050  -17.3968   24.8908 C   0  0  2  0  0  0  0  0  0  0  0  0
    8.6926  -17.0757   23.4754 N   0  0  0  0  0  0  0  0  0  0  0  0
    9.4536  -16.4406   25.6397 C   0  0  0  0  0  0  0  0  0  0  0  0
   10.5452  -16.0159   25.1735 O   0  0  0  0  0  0  0  0  0  0  0  0
    9.0819  -15.9520   26.9227 N   0  0  0  0  0  0  0  0  0  0  0  0
    9.9487  -14.9900   27.6224 C   0  0  1  0  0  0  0  0  0  0  0  0
    9.0012  -14.0046   28.2748 C   0  0  0  0  0  0  0  0  0  0  0  0
    8.1027  -13.3265   27.3372 C   0  0  0  0  0  0  0  0  0  0  0  0
    8.5536  -12.2911   26.5538 C   0  0  0  0  0  0  0  0  0  0  0  0
    7.7160  -11.6393   25.6580 C   0  0  0  0  0  0  0  0  0  0  0  0
    6.3970  -12.0490   25.5586 C   0  0  0  0  0  0  0  0  0  0  0  0
    5.9612  -13.0855   26.3484 C   0  0  0  0  0  0  0  0  0  0  0  0
    6.7942  -13.7333   27.2387 C   0  0  0  0  0  0  0  0  0  0  0  0
   10.7766  -15.7352   28.5853 C   0  0  0  0  0  0  0  0  0  0  0  0
   11.5916  -15.0920   29.2950 O   0  0  0  0  0  0  0  0  0  0  0  0
   10.7172  -17.1101   28.7633 O   0  0  0  0  0  0  0  0  0  0  0  0
  2  3  1  0
  2  1  1  6
  4  3  1  0
  5  4  1  0
  6  5  1  0
  7  6  1  0
  8  9  2  0
  8  2  1  0
 11 10  1  6
 11 12  1  0
 12  8  1  0
 13 14  2  0
 13 11  1  0
 15 13  1  0
 16 17  1  1
 16 15  1  0
 18 17  1  0
 18 23  2  0
 19 18  1  0
 20 19  2  0
 20 21  1  0
 21 22  2  0
 22 23  1  0
 24 16  1  0
 25 24  2  0
 26 24  1  0
M  END
$$$$
