KAF.pdb
     RDKit          3D

 26 26  0  0  1  0  0  0  0  0999 V2000
    6.9023  -16.6857   20.2006 N   0  0  0  0  0  0  0  0  0  0  0  0
    7.2361  -15.8303   21.3482 C   0  0  1  0  0  0  0  0  0  0  0  0
    6.4413  -14.5609   21.1638 C   0  0  0  0  0  0  0  0  0  0  0  0
    6.8647  -13.8696   19.9193 C   0  0  0  0  0  0  0  0  0  0  0  0
    8.2403  -13.2204   20.0648 C   0  0  0  0  0  0  0  0  0  0  0  0
    8.4627  -12.4152   18.7981 C   0  0  0  0  0  0  0  0  0  0  0  0
    9.6706  -11.6557   18.9454 N   0  0  0  0  0  0  0  0  0  0  0  0
    6.8068  -16.4766   22.6074 C   0  0  0  0  0  0  0  0  0  0  0  0
    5.7815  -17.1901   22.6760 O   0  0  0  0  0  0  0  0  0  0  0  0
    7.7328  -18.6298   24.5677 C   0  0  0  0  0  0  0  0  0  0  0  0
    7.3856  -17.1986   24.9617 C   0  0  2  0  0  0  0  0  0  0  0  0
    7.5657  -16.3074   23.8270 N   0  0  0  0  0  0  0  0  0  0  0  0
    8.2866  -16.7550   26.0511 C   0  0  0  0  0  0  0  0  0  0  0  0
    8.3127  -17.3370   27.1691 O   0  0  0  0  0  0  0  0  0  0  0  0
    9.1686  -15.6504   25.8931 N   0  0  0  0  0  0  0  0  0  0  0  0
    9.8859  -15.1100   27.0592 C   0  0  1  0  0  0  0  0  0  0  0  0
    8.8273  -14.4098   27.8860 C   0  0  0  0  0  0  0  0  0  0  0  0
    8.0080  -13.4592   27.1300 C   0  0  0  0  0  0  0  0  0  0  0  0
    8.5899  -12.5449   26.2847 C   0  0  0  0  0  0  0  0  0  0  0  0
    7.8280  -11.6386   25.5587 C   0  0  0  0  0  0  0  0  0  0  0  0
    6.4503  -11.6641   25.6962 C   0  0  0  0  0  0  0  0  0  0  0  0
    5.8835  -12.5840   26.5451 C   0  0  0  0  0  0  0  0  0  0  0  0
    6.6413  -13.4848   27.2666 C   0  0  0  0  0  0  0  0  0  0  0  0
   10.5324  -16.2319   27.7600 C   0  0  0  0  0  0  0  0  0  0  0  0
   11.2032  -15.9827   28.7942 O   0  0  0  0  0  0  0  0  0  0  0  0
   10.4504  -17.5559   27.3524 O   0  0  0  0  0  0  0  0  0  0  0  0
  2  3  1  0
  2  1  1  6
  4  3  1  0
  5  4  1  0
  6  5  1  0
  7  6  1  0
  8  9  2  0
  8  2  1  0
 11 10  1  6
 11 12  1  0
 12  8  1  0
 13 14  2  0
 13 11  1  0
 15 13  1  0
 16 17  1  1
 16 15  1  0
 18 17  1  0
 18 23  2  0
 19 18  1  0
 20 19  2  0
 20 21  1  0
 21 22  2  0
 22 23  1  0
 24 16  1  0
 25 24  2  0
 26 24  1  0
M  END
$$$$
