KAF.pdb
     RDKit          3D

 26 26  0  0  1  0  0  0  0  0999 V2000
    9.7512  -17.4292   20.1259 N   0  0  0  0  0  0  0  0  0  0  0  0
   10.0061  -16.4368   21.1796 C   0  0  1  0  0  0  0  0  0  0  0  0
    8.7026  -15.7044   21.3831 C   0  0  0  0  0  0  0  0  0  0  0  0
    8.4226  -14.8270   20.2179 C   0  0  0  0  0  0  0  0  0  0  0  0
    7.2164  -13.9209   20.4605 C   0  0  0  0  0  0  0  0  0  0  0  0
    7.0606  -13.0814   19.2062 C   0  0  0  0  0  0  0  0  0  0  0  0
    5.9113  -12.2372   19.3610 N   0  0  0  0  0  0  0  0  0  0  0  0
   10.3674  -17.1162   22.4428 C   0  0  0  0  0  0  0  0  0  0  0  0
    9.8961  -18.2307   22.7600 O   0  0  0  0  0  0  0  0  0  0  0  0
   12.9494  -16.5010   25.1711 C   0  0  0  0  0  0  0  0  0  0  0  0
   11.7594  -17.2255   24.5521 C   0  0  2  0  0  0  0  0  0  0  0  0
   11.2929  -16.5108   23.3749 N   0  0  0  0  0  0  0  0  0  0  0  0
   10.6511  -17.2810   25.5340 C   0  0  0  0  0  0  0  0  0  0  0  0
   10.7361  -17.9596   26.5930 O   0  0  0  0  0  0  0  0  0  0  0  0
    9.4343  -16.5722   25.3338 N   0  0  0  0  0  0  0  0  0  0  0  0
    8.3072  -16.7709   26.2591 C   0  0  1  0  0  0  0  0  0  0  0  0
    8.2536  -15.5087   27.0949 C   0  0  0  0  0  0  0  0  0  0  0  0
    7.7375  -14.3384   26.3807 C   0  0  0  0  0  0  0  0  0  0  0  0
    6.3890  -14.0755   26.3415 C   0  0  0  0  0  0  0  0  0  0  0  0
    5.8833  -12.9692   25.6713 C   0  0  0  0  0  0  0  0  0  0  0  0
    6.7660  -12.1163   25.0302 C   0  0  0  0  0  0  0  0  0  0  0  0
    8.1112  -12.3925   25.0784 C   0  0  0  0  0  0  0  0  0  0  0  0
    8.6135  -13.4923   25.7448 C   0  0  0  0  0  0  0  0  0  0  0  0
    7.0921  -16.9983   25.4592 C   0  0  0  0  0  0  0  0  0  0  0  0
    6.0088  -17.2033   26.0643 O   0  0  0  0  0  0  0  0  0  0  0  0
    7.0623  -17.0014   24.0718 O   0  0  0  0  0  0  0  0  0  0  0  0
  2  3  1  0
  2  1  1  6
  4  3  1  0
  5  4  1  0
  6  5  1  0
  7  6  1  0
  8  9  2  0
  8  2  1  0
 11 10  1  1
 11 12  1  0
 12  8  1  0
 13 14  2  0
 13 11  1  0
 15 13  1  0
 16 17  1  6
 16 15  1  0
 18 17  1  0
 18 23  2  0
 19 18  1  0
 20 19  2  0
 20 21  1  0
 21 22  2  0
 22 23  1  0
 24 16  1  0
 25 24  2  0
 26 24  1  0
M  END
$$$$
