KAF.pdb
     RDKit          3D

 26 26  0  0  1  0  0  0  0  0999 V2000
    5.1642  -15.6584   20.6840 N   0  0  0  0  0  0  0  0  0  0  0  0
    6.5121  -16.2440   20.7026 C   0  0  1  0  0  0  0  0  0  0  0  0
    7.4403  -15.1632   20.2053 C   0  0  0  0  0  0  0  0  0  0  0  0
    7.0224  -13.8436   20.7437 C   0  0  0  0  0  0  0  0  0  0  0  0
    7.6983  -12.6861   20.0101 C   0  0  0  0  0  0  0  0  0  0  0  0
    9.1300  -12.6478   20.5112 C   0  0  0  0  0  0  0  0  0  0  0  0
    9.7806  -11.4998   19.9489 N   0  0  0  0  0  0  0  0  0  0  0  0
    6.8962  -16.5950   22.0871 C   0  0  0  0  0  0  0  0  0  0  0  0
    6.3103  -16.1176   23.0840 O   0  0  0  0  0  0  0  0  0  0  0  0
    9.0331  -19.3382   23.5902 C   0  0  0  0  0  0  0  0  0  0  0  0
    8.2128  -18.0562   23.6778 C   0  0  2  0  0  0  0  0  0  0  0  0
    7.9796  -17.5171   22.3476 N   0  0  0  0  0  0  0  0  0  0  0  0
    8.9583  -17.0472   24.4662 C   0  0  0  0  0  0  0  0  0  0  0  0
    9.8080  -16.2837   23.9329 O   0  0  0  0  0  0  0  0  0  0  0  0
    8.7548  -16.8869   25.8647 N   0  0  0  0  0  0  0  0  0  0  0  0
    9.6424  -16.0056   26.6404 C   0  0  1  0  0  0  0  0  0  0  0  0
    8.7152  -15.1226   27.4498 C   0  0  0  0  0  0  0  0  0  0  0  0
    8.1429  -14.0044   26.6959 C   0  0  0  0  0  0  0  0  0  0  0  0
    8.8340  -12.8250   26.5524 C   0  0  0  0  0  0  0  0  0  0  0  0
    8.3072  -11.7562   25.8388 C   0  0  0  0  0  0  0  0  0  0  0  0
    7.0557  -11.8911   25.2617 C   0  0  0  0  0  0  0  0  0  0  0  0
    6.3773  -13.0764   25.4140 C   0  0  0  0  0  0  0  0  0  0  0  0
    6.9013  -14.1386   26.1234 C   0  0  0  0  0  0  0  0  0  0  0  0
   10.5193  -16.8513   27.4674 C   0  0  0  0  0  0  0  0  0  0  0  0
   10.2301  -18.0689   27.5916 O   0  0  0  0  0  0  0  0  0  0  0  0
   11.6520  -16.3910   28.1238 O   0  0  0  0  0  0  0  0  0  0  0  0
  2  3  1  0
  2  1  1  1
  4  3  1  0
  5  4  1  0
  6  5  1  0
  7  6  1  0
  8  9  2  0
  8  2  1  0
 11 10  1  6
 11 12  1  0
 12  8  1  0
 13 14  2  0
 13 11  1  0
 15 13  1  0
 16 17  1  1
 16 15  1  0
 18 17  1  0
 18 23  2  0
 19 18  1  0
 20 19  2  0
 20 21  1  0
 21 22  2  0
 22 23  1  0
 24 16  1  0
 25 24  2  0
 26 24  1  0
M  END
$$$$
