KAF.pdb
     RDKit          3D

 26 26  0  0  1  0  0  0  0  0999 V2000
    6.7323  -18.4186   20.8835 N   0  0  0  0  0  0  0  0  0  0  0  0
    8.1305  -18.3341   20.4384 C   0  0  1  0  0  0  0  0  0  0  0  0
    8.1037  -18.5496   18.9451 C   0  0  0  0  0  0  0  0  0  0  0  0
    6.7212  -18.8582   18.4984 C   0  0  0  0  0  0  0  0  0  0  0  0
    6.6434  -19.0779   16.9883 C   0  0  0  0  0  0  0  0  0  0  0  0
    7.0049  -20.5329   16.7547 C   0  0  0  0  0  0  0  0  0  0  0  0
    6.9565  -20.7954   15.3454 N   0  0  0  0  0  0  0  0  0  0  0  0
    8.6712  -16.9846   20.7105 C   0  0  0  0  0  0  0  0  0  0  0  0
    9.8676  -16.6889   20.4956 O   0  0  0  0  0  0  0  0  0  0  0  0
    7.2408  -13.5716   21.4039 C   0  0  0  0  0  0  0  0  0  0  0  0
    8.3500  -14.6107   21.5230 C   0  0  2  0  0  0  0  0  0  0  0  0
    7.8268  -15.9383   21.2433 N   0  0  0  0  0  0  0  0  0  0  0  0
    8.8870  -14.6022   22.9039 C   0  0  0  0  0  0  0  0  0  0  0  0
    9.5866  -13.6475   23.3380 O   0  0  0  0  0  0  0  0  0  0  0  0
    8.6419  -15.6694   23.8116 N   0  0  0  0  0  0  0  0  0  0  0  0
    9.1489  -15.5922   25.1911 C   0  0  1  0  0  0  0  0  0  0  0  0
    7.9146  -15.4671   26.0604 C   0  0  0  0  0  0  0  0  0  0  0  0
    7.5087  -14.0855   26.3296 C   0  0  0  0  0  0  0  0  0  0  0  0
    8.4320  -13.1425   26.7135 C   0  0  0  0  0  0  0  0  0  0  0  0
    8.0646  -11.8278   26.9700 C   0  0  0  0  0  0  0  0  0  0  0  0
    6.7345  -11.4678   26.8332 C   0  0  0  0  0  0  0  0  0  0  0  0
    5.8234  -12.4219   26.4486 C   0  0  0  0  0  0  0  0  0  0  0  0
    6.1890  -13.7286   26.1937 C   0  0  0  0  0  0  0  0  0  0  0  0
    9.9358  -16.8075   25.4589 C   0  0  0  0  0  0  0  0  0  0  0  0
   10.4020  -16.9741   26.6150 O   0  0  0  0  0  0  0  0  0  0  0  0
   10.1995  -17.7886   24.5137 O   0  0  0  0  0  0  0  0  0  0  0  0
  2  3  1  0
  2  1  1  6
  4  3  1  0
  5  4  1  0
  6  5  1  0
  7  6  1  0
  8  9  2  0
  8  2  1  0
 11 10  1  1
 11 12  1  0
 12  8  1  0
 13 14  2  0
 13 11  1  0
 15 13  1  0
 16 17  1  1
 16 15  1  0
 18 17  1  0
 18 23  2  0
 19 18  1  0
 20 19  2  0
 20 21  1  0
 21 22  2  0
 22 23  1  0
 24 16  1  0
 25 24  2  0
 26 24  1  0
M  END
$$$$
