KAF.pdb
     RDKit          3D

 26 26  0  0  1  0  0  0  0  0999 V2000
    7.7662  -17.7840   18.7395 N   0  0  0  0  0  0  0  0  0  0  0  0
    9.0612  -17.3738   19.3006 C   0  0  1  0  0  0  0  0  0  0  0  0
    9.1688  -15.8893   19.0522 C   0  0  0  0  0  0  0  0  0  0  0  0
    7.9202  -15.2081   19.4797 C   0  0  0  0  0  0  0  0  0  0  0  0
    8.0339  -13.6878   19.3777 C   0  0  0  0  0  0  0  0  0  0  0  0
    8.2982  -13.3820   17.9152 C   0  0  0  0  0  0  0  0  0  0  0  0
    8.3955  -11.9598   17.7559 N   0  0  0  0  0  0  0  0  0  0  0  0
    9.0820  -17.6104   20.7604 C   0  0  0  0  0  0  0  0  0  0  0  0
    8.0357  -17.6548   21.4446 O   0  0  0  0  0  0  0  0  0  0  0  0
   11.7441  -18.5157   23.3261 C   0  0  0  0  0  0  0  0  0  0  0  0
   10.3627  -18.0309   22.9009 C   0  0  2  0  0  0  0  0  0  0  0  0
   10.3302  -17.8025   21.4653 N   0  0  0  0  0  0  0  0  0  0  0  0
   10.0575  -16.7520   23.5839 C   0  0  0  0  0  0  0  0  0  0  0  0
   10.1009  -15.6482   22.9764 O   0  0  0  0  0  0  0  0  0  0  0  0
    9.6998  -16.7021   24.9597 N   0  0  0  0  0  0  0  0  0  0  0  0
    9.3634  -15.4131   25.5854 C   0  0  1  0  0  0  0  0  0  0  0  0
    8.1298  -14.9270   24.8529 C   0  0  0  0  0  0  0  0  0  0  0  0
    7.4942  -13.7557   25.4614 C   0  0  0  0  0  0  0  0  0  0  0  0
    6.2453  -13.8472   26.0279 C   0  0  0  0  0  0  0  0  0  0  0  0
    5.6295  -12.7474   26.6112 C   0  0  0  0  0  0  0  0  0  0  0  0
    6.2970  -11.5342   26.6175 C   0  0  0  0  0  0  0  0  0  0  0  0
    7.5449  -11.4587   26.0472 C   0  0  0  0  0  0  0  0  0  0  0  0
    8.1567  -12.5523   25.4675 C   0  0  0  0  0  0  0  0  0  0  0  0
    9.1406  -15.6454   27.0222 C   0  0  0  0  0  0  0  0  0  0  0  0
    8.5656  -16.7074   27.3730 O   0  0  0  0  0  0  0  0  0  0  0  0
    9.5257  -14.7641   28.0225 O   0  0  0  0  0  0  0  0  0  0  0  0
  2  3  1  0
  2  1  1  1
  4  3  1  0
  5  4  1  0
  6  5  1  0
  7  6  1  0
  8  9  2  0
  8  2  1  0
 11 10  1  1
 11 12  1  0
 12  8  1  0
 13 14  2  0
 13 11  1  0
 15 13  1  0
 16 17  1  6
 16 15  1  0
 18 17  1  0
 18 23  2  0
 19 18  1  0
 20 19  2  0
 20 21  1  0
 21 22  2  0
 22 23  1  0
 24 16  1  0
 25 24  2  0
 26 24  1  0
M  END
$$$$
