KAF.pdb
     RDKit          3D

 26 26  0  0  1  0  0  0  0  0999 V2000
    6.1849  -16.2697   21.1350 N   0  0  0  0  0  0  0  0  0  0  0  0
    7.4338  -15.6377   21.5835 C   0  0  1  0  0  0  0  0  0  0  0  0
    7.0799  -14.2081   21.9122 C   0  0  0  0  0  0  0  0  0  0  0  0
    6.9120  -13.4232   20.6625 C   0  0  0  0  0  0  0  0  0  0  0  0
    8.2412  -13.2042   19.9413 C   0  0  0  0  0  0  0  0  0  0  0  0
    7.9136  -12.4263   18.6804 C   0  0  0  0  0  0  0  0  0  0  0  0
    9.1122  -12.2870   17.9048 N   0  0  0  0  0  0  0  0  0  0  0  0
    7.9254  -16.2965   22.8130 C   0  0  0  0  0  0  0  0  0  0  0  0
    7.1558  -16.6545   23.7321 O   0  0  0  0  0  0  0  0  0  0  0  0
   11.1059  -18.0130   23.8499 C   0  0  0  0  0  0  0  0  0  0  0  0
    9.8230  -17.2589   24.1811 C   0  0  2  0  0  0  0  0  0  0  0  0
    9.3351  -16.5568   23.0049 N   0  0  0  0  0  0  0  0  0  0  0  0
   10.0980  -16.2600   25.2402 C   0  0  0  0  0  0  0  0  0  0  0  0
   10.7876  -15.2286   25.0169 O   0  0  0  0  0  0  0  0  0  0  0  0
    9.5992  -16.4120   26.5635 N   0  0  0  0  0  0  0  0  0  0  0  0
   10.1004  -15.5450   27.6421 C   0  0  1  0  0  0  0  0  0  0  0  0
    8.8688  -14.8775   28.2185 C   0  0  0  0  0  0  0  0  0  0  0  0
    8.2711  -13.8654   27.3441 C   0  0  0  0  0  0  0  0  0  0  0  0
    7.1370  -14.1427   26.6187 C   0  0  0  0  0  0  0  0  0  0  0  0
    6.5560  -13.1940   25.7872 C   0  0  0  0  0  0  0  0  0  0  0  0
    7.1400  -11.9419   25.6930 C   0  0  0  0  0  0  0  0  0  0  0  0
    8.2734  -11.6799   26.4244 C   0  0  0  0  0  0  0  0  0  0  0  0
    8.8506  -12.6232   27.2509 C   0  0  0  0  0  0  0  0  0  0  0  0
   10.8198  -16.3884   28.6112 C   0  0  0  0  0  0  0  0  0  0  0  0
   11.3366  -15.8356   29.6156 O   0  0  0  0  0  0  0  0  0  0  0  0
   10.9667  -17.7629   28.4892 O   0  0  0  0  0  0  0  0  0  0  0  0
  2  3  1  0
  2  1  1  1
  4  3  1  0
  5  4  1  0
  6  5  1  0
  7  6  1  0
  8  9  2  0
  8  2  1  0
 11 10  1  6
 11 12  1  0
 12  8  1  0
 13 14  2  0
 13 11  1  0
 15 13  1  0
 16 17  1  1
 16 15  1  0
 18 17  1  0
 18 23  2  0
 19 18  1  0
 20 19  2  0
 20 21  1  0
 21 22  2  0
 22 23  1  0
 24 16  1  0
 25 24  2  0
 26 24  1  0
M  END
$$$$
