KAF.pdb
     RDKit          3D

 26 26  0  0  1  0  0  0  0  0999 V2000
   10.0063  -13.7179   19.3644 N   0  0  0  0  0  0  0  0  0  0  0  0
    8.6840  -13.4248   19.9352 C   0  0  1  0  0  0  0  0  0  0  0  0
    7.7170  -13.4548   18.7771 C   0  0  0  0  0  0  0  0  0  0  0  0
    8.2649  -14.2870   17.6757 C   0  0  0  0  0  0  0  0  0  0  0  0
    7.8295  -13.7777   16.3024 C   0  0  0  0  0  0  0  0  0  0  0  0
    8.2990  -14.8152   15.2996 C   0  0  0  0  0  0  0  0  0  0  0  0
    7.9542  -14.3659   13.9818 N   0  0  0  0  0  0  0  0  0  0  0  0
    8.2993  -14.4796   20.8980 C   0  0  0  0  0  0  0  0  0  0  0  0
    7.1755  -14.5049   21.4471 O   0  0  0  0  0  0  0  0  0  0  0  0
    9.6731  -17.8326   21.9578 C   0  0  0  0  0  0  0  0  0  0  0  0
    8.8605  -16.5678   22.2108 C   0  0  2  0  0  0  0  0  0  0  0  0
    9.2197  -15.5389   21.2482 N   0  0  0  0  0  0  0  0  0  0  0  0
    9.1536  -16.0575   23.5705 C   0  0  0  0  0  0  0  0  0  0  0  0
   10.1792  -15.3656   23.8130 O   0  0  0  0  0  0  0  0  0  0  0  0
    8.2944  -16.3211   24.6729 N   0  0  0  0  0  0  0  0  0  0  0  0
    8.6864  -15.8999   26.0276 C   0  0  1  0  0  0  0  0  0  0  0  0
    7.4032  -15.4349   26.6848 C   0  0  0  0  0  0  0  0  0  0  0  0
    7.1138  -14.0115   26.4940 C   0  0  0  0  0  0  0  0  0  0  0  0
    5.8291  -13.5784   26.2686 C   0  0  0  0  0  0  0  0  0  0  0  0
    5.5369  -12.2326   26.0883 C   0  0  0  0  0  0  0  0  0  0  0  0
    6.5708  -11.3127   26.1385 C   0  0  0  0  0  0  0  0  0  0  0  0
    7.8498  -11.7613   26.3648 C   0  0  0  0  0  0  0  0  0  0  0  0
    8.1398  -13.0992   26.5440 C   0  0  0  0  0  0  0  0  0  0  0  0
    9.3094  -17.0504   26.7030 C   0  0  0  0  0  0  0  0  0  0  0  0
    9.8141  -16.8729   27.8412 O   0  0  0  0  0  0  0  0  0  0  0  0
    9.3774  -18.3271   26.1634 O   0  0  0  0  0  0  0  0  0  0  0  0
  2  3  1  0
  2  1  1  6
  4  3  1  0
  5  4  1  0
  6  5  1  0
  7  6  1  0
  8  9  2  0
  8  2  1  0
 11 10  1  6
 11 12  1  0
 12  8  1  0
 13 14  2  0
 13 11  1  0
 15 13  1  0
 16 17  1  1
 16 15  1  0
 18 17  1  0
 18 23  2  0
 19 18  1  0
 20 19  2  0
 20 21  1  0
 21 22  2  0
 22 23  1  0
 24 16  1  0
 25 24  2  0
 26 24  1  0
M  END
$$$$
