KAF.pdb
     RDKit          3D

 26 26  0  0  1  0  0  0  0  0999 V2000
    7.6326  -18.6133   20.7445 N   0  0  0  0  0  0  0  0  0  0  0  0
    9.0172  -18.1991   20.4767 C   0  0  1  0  0  0  0  0  0  0  0  0
    9.2125  -18.3450   18.9875 C   0  0  0  0  0  0  0  0  0  0  0  0
    8.8153  -19.7080   18.5514 C   0  0  0  0  0  0  0  0  0  0  0  0
    9.8970  -20.3757   17.7035 C   0  0  0  0  0  0  0  0  0  0  0  0
    9.2590  -21.6163   17.1067 C   0  0  0  0  0  0  0  0  0  0  0  0
   10.2701  -22.3626   16.4152 N   0  0  0  0  0  0  0  0  0  0  0  0
    9.2030  -16.7774   20.8396 C   0  0  0  0  0  0  0  0  0  0  0  0
   10.3096  -16.2022   20.7413 O   0  0  0  0  0  0  0  0  0  0  0  0
    6.9335  -13.8583   21.6420 C   0  0  0  0  0  0  0  0  0  0  0  0
    8.2709  -14.5880   21.6980 C   0  0  2  0  0  0  0  0  0  0  0  0
    8.0974  -15.9839   21.3294 N   0  0  0  0  0  0  0  0  0  0  0  0
    8.8049  -14.5328   23.0789 C   0  0  0  0  0  0  0  0  0  0  0  0
    9.2231  -13.4572   23.5863 O   0  0  0  0  0  0  0  0  0  0  0  0
    8.8738  -15.6892   23.9042 N   0  0  0  0  0  0  0  0  0  0  0  0
    9.3939  -15.5827   25.2769 C   0  0  1  0  0  0  0  0  0  0  0  0
    8.1671  -15.5687   26.1654 C   0  0  0  0  0  0  0  0  0  0  0  0
    7.6060  -14.2345   26.3913 C   0  0  0  0  0  0  0  0  0  0  0  0
    8.4199  -13.1723   26.7053 C   0  0  0  0  0  0  0  0  0  0  0  0
    7.9047  -11.9005   26.9200 C   0  0  0  0  0  0  0  0  0  0  0  0
    6.5376  -11.7074   26.8131 C   0  0  0  0  0  0  0  0  0  0  0  0
    5.7372  -12.7791   26.4985 C   0  0  0  0  0  0  0  0  0  0  0  0
    6.2497  -14.0432   26.2851 C   0  0  0  0  0  0  0  0  0  0  0  0
   10.2830  -16.7308   25.5205 C   0  0  0  0  0  0  0  0  0  0  0  0
   10.3245  -17.6469   24.6599 O   0  0  0  0  0  0  0  0  0  0  0  0
   11.0844  -16.8704   26.6448 O   0  0  0  0  0  0  0  0  0  0  0  0
  2  3  1  0
  2  1  1  6
  4  3  1  0
  5  4  1  0
  6  5  1  0
  7  6  1  0
  8  9  2  0
  8  2  1  0
 11 10  1  1
 11 12  1  0
 12  8  1  0
 13 14  2  0
 13 11  1  0
 15 13  1  0
 16 17  1  1
 16 15  1  0
 18 17  1  0
 18 23  2  0
 19 18  1  0
 20 19  2  0
 20 21  1  0
 21 22  2  0
 22 23  1  0
 24 16  1  0
 25 24  2  0
 26 24  1  0
M  END
$$$$
