KAF.pdb
     RDKit          3D

 26 26  0  0  1  0  0  0  0  0999 V2000
    6.9729  -18.6114   20.5987 N   0  0  0  0  0  0  0  0  0  0  0  0
    8.4097  -18.4206   20.3551 C   0  0  1  0  0  0  0  0  0  0  0  0
    8.6215  -18.6982   18.8871 C   0  0  0  0  0  0  0  0  0  0  0  0
    8.5103  -20.1553   18.6215 C   0  0  0  0  0  0  0  0  0  0  0  0
    8.8051  -20.4951   17.1612 C   0  0  0  0  0  0  0  0  0  0  0  0
    8.5519  -21.9840   17.0154 C   0  0  0  0  0  0  0  0  0  0  0  0
    8.8981  -22.3780   15.6804 N   0  0  0  0  0  0  0  0  0  0  0  0
    8.7914  -17.0184   20.6297 C   0  0  0  0  0  0  0  0  0  0  0  0
    9.9668  -16.6092   20.5030 O   0  0  0  0  0  0  0  0  0  0  0  0
    6.9357  -13.7716   21.1943 C   0  0  0  0  0  0  0  0  0  0  0  0
    8.1666  -14.6635   21.3104 C   0  0  2  0  0  0  0  0  0  0  0  0
    7.8074  -16.0504   21.0618 N   0  0  0  0  0  0  0  0  0  0  0  0
    8.7202  -14.5633   22.6811 C   0  0  0  0  0  0  0  0  0  0  0  0
    9.3402  -13.5381   23.0732 O   0  0  0  0  0  0  0  0  0  0  0  0
    8.5813  -15.6174   23.6259 N   0  0  0  0  0  0  0  0  0  0  0  0
    9.0696  -15.4393   25.0029 C   0  0  1  0  0  0  0  0  0  0  0  0
    7.8235  -15.4018   25.8634 C   0  0  0  0  0  0  0  0  0  0  0  0
    7.3405  -14.0509   26.1600 C   0  0  0  0  0  0  0  0  0  0  0  0
    8.2147  -13.0549   26.5246 C   0  0  0  0  0  0  0  0  0  0  0  0
    7.7740  -11.7683   26.8066 C   0  0  0  0  0  0  0  0  0  0  0  0
    6.4202  -11.4917   26.7157 C   0  0  0  0  0  0  0  0  0  0  0  0
    5.5588  -12.4979   26.3499 C   0  0  0  0  0  0  0  0  0  0  0  0
    5.9973  -13.7767   26.0696 C   0  0  0  0  0  0  0  0  0  0  0  0
    9.9687  -16.5616   25.3191 C   0  0  0  0  0  0  0  0  0  0  0  0
   10.0301  -17.5233   24.5110 O   0  0  0  0  0  0  0  0  0  0  0  0
   10.7588  -16.6296   26.4579 O   0  0  0  0  0  0  0  0  0  0  0  0
  2  3  1  0
  2  1  1  6
  4  3  1  0
  5  4  1  0
  6  5  1  0
  7  6  1  0
  8  9  2  0
  8  2  1  0
 11 10  1  1
 11 12  1  0
 12  8  1  0
 13 14  2  0
 13 11  1  0
 15 13  1  0
 16 17  1  1
 16 15  1  0
 18 17  1  0
 18 23  2  0
 19 18  1  0
 20 19  2  0
 20 21  1  0
 21 22  2  0
 22 23  1  0
 24 16  1  0
 25 24  2  0
 26 24  1  0
M  END
$$$$
