KAF.pdb
     RDKit          3D

 26 26  0  0  1  0  0  0  0  0999 V2000
    7.8110  -18.7473   20.6401 N   0  0  0  0  0  0  0  0  0  0  0  0
    9.1238  -18.1894   20.2858 C   0  0  1  0  0  0  0  0  0  0  0  0
    9.2686  -18.3843   18.7965 C   0  0  0  0  0  0  0  0  0  0  0  0
    9.0099  -19.8026   18.4395 C   0  0  0  0  0  0  0  0  0  0  0  0
    9.1501  -20.0496   16.9381 C   0  0  0  0  0  0  0  0  0  0  0  0
    8.8237  -21.5152   16.7197 C   0  0  0  0  0  0  0  0  0  0  0  0
    8.9376  -21.8051   15.3195 N   0  0  0  0  0  0  0  0  0  0  0  0
    9.1569  -16.7397   20.5771 C   0  0  0  0  0  0  0  0  0  0  0  0
   10.1978  -16.0572   20.4525 O   0  0  0  0  0  0  0  0  0  0  0  0
    6.5927  -14.0414   21.2768 C   0  0  0  0  0  0  0  0  0  0  0  0
    7.9994  -14.6253   21.3440 C   0  0  2  0  0  0  0  0  0  0  0  0
    7.9706  -16.0434   21.0239 N   0  0  0  0  0  0  0  0  0  0  0  0
    8.5332  -14.4676   22.7172 C   0  0  0  0  0  0  0  0  0  0  0  0
    8.6988  -13.3318   23.2385 O   0  0  0  0  0  0  0  0  0  0  0  0
    8.8864  -15.5882   23.5188 N   0  0  0  0  0  0  0  0  0  0  0  0
    9.1308  -15.4135   24.9596 C   0  0  1  0  0  0  0  0  0  0  0  0
    7.7569  -15.2596   25.5787 C   0  0  0  0  0  0  0  0  0  0  0  0
    7.4412  -13.8941   26.0050 C   0  0  0  0  0  0  0  0  0  0  0  0
    8.4316  -12.9498   26.1333 C   0  0  0  0  0  0  0  0  0  0  0  0
    8.1494  -11.6502   26.5338 C   0  0  0  0  0  0  0  0  0  0  0  0
    6.8362  -11.3067   26.8082 C   0  0  0  0  0  0  0  0  0  0  0  0
    5.8573  -12.2618   26.6753 C   0  0  0  0  0  0  0  0  0  0  0  0
    6.1383  -13.5536   26.2771 C   0  0  0  0  0  0  0  0  0  0  0  0
    9.8660  -16.5927   25.4461 C   0  0  0  0  0  0  0  0  0  0  0  0
   10.1554  -16.6533   26.6685 O   0  0  0  0  0  0  0  0  0  0  0  0
   10.2640  -17.6497   24.6398 O   0  0  0  0  0  0  0  0  0  0  0  0
  2  3  1  0
  2  1  1  6
  4  3  1  0
  5  4  1  0
  6  5  1  0
  7  6  1  0
  8  9  2  0
  8  2  1  0
 11 10  1  1
 11 12  1  0
 12  8  1  0
 13 14  2  0
 13 11  1  0
 15 13  1  0
 16 17  1  1
 16 15  1  0
 18 17  1  0
 18 23  2  0
 19 18  1  0
 20 19  2  0
 20 21  1  0
 21 22  2  0
 22 23  1  0
 24 16  1  0
 25 24  2  0
 26 24  1  0
M  END
$$$$
