HEI.pdb
     RDKit          3D

 28 28  0  0  1  0  0  0  0  0999 V2000
   26.5811  -15.6276  -18.2006 N   0  0  0  0  0  0  0  0  0  0  0  0
   26.1509  -15.7476  -16.8226 C   0  0  1  0  0  0  0  0  0  0  0  0
   25.3023  -14.5762  -16.4472 C   0  0  0  0  0  0  0  0  0  0  0  0
   26.1846  -13.3530  -16.4965 C   0  0  0  0  0  0  0  0  0  0  0  0
   27.1239  -12.9802  -15.5565 C   0  0  0  0  0  0  0  0  0  0  0  0
   27.7166  -11.8385  -15.9320 N   0  0  0  0  0  0  0  0  0  0  0  0
   27.1507  -11.4969  -17.1033 C   0  0  0  0  0  0  0  0  0  0  0  0
   26.2242  -12.4082  -17.4495 N   0  0  0  0  0  0  0  0  0  0  0  0
   25.5823  -17.0562  -16.5586 C   0  0  0  0  0  0  0  0  0  0  0  0
   24.6749  -17.4830  -17.3301 O   0  0  0  0  0  0  0  0  0  0  0  0
   25.9556  -17.9212  -15.4944 N   0  0  0  0  0  0  0  0  0  0  0  0
   25.2723  -19.1710  -15.2751 C   0  0  1  0  0  0  0  0  0  0  0  0
   26.0628  -20.1673  -14.5225 C   0  0  0  0  0  0  0  0  0  0  0  0
   25.4895  -21.5011  -14.2654 C   0  0  0  0  0  0  0  0  0  0  0  0
   25.5475  -22.5040  -15.3124 C   0  0  0  0  0  0  0  0  0  0  0  0
   26.1478  -22.2159  -16.4049 O   0  0  0  0  0  0  0  0  0  0  0  0
   23.9083  -18.9488  -14.6905 C   0  0  0  0  0  0  0  0  0  0  0  0
   23.7028  -18.1150  -13.7853 O   0  0  0  0  0  0  0  0  0  0  0  0
   24.9960  -23.7720  -15.2256 O   0  0  0  0  0  0  0  0  0  0  0  0
   20.3631  -17.1456  -17.4412 C   0  0  0  0  0  0  0  0  0  0  0  0
   21.0366  -17.6456  -16.1984 C   0  0  0  0  0  0  0  0  0  0  0  0
   20.6545  -19.0702  -15.8520 C   0  0  2  0  0  0  0  0  0  0  0  0
   19.1744  -19.1073  -15.6356 C   0  0  0  0  0  0  0  0  0  0  0  0
   21.4680  -19.5851  -14.7241 C   0  0  2  0  0  0  0  0  0  0  0  0
   22.8468  -19.7102  -15.1899 N   0  0  0  0  0  0  0  0  0  0  0  0
   20.9743  -20.8426  -14.1393 C   0  0  0  0  0  0  0  0  0  0  0  0
   20.1507  -20.9386  -13.0543 O   0  0  0  0  0  0  0  0  0  0  0  0
   21.3442  -21.9264  -14.6883 O   0  0  0  0  0  0  0  0  0  0  0  0
  2  9  1  0
  2  1  1  6
  3  2  1  0
  4  3  1  0
  4  5  2  0
  6  5  1  0
  7  8  2  0
  7  6  1  0
  8  4  1  0
  9 11  1  0
 10  9  2  0
 11 12  1  0
 12 13  1  1
 13 14  1  0
 14 15  1  0
 15 19  1  0
 16 15  2  0
 17 12  1  0
 18 17  2  0
 21 20  1  0
 21 22  1  0
 22 24  1  0
 22 23  1  1
 24 25  1  6
 24 26  1  0
 25 17  1  0
 26 27  1  0
 28 26  2  0
M  END
$$$$
