HEI.pdb
     RDKit          3D

 28 28  0  0  1  0  0  0  0  0999 V2000
   28.6980  -23.4547  -16.7215 N   0  0  0  0  0  0  0  0  0  0  0  0
   27.2664  -23.5949  -16.5502 C   0  0  1  0  0  0  0  0  0  0  0  0
   26.9606  -24.8545  -15.8066 C   0  0  0  0  0  0  0  0  0  0  0  0
   27.2188  -26.0030  -16.7508 C   0  0  0  0  0  0  0  0  0  0  0  0
   28.1411  -27.0153  -16.5789 C   0  0  0  0  0  0  0  0  0  0  0  0
   28.0910  -27.8593  -17.6186 N   0  0  0  0  0  0  0  0  0  0  0  0
   27.1405  -27.3776  -18.4393 C   0  0  0  0  0  0  0  0  0  0  0  0
   26.6100  -26.2561  -17.9203 N   0  0  0  0  0  0  0  0  0  0  0  0
   26.6768  -22.3814  -16.0162 C   0  0  0  0  0  0  0  0  0  0  0  0
   27.3690  -21.6743  -15.2278 O   0  0  0  0  0  0  0  0  0  0  0  0
   25.3693  -21.9021  -16.3009 N   0  0  0  0  0  0  0  0  0  0  0  0
   24.8122  -20.7843  -15.5816 C   0  0  1  0  0  0  0  0  0  0  0  0
   23.9341  -19.9191  -16.3967 C   0  0  0  0  0  0  0  0  0  0  0  0
   23.2545  -18.7750  -15.7619 C   0  0  0  0  0  0  0  0  0  0  0  0
   22.3390  -17.9747  -16.5535 C   0  0  0  0  0  0  0  0  0  0  0  0
   22.7991  -17.3317  -17.5594 O   0  0  0  0  0  0  0  0  0  0  0  0
   24.1655  -21.2295  -14.3029 C   0  0  0  0  0  0  0  0  0  0  0  0
   23.3891  -22.2052  -14.2572 O   0  0  0  0  0  0  0  0  0  0  0  0
   20.9819  -17.8466  -16.3058 O   0  0  0  0  0  0  0  0  0  0  0  0
   27.1497  -20.4972   -9.9071 C   0  0  0  0  0  0  0  0  0  0  0  0
   26.1486  -21.0168  -10.8950 C   0  0  0  0  0  0  0  0  0  0  0  0
   24.8036  -20.3269  -10.7913 C   0  0  2  0  0  0  0  0  0  0  0  0
   24.3200  -20.4763   -9.3833 C   0  0  0  0  0  0  0  0  0  0  0  0
   23.8679  -20.8156  -11.8328 C   0  0  2  0  0  0  0  0  0  0  0  0
   24.4555  -20.5152  -13.1360 N   0  0  0  0  0  0  0  0  0  0  0  0
   22.4980  -20.2892  -11.7183 C   0  0  0  0  0  0  0  0  0  0  0  0
   21.4417  -20.9519  -11.1615 O   0  0  0  0  0  0  0  0  0  0  0  0
   22.2805  -19.1240  -12.1744 O   0  0  0  0  0  0  0  0  0  0  0  0
  2  9  1  0
  2  1  1  1
  3  2  1  0
  4  3  1  0
  4  5  2  0
  6  5  1  0
  7  8  2  0
  7  6  1  0
  8  4  1  0
  9 11  1  0
 10  9  2  0
 11 12  1  0
 12 13  1  6
 13 14  1  0
 14 15  1  0
 15 19  1  0
 16 15  2  0
 17 12  1  0
 18 17  2  0
 21 20  1  0
 21 22  1  0
 22 24  1  0
 22 23  1  1
 24 25  1  6
 24 26  1  0
 25 17  1  0
 26 27  1  0
 28 26  2  0
M  END
$$$$
