HEI.pdb
     RDKit          3D

 28 28  0  0  1  0  0  0  0  0999 V2000
   16.7773  -12.2219  -10.9885 N   0  0  0  0  0  0  0  0  0  0  0  0
   16.1286  -10.9748  -11.3381 C   0  0  1  0  0  0  0  0  0  0  0  0
   14.6971  -11.0047  -10.9102 C   0  0  0  0  0  0  0  0  0  0  0  0
   14.0168  -12.0911  -11.7064 C   0  0  0  0  0  0  0  0  0  0  0  0
   14.4261  -12.5946  -12.9246 C   0  0  0  0  0  0  0  0  0  0  0  0
   13.5785  -13.5496  -13.3313 N   0  0  0  0  0  0  0  0  0  0  0  0
   12.6413  -13.6444  -12.3714 C   0  0  0  0  0  0  0  0  0  0  0  0
   12.9007  -12.7655  -11.3869 N   0  0  0  0  0  0  0  0  0  0  0  0
   16.9031   -9.8325  -10.8900 C   0  0  0  0  0  0  0  0  0  0  0  0
   17.2235   -9.7667   -9.6679 O   0  0  0  0  0  0  0  0  0  0  0  0
   17.3450   -8.7594  -11.7105 N   0  0  0  0  0  0  0  0  0  0  0  0
   17.9579   -7.5871  -11.1383 C   0  0  1  0  0  0  0  0  0  0  0  0
   19.2560   -7.2270  -11.7459 C   0  0  0  0  0  0  0  0  0  0  0  0
   19.9707   -6.0290  -11.2687 C   0  0  0  0  0  0  0  0  0  0  0  0
   21.2095   -5.6448  -11.9191 C   0  0  0  0  0  0  0  0  0  0  0  0
   22.3042   -5.7528  -11.2657 O   0  0  0  0  0  0  0  0  0  0  0  0
   16.9956   -6.4365  -11.0974 C   0  0  0  0  0  0  0  0  0  0  0  0
   16.2735   -6.1412  -12.0711 O   0  0  0  0  0  0  0  0  0  0  0  0
   21.3072   -5.1615  -13.2138 O   0  0  0  0  0  0  0  0  0  0  0  0
   13.7368   -5.7061   -6.9652 C   0  0  0  0  0  0  0  0  0  0  0  0
   15.0096   -5.3495   -7.6731 C   0  0  0  0  0  0  0  0  0  0  0  0
   14.7933   -4.9786   -9.1261 C   0  0  2  0  0  0  0  0  0  0  0  0
   14.1330   -6.1392   -9.8013 C   0  0  0  0  0  0  0  0  0  0  0  0
   16.0545   -4.5190   -9.7563 C   0  0  2  0  0  0  0  0  0  0  0  0
   16.9205   -5.6837   -9.9211 N   0  0  0  0  0  0  0  0  0  0  0  0
   16.7358   -3.4310   -9.0358 C   0  0  0  0  0  0  0  0  0  0  0  0
   16.2502   -2.1647   -8.8762 O   0  0  0  0  0  0  0  0  0  0  0  0
   17.8673   -3.6909   -8.5209 O   0  0  0  0  0  0  0  0  0  0  0  0
  2  9  1  0
  2  1  1  1
  3  2  1  0
  4  3  1  0
  4  5  2  0
  6  5  1  0
  7  8  2  0
  7  6  1  0
  8  4  1  0
  9 11  1  0
 10  9  2  0
 11 12  1  0
 12 13  1  6
 13 14  1  0
 14 15  1  0
 15 19  1  0
 16 15  2  0
 17 12  1  0
 18 17  2  0
 21 20  1  0
 21 22  1  0
 22 24  1  0
 22 23  1  6
 24 25  1  1
 24 26  1  0
 25 17  1  0
 26 27  1  0
 28 26  2  0
M  END
$$$$
