HEI.pdb
     RDKit          3D

 28 28  0  0  1  0  0  0  0  0999 V2000
   27.1920  -20.1641  -16.7616 N   0  0  0  0  0  0  0  0  0  0  0  0
   27.3404  -20.9916  -15.5821 C   0  0  1  0  0  0  0  0  0  0  0  0
   28.7895  -21.2008  -15.2824 C   0  0  0  0  0  0  0  0  0  0  0  0
   29.3854  -21.9374  -16.4570 C   0  0  0  0  0  0  0  0  0  0  0  0
   30.1383  -21.3870  -17.4745 C   0  0  0  0  0  0  0  0  0  0  0  0
   30.4979  -22.3418  -18.3433 N   0  0  0  0  0  0  0  0  0  0  0  0
   29.9722  -23.4866  -17.8720 C   0  0  0  0  0  0  0  0  0  0  0  0
   29.2988  -23.2484  -16.7324 N   0  0  0  0  0  0  0  0  0  0  0  0
   26.5284  -20.4989  -14.4852 C   0  0  0  0  0  0  0  0  0  0  0  0
   26.7496  -19.3310  -14.0521 O   0  0  0  0  0  0  0  0  0  0  0  0
   25.4870  -21.2183  -13.8386 N   0  0  0  0  0  0  0  0  0  0  0  0
   24.6937  -20.6095  -12.8006 C   0  0  1  0  0  0  0  0  0  0  0  0
   23.2489  -20.5446  -13.1047 C   0  0  0  0  0  0  0  0  0  0  0  0
   22.3157  -20.0425  -12.0795 C   0  0  0  0  0  0  0  0  0  0  0  0
   20.8942  -20.0297  -12.3700 C   0  0  0  0  0  0  0  0  0  0  0  0
   20.4936  -20.4938  -13.4929 O   0  0  0  0  0  0  0  0  0  0  0  0
   24.9796  -21.2298  -11.4645 C   0  0  0  0  0  0  0  0  0  0  0  0
   25.0645  -22.4652  -11.3115 O   0  0  0  0  0  0  0  0  0  0  0  0
   19.9158  -19.5472  -11.5158 O   0  0  0  0  0  0  0  0  0  0  0  0
   28.4911  -18.9928   -8.1667 C   0  0  0  0  0  0  0  0  0  0  0  0
   27.5625  -19.9697   -8.8237 C   0  0  0  0  0  0  0  0  0  0  0  0
   26.1563  -19.9170   -8.2622 C   0  0  2  0  0  0  0  0  0  0  0  0
   26.2443  -20.1427   -6.7857 C   0  0  0  0  0  0  0  0  0  0  0  0
   25.2537  -20.8438   -8.9872 C   0  0  2  0  0  0  0  0  0  0  0  0
   25.1538  -20.3788  -10.3684 N   0  0  0  0  0  0  0  0  0  0  0  0
   23.9272  -21.0107   -8.3712 C   0  0  0  0  0  0  0  0  0  0  0  0
   23.6021  -21.9569   -7.4416 O   0  0  0  0  0  0  0  0  0  0  0  0
   23.0105  -20.2100   -8.7335 O   0  0  0  0  0  0  0  0  0  0  0  0
  2  9  1  0
  2  1  1  6
  3  2  1  0
  4  3  1  0
  4  5  2  0
  6  5  1  0
  7  8  2  0
  7  6  1  0
  8  4  1  0
  9 11  1  0
 10  9  2  0
 11 12  1  0
 12 13  1  6
 13 14  1  0
 14 15  1  0
 15 19  1  0
 16 15  2  0
 17 12  1  0
 18 17  2  0
 21 20  1  0
 21 22  1  0
 22 24  1  0
 22 23  1  1
 24 25  1  6
 24 26  1  0
 25 17  1  0
 26 27  1  0
 28 26  2  0
M  END
$$$$
