HEI.pdb
     RDKit          3D

 28 28  0  0  1  0  0  0  0  0999 V2000
   20.8983  -12.4785  -18.0505 N   0  0  0  0  0  0  0  0  0  0  0  0
   20.0483  -11.3215  -17.8577 C   0  0  1  0  0  0  0  0  0  0  0  0
   18.9154  -11.6648  -16.9457 C   0  0  0  0  0  0  0  0  0  0  0  0
   18.0747  -12.7012  -17.6502 C   0  0  0  0  0  0  0  0  0  0  0  0
   17.5395  -12.5999  -18.9183 C   0  0  0  0  0  0  0  0  0  0  0  0
   16.8512  -13.7113  -19.2129 N   0  0  0  0  0  0  0  0  0  0  0  0
   16.9546  -14.5064  -18.1331 C   0  0  0  0  0  0  0  0  0  0  0  0
   17.6927  -13.9014  -17.1855 N   0  0  0  0  0  0  0  0  0  0  0  0
   20.8243  -10.1501  -17.4957 C   0  0  0  0  0  0  0  0  0  0  0  0
   21.5851  -10.2222  -16.4875 O   0  0  0  0  0  0  0  0  0  0  0  0
   20.8106   -8.9046  -18.1804 N   0  0  0  0  0  0  0  0  0  0  0  0
   21.6308   -7.8038  -17.7416 C   0  0  1  0  0  0  0  0  0  0  0  0
   22.0903   -6.9205  -18.8336 C   0  0  0  0  0  0  0  0  0  0  0  0
   23.0790   -7.4245  -19.8043 C   0  0  0  0  0  0  0  0  0  0  0  0
   23.5458   -6.5393  -20.8549 C   0  0  0  0  0  0  0  0  0  0  0  0
   23.2431   -6.8137  -22.0674 O   0  0  0  0  0  0  0  0  0  0  0  0
   20.9749   -7.0510  -16.6214 C   0  0  0  0  0  0  0  0  0  0  0  0
   19.7390   -6.8894  -16.5655 O   0  0  0  0  0  0  0  0  0  0  0  0
   24.3066   -5.3996  -20.6502 O   0  0  0  0  0  0  0  0  0  0  0  0
   20.2304   -9.0211  -12.5183 C   0  0  0  0  0  0  0  0  0  0  0  0
   20.3143   -8.0130  -13.6250 C   0  0  0  0  0  0  0  0  0  0  0  0
   21.2800   -6.8849  -13.3243 C   0  0  2  0  0  0  0  0  0  0  0  0
   20.9527   -6.3525  -11.9648 C   0  0  0  0  0  0  0  0  0  0  0  0
   21.2821   -5.8759  -14.4110 C   0  0  2  0  0  0  0  0  0  0  0  0
   21.7925   -6.5218  -15.6177 N   0  0  0  0  0  0  0  0  0  0  0  0
   22.0228   -4.6429  -14.0979 C   0  0  0  0  0  0  0  0  0  0  0  0
   21.4693   -3.4889  -13.6217 O   0  0  0  0  0  0  0  0  0  0  0  0
   23.2788   -4.6530  -14.2860 O   0  0  0  0  0  0  0  0  0  0  0  0
  2  9  1  0
  2  1  1  1
  3  2  1  0
  4  3  1  0
  4  5  2  0
  6  5  1  0
  7  8  2  0
  7  6  1  0
  8  4  1  0
  9 11  1  0
 10  9  2  0
 11 12  1  0
 12 13  1  6
 13 14  1  0
 14 15  1  0
 15 19  1  0
 16 15  2  0
 17 12  1  0
 18 17  2  0
 21 20  1  0
 21 22  1  0
 22 24  1  0
 22 23  1  1
 24 25  1  6
 24 26  1  0
 25 17  1  0
 26 27  1  0
 28 26  2  0
M  END
$$$$
