HEI.pdb
     RDKit          3D

 28 28  0  0  1  0  0  0  0  0999 V2000
   20.7866  -19.3661  -16.0415 N   0  0  0  0  0  0  0  0  0  0  0  0
   21.7559  -18.4772  -15.4344 C   0  0  1  0  0  0  0  0  0  0  0  0
   21.1338  -17.7470  -14.2885 C   0  0  0  0  0  0  0  0  0  0  0  0
   20.0422  -16.8737  -14.8568 C   0  0  0  0  0  0  0  0  0  0  0  0
   20.2079  -15.8122  -15.7232 C   0  0  0  0  0  0  0  0  0  0  0  0
   19.0171  -15.2714  -16.0149 N   0  0  0  0  0  0  0  0  0  0  0  0
   18.1080  -15.9914  -15.3336 C   0  0  0  0  0  0  0  0  0  0  0  0
   18.7215  -16.9610  -14.6319 N   0  0  0  0  0  0  0  0  0  0  0  0
   23.0000  -19.1674  -15.1492 C   0  0  0  0  0  0  0  0  0  0  0  0
   22.9442  -20.2892  -14.5669 O   0  0  0  0  0  0  0  0  0  0  0  0
   24.3012  -18.6933  -15.4688 N   0  0  0  0  0  0  0  0  0  0  0  0
   25.4732  -19.4811  -15.1804 C   0  0  1  0  0  0  0  0  0  0  0  0
   26.6547  -19.1257  -15.9938 C   0  0  0  0  0  0  0  0  0  0  0  0
   27.8784  -19.9412  -15.8871 C   0  0  0  0  0  0  0  0  0  0  0  0
   27.9442  -21.2047  -16.5972 C   0  0  0  0  0  0  0  0  0  0  0  0
   28.3659  -22.2383  -15.9720 O   0  0  0  0  0  0  0  0  0  0  0  0
   25.7649  -19.5014  -13.7086 C   0  0  0  0  0  0  0  0  0  0  0  0
   25.8175  -18.4565  -13.0286 O   0  0  0  0  0  0  0  0  0  0  0  0
   27.5813  -21.3885  -17.9217 O   0  0  0  0  0  0  0  0  0  0  0  0
   25.1626  -19.7123   -8.3897 C   0  0  0  0  0  0  0  0  0  0  0  0
   26.1326  -20.2521   -9.3976 C   0  0  0  0  0  0  0  0  0  0  0  0
   25.5595  -20.3054  -10.7991 C   0  0  2  0  0  0  0  0  0  0  0  0
   24.2351  -20.9976  -10.7259 C   0  0  0  0  0  0  0  0  0  0  0  0
   26.5275  -20.8992  -11.7527 C   0  0  2  0  0  0  0  0  0  0  0  0
   25.9816  -20.7409  -13.0983 N   0  0  0  0  0  0  0  0  0  0  0  0
   26.8824  -22.2996  -11.4699 C   0  0  0  0  0  0  0  0  0  0  0  0
   27.8531  -22.7077  -10.6004 O   0  0  0  0  0  0  0  0  0  0  0  0
   26.2331  -23.2017  -12.0843 O   0  0  0  0  0  0  0  0  0  0  0  0
  2  9  1  0
  2  1  1  1
  3  2  1  0
  4  3  1  0
  4  5  2  0
  6  5  1  0
  7  8  2  0
  7  6  1  0
  8  4  1  0
  9 11  1  0
 10  9  2  0
 11 12  1  0
 12 13  1  6
 13 14  1  0
 14 15  1  0
 15 19  1  0
 16 15  2  0
 17 12  1  0
 18 17  2  0
 21 20  1  0
 21 22  1  0
 22 24  1  0
 22 23  1  1
 24 25  1  6
 24 26  1  0
 25 17  1  0
 26 27  1  0
 28 26  2  0
M  END
$$$$
