HEI.pdb
     RDKit          3D

 28 28  0  0  1  0  0  0  0  0999 V2000
   27.1017  -20.3865  -14.5765 N   0  0  0  0  0  0  0  0  0  0  0  0
   27.3734  -19.1685  -13.8410 C   0  0  1  0  0  0  0  0  0  0  0  0
   27.0852  -17.9782  -14.6974 C   0  0  0  0  0  0  0  0  0  0  0  0
   27.8995  -18.1294  -15.9588 C   0  0  0  0  0  0  0  0  0  0  0  0
   29.0398  -18.8915  -16.1132 C   0  0  0  0  0  0  0  0  0  0  0  0
   29.4922  -18.7859  -17.3701 N   0  0  0  0  0  0  0  0  0  0  0  0
   28.6384  -17.9605  -18.0015 C   0  0  0  0  0  0  0  0  0  0  0  0
   27.6739  -17.5604  -17.1537 N   0  0  0  0  0  0  0  0  0  0  0  0
   26.7353  -19.1846  -12.5380 C   0  0  0  0  0  0  0  0  0  0  0  0
   26.7540  -18.1247  -11.8474 O   0  0  0  0  0  0  0  0  0  0  0  0
   26.0779  -20.3004  -11.9523 N   0  0  0  0  0  0  0  0  0  0  0  0
   25.4195  -20.1915  -10.6749 C   0  0  1  0  0  0  0  0  0  0  0  0
   24.0287  -20.6910  -10.6680 C   0  0  0  0  0  0  0  0  0  0  0  0
   23.2970  -20.8115  -11.9423 C   0  0  0  0  0  0  0  0  0  0  0  0
   22.0997  -20.0167  -12.1424 C   0  0  0  0  0  0  0  0  0  0  0  0
   21.1134  -20.1822  -11.3444 O   0  0  0  0  0  0  0  0  0  0  0  0
   26.2565  -20.7858   -9.5804 C   0  0  0  0  0  0  0  0  0  0  0  0
   26.9476  -21.8098   -9.7559 O   0  0  0  0  0  0  0  0  0  0  0  0
   21.9327  -19.0752  -13.1450 O   0  0  0  0  0  0  0  0  0  0  0  0
   29.4383  -18.2845   -6.2968 C   0  0  0  0  0  0  0  0  0  0  0  0
   28.6642  -19.3252   -7.0491 C   0  0  0  0  0  0  0  0  0  0  0  0
   27.4357  -19.8024   -6.3018 C   0  0  2  0  0  0  0  0  0  0  0  0
   27.8745  -20.2655   -4.9483 C   0  0  0  0  0  0  0  0  0  0  0  0
   26.6801  -20.8025   -7.0942 C   0  0  2  0  0  0  0  0  0  0  0  0
   26.2484  -20.1569   -8.3313 N   0  0  0  0  0  0  0  0  0  0  0  0
   25.5515  -21.4212   -6.3797 C   0  0  0  0  0  0  0  0  0  0  0  0
   25.6407  -22.4989   -5.5458 O   0  0  0  0  0  0  0  0  0  0  0  0
   24.4013  -20.9114   -6.5530 O   0  0  0  0  0  0  0  0  0  0  0  0
  2  9  1  0
  2  1  1  6
  3  2  1  0
  4  3  1  0
  4  5  2  0
  6  5  1  0
  7  8  2  0
  7  6  1  0
  8  4  1  0
  9 11  1  0
 10  9  2  0
 11 12  1  0
 12 13  1  6
 13 14  1  0
 14 15  1  0
 15 19  1  0
 16 15  2  0
 17 12  1  0
 18 17  2  0
 21 20  1  0
 21 22  1  0
 22 24  1  0
 22 23  1  1
 24 25  1  6
 24 26  1  0
 25 17  1  0
 26 27  1  0
 28 26  2  0
M  END
$$$$
