HEI.pdb
     RDKit          3D

 28 28  0  0  1  0  0  0  0  0999 V2000
   25.1687  -19.4478  -16.2645 N   0  0  0  0  0  0  0  0  0  0  0  0
   26.0992  -19.7670  -15.2013 C   0  0  1  0  0  0  0  0  0  0  0  0
   27.4019  -19.0733  -15.4355 C   0  0  0  0  0  0  0  0  0  0  0  0
   27.9742  -19.6220  -16.7195 C   0  0  0  0  0  0  0  0  0  0  0  0
   28.0336  -18.9718  -17.9355 C   0  0  0  0  0  0  0  0  0  0  0  0
   28.6078  -19.7658  -18.8496 N   0  0  0  0  0  0  0  0  0  0  0  0
   28.9074  -20.9097  -18.2088 C   0  0  0  0  0  0  0  0  0  0  0  0
   28.5268  -20.8288  -16.9213 N   0  0  0  0  0  0  0  0  0  0  0  0
   25.4981  -19.5685  -13.8957 C   0  0  0  0  0  0  0  0  0  0  0  0
   25.1704  -18.3940  -13.5581 O   0  0  0  0  0  0  0  0  0  0  0  0
   25.2370  -20.5887  -12.9412 N   0  0  0  0  0  0  0  0  0  0  0  0
   24.6009  -20.2877  -11.6835 C   0  0  1  0  0  0  0  0  0  0  0  0
   23.1466  -20.5497  -11.6645 C   0  0  0  0  0  0  0  0  0  0  0  0
   22.2795  -19.8892  -12.6574 C   0  0  0  0  0  0  0  0  0  0  0  0
   20.8441  -20.0845  -12.5764 C   0  0  0  0  0  0  0  0  0  0  0  0
   20.3707  -21.2527  -12.7961 O   0  0  0  0  0  0  0  0  0  0  0  0
   25.3239  -20.9372  -10.5403 C   0  0  0  0  0  0  0  0  0  0  0  0
   25.8051  -22.0852  -10.6266 O   0  0  0  0  0  0  0  0  0  0  0  0
   19.9257  -19.0918  -12.2750 O   0  0  0  0  0  0  0  0  0  0  0  0
   28.3364  -17.9430   -7.3066 C   0  0  0  0  0  0  0  0  0  0  0  0
   27.7037  -19.0780   -8.0548 C   0  0  0  0  0  0  0  0  0  0  0  0
   26.5523  -19.7127   -7.3017 C   0  0  2  0  0  0  0  0  0  0  0  0
   27.0574  -20.1226   -5.9543 C   0  0  0  0  0  0  0  0  0  0  0  0
   25.9251  -20.7974   -8.0948 C   0  0  2  0  0  0  0  0  0  0  0  0
   25.4522  -20.2162   -9.3488 N   0  0  0  0  0  0  0  0  0  0  0  0
   24.8549  -21.5257   -7.3940 C   0  0  0  0  0  0  0  0  0  0  0  0
   25.0271  -22.6573   -6.6492 O   0  0  0  0  0  0  0  0  0  0  0  0
   23.6756  -21.0644   -7.4897 O   0  0  0  0  0  0  0  0  0  0  0  0
  2  9  1  0
  2  1  1  6
  3  2  1  0
  4  3  1  0
  4  5  2  0
  6  5  1  0
  7  8  2  0
  7  6  1  0
  8  4  1  0
  9 11  1  0
 10  9  2  0
 11 12  1  0
 12 13  1  6
 13 14  1  0
 14 15  1  0
 15 19  1  0
 16 15  2  0
 17 12  1  0
 18 17  2  0
 21 20  1  0
 21 22  1  0
 22 24  1  0
 22 23  1  1
 24 25  1  6
 24 26  1  0
 25 17  1  0
 26 27  1  0
 28 26  2  0
M  END
$$$$
