HEI.pdb
     RDKit          3D

 28 28  0  0  1  0  0  0  0  0999 V2000
   25.7316  -20.2254  -13.7663 N   0  0  0  0  0  0  0  0  0  0  0  0
   26.8705  -19.9502  -12.9146 C   0  0  1  0  0  0  0  0  0  0  0  0
   27.7274  -18.8925  -13.5314 C   0  0  0  0  0  0  0  0  0  0  0  0
   28.3318  -19.4821  -14.7820 C   0  0  0  0  0  0  0  0  0  0  0  0
   28.6524  -20.8080  -14.9923 C   0  0  0  0  0  0  0  0  0  0  0  0
   29.1693  -20.9632  -16.2188 N   0  0  0  0  0  0  0  0  0  0  0  0
   29.1727  -19.7389  -16.7755 C   0  0  0  0  0  0  0  0  0  0  0  0
   28.6678  -18.8397  -15.9120 N   0  0  0  0  0  0  0  0  0  0  0  0
   26.4602  -19.7169  -11.5425 C   0  0  0  0  0  0  0  0  0  0  0  0
   26.1657  -18.5361  -11.1966 O   0  0  0  0  0  0  0  0  0  0  0  0
   26.3554  -20.7091  -10.5302 N   0  0  0  0  0  0  0  0  0  0  0  0
   25.9725  -20.3633   -9.1845 C   0  0  1  0  0  0  0  0  0  0  0  0
   24.6361  -20.8567   -8.7914 C   0  0  0  0  0  0  0  0  0  0  0  0
   23.4728  -20.5528   -9.6449 C   0  0  0  0  0  0  0  0  0  0  0  0
   22.1673  -21.0529   -9.2566 C   0  0  0  0  0  0  0  0  0  0  0  0
   22.0712  -21.7530   -8.1900 O   0  0  0  0  0  0  0  0  0  0  0  0
   27.0431  -20.7382   -8.2022 C   0  0  0  0  0  0  0  0  0  0  0  0
   27.8847  -21.6266   -8.4457 O   0  0  0  0  0  0  0  0  0  0  0  0
   20.9935  -20.8308   -9.9584 O   0  0  0  0  0  0  0  0  0  0  0  0
   29.7719  -17.1828   -5.4233 C   0  0  0  0  0  0  0  0  0  0  0  0
   29.2529  -18.4280   -6.0777 C   0  0  0  0  0  0  0  0  0  0  0  0
   28.3832  -19.2601   -5.1575 C   0  0  2  0  0  0  0  0  0  0  0  0
   29.1526  -19.5044   -3.8977 C   0  0  0  0  0  0  0  0  0  0  0  0
   27.8925  -20.4810   -5.8414 C   0  0  2  0  0  0  0  0  0  0  0  0
   27.0820  -20.0582   -6.9807 N   0  0  0  0  0  0  0  0  0  0  0  0
   27.1625  -21.4169   -4.9707 C   0  0  0  0  0  0  0  0  0  0  0  0
   27.7151  -22.4804   -4.3160 O   0  0  0  0  0  0  0  0  0  0  0  0
   25.9176  -21.2195   -4.8156 O   0  0  0  0  0  0  0  0  0  0  0  0
  2  9  1  0
  2  1  1  6
  3  2  1  0
  4  3  1  0
  4  5  2  0
  6  5  1  0
  7  8  2  0
  7  6  1  0
  8  4  1  0
  9 11  1  0
 10  9  2  0
 11 12  1  0
 12 13  1  1
 13 14  1  0
 14 15  1  0
 15 19  1  0
 16 15  2  0
 17 12  1  0
 18 17  2  0
 21 20  1  0
 21 22  1  0
 22 24  1  0
 22 23  1  1
 24 25  1  6
 24 26  1  0
 25 17  1  0
 26 27  1  0
 28 26  2  0
M  END
$$$$
