HEI.pdb
     RDKit          3D

 28 28  0  0  1  0  0  0  0  0999 V2000
   17.9226  -14.1633  -18.0063 N   0  0  0  0  0  0  0  0  0  0  0  0
   17.7651  -13.3982  -16.7865 C   0  0  1  0  0  0  0  0  0  0  0  0
   18.2048  -14.2109  -15.6120 C   0  0  0  0  0  0  0  0  0  0  0  0
   17.2834  -15.4028  -15.5250 C   0  0  0  0  0  0  0  0  0  0  0  0
   15.9937  -15.4089  -15.0335 C   0  0  0  0  0  0  0  0  0  0  0  0
   15.4814  -16.6447  -15.1130 N   0  0  0  0  0  0  0  0  0  0  0  0
   16.4466  -17.4103  -15.6524 C   0  0  0  0  0  0  0  0  0  0  0  0
   17.5380  -16.6654  -15.9034 N   0  0  0  0  0  0  0  0  0  0  0  0
   18.3615  -12.0810  -16.9082 C   0  0  0  0  0  0  0  0  0  0  0  0
   19.6133  -12.0019  -17.0738 O   0  0  0  0  0  0  0  0  0  0  0  0
   17.6586  -10.8467  -16.8582 N   0  0  0  0  0  0  0  0  0  0  0  0
   18.3620   -9.5893  -16.8202 C   0  0  1  0  0  0  0  0  0  0  0  0
   17.4890   -8.4048  -16.9571 C   0  0  0  0  0  0  0  0  0  0  0  0
   18.0916   -7.0592  -16.9667 C   0  0  0  0  0  0  0  0  0  0  0  0
   17.2280   -5.9043  -17.1266 C   0  0  0  0  0  0  0  0  0  0  0  0
   17.7600   -4.7412  -17.1635 O   0  0  0  0  0  0  0  0  0  0  0  0
   19.2674   -9.5098  -15.6262 C   0  0  0  0  0  0  0  0  0  0  0  0
   18.9555  -10.0032  -14.5235 O   0  0  0  0  0  0  0  0  0  0  0  0
   15.8486   -5.9574  -17.2451 O   0  0  0  0  0  0  0  0  0  0  0  0
   23.5569  -11.7411  -15.3771 C   0  0  0  0  0  0  0  0  0  0  0  0
   22.3553  -10.9115  -15.0363 C   0  0  0  0  0  0  0  0  0  0  0  0
   22.6602   -9.4287  -14.9725 C   0  0  2  0  0  0  0  0  0  0  0  0
   23.7865   -9.2343  -14.0068 C   0  0  0  0  0  0  0  0  0  0  0  0
   21.4381   -8.6415  -14.6799 C   0  0  2  0  0  0  0  0  0  0  0  0
   20.4958   -8.8580  -15.7750 N   0  0  0  0  0  0  0  0  0  0  0  0
   21.6772   -7.2086  -14.4422 C   0  0  0  0  0  0  0  0  0  0  0  0
   21.4867   -6.2139  -15.3583 O   0  0  0  0  0  0  0  0  0  0  0  0
   22.0947   -6.8696  -13.2917 O   0  0  0  0  0  0  0  0  0  0  0  0
  2  9  1  0
  2  1  1  6
  3  2  1  0
  4  3  1  0
  4  5  2  0
  6  5  1  0
  7  8  2  0
  7  6  1  0
  8  4  1  0
  9 11  1  0
 10  9  2  0
 11 12  1  0
 12 13  1  1
 13 14  1  0
 14 15  1  0
 15 19  1  0
 16 15  2  0
 17 12  1  0
 18 17  2  0
 21 20  1  0
 21 22  1  0
 22 24  1  0
 22 23  1  1
 24 25  1  6
 24 26  1  0
 25 17  1  0
 26 27  1  0
 28 26  2  0
M  END
$$$$
