HEI.pdb
     RDKit          3D

 28 28  0  0  1  0  0  0  0  0999 V2000
   16.6538  -12.6440  -17.2260 N   0  0  0  0  0  0  0  0  0  0  0  0
   16.7290  -11.9056  -15.9821 C   0  0  1  0  0  0  0  0  0  0  0  0
   17.3510  -12.7534  -14.9202 C   0  0  0  0  0  0  0  0  0  0  0  0
   16.4888  -13.9826  -14.7696 C   0  0  0  0  0  0  0  0  0  0  0  0
   15.2038  -14.0273  -14.2679 C   0  0  0  0  0  0  0  0  0  0  0  0
   14.7512  -15.2885  -14.2848 N   0  0  0  0  0  0  0  0  0  0  0  0
   15.7491  -16.0318  -14.7955 C   0  0  0  0  0  0  0  0  0  0  0  0
   16.8017  -15.2481  -15.0903 N   0  0  0  0  0  0  0  0  0  0  0  0
   17.3222  -10.5962  -16.1799 C   0  0  0  0  0  0  0  0  0  0  0  0
   18.5243  -10.5345  -16.5695 O   0  0  0  0  0  0  0  0  0  0  0  0
   16.6675   -9.3516  -15.9736 N   0  0  0  0  0  0  0  0  0  0  0  0
   17.3196   -8.1053  -16.2878 C   0  0  1  0  0  0  0  0  0  0  0  0
   16.4010   -7.0419  -16.7452 C   0  0  0  0  0  0  0  0  0  0  0  0
   15.6217   -7.2412  -17.9808 C   0  0  0  0  0  0  0  0  0  0  0  0
   16.3202   -7.2881  -19.2517 C   0  0  0  0  0  0  0  0  0  0  0  0
   16.1542   -8.3086  -20.0053 O   0  0  0  0  0  0  0  0  0  0  0  0
   18.2110   -7.6610  -15.1655 C   0  0  0  0  0  0  0  0  0  0  0  0
   17.9013   -7.8253  -13.9680 O   0  0  0  0  0  0  0  0  0  0  0  0
   17.1683   -6.3005  -19.7260 O   0  0  0  0  0  0  0  0  0  0  0  0
   22.7140   -9.5648  -14.8808 C   0  0  0  0  0  0  0  0  0  0  0  0
   21.4485   -8.7905  -14.6637 C   0  0  0  0  0  0  0  0  0  0  0  0
   21.6574   -7.2907  -14.7165 C   0  0  2  0  0  0  0  0  0  0  0  0
   22.7526   -6.9472  -13.7566 C   0  0  0  0  0  0  0  0  0  0  0  0
   20.3829   -6.5634  -14.5028 C   0  0  2  0  0  0  0  0  0  0  0  0
   19.4234   -7.0455  -15.4930 N   0  0  0  0  0  0  0  0  0  0  0  0
   20.5049   -5.0967  -14.5313 C   0  0  0  0  0  0  0  0  0  0  0  0
   20.6596   -4.2961  -13.4358 O   0  0  0  0  0  0  0  0  0  0  0  0
   20.4626   -4.5294  -15.6668 O   0  0  0  0  0  0  0  0  0  0  0  0
  2  9  1  0
  2  1  1  6
  3  2  1  0
  4  3  1  0
  4  5  2  0
  6  5  1  0
  7  8  2  0
  7  6  1  0
  8  4  1  0
  9 11  1  0
 10  9  2  0
 11 12  1  0
 12 13  1  1
 13 14  1  0
 14 15  1  0
 15 19  1  0
 16 15  2  0
 17 12  1  0
 18 17  2  0
 21 20  1  0
 21 22  1  0
 22 24  1  0
 22 23  1  1
 24 25  1  6
 24 26  1  0
 25 17  1  0
 26 27  1  0
 28 26  2  0
M  END
$$$$
