HEI.pdb
     RDKit          3D

 28 28  0  0  1  0  0  0  0  0999 V2000
   27.2007  -19.7479  -15.4629 N   0  0  0  0  0  0  0  0  0  0  0  0
   27.4523  -18.8158  -14.3830 C   0  0  1  0  0  0  0  0  0  0  0  0
   27.4929  -17.4186  -14.9116 C   0  0  0  0  0  0  0  0  0  0  0  0
   28.5838  -17.3679  -15.9531 C   0  0  0  0  0  0  0  0  0  0  0  0
   29.3455  -18.4302  -16.3961 C   0  0  0  0  0  0  0  0  0  0  0  0
   30.2155  -18.0114  -17.3252 N   0  0  0  0  0  0  0  0  0  0  0  0
   29.9999  -16.6911  -17.4641 C   0  0  0  0  0  0  0  0  0  0  0  0
   29.0151  -16.2965  -16.6375 N   0  0  0  0  0  0  0  0  0  0  0  0
   26.5565  -19.0477  -13.2654 C   0  0  0  0  0  0  0  0  0  0  0  0
   25.4059  -18.5227  -13.2995 O   0  0  0  0  0  0  0  0  0  0  0  0
   26.8549  -19.8245  -12.1132 N   0  0  0  0  0  0  0  0  0  0  0  0
   25.8328  -20.1566  -11.1529 C   0  0  1  0  0  0  0  0  0  0  0  0
   24.7199  -20.9551  -11.7076 C   0  0  0  0  0  0  0  0  0  0  0  0
   23.5636  -21.2773  -10.8513 C   0  0  0  0  0  0  0  0  0  0  0  0
   22.3883  -20.4286  -10.9099 C   0  0  0  0  0  0  0  0  0  0  0  0
   21.9530  -20.0623  -12.0559 O   0  0  0  0  0  0  0  0  0  0  0  0
   26.4266  -20.7663   -9.9170 C   0  0  0  0  0  0  0  0  0  0  0  0
   27.1242  -21.8000   -9.9571 O   0  0  0  0  0  0  0  0  0  0  0  0
   21.6847  -19.9732   -9.8066 O   0  0  0  0  0  0  0  0  0  0  0  0
   29.1060  -18.2321   -6.3654 C   0  0  0  0  0  0  0  0  0  0  0  0
   28.4452  -19.3371   -7.1339 C   0  0  0  0  0  0  0  0  0  0  0  0
   27.1163  -19.7572   -6.5396 C   0  0  2  0  0  0  0  0  0  0  0  0
   27.3621  -20.1880   -5.1280 C   0  0  0  0  0  0  0  0  0  0  0  0
   26.4394  -20.7618   -7.3949 C   0  0  2  0  0  0  0  0  0  0  0  0
   26.1789  -20.1405   -8.6910 N   0  0  0  0  0  0  0  0  0  0  0  0
   25.2167  -21.3366   -6.8105 C   0  0  0  0  0  0  0  0  0  0  0  0
   23.9659  -20.7973   -6.9088 O   0  0  0  0  0  0  0  0  0  0  0  0
   25.3343  -22.4223   -6.1621 O   0  0  0  0  0  0  0  0  0  0  0  0
  2  9  1  0
  2  1  1  6
  3  2  1  0
  4  3  1  0
  4  5  2  0
  6  5  1  0
  7  8  2  0
  7  6  1  0
  8  4  1  0
  9 11  1  0
 10  9  2  0
 11 12  1  0
 12 13  1  6
 13 14  1  0
 14 15  1  0
 15 19  1  0
 16 15  2  0
 17 12  1  0
 18 17  2  0
 21 20  1  0
 21 22  1  0
 22 24  1  0
 22 23  1  1
 24 25  1  6
 24 26  1  0
 25 17  1  0
 26 27  1  0
 28 26  2  0
M  END
$$$$
