HEI.pdb
     RDKit          3D

 28 28  0  0  1  0  0  0  0  0999 V2000
   24.7035  -12.0206  -18.1779 N   0  0  0  0  0  0  0  0  0  0  0  0
   24.8036  -11.2158  -16.9777 C   0  0  1  0  0  0  0  0  0  0  0  0
   26.1956  -10.6936  -16.8260 C   0  0  0  0  0  0  0  0  0  0  0  0
   27.0929  -11.8818  -16.5808 C   0  0  0  0  0  0  0  0  0  0  0  0
   27.6938  -12.2237  -15.3862 C   0  0  0  0  0  0  0  0  0  0  0  0
   28.4183  -13.3401  -15.5434 N   0  0  0  0  0  0  0  0  0  0  0  0
   28.2719  -13.6966  -16.8319 C   0  0  0  0  0  0  0  0  0  0  0  0
   27.4722  -12.8191  -17.4639 N   0  0  0  0  0  0  0  0  0  0  0  0
   23.7428  -10.2279  -16.9138 C   0  0  0  0  0  0  0  0  0  0  0  0
   23.6637   -9.3712  -17.8414 O   0  0  0  0  0  0  0  0  0  0  0  0
   22.7643  -10.1298  -15.8876 N   0  0  0  0  0  0  0  0  0  0  0  0
   21.7438   -9.1128  -15.9255 C   0  0  1  0  0  0  0  0  0  0  0  0
   20.4276   -9.5593  -15.4233 C   0  0  0  0  0  0  0  0  0  0  0  0
   19.7164  -10.6448  -16.1231 C   0  0  0  0  0  0  0  0  0  0  0  0
   18.4469  -11.1075  -15.5947 C   0  0  0  0  0  0  0  0  0  0  0  0
   18.0869  -10.7143  -14.4315 O   0  0  0  0  0  0  0  0  0  0  0  0
   22.2155   -7.8459  -15.2745 C   0  0  0  0  0  0  0  0  0  0  0  0
   22.9516   -7.8524  -14.2670 O   0  0  0  0  0  0  0  0  0  0  0  0
   17.5752  -11.9560  -16.2578 O   0  0  0  0  0  0  0  0  0  0  0  0
   24.4225   -4.5536  -18.3664 C   0  0  0  0  0  0  0  0  0  0  0  0
   23.9276   -5.2553  -17.1372 C   0  0  0  0  0  0  0  0  0  0  0  0
   22.7551   -4.5501  -16.4864 C   0  0  2  0  0  0  0  0  0  0  0  0
   23.1805   -3.1507  -16.1710 C   0  0  0  0  0  0  0  0  0  0  0  0
   22.2357   -5.3245  -15.3333 C   0  0  2  0  0  0  0  0  0  0  0  0
   21.8064   -6.6294  -15.8300 N   0  0  0  0  0  0  0  0  0  0  0  0
   21.1675   -4.6509  -14.5770 C   0  0  0  0  0  0  0  0  0  0  0  0
   19.8453   -4.6393  -14.9185 O   0  0  0  0  0  0  0  0  0  0  0  0
   21.5025   -4.0300  -13.5210 O   0  0  0  0  0  0  0  0  0  0  0  0
  2  9  1  0
  2  1  1  6
  3  2  1  0
  4  3  1  0
  4  5  2  0
  6  5  1  0
  7  8  2  0
  7  6  1  0
  8  4  1  0
  9 11  1  0
 10  9  2  0
 11 12  1  0
 12 13  1  1
 13 14  1  0
 14 15  1  0
 15 19  1  0
 16 15  2  0
 17 12  1  0
 18 17  2  0
 21 20  1  0
 21 22  1  0
 22 24  1  0
 22 23  1  1
 24 25  1  6
 24 26  1  0
 25 17  1  0
 26 27  1  0
 28 26  2  0
M  END
$$$$
