CGV.pdb
     RDKit          3D

 18 17  0  0  1  0  0  0  0  0999 V2000
   24.1125  -20.6693  -10.6334 N   0  0  0  0  0  0  0  0  0  0  0  0
   25.5462  -20.4669  -10.9110 C   0  0  1  0  0  0  0  0  0  0  0  0
   26.2395  -21.2542   -9.7889 C   0  0  0  0  0  0  0  0  0  0  0  0
   26.3750  -20.2773   -8.2967 S   0  0  0  0  0  0  0  0  0  0  0  0
   25.8285  -21.0906  -12.2196 C   0  0  0  0  0  0  0  0  0  0  0  0
   25.3843  -22.2379  -12.4711 O   0  0  0  0  0  0  0  0  0  0  0  0
   26.5943  -20.4541  -13.2443 N   0  0  0  0  0  0  0  0  0  0  0  0
   26.7951  -21.1279  -14.4828 C   0  0  0  0  0  0  0  0  0  0  0  0
   25.6715  -21.1260  -15.4041 C   0  0  0  0  0  0  0  0  0  0  0  0
   25.9170  -21.5088  -16.6002 O   0  0  0  0  0  0  0  0  0  0  0  0
   21.4883  -20.6923  -14.4234 C   0  0  0  0  0  0  0  0  0  0  0  0
   22.0569  -21.5303  -15.5271 C   0  0  2  0  0  0  0  0  0  0  0  0
   22.3432  -22.9012  -14.9807 C   0  0  0  0  0  0  0  0  0  0  0  0
   23.2770  -20.8518  -16.0923 C   0  0  2  0  0  0  0  0  0  0  0  0
   24.3524  -20.7526  -15.1290 N   0  0  0  0  0  0  0  0  0  0  0  0
   22.9576  -19.5368  -16.7022 C   0  0  0  0  0  0  0  0  0  0  0  0
   22.2857  -19.4280  -17.7642 O   0  0  0  0  0  0  0  0  0  0  0  0
   23.3864  -18.3474  -16.1295 O   0  0  0  0  0  0  0  0  0  0  0  0
  2  1  1  1
  2  3  1  0
  3  4  1  0
  5  6  2  0
  5  2  1  0
  7  5  1  0
  8  9  1  0
  8  7  1  0
  9 15  1  0
 10  9  2  0
 12 11  1  1
 13 12  1  0
 14 12  1  0
 14 16  1  0
 14 15  1  1
 16 17  2  0
 16 18  1  0
M  END
$$$$
