CGV.pdb
     RDKit          3D

 18 17  0  0  1  0  0  0  0  0999 V2000
   24.9253  -24.0265  -15.5512 N   0  0  0  0  0  0  0  0  0  0  0  0
   25.1324  -22.6637  -16.0743 C   0  0  1  0  0  0  0  0  0  0  0  0
   23.9584  -22.4747  -17.0468 C   0  0  0  0  0  0  0  0  0  0  0  0
   23.8430  -20.7794  -17.6053 S   0  0  0  0  0  0  0  0  0  0  0  0
   25.0024  -21.7351  -14.9332 C   0  0  0  0  0  0  0  0  0  0  0  0
   23.9643  -21.7581  -14.2271 O   0  0  0  0  0  0  0  0  0  0  0  0
   26.0098  -20.7882  -14.5724 N   0  0  0  0  0  0  0  0  0  0  0  0
   25.7814  -19.9155  -13.4703 C   0  0  0  0  0  0  0  0  0  0  0  0
   25.9059  -20.5050  -12.1482 C   0  0  0  0  0  0  0  0  0  0  0  0
   26.0802  -21.7719  -12.1053 O   0  0  0  0  0  0  0  0  0  0  0  0
   26.8873  -20.5589   -7.3796 C   0  0  0  0  0  0  0  0  0  0  0  0
   26.7840  -19.7644   -8.6451 C   0  0  2  0  0  0  0  0  0  0  0  0
   26.2266  -18.4093   -8.3088 C   0  0  0  0  0  0  0  0  0  0  0  0
   25.9441  -20.5189   -9.6420 C   0  0  2  0  0  0  0  0  0  0  0  0
   25.8565  -19.8420  -10.9181 N   0  0  0  0  0  0  0  0  0  0  0  0
   24.6036  -20.8606   -9.1040 C   0  0  0  0  0  0  0  0  0  0  0  0
   23.5385  -20.3934   -9.5925 O   0  0  0  0  0  0  0  0  0  0  0  0
   24.4516  -21.7202   -8.0249 O   0  0  0  0  0  0  0  0  0  0  0  0
  2  1  1  1
  2  3  1  0
  3  4  1  0
  5  6  2  0
  5  2  1  0
  7  5  1  0
  8  9  1  0
  8  7  1  0
  9 15  1  0
 10  9  2  0
 12 11  1  1
 13 12  1  0
 14 12  1  0
 14 16  1  0
 14 15  1  6
 16 17  2  0
 16 18  1  0
M  END
$$$$
