CGV.pdb
     RDKit          3D

 18 17  0  0  1  0  0  0  0  0999 V2000
   25.7197  -19.2811   -7.9203 N   0  0  0  0  0  0  0  0  0  0  0  0
   26.7561  -19.9742   -8.7072 C   0  0  1  0  0  0  0  0  0  0  0  0
   27.6913  -20.5499   -7.6331 C   0  0  0  0  0  0  0  0  0  0  0  0
   28.4288  -19.2512   -6.6490 S   0  0  0  0  0  0  0  0  0  0  0  0
   26.0873  -21.0687   -9.4393 C   0  0  0  0  0  0  0  0  0  0  0  0
   24.9910  -21.5174   -9.0228 O   0  0  0  0  0  0  0  0  0  0  0  0
   26.6228  -21.6642  -10.6227 N   0  0  0  0  0  0  0  0  0  0  0  0
   26.5849  -20.9362  -11.8462 C   0  0  0  0  0  0  0  0  0  0  0  0
   25.2666  -20.5644  -12.3312 C   0  0  0  0  0  0  0  0  0  0  0  0
   24.3726  -20.3526  -11.4406 O   0  0  0  0  0  0  0  0  0  0  0  0
   24.2935  -19.5091  -16.4364 C   0  0  0  0  0  0  0  0  0  0  0  0
   23.9779  -18.7191  -15.2037 C   0  0  2  0  0  0  0  0  0  0  0  0
   25.1273  -17.7894  -14.9305 C   0  0  0  0  0  0  0  0  0  0  0  0
   23.6960  -19.6622  -14.0638 C   0  0  2  0  0  0  0  0  0  0  0  0
   24.8667  -20.4124  -13.6624 N   0  0  0  0  0  0  0  0  0  0  0  0
   22.5388  -20.5495  -14.3409 C   0  0  0  0  0  0  0  0  0  0  0  0
   21.3611  -20.1117  -14.4528 O   0  0  0  0  0  0  0  0  0  0  0  0
   22.6947  -21.9204  -14.4926 O   0  0  0  0  0  0  0  0  0  0  0  0
  2  1  1  1
  2  3  1  0
  3  4  1  0
  5  6  2  0
  5  2  1  0
  7  5  1  0
  8  9  1  0
  8  7  1  0
  9 15  1  0
 10  9  2  0
 12 11  1  6
 13 12  1  0
 14 12  1  0
 14 16  1  0
 14 15  1  6
 16 17  2  0
 16 18  1  0
M  END
$$$$
