CGV.pdb
     RDKit          3D

 18 17  0  0  1  0  0  0  0  0999 V2000
   18.5974  -25.5171  -10.8262 N   0  0  0  0  0  0  0  0  0  0  0  0
   17.9223  -24.6657   -9.8298 C   0  0  1  0  0  0  0  0  0  0  0  0
   16.4367  -25.0072  -10.0194 C   0  0  0  0  0  0  0  0  0  0  0  0
   15.5011  -23.5740  -10.5389 S   0  0  0  0  0  0  0  0  0  0  0  0
   18.3801  -25.1085   -8.4972 C   0  0  0  0  0  0  0  0  0  0  0  0
   19.0038  -26.1923   -8.3818 O   0  0  0  0  0  0  0  0  0  0  0  0
   18.1528  -24.3618   -7.3004 N   0  0  0  0  0  0  0  0  0  0  0  0
   18.6787  -24.8454   -6.0684 C   0  0  0  0  0  0  0  0  0  0  0  0
   17.8072  -25.7137   -5.2953 C   0  0  0  0  0  0  0  0  0  0  0  0
   16.6530  -25.9503   -5.7946 O   0  0  0  0  0  0  0  0  0  0  0  0
   18.4917  -27.4248   -1.3335 C   0  0  0  0  0  0  0  0  0  0  0  0
   17.8976  -28.1839   -2.4799 C   0  0  2  0  0  0  0  0  0  0  0  0
   18.9982  -28.9461   -3.1637 C   0  0  0  0  0  0  0  0  0  0  0  0
   17.1828  -27.2265   -3.3968 C   0  0  2  0  0  0  0  0  0  0  0  0
   18.0895  -26.3191   -4.0669 N   0  0  0  0  0  0  0  0  0  0  0  0
   16.0843  -26.5029   -2.7090 C   0  0  0  0  0  0  0  0  0  0  0  0
   16.1977  -25.3069   -2.3244 O   0  0  0  0  0  0  0  0  0  0  0  0
   14.8638  -27.1114   -2.4510 O   0  0  0  0  0  0  0  0  0  0  0  0
  2  1  1  6
  2  3  1  0
  3  4  1  0
  5  6  2  0
  5  2  1  0
  7  5  1  0
  8  9  1  0
  8  7  1  0
  9 15  1  0
 10  9  2  0
 12 11  1  1
 13 12  1  0
 14 12  1  0
 14 16  1  0
 14 15  1  1
 16 17  2  0
 16 18  1  0
M  END
$$$$
