CGV.pdb
     RDKit          3D

 18 17  0  0  1  0  0  0  0  0999 V2000
   17.9219  -13.1193  -14.6174 N   0  0  0  0  0  0  0  0  0  0  0  0
   17.1579  -12.2729  -15.5520 C   0  0  1  0  0  0  0  0  0  0  0  0
   15.6958  -12.5873  -15.2013 C   0  0  0  0  0  0  0  0  0  0  0  0
   15.2448  -14.2403  -15.7144 S   0  0  0  0  0  0  0  0  0  0  0  0
   17.4697  -10.8677  -15.2211 C   0  0  0  0  0  0  0  0  0  0  0  0
   17.1292  -10.4005  -14.1064 O   0  0  0  0  0  0  0  0  0  0  0  0
   18.1528   -9.9839  -16.1120 N   0  0  0  0  0  0  0  0  0  0  0  0
   18.3738   -8.6332  -15.7183 C   0  0  0  0  0  0  0  0  0  0  0  0
   19.6967   -8.3228  -15.2038 C   0  0  0  0  0  0  0  0  0  0  0  0
   20.3955   -9.3149  -14.7980 O   0  0  0  0  0  0  0  0  0  0  0  0
   22.1686   -5.2225  -16.4084 C   0  0  0  0  0  0  0  0  0  0  0  0
   22.5876   -6.5167  -15.7817 C   0  0  2  0  0  0  0  0  0  0  0  0
   22.6229   -7.5714  -16.8525 C   0  0  0  0  0  0  0  0  0  0  0  0
   21.6498   -6.8519  -14.6518 C   0  0  2  0  0  0  0  0  0  0  0  0
   20.2906   -7.0610  -15.1028 N   0  0  0  0  0  0  0  0  0  0  0  0
   21.7203   -5.8606  -13.5493 C   0  0  0  0  0  0  0  0  0  0  0  0
   20.7733   -5.0692  -13.2884 O   0  0  0  0  0  0  0  0  0  0  0  0
   22.8432   -5.7525  -12.7406 O   0  0  0  0  0  0  0  0  0  0  0  0
  2  1  1  1
  2  3  1  0
  3  4  1  0
  5  6  2  0
  5  2  1  0
  7  5  1  0
  8  9  1  0
  8  7  1  0
  9 15  1  0
 10  9  2  0
 12 11  1  6
 13 12  1  0
 14 12  1  0
 14 16  1  0
 14 15  1  6
 16 17  2  0
 16 18  1  0
M  END
$$$$
