CGV.pdb
     RDKit          3D

 18 17  0  0  1  0  0  0  0  0999 V2000
   25.0662  -22.1857  -12.3389 N   0  0  0  0  0  0  0  0  0  0  0  0
   25.4226  -20.8569  -11.8089 C   0  0  1  0  0  0  0  0  0  0  0  0
   26.2513  -21.1845  -10.5577 C   0  0  0  0  0  0  0  0  0  0  0  0
   25.2653  -21.0516   -9.0714 S   0  0  0  0  0  0  0  0  0  0  0  0
   26.2704  -20.1971  -12.8224 C   0  0  0  0  0  0  0  0  0  0  0  0
   26.7777  -20.8774  -13.7480 O   0  0  0  0  0  0  0  0  0  0  0  0
   26.5566  -18.7972  -12.8163 N   0  0  0  0  0  0  0  0  0  0  0  0
   27.3669  -18.2484  -13.8509 C   0  0  0  0  0  0  0  0  0  0  0  0
   26.6605  -17.6261  -14.9577 C   0  0  0  0  0  0  0  0  0  0  0  0
   25.4747  -17.2120  -14.7136 O   0  0  0  0  0  0  0  0  0  0  0  0
   26.8561  -16.1745  -19.6220 C   0  0  0  0  0  0  0  0  0  0  0  0
   27.2169  -15.9157  -18.1915 C   0  0  2  0  0  0  0  0  0  0  0  0
   28.6896  -16.1658  -18.0223 C   0  0  0  0  0  0  0  0  0  0  0  0
   26.3640  -16.7764  -17.2971 C   0  0  2  0  0  0  0  0  0  0  0  0
   27.1324  -17.4295  -16.2591 N   0  0  0  0  0  0  0  0  0  0  0  0
   25.5395  -17.7423  -18.0655 C   0  0  0  0  0  0  0  0  0  0  0  0
   25.9560  -18.8918  -18.3758 O   0  0  0  0  0  0  0  0  0  0  0  0
   24.2549  -17.4270  -18.4864 O   0  0  0  0  0  0  0  0  0  0  0  0
  2  1  1  6
  2  3  1  0
  3  4  1  0
  5  6  2  0
  5  2  1  0
  7  5  1  0
  8  9  1  0
  8  7  1  0
  9 15  1  0
 10  9  2  0
 12 11  1  6
 13 12  1  0
 14 12  1  0
 14 16  1  0
 14 15  1  1
 16 17  2  0
 16 18  1  0
M  END
$$$$
