CGV.pdb
     RDKit          3D

 18 17  0  0  1  0  0  0  0  0999 V2000
   25.5930  -22.8175  -12.5725 N   0  0  0  0  0  0  0  0  0  0  0  0
   25.4271  -21.4157  -12.1471 C   0  0  1  0  0  0  0  0  0  0  0  0
   26.1496  -21.3681  -10.7923 C   0  0  0  0  0  0  0  0  0  0  0  0
   25.0062  -21.0393   -9.4567 S   0  0  0  0  0  0  0  0  0  0  0  0
   26.1372  -20.5750  -13.1322 C   0  0  0  0  0  0  0  0  0  0  0  0
   27.3030  -20.8800  -13.4854 O   0  0  0  0  0  0  0  0  0  0  0  0
   25.5662  -19.4067  -13.7244 N   0  0  0  0  0  0  0  0  0  0  0  0
   26.3243  -18.6688  -14.6779 C   0  0  0  0  0  0  0  0  0  0  0  0
   25.6663  -17.5148  -15.2665 C   0  0  0  0  0  0  0  0  0  0  0  0
   24.4465  -17.3237  -14.9306 O   0  0  0  0  0  0  0  0  0  0  0  0
   26.5953  -13.5850  -17.7859 C   0  0  0  0  0  0  0  0  0  0  0  0
   26.1208  -14.1578  -16.4858 C   0  0  2  0  0  0  0  0  0  0  0  0
   27.2932  -14.2379  -15.5482 C   0  0  0  0  0  0  0  0  0  0  0  0
   25.4705  -15.4932  -16.7354 C   0  0  2  0  0  0  0  0  0  0  0  0
   26.2179  -16.5903  -16.1588 N   0  0  0  0  0  0  0  0  0  0  0  0
   25.1800  -15.7174  -18.1737 C   0  0  0  0  0  0  0  0  0  0  0  0
   25.9610  -16.3563  -18.9308 O   0  0  0  0  0  0  0  0  0  0  0  0
   24.0225  -15.2309  -18.7652 O   0  0  0  0  0  0  0  0  0  0  0  0
  2  1  1  6
  2  3  1  0
  3  4  1  0
  5  6  2  0
  5  2  1  0
  7  5  1  0
  8  9  1  0
  8  7  1  0
  9 15  1  0
 10  9  2  0
 12 11  1  6
 13 12  1  0
 14 12  1  0
 14 16  1  0
 14 15  1  6
 16 17  2  0
 16 18  1  0
M  END
$$$$
