CGV.pdb
     RDKit          3D

 18 17  0  0  1  0  0  0  0  0999 V2000
   17.9715  -14.6267  -17.2084 N   0  0  0  0  0  0  0  0  0  0  0  0
   18.7416  -14.1553  -18.3739 C   0  0  1  0  0  0  0  0  0  0  0  0
   17.8549  -14.5452  -19.5662 C   0  0  0  0  0  0  0  0  0  0  0  0
   18.1497  -16.2357  -20.0707 S   0  0  0  0  0  0  0  0  0  0  0  0
   18.8348  -12.6852  -18.2683 C   0  0  0  0  0  0  0  0  0  0  0  0
   17.8115  -12.0155  -17.9834 O   0  0  0  0  0  0  0  0  0  0  0  0
   20.0474  -11.9581  -18.4746 N   0  0  0  0  0  0  0  0  0  0  0  0
   20.0420  -10.5412  -18.3307 C   0  0  0  0  0  0  0  0  0  0  0  0
   20.1609  -10.0333  -16.9746 C   0  0  0  0  0  0  0  0  0  0  0  0
   19.1356  -10.1766  -16.2225 O   0  0  0  0  0  0  0  0  0  0  0  0
   23.7069   -9.6682  -14.8499 C   0  0  0  0  0  0  0  0  0  0  0  0
   22.3512   -9.8535  -14.2406 C   0  0  2  0  0  0  0  0  0  0  0  0
   22.0329  -11.3227  -14.2325 C   0  0  0  0  0  0  0  0  0  0  0  0
   21.3438   -9.0340  -15.0036 C   0  0  2  0  0  0  0  0  0  0  0  0
   21.2706   -9.4056  -16.4004 N   0  0  0  0  0  0  0  0  0  0  0  0
   21.5575   -7.5755  -14.8299 C   0  0  0  0  0  0  0  0  0  0  0  0
   22.0336   -6.8472  -15.7432 O   0  0  0  0  0  0  0  0  0  0  0  0
   21.2413   -6.9317  -13.6416 O   0  0  0  0  0  0  0  0  0  0  0  0
  2  1  1  1
  2  3  1  0
  3  4  1  0
  5  6  2  0
  5  2  1  0
  7  5  1  0
  8  9  1  0
  8  7  1  0
  9 15  1  0
 10  9  2  0
 12 11  1  6
 13 12  1  0
 14 12  1  0
 14 16  1  0
 14 15  1  6
 16 17  2  0
 16 18  1  0
M  END
$$$$
