CGV.pdb
     RDKit          3D

 18 17  0  0  1  0  0  0  0  0999 V2000
   27.7784  -21.2284  -11.0139 N   0  0  0  0  0  0  0  0  0  0  0  0
   26.3270  -21.4232  -10.8431 C   0  0  1  0  0  0  0  0  0  0  0  0
   25.9651  -20.4333   -9.7256 C   0  0  0  0  0  0  0  0  0  0  0  0
   24.8654  -21.1783   -8.5278 S   0  0  0  0  0  0  0  0  0  0  0  0
   25.6818  -21.0198  -12.1089 C   0  0  0  0  0  0  0  0  0  0  0  0
   26.0712  -19.9847  -12.7037 O   0  0  0  0  0  0  0  0  0  0  0  0
   24.6154  -21.7524  -12.7153 N   0  0  0  0  0  0  0  0  0  0  0  0
   24.0946  -21.3151  -13.9667 C   0  0  0  0  0  0  0  0  0  0  0  0
   22.8045  -20.6478  -13.9271 C   0  0  0  0  0  0  0  0  0  0  0  0
   22.3058  -20.4441  -12.7665 O   0  0  0  0  0  0  0  0  0  0  0  0
   20.3580  -19.2223  -17.2777 C   0  0  0  0  0  0  0  0  0  0  0  0
   20.4921  -18.5470  -15.9475 C   0  0  2  0  0  0  0  0  0  0  0  0
   21.5858  -17.5203  -16.0462 C   0  0  0  0  0  0  0  0  0  0  0  0
   20.7472  -19.5829  -14.8843 C   0  0  2  0  0  0  0  0  0  0  0  0
   22.0479  -20.2038  -15.0159 N   0  0  0  0  0  0  0  0  0  0  0  0
   19.6591  -20.5895  -14.8070 C   0  0  0  0  0  0  0  0  0  0  0  0
   19.7981  -21.7707  -15.2272 O   0  0  0  0  0  0  0  0  0  0  0  0
   18.4204  -20.2795  -14.2629 O   0  0  0  0  0  0  0  0  0  0  0  0
  2  1  1  6
  2  3  1  0
  3  4  1  0
  5  6  2  0
  5  2  1  0
  7  5  1  0
  8  9  1  0
  8  7  1  0
  9 15  1  0
 10  9  2  0
 12 11  1  6
 13 12  1  0
 14 12  1  0
 14 16  1  0
 14 15  1  6
 16 17  2  0
 16 18  1  0
M  END
$$$$
