CGV.pdb
     RDKit          3D

 18 17  0  0  1  0  0  0  0  0999 V2000
   19.3124  -10.0721  -18.6905 N   0  0  0  0  0  0  0  0  0  0  0  0
   17.8423  -10.1424  -18.6043 C   0  0  1  0  0  0  0  0  0  0  0  0
   17.5838  -11.5742  -18.1117 C   0  0  0  0  0  0  0  0  0  0  0  0
   18.0649  -12.7816  -19.3405 S   0  0  0  0  0  0  0  0  0  0  0  0
   17.4193   -9.1673  -17.5788 C   0  0  0  0  0  0  0  0  0  0  0  0
   16.2131   -9.1099  -17.2345 O   0  0  0  0  0  0  0  0  0  0  0  0
   18.3195   -8.2623  -16.9367 N   0  0  0  0  0  0  0  0  0  0  0  0
   17.8233   -7.3833  -15.9320 C   0  0  0  0  0  0  0  0  0  0  0  0
   18.8042   -6.8568  -14.9984 C   0  0  0  0  0  0  0  0  0  0  0  0
   18.3754   -6.0074  -14.1429 O   0  0  0  0  0  0  0  0  0  0  0  0
   22.6305   -8.6143  -14.3204 C   0  0  0  0  0  0  0  0  0  0  0  0
   21.7286   -8.0636  -13.2590 C   0  0  2  0  0  0  0  0  0  0  0  0
   20.8019   -9.1591  -12.8104 C   0  0  0  0  0  0  0  0  0  0  0  0
   21.0032   -6.8576  -13.7953 C   0  0  2  0  0  0  0  0  0  0  0  0
   20.1641   -7.1750  -14.9310 N   0  0  0  0  0  0  0  0  0  0  0  0
   21.9241   -5.7304  -14.0860 C   0  0  0  0  0  0  0  0  0  0  0  0
   22.6463   -5.1997  -13.1984 O   0  0  0  0  0  0  0  0  0  0  0  0
   22.0389   -5.1971  -15.3623 O   0  0  0  0  0  0  0  0  0  0  0  0
  2  1  1  1
  2  3  1  0
  3  4  1  0
  5  6  2  0
  5  2  1  0
  7  5  1  0
  8  9  1  0
  8  7  1  0
  9 15  1  0
 10  9  2  0
 12 11  1  6
 13 12  1  0
 14 12  1  0
 14 16  1  0
 14 15  1  6
 16 17  2  0
 16 18  1  0
M  END
$$$$
