CGV.pdb
     RDKit          3D

 18 17  0  0  1  0  0  0  0  0999 V2000
   27.2134  -20.4124  -12.8254 N   0  0  0  0  0  0  0  0  0  0  0  0
   26.4404  -21.6677  -12.8157 C   0  0  1  0  0  0  0  0  0  0  0  0
   26.1162  -21.8733  -11.3283 C   0  0  0  0  0  0  0  0  0  0  0  0
   27.4224  -21.2385  -10.2842 S   0  0  0  0  0  0  0  0  0  0  0  0
   25.1995  -21.4207  -13.5775 C   0  0  0  0  0  0  0  0  0  0  0  0
   24.3868  -22.3594  -13.7648 O   0  0  0  0  0  0  0  0  0  0  0  0
   24.8563  -20.1478  -14.1285 N   0  0  0  0  0  0  0  0  0  0  0  0
   23.6098  -19.9936  -14.7999 C   0  0  0  0  0  0  0  0  0  0  0  0
   22.4448  -20.5379  -14.1234 C   0  0  0  0  0  0  0  0  0  0  0  0
   21.9282  -21.5890  -14.6388 O   0  0  0  0  0  0  0  0  0  0  0  0
   19.5490  -21.1963  -10.2188 C   0  0  0  0  0  0  0  0  0  0  0  0
   20.7529  -20.5382  -10.8195 C   0  0  2  0  0  0  0  0  0  0  0  0
   20.7764  -19.1013  -10.3781 C   0  0  0  0  0  0  0  0  0  0  0  0
   20.7145  -20.6966  -12.3168 C   0  0  2  0  0  0  0  0  0  0  0  0
   21.8257  -20.0409  -12.9724 N   0  0  0  0  0  0  0  0  0  0  0  0
   19.4105  -20.2834  -12.8930 C   0  0  0  0  0  0  0  0  0  0  0  0
   18.4433  -21.0828  -13.0222 O   0  0  0  0  0  0  0  0  0  0  0  0
   19.1861  -18.9830  -13.3235 O   0  0  0  0  0  0  0  0  0  0  0  0
  2  1  1  1
  2  3  1  0
  3  4  1  0
  5  6  2  0
  5  2  1  0
  7  5  1  0
  8  9  1  0
  8  7  1  0
  9 15  1  0
 10  9  2  0
 12 11  1  1
 13 12  1  0
 14 12  1  0
 14 16  1  0
 14 15  1  6
 16 17  2  0
 16 18  1  0
M  END
$$$$
