AYQ.pdb
     RDKit          3D

 27 27  0  0  1  0  0  0  0  0999 V2000
    9.2714  -19.2803   19.9765 C   0  0  0  0  0  0  0  0  0  0  0  0
    8.9255  -17.8534   19.6112 C   0  0  2  0  0  0  0  0  0  0  0  0
    9.7141  -17.3648   18.4994 N   0  0  0  0  0  0  0  0  0  0  0  0
    9.0791  -16.9437   20.7831 C   0  0  0  0  0  0  0  0  0  0  0  0
   10.2444  -16.6232   21.1047 O   0  0  0  0  0  0  0  0  0  0  0  0
    7.1898  -11.8319   27.6574 O   0  0  0  0  0  0  0  0  0  0  0  0
    7.1220  -12.5570   26.4516 C   0  0  0  0  0  0  0  0  0  0  0  0
    7.6928  -12.0693   25.2979 C   0  0  0  0  0  0  0  0  0  0  0  0
    7.5824  -12.8480   24.1438 C   0  0  0  0  0  0  0  0  0  0  0  0
    6.9386  -14.0584   24.1173 C   0  0  0  0  0  0  0  0  0  0  0  0
    6.8255  -14.8856   22.8968 C   0  0  0  0  0  0  0  0  0  0  0  0
    8.0966  -15.6225   22.6809 C   0  0  2  0  0  0  0  0  0  0  0  0
    7.9801  -16.4559   21.5087 N   0  0  0  0  0  0  0  0  0  0  0  0
    8.5318  -16.4658   23.8211 C   0  0  0  0  0  0  0  0  0  0  0  0
    7.9313  -17.5504   24.0185 O   0  0  0  0  0  0  0  0  0  0  0  0
    6.3783  -14.5194   25.2855 C   0  0  0  0  0  0  0  0  0  0  0  0
    6.4759  -13.7662   26.4356 C   0  0  0  0  0  0  0  0  0  0  0  0
   13.9593  -18.2188   25.0593 N   0  0  0  0  0  0  0  0  0  0  0  0
   13.0261  -18.7794   24.1591 C   0  0  0  0  0  0  0  0  0  0  0  0
   13.4080  -19.5252   23.2456 O   0  0  0  0  0  0  0  0  0  0  0  0
   11.5858  -18.4168   24.3837 C   0  0  0  0  0  0  0  0  0  0  0  0
   11.4459  -17.4265   25.5010 C   0  0  0  0  0  0  0  0  0  0  0  0
   10.0173  -17.0453   25.6765 C   0  0  2  0  0  0  0  0  0  0  0  0
    9.6035  -16.0637   24.6767 N   0  0  0  0  0  0  0  0  0  0  0  0
    9.8298  -16.3981   26.9891 C   0  0  0  0  0  0  0  0  0  0  0  0
    9.5435  -15.1470   26.9891 O   0  0  0  0  0  0  0  0  0  0  0  0
    9.9235  -16.9837   28.2206 O   0  0  0  0  0  0  0  0  0  0  0  0
  2  1  1  1
  3  2  1  0
  4 13  1  0
  4  2  1  0
  5  4  2  0
  7  6  1  0
  8  7  2  0
  9  8  1  0
 10  9  2  0
 10 16  1  0
 12 11  1  1
 11 10  1  0
 12 14  1  0
 12 13  1  0
 14 15  2  0
 16 17  2  0
 17  7  1  0
 19 18  1  0
 19 21  1  0
 20 19  2  0
 22 21  1  0
 23 22  1  6
 24 14  1  0
 24 23  1  0
 25 23  1  0
 25 27  1  0
 26 25  2  0
M  END
$$$$
