AYQ.pdb
     RDKit          3D

 27 27  0  0  1  0  0  0  0  0999 V2000
    7.6775  -15.1336   18.8436 C   0  0  0  0  0  0  0  0  0  0  0  0
    7.3040  -13.8705   19.5879 C   0  0  2  0  0  0  0  0  0  0  0  0
    7.6158  -12.6754   18.8320 N   0  0  0  0  0  0  0  0  0  0  0  0
    7.9654  -13.8153   20.9235 C   0  0  0  0  0  0  0  0  0  0  0  0
    9.1098  -13.3128   20.9706 O   0  0  0  0  0  0  0  0  0  0  0  0
    9.3379  -14.0112   29.5587 O   0  0  0  0  0  0  0  0  0  0  0  0
    8.7338  -14.1076   28.2898 C   0  0  0  0  0  0  0  0  0  0  0  0
    8.3837  -15.3298   27.7622 C   0  0  0  0  0  0  0  0  0  0  0  0
    7.7892  -15.3411   26.4985 C   0  0  0  0  0  0  0  0  0  0  0  0
    7.5455  -14.2010   25.7767 C   0  0  0  0  0  0  0  0  0  0  0  0
    6.9118  -14.2119   24.4406 C   0  0  0  0  0  0  0  0  0  0  0  0
    7.9654  -14.2647   23.3955 C   0  0  2  0  0  0  0  0  0  0  0  0
    7.3513  -14.2993   22.0901 N   0  0  0  0  0  0  0  0  0  0  0  0
    8.9021  -15.4094   23.5094 C   0  0  0  0  0  0  0  0  0  0  0  0
    8.5463  -16.5153   23.0338 O   0  0  0  0  0  0  0  0  0  0  0  0
    7.9064  -12.9948   26.3300 C   0  0  0  0  0  0  0  0  0  0  0  0
    8.4945  -12.9617   27.5760 C   0  0  0  0  0  0  0  0  0  0  0  0
   14.6031  -15.7095   21.9991 N   0  0  0  0  0  0  0  0  0  0  0  0
   14.5896  -16.9076   22.7475 C   0  0  0  0  0  0  0  0  0  0  0  0
   15.5808  -17.6517   22.7553 O   0  0  0  0  0  0  0  0  0  0  0  0
   13.3277  -17.2023   23.5070 C   0  0  0  0  0  0  0  0  0  0  0  0
   12.3756  -16.0456   23.4427 C   0  0  0  0  0  0  0  0  0  0  0  0
   11.0648  -16.4225   24.0399 C   0  0  2  0  0  0  0  0  0  0  0  0
   10.1762  -15.2673   24.1412 N   0  0  0  0  0  0  0  0  0  0  0  0
   11.2644  -16.9087   25.4185 C   0  0  0  0  0  0  0  0  0  0  0  0
   10.4576  -17.8123   25.8430 O   0  0  0  0  0  0  0  0  0  0  0  0
   12.2224  -16.5064   26.3067 O   0  0  0  0  0  0  0  0  0  0  0  0
  2  1  1  6
  3  2  1  0
  4 13  1  0
  4  2  1  0
  5  4  2  0
  7  6  1  0
  8  7  2  0
  9  8  1  0
 10  9  2  0
 10 16  1  0
 12 11  1  1
 11 10  1  0
 12 14  1  0
 12 13  1  0
 14 15  2  0
 16 17  2  0
 17  7  1  0
 19 18  1  0
 19 21  1  0
 20 19  2  0
 22 21  1  0
 23 22  1  1
 24 14  1  0
 24 23  1  0
 25 23  1  0
 25 27  1  0
 26 25  2  0
M  END
$$$$
