AYQ.pdb
     RDKit          3D

 27 27  0  0  1  0  0  0  0  0999 V2000
    7.8871  -20.0424   21.3111 C   0  0  0  0  0  0  0  0  0  0  0  0
    8.2871  -18.7623   20.6109 C   0  0  2  0  0  0  0  0  0  0  0  0
    9.2328  -18.9952   19.5393 N   0  0  0  0  0  0  0  0  0  0  0  0
    8.8446  -17.7708   21.5755 C   0  0  0  0  0  0  0  0  0  0  0  0
   10.0838  -17.7775   21.7447 O   0  0  0  0  0  0  0  0  0  0  0  0
    7.5462  -12.3980   17.9280 O   0  0  0  0  0  0  0  0  0  0  0  0
    7.5251  -12.9826   19.2095 C   0  0  0  0  0  0  0  0  0  0  0  0
    6.5198  -13.8477   19.5776 C   0  0  0  0  0  0  0  0  0  0  0  0
    6.5702  -14.3853   20.8656 C   0  0  0  0  0  0  0  0  0  0  0  0
    7.5657  -14.0892   21.7610 C   0  0  0  0  0  0  0  0  0  0  0  0
    7.6222  -14.6618   23.1232 C   0  0  0  0  0  0  0  0  0  0  0  0
    8.5499  -15.8213   23.1328 C   0  0  2  0  0  0  0  0  0  0  0  0
    8.0350  -16.8605   22.2742 N   0  0  0  0  0  0  0  0  0  0  0  0
    8.8131  -16.4003   24.4730 C   0  0  0  0  0  0  0  0  0  0  0  0
    7.8817  -17.0186   25.0443 O   0  0  0  0  0  0  0  0  0  0  0  0
    8.5562  -13.2216   21.3643 C   0  0  0  0  0  0  0  0  0  0  0  0
    8.5250  -12.6799   20.0974 C   0  0  0  0  0  0  0  0  0  0  0  0
   11.9054  -21.9031   26.2719 N   0  0  0  0  0  0  0  0  0  0  0  0
   12.2547  -20.6120   25.8172 C   0  0  0  0  0  0  0  0  0  0  0  0
   13.1221  -20.4697   24.9433 O   0  0  0  0  0  0  0  0  0  0  0  0
   11.5217  -19.4638   26.4502 C   0  0  0  0  0  0  0  0  0  0  0  0
   11.1915  -18.4090   25.4368 C   0  0  0  0  0  0  0  0  0  0  0  0
   10.4276  -17.3017   26.0749 C   0  0  2  0  0  0  0  0  0  0  0  0
   10.0878  -16.2637   25.1046 N   0  0  0  0  0  0  0  0  0  0  0  0
   11.2598  -16.6466   27.1020 C   0  0  0  0  0  0  0  0  0  0  0  0
   11.8340  -15.5461   26.7756 O   0  0  0  0  0  0  0  0  0  0  0  0
   11.4912  -17.0788   28.3780 O   0  0  0  0  0  0  0  0  0  0  0  0
  2  1  1  1
  3  2  1  0
  4 13  1  0
  4  2  1  0
  5  4  2  0
  7  6  1  0
  8  7  2  0
  9  8  1  0
 10  9  2  0
 10 16  1  0
 12 11  1  1
 11 10  1  0
 12 14  1  0
 12 13  1  0
 14 15  2  0
 16 17  2  0
 17  7  1  0
 19 18  1  0
 19 21  1  0
 20 19  2  0
 22 21  1  0
 23 22  1  6
 24 14  1  0
 24 23  1  0
 25 23  1  0
 25 27  1  0
 26 25  2  0
M  END
$$$$
