AYQ.pdb
     RDKit          3D

 27 27  0  0  1  0  0  0  0  0999 V2000
    8.6159  -18.3267   19.6999 C   0  0  0  0  0  0  0  0  0  0  0  0
    8.8492  -16.8469   19.4882 C   0  0  2  0  0  0  0  0  0  0  0  0
    9.9945  -16.5875   18.6409 N   0  0  0  0  0  0  0  0  0  0  0  0
    9.0057  -16.1336   20.7886 C   0  0  0  0  0  0  0  0  0  0  0  0
   10.1701  -15.9930   21.2229 O   0  0  0  0  0  0  0  0  0  0  0  0
    7.1662  -11.8126   28.1881 O   0  0  0  0  0  0  0  0  0  0  0  0
    7.0414  -12.4516   26.9389 C   0  0  0  0  0  0  0  0  0  0  0  0
    6.3401  -13.6291   26.8118 C   0  0  0  0  0  0  0  0  0  0  0  0
    6.2623  -14.2002   25.5396 C   0  0  0  0  0  0  0  0  0  0  0  0
    6.8477  -13.6418   24.4325 C   0  0  0  0  0  0  0  0  0  0  0  0
    6.7618  -14.2435   23.0843 C   0  0  0  0  0  0  0  0  0  0  0  0
    8.0256  -14.9629   22.7839 C   0  0  2  0  0  0  0  0  0  0  0  0
    7.9105  -15.6334   21.5113 N   0  0  0  0  0  0  0  0  0  0  0  0
    8.4388  -15.9547   23.8068 C   0  0  0  0  0  0  0  0  0  0  0  0
    7.7728  -17.0141   23.9075 O   0  0  0  0  0  0  0  0  0  0  0  0
    7.5417  -12.4653   24.5909 C   0  0  0  0  0  0  0  0  0  0  0  0
    7.6306  -11.8853   25.8380 C   0  0  0  0  0  0  0  0  0  0  0  0
   13.6263  -18.3815   24.8172 N   0  0  0  0  0  0  0  0  0  0  0  0
   12.6788  -18.5591   23.7846 C   0  0  0  0  0  0  0  0  0  0  0  0
   12.9978  -19.1361   22.7350 O   0  0  0  0  0  0  0  0  0  0  0  0
   11.3030  -18.0152   24.0445 C   0  0  0  0  0  0  0  0  0  0  0  0
   11.2333  -17.3378   25.3805 C   0  0  0  0  0  0  0  0  0  0  0  0
    9.8691  -16.7865   25.6088 C   0  0  2  0  0  0  0  0  0  0  0  0
    9.5620  -15.7200   24.6587 N   0  0  0  0  0  0  0  0  0  0  0  0
    9.7944  -16.1756   26.9497 C   0  0  0  0  0  0  0  0  0  0  0  0
    9.7254  -14.8952   27.0065 O   0  0  0  0  0  0  0  0  0  0  0  0
    9.7866  -16.8224   28.1538 O   0  0  0  0  0  0  0  0  0  0  0  0
  2  1  1  1
  3  2  1  0
  4 13  1  0
  4  2  1  0
  5  4  2  0
  7  6  1  0
  8  7  2  0
  9  8  1  0
 10  9  2  0
 10 16  1  0
 12 11  1  1
 11 10  1  0
 12 14  1  0
 12 13  1  0
 14 15  2  0
 16 17  2  0
 17  7  1  0
 19 18  1  0
 19 21  1  0
 20 19  2  0
 22 21  1  0
 23 22  1  6
 24 14  1  0
 24 23  1  0
 25 23  1  0
 25 27  1  0
 26 25  2  0
M  END
$$$$
