AYQ.pdb
     RDKit          3D

 27 27  0  0  1  0  0  0  0  0999 V2000
    9.8058  -16.5098   18.2259 C   0  0  0  0  0  0  0  0  0  0  0  0
    9.2969  -17.3430   19.3817 C   0  0  2  0  0  0  0  0  0  0  0  0
    7.9431  -17.8100   19.1675 N   0  0  0  0  0  0  0  0  0  0  0  0
    9.3787  -16.5906   20.6667 C   0  0  0  0  0  0  0  0  0  0  0  0
   10.5204  -16.3917   21.1371 O   0  0  0  0  0  0  0  0  0  0  0  0
    7.1617  -11.7971   27.6548 O   0  0  0  0  0  0  0  0  0  0  0  0
    7.0936  -12.5448   26.4629 C   0  0  0  0  0  0  0  0  0  0  0  0
    6.4225  -13.7457   26.4167 C   0  0  0  0  0  0  0  0  0  0  0  0
    6.4008  -14.4266   25.1974 C   0  0  0  0  0  0  0  0  0  0  0  0
    7.0116  -13.9522   24.0652 C   0  0  0  0  0  0  0  0  0  0  0  0
    6.9849  -14.6704   22.7727 C   0  0  0  0  0  0  0  0  0  0  0  0
    8.2863  -15.3536   22.5613 C   0  0  2  0  0  0  0  0  0  0  0  0
    8.2395  -16.1166   21.3374 N   0  0  0  0  0  0  0  0  0  0  0  0
    8.7073  -16.2518   23.6643 C   0  0  0  0  0  0  0  0  0  0  0  0
    8.0817  -17.3286   23.8226 O   0  0  0  0  0  0  0  0  0  0  0  0
    7.6743  -12.7497   24.1425 C   0  0  0  0  0  0  0  0  0  0  0  0
    7.7078  -12.0618   25.3363 C   0  0  0  0  0  0  0  0  0  0  0  0
   12.0795  -20.9501   25.8058 N   0  0  0  0  0  0  0  0  0  0  0  0
   12.5031  -19.7756   25.1451 C   0  0  0  0  0  0  0  0  0  0  0  0
   13.7109  -19.5185   25.0384 O   0  0  0  0  0  0  0  0  0  0  0  0
   11.4177  -18.8916   24.6001 C   0  0  0  0  0  0  0  0  0  0  0  0
   11.5446  -17.4932   25.1262 C   0  0  0  0  0  0  0  0  0  0  0  0
   10.2027  -16.9480   25.4710 C   0  0  2  0  0  0  0  0  0  0  0  0
    9.7934  -15.9100   24.5279 N   0  0  0  0  0  0  0  0  0  0  0  0
   10.2506  -16.3022   26.7967 C   0  0  0  0  0  0  0  0  0  0  0  0
   10.3768  -17.0700   27.8175 O   0  0  0  0  0  0  0  0  0  0  0  0
   10.1785  -14.9645   27.0679 O   0  0  0  0  0  0  0  0  0  0  0  0
  2  1  1  6
  3  2  1  0
  4 13  1  0
  4  2  1  0
  5  4  2  0
  7  6  1  0
  8  7  2  0
  9  8  1  0
 10  9  2  0
 10 16  1  0
 12 11  1  1
 11 10  1  0
 12 14  1  0
 12 13  1  0
 14 15  2  0
 16 17  2  0
 17  7  1  0
 19 18  1  0
 19 21  1  0
 20 19  2  0
 22 21  1  0
 23 22  1  6
 24 14  1  0
 24 23  1  0
 25 23  1  0
 25 27  1  0
 26 25  2  0
M  END
$$$$
