AYQ.pdb
     RDKit          3D

 27 27  0  0  1  0  0  0  0  0999 V2000
   11.1509  -16.9121   19.6468 C   0  0  0  0  0  0  0  0  0  0  0  0
   10.4266  -17.5364   20.8193 C   0  0  2  0  0  0  0  0  0  0  0  0
    9.1679  -18.1372   20.4301 N   0  0  0  0  0  0  0  0  0  0  0  0
   10.2011  -16.5408   21.9066 C   0  0  0  0  0  0  0  0  0  0  0  0
   11.2151  -16.0062   22.4068 O   0  0  0  0  0  0  0  0  0  0  0  0
    6.3377  -11.4673   27.9058 O   0  0  0  0  0  0  0  0  0  0  0  0
    6.6714  -12.1765   26.7352 C   0  0  0  0  0  0  0  0  0  0  0  0
    7.6930  -11.7521   25.9162 C   0  0  0  0  0  0  0  0  0  0  0  0
    7.9621  -12.5098   24.7742 C   0  0  0  0  0  0  0  0  0  0  0  0
    7.2596  -13.6403   24.4444 C   0  0  0  0  0  0  0  0  0  0  0  0
    7.5471  -14.4457   23.2380 C   0  0  0  0  0  0  0  0  0  0  0  0
    8.6693  -15.3758   23.5219 C   0  0  2  0  0  0  0  0  0  0  0  0
    8.9177  -16.2023   22.3654 N   0  0  0  0  0  0  0  0  0  0  0  0
    8.4695  -16.2556   24.6995 C   0  0  0  0  0  0  0  0  0  0  0  0
    7.4102  -16.9261   24.7648 O   0  0  0  0  0  0  0  0  0  0  0  0
    6.2446  -14.0393   25.2822 C   0  0  0  0  0  0  0  0  0  0  0  0
    5.9628  -13.3055   26.4142 C   0  0  0  0  0  0  0  0  0  0  0  0
    9.5035  -21.3593   26.2512 N   0  0  0  0  0  0  0  0  0  0  0  0
   10.6865  -20.6459   25.9558 C   0  0  0  0  0  0  0  0  0  0  0  0
   11.7426  -21.2529   25.7263 O   0  0  0  0  0  0  0  0  0  0  0  0
   10.5730  -19.1481   25.9410 C   0  0  0  0  0  0  0  0  0  0  0  0
    9.1722  -18.7094   26.2473 C   0  0  0  0  0  0  0  0  0  0  0  0
    9.1726  -17.3214   26.7863 C   0  0  2  0  0  0  0  0  0  0  0  0
    9.4495  -16.3445   25.7359 N   0  0  0  0  0  0  0  0  0  0  0  0
   10.2518  -17.1713   27.7811 C   0  0  0  0  0  0  0  0  0  0  0  0
   10.1322  -17.8273   28.8778 O   0  0  0  0  0  0  0  0  0  0  0  0
   11.3800  -16.4079   27.6683 O   0  0  0  0  0  0  0  0  0  0  0  0
  2  1  1  6
  3  2  1  0
  4 13  1  0
  4  2  1  0
  5  4  2  0
  7  6  1  0
  8  7  2  0
  9  8  1  0
 10  9  2  0
 10 16  1  0
 12 11  1  6
 11 10  1  0
 12 14  1  0
 12 13  1  0
 14 15  2  0
 16 17  2  0
 17  7  1  0
 19 18  1  0
 19 21  1  0
 20 19  2  0
 22 21  1  0
 23 22  1  6
 24 14  1  0
 24 23  1  0
 25 23  1  0
 25 27  1  0
 26 25  2  0
M  END
$$$$
