AYQ.pdb
     RDKit          3D

 27 27  0  0  1  0  0  0  0  0999 V2000
    9.7239  -18.8999   20.0791 C   0  0  0  0  0  0  0  0  0  0  0  0
    9.4060  -17.4732   19.6887 C   0  0  2  0  0  0  0  0  0  0  0  0
   10.2979  -16.9728   18.6635 N   0  0  0  0  0  0  0  0  0  0  0  0
    9.4356  -16.5695   20.8748 C   0  0  0  0  0  0  0  0  0  0  0  0
   10.5294  -16.0294   21.1505 O   0  0  0  0  0  0  0  0  0  0  0  0
    7.0102  -11.8338   27.8204 O   0  0  0  0  0  0  0  0  0  0  0  0
    6.9727  -12.6616   26.6812 C   0  0  0  0  0  0  0  0  0  0  0  0
    6.4680  -13.9403   26.7503 C   0  0  0  0  0  0  0  0  0  0  0  0
    6.4656  -14.6977   25.5769 C   0  0  0  0  0  0  0  0  0  0  0  0
    6.9385  -14.2240   24.3802 C   0  0  0  0  0  0  0  0  0  0  0  0
    6.9320  -15.0238   23.1364 C   0  0  0  0  0  0  0  0  0  0  0  0
    8.3086  -15.5015   22.8501 C   0  0  2  0  0  0  0  0  0  0  0  0
    8.2996  -16.3206   21.6622 N   0  0  0  0  0  0  0  0  0  0  0  0
    8.9459  -16.2671   23.9493 C   0  0  0  0  0  0  0  0  0  0  0  0
    8.5507  -17.4397   24.1610 O   0  0  0  0  0  0  0  0  0  0  0  0
    7.4366  -12.9427   24.3425 C   0  0  0  0  0  0  0  0  0  0  0  0
    7.4481  -12.1785   25.4894 C   0  0  0  0  0  0  0  0  0  0  0  0
   14.7514  -16.0730   25.0552 N   0  0  0  0  0  0  0  0  0  0  0  0
   14.0667  -16.6359   23.9552 C   0  0  0  0  0  0  0  0  0  0  0  0
   14.6710  -16.8824   22.9015 O   0  0  0  0  0  0  0  0  0  0  0  0
   12.6018  -16.9043   24.1512 C   0  0  0  0  0  0  0  0  0  0  0  0
   12.1537  -16.4840   25.5191 C   0  0  0  0  0  0  0  0  0  0  0  0
   10.6762  -16.6204   25.6425 C   0  0  2  0  0  0  0  0  0  0  0  0
    9.9816  -15.6947   24.7507 N   0  0  0  0  0  0  0  0  0  0  0  0
   10.2536  -16.2666   27.0111 C   0  0  0  0  0  0  0  0  0  0  0  0
   10.7034  -16.9933   27.9687 O   0  0  0  0  0  0  0  0  0  0  0  0
    9.4312  -15.2403   27.3832 O   0  0  0  0  0  0  0  0  0  0  0  0
  2  1  1  1
  3  2  1  0
  4 13  1  0
  4  2  1  0
  5  4  2  0
  7  6  1  0
  8  7  2  0
  9  8  1  0
 10  9  2  0
 10 16  1  0
 12 11  1  1
 11 10  1  0
 12 14  1  0
 12 13  1  0
 14 15  2  0
 16 17  2  0
 17  7  1  0
 19 18  1  0
 19 21  1  0
 20 19  2  0
 22 21  1  0
 23 22  1  1
 24 14  1  0
 24 23  1  0
 25 23  1  0
 25 27  1  0
 26 25  2  0
M  END
$$$$
