AYQ.pdb
     RDKit          3D

 27 27  0  0  1  0  0  0  0  0999 V2000
    8.8969  -19.4591   19.8405 C   0  0  0  0  0  0  0  0  0  0  0  0
    8.5942  -18.0116   19.5212 C   0  0  2  0  0  0  0  0  0  0  0  0
    9.3565  -17.5282   18.3889 N   0  0  0  0  0  0  0  0  0  0  0  0
    8.8312  -17.1366   20.7055 C   0  0  0  0  0  0  0  0  0  0  0  0
    9.9868  -16.6817   20.8538 O   0  0  0  0  0  0  0  0  0  0  0  0
    7.4660  -11.9457   27.6183 O   0  0  0  0  0  0  0  0  0  0  0  0
    7.2697  -12.8154   26.5277 C   0  0  0  0  0  0  0  0  0  0  0  0
    6.8638  -14.1162   26.7223 C   0  0  0  0  0  0  0  0  0  0  0  0
    6.6915  -14.9150   25.5898 C   0  0  0  0  0  0  0  0  0  0  0  0
    6.9074  -14.4604   24.3143 C   0  0  0  0  0  0  0  0  0  0  0  0
    6.7206  -15.3043   23.1144 C   0  0  0  0  0  0  0  0  0  0  0  0
    8.0077  -15.9578   22.7658 C   0  0  2  0  0  0  0  0  0  0  0  0
    7.8185  -16.8232   21.6267 N   0  0  0  0  0  0  0  0  0  0  0  0
    8.6264  -16.7440   23.8612 C   0  0  0  0  0  0  0  0  0  0  0  0
    8.1269  -17.8605   24.1440 O   0  0  0  0  0  0  0  0  0  0  0  0
    7.3123  -13.1563   24.1516 C   0  0  0  0  0  0  0  0  0  0  0  0
    7.4884  -12.3511   25.2563 C   0  0  0  0  0  0  0  0  0  0  0  0
   13.9833  -16.9826   22.3632 N   0  0  0  0  0  0  0  0  0  0  0  0
   13.6810  -16.7203   23.7180 C   0  0  0  0  0  0  0  0  0  0  0  0
   14.5876  -16.6594   24.5611 O   0  0  0  0  0  0  0  0  0  0  0  0
   12.2286  -16.5271   24.0493 C   0  0  0  0  0  0  0  0  0  0  0  0
   11.8343  -17.3416   25.2450 C   0  0  0  0  0  0  0  0  0  0  0  0
   10.3763  -17.1963   25.5100 C   0  0  2  0  0  0  0  0  0  0  0  0
    9.7596  -16.2529   24.5804 N   0  0  0  0  0  0  0  0  0  0  0  0
   10.1662  -16.6390   26.8598 C   0  0  0  0  0  0  0  0  0  0  0  0
   11.1597  -16.0368   27.4054 O   0  0  0  0  0  0  0  0  0  0  0  0
    9.0215  -16.6871   27.6052 O   0  0  0  0  0  0  0  0  0  0  0  0
  2  1  1  1
  3  2  1  0
  4 13  1  0
  4  2  1  0
  5  4  2  0
  7  6  1  0
  8  7  2  0
  9  8  1  0
 10  9  2  0
 10 16  1  0
 12 11  1  1
 11 10  1  0
 12 14  1  0
 12 13  1  0
 14 15  2  0
 16 17  2  0
 17  7  1  0
 19 18  1  0
 19 21  1  0
 20 19  2  0
 22 21  1  0
 23 22  1  6
 24 14  1  0
 24 23  1  0
 25 23  1  0
 25 27  1  0
 26 25  2  0
M  END
$$$$
