AYQ.pdb
     RDKit          3D

 27 27  0  0  1  0  0  0  0  0999 V2000
    6.9969  -14.9541   19.0589 C   0  0  0  0  0  0  0  0  0  0  0  0
    7.2126  -13.5924   19.6819 C   0  0  2  0  0  0  0  0  0  0  0  0
    7.9983  -12.7194   18.8348 N   0  0  0  0  0  0  0  0  0  0  0  0
    7.8507  -13.7081   21.0249 C   0  0  0  0  0  0  0  0  0  0  0  0
    9.0937  -13.8437   21.0537 O   0  0  0  0  0  0  0  0  0  0  0  0
    8.8882  -14.3955   29.7087 O   0  0  0  0  0  0  0  0  0  0  0  0
    8.3940  -14.0876   28.4260 C   0  0  0  0  0  0  0  0  0  0  0  0
    8.8950  -13.0245   27.7095 C   0  0  0  0  0  0  0  0  0  0  0  0
    8.3521  -12.7849   26.4452 C   0  0  0  0  0  0  0  0  0  0  0  0
    7.3569  -13.5550   25.9006 C   0  0  0  0  0  0  0  0  0  0  0  0
    6.7849  -13.3047   24.5601 C   0  0  0  0  0  0  0  0  0  0  0  0
    7.6822  -13.8795   23.5259 C   0  0  2  0  0  0  0  0  0  0  0  0
    7.1105  -13.6695   22.2177 N   0  0  0  0  0  0  0  0  0  0  0  0
    7.9780  -15.3242   23.6878 C   0  0  0  0  0  0  0  0  0  0  0  0
    7.3759  -16.1387   22.9462 O   0  0  0  0  0  0  0  0  0  0  0  0
    6.8766  -14.6101   26.6404 C   0  0  0  0  0  0  0  0  0  0  0  0
    7.3986  -14.8638   27.8904 C   0  0  0  0  0  0  0  0  0  0  0  0
   13.2470  -17.7119   21.8967 N   0  0  0  0  0  0  0  0  0  0  0  0
   11.9629  -18.2709   21.7115 C   0  0  0  0  0  0  0  0  0  0  0  0
   11.6157  -18.6852   20.5961 O   0  0  0  0  0  0  0  0  0  0  0  0
   11.0799  -18.3239   22.9256 C   0  0  0  0  0  0  0  0  0  0  0  0
   10.4249  -16.9984   23.1755 C   0  0  0  0  0  0  0  0  0  0  0  0
    9.5419  -17.0767   24.3719 C   0  0  2  0  0  0  0  0  0  0  0  0
    8.9204  -15.7858   24.6580 N   0  0  0  0  0  0  0  0  0  0  0  0
   10.3424  -17.4196   25.5629 C   0  0  0  0  0  0  0  0  0  0  0  0
   10.7831  -16.4449   26.2723 O   0  0  0  0  0  0  0  0  0  0  0  0
   10.6709  -18.6701   26.0064 O   0  0  0  0  0  0  0  0  0  0  0  0
  2  1  1  6
  3  2  1  0
  4 13  1  0
  4  2  1  0
  5  4  2  0
  7  6  1  0
  8  7  2  0
  9  8  1  0
 10  9  2  0
 10 16  1  0
 12 11  1  1
 11 10  1  0
 12 14  1  0
 12 13  1  0
 14 15  2  0
 16 17  2  0
 17  7  1  0
 19 18  1  0
 19 21  1  0
 20 19  2  0
 22 21  1  0
 23 22  1  6
 24 14  1  0
 24 23  1  0
 25 23  1  0
 25 27  1  0
 26 25  2  0
M  END
$$$$
