AYQ.pdb
     RDKit          3D

 27 27  0  0  1  0  0  0  0  0999 V2000
    8.1688  -19.4225   19.5241 C   0  0  0  0  0  0  0  0  0  0  0  0
    7.9778  -17.9449   19.2610 C   0  0  2  0  0  0  0  0  0  0  0  0
    8.7227  -17.4925   18.1045 N   0  0  0  0  0  0  0  0  0  0  0  0
    8.3479  -17.1317   20.4551 C   0  0  0  0  0  0  0  0  0  0  0  0
    9.5671  -16.9348   20.6529 O   0  0  0  0  0  0  0  0  0  0  0  0
    7.7111  -12.0581   27.5835 O   0  0  0  0  0  0  0  0  0  0  0  0
    7.3989  -12.8367   26.4518 C   0  0  0  0  0  0  0  0  0  0  0  0
    6.9159  -14.1188   26.5846 C   0  0  0  0  0  0  0  0  0  0  0  0
    6.6303  -14.8255   25.4144 C   0  0  0  0  0  0  0  0  0  0  0  0
    6.8094  -14.2997   24.1608 C   0  0  0  0  0  0  0  0  0  0  0  0
    6.5027  -15.0457   22.9214 C   0  0  0  0  0  0  0  0  0  0  0  0
    7.7121  -15.7851   22.4788 C   0  0  2  0  0  0  0  0  0  0  0  0
    7.3889  -16.6003   21.3327 N   0  0  0  0  0  0  0  0  0  0  0  0
    8.3316  -16.6476   23.5147 C   0  0  0  0  0  0  0  0  0  0  0  0
    7.8358  -17.7836   23.7134 O   0  0  0  0  0  0  0  0  0  0  0  0
    7.2934  -13.0164   24.0601 C   0  0  0  0  0  0  0  0  0  0  0  0
    7.5817  -12.3017   25.2027 C   0  0  0  0  0  0  0  0  0  0  0  0
   14.0160  -17.9167   23.4947 N   0  0  0  0  0  0  0  0  0  0  0  0
   13.6555  -18.7388   24.5854 C   0  0  0  0  0  0  0  0  0  0  0  0
   14.4472  -19.5895   25.0165 O   0  0  0  0  0  0  0  0  0  0  0  0
   12.2878  -18.5130   25.1641 C   0  0  0  0  0  0  0  0  0  0  0  0
   11.5712  -17.4109   24.4428 C   0  0  0  0  0  0  0  0  0  0  0  0
   10.1929  -17.2516   24.9830 C   0  0  2  0  0  0  0  0  0  0  0  0
    9.4614  -16.2066   24.2708 N   0  0  0  0  0  0  0  0  0  0  0  0
   10.2547  -16.8211   26.3928 C   0  0  0  0  0  0  0  0  0  0  0  0
   10.7159  -17.6651   27.2428 O   0  0  0  0  0  0  0  0  0  0  0  0
    9.8764  -15.6118   26.9054 O   0  0  0  0  0  0  0  0  0  0  0  0
  2  1  1  1
  3  2  1  0
  4 13  1  0
  4  2  1  0
  5  4  2  0
  7  6  1  0
  8  7  2  0
  9  8  1  0
 10  9  2  0
 10 16  1  0
 12 11  1  1
 11 10  1  0
 12 14  1  0
 12 13  1  0
 14 15  2  0
 16 17  2  0
 17  7  1  0
 19 18  1  0
 19 21  1  0
 20 19  2  0
 22 21  1  0
 23 22  1  6
 24 14  1  0
 24 23  1  0
 25 23  1  0
 25 27  1  0
 26 25  2  0
M  END
$$$$
