AYQ.pdb
     RDKit          3D

 27 27  0  0  1  0  0  0  0  0999 V2000
    8.8960  -18.9415   19.4112 C   0  0  0  0  0  0  0  0  0  0  0  0
    8.6850  -17.4875   19.0497 C   0  0  2  0  0  0  0  0  0  0  0  0
    9.5321  -17.0659   17.9536 N   0  0  0  0  0  0  0  0  0  0  0  0
    8.9002  -16.6012   20.2297 C   0  0  0  0  0  0  0  0  0  0  0  0
   10.0650  -16.1907   20.4271 O   0  0  0  0  0  0  0  0  0  0  0  0
    7.3695  -12.1400   27.6377 O   0  0  0  0  0  0  0  0  0  0  0  0
    7.2318  -12.7768   26.3888 C   0  0  0  0  0  0  0  0  0  0  0  0
    7.6534  -12.1645   25.2304 C   0  0  0  0  0  0  0  0  0  0  0  0
    7.4820  -12.8616   24.0324 C   0  0  0  0  0  0  0  0  0  0  0  0
    6.9196  -14.1105   23.9680 C   0  0  0  0  0  0  0  0  0  0  0  0
    6.7420  -14.8511   22.7004 C   0  0  0  0  0  0  0  0  0  0  0  0
    8.0439  -15.4289   22.2803 C   0  0  2  0  0  0  0  0  0  0  0  0
    7.8580  -16.2304   21.0948 N   0  0  0  0  0  0  0  0  0  0  0  0
    8.7226  -16.2543   23.3092 C   0  0  0  0  0  0  0  0  0  0  0  0
    8.4106  -17.4672   23.3958 O   0  0  0  0  0  0  0  0  0  0  0  0
    6.5079  -14.6965   25.1420 C   0  0  0  0  0  0  0  0  0  0  0  0
    6.6680  -14.0255   26.3351 C   0  0  0  0  0  0  0  0  0  0  0  0
   15.3705  -17.8724   25.3169 N   0  0  0  0  0  0  0  0  0  0  0  0
   14.4042  -16.9775   24.8059 C   0  0  0  0  0  0  0  0  0  0  0  0
   14.7545  -15.9851   24.1512 O   0  0  0  0  0  0  0  0  0  0  0  0
   12.9695  -17.3072   25.1049 C   0  0  0  0  0  0  0  0  0  0  0  0
   12.0433  -16.3119   24.4724 C   0  0  0  0  0  0  0  0  0  0  0  0
   10.6284  -16.6485   24.7916 C   0  0  2  0  0  0  0  0  0  0  0  0
    9.7055  -15.6939   24.1822 N   0  0  0  0  0  0  0  0  0  0  0  0
   10.4091  -16.5589   26.2478 C   0  0  0  0  0  0  0  0  0  0  0  0
   10.0592  -15.4169   26.7178 O   0  0  0  0  0  0  0  0  0  0  0  0
   10.5335  -17.5637   27.1661 O   0  0  0  0  0  0  0  0  0  0  0  0
  2  1  1  1
  3  2  1  0
  4 13  1  0
  4  2  1  0
  5  4  2  0
  7  6  1  0
  8  7  2  0
  9  8  1  0
 10  9  2  0
 10 16  1  0
 12 11  1  1
 11 10  1  0
 12 14  1  0
 12 13  1  0
 14 15  2  0
 16 17  2  0
 17  7  1  0
 19 18  1  0
 19 21  1  0
 20 19  2  0
 22 21  1  0
 23 22  1  1
 24 14  1  0
 24 23  1  0
 25 23  1  0
 25 27  1  0
 26 25  2  0
M  END
$$$$
