HYK.pdb
     RDKit          3D

 32 33  0  0  1  0  0  0  0  0999 V2000
   10.0366  -16.8410   18.6296 N   0  0  0  0  0  0  0  0  0  0  0  0
    8.7780  -16.9893   19.3780 C   0  0  1  0  0  0  0  0  0  0  0  0
    8.5873  -18.4682   19.5895 C   0  0  0  0  0  0  0  0  0  0  0  0
    8.1561  -19.1653   18.3640 C   0  0  0  0  0  0  0  0  0  0  0  0
    6.8590  -19.5790   18.1452 C   0  0  0  0  0  0  0  0  0  0  0  0
    6.7856  -20.1764   16.9506 N   0  0  0  0  0  0  0  0  0  0  0  0
    8.0005  -20.1535   16.4043 C   0  0  0  0  0  0  0  0  0  0  0  0
    8.8480  -19.5321   17.2705 N   0  0  0  0  0  0  0  0  0  0  0  0
    9.0066  -16.3824   20.7203 C   0  0  0  0  0  0  0  0  0  0  0  0
   10.1449  -16.5859   21.2469 O   0  0  0  0  0  0  0  0  0  0  0  0
    7.3327  -11.6762   28.1466 O   0  0  0  0  0  0  0  0  0  0  0  0
    7.2709  -12.2878   26.8884 C   0  0  0  0  0  0  0  0  0  0  0  0
    6.5951  -13.4736   26.6792 C   0  0  0  0  0  0  0  0  0  0  0  0
    6.5450  -14.0643   25.4256 C   0  0  0  0  0  0  0  0  0  0  0  0
    7.1747  -13.4798   24.3386 C   0  0  0  0  0  0  0  0  0  0  0  0
    7.1279  -14.1063   22.9968 C   0  0  0  0  0  0  0  0  0  0  0  0
    8.2840  -14.9885   22.6839 C   0  0  2  0  0  0  0  0  0  0  0  0
    8.0151  -15.6137   21.3910 N   0  0  0  0  0  0  0  0  0  0  0  0
    8.5925  -16.0025   23.7160 C   0  0  0  0  0  0  0  0  0  0  0  0
    7.8441  -17.0026   23.7891 O   0  0  0  0  0  0  0  0  0  0  0  0
    7.8434  -12.2964   24.5708 C   0  0  0  0  0  0  0  0  0  0  0  0
    7.8951  -11.7036   25.8228 C   0  0  0  0  0  0  0  0  0  0  0  0
    9.6668  -15.9091   24.6110 N   0  0  0  0  0  0  0  0  0  0  0  0
    9.9081  -17.0475   25.6134 C   0  0  1  0  0  0  0  0  0  0  0  0
   11.0810  -17.7761   25.1078 C   0  0  0  0  0  0  0  0  0  0  0  0
   11.6657  -18.8666   25.8692 C   0  0  0  0  0  0  0  0  0  0  0  0
   12.8011  -19.6735   25.3976 C   0  0  0  0  0  0  0  0  0  0  0  0
   13.2351  -20.6923   26.4878 C   0  0  0  0  0  0  0  0  0  0  0  0
   14.3765  -21.3987   25.9746 N   0  0  0  0  0  0  0  0  0  0  0  0
   10.0427  -16.3461   26.9109 C   0  0  0  0  0  0  0  0  0  0  0  0
   10.4555  -15.0659   27.1436 O   0  0  0  0  0  0  0  0  0  0  0  0
    9.7470  -16.9911   27.9940 O   0  0  0  0  0  0  0  0  0  0  0  0
  2  1  1  6
  3  2  1  0
  3  4  1  0
  4  5  2  0
  5  6  1  0
  7  6  1  0
  8  4  1  0
  8  7  2  0
  9 18  1  0
  9  2  1  0
 10  9  2  0
 12 11  1  0
 13 12  2  0
 14 13  1  0
 15 14  2  0
 15 21  1  0
 16 15  1  0
 17 16  1  1
 17 18  1  0
 19 23  1  0
 19 17  1  0
 20 19  2  0
 21 22  2  0
 22 12  1  0
 24 23  1  0
 24 30  1  0
 24 25  1  6
 26 25  1  0
 27 28  1  0
 27 26  1  0
 28 29  1  0
 30 31  1  0
 32 30  2  0
M  END
$$$$
