HYK.pdb
     RDKit          3D

 32 33  0  0  1  0  0  0  0  0999 V2000
   11.0294  -16.9741   19.1270 N   0  0  0  0  0  0  0  0  0  0  0  0
    9.6603  -17.0576   19.6606 C   0  0  1  0  0  0  0  0  0  0  0  0
    9.3746  -18.5233   19.8558 C   0  0  0  0  0  0  0  0  0  0  0  0
    8.7335  -19.1377   18.6789 C   0  0  0  0  0  0  0  0  0  0  0  0
    8.6077  -18.4964   17.4646 C   0  0  0  0  0  0  0  0  0  0  0  0
    7.9860  -19.3088   16.6027 N   0  0  0  0  0  0  0  0  0  0  0  0
    7.7133  -20.4488   17.2361 C   0  0  0  0  0  0  0  0  0  0  0  0
    8.1716  -20.3485   18.5147 N   0  0  0  0  0  0  0  0  0  0  0  0
    9.6923  -16.4351   21.0149 C   0  0  0  0  0  0  0  0  0  0  0  0
   10.7670  -16.5773   21.6778 O   0  0  0  0  0  0  0  0  0  0  0  0
    6.8772  -11.7995   28.1409 O   0  0  0  0  0  0  0  0  0  0  0  0
    7.0259  -12.3917   26.8807 C   0  0  0  0  0  0  0  0  0  0  0  0
    7.8184  -11.8365   25.8957 C   0  0  0  0  0  0  0  0  0  0  0  0
    7.9533  -12.4378   24.6535 C   0  0  0  0  0  0  0  0  0  0  0  0
    7.2936  -13.6205   24.3608 C   0  0  0  0  0  0  0  0  0  0  0  0
    7.4306  -14.2675   23.0350 C   0  0  0  0  0  0  0  0  0  0  0  0
    8.6589  -15.0905   22.8709 C   0  0  2  0  0  0  0  0  0  0  0  0
    8.5885  -15.7167   21.5528 N   0  0  0  0  0  0  0  0  0  0  0  0
    8.8818  -16.0972   23.9317 C   0  0  0  0  0  0  0  0  0  0  0  0
    8.1774  -17.1311   23.9080 O   0  0  0  0  0  0  0  0  0  0  0  0
    6.5078  -14.1567   25.3591 C   0  0  0  0  0  0  0  0  0  0  0  0
    6.3711  -13.5579   26.6017 C   0  0  0  0  0  0  0  0  0  0  0  0
    9.8296  -15.9618   24.9550 N   0  0  0  0  0  0  0  0  0  0  0  0
   10.0458  -17.1246   25.9348 C   0  0  1  0  0  0  0  0  0  0  0  0
   11.4099  -17.6094   25.6766 C   0  0  0  0  0  0  0  0  0  0  0  0
   12.0013  -18.6461   26.5050 C   0  0  0  0  0  0  0  0  0  0  0  0
   13.3276  -19.2306   26.2567 C   0  0  0  0  0  0  0  0  0  0  0  0
   13.6364  -20.3420   27.2979 C   0  0  0  0  0  0  0  0  0  0  0  0
   14.8900  -20.9358   26.9221 N   0  0  0  0  0  0  0  0  0  0  0  0
    9.7714  -16.5200   27.2587 C   0  0  0  0  0  0  0  0  0  0  0  0
    9.3784  -17.1411   28.4091 O   0  0  0  0  0  0  0  0  0  0  0  0
    9.9027  -15.2387   27.3905 O   0  0  0  0  0  0  0  0  0  0  0  0
  2  1  1  1
  3  2  1  0
  3  4  1  0
  4  5  2  0
  5  6  1  0
  7  6  1  0
  8  4  1  0
  8  7  2  0
  9 18  1  0
  9  2  1  0
 10  9  2  0
 12 11  1  0
 13 12  2  0
 14 13  1  0
 15 14  2  0
 15 21  1  0
 16 15  1  0
 17 16  1  1
 17 18  1  0
 19 23  1  0
 19 17  1  0
 20 19  2  0
 21 22  2  0
 22 12  1  0
 24 23  1  0
 24 30  1  0
 24 25  1  1
 26 25  1  0
 27 28  1  0
 27 26  1  0
 28 29  1  0
 30 31  1  0
 32 30  2  0
M  END
$$$$
