HYK.pdb
     RDKit          3D

 32 33  0  0  1  0  0  0  0  0999 V2000
    8.5218  -16.8219   19.2379 N   0  0  0  0  0  0  0  0  0  0  0  0
    9.8985  -16.4264   19.5761 C   0  0  1  0  0  0  0  0  0  0  0  0
   10.2934  -15.3783   18.5692 C   0  0  0  0  0  0  0  0  0  0  0  0
    9.1902  -15.0235   17.6578 C   0  0  0  0  0  0  0  0  0  0  0  0
    8.4146  -13.8939   17.8122 C   0  0  0  0  0  0  0  0  0  0  0  0
    7.5036  -13.8511   16.8336 N   0  0  0  0  0  0  0  0  0  0  0  0
    7.6792  -14.9226   16.0615 C   0  0  0  0  0  0  0  0  0  0  0  0
    8.7165  -15.6477   16.5647 N   0  0  0  0  0  0  0  0  0  0  0  0
    9.8340  -15.7529   20.9045 C   0  0  0  0  0  0  0  0  0  0  0  0
   10.9444  -15.4184   21.4240 O   0  0  0  0  0  0  0  0  0  0  0  0
    6.6218  -11.8899   28.2600 O   0  0  0  0  0  0  0  0  0  0  0  0
    6.7779  -12.4833   27.0012 C   0  0  0  0  0  0  0  0  0  0  0  0
    6.2202  -13.7077   26.6907 C   0  0  0  0  0  0  0  0  0  0  0  0
    6.3859  -14.2795   25.4383 C   0  0  0  0  0  0  0  0  0  0  0  0
    7.1198  -13.6365   24.4547 C   0  0  0  0  0  0  0  0  0  0  0  0
    7.3034  -14.2423   23.1151 C   0  0  0  0  0  0  0  0  0  0  0  0
    8.5747  -14.9956   22.9445 C   0  0  2  0  0  0  0  0  0  0  0  0
    8.6044  -15.4906   21.5701 N   0  0  0  0  0  0  0  0  0  0  0  0
    8.7848  -16.0929   23.9142 C   0  0  0  0  0  0  0  0  0  0  0  0
    8.1595  -17.1604   23.7273 O   0  0  0  0  0  0  0  0  0  0  0  0
    7.6674  -12.4153   24.7869 C   0  0  0  0  0  0  0  0  0  0  0  0
    7.5036  -11.8413   26.0380 C   0  0  0  0  0  0  0  0  0  0  0  0
    9.6377  -16.0073   25.0230 N   0  0  0  0  0  0  0  0  0  0  0  0
    9.8365  -17.2433   25.9126 C   0  0  1  0  0  0  0  0  0  0  0  0
   11.0339  -17.9175   25.3891 C   0  0  0  0  0  0  0  0  0  0  0  0
   11.5995  -19.0682   26.0723 C   0  0  0  0  0  0  0  0  0  0  0  0
   12.7636  -19.8188   25.5783 C   0  0  0  0  0  0  0  0  0  0  0  0
   13.0847  -21.0096   26.5236 C   0  0  0  0  0  0  0  0  0  0  0  0
   14.0826  -21.8105   25.8694 N   0  0  0  0  0  0  0  0  0  0  0  0
    9.9088  -16.6799   27.2804 C   0  0  0  0  0  0  0  0  0  0  0  0
   10.0276  -15.3720   27.6531 O   0  0  0  0  0  0  0  0  0  0  0  0
    9.8624  -17.4942   28.2859 O   0  0  0  0  0  0  0  0  0  0  0  0
  2  1  1  6
  3  2  1  0
  3  4  1  0
  4  5  2  0
  5  6  1  0
  7  6  1  0
  8  4  1  0
  8  7  2  0
  9 18  1  0
  9  2  1  0
 10  9  2  0
 12 11  1  0
 13 12  2  0
 14 13  1  0
 15 14  2  0
 15 21  1  0
 16 15  1  0
 17 16  1  1
 17 18  1  0
 19 23  1  0
 19 17  1  0
 20 19  2  0
 21 22  2  0
 22 12  1  0
 24 23  1  0
 24 30  1  0
 24 25  1  6
 26 25  1  0
 27 28  1  0
 27 26  1  0
 28 29  1  0
 30 31  1  0
 32 30  2  0
M  END
$$$$
