HYK.pdb
     RDKit          3D

 32 33  0  0  1  0  0  0  0  0999 V2000
   10.2419  -16.5193   18.6336 N   0  0  0  0  0  0  0  0  0  0  0  0
    8.9507  -16.6065   19.3346 C   0  0  1  0  0  0  0  0  0  0  0  0
    8.6593  -18.0752   19.4961 C   0  0  0  0  0  0  0  0  0  0  0  0
    8.0977  -18.6797   18.2743 C   0  0  0  0  0  0  0  0  0  0  0  0
    8.7735  -19.6065   17.5090 C   0  0  0  0  0  0  0  0  0  0  0  0
    8.0053  -19.9630   16.4735 N   0  0  0  0  0  0  0  0  0  0  0  0
    6.8600  -19.2879   16.5599 C   0  0  0  0  0  0  0  0  0  0  0  0
    6.9118  -18.4964   17.6670 N   0  0  0  0  0  0  0  0  0  0  0  0
    9.1696  -16.0521   20.7010 C   0  0  0  0  0  0  0  0  0  0  0  0
   10.3446  -16.1575   21.1730 O   0  0  0  0  0  0  0  0  0  0  0  0
    7.2144  -12.1783   28.5358 O   0  0  0  0  0  0  0  0  0  0  0  0
    7.2132  -12.6431   27.2149 C   0  0  0  0  0  0  0  0  0  0  0  0
    7.8766  -11.9806   26.2012 C   0  0  0  0  0  0  0  0  0  0  0  0
    7.8640  -12.4565   24.8988 C   0  0  0  0  0  0  0  0  0  0  0  0
    7.1818  -13.6175   24.5727 C   0  0  0  0  0  0  0  0  0  0  0  0
    7.1615  -14.1307   23.1830 C   0  0  0  0  0  0  0  0  0  0  0  0
    8.3757  -14.8929   22.7859 C   0  0  2  0  0  0  0  0  0  0  0  0
    8.1305  -15.4347   21.4514 N   0  0  0  0  0  0  0  0  0  0  0  0
    8.7813  -15.9568   23.7304 C   0  0  0  0  0  0  0  0  0  0  0  0
    8.0422  -16.9620   23.8246 O   0  0  0  0  0  0  0  0  0  0  0  0
    6.5266  -14.2622   25.6006 C   0  0  0  0  0  0  0  0  0  0  0  0
    6.5375  -13.7889   26.9034 C   0  0  0  0  0  0  0  0  0  0  0  0
    9.9373  -15.9051   24.5209 N   0  0  0  0  0  0  0  0  0  0  0  0
   10.1969  -17.0219   25.5428 C   0  0  1  0  0  0  0  0  0  0  0  0
   11.4397  -17.6751   25.1058 C   0  0  0  0  0  0  0  0  0  0  0  0
   11.5352  -18.2930   23.7944 C   0  0  0  0  0  0  0  0  0  0  0  0
   12.7474  -18.9569   23.2921 C   0  0  0  0  0  0  0  0  0  0  0  0
   12.5099  -19.5142   21.8612 C   0  0  0  0  0  0  0  0  0  0  0  0
   13.7443  -20.1107   21.4303 N   0  0  0  0  0  0  0  0  0  0  0  0
   10.2160  -16.3086   26.8406 C   0  0  0  0  0  0  0  0  0  0  0  0
   10.3822  -14.9735   27.0717 O   0  0  0  0  0  0  0  0  0  0  0  0
   10.0647  -16.9987   27.9257 O   0  0  0  0  0  0  0  0  0  0  0  0
  2  1  1  6
  3  2  1  0
  3  4  1  0
  4  5  2  0
  5  6  1  0
  7  6  1  0
  8  4  1  0
  8  7  2  0
  9 18  1  0
  9  2  1  0
 10  9  2  0
 12 11  1  0
 13 12  2  0
 14 13  1  0
 15 14  2  0
 15 21  1  0
 16 15  1  0
 17 16  1  1
 17 18  1  0
 19 23  1  0
 19 17  1  0
 20 19  2  0
 21 22  2  0
 22 12  1  0
 24 23  1  0
 24 30  1  0
 24 25  1  6
 26 25  1  0
 27 28  1  0
 27 26  1  0
 28 29  1  0
 30 31  1  0
 32 30  2  0
M  END
$$$$
