HYK.pdb
     RDKit          3D

 32 33  0  0  1  0  0  0  0  0999 V2000
   10.0149  -16.8618   18.7717 N   0  0  0  0  0  0  0  0  0  0  0  0
    8.7038  -16.8352   19.4400 C   0  0  1  0  0  0  0  0  0  0  0  0
    8.2774  -18.2723   19.5849 C   0  0  0  0  0  0  0  0  0  0  0  0
    7.8537  -18.8698   18.3054 C   0  0  0  0  0  0  0  0  0  0  0  0
    6.5627  -18.7962   17.8265 C   0  0  0  0  0  0  0  0  0  0  0  0
    6.4952  -19.4300   16.6504 N   0  0  0  0  0  0  0  0  0  0  0  0
    7.7080  -19.9042   16.3689 C   0  0  0  0  0  0  0  0  0  0  0  0
    8.5481  -19.5620   17.3848 N   0  0  0  0  0  0  0  0  0  0  0  0
    8.9373  -16.3085   20.8150 C   0  0  0  0  0  0  0  0  0  0  0  0
   10.0110  -16.6755   21.3869 O   0  0  0  0  0  0  0  0  0  0  0  0
    7.3252  -11.8876   28.4322 O   0  0  0  0  0  0  0  0  0  0  0  0
    7.3122  -12.3782   27.1207 C   0  0  0  0  0  0  0  0  0  0  0  0
    8.1638  -11.8965   26.1464 C   0  0  0  0  0  0  0  0  0  0  0  0
    8.1361  -12.3950   24.8528 C   0  0  0  0  0  0  0  0  0  0  0  0
    7.2485  -13.3972   24.4960 C   0  0  0  0  0  0  0  0  0  0  0  0
    7.2111  -13.9331   23.1152 C   0  0  0  0  0  0  0  0  0  0  0  0
    8.2984  -14.8963   22.7945 C   0  0  2  0  0  0  0  0  0  0  0  0
    8.0184  -15.4406   21.4678 N   0  0  0  0  0  0  0  0  0  0  0  0
    8.4886  -15.9760   23.7879 C   0  0  0  0  0  0  0  0  0  0  0  0
    7.6632  -16.9164   23.7883 O   0  0  0  0  0  0  0  0  0  0  0  0
    6.4076  -13.8630   25.4848 C   0  0  0  0  0  0  0  0  0  0  0  0
    6.4331  -13.3666   26.7787 C   0  0  0  0  0  0  0  0  0  0  0  0
    9.5324  -16.0072   24.7224 N   0  0  0  0  0  0  0  0  0  0  0  0
    9.6600  -17.2144   25.6633 C   0  0  1  0  0  0  0  0  0  0  0  0
   10.5540  -18.1577   24.9753 C   0  0  0  0  0  0  0  0  0  0  0  0
   11.0086  -19.3695   25.6354 C   0  0  0  0  0  0  0  0  0  0  0  0
   11.9331  -20.3345   25.0219 C   0  0  0  0  0  0  0  0  0  0  0  0
   12.2396  -21.4968   26.0067 C   0  0  0  0  0  0  0  0  0  0  0  0
   12.9742  -22.4897   25.2721 N   0  0  0  0  0  0  0  0  0  0  0  0
   10.1370  -16.6179   26.9322 C   0  0  0  0  0  0  0  0  0  0  0  0
    9.9529  -17.0747   28.2054 O   0  0  0  0  0  0  0  0  0  0  0  0
   10.8169  -15.5173   26.8790 O   0  0  0  0  0  0  0  0  0  0  0  0
  2  1  1  6
  3  2  1  0
  3  4  1  0
  4  5  2  0
  5  6  1  0
  7  6  1  0
  8  4  1  0
  8  7  2  0
  9 18  1  0
  9  2  1  0
 10  9  2  0
 12 11  1  0
 13 12  2  0
 14 13  1  0
 15 14  2  0
 15 21  1  0
 16 15  1  0
 17 16  1  1
 17 18  1  0
 19 23  1  0
 19 17  1  0
 20 19  2  0
 21 22  2  0
 22 12  1  0
 24 23  1  0
 24 30  1  0
 24 25  1  6
 26 25  1  0
 27 28  1  0
 27 26  1  0
 28 29  1  0
 30 31  1  0
 32 30  2  0
M  END
$$$$
