HYK.pdb
     RDKit          3D

 32 33  0  0  1  0  0  0  0  0999 V2000
   10.5687  -13.1214   19.7290 N   0  0  0  0  0  0  0  0  0  0  0  0
    9.3005  -13.5689   20.3270 C   0  0  1  0  0  0  0  0  0  0  0  0
    8.8888  -14.8008   19.5648 C   0  0  0  0  0  0  0  0  0  0  0  0
    8.2396  -14.4821   18.2801 C   0  0  0  0  0  0  0  0  0  0  0  0
    8.1766  -13.2066   17.7598 C   0  0  0  0  0  0  0  0  0  0  0  0
    7.5286  -13.2424   16.5901 N   0  0  0  0  0  0  0  0  0  0  0  0
    7.1781  -14.5057   16.3529 C   0  0  0  0  0  0  0  0  0  0  0  0
    7.6135  -15.2730   17.3904 N   0  0  0  0  0  0  0  0  0  0  0  0
    9.6152  -14.0016   21.7185 C   0  0  0  0  0  0  0  0  0  0  0  0
   10.7647  -14.5091   21.9071 O   0  0  0  0  0  0  0  0  0  0  0  0
    8.6394  -14.9514   30.5664 O   0  0  0  0  0  0  0  0  0  0  0  0
    8.5231  -14.5932   29.2177 C   0  0  0  0  0  0  0  0  0  0  0  0
    9.3112  -13.6142   28.6459 C   0  0  0  0  0  0  0  0  0  0  0  0
    9.1814  -13.2731   27.3081 C   0  0  0  0  0  0  0  0  0  0  0  0
    8.2520  -13.9074   26.4996 C   0  0  0  0  0  0  0  0  0  0  0  0
    8.1056  -13.5466   25.0701 C   0  0  0  0  0  0  0  0  0  0  0  0
    9.0435  -14.2496   24.1542 C   0  0  2  0  0  0  0  0  0  0  0  0
    8.6905  -13.8617   22.7905 N   0  0  0  0  0  0  0  0  0  0  0  0
    9.0746  -15.7212   24.3021 C   0  0  0  0  0  0  0  0  0  0  0  0
    8.0650  -16.3629   23.9352 O   0  0  0  0  0  0  0  0  0  0  0  0
    7.4760  -14.8814   27.0918 C   0  0  0  0  0  0  0  0  0  0  0  0
    7.6035  -15.2245   28.4287 C   0  0  0  0  0  0  0  0  0  0  0  0
   10.1615  -16.4343   24.8256 N   0  0  0  0  0  0  0  0  0  0  0  0
   10.0271  -17.9478   25.0492 C   0  0  1  0  0  0  0  0  0  0  0  0
   10.8904  -18.5741   24.0368 C   0  0  0  0  0  0  0  0  0  0  0  0
   10.5153  -18.5713   22.6332 C   0  0  0  0  0  0  0  0  0  0  0  0
   11.3539  -19.1334   21.5640 C   0  0  0  0  0  0  0  0  0  0  0  0
   10.6704  -18.9468   20.1809 C   0  0  0  0  0  0  0  0  0  0  0  0
   11.6272  -19.3356   19.1816 N   0  0  0  0  0  0  0  0  0  0  0  0
   10.3987  -18.1240   26.4720 C   0  0  0  0  0  0  0  0  0  0  0  0
   10.0848  -19.1562   27.3084 O   0  0  0  0  0  0  0  0  0  0  0  0
   11.1087  -17.2037   27.0423 O   0  0  0  0  0  0  0  0  0  0  0  0
  2  1  1  6
  3  2  1  0
  3  4  1  0
  4  5  2  0
  5  6  1  0
  7  6  1  0
  8  4  1  0
  8  7  2  0
  9 18  1  0
  9  2  1  0
 10  9  2  0
 12 11  1  0
 13 12  2  0
 14 13  1  0
 15 14  2  0
 15 21  1  0
 16 15  1  0
 17 16  1  1
 17 18  1  0
 19 23  1  0
 19 17  1  0
 20 19  2  0
 21 22  2  0
 22 12  1  0
 24 23  1  0
 24 30  1  0
 24 25  1  6
 26 25  1  0
 27 28  1  0
 27 26  1  0
 28 29  1  0
 30 31  1  0
 32 30  2  0
M  END
$$$$
