HYK.pdb
     RDKit          3D

 32 33  0  0  1  0  0  0  0  0999 V2000
   31.9517  -71.1109   -8.2080 N   0  0  0  0  0  0  0  0  0  0  0  0
   30.5110  -71.3863   -8.3293 C   0  0  1  0  0  0  0  0  0  0  0  0
   30.2613  -72.6592   -7.5641 C   0  0  0  0  0  0  0  0  0  0  0  0
   28.8433  -72.8328   -7.1996 C   0  0  0  0  0  0  0  0  0  0  0  0
   28.1360  -73.9915   -7.4419 C   0  0  0  0  0  0  0  0  0  0  0  0
   26.8828  -73.8401   -6.9991 N   0  0  0  0  0  0  0  0  0  0  0  0
   26.7745  -72.6170   -6.4821 C   0  0  0  0  0  0  0  0  0  0  0  0
   27.9789  -71.9927   -6.6030 N   0  0  0  0  0  0  0  0  0  0  0  0
   29.8057  -70.2936   -7.6006 C   0  0  0  0  0  0  0  0  0  0  0  0
   28.9286  -70.6522   -6.7540 O   0  0  0  0  0  0  0  0  0  0  0  0
   27.9967  -71.2302  -13.4645 O   0  0  0  0  0  0  0  0  0  0  0  0
   28.6650  -70.4009  -12.5553 C   0  0  0  0  0  0  0  0  0  0  0  0
   28.3448  -70.3727  -11.2125 C   0  0  0  0  0  0  0  0  0  0  0  0
   29.0182  -69.5446  -10.3272 C   0  0  0  0  0  0  0  0  0  0  0  0
   30.0384  -68.7157  -10.7650 C   0  0  0  0  0  0  0  0  0  0  0  0
   30.7606  -67.8262   -9.8257 C   0  0  0  0  0  0  0  0  0  0  0  0
   31.2569  -68.4971   -8.5943 C   0  0  2  0  0  0  0  0  0  0  0  0
   30.0864  -68.9176   -7.8276 N   0  0  0  0  0  0  0  0  0  0  0  0
   32.1756  -67.6839   -7.7677 C   0  0  0  0  0  0  0  0  0  0  0  0
   33.3951  -67.9599   -7.8128 O   0  0  0  0  0  0  0  0  0  0  0  0
   30.3410  -68.7603  -12.1096 C   0  0  0  0  0  0  0  0  0  0  0  0
   29.6696  -69.5871  -12.9969 C   0  0  0  0  0  0  0  0  0  0  0  0
   31.7627  -66.6292   -6.9424 N   0  0  0  0  0  0  0  0  0  0  0  0
   30.8438  -65.5421   -7.5190 C   0  0  1  0  0  0  0  0  0  0  0  0
   29.5180  -65.7962   -6.9360 C   0  0  0  0  0  0  0  0  0  0  0  0
   29.3205  -66.8662   -5.9731 C   0  0  0  0  0  0  0  0  0  0  0  0
   29.4093  -66.6796   -4.5172 C   0  0  0  0  0  0  0  0  0  0  0  0
   29.5140  -68.0530   -3.7976 C   0  0  0  0  0  0  0  0  0  0  0  0
   28.3656  -68.1695   -2.9416 N   0  0  0  0  0  0  0  0  0  0  0  0
   31.5249  -64.2794   -7.1510 C   0  0  0  0  0  0  0  0  0  0  0  0
   31.2573  -63.4463   -6.1031 O   0  0  0  0  0  0  0  0  0  0  0  0
   32.5040  -63.8683   -7.8917 O   0  0  0  0  0  0  0  0  0  0  0  0
  2  1  1  1
  3  2  1  0
  3  4  1  0
  4  5  2  0
  5  6  1  0
  7  6  1  0
  8  4  1  0
  8  7  2  0
  9 18  1  0
  9  2  1  0
 10  9  2  0
 12 11  1  0
 13 12  2  0
 14 13  1  0
 15 14  2  0
 15 21  1  0
 16 15  1  0
 17 16  1  6
 17 18  1  0
 19 23  1  0
 19 17  1  0
 20 19  2  0
 21 22  2  0
 22 12  1  0
 24 23  1  0
 24 30  1  0
 24 25  1  1
 26 25  1  0
 27 28  1  0
 27 26  1  0
 28 29  1  0
 30 31  1  0
 32 30  2  0
M  END
$$$$
