HYK.pdb
     RDKit          3D

 32 33  0  0  1  0  0  0  0  0999 V2000
    8.0294  -12.8296   19.4090 N   0  0  0  0  0  0  0  0  0  0  0  0
    7.8131  -14.2454   19.7480 C   0  0  1  0  0  0  0  0  0  0  0  0
    8.7190  -15.0369   18.8419 C   0  0  0  0  0  0  0  0  0  0  0  0
    8.6311  -16.4892   19.0803 C   0  0  0  0  0  0  0  0  0  0  0  0
    9.6917  -17.2481   19.5284 C   0  0  0  0  0  0  0  0  0  0  0  0
    9.3001  -18.5218   19.6454 N   0  0  0  0  0  0  0  0  0  0  0  0
    8.0197  -18.5930   19.2840 C   0  0  0  0  0  0  0  0  0  0  0  0
    7.6031  -17.3442   18.9352 N   0  0  0  0  0  0  0  0  0  0  0  0
    8.3159  -14.4319   21.1390 C   0  0  0  0  0  0  0  0  0  0  0  0
    9.4815  -13.9890   21.3836 O   0  0  0  0  0  0  0  0  0  0  0  0
    6.9182  -10.2179   27.4871 O   0  0  0  0  0  0  0  0  0  0  0  0
    6.9288  -11.3965   26.7310 C   0  0  0  0  0  0  0  0  0  0  0  0
    8.0351  -11.7972   26.0085 C   0  0  0  0  0  0  0  0  0  0  0  0
    8.0266  -12.9680   25.2655 C   0  0  0  0  0  0  0  0  0  0  0  0
    6.9020  -13.7761   25.2250 C   0  0  0  0  0  0  0  0  0  0  0  0
    6.8844  -15.0271   24.4314 C   0  0  0  0  0  0  0  0  0  0  0  0
    8.0461  -15.1983   23.5183 C   0  0  2  0  0  0  0  0  0  0  0  0
    7.5462  -15.0694   22.1514 N   0  0  0  0  0  0  0  0  0  0  0  0
    8.7999  -16.4586   23.6969 C   0  0  0  0  0  0  0  0  0  0  0  0
    8.2662  -17.5162   23.2939 O   0  0  0  0  0  0  0  0  0  0  0  0
    5.8092  -13.3565   25.9539 C   0  0  0  0  0  0  0  0  0  0  0  0
    5.8147  -12.1866   26.6975 C   0  0  0  0  0  0  0  0  0  0  0  0
   10.0684  -16.5371   24.2872 N   0  0  0  0  0  0  0  0  0  0  0  0
   10.7229  -17.9135   24.4769 C   0  0  1  0  0  0  0  0  0  0  0  0
   12.1285  -17.7397   24.0814 C   0  0  0  0  0  0  0  0  0  0  0  0
   12.5182  -17.7730   22.6822 C   0  0  0  0  0  0  0  0  0  0  0  0
   13.9009  -17.5894   22.2164 C   0  0  0  0  0  0  0  0  0  0  0  0
   13.9356  -17.4034   20.6739 C   0  0  0  0  0  0  0  0  0  0  0  0
   15.3139  -17.2453   20.2989 N   0  0  0  0  0  0  0  0  0  0  0  0
   10.4440  -18.2393   25.8945 C   0  0  0  0  0  0  0  0  0  0  0  0
   10.5199  -19.4523   26.5162 O   0  0  0  0  0  0  0  0  0  0  0  0
   10.0717  -17.2838   26.6850 O   0  0  0  0  0  0  0  0  0  0  0  0
  2  1  1  6
  3  2  1  0
  3  4  1  0
  4  5  2  0
  5  6  1  0
  7  6  1  0
  8  4  1  0
  8  7  2  0
  9 18  1  0
  9  2  1  0
 10  9  2  0
 12 11  1  0
 13 12  2  0
 14 13  1  0
 15 14  2  0
 15 21  1  0
 16 15  1  0
 17 16  1  1
 17 18  1  0
 19 23  1  0
 19 17  1  0
 20 19  2  0
 21 22  2  0
 22 12  1  0
 24 23  1  0
 24 30  1  0
 24 25  1  1
 26 25  1  0
 27 28  1  0
 27 26  1  0
 28 29  1  0
 30 31  1  0
 32 30  2  0
M  END
$$$$
