HYK.pdb
     RDKit          3D

 32 33  0  0  1  0  0  0  0  0999 V2000
    9.1856  -14.8044   19.9666 N   0  0  0  0  0  0  0  0  0  0  0  0
    8.3569  -15.7510   20.7303 C   0  0  1  0  0  0  0  0  0  0  0  0
    8.7351  -17.1257   20.2453 C   0  0  0  0  0  0  0  0  0  0  0  0
    8.1307  -17.4529   18.9409 C   0  0  0  0  0  0  0  0  0  0  0  0
    7.4705  -16.5283   18.1594 C   0  0  0  0  0  0  0  0  0  0  0  0
    7.0383  -17.1268   17.0439 N   0  0  0  0  0  0  0  0  0  0  0  0
    7.4058  -18.4063   17.0952 C   0  0  0  0  0  0  0  0  0  0  0  0
    8.0787  -18.6123   18.2612 N   0  0  0  0  0  0  0  0  0  0  0  0
    8.7978  -15.6530   22.1510 C   0  0  0  0  0  0  0  0  0  0  0  0
   10.0158  -15.3476   22.3458 O   0  0  0  0  0  0  0  0  0  0  0  0
    6.6789   -9.9760   26.7339 O   0  0  0  0  0  0  0  0  0  0  0  0
    6.8321  -11.3330   26.4237 C   0  0  0  0  0  0  0  0  0  0  0  0
    8.0520  -11.8733   26.0683 C   0  0  0  0  0  0  0  0  0  0  0  0
    8.1840  -13.2198   25.7645 C   0  0  0  0  0  0  0  0  0  0  0  0
    7.0902  -14.0691   25.8084 C   0  0  0  0  0  0  0  0  0  0  0  0
    7.2228  -15.5083   25.4826 C   0  0  0  0  0  0  0  0  0  0  0  0
    8.3905  -15.8446   24.6246 C   0  0  2  0  0  0  0  0  0  0  0  0
    7.9164  -15.8854   23.2432 N   0  0  0  0  0  0  0  0  0  0  0  0
    9.0922  -17.0953   24.9878 C   0  0  0  0  0  0  0  0  0  0  0  0
    8.5679  -18.1769   24.6404 O   0  0  0  0  0  0  0  0  0  0  0  0
    5.8823  -13.5079   26.1656 C   0  0  0  0  0  0  0  0  0  0  0  0
    5.7473  -12.1623   26.4698 C   0  0  0  0  0  0  0  0  0  0  0  0
   10.3020  -17.1394   25.6937 N   0  0  0  0  0  0  0  0  0  0  0  0
   10.9296  -18.5025   26.0206 C   0  0  1  0  0  0  0  0  0  0  0  0
   12.3095  -18.4322   25.5174 C   0  0  0  0  0  0  0  0  0  0  0  0
   13.2278  -19.5425   25.7036 C   0  0  0  0  0  0  0  0  0  0  0  0
   14.6227  -19.5338   25.2383 C   0  0  0  0  0  0  0  0  0  0  0  0
   15.3561  -20.8266   25.6918 C   0  0  0  0  0  0  0  0  0  0  0  0
   16.7039  -20.7416   25.2004 N   0  0  0  0  0  0  0  0  0  0  0  0
   10.7383  -18.6321   27.4835 C   0  0  0  0  0  0  0  0  0  0  0  0
   10.9100  -19.7373   28.2662 O   0  0  0  0  0  0  0  0  0  0  0  0
   10.3539  -17.5905   28.1497 O   0  0  0  0  0  0  0  0  0  0  0  0
  2  1  1  6
  3  2  1  0
  3  4  1  0
  4  5  2  0
  5  6  1  0
  7  6  1  0
  8  4  1  0
  8  7  2  0
  9 18  1  0
  9  2  1  0
 10  9  2  0
 12 11  1  0
 13 12  2  0
 14 13  1  0
 15 14  2  0
 15 21  1  0
 16 15  1  0
 17 16  1  1
 17 18  1  0
 19 23  1  0
 19 17  1  0
 20 19  2  0
 21 22  2  0
 22 12  1  0
 24 23  1  0
 24 30  1  0
 24 25  1  1
 26 25  1  0
 27 28  1  0
 27 26  1  0
 28 29  1  0
 30 31  1  0
 32 30  2  0
M  END
$$$$
