HYK.pdb
     RDKit          3D

 32 33  0  0  1  0  0  0  0  0999 V2000
    8.7301  -16.5135   21.5365 N   0  0  0  0  0  0  0  0  0  0  0  0
    9.9993  -15.9047   21.9664 C   0  0  1  0  0  0  0  0  0  0  0  0
   10.0765  -14.5664   21.2801 C   0  0  0  0  0  0  0  0  0  0  0  0
    9.0194  -14.3863   20.2683 C   0  0  0  0  0  0  0  0  0  0  0  0
    8.1231  -15.3766   19.9256 C   0  0  0  0  0  0  0  0  0  0  0  0
    7.2937  -14.9102   18.9853 N   0  0  0  0  0  0  0  0  0  0  0  0
    7.6386  -13.6508   18.7211 C   0  0  0  0  0  0  0  0  0  0  0  0
    8.7006  -13.3233   19.5084 N   0  0  0  0  0  0  0  0  0  0  0  0
    9.8706  -15.6389   23.4277 C   0  0  0  0  0  0  0  0  0  0  0  0
   10.8354  -15.0215   23.9777 O   0  0  0  0  0  0  0  0  0  0  0  0
    6.6902   -9.9390   26.8770 O   0  0  0  0  0  0  0  0  0  0  0  0
    6.8352  -11.3143   26.6568 C   0  0  0  0  0  0  0  0  0  0  0  0
    6.0115  -12.0126   25.7963 C   0  0  0  0  0  0  0  0  0  0  0  0
    6.1706  -13.3747   25.5912 C   0  0  0  0  0  0  0  0  0  0  0  0
    7.1663  -14.0808   26.2467 C   0  0  0  0  0  0  0  0  0  0  0  0
    7.3408  -15.5367   26.0347 C   0  0  0  0  0  0  0  0  0  0  0  0
    8.7155  -15.9452   25.6397 C   0  0  2  0  0  0  0  0  0  0  0  0
    8.7358  -16.0472   24.1823 N   0  0  0  0  0  0  0  0  0  0  0  0
    9.2019  -17.1915   26.2713 C   0  0  0  0  0  0  0  0  0  0  0  0
    8.9873  -17.3444   27.4944 O   0  0  0  0  0  0  0  0  0  0  0  0
    7.9768  -13.3633   27.1010 C   0  0  0  0  0  0  0  0  0  0  0  0
    7.8201  -12.0017   27.3081 C   0  0  0  0  0  0  0  0  0  0  0  0
    9.8846  -18.2043   25.5843 N   0  0  0  0  0  0  0  0  0  0  0  0
   10.3699  -19.4390   26.3583 C   0  0  1  0  0  0  0  0  0  0  0  0
   10.5312  -20.4978   25.3507 C   0  0  0  0  0  0  0  0  0  0  0  0
   11.0854  -21.7913   25.7116 C   0  0  0  0  0  0  0  0  0  0  0  0
   11.3443  -22.8666   24.7425 C   0  0  0  0  0  0  0  0  0  0  0  0
   11.9346  -24.1136   25.4576 C   0  0  0  0  0  0  0  0  0  0  0  0
   12.2588  -25.0715   24.4365 N   0  0  0  0  0  0  0  0  0  0  0  0
   11.5881  -18.9592   27.0507 C   0  0  0  0  0  0  0  0  0  0  0  0
   12.5846  -18.1653   26.5604 O   0  0  0  0  0  0  0  0  0  0  0  0
   11.7796  -19.3167   28.2803 O   0  0  0  0  0  0  0  0  0  0  0  0
  2  1  1  6
  3  2  1  0
  3  4  1  0
  4  5  2  0
  5  6  1  0
  7  6  1  0
  8  4  1  0
  8  7  2  0
  9 18  1  0
  9  2  1  0
 10  9  2  0
 12 11  1  0
 13 12  2  0
 14 13  1  0
 15 14  2  0
 15 21  1  0
 16 15  1  0
 17 16  1  1
 17 18  1  0
 19 23  1  0
 19 17  1  0
 20 19  2  0
 21 22  2  0
 22 12  1  0
 24 23  1  0
 24 30  1  0
 24 25  1  6
 26 25  1  0
 27 28  1  0
 27 26  1  0
 28 29  1  0
 30 31  1  0
 32 30  2  0
M  END
$$$$
