HYK.pdb
     RDKit          3D

 32 33  0  0  1  0  0  0  0  0999 V2000
   10.6451  -17.7396   19.5087 N   0  0  0  0  0  0  0  0  0  0  0  0
    9.3034  -17.7867   20.1117 C   0  0  1  0  0  0  0  0  0  0  0  0
    9.0498  -19.2300   20.4590 C   0  0  0  0  0  0  0  0  0  0  0  0
    8.3568  -19.9592   19.3812 C   0  0  0  0  0  0  0  0  0  0  0  0
    8.0381  -19.3905   18.1661 C   0  0  0  0  0  0  0  0  0  0  0  0
    7.4180  -20.3001   17.4061 N   0  0  0  0  0  0  0  0  0  0  0  0
    7.3339  -21.4312   18.1051 C   0  0  0  0  0  0  0  0  0  0  0  0
    7.9105  -21.2266   19.3218 N   0  0  0  0  0  0  0  0  0  0  0  0
    9.3878  -17.0369   21.3975 C   0  0  0  0  0  0  0  0  0  0  0  0
   10.4769  -17.1418   22.0434 O   0  0  0  0  0  0  0  0  0  0  0  0
    6.9816  -11.4674   27.9832 O   0  0  0  0  0  0  0  0  0  0  0  0
    7.0760  -12.2094   26.7994 C   0  0  0  0  0  0  0  0  0  0  0  0
    8.0070  -11.9197   25.8217 C   0  0  0  0  0  0  0  0  0  0  0  0
    8.0853  -12.6663   24.6558 C   0  0  0  0  0  0  0  0  0  0  0  0
    7.2273  -13.7314   24.4346 C   0  0  0  0  0  0  0  0  0  0  0  0
    7.3030  -14.5320   23.1903 C   0  0  0  0  0  0  0  0  0  0  0  0
    8.4386  -15.4915   23.1387 C   0  0  2  0  0  0  0  0  0  0  0  0
    8.3164  -16.2414   21.8907 N   0  0  0  0  0  0  0  0  0  0  0  0
    8.5416  -16.3995   24.3020 C   0  0  0  0  0  0  0  0  0  0  0  0
    7.6230  -17.2320   24.4717 O   0  0  0  0  0  0  0  0  0  0  0  0
    6.3059  -14.0024   25.4242 C   0  0  0  0  0  0  0  0  0  0  0  0
    6.2254  -13.2579   26.5907 C   0  0  0  0  0  0  0  0  0  0  0  0
    9.6008  -16.3821   25.2194 N   0  0  0  0  0  0  0  0  0  0  0  0
    9.6345  -17.4264   26.3450 C   0  0  1  0  0  0  0  0  0  0  0  0
   10.6493  -18.4105   25.9397 C   0  0  0  0  0  0  0  0  0  0  0  0
   10.3303  -19.4602   24.9873 C   0  0  0  0  0  0  0  0  0  0  0  0
   11.3200  -20.4124   24.4615 C   0  0  0  0  0  0  0  0  0  0  0  0
   10.6666  -21.3519   23.4102 C   0  0  0  0  0  0  0  0  0  0  0  0
   11.7249  -22.1227   22.8176 N   0  0  0  0  0  0  0  0  0  0  0  0
    9.9051  -16.6217   27.5586 C   0  0  0  0  0  0  0  0  0  0  0  0
    9.5787  -16.9048   28.8535 O   0  0  0  0  0  0  0  0  0  0  0  0
   10.5245  -15.4927   27.4243 O   0  0  0  0  0  0  0  0  0  0  0  0
  2  1  1  1
  3  2  1  0
  3  4  1  0
  4  5  2  0
  5  6  1  0
  7  6  1  0
  8  4  1  0
  8  7  2  0
  9 18  1  0
  9  2  1  0
 10  9  2  0
 12 11  1  0
 13 12  2  0
 14 13  1  0
 15 14  2  0
 15 21  1  0
 16 15  1  0
 17 16  1  1
 17 18  1  0
 19 23  1  0
 19 17  1  0
 20 19  2  0
 21 22  2  0
 22 12  1  0
 24 23  1  0
 24 30  1  0
 24 25  1  6
 26 25  1  0
 27 28  1  0
 27 26  1  0
 28 29  1  0
 30 31  1  0
 32 30  2  0
M  END
$$$$
