HYK.pdb
     RDKit          3D

 32 33  0  0  1  0  0  0  0  0999 V2000
    9.3247  -18.1932   18.4986 N   0  0  0  0  0  0  0  0  0  0  0  0
    8.7263  -18.6972   19.7453 C   0  0  1  0  0  0  0  0  0  0  0  0
    9.3104  -20.0674   19.9672 C   0  0  0  0  0  0  0  0  0  0  0  0
    8.6994  -21.0915   19.1003 C   0  0  0  0  0  0  0  0  0  0  0  0
    7.3404  -21.1914   18.8891 C   0  0  0  0  0  0  0  0  0  0  0  0
    7.1000  -22.2133   18.0600 N   0  0  0  0  0  0  0  0  0  0  0  0
    8.2692  -22.7654   17.7386 C   0  0  0  0  0  0  0  0  0  0  0  0
    9.2571  -22.0784   18.3764 N   0  0  0  0  0  0  0  0  0  0  0  0
    9.2314  -17.8244   20.8433 C   0  0  0  0  0  0  0  0  0  0  0  0
   10.4070  -17.3628   20.7040 O   0  0  0  0  0  0  0  0  0  0  0  0
    7.2395  -11.9725   19.0325 O   0  0  0  0  0  0  0  0  0  0  0  0
    7.4435  -12.8572   20.0986 C   0  0  0  0  0  0  0  0  0  0  0  0
    8.5012  -12.7210   20.9757 C   0  0  0  0  0  0  0  0  0  0  0  0
    8.6867  -13.6074   22.0259 C   0  0  0  0  0  0  0  0  0  0  0  0
    7.8121  -14.6626   22.2285 C   0  0  0  0  0  0  0  0  0  0  0  0
    8.0052  -15.6153   23.3466 C   0  0  0  0  0  0  0  0  0  0  0  0
    8.9916  -16.6956   23.0770 C   0  0  2  0  0  0  0  0  0  0  0  0
    8.4532  -17.5141   21.9931 N   0  0  0  0  0  0  0  0  0  0  0  0
    9.3453  -17.5247   24.2501 C   0  0  0  0  0  0  0  0  0  0  0  0
    8.4544  -18.2599   24.7311 O   0  0  0  0  0  0  0  0  0  0  0  0
    6.7635  -14.7792   21.3405 C   0  0  0  0  0  0  0  0  0  0  0  0
    6.5755  -13.8947   20.2899 C   0  0  0  0  0  0  0  0  0  0  0  0
   10.6115  -17.5348   24.8505 N   0  0  0  0  0  0  0  0  0  0  0  0
   10.8756  -18.4866   26.0265 C   0  0  1  0  0  0  0  0  0  0  0  0
   12.2448  -18.9857   25.8301 C   0  0  0  0  0  0  0  0  0  0  0  0
   12.6491  -19.5729   24.5642 C   0  0  0  0  0  0  0  0  0  0  0  0
   14.0015  -20.0854   24.2980 C   0  0  0  0  0  0  0  0  0  0  0  0
   14.0654  -20.7507   22.8951 C   0  0  0  0  0  0  0  0  0  0  0  0
   15.4144  -21.2089   22.7065 N   0  0  0  0  0  0  0  0  0  0  0  0
   10.6155  -17.6474   27.2188 C   0  0  0  0  0  0  0  0  0  0  0  0
   10.2991  -18.0483   28.4848 O   0  0  0  0  0  0  0  0  0  0  0  0
   10.6798  -16.3604   27.0929 O   0  0  0  0  0  0  0  0  0  0  0  0
  2  1  1  6
  3  2  1  0
  3  4  1  0
  4  5  2  0
  5  6  1  0
  7  6  1  0
  8  4  1  0
  8  7  2  0
  9 18  1  0
  9  2  1  0
 10  9  2  0
 12 11  1  0
 13 12  2  0
 14 13  1  0
 15 14  2  0
 15 21  1  0
 16 15  1  0
 17 16  1  1
 17 18  1  0
 19 23  1  0
 19 17  1  0
 20 19  2  0
 21 22  2  0
 22 12  1  0
 24 23  1  0
 24 30  1  0
 24 25  1  1
 26 25  1  0
 27 28  1  0
 27 26  1  0
 28 29  1  0
 30 31  1  0
 32 30  2  0
M  END
$$$$
