IYQ.pdb
     RDKit          3D

 30 30  0  0  1  0  0  0  0  0999 V2000
   26.5701  -16.8248  -16.8562 C   0  0  0  0  0  0  0  0  0  0  0  0
   26.8672  -15.3793  -16.5630 C   0  0  0  0  0  0  0  0  0  0  0  0
   25.8765  -14.4576  -17.2427 C   0  0  2  0  0  0  0  0  0  0  0  0
   25.8300  -14.8006  -18.7146 C   0  0  0  0  0  0  0  0  0  0  0  0
   26.1889  -12.9998  -17.0019 C   0  0  2  0  0  0  0  0  0  0  0  0
   26.0963  -12.8139  -15.5453 N   0  0  0  0  0  0  0  0  0  0  0  0
   25.1974  -12.0999  -17.6270 C   0  0  0  0  0  0  0  0  0  0  0  0
   25.0577  -12.0951  -18.8985 O   0  0  0  0  0  0  0  0  0  0  0  0
   18.3609   -7.5715  -20.3606 O   0  0  0  0  0  0  0  0  0  0  0  0
   19.3448   -8.3971  -19.8335 C   0  0  0  0  0  0  0  0  0  0  0  0
   20.6836   -8.2216  -20.1201 C   0  0  0  0  0  0  0  0  0  0  0  0
   21.6315   -9.0633  -19.5765 C   0  0  0  0  0  0  0  0  0  0  0  0
   21.3106  -10.1090  -18.7324 C   0  0  0  0  0  0  0  0  0  0  0  0
   22.3206  -11.0144  -18.1529 C   0  0  0  0  0  0  0  0  0  0  0  0
   23.4056  -10.3119  -17.4167 C   0  0  2  0  0  0  0  0  0  0  0  0
   24.3827  -11.2284  -16.8596 N   0  0  0  0  0  0  0  0  0  0  0  0
   22.8945   -9.4684  -16.3273 C   0  0  0  0  0  0  0  0  0  0  0  0
   22.4381   -9.9962  -15.2935 O   0  0  0  0  0  0  0  0  0  0  0  0
   19.9455  -10.2645  -18.4582 C   0  0  0  0  0  0  0  0  0  0  0  0
   18.9878   -9.4308  -18.9944 C   0  0  0  0  0  0  0  0  0  0  0  0
   23.0407   -3.1536  -16.0882 N   0  0  0  0  0  0  0  0  0  0  0  0
   22.5191   -3.4533  -14.8065 C   0  0  0  0  0  0  0  0  0  0  0  0
   22.2851   -2.5514  -13.9863 O   0  0  0  0  0  0  0  0  0  0  0  0
   22.2628   -4.9047  -14.4850 C   0  0  0  0  0  0  0  0  0  0  0  0
   22.6260   -5.7730  -15.6557 C   0  0  0  0  0  0  0  0  0  0  0  0
   22.4578   -7.2165  -15.3229 C   0  0  2  0  0  0  0  0  0  0  0  0
   22.9085   -8.0649  -16.4253 N   0  0  0  0  0  0  0  0  0  0  0  0
   21.0443   -7.5193  -15.0441 C   0  0  0  0  0  0  0  0  0  0  0  0
   20.1999   -7.7005  -16.1616 O   0  0  0  0  0  0  0  0  0  0  0  0
   20.5398   -7.6270  -13.9138 O   0  0  0  0  0  0  0  0  0  0  0  0
  2  1  1  0
  3  2  1  0
  3  4  1  6
  5  3  1  0
  5  6  1  1
  7  5  1  0
  7  8  2  0
  9 10  1  0
 10 20  2  0
 11 10  1  0
 11 12  2  0
 12 13  1  0
 13 19  2  0
 13 14  1  0
 15 14  1  1
 15 16  1  0
 16  7  1  0
 17 15  1  0
 18 17  2  0
 20 19  1  0
 22 21  1  0
 22 23  2  0
 24 22  1  0
 25 24  1  0
 26 25  1  6
 26 27  1  0
 27 17  1  0
 28 29  1  0
 28 26  1  0
 30 28  2  0
M  END
$$$$
