IYQ.pdb
     RDKit          3D

 30 30  0  0  1  0  0  0  0  0999 V2000
   28.6416  -21.6303  -20.8227 C   0  0  0  0  0  0  0  0  0  0  0  0
   29.1972  -21.9544  -19.4626 C   0  0  0  0  0  0  0  0  0  0  0  0
   28.1039  -22.0334  -18.4180 C   0  0  2  0  0  0  0  0  0  0  0  0
   27.3053  -20.7499  -18.4576 C   0  0  0  0  0  0  0  0  0  0  0  0
   28.6456  -22.3309  -17.0401 C   0  0  2  0  0  0  0  0  0  0  0  0
   29.1943  -23.6937  -17.1198 N   0  0  0  0  0  0  0  0  0  0  0  0
   27.5881  -22.3389  -16.0080 C   0  0  0  0  0  0  0  0  0  0  0  0
   26.7902  -23.3352  -15.9248 O   0  0  0  0  0  0  0  0  0  0  0  0
   23.3466  -20.5732   -8.4080 O   0  0  0  0  0  0  0  0  0  0  0  0
   24.2008  -20.5343   -9.5018 C   0  0  0  0  0  0  0  0  0  0  0  0
   23.8395  -19.9457  -10.6969 C   0  0  0  0  0  0  0  0  0  0  0  0
   24.7168  -19.9275  -11.7611 C   0  0  0  0  0  0  0  0  0  0  0  0
   25.9806  -20.4827  -11.7012 C   0  0  0  0  0  0  0  0  0  0  0  0
   26.9200  -20.4697  -12.8383 C   0  0  0  0  0  0  0  0  0  0  0  0
   26.4512  -21.2510  -14.0141 C   0  0  2  0  0  0  0  0  0  0  0  0
   27.4217  -21.2682  -15.0925 N   0  0  0  0  0  0  0  0  0  0  0  0
   25.1772  -20.7530  -14.5514 C   0  0  0  0  0  0  0  0  0  0  0  0
   25.1367  -19.6526  -15.1373 O   0  0  0  0  0  0  0  0  0  0  0  0
   26.3216  -21.0731  -10.4773 C   0  0  0  0  0  0  0  0  0  0  0  0
   25.4549  -21.0984   -9.4058 C   0  0  0  0  0  0  0  0  0  0  0  0
   20.4364  -23.8835  -16.8699 N   0  0  0  0  0  0  0  0  0  0  0  0
   19.8573  -22.5922  -16.8253 C   0  0  0  0  0  0  0  0  0  0  0  0
   18.7755  -22.3586  -17.3873 O   0  0  0  0  0  0  0  0  0  0  0  0
   20.6073  -21.5225  -16.0710 C   0  0  0  0  0  0  0  0  0  0  0  0
   21.9439  -22.0385  -15.6197 C   0  0  0  0  0  0  0  0  0  0  0  0
   22.7076  -20.9825  -14.8955 C   0  0  2  0  0  0  0  0  0  0  0  0
   23.9905  -21.4969  -14.4185 N   0  0  0  0  0  0  0  0  0  0  0  0
   21.9386  -20.4922  -13.7397 C   0  0  0  0  0  0  0  0  0  0  0  0
   21.1807  -19.3161  -13.9322 O   0  0  0  0  0  0  0  0  0  0  0  0
   21.9040  -21.0261  -12.6184 O   0  0  0  0  0  0  0  0  0  0  0  0
  2  1  1  0
  3  2  1  0
  3  4  1  1
  5  3  1  0
  5  6  1  6
  7  5  1  0
  7  8  2  0
  9 10  1  0
 10 20  2  0
 11 10  1  0
 11 12  2  0
 12 13  1  0
 13 19  2  0
 13 14  1  0
 15 14  1  1
 15 16  1  0
 16  7  1  0
 17 15  1  0
 18 17  2  0
 20 19  1  0
 22 21  1  0
 22 23  2  0
 24 22  1  0
 25 24  1  0
 26 25  1  1
 26 27  1  0
 27 17  1  0
 28 29  1  0
 28 26  1  0
 30 28  2  0
M  END
$$$$
