IYQ.pdb
     RDKit          3D

 30 30  0  0  1  0  0  0  0  0999 V2000
   29.3741  -24.8805  -19.0932 C   0  0  0  0  0  0  0  0  0  0  0  0
   28.3902  -23.7458  -19.0035 C   0  0  0  0  0  0  0  0  0  0  0  0
   27.4670  -23.9011  -17.8134 C   0  0  2  0  0  0  0  0  0  0  0  0
   26.7128  -25.2040  -17.9547 C   0  0  0  0  0  0  0  0  0  0  0  0
   26.5438  -22.7181  -17.6437 C   0  0  2  0  0  0  0  0  0  0  0  0
   27.4138  -21.5323  -17.6833 N   0  0  0  0  0  0  0  0  0  0  0  0
   25.8583  -22.7209  -16.3346 C   0  0  0  0  0  0  0  0  0  0  0  0
   25.0067  -23.6368  -16.0662 O   0  0  0  0  0  0  0  0  0  0  0  0
   23.5019  -20.4805   -8.0417 O   0  0  0  0  0  0  0  0  0  0  0  0
   24.1307  -20.5607   -9.2769 C   0  0  0  0  0  0  0  0  0  0  0  0
   23.6080  -19.9676  -10.4084 C   0  0  0  0  0  0  0  0  0  0  0  0
   24.2631  -20.0700  -11.6180 C   0  0  0  0  0  0  0  0  0  0  0  0
   25.4532  -20.7548  -11.7710 C   0  0  0  0  0  0  0  0  0  0  0  0
   26.1544  -20.8708  -13.0635 C   0  0  0  0  0  0  0  0  0  0  0  0
   25.3847  -21.6086  -14.1007 C   0  0  2  0  0  0  0  0  0  0  0  0
   26.1124  -21.7320  -15.3498 N   0  0  0  0  0  0  0  0  0  0  0  0
   24.0840  -20.9874  -14.3871 C   0  0  0  0  0  0  0  0  0  0  0  0
   24.0364  -19.8570  -14.9119 O   0  0  0  0  0  0  0  0  0  0  0  0
   25.9614  -21.3467  -10.6073 C   0  0  0  0  0  0  0  0  0  0  0  0
   25.3175  -21.2523   -9.3923 C   0  0  0  0  0  0  0  0  0  0  0  0
   19.6335  -19.4762  -18.4442 N   0  0  0  0  0  0  0  0  0  0  0  0
   20.4818  -20.4336  -17.8373 C   0  0  0  0  0  0  0  0  0  0  0  0
   20.7445  -21.5049  -18.4064 O   0  0  0  0  0  0  0  0  0  0  0  0
   21.0472  -20.0963  -16.4799 C   0  0  0  0  0  0  0  0  0  0  0  0
   20.9923  -21.2952  -15.5765 C   0  0  0  0  0  0  0  0  0  0  0  0
   21.5840  -20.9873  -14.2432 C   0  0  2  0  0  0  0  0  0  0  0  0
   22.8793  -21.6458  -14.0794 N   0  0  0  0  0  0  0  0  0  0  0  0
   20.6878  -21.4381  -13.1657 C   0  0  0  0  0  0  0  0  0  0  0  0
   21.1189  -22.5440  -12.4003 O   0  0  0  0  0  0  0  0  0  0  0  0
   19.5920  -20.9275  -12.8789 O   0  0  0  0  0  0  0  0  0  0  0  0
  2  1  1  0
  3  2  1  0
  3  4  1  6
  5  3  1  0
  5  6  1  1
  7  5  1  0
  7  8  2  0
  9 10  1  0
 10 20  2  0
 11 10  1  0
 11 12  2  0
 12 13  1  0
 13 19  2  0
 13 14  1  0
 15 14  1  1
 15 16  1  0
 16  7  1  0
 17 15  1  0
 18 17  2  0
 20 19  1  0
 22 21  1  0
 22 23  2  0
 24 22  1  0
 25 24  1  0
 26 25  1  6
 26 27  1  0
 27 17  1  0
 28 29  1  0
 28 26  1  0
 30 28  2  0
M  END
$$$$
