IYQ.pdb
     RDKit          3D

 30 30  0  0  1  0  0  0  0  0999 V2000
   17.9689  -19.6560  -15.9920 C   0  0  0  0  0  0  0  0  0  0  0  0
   18.4433  -20.5110  -14.8484 C   0  0  0  0  0  0  0  0  0  0  0  0
   19.8379  -20.1236  -14.4038 C   0  0  2  0  0  0  0  0  0  0  0  0
   20.7525  -20.1489  -15.6077 C   0  0  0  0  0  0  0  0  0  0  0  0
   20.3451  -20.9936  -13.2784 C   0  0  2  0  0  0  0  0  0  0  0  0
   19.3644  -20.8418  -12.1922 N   0  0  0  0  0  0  0  0  0  0  0  0
   21.6529  -20.5406  -12.7607 C   0  0  0  0  0  0  0  0  0  0  0  0
   21.7935  -19.3338  -12.3607 O   0  0  0  0  0  0  0  0  0  0  0  0
   30.0509  -20.3647   -9.9114 O   0  0  0  0  0  0  0  0  0  0  0  0
   28.7489  -20.7202  -10.2367 C   0  0  0  0  0  0  0  0  0  0  0  0
   27.6696  -20.3522   -9.4589 C   0  0  0  0  0  0  0  0  0  0  0  0
   26.3905  -20.7252   -9.8160 C   0  0  0  0  0  0  0  0  0  0  0  0
   26.1144  -21.4716  -10.9453 C   0  0  0  0  0  0  0  0  0  0  0  0
   24.7486  -21.8766  -11.3281 C   0  0  0  0  0  0  0  0  0  0  0  0
   24.1178  -20.9844  -12.3374 C   0  0  2  0  0  0  0  0  0  0  0  0
   22.7748  -21.4058  -12.6894 N   0  0  0  0  0  0  0  0  0  0  0  0
   24.9060  -20.8842  -13.5737 C   0  0  0  0  0  0  0  0  0  0  0  0
   24.9059  -21.8274  -14.3898 O   0  0  0  0  0  0  0  0  0  0  0  0
   27.2273  -21.8314  -11.7165 C   0  0  0  0  0  0  0  0  0  0  0  0
   28.5107  -21.4655  -11.3716 C   0  0  0  0  0  0  0  0  0  0  0  0
   27.4647  -15.6309  -15.9341 N   0  0  0  0  0  0  0  0  0  0  0  0
   28.0512  -16.6013  -16.7820 C   0  0  0  0  0  0  0  0  0  0  0  0
   28.8646  -16.2729  -17.6602 O   0  0  0  0  0  0  0  0  0  0  0  0
   27.6469  -18.0395  -16.5722 C   0  0  0  0  0  0  0  0  0  0  0  0
   26.7795  -18.1676  -15.3526 C   0  0  0  0  0  0  0  0  0  0  0  0
   26.3743  -19.5853  -15.1316 C   0  0  2  0  0  0  0  0  0  0  0  0
   25.6682  -19.7369  -13.8602 N   0  0  0  0  0  0  0  0  0  0  0  0
   27.5563  -20.4628  -15.1205 C   0  0  0  0  0  0  0  0  0  0  0  0
   27.9101  -21.0694  -16.3459 O   0  0  0  0  0  0  0  0  0  0  0  0
   28.2609  -20.7101  -14.1275 O   0  0  0  0  0  0  0  0  0  0  0  0
  2  1  1  0
  3  2  1  0
  3  4  1  6
  5  3  1  0
  5  6  1  1
  7  5  1  0
  7  8  2  0
  9 10  1  0
 10 20  2  0
 11 10  1  0
 11 12  2  0
 12 13  1  0
 13 19  2  0
 13 14  1  0
 15 14  1  1
 15 16  1  0
 16  7  1  0
 17 15  1  0
 18 17  2  0
 20 19  1  0
 22 21  1  0
 22 23  2  0
 24 22  1  0
 25 24  1  0
 26 25  1  1
 26 27  1  0
 27 17  1  0
 28 29  1  0
 28 26  1  0
 30 28  2  0
M  END
$$$$
