IYQ.pdb
     RDKit          3D

 30 30  0  0  1  0  0  0  0  0999 V2000
   26.6724  -17.3195  -15.8669 C   0  0  0  0  0  0  0  0  0  0  0  0
   26.4778  -15.8279  -15.8355 C   0  0  0  0  0  0  0  0  0  0  0  0
   26.7502  -15.2015  -17.1869 C   0  0  2  0  0  0  0  0  0  0  0  0
   28.1729  -15.5201  -17.5882 C   0  0  0  0  0  0  0  0  0  0  0  0
   26.4678  -13.7180  -17.2004 C   0  0  2  0  0  0  0  0  0  0  0  0
   27.2230  -13.1642  -16.0657 N   0  0  0  0  0  0  0  0  0  0  0  0
   25.0398  -13.4137  -16.9727 C   0  0  0  0  0  0  0  0  0  0  0  0
   24.1619  -13.8284  -17.8055 O   0  0  0  0  0  0  0  0  0  0  0  0
   21.2065  -18.4846  -15.3389 O   0  0  0  0  0  0  0  0  0  0  0  0
   21.5522  -17.1600  -15.1082 C   0  0  0  0  0  0  0  0  0  0  0  0
   20.7533  -16.1098  -15.5134 C   0  0  0  0  0  0  0  0  0  0  0  0
   21.1317  -14.8068  -15.2655 C   0  0  0  0  0  0  0  0  0  0  0  0
   22.3041  -14.4773  -14.6129 C   0  0  0  0  0  0  0  0  0  0  0  0
   22.7148  -13.0851  -14.3501 C   0  0  0  0  0  0  0  0  0  0  0  0
   23.2104  -12.3672  -15.5550 C   0  0  2  0  0  0  0  0  0  0  0  0
   24.5989  -12.6683  -15.8492 N   0  0  0  0  0  0  0  0  0  0  0  0
   23.0717  -10.9087  -15.4400 C   0  0  0  0  0  0  0  0  0  0  0  0
   23.9000  -10.2554  -14.7744 O   0  0  0  0  0  0  0  0  0  0  0  0
   23.0958  -15.5616  -14.2126 C   0  0  0  0  0  0  0  0  0  0  0  0
   22.7299  -16.8684  -14.4538 C   0  0  0  0  0  0  0  0  0  0  0  0
   22.5682   -6.9184  -19.6846 N   0  0  0  0  0  0  0  0  0  0  0  0
   22.1848   -6.0478  -18.6360 C   0  0  0  0  0  0  0  0  0  0  0  0
   22.0921   -4.8244  -18.8244 O   0  0  0  0  0  0  0  0  0  0  0  0
   21.8964   -6.6680  -17.2914 C   0  0  0  0  0  0  0  0  0  0  0  0
   22.1399   -8.1496  -17.3344 C   0  0  0  0  0  0  0  0  0  0  0  0
   21.8959   -8.7702  -16.0009 C   0  0  2  0  0  0  0  0  0  0  0  0
   22.0152  -10.2259  -16.0701 N   0  0  0  0  0  0  0  0  0  0  0  0
   20.5483   -8.4315  -15.5143 C   0  0  0  0  0  0  0  0  0  0  0  0
   20.3718   -7.1365  -14.9790 O   0  0  0  0  0  0  0  0  0  0  0  0
   19.5628   -9.1879  -15.5368 O   0  0  0  0  0  0  0  0  0  0  0  0
  2  1  1  0
  3  2  1  0
  3  4  1  1
  5  3  1  0
  5  6  1  1
  7  5  1  0
  7  8  2  0
  9 10  1  0
 10 20  2  0
 11 10  1  0
 11 12  2  0
 12 13  1  0
 13 19  2  0
 13 14  1  0
 15 14  1  1
 15 16  1  0
 16  7  1  0
 17 15  1  0
 18 17  2  0
 20 19  1  0
 22 21  1  0
 22 23  2  0
 24 22  1  0
 25 24  1  0
 26 25  1  6
 26 27  1  0
 27 17  1  0
 28 29  1  0
 28 26  1  0
 30 28  2  0
M  END
$$$$
