IYQ.pdb
     RDKit          3D

 30 30  0  0  1  0  0  0  0  0999 V2000
   22.3830  -17.2316  -20.7010 C   0  0  0  0  0  0  0  0  0  0  0  0
   23.6755  -17.6736  -20.0703 C   0  0  0  0  0  0  0  0  0  0  0  0
   23.4364  -18.4313  -18.7813 C   0  0  2  0  0  0  0  0  0  0  0  0
   22.5582  -17.5897  -17.8829 C   0  0  0  0  0  0  0  0  0  0  0  0
   24.7245  -18.8396  -18.1070 C   0  0  2  0  0  0  0  0  0  0  0  0
   25.4217  -19.6967  -19.0785 N   0  0  0  0  0  0  0  0  0  0  0  0
   24.4932  -19.6463  -16.8907 C   0  0  0  0  0  0  0  0  0  0  0  0
   23.9178  -20.7849  -16.9843 O   0  0  0  0  0  0  0  0  0  0  0  0
   24.3225  -21.8472   -8.2323 O   0  0  0  0  0  0  0  0  0  0  0  0
   24.6369  -21.2919   -9.4653 C   0  0  0  0  0  0  0  0  0  0  0  0
   25.5774  -21.8520  -10.3061 C   0  0  0  0  0  0  0  0  0  0  0  0
   25.8619  -21.2700  -11.5239 C   0  0  0  0  0  0  0  0  0  0  0  0
   25.2404  -20.1191  -11.9688 C   0  0  0  0  0  0  0  0  0  0  0  0
   25.5452  -19.4908  -13.2681 C   0  0  0  0  0  0  0  0  0  0  0  0
   24.6430  -19.9207  -14.3699 C   0  0  2  0  0  0  0  0  0  0  0  0
   24.8909  -19.1997  -15.6044 N   0  0  0  0  0  0  0  0  0  0  0  0
   23.2219  -19.7692  -14.0277 C   0  0  0  0  0  0  0  0  0  0  0  0
   22.7524  -18.6348  -13.8076 O   0  0  0  0  0  0  0  0  0  0  0  0
   24.2906  -19.5717  -11.0965 C   0  0  0  0  0  0  0  0  0  0  0  0
   23.9964  -20.1428   -9.8770 C   0  0  0  0  0  0  0  0  0  0  0  0
   19.8441  -19.0412  -16.7349 N   0  0  0  0  0  0  0  0  0  0  0  0
   19.4705  -20.4043  -16.6511 C   0  0  0  0  0  0  0  0  0  0  0  0
   19.1008  -21.0275  -17.6588 O   0  0  0  0  0  0  0  0  0  0  0  0
   19.5414  -21.0597  -15.2941 C   0  0  0  0  0  0  0  0  0  0  0  0
   20.0911  -20.1009  -14.2769 C   0  0  0  0  0  0  0  0  0  0  0  0
   21.0366  -20.7877  -13.3512 C   0  0  2  0  0  0  0  0  0  0  0  0
   22.3706  -20.8861  -13.9420 N   0  0  0  0  0  0  0  0  0  0  0  0
   20.5586  -22.1452  -13.0411 C   0  0  0  0  0  0  0  0  0  0  0  0
   19.3018  -22.2475  -12.4049 O   0  0  0  0  0  0  0  0  0  0  0  0
   21.1677  -23.1986  -13.2921 O   0  0  0  0  0  0  0  0  0  0  0  0
  2  1  1  0
  3  2  1  0
  3  4  1  1
  5  3  1  0
  5  6  1  6
  7  5  1  0
  7  8  2  0
  9 10  1  0
 10 20  2  0
 11 10  1  0
 11 12  2  0
 12 13  1  0
 13 19  2  0
 13 14  1  0
 15 14  1  1
 15 16  1  0
 16  7  1  0
 17 15  1  0
 18 17  2  0
 20 19  1  0
 22 21  1  0
 22 23  2  0
 24 22  1  0
 25 24  1  0
 26 25  1  6
 26 27  1  0
 27 17  1  0
 28 29  1  0
 28 26  1  0
 30 28  2  0
M  END
$$$$
