IYQ.pdb
     RDKit          3D

 30 30  0  0  1  0  0  0  0  0999 V2000
   15.7721  -15.5591  -16.6776 C   0  0  0  0  0  0  0  0  0  0  0  0
   16.2422  -14.5399  -15.6755 C   0  0  0  0  0  0  0  0  0  0  0  0
   16.4813  -13.1916  -16.3217 C   0  0  2  0  0  0  0  0  0  0  0  0
   17.3791  -13.3849  -17.5230 C   0  0  0  0  0  0  0  0  0  0  0  0
   17.0337  -12.1775  -15.3486 C   0  0  2  0  0  0  0  0  0  0  0  0
   16.0358  -12.0828  -14.2716 N   0  0  0  0  0  0  0  0  0  0  0  0
   17.1661  -10.8337  -15.9489 C   0  0  0  0  0  0  0  0  0  0  0  0
   17.9961  -10.6442  -16.9036 O   0  0  0  0  0  0  0  0  0  0  0  0
   13.2372  -10.6350  -21.2225 O   0  0  0  0  0  0  0  0  0  0  0  0
   13.7024   -9.9648  -20.0992 C   0  0  0  0  0  0  0  0  0  0  0  0
   14.5851   -8.9071  -20.1865 C   0  0  0  0  0  0  0  0  0  0  0  0
   15.0244   -8.2667  -19.0465 C   0  0  0  0  0  0  0  0  0  0  0  0
   14.6200   -8.6329  -17.7772 C   0  0  0  0  0  0  0  0  0  0  0  0
   15.0911   -7.9540  -16.5554 C   0  0  0  0  0  0  0  0  0  0  0  0
   16.4311   -8.4067  -16.0949 C   0  0  2  0  0  0  0  0  0  0  0  0
   16.3966   -9.7297  -15.5003 N   0  0  0  0  0  0  0  0  0  0  0  0
   17.0365   -7.4835  -15.1249 C   0  0  0  0  0  0  0  0  0  0  0  0
   16.8337   -7.6423  -13.9045 O   0  0  0  0  0  0  0  0  0  0  0  0
   13.7244   -9.7087  -17.7173 C   0  0  0  0  0  0  0  0  0  0  0  0
   13.2773  -10.3576  -18.8481 C   0  0  0  0  0  0  0  0  0  0  0  0
   22.5970   -5.5376  -14.5860 N   0  0  0  0  0  0  0  0  0  0  0  0
   22.0098   -4.7078  -13.6004 C   0  0  0  0  0  0  0  0  0  0  0  0
   22.7131   -4.0899  -12.7854 O   0  0  0  0  0  0  0  0  0  0  0  0
   20.5045   -4.6092  -13.5853 C   0  0  0  0  0  0  0  0  0  0  0  0
   19.9115   -5.4768  -14.6585 C   0  0  0  0  0  0  0  0  0  0  0  0
   18.4221   -5.4672  -14.5912 C   0  0  2  0  0  0  0  0  0  0  0  0
   17.8478   -6.4140  -15.5461 N   0  0  0  0  0  0  0  0  0  0  0  0
   17.9019   -4.1230  -14.8912 C   0  0  0  0  0  0  0  0  0  0  0  0
   17.5570   -3.3130  -13.7869 O   0  0  0  0  0  0  0  0  0  0  0  0
   17.7434   -3.6489  -16.0287 O   0  0  0  0  0  0  0  0  0  0  0  0
  2  1  1  0
  3  2  1  0
  3  4  1  6
  5  3  1  0
  5  6  1  1
  7  5  1  0
  7  8  2  0
  9 10  1  0
 10 20  2  0
 11 10  1  0
 11 12  2  0
 12 13  1  0
 13 19  2  0
 13 14  1  0
 15 14  1  1
 15 16  1  0
 16  7  1  0
 17 15  1  0
 18 17  2  0
 20 19  1  0
 22 21  1  0
 22 23  2  0
 24 22  1  0
 25 24  1  0
 26 25  1  6
 26 27  1  0
 27 17  1  0
 28 29  1  0
 28 26  1  0
 30 28  2  0
M  END
$$$$
