IYQ.pdb
     RDKit          3D

 30 30  0  0  1  0  0  0  0  0999 V2000
   27.2366  -20.2111  -21.6315 C   0  0  0  0  0  0  0  0  0  0  0  0
   26.6924  -19.3551  -20.5202 C   0  0  0  0  0  0  0  0  0  0  0  0
   26.3631  -20.1782  -19.2926 C   0  0  2  0  0  0  0  0  0  0  0  0
   25.4608  -21.3194  -19.7049 C   0  0  0  0  0  0  0  0  0  0  0  0
   25.7652  -19.3442  -18.1847 C   0  0  2  0  0  0  0  0  0  0  0  0
   26.7595  -18.2975  -17.9009 N   0  0  0  0  0  0  0  0  0  0  0  0
   25.5683  -20.1169  -16.9406 C   0  0  0  0  0  0  0  0  0  0  0  0
   24.7781  -21.1228  -16.9366 O   0  0  0  0  0  0  0  0  0  0  0  0
   25.3299  -21.1023   -8.0749 O   0  0  0  0  0  0  0  0  0  0  0  0
   25.7353  -20.8347   -9.3755 C   0  0  0  0  0  0  0  0  0  0  0  0
   25.9910  -19.5522   -9.8172 C   0  0  0  0  0  0  0  0  0  0  0  0
   26.3921  -19.3272  -11.1177 C   0  0  0  0  0  0  0  0  0  0  0  0
   26.5592  -20.3442  -12.0378 C   0  0  0  0  0  0  0  0  0  0  0  0
   26.9832  -20.1076  -13.4306 C   0  0  0  0  0  0  0  0  0  0  0  0
   25.9095  -20.3403  -14.4335 C   0  0  2  0  0  0  0  0  0  0  0  0
   26.2320  -19.7808  -15.7327 N   0  0  0  0  0  0  0  0  0  0  0  0
   24.6124  -19.7955  -14.0087 C   0  0  0  0  0  0  0  0  0  0  0  0
   24.4440  -18.5609  -13.9537 O   0  0  0  0  0  0  0  0  0  0  0  0
   26.2932  -21.6354  -11.5634 C   0  0  0  0  0  0  0  0  0  0  0  0
   25.8919  -21.8746  -10.2667 C   0  0  0  0  0  0  0  0  0  0  0  0
   19.8627  -18.1154  -15.9425 N   0  0  0  0  0  0  0  0  0  0  0  0
   20.1904  -19.4440  -16.3058 C   0  0  0  0  0  0  0  0  0  0  0  0
   19.7209  -19.9586  -17.3331 O   0  0  0  0  0  0  0  0  0  0  0  0
   21.1275  -20.1996  -15.3965 C   0  0  0  0  0  0  0  0  0  0  0  0
   21.6054  -19.3128  -14.2824 C   0  0  0  0  0  0  0  0  0  0  0  0
   22.2610  -20.1112  -13.2075 C   0  0  2  0  0  0  0  0  0  0  0  0
   23.5457  -20.6438  -13.6591 N   0  0  0  0  0  0  0  0  0  0  0  0
   21.4011  -21.2364  -12.8048 C   0  0  0  0  0  0  0  0  0  0  0  0
   20.1846  -20.9105  -12.1656 O   0  0  0  0  0  0  0  0  0  0  0  0
   21.6585  -22.4390  -12.9808 O   0  0  0  0  0  0  0  0  0  0  0  0
  2  1  1  0
  3  2  1  0
  3  4  1  6
  5  3  1  0
  5  6  1  1
  7  5  1  0
  7  8  2  0
  9 10  1  0
 10 20  2  0
 11 10  1  0
 11 12  2  0
 12 13  1  0
 13 19  2  0
 13 14  1  0
 15 14  1  1
 15 16  1  0
 16  7  1  0
 17 15  1  0
 18 17  2  0
 20 19  1  0
 22 21  1  0
 22 23  2  0
 24 22  1  0
 25 24  1  0
 26 25  1  6
 26 27  1  0
 27 17  1  0
 28 29  1  0
 28 26  1  0
 30 28  2  0
M  END
$$$$
