IYQ.pdb
     RDKit          3D

 30 30  0  0  1  0  0  0  0  0999 V2000
   27.5478  -21.2960  -18.9272 C   0  0  0  0  0  0  0  0  0  0  0  0
   28.7348  -21.0931  -18.0251 C   0  0  0  0  0  0  0  0  0  0  0  0
   28.4467  -21.5551  -16.6122 C   0  0  2  0  0  0  0  0  0  0  0  0
   27.9933  -22.9969  -16.6592 C   0  0  0  0  0  0  0  0  0  0  0  0
   27.4532  -20.6630  -15.9068 C   0  0  2  0  0  0  0  0  0  0  0  0
   28.0572  -19.3214  -15.9126 N   0  0  0  0  0  0  0  0  0  0  0  0
   27.2496  -21.0509  -14.4956 C   0  0  0  0  0  0  0  0  0  0  0  0
   26.5822  -22.1060  -14.2174 O   0  0  0  0  0  0  0  0  0  0  0  0
   26.9784  -19.9177   -5.6300 O   0  0  0  0  0  0  0  0  0  0  0  0
   27.3332  -19.8960   -6.9721 C   0  0  0  0  0  0  0  0  0  0  0  0
   26.7928  -18.9890   -7.8613 C   0  0  0  0  0  0  0  0  0  0  0  0
   27.1712  -18.9994   -9.1877 C   0  0  0  0  0  0  0  0  0  0  0  0
   28.0910  -19.8949   -9.6984 C   0  0  0  0  0  0  0  0  0  0  0  0
   28.4947  -19.9127  -11.1171 C   0  0  0  0  0  0  0  0  0  0  0  0
   27.4884  -20.5322  -12.0205 C   0  0  2  0  0  0  0  0  0  0  0  0
   27.7739  -20.2865  -13.4217 N   0  0  0  0  0  0  0  0  0  0  0  0
   26.1209  -20.0710  -11.7433 C   0  0  0  0  0  0  0  0  0  0  0  0
   25.7619  -18.9336  -12.1082 O   0  0  0  0  0  0  0  0  0  0  0  0
   28.6236  -20.8039   -8.7748 C   0  0  0  0  0  0  0  0  0  0  0  0
   28.2547  -20.8046   -7.4468 C   0  0  0  0  0  0  0  0  0  0  0  0
   21.6178  -22.7480  -13.9032 N   0  0  0  0  0  0  0  0  0  0  0  0
   20.8435  -21.8701  -13.1067 C   0  0  0  0  0  0  0  0  0  0  0  0
   19.6171  -21.7735  -13.2717 O   0  0  0  0  0  0  0  0  0  0  0  0
   21.5692  -21.0645  -12.0579 C   0  0  0  0  0  0  0  0  0  0  0  0
   23.0390  -21.3735  -12.0834 C   0  0  0  0  0  0  0  0  0  0  0  0
   23.7693  -20.5829  -11.0518 C   0  0  2  0  0  0  0  0  0  0  0  0
   25.1985  -20.8917  -11.0688 N   0  0  0  0  0  0  0  0  0  0  0  0
   23.2410  -20.8760   -9.7092 C   0  0  0  0  0  0  0  0  0  0  0  0
   22.0354  -20.2362   -9.3461 O   0  0  0  0  0  0  0  0  0  0  0  0
   23.7671  -21.6345   -8.8776 O   0  0  0  0  0  0  0  0  0  0  0  0
  2  1  1  0
  3  2  1  0
  3  4  1  6
  5  3  1  0
  5  6  1  1
  7  5  1  0
  7  8  2  0
  9 10  1  0
 10 20  2  0
 11 10  1  0
 11 12  2  0
 12 13  1  0
 13 19  2  0
 13 14  1  0
 15 14  1  1
 15 16  1  0
 16  7  1  0
 17 15  1  0
 18 17  2  0
 20 19  1  0
 22 21  1  0
 22 23  2  0
 24 22  1  0
 25 24  1  0
 26 25  1  6
 26 27  1  0
 27 17  1  0
 28 29  1  0
 28 26  1  0
 30 28  2  0
M  END
$$$$
