IYQ.pdb
     RDKit          3D

 30 30  0  0  1  0  0  0  0  0999 V2000
   28.2578  -20.4548  -19.4824 C   0  0  0  0  0  0  0  0  0  0  0  0
   26.9423  -21.1801  -19.5665 C   0  0  0  0  0  0  0  0  0  0  0  0
   26.2518  -21.2407  -18.2202 C   0  0  2  0  0  0  0  0  0  0  0  0
   25.7742  -19.8519  -17.8602 C   0  0  0  0  0  0  0  0  0  0  0  0
   27.1312  -21.8415  -17.1496 C   0  0  2  0  0  0  0  0  0  0  0  0
   27.3703  -23.2305  -17.5718 N   0  0  0  0  0  0  0  0  0  0  0  0
   26.4638  -21.8879  -15.8320 C   0  0  0  0  0  0  0  0  0  0  0  0
   25.3706  -22.5381  -15.6969 O   0  0  0  0  0  0  0  0  0  0  0  0
   24.7651  -20.3076   -7.2253 O   0  0  0  0  0  0  0  0  0  0  0  0
   25.3838  -20.4050   -8.4644 C   0  0  0  0  0  0  0  0  0  0  0  0
   25.8281  -19.2950   -9.1541 C   0  0  0  0  0  0  0  0  0  0  0  0
   26.4383  -19.4333  -10.3835 C   0  0  0  0  0  0  0  0  0  0  0  0
   26.6387  -20.6594  -10.9878 C   0  0  0  0  0  0  0  0  0  0  0  0
   27.2863  -20.8114  -12.3044 C   0  0  0  0  0  0  0  0  0  0  0  0
   26.3441  -21.1628  -13.4006 C   0  0  2  0  0  0  0  0  0  0  0  0
   26.9972  -21.2292  -14.6945 N   0  0  0  0  0  0  0  0  0  0  0  0
   25.2197  -20.2221  -13.5020 C   0  0  0  0  0  0  0  0  0  0  0  0
   25.4158  -19.0595  -13.9090 O   0  0  0  0  0  0  0  0  0  0  0  0
   26.1785  -21.7689  -10.2665 C   0  0  0  0  0  0  0  0  0  0  0  0
   25.5673  -21.6453   -9.0374 C   0  0  0  0  0  0  0  0  0  0  0  0
   22.3153  -18.3194  -17.0748 N   0  0  0  0  0  0  0  0  0  0  0  0
   21.9473  -19.6680  -16.8499 C   0  0  0  0  0  0  0  0  0  0  0  0
   21.5420  -20.3823  -17.7806 O   0  0  0  0  0  0  0  0  0  0  0  0
   22.0686  -20.1934  -15.4409 C   0  0  0  0  0  0  0  0  0  0  0  0
   22.5675  -19.1159  -14.5209 C   0  0  0  0  0  0  0  0  0  0  0  0
   22.8069  -19.6520  -13.1504 C   0  0  2  0  0  0  0  0  0  0  0  0
   23.9140  -20.6072  -13.1468 N   0  0  0  0  0  0  0  0  0  0  0  0
   21.6010  -20.3280  -12.6442 C   0  0  0  0  0  0  0  0  0  0  0  0
   21.7286  -21.6957  -12.3159 O   0  0  0  0  0  0  0  0  0  0  0  0
   20.4898  -19.7956  -12.4844 O   0  0  0  0  0  0  0  0  0  0  0  0
  2  1  1  0
  3  2  1  0
  3  4  1  1
  5  3  1  0
  5  6  1  6
  7  5  1  0
  7  8  2  0
  9 10  1  0
 10 20  2  0
 11 10  1  0
 11 12  2  0
 12 13  1  0
 13 19  2  0
 13 14  1  0
 15 14  1  1
 15 16  1  0
 16  7  1  0
 17 15  1  0
 18 17  2  0
 20 19  1  0
 22 21  1  0
 22 23  2  0
 24 22  1  0
 25 24  1  0
 26 25  1  6
 26 27  1  0
 27 17  1  0
 28 29  1  0
 28 26  1  0
 30 28  2  0
M  END
$$$$
