DTC.pdb
     RDKit          3D

 22 21  0  0  1  0  0  0  0  0999 V2000
   27.7973  -17.3951  -18.6907 N   0  0  0  0  0  0  0  0  0  0  0  0
   27.0570  -18.5351  -18.1842 C   0  0  1  0  0  0  0  0  0  0  0  0
   27.9940  -19.5256  -17.5297 C   0  0  0  0  0  0  0  0  0  0  0  0
   28.7592  -20.2181  -18.5951 C   0  0  0  0  0  0  0  0  0  0  0  0
   28.5325  -20.0080  -19.8111 O   0  0  0  0  0  0  0  0  0  0  0  0
   26.0252  -18.0432  -17.2446 C   0  0  0  0  0  0  0  0  0  0  0  0
   26.3147  -17.1986  -16.3282 O   0  0  0  0  0  0  0  0  0  0  0  0
   29.7575  -21.1269  -18.2527 O   0  0  0  0  0  0  0  0  0  0  0  0
   23.6195  -15.6417  -17.2842 C   0  0  0  0  0  0  0  0  0  0  0  0
   22.8087  -16.9020  -17.0406 C   0  0  1  0  0  0  0  0  0  0  0  0
   22.2896  -17.3013  -18.2497 O   0  0  0  0  0  0  0  0  0  0  0  0
   23.6472  -17.9791  -16.3837 C   0  0  2  0  0  0  0  0  0  0  0  0
   24.6715  -18.4553  -17.2819 N   0  0  0  0  0  0  0  0  0  0  0  0
   22.7487  -19.0265  -15.9056 C   0  0  0  0  0  0  0  0  0  0  0  0
   22.5215  -20.0195  -16.6417 O   0  0  0  0  0  0  0  0  0  0  0  0
   22.0869  -19.0121  -14.6286 N   0  0  0  0  0  0  0  0  0  0  0  0
   21.1618  -20.0259  -14.2172 C   0  0  1  0  0  0  0  0  0  0  0  0
   21.3733  -20.4724  -12.7897 C   0  0  0  0  0  0  0  0  0  0  0  0
   20.0839  -21.5701  -12.2073 S   0  0  0  0  0  0  0  0  0  0  0  0
   19.7813  -19.5466  -14.4499 C   0  0  0  0  0  0  0  0  0  0  0  0
   19.4945  -18.3253  -14.4561 O   0  0  0  0  0  0  0  0  0  0  0  0
   18.7790  -20.4742  -14.6667 O   0  0  0  0  0  0  0  0  0  0  0  0
  2  1  1  1
  3  2  1  0
  3  4  1  0
  4  5  2  0
  6  2  1  0
  6 13  1  0
  7  6  2  0
  8  4  1  0
 10  9  1  6
 11 10  1  0
 12 10  1  0
 12 14  1  0
 12 13  1  6
 14 15  2  0
 16 14  1  0
 16 17  1  0
 17 20  1  0
 17 18  1  1
 19 18  1  0
 20 22  1  0
 21 20  2  0
M  END
$$$$
