DTC.pdb
     RDKit          3D

 22 21  0  0  1  0  0  0  0  0999 V2000
   15.2271  -10.0316   -9.1437 N   0  0  0  0  0  0  0  0  0  0  0  0
   14.7294   -9.6741  -10.4585 C   0  0  1  0  0  0  0  0  0  0  0  0
   13.2327   -9.4607  -10.4174 C   0  0  0  0  0  0  0  0  0  0  0  0
   12.5877  -10.7472  -10.0583 C   0  0  0  0  0  0  0  0  0  0  0  0
   12.0229  -10.9139   -8.9504 O   0  0  0  0  0  0  0  0  0  0  0  0
   15.4496   -8.4663  -10.9192 C   0  0  0  0  0  0  0  0  0  0  0  0
   15.1673   -7.9156  -12.0390 O   0  0  0  0  0  0  0  0  0  0  0  0
   12.6012  -11.8059  -10.9631 O   0  0  0  0  0  0  0  0  0  0  0  0
   15.6158   -5.1877   -9.1481 C   0  0  0  0  0  0  0  0  0  0  0  0
   17.0511   -5.5884   -9.4382 C   0  0  1  0  0  0  0  0  0  0  0  0
   17.5963   -6.0557   -8.2656 O   0  0  0  0  0  0  0  0  0  0  0  0
   17.1243   -6.6047  -10.5591 C   0  0  2  0  0  0  0  0  0  0  0  0
   16.4806   -7.8392  -10.1792 N   0  0  0  0  0  0  0  0  0  0  0  0
   18.5257   -6.7630  -10.9386 C   0  0  0  0  0  0  0  0  0  0  0  0
   19.2078   -7.6673  -10.3941 O   0  0  0  0  0  0  0  0  0  0  0  0
   19.2042   -5.9467  -11.9093 N   0  0  0  0  0  0  0  0  0  0  0  0
   20.5218   -6.2385  -12.3906 C   0  0  1  0  0  0  0  0  0  0  0  0
   20.6115   -7.5750  -13.0889 C   0  0  0  0  0  0  0  0  0  0  0  0
   22.1594   -7.8004  -13.9608 S   0  0  0  0  0  0  0  0  0  0  0  0
   20.9795   -5.1287  -13.2557 C   0  0  0  0  0  0  0  0  0  0  0  0
   22.1965   -4.9124  -13.4703 O   0  0  0  0  0  0  0  0  0  0  0  0
   20.0361   -4.3066  -13.8441 O   0  0  0  0  0  0  0  0  0  0  0  0
  2  1  1  1
  3  2  1  0
  3  4  1  0
  4  5  2  0
  6  2  1  0
  6 13  1  0
  7  6  2  0
  8  4  1  0
 10  9  1  1
 11 10  1  0
 12 10  1  0
 12 14  1  0
 12 13  1  1
 14 15  2  0
 16 14  1  0
 16 17  1  0
 17 20  1  0
 17 18  1  6
 19 18  1  0
 20 22  1  0
 21 20  2  0
M  END
$$$$
