DTC.pdb
     RDKit          3D

 22 21  0  0  1  0  0  0  0  0999 V2000
   18.4839  -14.0793  -17.2215 N   0  0  0  0  0  0  0  0  0  0  0  0
   17.4005  -13.1864  -16.8567 C   0  0  1  0  0  0  0  0  0  0  0  0
   16.2798  -13.9572  -16.1953 C   0  0  0  0  0  0  0  0  0  0  0  0
   15.6903  -14.8765  -17.1991 C   0  0  0  0  0  0  0  0  0  0  0  0
   15.2555  -14.4588  -18.2994 O   0  0  0  0  0  0  0  0  0  0  0  0
   17.9422  -12.1289  -15.9747 C   0  0  0  0  0  0  0  0  0  0  0  0
   18.8564  -12.3873  -15.1178 O   0  0  0  0  0  0  0  0  0  0  0  0
   15.6104  -16.2403  -16.9277 O   0  0  0  0  0  0  0  0  0  0  0  0
   19.8602   -9.1394  -16.8503 C   0  0  0  0  0  0  0  0  0  0  0  0
   18.6553   -8.6348  -16.0766 C   0  0  1  0  0  0  0  0  0  0  0  0
   17.7522   -8.1436  -16.9896 O   0  0  0  0  0  0  0  0  0  0  0  0
   18.0656   -9.7228  -15.2029 C   0  0  2  0  0  0  0  0  0  0  0  0
   17.5054  -10.7828  -16.0063 N   0  0  0  0  0  0  0  0  0  0  0  0
   17.1067   -9.1042  -14.2914 C   0  0  0  0  0  0  0  0  0  0  0  0
   15.9435   -8.8615  -14.7007 O   0  0  0  0  0  0  0  0  0  0  0  0
   17.3943   -8.7417  -12.9295 N   0  0  0  0  0  0  0  0  0  0  0  0
   16.4600   -8.0503  -12.0917 C   0  0  1  0  0  0  0  0  0  0  0  0
   16.7161   -8.2675  -10.6189 C   0  0  0  0  0  0  0  0  0  0  0  0
   16.6005   -9.9894  -10.1406 S   0  0  0  0  0  0  0  0  0  0  0  0
   16.4582   -6.6142  -12.4486 C   0  0  0  0  0  0  0  0  0  0  0  0
   15.5914   -5.8214  -12.0082 O   0  0  0  0  0  0  0  0  0  0  0  0
   17.4423   -6.1338  -13.2930 O   0  0  0  0  0  0  0  0  0  0  0  0
  2  1  1  1
  3  2  1  0
  3  4  1  0
  4  5  2  0
  6  2  1  0
  6 13  1  0
  7  6  2  0
  8  4  1  0
 10  9  1  6
 11 10  1  0
 12 10  1  0
 12 14  1  0
 12 13  1  6
 14 15  2  0
 16 14  1  0
 16 17  1  0
 17 20  1  0
 17 18  1  1
 19 18  1  0
 20 22  1  0
 21 20  2  0
M  END
$$$$
