DTC.pdb
     RDKit          3D

 22 21  0  0  1  0  0  0  0  0999 V2000
   17.6248  -13.2995  -15.6578 N   0  0  0  0  0  0  0  0  0  0  0  0
   17.3005  -11.9081  -15.9084 C   0  0  1  0  0  0  0  0  0  0  0  0
   16.3963  -11.3717  -14.8211 C   0  0  0  0  0  0  0  0  0  0  0  0
   15.0308  -11.9064  -15.0441 C   0  0  0  0  0  0  0  0  0  0  0  0
   14.1613  -11.8896  -14.1398 O   0  0  0  0  0  0  0  0  0  0  0  0
   18.5636  -11.1434  -16.0068 C   0  0  0  0  0  0  0  0  0  0  0  0
   19.6024  -11.4958  -15.3482 O   0  0  0  0  0  0  0  0  0  0  0  0
   14.6903  -12.4436  -16.2832 O   0  0  0  0  0  0  0  0  0  0  0  0
   21.4191   -8.0193  -18.5846 C   0  0  0  0  0  0  0  0  0  0  0  0
   20.1296   -8.8009  -18.4083 C   0  0  1  0  0  0  0  0  0  0  0  0
   20.1487   -9.8409  -19.3077 O   0  0  0  0  0  0  0  0  0  0  0  0
   19.9611   -9.2719  -16.9784 C   0  0  2  0  0  0  0  0  0  0  0  0
   18.7212   -9.9920  -16.8150 N   0  0  0  0  0  0  0  0  0  0  0  0
   20.0897   -8.1124  -16.0996 C   0  0  0  0  0  0  0  0  0  0  0  0
   19.1087   -7.3393  -15.9607 O   0  0  0  0  0  0  0  0  0  0  0  0
   21.2783   -7.7765  -15.3626 N   0  0  0  0  0  0  0  0  0  0  0  0
   21.4086   -6.5717  -14.5983 C   0  0  1  0  0  0  0  0  0  0  0  0
   22.3451   -6.7183  -13.4221 C   0  0  0  0  0  0  0  0  0  0  0  0
   22.6515   -5.1674  -12.5809 S   0  0  0  0  0  0  0  0  0  0  0  0
   21.8149   -5.4683  -15.4968 C   0  0  0  0  0  0  0  0  0  0  0  0
   22.6687   -5.6290  -16.4018 O   0  0  0  0  0  0  0  0  0  0  0  0
   21.2349   -4.2239  -15.3322 O   0  0  0  0  0  0  0  0  0  0  0  0
  2  1  1  1
  3  2  1  0
  3  4  1  0
  4  5  2  0
  6  2  1  0
  6 13  1  0
  7  6  2  0
  8  4  1  0
 10  9  1  1
 11 10  1  0
 12 10  1  0
 12 14  1  0
 12 13  1  6
 14 15  2  0
 16 14  1  0
 16 17  1  0
 17 20  1  0
 17 18  1  1
 19 18  1  0
 20 22  1  0
 21 20  2  0
M  END
$$$$
