DTC.pdb
     RDKit          3D

 22 21  0  0  1  0  0  0  0  0999 V2000
   16.9555  -11.2690  -17.0238 N   0  0  0  0  0  0  0  0  0  0  0  0
   16.9520  -10.4784  -15.8076 C   0  0  1  0  0  0  0  0  0  0  0  0
   17.6056  -11.2430  -14.6781 C   0  0  0  0  0  0  0  0  0  0  0  0
   16.7912  -12.4511  -14.3999 C   0  0  0  0  0  0  0  0  0  0  0  0
   17.3158  -13.5837  -14.2722 O   0  0  0  0  0  0  0  0  0  0  0  0
   17.6393   -9.1967  -16.0805 C   0  0  0  0  0  0  0  0  0  0  0  0
   18.6668   -9.1467  -16.8412 O   0  0  0  0  0  0  0  0  0  0  0  0
   15.4084  -12.3414  -14.2748 O   0  0  0  0  0  0  0  0  0  0  0  0
   15.8885   -6.0015  -17.2550 C   0  0  0  0  0  0  0  0  0  0  0  0
   16.7911   -5.6235  -16.0942 C   0  0  1  0  0  0  0  0  0  0  0  0
   15.9889   -5.4051  -14.9990 O   0  0  0  0  0  0  0  0  0  0  0  0
   17.8412   -6.6861  -15.8432 C   0  0  2  0  0  0  0  0  0  0  0  0
   17.2274   -7.9560  -15.5375 N   0  0  0  0  0  0  0  0  0  0  0  0
   18.7403   -6.1995  -14.8002 C   0  0  0  0  0  0  0  0  0  0  0  0
   18.7888   -6.8090  -13.7021 O   0  0  0  0  0  0  0  0  0  0  0  0
   19.5955   -5.0506  -14.9325 N   0  0  0  0  0  0  0  0  0  0  0  0
   20.5600   -4.6770  -13.9410 C   0  0  1  0  0  0  0  0  0  0  0  0
   21.6198   -5.7312  -13.7232 C   0  0  0  0  0  0  0  0  0  0  0  0
   22.9314   -5.1827  -12.6342 S   0  0  0  0  0  0  0  0  0  0  0  0
   21.1463   -3.3675  -14.3032 C   0  0  0  0  0  0  0  0  0  0  0  0
   21.2911   -3.0122  -15.4976 O   0  0  0  0  0  0  0  0  0  0  0  0
   21.5456   -2.5114  -13.2935 O   0  0  0  0  0  0  0  0  0  0  0  0
  2  1  1  6
  3  2  1  0
  3  4  1  0
  4  5  2  0
  6  2  1  0
  6 13  1  0
  7  6  2  0
  8  4  1  0
 10  9  1  6
 11 10  1  0
 12 10  1  0
 12 14  1  0
 12 13  1  1
 14 15  2  0
 16 14  1  0
 16 17  1  0
 17 20  1  0
 17 18  1  6
 19 18  1  0
 20 22  1  0
 21 20  2  0
M  END
$$$$
