DTC.pdb
     RDKit          3D

 22 21  0  0  1  0  0  0  0  0999 V2000
   22.8371  -34.7396  -11.7817 N   0  0  0  0  0  0  0  0  0  0  0  0
   23.3974  -33.6138  -11.0587 C   0  0  1  0  0  0  0  0  0  0  0  0
   22.3176  -32.6078  -10.7275 C   0  0  0  0  0  0  0  0  0  0  0  0
   21.8522  -31.9895  -11.9928 C   0  0  0  0  0  0  0  0  0  0  0  0
   22.6453  -31.7306  -12.9299 O   0  0  0  0  0  0  0  0  0  0  0  0
   24.0703  -34.1255   -9.8442 C   0  0  0  0  0  0  0  0  0  0  0  0
   23.5415  -35.0505   -9.1358 O   0  0  0  0  0  0  0  0  0  0  0  0
   20.5039  -31.6827  -12.1597 O   0  0  0  0  0  0  0  0  0  0  0  0
   28.2183  -34.3388   -7.0562 C   0  0  0  0  0  0  0  0  0  0  0  0
   27.5003  -33.9352   -8.3316 C   0  0  1  0  0  0  0  0  0  0  0  0
   28.0576  -34.6504   -9.3653 O   0  0  0  0  0  0  0  0  0  0  0  0
   26.0054  -34.1508   -8.2149 C   0  0  2  0  0  0  0  0  0  0  0  0
   25.3189  -33.6468   -9.3800 N   0  0  0  0  0  0  0  0  0  0  0  0
   25.5561  -33.5521   -6.9608 C   0  0  0  0  0  0  0  0  0  0  0  0
   25.5596  -32.3006   -6.8455 O   0  0  0  0  0  0  0  0  0  0  0  0
   25.0989  -34.2984   -5.8195 N   0  0  0  0  0  0  0  0  0  0  0  0
   24.6959  -33.6789   -4.5920 C   0  0  1  0  0  0  0  0  0  0  0  0
   23.2587  -33.9699   -4.2291 C   0  0  0  0  0  0  0  0  0  0  0  0
   22.8423  -33.4465   -2.5679 S   0  0  0  0  0  0  0  0  0  0  0  0
   25.6313  -34.0778   -3.5169 C   0  0  0  0  0  0  0  0  0  0  0  0
   26.3995  -35.0623   -3.6366 O   0  0  0  0  0  0  0  0  0  0  0  0
   25.6576  -33.3421   -2.3464 O   0  0  0  0  0  0  0  0  0  0  0  0
  2  1  1  1
  3  2  1  0
  3  4  1  0
  4  5  2  0
  6  2  1  0
  6 13  1  0
  7  6  2  0
  8  4  1  0
 10  9  1  1
 11 10  1  0
 12 10  1  0
 12 14  1  0
 12 13  1  6
 14 15  2  0
 16 14  1  0
 16 17  1  0
 17 20  1  0
 17 18  1  1
 19 18  1  0
 20 22  1  0
 21 20  2  0
M  END
$$$$
