DTC.pdb
     RDKit          3D

 22 21  0  0  1  0  0  0  0  0999 V2000
   15.3788  -14.2466  -14.9429 N   0  0  0  0  0  0  0  0  0  0  0  0
   16.7312  -13.7630  -14.7395 C   0  0  1  0  0  0  0  0  0  0  0  0
   17.7255  -14.6639  -15.4376 C   0  0  0  0  0  0  0  0  0  0  0  0
   17.7263  -15.9785  -14.7507 C   0  0  0  0  0  0  0  0  0  0  0  0
   17.7745  -16.0680  -13.5002 O   0  0  0  0  0  0  0  0  0  0  0  0
   16.8081  -12.3683  -15.2279 C   0  0  0  0  0  0  0  0  0  0  0  0
   16.5391  -12.0785  -16.4447 O   0  0  0  0  0  0  0  0  0  0  0  0
   17.6725  -17.1519  -15.4991 O   0  0  0  0  0  0  0  0  0  0  0  0
   14.7328   -9.5021  -14.4362 C   0  0  0  0  0  0  0  0  0  0  0  0
   16.1477   -9.0873  -14.0743 C   0  0  1  0  0  0  0  0  0  0  0  0
   16.2838   -9.2215  -12.7126 O   0  0  0  0  0  0  0  0  0  0  0  0
   17.1731   -9.8947  -14.8435 C   0  0  2  0  0  0  0  0  0  0  0  0
   17.1752  -11.2717  -14.4116 N   0  0  0  0  0  0  0  0  0  0  0  0
   18.4677   -9.2324  -14.7084 C   0  0  0  0  0  0  0  0  0  0  0  0
   19.1603   -9.4484  -13.6822 O   0  0  0  0  0  0  0  0  0  0  0  0
   19.0270   -8.3308  -15.6796 N   0  0  0  0  0  0  0  0  0  0  0  0
   20.3072   -7.7075  -15.5199 C   0  0  1  0  0  0  0  0  0  0  0  0
   20.9094   -7.2544  -16.8291 C   0  0  0  0  0  0  0  0  0  0  0  0
   20.9804   -8.5623  -18.0503 S   0  0  0  0  0  0  0  0  0  0  0  0
   20.1885   -6.5964  -14.5497 C   0  0  0  0  0  0  0  0  0  0  0  0
   21.1942   -5.9903  -14.1078 O   0  0  0  0  0  0  0  0  0  0  0  0
   18.9308   -6.2164  -14.1187 O   0  0  0  0  0  0  0  0  0  0  0  0
  2  1  1  6
  3  2  1  0
  3  4  1  0
  4  5  2  0
  6  2  1  0
  6 13  1  0
  7  6  2  0
  8  4  1  0
 10  9  1  6
 11 10  1  0
 12 10  1  0
 12 14  1  0
 12 13  1  1
 14 15  2  0
 16 14  1  0
 16 17  1  0
 17 20  1  0
 17 18  1  6
 19 18  1  0
 20 22  1  0
 21 20  2  0
M  END
$$$$
