DTC.pdb
     RDKit          3D

 22 21  0  0  1  0  0  0  0  0999 V2000
   17.2408  -14.0328  -15.2799 N   0  0  0  0  0  0  0  0  0  0  0  0
   16.6002  -12.7498  -15.4978 C   0  0  1  0  0  0  0  0  0  0  0  0
   15.3568  -12.6280  -14.6454 C   0  0  0  0  0  0  0  0  0  0  0  0
   14.4017  -13.6844  -15.0601 C   0  0  0  0  0  0  0  0  0  0  0  0
   13.9899  -13.7727  -16.2419 O   0  0  0  0  0  0  0  0  0  0  0  0
   17.5808  -11.6811  -15.2044 C   0  0  0  0  0  0  0  0  0  0  0  0
   18.5245  -11.8638  -14.3601 O   0  0  0  0  0  0  0  0  0  0  0  0
   13.9414  -14.6087  -14.1253 O   0  0  0  0  0  0  0  0  0  0  0  0
   19.7268   -7.4040  -16.5783 C   0  0  0  0  0  0  0  0  0  0  0  0
   18.6759   -8.4769  -16.8005 C   0  0  1  0  0  0  0  0  0  0  0  0
   19.0317   -9.1786  -17.9282 O   0  0  0  0  0  0  0  0  0  0  0  0
   18.5305   -9.3672  -15.5835 C   0  0  2  0  0  0  0  0  0  0  0  0
   17.5554  -10.4052  -15.8169 N   0  0  0  0  0  0  0  0  0  0  0  0
   18.2256   -8.5196  -14.4338 C   0  0  0  0  0  0  0  0  0  0  0  0
   17.0446   -8.4709  -14.0068 O   0  0  0  0  0  0  0  0  0  0  0  0
   19.1924   -7.7165  -13.7344 N   0  0  0  0  0  0  0  0  0  0  0  0
   18.8862   -6.9931  -12.5361 C   0  0  1  0  0  0  0  0  0  0  0  0
   18.4203   -7.8870  -11.4110 C   0  0  0  0  0  0  0  0  0  0  0  0
   18.3397   -7.0370   -9.8368 S   0  0  0  0  0  0  0  0  0  0  0  0
   20.0587   -6.1781  -12.1480 C   0  0  0  0  0  0  0  0  0  0  0  0
   21.1632   -6.2823  -12.7338 O   0  0  0  0  0  0  0  0  0  0  0  0
   19.9309   -5.2753  -11.1084 O   0  0  0  0  0  0  0  0  0  0  0  0
  2  1  1  1
  3  2  1  0
  3  4  1  0
  4  5  2  0
  6  2  1  0
  6 13  1  0
  7  6  2  0
  8  4  1  0
 10  9  1  1
 11 10  1  0
 12 10  1  0
 12 14  1  0
 12 13  1  6
 14 15  2  0
 16 14  1  0
 16 17  1  0
 17 20  1  0
 17 18  1  1
 19 18  1  0
 20 22  1  0
 21 20  2  0
M  END
$$$$
