DTC.pdb
     RDKit          3D

 22 21  0  0  1  0  0  0  0  0999 V2000
   16.9151  -12.3626  -15.7619 N   0  0  0  0  0  0  0  0  0  0  0  0
   17.2332  -11.1045  -16.4102 C   0  0  1  0  0  0  0  0  0  0  0  0
   16.0105  -10.2163  -16.4696 C   0  0  0  0  0  0  0  0  0  0  0  0
   15.0052  -10.8645  -17.3468 C   0  0  0  0  0  0  0  0  0  0  0  0
   15.3343  -11.4404  -18.4118 O   0  0  0  0  0  0  0  0  0  0  0  0
   18.3469  -10.4667  -15.6736 C   0  0  0  0  0  0  0  0  0  0  0  0
   18.2766  -10.2684  -14.4116 O   0  0  0  0  0  0  0  0  0  0  0  0
   13.6584  -10.8416  -16.9927 O   0  0  0  0  0  0  0  0  0  0  0  0
   23.1102   -9.0887  -15.4500 C   0  0  0  0  0  0  0  0  0  0  0  0
   21.9705   -9.8492  -16.1040 C   0  0  1  0  0  0  0  0  0  0  0  0
   22.1769  -11.1883  -15.8692 O   0  0  0  0  0  0  0  0  0  0  0  0
   20.6256   -9.3706  -15.5973 C   0  0  2  0  0  0  0  0  0  0  0  0
   19.5473  -10.0361  -16.2879 N   0  0  0  0  0  0  0  0  0  0  0  0
   20.5888   -7.9149  -15.7106 C   0  0  0  0  0  0  0  0  0  0  0  0
   20.4192   -7.3943  -16.8418 O   0  0  0  0  0  0  0  0  0  0  0  0
   20.7345   -7.0076  -14.6040 N   0  0  0  0  0  0  0  0  0  0  0  0
   20.8450   -5.5885  -14.7675 C   0  0  1  0  0  0  0  0  0  0  0  0
   19.5394   -4.8651  -14.5350 C   0  0  0  0  0  0  0  0  0  0  0  0
   19.7402   -3.0892  -14.4213 S   0  0  0  0  0  0  0  0  0  0  0  0
   21.9240   -5.0814  -13.8908 C   0  0  0  0  0  0  0  0  0  0  0  0
   22.2147   -5.6389  -12.8051 O   0  0  0  0  0  0  0  0  0  0  0  0
   22.6315   -3.9596  -14.2817 O   0  0  0  0  0  0  0  0  0  0  0  0
  2  1  1  1
  3  2  1  0
  3  4  1  0
  4  5  2  0
  6  2  1  0
  6 13  1  0
  7  6  2  0
  8  4  1  0
 10  9  1  1
 11 10  1  0
 12 10  1  0
 12 14  1  0
 12 13  1  6
 14 15  2  0
 16 14  1  0
 16 17  1  0
 17 20  1  0
 17 18  1  1
 19 18  1  0
 20 22  1  0
 21 20  2  0
M  END
$$$$
