DTC.pdb
     RDKit          3D

 22 21  0  0  1  0  0  0  0  0999 V2000
   14.7819  -10.0574  -14.0364 N   0  0  0  0  0  0  0  0  0  0  0  0
   15.9961  -10.1105  -13.2447 C   0  0  1  0  0  0  0  0  0  0  0  0
   17.0040  -11.0397  -13.8838 C   0  0  0  0  0  0  0  0  0  0  0  0
   16.4563  -12.4177  -13.8478 C   0  0  0  0  0  0  0  0  0  0  0  0
   16.3748  -13.1210  -14.8836 O   0  0  0  0  0  0  0  0  0  0  0  0
   16.5224   -8.7349  -13.1019 C   0  0  0  0  0  0  0  0  0  0  0  0
   16.4841   -7.9082  -14.0776 O   0  0  0  0  0  0  0  0  0  0  0  0
   16.0176  -12.9582  -12.6415 O   0  0  0  0  0  0  0  0  0  0  0  0
   16.0334   -6.3797   -9.9308 C   0  0  0  0  0  0  0  0  0  0  0  0
   17.4945   -6.4104  -10.3421 C   0  0  1  0  0  0  0  0  0  0  0  0
   18.1669   -7.1850   -9.4264 O   0  0  0  0  0  0  0  0  0  0  0  0
   17.6576   -6.9144  -11.7614 C   0  0  2  0  0  0  0  0  0  0  0  0
   17.0952   -8.2354  -11.9077 N   0  0  0  0  0  0  0  0  0  0  0  0
   19.0729   -6.8338  -12.1127 C   0  0  0  0  0  0  0  0  0  0  0  0
   19.7659   -7.8822  -12.1012 O   0  0  0  0  0  0  0  0  0  0  0  0
   19.7536   -5.6211  -12.4797 N   0  0  0  0  0  0  0  0  0  0  0  0
   21.0839   -5.6027  -13.0114 C   0  0  1  0  0  0  0  0  0  0  0  0
   21.2768   -6.5764  -14.1501 C   0  0  0  0  0  0  0  0  0  0  0  0
   22.8748   -6.4115  -14.9416 S   0  0  0  0  0  0  0  0  0  0  0  0
   21.4323   -4.2181  -13.4003 C   0  0  0  0  0  0  0  0  0  0  0  0
   20.5608   -3.3896  -13.7580 O   0  0  0  0  0  0  0  0  0  0  0  0
   22.7585   -3.8280  -13.3679 O   0  0  0  0  0  0  0  0  0  0  0  0
  2  1  1  6
  3  2  1  0
  3  4  1  0
  4  5  2  0
  6  2  1  0
  6 13  1  0
  7  6  2  0
  8  4  1  0
 10  9  1  1
 11 10  1  0
 12 10  1  0
 12 14  1  0
 12 13  1  1
 14 15  2  0
 16 14  1  0
 16 17  1  0
 17 20  1  0
 17 18  1  6
 19 18  1  0
 20 22  1  0
 21 20  2  0
M  END
$$$$
