VNN.pdb
     RDKit          3D

 24 23  0  0  1  0  0  0  0  0999 V2000
    7.2572  -12.6965   18.9471 C   0  0  0  0  0  0  0  0  0  0  0  0
    8.0106  -13.6189   19.8700 C   0  0  2  0  0  0  0  0  0  0  0  0
    9.1494  -12.8309   20.4836 C   0  0  0  0  0  0  0  0  0  0  0  0
    8.6249  -14.7904   19.1306 C   0  0  2  0  0  0  0  0  0  0  0  0
    7.5614  -15.4254   18.3769 N   0  0  0  0  0  0  0  0  0  0  0  0
    9.2239  -15.7763   20.0735 C   0  0  0  0  0  0  0  0  0  0  0  0
    8.4923  -16.6262   20.6260 O   0  0  0  0  0  0  0  0  0  0  0  0
   13.3627  -17.4034   18.4110 N   0  0  0  0  0  0  0  0  0  0  0  0
   12.5627  -17.7916   19.5301 C   0  0  0  0  0  0  0  0  0  0  0  0
   11.8220  -18.7856   19.3289 O   0  0  0  0  0  0  0  0  0  0  0  0
   12.6405  -17.0435   20.8061 C   0  0  0  0  0  0  0  0  0  0  0  0
   11.2628  -16.7174   21.2614 C   0  0  2  0  0  0  0  0  0  0  0  0
   10.6029  -15.8028   20.3834 N   0  0  0  0  0  0  0  0  0  0  0  0
   11.2068  -16.2848   22.6815 C   0  0  0  0  0  0  0  0  0  0  0  0
   11.9189  -16.9042   23.5074 O   0  0  0  0  0  0  0  0  0  0  0  0
    6.1216  -15.1794   25.6312 N   0  0  0  0  0  0  0  0  0  0  0  0
    7.5198  -14.9508   25.5992 C   0  0  0  0  0  0  0  0  0  0  0  0
    8.0596  -14.7789   26.7457 O   0  0  0  0  0  0  0  0  0  0  0  0
    8.2810  -14.9165   24.3333 C   0  0  0  0  0  0  0  0  0  0  0  0
    9.7190  -15.3055   24.4661 C   0  0  2  0  0  0  0  0  0  0  0  0
   10.4073  -15.2235   23.1682 N   0  0  0  0  0  0  0  0  0  0  0  0
    9.9266  -16.6131   25.0998 C   0  0  0  0  0  0  0  0  0  0  0  0
   10.3079  -16.6866   26.4196 O   0  0  0  0  0  0  0  0  0  0  0  0
    9.7624  -17.6737   24.4561 O   0  0  0  0  0  0  0  0  0  0  0  0
  2  1  1  6
  2  4  1  0
  3  2  1  0
  4  6  1  0
  4  5  1  1
  6  7  2  0
  8  9  1  0
  9 11  1  0
 10  9  2  0
 12 11  1  6
 12 14  1  0
 13  6  1  0
 13 12  1  0
 14 21  1  0
 14 15  2  0
 17 19  1  0
 17 16  1  0
 18 17  2  0
 20 19  1  6
 20 22  1  0
 21 20  1  0
 22 24  2  0
 22 23  1  0
M  END
$$$$
