VNN.pdb
     RDKit          3D

 24 23  0  0  1  0  0  0  0  0999 V2000
    8.6023  -13.2064   20.9097 C   0  0  0  0  0  0  0  0  0  0  0  0
    8.6092  -12.9407   19.4266 C   0  0  2  0  0  0  0  0  0  0  0  0
    7.2283  -12.4554   19.0369 C   0  0  0  0  0  0  0  0  0  0  0  0
    8.8856  -14.1952   18.6227 C   0  0  2  0  0  0  0  0  0  0  0  0
    7.7556  -15.0833   18.8142 N   0  0  0  0  0  0  0  0  0  0  0  0
   10.1327  -14.8710   19.0788 C   0  0  0  0  0  0  0  0  0  0  0  0
   10.0666  -16.0098   19.5903 O   0  0  0  0  0  0  0  0  0  0  0  0
   15.7722  -15.3865   17.4648 N   0  0  0  0  0  0  0  0  0  0  0  0
   14.5311  -15.9620   17.8788 C   0  0  0  0  0  0  0  0  0  0  0  0
   14.6236  -17.1103   18.3789 O   0  0  0  0  0  0  0  0  0  0  0  0
   13.2622  -15.2173   17.7079 C   0  0  0  0  0  0  0  0  0  0  0  0
   12.6716  -14.9526   19.0469 C   0  0  2  0  0  0  0  0  0  0  0  0
   11.4124  -14.2818   18.9621 N   0  0  0  0  0  0  0  0  0  0  0  0
   13.6149  -14.2782   19.9754 C   0  0  0  0  0  0  0  0  0  0  0  0
   14.6886  -13.8401   19.4980 O   0  0  0  0  0  0  0  0  0  0  0  0
   12.9904  -16.8507   24.7862 N   0  0  0  0  0  0  0  0  0  0  0  0
   12.8604  -17.2186   23.4239 C   0  0  0  0  0  0  0  0  0  0  0  0
   12.9049  -18.4777   23.2038 O   0  0  0  0  0  0  0  0  0  0  0  0
   12.6878  -16.2157   22.3526 C   0  0  0  0  0  0  0  0  0  0  0  0
   13.7232  -15.1364   22.3438 C   0  0  2  0  0  0  0  0  0  0  0  0
   13.3877  -14.0949   21.3601 N   0  0  0  0  0  0  0  0  0  0  0  0
   15.0939  -15.6270   22.1567 C   0  0  0  0  0  0  0  0  0  0  0  0
   15.9789  -15.6181   23.2099 O   0  0  0  0  0  0  0  0  0  0  0  0
   15.4777  -16.0574   21.0460 O   0  0  0  0  0  0  0  0  0  0  0  0
  2  1  1  1
  2  4  1  0
  3  2  1  0
  4  6  1  0
  4  5  1  1
  6  7  2  0
  8  9  1  0
  9 11  1  0
 10  9  2  0
 12 11  1  6
 12 14  1  0
 13  6  1  0
 13 12  1  0
 14 21  1  0
 14 15  2  0
 17 19  1  0
 17 16  1  0
 18 17  2  0
 20 19  1  6
 20 22  1  0
 21 20  1  0
 22 24  2  0
 22 23  1  0
M  END
$$$$
