VNN.pdb
     RDKit          3D

 24 23  0  0  1  0  0  0  0  0999 V2000
    7.5453  -12.0815   19.1066 C   0  0  0  0  0  0  0  0  0  0  0  0
    7.7838  -13.4611   19.6633 C   0  0  2  0  0  0  0  0  0  0  0  0
    8.8163  -13.3434   20.7652 C   0  0  0  0  0  0  0  0  0  0  0  0
    8.3466  -14.4078   18.6225 C   0  0  2  0  0  0  0  0  0  0  0  0
    7.3968  -14.4536   17.5280 N   0  0  0  0  0  0  0  0  0  0  0  0
    8.5337  -15.7781   19.1768 C   0  0  0  0  0  0  0  0  0  0  0  0
    7.5380  -16.5109   19.3621 O   0  0  0  0  0  0  0  0  0  0  0  0
   11.0655  -17.8217   16.7150 N   0  0  0  0  0  0  0  0  0  0  0  0
   10.5185  -18.5335   17.8272 C   0  0  0  0  0  0  0  0  0  0  0  0
    9.5655  -19.3009   17.5446 O   0  0  0  0  0  0  0  0  0  0  0  0
   11.0717  -18.3429   19.1880 C   0  0  0  0  0  0  0  0  0  0  0  0
   10.0765  -17.6129   20.0177 C   0  0  2  0  0  0  0  0  0  0  0  0
    9.8022  -16.3048   19.5112 N   0  0  0  0  0  0  0  0  0  0  0  0
   10.4194  -17.6038   21.4631 C   0  0  0  0  0  0  0  0  0  0  0  0
   10.0897  -18.6025   22.1461 O   0  0  0  0  0  0  0  0  0  0  0  0
   12.2548  -19.2414   25.9204 N   0  0  0  0  0  0  0  0  0  0  0  0
   12.8264  -18.5720   24.8098 C   0  0  0  0  0  0  0  0  0  0  0  0
   14.0634  -18.2761   24.9429 O   0  0  0  0  0  0  0  0  0  0  0  0
   12.0427  -18.2479   23.5999 C   0  0  0  0  0  0  0  0  0  0  0  0
   11.9175  -16.7844   23.3182 C   0  0  2  0  0  0  0  0  0  0  0  0
   11.0916  -16.5482   22.1237 N   0  0  0  0  0  0  0  0  0  0  0  0
   13.2037  -16.0831   23.2263 C   0  0  0  0  0  0  0  0  0  0  0  0
   14.2445  -16.6419   22.5213 O   0  0  0  0  0  0  0  0  0  0  0  0
   13.3742  -14.9753   23.7829 O   0  0  0  0  0  0  0  0  0  0  0  0
  2  1  1  6
  2  4  1  0
  3  2  1  0
  4  6  1  0
  4  5  1  6
  6  7  2  0
  8  9  1  0
  9 11  1  0
 10  9  2  0
 12 11  1  6
 12 14  1  0
 13  6  1  0
 13 12  1  0
 14 21  1  0
 14 15  2  0
 17 19  1  0
 17 16  1  0
 18 17  2  0
 20 19  1  6
 20 22  1  0
 21 20  1  0
 22 24  2  0
 22 23  1  0
M  END
$$$$
