VNN.pdb
     RDKit          3D

 24 23  0  0  1  0  0  0  0  0999 V2000
    7.7232  -12.5749   18.2894 C   0  0  0  0  0  0  0  0  0  0  0  0
    7.8442  -12.9516   19.7432 C   0  0  2  0  0  0  0  0  0  0  0  0
    9.1849  -12.4522   20.2408 C   0  0  0  0  0  0  0  0  0  0  0  0
    7.8222  -14.4529   19.9483 C   0  0  2  0  0  0  0  0  0  0  0  0
    6.6593  -14.9629   19.2484 N   0  0  0  0  0  0  0  0  0  0  0  0
    7.7274  -14.8042   21.3931 C   0  0  0  0  0  0  0  0  0  0  0  0
    7.0314  -14.0995   22.1559 O   0  0  0  0  0  0  0  0  0  0  0  0
    7.1942  -18.5383   25.8100 N   0  0  0  0  0  0  0  0  0  0  0  0
    7.3705  -17.2280   25.2667 C   0  0  0  0  0  0  0  0  0  0  0  0
    7.6126  -16.3342   26.1150 O   0  0  0  0  0  0  0  0  0  0  0  0
    7.2649  -16.9982   23.8073 C   0  0  0  0  0  0  0  0  0  0  0  0
    8.4654  -16.2512   23.3463 C   0  0  2  0  0  0  0  0  0  0  0  0
    8.3956  -15.9139   21.9592 N   0  0  0  0  0  0  0  0  0  0  0  0
    9.7411  -16.9221   23.7059 C   0  0  0  0  0  0  0  0  0  0  0  0
    9.9173  -18.0950   23.2984 O   0  0  0  0  0  0  0  0  0  0  0  0
   13.1795  -16.9164   22.3267 N   0  0  0  0  0  0  0  0  0  0  0  0
   13.7437  -16.1913   23.4056 C   0  0  0  0  0  0  0  0  0  0  0  0
   14.7550  -15.4725   23.0957 O   0  0  0  0  0  0  0  0  0  0  0  0
   13.1960  -16.2694   24.7758 C   0  0  0  0  0  0  0  0  0  0  0  0
   11.9554  -17.0955   24.8993 C   0  0  2  0  0  0  0  0  0  0  0  0
   10.7714  -16.3316   24.4755 N   0  0  0  0  0  0  0  0  0  0  0  0
   11.7628  -17.6863   26.2292 C   0  0  0  0  0  0  0  0  0  0  0  0
   12.5827  -18.7051   26.6561 O   0  0  0  0  0  0  0  0  0  0  0  0
   10.8573  -17.2774   26.9902 O   0  0  0  0  0  0  0  0  0  0  0  0
  2  1  1  6
  2  4  1  0
  3  2  1  0
  4  6  1  0
  4  5  1  6
  6  7  2  0
  8  9  1  0
  9 11  1  0
 10  9  2  0
 12 11  1  6
 12 14  1  0
 13  6  1  0
 13 12  1  0
 14 21  1  0
 14 15  2  0
 17 19  1  0
 17 16  1  0
 18 17  2  0
 20 19  1  1
 20 22  1  0
 21 20  1  0
 22 24  2  0
 22 23  1  0
M  END
$$$$
