VNN.pdb
     RDKit          3D

 24 23  0  0  1  0  0  0  0  0999 V2000
    8.0010  -12.8301   18.5357 C   0  0  0  0  0  0  0  0  0  0  0  0
    7.5919  -13.2733   19.9164 C   0  0  2  0  0  0  0  0  0  0  0  0
    8.4174  -12.4914   20.9172 C   0  0  0  0  0  0  0  0  0  0  0  0
    7.8769  -14.7428   20.1527 C   0  0  2  0  0  0  0  0  0  0  0  0
    7.2562  -15.4784   19.0684 N   0  0  0  0  0  0  0  0  0  0  0  0
    7.3151  -15.2046   21.4531 C   0  0  0  0  0  0  0  0  0  0  0  0
    6.0889  -15.4266   21.5525 O   0  0  0  0  0  0  0  0  0  0  0  0
    7.3677  -18.1473   25.6047 N   0  0  0  0  0  0  0  0  0  0  0  0
    6.5021  -18.1693   24.4674 C   0  0  0  0  0  0  0  0  0  0  0  0
    5.5194  -18.9448   24.5680 O   0  0  0  0  0  0  0  0  0  0  0  0
    6.7892  -17.3218   23.2870 C   0  0  0  0  0  0  0  0  0  0  0  0
    7.9129  -16.4034   23.6117 C   0  0  2  0  0  0  0  0  0  0  0  0
    8.1101  -15.4092   22.6040 N   0  0  0  0  0  0  0  0  0  0  0  0
    9.1674  -17.1195   23.9586 C   0  0  0  0  0  0  0  0  0  0  0  0
    9.2260  -18.3467   23.7071 O   0  0  0  0  0  0  0  0  0  0  0  0
   12.3540  -16.5851   22.4644 N   0  0  0  0  0  0  0  0  0  0  0  0
   13.0612  -16.1270   23.6038 C   0  0  0  0  0  0  0  0  0  0  0  0
   14.0197  -15.3196   23.3489 O   0  0  0  0  0  0  0  0  0  0  0  0
   12.7079  -16.5569   24.9726 C   0  0  0  0  0  0  0  0  0  0  0  0
   11.4222  -17.3148   25.0699 C   0  0  2  0  0  0  0  0  0  0  0  0
   10.3007  -16.5151   24.5527 N   0  0  0  0  0  0  0  0  0  0  0  0
   11.1355  -17.8320   26.4133 C   0  0  0  0  0  0  0  0  0  0  0  0
   11.9293  -18.8151   26.9573 O   0  0  0  0  0  0  0  0  0  0  0  0
   10.1724  -17.3920   27.0805 O   0  0  0  0  0  0  0  0  0  0  0  0
  2  1  1  6
  2  4  1  0
  3  2  1  0
  4  6  1  0
  4  5  1  6
  6  7  2  0
  8  9  1  0
  9 11  1  0
 10  9  2  0
 12 11  1  6
 12 14  1  0
 13  6  1  0
 13 12  1  0
 14 21  1  0
 14 15  2  0
 17 19  1  0
 17 16  1  0
 18 17  2  0
 20 19  1  1
 20 22  1  0
 21 20  1  0
 22 24  2  0
 22 23  1  0
M  END
$$$$
