VNN.pdb
     RDKit          3D

 24 23  0  0  1  0  0  0  0  0999 V2000
    7.6928  -13.7672   20.7700 C   0  0  0  0  0  0  0  0  0  0  0  0
    8.4458  -13.2881   19.5562 C   0  0  2  0  0  0  0  0  0  0  0  0
    7.5332  -12.3595   18.7821 C   0  0  0  0  0  0  0  0  0  0  0  0
    8.8170  -14.4267   18.6277 C   0  0  2  0  0  0  0  0  0  0  0  0
    7.5793  -14.9792   18.1128 N   0  0  0  0  0  0  0  0  0  0  0  0
    9.5761  -15.4894   19.3449 C   0  0  0  0  0  0  0  0  0  0  0  0
    8.9620  -16.4563   19.8458 O   0  0  0  0  0  0  0  0  0  0  0  0
   13.7014  -19.0559   20.2520 N   0  0  0  0  0  0  0  0  0  0  0  0
   13.8216  -17.6443   20.4420 C   0  0  0  0  0  0  0  0  0  0  0  0
   14.6022  -17.3013   21.3640 O   0  0  0  0  0  0  0  0  0  0  0  0
   13.0608  -16.7028   19.5883 C   0  0  0  0  0  0  0  0  0  0  0  0
   11.7766  -16.3692   20.2600 C   0  0  2  0  0  0  0  0  0  0  0  0
   10.9817  -15.4626   19.4925 N   0  0  0  0  0  0  0  0  0  0  0  0
   11.9547  -15.9215   21.6653 C   0  0  0  0  0  0  0  0  0  0  0  0
   12.0351  -14.6881   21.8777 O   0  0  0  0  0  0  0  0  0  0  0  0
    7.5954  -16.2963   24.8450 N   0  0  0  0  0  0  0  0  0  0  0  0
    8.9670  -15.9410   24.8206 C   0  0  0  0  0  0  0  0  0  0  0  0
    9.3893  -15.3670   25.8827 O   0  0  0  0  0  0  0  0  0  0  0  0
    9.8293  -16.2179   23.6532 C   0  0  0  0  0  0  0  0  0  0  0  0
   11.2431  -16.5637   23.9974 C   0  0  2  0  0  0  0  0  0  0  0  0
   12.0400  -16.7878   22.7809 N   0  0  0  0  0  0  0  0  0  0  0  0
   11.3709  -17.6861   24.9347 C   0  0  0  0  0  0  0  0  0  0  0  0
   11.3137  -18.9803   24.4720 O   0  0  0  0  0  0  0  0  0  0  0  0
   11.5320  -17.4867   26.1596 O   0  0  0  0  0  0  0  0  0  0  0  0
  2  1  1  1
  2  4  1  0
  3  2  1  0
  4  6  1  0
  4  5  1  1
  6  7  2  0
  8  9  1  0
  9 11  1  0
 10  9  2  0
 12 11  1  6
 12 14  1  0
 13  6  1  0
 13 12  1  0
 14 21  1  0
 14 15  2  0
 17 19  1  0
 17 16  1  0
 18 17  2  0
 20 19  1  6
 20 22  1  0
 21 20  1  0
 22 24  2  0
 22 23  1  0
M  END
$$$$
