VNN.pdb
     RDKit          3D

 24 23  0  0  1  0  0  0  0  0999 V2000
    7.4433  -12.4296   18.7640 C   0  0  0  0  0  0  0  0  0  0  0  0
    8.3823  -13.3397   19.5123 C   0  0  2  0  0  0  0  0  0  0  0  0
    9.6259  -13.5186   18.6663 C   0  0  0  0  0  0  0  0  0  0  0  0
    7.7892  -14.7167   19.7322 C   0  0  2  0  0  0  0  0  0  0  0  0
    6.4445  -14.5269   20.2403 N   0  0  0  0  0  0  0  0  0  0  0  0
    8.5864  -15.5028   20.7153 C   0  0  0  0  0  0  0  0  0  0  0  0
    8.6954  -15.0926   21.8912 O   0  0  0  0  0  0  0  0  0  0  0  0
    9.9745  -20.1067   23.3821 N   0  0  0  0  0  0  0  0  0  0  0  0
   10.6278  -19.6097   22.2120 C   0  0  0  0  0  0  0  0  0  0  0  0
   11.8682  -19.8033   22.1787 O   0  0  0  0  0  0  0  0  0  0  0  0
    9.8530  -18.9264   21.1506 C   0  0  0  0  0  0  0  0  0  0  0  0
   10.1186  -17.4648   21.2215 C   0  0  2  0  0  0  0  0  0  0  0  0
    9.2394  -16.7118   20.3833 N   0  0  0  0  0  0  0  0  0  0  0  0
   11.5474  -17.1223   21.0019 C   0  0  0  0  0  0  0  0  0  0  0  0
   12.0668  -17.4621   19.9122 O   0  0  0  0  0  0  0  0  0  0  0  0
   12.7254  -13.6505   19.5717 N   0  0  0  0  0  0  0  0  0  0  0  0
   13.7030  -14.6341   19.8633 C   0  0  0  0  0  0  0  0  0  0  0  0
   14.1638  -15.2492   18.8411 O   0  0  0  0  0  0  0  0  0  0  0  0
   14.1453  -14.9161   21.2446 C   0  0  0  0  0  0  0  0  0  0  0  0
   13.8132  -16.2907   21.7314 C   0  0  2  0  0  0  0  0  0  0  0  0
   12.3636  -16.4398   21.9349 N   0  0  0  0  0  0  0  0  0  0  0  0
   14.5653  -16.6986   22.9241 C   0  0  0  0  0  0  0  0  0  0  0  0
   15.9393  -16.7550   22.8865 O   0  0  0  0  0  0  0  0  0  0  0  0
   13.9749  -16.9998   23.9857 O   0  0  0  0  0  0  0  0  0  0  0  0
  2  1  1  6
  2  4  1  0
  3  2  1  0
  4  6  1  0
  4  5  1  1
  6  7  2  0
  8  9  1  0
  9 11  1  0
 10  9  2  0
 12 11  1  6
 12 14  1  0
 13  6  1  0
 13 12  1  0
 14 21  1  0
 14 15  2  0
 17 19  1  0
 17 16  1  0
 18 17  2  0
 20 19  1  1
 20 22  1  0
 21 20  1  0
 22 24  2  0
 22 23  1  0
M  END
$$$$
