VNN.pdb
     RDKit          3D

 24 23  0  0  1  0  0  0  0  0999 V2000
    0.5847  -20.2011   22.0870 C   0  0  0  0  0  0  0  0  0  0  0  0
    2.0649  -20.3201   21.8320 C   0  0  2  0  0  0  0  0  0  0  0  0
    2.7745  -19.3679   22.7724 C   0  0  0  0  0  0  0  0  0  0  0  0
    2.4361  -19.9135   20.4202 C   0  0  2  0  0  0  0  0  0  0  0  0
    1.6591  -20.7417   19.5186 N   0  0  0  0  0  0  0  0  0  0  0  0
    3.8883  -20.1190   20.1579 C   0  0  0  0  0  0  0  0  0  0  0  0
    4.3028  -21.2521   19.8306 O   0  0  0  0  0  0  0  0  0  0  0  0
    8.6284  -18.3446   17.9028 N   0  0  0  0  0  0  0  0  0  0  0  0
    8.2660  -18.0884   19.2615 C   0  0  0  0  0  0  0  0  0  0  0  0
    9.2286  -18.0632   20.0678 O   0  0  0  0  0  0  0  0  0  0  0  0
    6.8485  -17.8760   19.6349 C   0  0  0  0  0  0  0  0  0  0  0  0
    6.2452  -19.1827   20.0097 C   0  0  2  0  0  0  0  0  0  0  0  0
    4.8420  -19.0807   20.2615 N   0  0  0  0  0  0  0  0  0  0  0  0
    6.9733  -19.8648   21.1104 C   0  0  0  0  0  0  0  0  0  0  0  0
    8.1129  -20.3236   20.8581 O   0  0  0  0  0  0  0  0  0  0  0  0
    9.4112  -20.4588   25.5549 N   0  0  0  0  0  0  0  0  0  0  0  0
    9.4351  -19.3487   24.6744 C   0  0  0  0  0  0  0  0  0  0  0  0
   10.3773  -18.5123   24.8943 O   0  0  0  0  0  0  0  0  0  0  0  0
    8.4430  -19.1834   23.5919 C   0  0  0  0  0  0  0  0  0  0  0  0
    7.3681  -20.2232   23.5747 C   0  0  2  0  0  0  0  0  0  0  0  0
    6.4723  -20.0335   22.4230 N   0  0  0  0  0  0  0  0  0  0  0  0
    6.6127  -20.3202   24.8295 C   0  0  0  0  0  0  0  0  0  0  0  0
    6.5391  -21.5199   25.4987 O   0  0  0  0  0  0  0  0  0  0  0  0
    6.0274  -19.3225   25.3074 O   0  0  0  0  0  0  0  0  0  0  0  0
  2  1  1  6
  2  4  1  0
  3  2  1  0
  4  6  1  0
  4  5  1  6
  6  7  2  0
  8  9  1  0
  9 11  1  0
 10  9  2  0
 12 11  1  1
 12 14  1  0
 13  6  1  0
 13 12  1  0
 14 21  1  0
 14 15  2  0
 17 19  1  0
 17 16  1  0
 18 17  2  0
 20 19  1  1
 20 22  1  0
 21 20  1  0
 22 24  2  0
 22 23  1  0
M  END
$$$$
