VNN.pdb
     RDKit          3D

 24 23  0  0  1  0  0  0  0  0999 V2000
    8.0655  -13.5882   20.7170 C   0  0  0  0  0  0  0  0  0  0  0  0
    8.5037  -12.9544   19.4223 C   0  0  2  0  0  0  0  0  0  0  0  0
    7.2942  -12.2867   18.8011 C   0  0  0  0  0  0  0  0  0  0  0  0
    9.0093  -13.9789   18.4268 C   0  0  2  0  0  0  0  0  0  0  0  0
    7.9292  -14.9177   18.1938 N   0  0  0  0  0  0  0  0  0  0  0  0
   10.1981  -14.7080   18.9514 C   0  0  0  0  0  0  0  0  0  0  0  0
   10.0362  -15.7344   19.6465 O   0  0  0  0  0  0  0  0  0  0  0  0
   15.7037  -16.1161   18.0598 N   0  0  0  0  0  0  0  0  0  0  0  0
   15.1149  -15.1662   18.9507 C   0  0  0  0  0  0  0  0  0  0  0  0
   15.6691  -15.0839   20.0746 O   0  0  0  0  0  0  0  0  0  0  0  0
   13.9416  -14.3663   18.5294 C   0  0  0  0  0  0  0  0  0  0  0  0
   12.7200  -14.9247   19.1678 C   0  0  2  0  0  0  0  0  0  0  0  0
   11.5260  -14.2932   18.7004 N   0  0  0  0  0  0  0  0  0  0  0  0
   12.8030  -14.9595   20.6506 C   0  0  0  0  0  0  0  0  0  0  0  0
   12.2844  -14.0103   21.2853 O   0  0  0  0  0  0  0  0  0  0  0  0
   10.6068  -15.5362   24.1087 N   0  0  0  0  0  0  0  0  0  0  0  0
   10.3343  -16.4336   23.0464 C   0  0  0  0  0  0  0  0  0  0  0  0
    9.0915  -16.6431   22.8292 O   0  0  0  0  0  0  0  0  0  0  0  0
   11.4114  -17.0699   22.2601 C   0  0  0  0  0  0  0  0  0  0  0  0
   12.7862  -16.5780   22.5839 C   0  0  2  0  0  0  0  0  0  0  0  0
   13.4256  -15.9875   21.3976 N   0  0  0  0  0  0  0  0  0  0  0  0
   13.6485  -17.5878   23.2094 C   0  0  0  0  0  0  0  0  0  0  0  0
   14.4322  -18.4046   22.4276 O   0  0  0  0  0  0  0  0  0  0  0  0
   13.6849  -17.7221   24.4531 O   0  0  0  0  0  0  0  0  0  0  0  0
  2  1  1  1
  2  4  1  0
  3  2  1  0
  4  6  1  0
  4  5  1  1
  6  7  2  0
  8  9  1  0
  9 11  1  0
 10  9  2  0
 12 11  1  6
 12 14  1  0
 13  6  1  0
 13 12  1  0
 14 21  1  0
 14 15  2  0
 17 19  1  0
 17 16  1  0
 18 17  2  0
 20 19  1  6
 20 22  1  0
 21 20  1  0
 22 24  2  0
 22 23  1  0
M  END
$$$$
