VNN.pdb
     RDKit          3D

 24 23  0  0  1  0  0  0  0  0999 V2000
    8.9511  -12.5149   20.1290 C   0  0  0  0  0  0  0  0  0  0  0  0
    8.8440  -13.5599   19.0489 C   0  0  2  0  0  0  0  0  0  0  0  0
    7.9874  -12.9904   17.9371 C   0  0  0  0  0  0  0  0  0  0  0  0
    8.1603  -14.8204   19.5390 C   0  0  2  0  0  0  0  0  0  0  0  0
    6.8433  -14.4372   20.0090 N   0  0  0  0  0  0  0  0  0  0  0  0
    8.9207  -15.4552   20.6520 C   0  0  0  0  0  0  0  0  0  0  0  0
    8.7708  -15.0365   21.8204 O   0  0  0  0  0  0  0  0  0  0  0  0
    7.8928  -19.2049   21.6731 N   0  0  0  0  0  0  0  0  0  0  0  0
    8.9375  -18.4865   22.3331 C   0  0  0  0  0  0  0  0  0  0  0  0
    8.5840  -17.8813   23.3751 O   0  0  0  0  0  0  0  0  0  0  0  0
   10.3141  -18.4894   21.7864 C   0  0  0  0  0  0  0  0  0  0  0  0
   10.6964  -17.0974   21.4290 C   0  0  2  0  0  0  0  0  0  0  0  0
    9.8208  -16.5271   20.4539 N   0  0  0  0  0  0  0  0  0  0  0  0
   12.1282  -16.9654   21.0555 C   0  0  0  0  0  0  0  0  0  0  0  0
   12.5744  -17.7401   20.1761 O   0  0  0  0  0  0  0  0  0  0  0  0
   13.1488  -13.7563   18.9477 N   0  0  0  0  0  0  0  0  0  0  0  0
   14.1513  -14.7267   19.1955 C   0  0  0  0  0  0  0  0  0  0  0  0
   14.4087  -15.4941   18.2053 O   0  0  0  0  0  0  0  0  0  0  0  0
   14.8369  -14.8321   20.5002 C   0  0  0  0  0  0  0  0  0  0  0  0
   14.4599  -16.0379   21.3007 C   0  0  2  0  0  0  0  0  0  0  0  0
   13.0240  -16.0275   21.6215 N   0  0  0  0  0  0  0  0  0  0  0  0
   15.2757  -16.2323   22.5055 C   0  0  0  0  0  0  0  0  0  0  0  0
   16.6427  -16.3457   22.4013 O   0  0  0  0  0  0  0  0  0  0  0  0
   14.7463  -16.2981   23.6376 O   0  0  0  0  0  0  0  0  0  0  0  0
  2  1  1  1
  2  4  1  0
  3  2  1  0
  4  6  1  0
  4  5  1  1
  6  7  2  0
  8  9  1  0
  9 11  1  0
 10  9  2  0
 12 11  1  6
 12 14  1  0
 13  6  1  0
 13 12  1  0
 14 21  1  0
 14 15  2  0
 17 19  1  0
 17 16  1  0
 18 17  2  0
 20 19  1  1
 20 22  1  0
 21 20  1  0
 22 24  2  0
 22 23  1  0
M  END
$$$$
