CHY.pdb
     RDKit          3D

 29 30  0  0  1  0  0  0  0  0999 V2000
   25.3206  -22.0621  -15.2167 N   0  0  0  0  0  0  0  0  0  0  0  0
   23.8837  -22.0470  -15.3487 C   0  0  1  0  0  0  0  0  0  0  0  0
   23.2000  -22.8569  -14.2728 C   0  0  0  0  0  0  0  0  0  0  0  0
   23.7177  -24.5884  -14.4010 S   0  0  0  0  0  0  0  0  0  0  0  0
   23.4234  -20.6413  -15.2148 C   0  0  0  0  0  0  0  0  0  0  0  0
   23.7892  -19.9338  -14.2563 O   0  0  0  0  0  0  0  0  0  0  0  0
   22.5504  -20.0572  -16.1759 N   0  0  0  0  0  0  0  0  0  0  0  0
   22.0487  -18.7207  -15.9785 C   0  0  1  0  0  0  0  0  0  0  0  0
   22.5162  -17.7912  -17.1062 C   0  0  0  0  0  0  0  0  0  0  0  0
   23.9771  -17.5697  -17.0509 C   0  0  0  0  0  0  0  0  0  0  0  0
   24.8069  -18.1429  -16.1179 C   0  0  0  0  0  0  0  0  0  0  0  0
   26.0492  -17.6893  -16.4129 N   0  0  0  0  0  0  0  0  0  0  0  0
   25.9688  -16.8730  -17.4845 C   0  0  0  0  0  0  0  0  0  0  0  0
   24.6888  -16.8037  -17.8727 N   0  0  0  0  0  0  0  0  0  0  0  0
   20.5729  -18.7424  -16.0750 C   0  0  0  0  0  0  0  0  0  0  0  0
   20.0264  -19.7587  -16.5761 O   0  0  0  0  0  0  0  0  0  0  0  0
   17.1754  -23.8030  -15.3599 O   0  0  0  0  0  0  0  0  0  0  0  0
   17.3882  -22.4436  -15.1195 C   0  0  0  0  0  0  0  0  0  0  0  0
   16.5061  -21.5631  -15.7409 C   0  0  0  0  0  0  0  0  0  0  0  0
   16.6826  -20.1953  -15.5277 C   0  0  0  0  0  0  0  0  0  0  0  0
   17.6986  -19.7356  -14.7273 C   0  0  0  0  0  0  0  0  0  0  0  0
   17.8799  -18.2938  -14.5059 C   0  0  0  0  0  0  0  0  0  0  0  0
   18.4041  -17.6424  -15.7393 C   0  0  2  0  0  0  0  0  0  0  0  0
   19.8623  -17.6150  -15.5963 N   0  0  0  0  0  0  0  0  0  0  0  0
   17.8751  -16.3148  -16.0469 C   0  0  0  0  0  0  0  0  0  0  0  0
   16.5283  -16.1082  -16.2823 O   0  0  0  0  0  0  0  0  0  0  0  0
   18.5643  -20.6480  -14.1204 C   0  0  0  0  0  0  0  0  0  0  0  0
   18.4100  -22.0021  -14.3158 C   0  0  0  0  0  0  0  0  0  0  0  0
   18.6377  -15.3285  -16.1039 O   0  0  0  0  0  0  0  0  0  0  0  0
  2  1  1  1
  2  3  1  0
  3  4  1  0
  5  2  1  0
  6  5  2  0
  7  5  1  0
  8 15  1  0
  8  7  1  0
  9 10  1  0
  8  9  1  6
 10 11  2  0
 12 11  1  0
 13 12  1  0
 14 13  2  0
 14 10  1  0
 15 16  2  0
 18 28  2  0
 18 17  1  0
 19 18  1  0
 20 21  1  0
 20 19  2  0
 21 27  2  0
 22 21  1  0
 23 22  1  1
 24 23  1  0
 24 15  1  0
 25 26  1  0
 25 23  1  0
 27 28  1  0
 29 25  2  0
M  END
$$$$
