CHY.pdb
     RDKit          3D

 29 30  0  0  1  0  0  0  0  0999 V2000
   28.0393  -16.8832  -17.3846 N   0  0  0  0  0  0  0  0  0  0  0  0
   27.1821  -16.5488  -16.2730 C   0  0  1  0  0  0  0  0  0  0  0  0
   26.8706  -15.0723  -16.2123 C   0  0  0  0  0  0  0  0  0  0  0  0
   27.8127  -14.3123  -14.8642 S   0  0  0  0  0  0  0  0  0  0  0  0
   25.8973  -17.2730  -16.4478 C   0  0  0  0  0  0  0  0  0  0  0  0
   25.3233  -17.3060  -17.5535 O   0  0  0  0  0  0  0  0  0  0  0  0
   25.2804  -17.9523  -15.3591 N   0  0  0  0  0  0  0  0  0  0  0  0
   24.0221  -18.6287  -15.5490 C   0  0  1  0  0  0  0  0  0  0  0  0
   23.6692  -19.4779  -14.3207 C   0  0  0  0  0  0  0  0  0  0  0  0
   22.3720  -20.1654  -14.4958 C   0  0  0  0  0  0  0  0  0  0  0  0
   21.5967  -20.0683  -15.6259 C   0  0  0  0  0  0  0  0  0  0  0  0
   20.5081  -20.8380  -15.3837 N   0  0  0  0  0  0  0  0  0  0  0  0
   20.6250  -21.3781  -14.1525 C   0  0  0  0  0  0  0  0  0  0  0  0
   21.7762  -20.9594  -13.6108 N   0  0  0  0  0  0  0  0  0  0  0  0
   22.9451  -17.6201  -15.6509 C   0  0  0  0  0  0  0  0  0  0  0  0
   22.9446  -16.6681  -14.8285 O   0  0  0  0  0  0  0  0  0  0  0  0
   23.1907  -16.7191  -22.6716 O   0  0  0  0  0  0  0  0  0  0  0  0
   22.7565  -16.4358  -21.3745 C   0  0  0  0  0  0  0  0  0  0  0  0
   23.7526  -16.2277  -20.4237 C   0  0  0  0  0  0  0  0  0  0  0  0
   23.3629  -15.9418  -19.1146 C   0  0  0  0  0  0  0  0  0  0  0  0
   22.0341  -15.8688  -18.7784 C   0  0  0  0  0  0  0  0  0  0  0  0
   21.6292  -15.5671  -17.3980 C   0  0  0  0  0  0  0  0  0  0  0  0
   20.9525  -16.7459  -16.7874 C   0  0  2  0  0  0  0  0  0  0  0  0
   21.9768  -17.7873  -16.6705 N   0  0  0  0  0  0  0  0  0  0  0  0
   19.7652  -17.2436  -17.4801 C   0  0  0  0  0  0  0  0  0  0  0  0
   18.6364  -16.4604  -17.6369 O   0  0  0  0  0  0  0  0  0  0  0  0
   21.0626  -16.0833  -19.7585 C   0  0  0  0  0  0  0  0  0  0  0  0
   21.4228  -16.3669  -21.0567 C   0  0  0  0  0  0  0  0  0  0  0  0
   19.7460  -18.3996  -17.9501 O   0  0  0  0  0  0  0  0  0  0  0  0
  2  1  1  6
  2  3  1  0
  3  4  1  0
  5  2  1  0
  6  5  2  0
  7  5  1  0
  8 15  1  0
  8  7  1  0
  9 10  1  0
  8  9  1  1
 10 11  2  0
 12 11  1  0
 13 12  1  0
 14 13  2  0
 14 10  1  0
 15 16  2  0
 18 28  2  0
 18 17  1  0
 19 18  1  0
 20 21  1  0
 20 19  2  0
 21 27  2  0
 22 21  1  0
 23 22  1  6
 24 23  1  0
 24 15  1  0
 25 26  1  0
 25 23  1  0
 27 28  1  0
 29 25  2  0
M  END
$$$$
