CHY.pdb
     RDKit          3D

 29 30  0  0  1  0  0  0  0  0999 V2000
   25.5090  -18.5334  -19.7137 N   0  0  0  0  0  0  0  0  0  0  0  0
   24.9805  -17.7926  -20.8336 C   0  0  1  0  0  0  0  0  0  0  0  0
   25.5889  -18.2254  -22.1465 C   0  0  0  0  0  0  0  0  0  0  0  0
   27.3514  -17.8061  -22.1615 S   0  0  0  0  0  0  0  0  0  0  0  0
   23.5197  -18.0498  -20.9081 C   0  0  0  0  0  0  0  0  0  0  0  0
   23.0779  -19.2020  -21.0818 O   0  0  0  0  0  0  0  0  0  0  0  0
   22.5777  -16.9895  -20.7835 N   0  0  0  0  0  0  0  0  0  0  0  0
   21.1652  -17.2646  -20.8627 C   0  0  1  0  0  0  0  0  0  0  0  0
   20.4186  -16.6239  -19.6853 C   0  0  0  0  0  0  0  0  0  0  0  0
   20.8874  -15.2438  -19.4369 C   0  0  0  0  0  0  0  0  0  0  0  0
   21.9006  -14.6378  -20.1397 C   0  0  0  0  0  0  0  0  0  0  0  0
   22.0160  -13.3967  -19.6082 N   0  0  0  0  0  0  0  0  0  0  0  0
   21.1051  -13.2618  -18.6218 C   0  0  0  0  0  0  0  0  0  0  0  0
   20.4128  -14.4040  -18.5215 N   0  0  0  0  0  0  0  0  0  0  0  0
   20.6167  -16.6166  -22.0739 C   0  0  0  0  0  0  0  0  0  0  0  0
   21.2913  -15.7026  -22.6144 O   0  0  0  0  0  0  0  0  0  0  0  0
   18.0353  -14.6266  -29.7401 O   0  0  0  0  0  0  0  0  0  0  0  0
   18.5053  -15.0817  -28.5060 C   0  0  0  0  0  0  0  0  0  0  0  0
   18.3174  -16.4351  -28.2368 C   0  0  0  0  0  0  0  0  0  0  0  0
   18.7722  -16.9321  -27.0146 C   0  0  0  0  0  0  0  0  0  0  0  0
   19.3868  -16.1062  -26.1067 C   0  0  0  0  0  0  0  0  0  0  0  0
   19.8642  -16.6349  -24.8210 C   0  0  0  0  0  0  0  0  0  0  0  0
   18.8429  -16.4137  -23.7587 C   0  0  2  0  0  0  0  0  0  0  0  0
   19.3622  -17.0654  -22.5533 N   0  0  0  0  0  0  0  0  0  0  0  0
   17.4843  -16.8607  -24.0614 C   0  0  0  0  0  0  0  0  0  0  0  0
   16.6936  -16.2015  -24.9846 O   0  0  0  0  0  0  0  0  0  0  0  0
   19.5582  -14.7540  -26.4108 C   0  0  0  0  0  0  0  0  0  0  0  0
   19.1178  -14.2408  -27.6102 C   0  0  0  0  0  0  0  0  0  0  0  0
   17.0048  -17.8589  -23.4859 O   0  0  0  0  0  0  0  0  0  0  0  0
  2  1  1  1
  2  3  1  0
  3  4  1  0
  5  2  1  0
  6  5  2  0
  7  5  1  0
  8 15  1  0
  8  7  1  0
  9 10  1  0
  8  9  1  1
 10 11  2  0
 12 11  1  0
 13 12  1  0
 14 13  2  0
 14 10  1  0
 15 16  2  0
 18 28  2  0
 18 17  1  0
 19 18  1  0
 20 21  1  0
 20 19  2  0
 21 27  2  0
 22 21  1  0
 23 22  1  6
 24 23  1  0
 24 15  1  0
 25 26  1  0
 25 23  1  0
 27 28  1  0
 29 25  2  0
M  END
$$$$
