CHY.pdb
     RDKit          3D

 29 30  0  0  1  0  0  0  0  0999 V2000
   25.1183  -12.1734  -20.7896 N   0  0  0  0  0  0  0  0  0  0  0  0
   25.2355  -11.0311  -19.9157 C   0  0  1  0  0  0  0  0  0  0  0  0
   24.7385   -9.7601  -20.5626 C   0  0  0  0  0  0  0  0  0  0  0  0
   25.9194   -9.2265  -21.8289 S   0  0  0  0  0  0  0  0  0  0  0  0
   24.3987  -11.2818  -18.7147 C   0  0  0  0  0  0  0  0  0  0  0  0
   23.2004  -11.6069  -18.8227 O   0  0  0  0  0  0  0  0  0  0  0  0
   24.9375  -11.1591  -17.4025 N   0  0  0  0  0  0  0  0  0  0  0  0
   24.1061  -11.4136  -16.2532 C   0  0  1  0  0  0  0  0  0  0  0  0
   24.8914  -12.1610  -15.1674 C   0  0  0  0  0  0  0  0  0  0  0  0
   25.2226  -13.5377  -15.5933 C   0  0  0  0  0  0  0  0  0  0  0  0
   24.8391  -14.0842  -16.7940 C   0  0  0  0  0  0  0  0  0  0  0  0
   25.3375  -15.3443  -16.7924 N   0  0  0  0  0  0  0  0  0  0  0  0
   25.9967  -15.5475  -15.6326 C   0  0  0  0  0  0  0  0  0  0  0  0
   25.9220  -14.4299  -14.8981 N   0  0  0  0  0  0  0  0  0  0  0  0
   23.7237  -10.1222  -15.6416 C   0  0  0  0  0  0  0  0  0  0  0  0
   24.6266   -9.2685  -15.4458 O   0  0  0  0  0  0  0  0  0  0  0  0
   20.6590   -2.4317  -14.7793 O   0  0  0  0  0  0  0  0  0  0  0  0
   21.0592   -3.7318  -15.0966 C   0  0  0  0  0  0  0  0  0  0  0  0
   22.1783   -4.2133  -14.4220 C   0  0  0  0  0  0  0  0  0  0  0  0
   22.6127   -5.5081  -14.7087 C   0  0  0  0  0  0  0  0  0  0  0  0
   21.9522   -6.2814  -15.6306 C   0  0  0  0  0  0  0  0  0  0  0  0
   22.4139   -7.6447  -15.9287 C   0  0  0  0  0  0  0  0  0  0  0  0
   21.9775   -8.5849  -14.8582 C   0  0  2  0  0  0  0  0  0  0  0  0
   22.3607   -9.9244  -15.3124 N   0  0  0  0  0  0  0  0  0  0  0  0
   20.5647   -8.5338  -14.4858 C   0  0  0  0  0  0  0  0  0  0  0  0
   20.1218   -7.7609  -13.4283 O   0  0  0  0  0  0  0  0  0  0  0  0
   20.8334   -5.7653  -16.2879 C   0  0  0  0  0  0  0  0  0  0  0  0
   20.3861   -4.4907  -16.0216 C   0  0  0  0  0  0  0  0  0  0  0  0
   19.7192   -9.1948  -15.1229 O   0  0  0  0  0  0  0  0  0  0  0  0
  2  1  1  6
  2  3  1  0
  3  4  1  0
  5  2  1  0
  6  5  2  0
  7  5  1  0
  8 15  1  0
  8  7  1  0
  9 10  1  0
  8  9  1  1
 10 11  2  0
 12 11  1  0
 13 12  1  0
 14 13  2  0
 14 10  1  0
 15 16  2  0
 18 28  2  0
 18 17  1  0
 19 18  1  0
 20 21  1  0
 20 19  2  0
 21 27  2  0
 22 21  1  0
 23 22  1  6
 24 23  1  0
 24 15  1  0
 25 26  1  0
 25 23  1  0
 27 28  1  0
 29 25  2  0
M  END
$$$$
