CHY.pdb
     RDKit          3D

 29 30  0  0  1  0  0  0  0  0999 V2000
   22.8524  -17.6032  -16.7450 N   0  0  0  0  0  0  0  0  0  0  0  0
   22.0843  -16.8693  -17.7216 C   0  0  1  0  0  0  0  0  0  0  0  0
   21.1574  -17.7623  -18.5117 C   0  0  0  0  0  0  0  0  0  0  0  0
   22.1357  -18.9370  -19.4842 S   0  0  0  0  0  0  0  0  0  0  0  0
   21.2469  -15.8782  -16.9990 C   0  0  0  0  0  0  0  0  0  0  0  0
   20.7781  -16.1324  -15.8726 O   0  0  0  0  0  0  0  0  0  0  0  0
   20.9529  -14.6071  -17.5690 N   0  0  0  0  0  0  0  0  0  0  0  0
   20.0880  -13.6865  -16.8751 C   0  0  1  0  0  0  0  0  0  0  0  0
   20.2090  -12.2753  -17.4651 C   0  0  0  0  0  0  0  0  0  0  0  0
   19.3464  -11.3144  -16.7447 C   0  0  0  0  0  0  0  0  0  0  0  0
   18.2316  -10.7239  -17.2890 C   0  0  0  0  0  0  0  0  0  0  0  0
   17.7352   -9.9237  -16.3146 N   0  0  0  0  0  0  0  0  0  0  0  0
   18.5232  -10.0296  -15.2242 C   0  0  0  0  0  0  0  0  0  0  0  0
   19.5144  -10.8884  -15.4962 N   0  0  0  0  0  0  0  0  0  0  0  0
   18.6818  -14.0861  -17.0998 C   0  0  0  0  0  0  0  0  0  0  0  0
   18.3632  -14.5197  -18.2370 O   0  0  0  0  0  0  0  0  0  0  0  0
   10.4872  -16.4417  -16.3208 O   0  0  0  0  0  0  0  0  0  0  0  0
   11.8547  -16.1969  -16.1748 C   0  0  0  0  0  0  0  0  0  0  0  0
   12.2517  -15.6206  -14.9707 C   0  0  0  0  0  0  0  0  0  0  0  0
   13.6096  -15.3589  -14.7829 C   0  0  0  0  0  0  0  0  0  0  0  0
   14.5241  -15.6627  -15.7604 C   0  0  0  0  0  0  0  0  0  0  0  0
   15.9532  -15.3852  -15.5572 C   0  0  0  0  0  0  0  0  0  0  0  0
   16.3571  -14.1675  -16.3152 C   0  0  2  0  0  0  0  0  0  0  0  0
   17.7766  -13.9562  -16.0187 N   0  0  0  0  0  0  0  0  0  0  0  0
   15.5758  -12.9577  -16.0639 C   0  0  0  0  0  0  0  0  0  0  0  0
   16.1399  -11.8399  -15.4770 O   0  0  0  0  0  0  0  0  0  0  0  0
   14.0894  -16.2400  -16.9554 C   0  0  0  0  0  0  0  0  0  0  0  0
   12.7550  -16.5074  -17.1635 C   0  0  0  0  0  0  0  0  0  0  0  0
   14.3690  -12.9084  -16.3782 O   0  0  0  0  0  0  0  0  0  0  0  0
  2  1  1  1
  2  3  1  0
  3  4  1  0
  5  2  1  0
  6  5  2  0
  7  5  1  0
  8 15  1  0
  8  7  1  0
  9 10  1  0
  8  9  1  6
 10 11  2  0
 12 11  1  0
 13 12  1  0
 14 13  2  0
 14 10  1  0
 15 16  2  0
 18 28  2  0
 18 17  1  0
 19 18  1  0
 20 21  1  0
 20 19  2  0
 21 27  2  0
 22 21  1  0
 23 22  1  1
 24 23  1  0
 24 15  1  0
 25 26  1  0
 25 23  1  0
 27 28  1  0
 29 25  2  0
M  END
$$$$
