CHY.pdb
     RDKit          3D

 29 30  0  0  1  0  0  0  0  0999 V2000
   28.9012  -10.0828  -17.8514 N   0  0  0  0  0  0  0  0  0  0  0  0
   27.7320  -10.9068  -17.6606 C   0  0  1  0  0  0  0  0  0  0  0  0
   27.7668  -11.6579  -16.3507 C   0  0  0  0  0  0  0  0  0  0  0  0
   29.1147  -12.8681  -16.3853 S   0  0  0  0  0  0  0  0  0  0  0  0
   26.5413  -10.0195  -17.6392 C   0  0  0  0  0  0  0  0  0  0  0  0
   26.5961   -8.8824  -17.1321 O   0  0  0  0  0  0  0  0  0  0  0  0
   25.3000  -10.4386  -18.1966 N   0  0  0  0  0  0  0  0  0  0  0  0
   24.2068   -9.5063  -18.3090 C   0  0  1  0  0  0  0  0  0  0  0  0
   23.2997   -9.8704  -19.4918 C   0  0  0  0  0  0  0  0  0  0  0  0
   22.1576   -8.9378  -19.6018 C   0  0  0  0  0  0  0  0  0  0  0  0
   20.8460   -9.3036  -19.4189 C   0  0  0  0  0  0  0  0  0  0  0  0
   20.1262   -8.1707  -19.6056 N   0  0  0  0  0  0  0  0  0  0  0  0
   20.9747   -7.1608  -19.8904 C   0  0  0  0  0  0  0  0  0  0  0  0
   22.2252   -7.6405  -19.8865 N   0  0  0  0  0  0  0  0  0  0  0  0
   23.3509   -9.6226  -17.1083 C   0  0  0  0  0  0  0  0  0  0  0  0
   23.1883  -10.7638  -16.6045 O   0  0  0  0  0  0  0  0  0  0  0  0
   23.0537   -2.4274  -14.6774 O   0  0  0  0  0  0  0  0  0  0  0  0
   23.0143   -3.8216  -14.6016 C   0  0  0  0  0  0  0  0  0  0  0  0
   21.9327   -4.3707  -13.9174 C   0  0  0  0  0  0  0  0  0  0  0  0
   21.8541   -5.7604  -13.8177 C   0  0  0  0  0  0  0  0  0  0  0  0
   22.8182   -6.5594  -14.3799 C   0  0  0  0  0  0  0  0  0  0  0  0
   22.7305   -8.0228  -14.2722 C   0  0  0  0  0  0  0  0  0  0  0  0
   21.9305   -8.5780  -15.4002 C   0  0  2  0  0  0  0  0  0  0  0  0
   22.7646   -8.4394  -16.5971 N   0  0  0  0  0  0  0  0  0  0  0  0
   20.6057   -7.9949  -15.6050 C   0  0  0  0  0  0  0  0  0  0  0  0
   19.5699   -8.2203  -14.7172 O   0  0  0  0  0  0  0  0  0  0  0  0
   23.8889   -5.9737  -15.0588 C   0  0  0  0  0  0  0  0  0  0  0  0
   23.9879   -4.6050  -15.1702 C   0  0  0  0  0  0  0  0  0  0  0  0
   20.3799   -7.2727  -16.5975 O   0  0  0  0  0  0  0  0  0  0  0  0
  2  1  1  1
  2  3  1  0
  3  4  1  0
  5  2  1  0
  6  5  2  0
  7  5  1  0
  8 15  1  0
  8  7  1  0
  9 10  1  0
  8  9  1  6
 10 11  2  0
 12 11  1  0
 13 12  1  0
 14 13  2  0
 14 10  1  0
 15 16  2  0
 18 28  2  0
 18 17  1  0
 19 18  1  0
 20 21  1  0
 20 19  2  0
 21 27  2  0
 22 21  1  0
 23 22  1  1
 24 23  1  0
 24 15  1  0
 25 26  1  0
 25 23  1  0
 27 28  1  0
 29 25  2  0
M  END
$$$$
