CHY.pdb
     RDKit          3D

 29 30  0  0  1  0  0  0  0  0999 V2000
   19.7037  -13.4290  -16.2652 N   0  0  0  0  0  0  0  0  0  0  0  0
   18.8269  -12.3181  -16.5473 C   0  0  1  0  0  0  0  0  0  0  0  0
   17.3687  -12.7017  -16.4620 C   0  0  0  0  0  0  0  0  0  0  0  0
   16.9377  -13.7507  -17.8750 S   0  0  0  0  0  0  0  0  0  0  0  0
   19.0754  -11.2651  -15.5299 C   0  0  0  0  0  0  0  0  0  0  0  0
   19.3347  -11.5620  -14.3477 O   0  0  0  0  0  0  0  0  0  0  0  0
   19.0256   -9.8838  -15.8718 N   0  0  0  0  0  0  0  0  0  0  0  0
   19.4014   -8.8854  -14.9029 C   0  0  1  0  0  0  0  0  0  0  0  0
   19.8186   -7.5823  -15.5971 C   0  0  0  0  0  0  0  0  0  0  0  0
   20.3140   -6.5871  -14.6221 C   0  0  0  0  0  0  0  0  0  0  0  0
   20.5507   -6.8611  -13.2968 C   0  0  0  0  0  0  0  0  0  0  0  0
   20.9889   -5.6965  -12.7604 N   0  0  0  0  0  0  0  0  0  0  0  0
   21.0147   -4.7567  -13.7285 C   0  0  0  0  0  0  0  0  0  0  0  0
   20.5975   -5.3124  -14.8735 N   0  0  0  0  0  0  0  0  0  0  0  0
   18.2164   -8.5347  -14.0902 C   0  0  0  0  0  0  0  0  0  0  0  0
   17.0858   -8.5806  -14.6399 O   0  0  0  0  0  0  0  0  0  0  0  0
   12.8226   -7.3463   -7.5122 O   0  0  0  0  0  0  0  0  0  0  0  0
   13.9425   -7.6357   -8.2953 C   0  0  0  0  0  0  0  0  0  0  0  0
   13.7631   -8.5842   -9.2991 C   0  0  0  0  0  0  0  0  0  0  0  0
   14.8565   -8.9035  -10.1054 C   0  0  0  0  0  0  0  0  0  0  0  0
   16.0724   -8.2972   -9.9105 C   0  0  0  0  0  0  0  0  0  0  0  0
   17.2207   -8.6370  -10.7628 C   0  0  0  0  0  0  0  0  0  0  0  0
   17.2448   -7.7653  -11.9711 C   0  0  2  0  0  0  0  0  0  0  0  0
   18.4265   -8.1672  -12.7389 N   0  0  0  0  0  0  0  0  0  0  0  0
   17.2319   -6.3232  -11.7314 C   0  0  0  0  0  0  0  0  0  0  0  0
   16.0579   -5.5935  -11.7670 O   0  0  0  0  0  0  0  0  0  0  0  0
   16.2153   -7.3505   -8.8938 C   0  0  0  0  0  0  0  0  0  0  0  0
   15.1510   -7.0191   -8.0857 C   0  0  0  0  0  0  0  0  0  0  0  0
   18.2932   -5.7140  -11.4863 O   0  0  0  0  0  0  0  0  0  0  0  0
  2  1  1  1
  2  3  1  0
  3  4  1  0
  5  2  1  0
  6  5  2  0
  7  5  1  0
  8 15  1  0
  8  7  1  0
  9 10  1  0
  8  9  1  6
 10 11  2  0
 12 11  1  0
 13 12  1  0
 14 13  2  0
 14 10  1  0
 15 16  2  0
 18 28  2  0
 18 17  1  0
 19 18  1  0
 20 21  1  0
 20 19  2  0
 21 27  2  0
 22 21  1  0
 23 22  1  1
 24 23  1  0
 24 15  1  0
 25 26  1  0
 25 23  1  0
 27 28  1  0
 29 25  2  0
M  END
$$$$
