CHY.pdb
     RDKit          3D

 29 30  0  0  1  0  0  0  0  0999 V2000
   27.0953  -17.8064  -18.1987 N   0  0  0  0  0  0  0  0  0  0  0  0
   26.7383  -19.0800  -17.6217 C   0  0  1  0  0  0  0  0  0  0  0  0
   27.7514  -19.5546  -16.6070 C   0  0  0  0  0  0  0  0  0  0  0  0
   27.4623  -21.3050  -16.2398 S   0  0  0  0  0  0  0  0  0  0  0  0
   25.4393  -18.9201  -16.9198 C   0  0  0  0  0  0  0  0  0  0  0  0
   25.2205  -17.9343  -16.1894 O   0  0  0  0  0  0  0  0  0  0  0  0
   24.4031  -19.8867  -17.0584 N   0  0  0  0  0  0  0  0  0  0  0  0
   23.1175  -19.6605  -16.4476 C   0  0  1  0  0  0  0  0  0  0  0  0
   21.9892  -20.1965  -17.3387 C   0  0  0  0  0  0  0  0  0  0  0  0
   20.6682  -19.7101  -16.8863 C   0  0  0  0  0  0  0  0  0  0  0  0
   20.4833  -18.8766  -15.8099 C   0  0  0  0  0  0  0  0  0  0  0  0
   19.1454  -18.6743  -15.7361 N   0  0  0  0  0  0  0  0  0  0  0  0
   18.5481  -19.3614  -16.7322 C   0  0  0  0  0  0  0  0  0  0  0  0
   19.4926  -19.9976  -17.4373 N   0  0  0  0  0  0  0  0  0  0  0  0
   23.0353  -20.4452  -15.1965 C   0  0  0  0  0  0  0  0  0  0  0  0
   23.4089  -21.6461  -15.2242 O   0  0  0  0  0  0  0  0  0  0  0  0
   28.7512  -20.6199  -13.0019 O   0  0  0  0  0  0  0  0  0  0  0  0
   27.3991  -20.4810  -12.6801 C   0  0  0  0  0  0  0  0  0  0  0  0
   26.7583  -19.3532  -13.1871 C   0  0  0  0  0  0  0  0  0  0  0  0
   25.4065  -19.1752  -12.8897 C   0  0  0  0  0  0  0  0  0  0  0  0
   24.7319  -20.0886  -12.1187 C   0  0  0  0  0  0  0  0  0  0  0  0
   23.3080  -19.8964  -11.8086 C   0  0  0  0  0  0  0  0  0  0  0  0
   22.4599  -20.5956  -12.8148 C   0  0  2  0  0  0  0  0  0  0  0  0
   22.5397  -19.7956  -14.0400 N   0  0  0  0  0  0  0  0  0  0  0  0
   21.0712  -20.8449  -12.4322 C   0  0  0  0  0  0  0  0  0  0  0  0
   20.7368  -21.8271  -11.5181 O   0  0  0  0  0  0  0  0  0  0  0  0
   25.4070  -21.2080  -11.6272 C   0  0  0  0  0  0  0  0  0  0  0  0
   26.7406  -21.4051  -11.9074 C   0  0  0  0  0  0  0  0  0  0  0  0
   20.1478  -20.1679  -12.9287 O   0  0  0  0  0  0  0  0  0  0  0  0
  2  1  1  1
  2  3  1  0
  3  4  1  0
  5  2  1  0
  6  5  2  0
  7  5  1  0
  8 15  1  0
  8  7  1  0
  9 10  1  0
  8  9  1  6
 10 11  2  0
 12 11  1  0
 13 12  1  0
 14 13  2  0
 14 10  1  0
 15 16  2  0
 18 28  2  0
 18 17  1  0
 19 18  1  0
 20 21  1  0
 20 19  2  0
 21 27  2  0
 22 21  1  0
 23 22  1  1
 24 23  1  0
 24 15  1  0
 25 26  1  0
 25 23  1  0
 27 28  1  0
 29 25  2  0
M  END
$$$$
