CHY.pdb
     RDKit          3D

 29 30  0  0  1  0  0  0  0  0999 V2000
   23.9305  -13.7277  -17.6963 N   0  0  0  0  0  0  0  0  0  0  0  0
   24.2360  -12.7033  -18.6656 C   0  0  1  0  0  0  0  0  0  0  0  0
   22.9926  -12.1020  -19.2766 C   0  0  0  0  0  0  0  0  0  0  0  0
   22.0558  -13.3950  -20.1329 S   0  0  0  0  0  0  0  0  0  0  0  0
   24.9676  -11.6141  -17.9699 C   0  0  0  0  0  0  0  0  0  0  0  0
   24.6456  -11.2555  -16.8207 O   0  0  0  0  0  0  0  0  0  0  0  0
   26.0593  -10.9450  -18.5926 N   0  0  0  0  0  0  0  0  0  0  0  0
   26.7462   -9.8838  -17.9005 C   0  0  1  0  0  0  0  0  0  0  0  0
   28.2628   -9.9911  -18.1068 C   0  0  0  0  0  0  0  0  0  0  0  0
   28.8213  -11.1626  -17.3983 C   0  0  0  0  0  0  0  0  0  0  0  0
   28.0765  -12.0217  -16.6271 C   0  0  0  0  0  0  0  0  0  0  0  0
   28.9544  -12.9444  -16.1644 N   0  0  0  0  0  0  0  0  0  0  0  0
   30.1824  -12.6503  -16.6404 C   0  0  0  0  0  0  0  0  0  0  0  0
   30.0932  -11.5509  -17.4002 N   0  0  0  0  0  0  0  0  0  0  0  0
   26.3595   -8.5889  -18.5018 C   0  0  0  0  0  0  0  0  0  0  0  0
   26.1607   -8.5476  -19.7433 O   0  0  0  0  0  0  0  0  0  0  0  0
   20.5680   -6.4270  -14.6506 O   0  0  0  0  0  0  0  0  0  0  0  0
   21.5139   -6.4080  -15.6782 C   0  0  0  0  0  0  0  0  0  0  0  0
   22.0086   -7.6454  -16.0825 C   0  0  0  0  0  0  0  0  0  0  0  0
   22.9559   -7.6724  -17.1068 C   0  0  0  0  0  0  0  0  0  0  0  0
   23.3849   -6.5093  -17.6962 C   0  0  0  0  0  0  0  0  0  0  0  0
   24.3828   -6.5434  -18.7749 C   0  0  0  0  0  0  0  0  0  0  0  0
   25.7368   -6.2290  -18.2380 C   0  0  2  0  0  0  0  0  0  0  0  0
   26.2361   -7.4710  -17.6415 N   0  0  0  0  0  0  0  0  0  0  0  0
   25.8182   -5.1158  -17.2940 C   0  0  0  0  0  0  0  0  0  0  0  0
   25.6966   -3.8027  -17.7102 O   0  0  0  0  0  0  0  0  0  0  0  0
   22.8667   -5.2864  -17.2648 C   0  0  0  0  0  0  0  0  0  0  0  0
   21.9312   -5.2346  -16.2560 C   0  0  0  0  0  0  0  0  0  0  0  0
   26.0011   -5.3304  -16.0783 O   0  0  0  0  0  0  0  0  0  0  0  0
  2  1  1  1
  2  3  1  0
  3  4  1  0
  5  2  1  0
  6  5  2  0
  7  5  1  0
  8 15  1  0
  8  7  1  0
  9 10  1  0
  8  9  1  6
 10 11  2  0
 12 11  1  0
 13 12  1  0
 14 13  2  0
 14 10  1  0
 15 16  2  0
 18 28  2  0
 18 17  1  0
 19 18  1  0
 20 21  1  0
 20 19  2  0
 21 27  2  0
 22 21  1  0
 23 22  1  1
 24 23  1  0
 24 15  1  0
 25 26  1  0
 25 23  1  0
 27 28  1  0
 29 25  2  0
M  END
$$$$
