CHY.pdb
     RDKit          3D

 29 30  0  0  1  0  0  0  0  0999 V2000
   29.0381  -21.1648  -18.0576 N   0  0  0  0  0  0  0  0  0  0  0  0
   28.4952  -22.1571  -17.1614 C   0  0  1  0  0  0  0  0  0  0  0  0
   29.4862  -22.5770  -16.1019 C   0  0  0  0  0  0  0  0  0  0  0  0
   30.6501  -23.7740  -16.8056 S   0  0  0  0  0  0  0  0  0  0  0  0
   27.3229  -21.5620  -16.4706 C   0  0  0  0  0  0  0  0  0  0  0  0
   27.3489  -20.3867  -16.0572 O   0  0  0  0  0  0  0  0  0  0  0  0
   26.1327  -22.3141  -16.2586 N   0  0  0  0  0  0  0  0  0  0  0  0
   25.0169  -21.7210  -15.5657 C   0  0  1  0  0  0  0  0  0  0  0  0
   23.7209  -22.4859  -15.8650 C   0  0  0  0  0  0  0  0  0  0  0  0
   22.5610  -21.8657  -15.1895 C   0  0  0  0  0  0  0  0  0  0  0  0
   22.5540  -20.5835  -14.6960 C   0  0  0  0  0  0  0  0  0  0  0  0
   21.3204  -20.4089  -14.1632 N   0  0  0  0  0  0  0  0  0  0  0  0
   20.6118  -21.5451  -14.3305 C   0  0  0  0  0  0  0  0  0  0  0  0
   21.3825  -22.4389  -14.9637 N   0  0  0  0  0  0  0  0  0  0  0  0
   25.2270  -21.8610  -14.1083 C   0  0  0  0  0  0  0  0  0  0  0  0
   26.1703  -22.5935  -13.7129 O   0  0  0  0  0  0  0  0  0  0  0  0
   27.1815  -19.7332   -6.2307 O   0  0  0  0  0  0  0  0  0  0  0  0
   26.9180  -19.9579   -7.5839 C   0  0  0  0  0  0  0  0  0  0  0  0
   25.8968  -19.1965   -8.1469 C   0  0  0  0  0  0  0  0  0  0  0  0
   25.6003  -19.3891   -9.4969 C   0  0  0  0  0  0  0  0  0  0  0  0
   26.2984  -20.3043  -10.2446 C   0  0  0  0  0  0  0  0  0  0  0  0
   25.9822  -20.5031  -11.6663 C   0  0  0  0  0  0  0  0  0  0  0  0
   24.6689  -21.1915  -11.8134 C   0  0  2  0  0  0  0  0  0  0  0  0
   24.3515  -21.1604  -13.2437 N   0  0  0  0  0  0  0  0  0  0  0  0
   23.5659  -20.6633  -11.0124 C   0  0  0  0  0  0  0  0  0  0  0  0
   22.7311  -19.6716  -11.4939 O   0  0  0  0  0  0  0  0  0  0  0  0
   27.3163  -21.0502   -9.6463 C   0  0  0  0  0  0  0  0  0  0  0  0
   27.6268  -20.8777   -8.3161 C   0  0  0  0  0  0  0  0  0  0  0  0
   23.3524  -21.1022   -9.8638 O   0  0  0  0  0  0  0  0  0  0  0  0
  2  1  1  6
  2  3  1  0
  3  4  1  0
  5  2  1  0
  6  5  2  0
  7  5  1  0
  8 15  1  0
  8  7  1  0
  9 10  1  0
  8  9  1  6
 10 11  2  0
 12 11  1  0
 13 12  1  0
 14 13  2  0
 14 10  1  0
 15 16  2  0
 18 28  2  0
 18 17  1  0
 19 18  1  0
 20 21  1  0
 20 19  2  0
 21 27  2  0
 22 21  1  0
 23 22  1  6
 24 23  1  0
 24 15  1  0
 25 26  1  0
 25 23  1  0
 27 28  1  0
 29 25  2  0
M  END
$$$$
