CHY.pdb
     RDKit          3D

 29 30  0  0  1  0  0  0  0  0999 V2000
   20.6072  -10.9884  -16.6902 N   0  0  0  0  0  0  0  0  0  0  0  0
   19.2846  -10.9403  -16.1149 C   0  0  1  0  0  0  0  0  0  0  0  0
   19.0565  -12.0422  -15.1075 C   0  0  0  0  0  0  0  0  0  0  0  0
   18.9218  -13.6296  -15.9704 S   0  0  0  0  0  0  0  0  0  0  0  0
   19.1376   -9.6441  -15.4052 C   0  0  0  0  0  0  0  0  0  0  0  0
   20.0904   -9.1439  -14.7765 O   0  0  0  0  0  0  0  0  0  0  0  0
   17.9050   -8.9316  -15.4199 N   0  0  0  0  0  0  0  0  0  0  0  0
   17.8032   -7.6501  -14.7686 C   0  0  1  0  0  0  0  0  0  0  0  0
   17.3024   -6.5798  -15.7473 C   0  0  0  0  0  0  0  0  0  0  0  0
   17.2200   -5.2533  -15.0992 C   0  0  0  0  0  0  0  0  0  0  0  0
   17.5998   -5.0065  -13.8021 C   0  0  0  0  0  0  0  0  0  0  0  0
   17.3677   -3.6863  -13.6034 N   0  0  0  0  0  0  0  0  0  0  0  0
   16.8665   -3.1590  -14.7400 C   0  0  0  0  0  0  0  0  0  0  0  0
   16.7781   -4.1304  -15.6579 N   0  0  0  0  0  0  0  0  0  0  0  0
   16.7710   -7.7288  -13.7121 C   0  0  0  0  0  0  0  0  0  0  0  0
   15.6803   -8.2910  -13.9896 O   0  0  0  0  0  0  0  0  0  0  0  0
   12.4933   -8.0356   -6.3126 O   0  0  0  0  0  0  0  0  0  0  0  0
   13.5026   -7.9684   -7.2759 C   0  0  0  0  0  0  0  0  0  0  0  0
   13.3654   -8.8173   -8.3714 C   0  0  0  0  0  0  0  0  0  0  0  0
   14.3517   -8.7826   -9.3580 C   0  0  0  0  0  0  0  0  0  0  0  0
   15.4249   -7.9341   -9.2474 C   0  0  0  0  0  0  0  0  0  0  0  0
   16.4609   -7.9014  -10.2896 C   0  0  0  0  0  0  0  0  0  0  0  0
   15.9866   -7.1206  -11.4668 C   0  0  2  0  0  0  0  0  0  0  0  0
   17.0734   -7.1651  -12.4488 N   0  0  0  0  0  0  0  0  0  0  0  0
   15.5620   -5.7464  -11.2058 C   0  0  0  0  0  0  0  0  0  0  0  0
   14.2283   -5.4184  -11.0450 O   0  0  0  0  0  0  0  0  0  0  0  0
   15.5295   -7.0968   -8.1345 C   0  0  0  0  0  0  0  0  0  0  0  0
   14.5689   -7.1133   -7.1483 C   0  0  0  0  0  0  0  0  0  0  0  0
   16.4049   -4.8299  -11.1215 O   0  0  0  0  0  0  0  0  0  0  0  0
  2  1  1  1
  2  3  1  0
  3  4  1  0
  5  2  1  0
  6  5  2  0
  7  5  1  0
  8 15  1  0
  8  7  1  0
  9 10  1  0
  8  9  1  6
 10 11  2  0
 12 11  1  0
 13 12  1  0
 14 13  2  0
 14 10  1  0
 15 16  2  0
 18 28  2  0
 18 17  1  0
 19 18  1  0
 20 21  1  0
 20 19  2  0
 21 27  2  0
 22 21  1  0
 23 22  1  1
 24 23  1  0
 24 15  1  0
 25 26  1  0
 25 23  1  0
 27 28  1  0
 29 25  2  0
M  END
$$$$
