CHY.pdb
     RDKit          3D

 29 30  0  0  1  0  0  0  0  0999 V2000
   36.6966  -25.3640  -19.2326 N   0  0  0  0  0  0  0  0  0  0  0  0
   35.6073  -26.2180  -18.8245 C   0  0  1  0  0  0  0  0  0  0  0  0
   35.0600  -27.0369  -19.9695 C   0  0  0  0  0  0  0  0  0  0  0  0
   33.5573  -26.2516  -20.6080 S   0  0  0  0  0  0  0  0  0  0  0  0
   36.1213  -27.1630  -17.8007 C   0  0  0  0  0  0  0  0  0  0  0  0
   37.2584  -27.6632  -17.9009 O   0  0  0  0  0  0  0  0  0  0  0  0
   35.3327  -27.5278  -16.6727 N   0  0  0  0  0  0  0  0  0  0  0  0
   35.8310  -28.4910  -15.7236 C   0  0  1  0  0  0  0  0  0  0  0  0
   35.5088  -28.0575  -14.2874 C   0  0  0  0  0  0  0  0  0  0  0  0
   36.3082  -26.8794  -13.8881 C   0  0  0  0  0  0  0  0  0  0  0  0
   37.2515  -26.2829  -14.6894 C   0  0  0  0  0  0  0  0  0  0  0  0
   37.7457  -25.2536  -13.9597 N   0  0  0  0  0  0  0  0  0  0  0  0
   37.1219  -25.2324  -12.7632 C   0  0  0  0  0  0  0  0  0  0  0  0
   36.2371  -26.2372  -12.7258 N   0  0  0  0  0  0  0  0  0  0  0  0
   35.1148  -29.7707  -15.9168 C   0  0  0  0  0  0  0  0  0  0  0  0
   33.8802  -29.7290  -16.1546 O   0  0  0  0  0  0  0  0  0  0  0  0
   32.0549  -36.6412  -19.3882 O   0  0  0  0  0  0  0  0  0  0  0  0
   32.6590  -35.4817  -18.8966 C   0  0  0  0  0  0  0  0  0  0  0  0
   33.8017  -35.0515  -19.5666 C   0  0  0  0  0  0  0  0  0  0  0  0
   34.4373  -33.8967  -19.1085 C   0  0  0  0  0  0  0  0  0  0  0  0
   33.9463  -33.2076  -18.0277 C   0  0  0  0  0  0  0  0  0  0  0  0
   34.6195  -31.9916  -17.5495 C   0  0  0  0  0  0  0  0  0  0  0  0
   35.1751  -32.2102  -16.1842 C   0  0  2  0  0  0  0  0  0  0  0  0
   35.8640  -30.9685  -15.8220 N   0  0  0  0  0  0  0  0  0  0  0  0
   36.0481  -33.3707  -16.0169 C   0  0  0  0  0  0  0  0  0  0  0  0
   35.5691  -34.5737  -15.5316 O   0  0  0  0  0  0  0  0  0  0  0  0
   32.7978  -33.6686  -17.3804 C   0  0  0  0  0  0  0  0  0  0  0  0
   32.1536  -34.8054  -17.8141 C   0  0  0  0  0  0  0  0  0  0  0  0
   37.2585  -33.2986  -16.3126 O   0  0  0  0  0  0  0  0  0  0  0  0
  2  1  1  6
  2  3  1  0
  3  4  1  0
  5  2  1  0
  6  5  2  0
  7  5  1  0
  8 15  1  0
  8  7  1  0
  9 10  1  0
  8  9  1  1
 10 11  2  0
 12 11  1  0
 13 12  1  0
 14 13  2  0
 14 10  1  0
 15 16  2  0
 18 28  2  0
 18 17  1  0
 19 18  1  0
 20 21  1  0
 20 19  2  0
 21 27  2  0
 22 21  1  0
 23 22  1  6
 24 23  1  0
 24 15  1  0
 25 26  1  0
 25 23  1  0
 27 28  1  0
 29 25  2  0
M  END
$$$$
