CHY.pdb
     RDKit          3D

 29 30  0  0  1  0  0  0  0  0999 V2000
   29.2497  -13.9034  -18.9643 N   0  0  0  0  0  0  0  0  0  0  0  0
   28.0390  -13.4651  -18.3127 C   0  0  1  0  0  0  0  0  0  0  0  0
   28.2946  -12.9405  -16.9197 C   0  0  0  0  0  0  0  0  0  0  0  0
   26.7164  -12.5222  -16.1341 S   0  0  0  0  0  0  0  0  0  0  0  0
   27.4611  -12.3552  -19.1126 C   0  0  0  0  0  0  0  0  0  0  0  0
   28.1777  -11.4288  -19.5384 O   0  0  0  0  0  0  0  0  0  0  0  0
   26.0712  -12.3136  -19.4185 N   0  0  0  0  0  0  0  0  0  0  0  0
   25.5260  -11.2002  -20.1534 C   0  0  1  0  0  0  0  0  0  0  0  0
   24.5138  -11.6821  -21.2010 C   0  0  0  0  0  0  0  0  0  0  0  0
   25.1914  -12.1556  -22.4270 C   0  0  0  0  0  0  0  0  0  0  0  0
   26.5514  -12.3123  -22.5420 C   0  0  0  0  0  0  0  0  0  0  0  0
   26.7577  -12.7575  -23.8051 N   0  0  0  0  0  0  0  0  0  0  0  0
   25.5646  -12.8644  -24.4266 C   0  0  0  0  0  0  0  0  0  0  0  0
   24.6034  -12.4919  -23.5714 N   0  0  0  0  0  0  0  0  0  0  0  0
   24.7535  -10.3448  -19.2264 C   0  0  0  0  0  0  0  0  0  0  0  0
   24.0708  -10.9063  -18.3312 O   0  0  0  0  0  0  0  0  0  0  0  0
   21.5917   -5.3458  -13.4035 O   0  0  0  0  0  0  0  0  0  0  0  0
   22.3467   -6.0508  -14.3438 C   0  0  0  0  0  0  0  0  0  0  0  0
   22.0748   -7.4120  -14.4559 C   0  0  0  0  0  0  0  0  0  0  0  0
   22.8063   -8.1547  -15.3836 C   0  0  0  0  0  0  0  0  0  0  0  0
   23.7658   -7.5560  -16.1614 C   0  0  0  0  0  0  0  0  0  0  0  0
   24.5332   -8.3429  -17.1373 C   0  0  0  0  0  0  0  0  0  0  0  0
   24.0067   -8.1178  -18.5129 C   0  0  2  0  0  0  0  0  0  0  0  0
   24.8290   -8.9419  -19.4029 N   0  0  0  0  0  0  0  0  0  0  0  0
   23.9561   -6.7299  -18.9695 C   0  0  0  0  0  0  0  0  0  0  0  0
   22.8387   -5.9411  -18.7672 O   0  0  0  0  0  0  0  0  0  0  0  0
   24.0114   -6.1883  -16.0216 C   0  0  0  0  0  0  0  0  0  0  0  0
   23.3024   -5.4349  -15.1131 C   0  0  0  0  0  0  0  0  0  0  0  0
   24.9327   -6.2225  -19.5581 O   0  0  0  0  0  0  0  0  0  0  0  0
  2  1  1  6
  2  3  1  0
  3  4  1  0
  5  2  1  0
  6  5  2  0
  7  5  1  0
  8 15  1  0
  8  7  1  0
  9 10  1  0
  8  9  1  6
 10 11  2  0
 12 11  1  0
 13 12  1  0
 14 13  2  0
 14 10  1  0
 15 16  2  0
 18 28  2  0
 18 17  1  0
 19 18  1  0
 20 21  1  0
 20 19  2  0
 21 27  2  0
 22 21  1  0
 23 22  1  1
 24 23  1  0
 24 15  1  0
 25 26  1  0
 25 23  1  0
 27 28  1  0
 29 25  2  0
M  END
$$$$
