CHY.pdb
     RDKit          3D

 29 30  0  0  1  0  0  0  0  0999 V2000
   22.4904  -33.3941  -14.1514 N   0  0  0  0  0  0  0  0  0  0  0  0
   22.1523  -32.2554  -13.3320 C   0  0  1  0  0  0  0  0  0  0  0  0
   20.8301  -31.6392  -13.7232 C   0  0  0  0  0  0  0  0  0  0  0  0
   21.0670  -30.5685  -15.1654 S   0  0  0  0  0  0  0  0  0  0  0  0
   22.0347  -32.7181  -11.9258 C   0  0  0  0  0  0  0  0  0  0  0  0
   21.4850  -33.8019  -11.6496 O   0  0  0  0  0  0  0  0  0  0  0  0
   22.5456  -31.9395  -10.8487 N   0  0  0  0  0  0  0  0  0  0  0  0
   22.3828  -32.3909   -9.4898 C   0  0  1  0  0  0  0  0  0  0  0  0
   23.4185  -31.7321   -8.5692 C   0  0  0  0  0  0  0  0  0  0  0  0
   24.7566  -32.3365   -8.7442 C   0  0  0  0  0  0  0  0  0  0  0  0
   25.0064  -33.4378   -9.5266 C   0  0  0  0  0  0  0  0  0  0  0  0
   26.3379  -33.6641   -9.4162 N   0  0  0  0  0  0  0  0  0  0  0  0
   26.8689  -32.7323   -8.5971 C   0  0  0  0  0  0  0  0  0  0  0  0
   25.8887  -31.9172   -8.1864 N   0  0  0  0  0  0  0  0  0  0  0  0
   21.0674  -31.9380   -8.9874 C   0  0  0  0  0  0  0  0  0  0  0  0
   20.6475  -30.8113   -9.3573 O   0  0  0  0  0  0  0  0  0  0  0  0
   12.8591  -31.4378   -6.9802 O   0  0  0  0  0  0  0  0  0  0  0  0
   14.1428  -31.8716   -7.3193 C   0  0  0  0  0  0  0  0  0  0  0  0
   14.8019  -31.1358   -8.3010 C   0  0  0  0  0  0  0  0  0  0  0  0
   16.0872  -31.5348   -8.6702 C   0  0  0  0  0  0  0  0  0  0  0  0
   16.6808  -32.6224   -8.0796 C   0  0  0  0  0  0  0  0  0  0  0  0
   18.0349  -33.0382   -8.4721 C   0  0  0  0  0  0  0  0  0  0  0  0
   19.0534  -32.3360   -7.6415 C   0  0  2  0  0  0  0  0  0  0  0  0
   20.3584  -32.8021   -8.1182 N   0  0  0  0  0  0  0  0  0  0  0  0
   18.9296  -32.4923   -6.1933 C   0  0  0  0  0  0  0  0  0  0  0  0
   18.0470  -31.7258   -5.4547 O   0  0  0  0  0  0  0  0  0  0  0  0
   15.9896  -33.3366   -7.0985 C   0  0  0  0  0  0  0  0  0  0  0  0
   14.7206  -32.9620   -6.7177 C   0  0  0  0  0  0  0  0  0  0  0  0
   19.6265  -33.3312   -5.5865 O   0  0  0  0  0  0  0  0  0  0  0  0
  2  1  1  6
  2  3  1  0
  3  4  1  0
  5  2  1  0
  6  5  2  0
  7  5  1  0
  8 15  1  0
  8  7  1  0
  9 10  1  0
  8  9  1  1
 10 11  2  0
 12 11  1  0
 13 12  1  0
 14 13  2  0
 14 10  1  0
 15 16  2  0
 18 28  2  0
 18 17  1  0
 19 18  1  0
 20 21  1  0
 20 19  2  0
 21 27  2  0
 22 21  1  0
 23 22  1  6
 24 23  1  0
 24 15  1  0
 25 26  1  0
 25 23  1  0
 27 28  1  0
 29 25  2  0
M  END
$$$$
