CHY.pdb
     RDKit          3D

 29 30  0  0  1  0  0  0  0  0999 V2000
   26.2034  -20.9011  -22.3365 N   0  0  0  0  0  0  0  0  0  0  0  0
   24.9519  -20.9319  -21.6188 C   0  0  1  0  0  0  0  0  0  0  0  0
   24.2725  -22.2778  -21.7073 C   0  0  0  0  0  0  0  0  0  0  0  0
   22.7301  -22.2381  -20.7575 S   0  0  0  0  0  0  0  0  0  0  0  0
   25.2359  -20.6645  -20.1858 C   0  0  0  0  0  0  0  0  0  0  0  0
   25.8651  -21.4857  -19.4911 O   0  0  0  0  0  0  0  0  0  0  0  0
   24.7989  -19.4626  -19.5599 N   0  0  0  0  0  0  0  0  0  0  0  0
   25.0839  -19.2283  -18.1668 C   0  0  1  0  0  0  0  0  0  0  0  0
   25.5652  -17.7886  -17.9438 C   0  0  0  0  0  0  0  0  0  0  0  0
   27.0243  -17.6700  -18.1517 C   0  0  0  0  0  0  0  0  0  0  0  0
   27.8440  -18.7260  -18.4687 C   0  0  0  0  0  0  0  0  0  0  0  0
   29.0883  -18.1990  -18.5700 N   0  0  0  0  0  0  0  0  0  0  0  0
   29.0187  -16.8742  -18.3229 C   0  0  0  0  0  0  0  0  0  0  0  0
   27.7436  -16.5548  -18.0658 N   0  0  0  0  0  0  0  0  0  0  0  0
   23.8287  -19.3463  -17.3932 C   0  0  0  0  0  0  0  0  0  0  0  0
   22.7474  -19.0641  -17.9711 O   0  0  0  0  0  0  0  0  0  0  0  0
   18.4456  -20.7717  -10.7134 O   0  0  0  0  0  0  0  0  0  0  0  0
   19.5748  -20.7218  -11.5341 C   0  0  0  0  0  0  0  0  0  0  0  0
   20.3137  -19.5421  -11.4932 C   0  0  0  0  0  0  0  0  0  0  0  0
   21.4502  -19.4495  -12.2978 C   0  0  0  0  0  0  0  0  0  0  0  0
   21.8250  -20.4945  -13.1050 C   0  0  0  0  0  0  0  0  0  0  0  0
   23.0231  -20.3919  -13.9503 C   0  0  0  0  0  0  0  0  0  0  0  0
   22.6694  -19.8288  -15.2838 C   0  0  2  0  0  0  0  0  0  0  0  0
   23.9200  -19.7706  -16.0454 N   0  0  0  0  0  0  0  0  0  0  0  0
   21.9873  -18.5359  -15.2822 C   0  0  0  0  0  0  0  0  0  0  0  0
   22.6883  -17.3471  -15.1952 O   0  0  0  0  0  0  0  0  0  0  0  0
   21.0596  -21.6626  -13.1201 C   0  0  0  0  0  0  0  0  0  0  0  0
   19.9344  -21.7772  -12.3350 C   0  0  0  0  0  0  0  0  0  0  0  0
   20.7431  -18.4778  -15.3606 O   0  0  0  0  0  0  0  0  0  0  0  0
  2  1  1  6
  2  3  1  0
  3  4  1  0
  5  2  1  0
  6  5  2  0
  7  5  1  0
  8 15  1  0
  8  7  1  0
  9 10  1  0
  8  9  1  6
 10 11  2  0
 12 11  1  0
 13 12  1  0
 14 13  2  0
 14 10  1  0
 15 16  2  0
 18 28  2  0
 18 17  1  0
 19 18  1  0
 20 21  1  0
 20 19  2  0
 21 27  2  0
 22 21  1  0
 23 22  1  1
 24 23  1  0
 24 15  1  0
 25 26  1  0
 25 23  1  0
 27 28  1  0
 29 25  2  0
M  END
$$$$
