IKC.pdb
     RDKit          3D

 24 23  0  0  1  0  0  0  0  0999 V2000
   18.5213  -15.0714  -17.6029 C   0  0  0  0  0  0  0  0  0  0  0  0
   18.6887  -14.0795  -16.5023 C   0  0  0  0  0  0  0  0  0  0  0  0
   18.8113  -12.6497  -17.0008 C   0  0  2  0  0  0  0  0  0  0  0  0
   20.1370  -12.5293  -17.7620 C   0  0  0  0  0  0  0  0  0  0  0  0
   18.9463  -11.7746  -15.7761 C   0  0  2  0  0  0  0  0  0  0  0  0
   17.8646  -12.0685  -14.8745 N   0  0  0  0  0  0  0  0  0  0  0  0
   18.9359  -10.3406  -16.1017 C   0  0  0  0  0  0  0  0  0  0  0  0
   19.7987   -9.8520  -16.8878 O   0  0  0  0  0  0  0  0  0  0  0  0
   17.9607   -9.5012  -15.5373 N   0  0  0  0  0  0  0  0  0  0  0  0
   17.8840   -8.0410  -15.9699 C   0  0  1  0  0  0  0  0  0  0  0  0
   16.4563   -7.6945  -15.9511 C   0  0  0  0  0  0  0  0  0  0  0  0
   15.9452   -6.3331  -15.8964 C   0  0  0  0  0  0  0  0  0  0  0  0
   14.7555   -5.9917  -15.0918 C   0  0  0  0  0  0  0  0  0  0  0  0
   13.8131   -5.1612  -16.0019 C   0  0  0  0  0  0  0  0  0  0  0  0
   13.0123   -6.1282  -16.7261 N   0  0  0  0  0  0  0  0  0  0  0  0
   18.8422   -7.3622  -15.1164 C   0  0  0  0  0  0  0  0  0  0  0  0
   19.2468   -7.9748  -14.0580 O   0  0  0  0  0  0  0  0  0  0  0  0
   19.4174   -6.0919  -15.3004 N   0  0  0  0  0  0  0  0  0  0  0  0
   20.3537   -5.4983  -14.3682 C   0  0  1  0  0  0  0  0  0  0  0  0
   21.5940   -6.4298  -14.4482 C   0  0  0  0  0  0  0  0  0  0  0  0
   22.9010   -5.6908  -13.4479 S   0  0  0  0  0  0  0  0  0  0  0  0
   20.7327   -4.1240  -14.6983 C   0  0  0  0  0  0  0  0  0  0  0  0
   21.1133   -3.1929  -13.7642 O   0  0  0  0  0  0  0  0  0  0  0  0
   20.7193   -3.7341  -15.9100 O   0  0  0  0  0  0  0  0  0  0  0  0
  1  2  1  0
  3  2  1  0
  3  4  1  6
  5  6  1  1
  5  3  1  0
  7  5  1  0
  8  7  2  0
  9  7  1  0
 10 11  1  1
 10  9  1  0
 11 12  1  0
 13 12  1  0
 13 14  1  0
 15 14  1  0
 16 10  1  0
 17 16  2  0
 18 16  1  0
 19 20  1  6
 19 18  1  0
 20 21  1  0
 22 19  1  0
 22 23  1  0
 24 22  2  0
M  END
$$$$
