IKC.pdb
     RDKit          3D

 24 23  0  0  1  0  0  0  0  0999 V2000
   26.5092  -20.1761   -7.5009 C   0  0  0  0  0  0  0  0  0  0  0  0
   26.8038  -20.9492   -8.7414 C   0  0  0  0  0  0  0  0  0  0  0  0
   25.8484  -20.6367   -9.8805 C   0  0  2  0  0  0  0  0  0  0  0  0
   24.4791  -21.2256   -9.5205 C   0  0  0  0  0  0  0  0  0  0  0  0
   26.3391  -21.4116  -11.0816 C   0  0  2  0  0  0  0  0  0  0  0  0
   27.7099  -21.0564  -11.3343 N   0  0  0  0  0  0  0  0  0  0  0  0
   25.5368  -21.1544  -12.2868 C   0  0  0  0  0  0  0  0  0  0  0  0
   25.5616  -20.0203  -12.8474 O   0  0  0  0  0  0  0  0  0  0  0  0
   24.7338  -22.1742  -12.8246 N   0  0  0  0  0  0  0  0  0  0  0  0
   23.9041  -21.8980  -14.0738 C   0  0  1  0  0  0  0  0  0  0  0  0
   24.1417  -23.0380  -14.9698 C   0  0  0  0  0  0  0  0  0  0  0  0
   25.1059  -23.0350  -16.0598 C   0  0  0  0  0  0  0  0  0  0  0  0
   26.2851  -23.9231  -16.0437 C   0  0  0  0  0  0  0  0  0  0  0  0
   27.1315  -23.5789  -17.2972 C   0  0  0  0  0  0  0  0  0  0  0  0
   28.3193  -24.4048  -17.2092 N   0  0  0  0  0  0  0  0  0  0  0  0
   22.5788  -21.5940  -13.5655 C   0  0  0  0  0  0  0  0  0  0  0  0
   22.3623  -21.7636  -12.3071 O   0  0  0  0  0  0  0  0  0  0  0  0
   21.4675  -21.1115  -14.2799 N   0  0  0  0  0  0  0  0  0  0  0  0
   20.4303  -20.2949  -13.6841 C   0  0  1  0  0  0  0  0  0  0  0  0
   21.1602  -18.9692  -13.3347 C   0  0  0  0  0  0  0  0  0  0  0  0
   19.9627  -17.8747  -12.5453 S   0  0  0  0  0  0  0  0  0  0  0  0
   19.2980  -20.0285  -14.5720 C   0  0  0  0  0  0  0  0  0  0  0  0
   19.4313  -19.6279  -15.8782 O   0  0  0  0  0  0  0  0  0  0  0  0
   18.1074  -20.1642  -14.1426 O   0  0  0  0  0  0  0  0  0  0  0  0
  1  2  1  0
  3  2  1  0
  3  4  1  1
  5  6  1  6
  5  3  1  0
  7  5  1  0
  8  7  2  0
  9  7  1  0
 10 11  1  6
 10  9  1  0
 11 12  1  0
 13 12  1  0
 13 14  1  0
 15 14  1  0
 16 10  1  0
 17 16  2  0
 18 16  1  0
 19 20  1  6
 19 18  1  0
 20 21  1  0
 22 19  1  0
 22 23  1  0
 24 22  2  0
M  END
$$$$
