IKC.pdb
     RDKit          3D

 24 23  0  0  1  0  0  0  0  0999 V2000
   22.4987  -26.2890  -23.3365 C   0  0  0  0  0  0  0  0  0  0  0  0
   22.9189  -26.0392  -21.9278 C   0  0  0  0  0  0  0  0  0  0  0  0
   24.3824  -26.3594  -21.6758 C   0  0  2  0  0  0  0  0  0  0  0  0
   24.5429  -27.8840  -21.7114 C   0  0  0  0  0  0  0  0  0  0  0  0
   24.6796  -25.9363  -20.2557 C   0  0  2  0  0  0  0  0  0  0  0  0
   24.5168  -24.5108  -20.1530 N   0  0  0  0  0  0  0  0  0  0  0  0
   26.0370  -26.3058  -19.8278 C   0  0  0  0  0  0  0  0  0  0  0  0
   27.0450  -25.6853  -20.2750 O   0  0  0  0  0  0  0  0  0  0  0  0
   26.2216  -27.3571  -18.9141 N   0  0  0  0  0  0  0  0  0  0  0  0
   27.6345  -27.8221  -18.5784 C   0  0  1  0  0  0  0  0  0  0  0  0
   27.8037  -27.5755  -17.1399 C   0  0  0  0  0  0  0  0  0  0  0  0
   29.0312  -27.0832  -16.5328 C   0  0  0  0  0  0  0  0  0  0  0  0
   29.4190  -25.6621  -16.6297 C   0  0  0  0  0  0  0  0  0  0  0  0
   30.8827  -25.5542  -16.1277 C   0  0  0  0  0  0  0  0  0  0  0  0
   31.1687  -24.1354  -16.0500 N   0  0  0  0  0  0  0  0  0  0  0  0
   27.7144  -29.1605  -19.1348 C   0  0  0  0  0  0  0  0  0  0  0  0
   26.7096  -29.9472  -18.9595 O   0  0  0  0  0  0  0  0  0  0  0  0
   28.7673  -29.7291  -19.8740 N   0  0  0  0  0  0  0  0  0  0  0  0
   28.7260  -31.0712  -20.4170 C   0  0  1  0  0  0  0  0  0  0  0  0
   29.7789  -31.0394  -21.5585 C   0  0  0  0  0  0  0  0  0  0  0  0
   29.0184  -30.2376  -22.9846 S   0  0  0  0  0  0  0  0  0  0  0  0
   29.0624  -32.1161  -19.4493 C   0  0  0  0  0  0  0  0  0  0  0  0
   28.6564  -33.4222  -19.5657 O   0  0  0  0  0  0  0  0  0  0  0  0
   29.7689  -31.8341  -18.4286 O   0  0  0  0  0  0  0  0  0  0  0  0
  1  2  1  0
  3  2  1  0
  3  4  1  1
  5  6  1  6
  5  3  1  0
  7  5  1  0
  8  7  2  0
  9  7  1  0
 10 11  1  1
 10  9  1  0
 11 12  1  0
 13 12  1  0
 13 14  1  0
 15 14  1  0
 16 10  1  0
 17 16  2  0
 18 16  1  0
 19 20  1  6
 19 18  1  0
 20 21  1  0
 22 19  1  0
 22 23  1  0
 24 22  2  0
M  END
$$$$
