IKC.pdb
     RDKit          3D

 24 23  0  0  1  0  0  0  0  0999 V2000
   27.9835  -19.5296   -6.8140 C   0  0  0  0  0  0  0  0  0  0  0  0
   27.9487  -20.6457   -7.8021 C   0  0  0  0  0  0  0  0  0  0  0  0
   27.1527  -20.3117   -9.0522 C   0  0  2  0  0  0  0  0  0  0  0  0
   25.6632  -20.4004   -8.6988 C   0  0  0  0  0  0  0  0  0  0  0  0
   27.4186  -21.4208  -10.0437 C   0  0  2  0  0  0  0  0  0  0  0  0
   28.8281  -21.4605  -10.3282 N   0  0  0  0  0  0  0  0  0  0  0  0
   26.6709  -21.2491  -11.2982 C   0  0  0  0  0  0  0  0  0  0  0  0
   27.0548  -20.4142  -12.1681 O   0  0  0  0  0  0  0  0  0  0  0  0
   25.5189  -22.0170  -11.5377 N   0  0  0  0  0  0  0  0  0  0  0  0
   24.8506  -21.9629  -12.9073 C   0  0  1  0  0  0  0  0  0  0  0  0
   24.8382  -23.3473  -13.3993 C   0  0  0  0  0  0  0  0  0  0  0  0
   24.3284  -23.7483  -14.7020 C   0  0  0  0  0  0  0  0  0  0  0  0
   24.3677  -25.1572  -15.1410 C   0  0  0  0  0  0  0  0  0  0  0  0
   23.7327  -25.2114  -16.5553 C   0  0  0  0  0  0  0  0  0  0  0  0
   23.9528  -26.5615  -17.0342 N   0  0  0  0  0  0  0  0  0  0  0  0
   23.6208  -21.2263  -12.6787 C   0  0  0  0  0  0  0  0  0  0  0  0
   22.9773  -21.4519  -11.5858 O   0  0  0  0  0  0  0  0  0  0  0  0
   23.0240  -20.2596  -13.5079 N   0  0  0  0  0  0  0  0  0  0  0  0
   21.7376  -19.6552  -13.2294 C   0  0  1  0  0  0  0  0  0  0  0  0
   21.6876  -18.4358  -14.1901 C   0  0  0  0  0  0  0  0  0  0  0  0
   21.9141  -19.0515  -15.8708 S   0  0  0  0  0  0  0  0  0  0  0  0
   20.5979  -20.5392  -13.4764 C   0  0  0  0  0  0  0  0  0  0  0  0
   20.6838  -21.7155  -14.1788 O   0  0  0  0  0  0  0  0  0  0  0  0
   19.4459  -20.2314  -13.0309 O   0  0  0  0  0  0  0  0  0  0  0  0
  1  2  1  0
  3  2  1  0
  3  4  1  1
  5  6  1  6
  5  3  1  0
  7  5  1  0
  8  7  2  0
  9  7  1  0
 10 11  1  1
 10  9  1  0
 11 12  1  0
 13 12  1  0
 13 14  1  0
 15 14  1  0
 16 10  1  0
 17 16  2  0
 18 16  1  0
 19 20  1  6
 19 18  1  0
 20 21  1  0
 22 19  1  0
 22 23  1  0
 24 22  2  0
M  END
$$$$
