IKC.pdb
     RDKit          3D

 24 23  0  0  1  0  0  0  0  0999 V2000
   20.7130  -18.8508  -17.1997 C   0  0  0  0  0  0  0  0  0  0  0  0
   20.7097  -17.8154  -16.1268 C   0  0  0  0  0  0  0  0  0  0  0  0
   20.4474  -16.4138  -16.6506 C   0  0  2  0  0  0  0  0  0  0  0  0
   21.6131  -16.0296  -17.5697 C   0  0  0  0  0  0  0  0  0  0  0  0
   20.5241  -15.4856  -15.4603 C   0  0  2  0  0  0  0  0  0  0  0  0
   19.5030  -15.8556  -14.5172 N   0  0  0  0  0  0  0  0  0  0  0  0
   20.3573  -14.0730  -15.8331 C   0  0  0  0  0  0  0  0  0  0  0  0
   21.1794  -13.5111  -16.6138 O   0  0  0  0  0  0  0  0  0  0  0  0
   19.2765  -13.3362  -15.3201 N   0  0  0  0  0  0  0  0  0  0  0  0
   19.0202  -11.9226  -15.8313 C   0  0  1  0  0  0  0  0  0  0  0  0
   17.5608  -11.7524  -15.8170 C   0  0  0  0  0  0  0  0  0  0  0  0
   16.8812  -10.4930  -16.0808 C   0  0  0  0  0  0  0  0  0  0  0  0
   16.8519   -9.9057  -17.4349 C   0  0  0  0  0  0  0  0  0  0  0  0
   16.0420   -8.5860  -17.3415 C   0  0  0  0  0  0  0  0  0  0  0  0
   16.0454   -8.0265  -18.6785 N   0  0  0  0  0  0  0  0  0  0  0  0
   19.8910  -11.0855  -15.0262 C   0  0  0  0  0  0  0  0  0  0  0  0
   19.6672  -11.0259  -13.7591 O   0  0  0  0  0  0  0  0  0  0  0  0
   20.9889  -10.3166  -15.4526 N   0  0  0  0  0  0  0  0  0  0  0  0
   21.7668   -9.4771  -14.5650 C   0  0  1  0  0  0  0  0  0  0  0  0
   23.2305   -9.7025  -15.0334 C   0  0  0  0  0  0  0  0  0  0  0  0
   23.7765  -11.2938  -14.3818 S   0  0  0  0  0  0  0  0  0  0  0  0
   21.4267   -8.0558  -14.6389 C   0  0  0  0  0  0  0  0  0  0  0  0
   20.5380   -7.5306  -15.5438 O   0  0  0  0  0  0  0  0  0  0  0  0
   21.9671   -7.2298  -13.8350 O   0  0  0  0  0  0  0  0  0  0  0  0
  1  2  1  0
  3  2  1  0
  3  4  1  6
  5  6  1  1
  5  3  1  0
  7  5  1  0
  8  7  2  0
  9  7  1  0
 10 11  1  1
 10  9  1  0
 11 12  1  0
 13 12  1  0
 13 14  1  0
 15 14  1  0
 16 10  1  0
 17 16  2  0
 18 16  1  0
 19 20  1  6
 19 18  1  0
 20 21  1  0
 22 19  1  0
 22 23  1  0
 24 22  2  0
M  END
$$$$
