IKC.pdb
     RDKit          3D

 24 23  0  0  1  0  0  0  0  0999 V2000
   25.4148  -18.1719  -18.0769 C   0  0  0  0  0  0  0  0  0  0  0  0
   24.1512  -18.9522  -18.2103 C   0  0  0  0  0  0  0  0  0  0  0  0
   23.9571  -19.9686  -17.0981 C   0  0  2  0  0  0  0  0  0  0  0  0
   23.4708  -21.2758  -17.7354 C   0  0  0  0  0  0  0  0  0  0  0  0
   22.8159  -19.4641  -16.2454 C   0  0  2  0  0  0  0  0  0  0  0  0
   23.1194  -18.1279  -15.8077 N   0  0  0  0  0  0  0  0  0  0  0  0
   22.5648  -20.3174  -15.0743 C   0  0  0  0  0  0  0  0  0  0  0  0
   22.4682  -21.5727  -15.2005 O   0  0  0  0  0  0  0  0  0  0  0  0
   22.4303  -19.7379  -13.8015 N   0  0  0  0  0  0  0  0  0  0  0  0
   22.0587  -20.6157  -12.6112 C   0  0  1  0  0  0  0  0  0  0  0  0
   22.6204  -19.9448  -11.4309 C   0  0  0  0  0  0  0  0  0  0  0  0
   22.5563  -20.4784  -10.0785 C   0  0  0  0  0  0  0  0  0  0  0  0
   21.3512  -21.1728   -9.5838 C   0  0  0  0  0  0  0  0  0  0  0  0
   21.6499  -21.6235   -8.1299 C   0  0  0  0  0  0  0  0  0  0  0  0
   20.4471  -22.2878   -7.6686 N   0  0  0  0  0  0  0  0  0  0  0  0
   20.6304  -20.8313  -12.7552 C   0  0  0  0  0  0  0  0  0  0  0  0
   19.8840  -19.8032  -12.9677 O   0  0  0  0  0  0  0  0  0  0  0  0
   19.9297  -22.0499  -12.7061 N   0  0  0  0  0  0  0  0  0  0  0  0
   18.4886  -22.1456  -12.8141 C   0  0  1  0  0  0  0  0  0  0  0  0
   18.2595  -23.5368  -13.4655 C   0  0  0  0  0  0  0  0  0  0  0  0
   16.4787  -23.7952  -13.5963 S   0  0  0  0  0  0  0  0  0  0  0  0
   17.7885  -22.0676  -11.5315 C   0  0  0  0  0  0  0  0  0  0  0  0
   16.6153  -21.3799  -11.3440 O   0  0  0  0  0  0  0  0  0  0  0  0
   18.2657  -22.6574  -10.5094 O   0  0  0  0  0  0  0  0  0  0  0  0
  1  2  1  0
  3  2  1  0
  3  4  1  6
  5  6  1  1
  5  3  1  0
  7  5  1  0
  8  7  2  0
  9  7  1  0
 10 11  1  1
 10  9  1  0
 11 12  1  0
 13 12  1  0
 13 14  1  0
 15 14  1  0
 16 10  1  0
 17 16  2  0
 18 16  1  0
 19 20  1  1
 19 18  1  0
 20 21  1  0
 22 19  1  0
 22 23  1  0
 24 22  2  0
M  END
$$$$
