IKC.pdb
     RDKit          3D

 24 23  0  0  1  0  0  0  0  0999 V2000
   27.5010  -11.5521  -15.0017 C   0  0  0  0  0  0  0  0  0  0  0  0
   26.4528  -11.9122  -15.9992 C   0  0  0  0  0  0  0  0  0  0  0  0
   26.9913  -12.0303  -17.4148 C   0  0  2  0  0  0  0  0  0  0  0  0
   27.5085  -10.6501  -17.8377 C   0  0  0  0  0  0  0  0  0  0  0  0
   25.8070  -12.3286  -18.3048 C   0  0  2  0  0  0  0  0  0  0  0  0
   26.2885  -12.7025  -19.6077 N   0  0  0  0  0  0  0  0  0  0  0  0
   24.8921  -11.1844  -18.4312 C   0  0  0  0  0  0  0  0  0  0  0  0
   25.1801  -10.2091  -19.1842 O   0  0  0  0  0  0  0  0  0  0  0  0
   23.6857  -11.1693  -17.7111 N   0  0  0  0  0  0  0  0  0  0  0  0
   22.6781  -10.0511  -17.9556 C   0  0  1  0  0  0  0  0  0  0  0  0
   21.3543  -10.6585  -17.7621 C   0  0  0  0  0  0  0  0  0  0  0  0
   20.0973   -9.9338  -17.8731 C   0  0  0  0  0  0  0  0  0  0  0  0
   18.8001  -10.6152  -17.6933 C   0  0  0  0  0  0  0  0  0  0  0  0
   17.6922   -9.5597  -17.9474 C   0  0  0  0  0  0  0  0  0  0  0  0
   16.4405  -10.2191  -17.6325 N   0  0  0  0  0  0  0  0  0  0  0  0
   23.1429   -8.9590  -17.1198 C   0  0  0  0  0  0  0  0  0  0  0  0
   23.6382   -9.2508  -15.9670 O   0  0  0  0  0  0  0  0  0  0  0  0
   23.1383   -7.5831  -17.4117 N   0  0  0  0  0  0  0  0  0  0  0  0
   23.5888   -6.5693  -16.4806 C   0  0  1  0  0  0  0  0  0  0  0  0
   24.9593   -6.1215  -17.0582 C   0  0  0  0  0  0  0  0  0  0  0  0
   25.5279   -4.7091  -16.0903 S   0  0  0  0  0  0  0  0  0  0  0  0
   22.6889   -5.4208  -16.3689 C   0  0  0  0  0  0  0  0  0  0  0  0
   22.6063   -4.6226  -15.2552 O   0  0  0  0  0  0  0  0  0  0  0  0
   21.9238   -5.1155  -17.3394 O   0  0  0  0  0  0  0  0  0  0  0  0
  1  2  1  0
  3  2  1  0
  3  4  1  6
  5  6  1  6
  5  3  1  0
  7  5  1  0
  8  7  2  0
  9  7  1  0
 10 11  1  1
 10  9  1  0
 11 12  1  0
 13 12  1  0
 13 14  1  0
 15 14  1  0
 16 10  1  0
 17 16  2  0
 18 16  1  0
 19 20  1  6
 19 18  1  0
 20 21  1  0
 22 19  1  0
 22 23  1  0
 24 22  2  0
M  END
$$$$
