IKC.pdb
     RDKit          3D

 24 23  0  0  1  0  0  0  0  0999 V2000
   26.9961  -29.7784  -18.4201 C   0  0  0  0  0  0  0  0  0  0  0  0
   27.6636  -29.7088  -17.0886 C   0  0  0  0  0  0  0  0  0  0  0  0
   27.6293  -28.3192  -16.4757 C   0  0  2  0  0  0  0  0  0  0  0  0
   26.2247  -27.7439  -16.6933 C   0  0  0  0  0  0  0  0  0  0  0  0
   28.5682  -27.4624  -17.2932 C   0  0  2  0  0  0  0  0  0  0  0  0
   29.9106  -27.9489  -17.1187 N   0  0  0  0  0  0  0  0  0  0  0  0
   28.5098  -26.0420  -16.9171 C   0  0  0  0  0  0  0  0  0  0  0  0
   29.0063  -25.6441  -15.8234 O   0  0  0  0  0  0  0  0  0  0  0  0
   27.8982  -25.1143  -17.7770 N   0  0  0  0  0  0  0  0  0  0  0  0
   27.8662  -23.6393  -17.3913 C   0  0  1  0  0  0  0  0  0  0  0  0
   28.6987  -22.9495  -18.3863 C   0  0  0  0  0  0  0  0  0  0  0  0
   30.1502  -23.0366  -18.4407 C   0  0  0  0  0  0  0  0  0  0  0  0
   30.9288  -22.2659  -19.4302 C   0  0  0  0  0  0  0  0  0  0  0  0
   32.4187  -22.6529  -19.2387 C   0  0  0  0  0  0  0  0  0  0  0  0
   33.1617  -21.8347  -20.1765 N   0  0  0  0  0  0  0  0  0  0  0  0
   26.4543  -23.3374  -17.2407 C   0  0  0  0  0  0  0  0  0  0  0  0
   25.6126  -24.3010  -17.3900 O   0  0  0  0  0  0  0  0  0  0  0  0
   25.8621  -22.0998  -16.9311 N   0  0  0  0  0  0  0  0  0  0  0  0
   24.4298  -21.8975  -16.8586 C   0  0  1  0  0  0  0  0  0  0  0  0
   23.9857  -22.8216  -15.6919 C   0  0  0  0  0  0  0  0  0  0  0  0
   22.2346  -22.5147  -15.3845 S   0  0  0  0  0  0  0  0  0  0  0  0
   24.0365  -20.5148  -16.5848 C   0  0  0  0  0  0  0  0  0  0  0  0
   24.9280  -19.5112  -16.2978 O   0  0  0  0  0  0  0  0  0  0  0  0
   22.8064  -20.1878  -16.6038 O   0  0  0  0  0  0  0  0  0  0  0  0
  1  2  1  0
  3  2  1  0
  3  4  1  6
  5  6  1  1
  5  3  1  0
  7  5  1  0
  8  7  2  0
  9  7  1  0
 10 11  1  6
 10  9  1  0
 11 12  1  0
 13 12  1  0
 13 14  1  0
 15 14  1  0
 16 10  1  0
 17 16  2  0
 18 16  1  0
 19 20  1  1
 19 18  1  0
 20 21  1  0
 22 19  1  0
 22 23  1  0
 24 22  2  0
M  END
$$$$
