IKC.pdb
     RDKit          3D

 24 23  0  0  1  0  0  0  0  0999 V2000
   23.6853  -20.9632   -7.7824 C   0  0  0  0  0  0  0  0  0  0  0  0
   23.5294  -20.4608   -9.1776 C   0  0  0  0  0  0  0  0  0  0  0  0
   24.6133  -20.9614  -10.1169 C   0  0  2  0  0  0  0  0  0  0  0  0
   25.9555  -20.4081   -9.6233 C   0  0  0  0  0  0  0  0  0  0  0  0
   24.3567  -20.3136  -11.4580 C   0  0  2  0  0  0  0  0  0  0  0  0
   23.0093  -20.6094  -11.8657 N   0  0  0  0  0  0  0  0  0  0  0  0
   25.2933  -20.7709  -12.4954 C   0  0  0  0  0  0  0  0  0  0  0  0
   26.5206  -20.4694  -12.4337 O   0  0  0  0  0  0  0  0  0  0  0  0
   24.8256  -21.5501  -13.5669 N   0  0  0  0  0  0  0  0  0  0  0  0
   25.7783  -21.9220  -14.6981 C   0  0  1  0  0  0  0  0  0  0  0  0
   25.4446  -23.3061  -15.0609 C   0  0  0  0  0  0  0  0  0  0  0  0
   26.2940  -24.1675  -15.8698 C   0  0  0  0  0  0  0  0  0  0  0  0
   25.8406  -25.5037  -16.3036 C   0  0  0  0  0  0  0  0  0  0  0  0
   26.9919  -26.1276  -17.1351 C   0  0  0  0  0  0  0  0  0  0  0  0
   26.5180  -27.4344  -17.5454 N   0  0  0  0  0  0  0  0  0  0  0  0
   25.6482  -20.8341  -15.6503 C   0  0  0  0  0  0  0  0  0  0  0  0
   24.5850  -20.1088  -15.5954 O   0  0  0  0  0  0  0  0  0  0  0  0
   26.5596  -20.4431  -16.6477 N   0  0  0  0  0  0  0  0  0  0  0  0
   26.9033  -19.0621  -16.9163 C   0  0  1  0  0  0  0  0  0  0  0  0
   27.4732  -18.5543  -15.5637 C   0  0  0  0  0  0  0  0  0  0  0  0
   27.9696  -16.8343  -15.7881 S   0  0  0  0  0  0  0  0  0  0  0  0
   27.8956  -18.8907  -17.9781 C   0  0  0  0  0  0  0  0  0  0  0  0
   28.6392  -19.9198  -18.4999 O   0  0  0  0  0  0  0  0  0  0  0  0
   28.1090  -17.7357  -18.4689 O   0  0  0  0  0  0  0  0  0  0  0  0
  1  2  1  0
  3  2  1  0
  3  4  1  1
  5  6  1  6
  5  3  1  0
  7  5  1  0
  8  7  2  0
  9  7  1  0
 10 11  1  6
 10  9  1  0
 11 12  1  0
 13 12  1  0
 13 14  1  0
 15 14  1  0
 16 10  1  0
 17 16  2  0
 18 16  1  0
 19 20  1  1
 19 18  1  0
 20 21  1  0
 22 19  1  0
 22 23  1  0
 24 22  2  0
M  END
$$$$
