IKC.pdb
     RDKit          3D

 24 23  0  0  1  0  0  0  0  0999 V2000
   21.9536  -14.2041  -20.0120 C   0  0  0  0  0  0  0  0  0  0  0  0
   23.2082  -14.8605  -19.5447 C   0  0  0  0  0  0  0  0  0  0  0  0
   22.9565  -16.1176  -18.7298 C   0  0  2  0  0  0  0  0  0  0  0  0
   22.2422  -15.7048  -17.4373 C   0  0  0  0  0  0  0  0  0  0  0  0
   24.3114  -16.6427  -18.3147 C   0  0  2  0  0  0  0  0  0  0  0  0
   25.0690  -16.9570  -19.4964 N   0  0  0  0  0  0  0  0  0  0  0  0
   24.2180  -17.8368  -17.4615 C   0  0  0  0  0  0  0  0  0  0  0  0
   23.5320  -18.8361  -17.8245 O   0  0  0  0  0  0  0  0  0  0  0  0
   24.8951  -17.8730  -16.2309 N   0  0  0  0  0  0  0  0  0  0  0  0
   24.8739  -19.1505  -15.3985 C   0  0  1  0  0  0  0  0  0  0  0  0
   26.2089  -19.2538  -14.7936 C   0  0  0  0  0  0  0  0  0  0  0  0
   27.3339  -19.9438  -15.4066 C   0  0  0  0  0  0  0  0  0  0  0  0
   27.1760  -21.2799  -16.0144 C   0  0  0  0  0  0  0  0  0  0  0  0
   28.5609  -21.6892  -16.5806 C   0  0  0  0  0  0  0  0  0  0  0  0
   28.3949  -23.0351  -17.0923 N   0  0  0  0  0  0  0  0  0  0  0  0
   23.6779  -19.0299  -14.5848 C   0  0  0  0  0  0  0  0  0  0  0  0
   23.5325  -17.9604  -13.8816 O   0  0  0  0  0  0  0  0  0  0  0  0
   22.6160  -19.9445  -14.4659 N   0  0  0  0  0  0  0  0  0  0  0  0
   21.4998  -19.7569  -13.5621 C   0  0  1  0  0  0  0  0  0  0  0  0
   20.2646  -19.7271  -14.5032 C   0  0  0  0  0  0  0  0  0  0  0  0
   20.1643  -21.3285  -15.3281 S   0  0  0  0  0  0  0  0  0  0  0  0
   21.3519  -20.8214  -12.5690 C   0  0  0  0  0  0  0  0  0  0  0  0
   20.4153  -20.8031  -11.5656 O   0  0  0  0  0  0  0  0  0  0  0  0
   22.1188  -21.8368  -12.6059 O   0  0  0  0  0  0  0  0  0  0  0  0
  1  2  1  0
  3  2  1  0
  3  4  1  1
  5  6  1  6
  5  3  1  0
  7  5  1  0
  8  7  2  0
  9  7  1  0
 10 11  1  1
 10  9  1  0
 11 12  1  0
 13 12  1  0
 13 14  1  0
 15 14  1  0
 16 10  1  0
 17 16  2  0
 18 16  1  0
 19 20  1  6
 19 18  1  0
 20 21  1  0
 22 19  1  0
 22 23  1  0
 24 22  2  0
M  END
$$$$
