IKC.pdb
     RDKit          3D

 24 23  0  0  1  0  0  0  0  0999 V2000
   15.6135  -12.0533  -16.0757 C   0  0  0  0  0  0  0  0  0  0  0  0
   16.9687  -12.2846  -16.6530 C   0  0  0  0  0  0  0  0  0  0  0  0
   18.0328  -11.3763  -16.0608 C   0  0  2  0  0  0  0  0  0  0  0  0
   17.7031   -9.9361  -16.4714 C   0  0  0  0  0  0  0  0  0  0  0  0
   19.3318  -11.7252  -16.7498 C   0  0  2  0  0  0  0  0  0  0  0  0
   19.7022  -13.0675  -16.3889 N   0  0  0  0  0  0  0  0  0  0  0  0
   20.4235  -10.8051  -16.3978 C   0  0  0  0  0  0  0  0  0  0  0  0
   21.0273  -10.9149  -15.2913 O   0  0  0  0  0  0  0  0  0  0  0  0
   20.8033   -9.7930  -17.2954 N   0  0  0  0  0  0  0  0  0  0  0  0
   21.9763   -8.8822  -16.9490 C   0  0  1  0  0  0  0  0  0  0  0  0
   22.7367   -8.7207  -18.1957 C   0  0  0  0  0  0  0  0  0  0  0  0
   23.9275   -7.8946  -18.3267 C   0  0  0  0  0  0  0  0  0  0  0  0
   24.6099   -7.7322  -19.6257 C   0  0  0  0  0  0  0  0  0  0  0  0
   25.8682   -6.8610  -19.3734 C   0  0  0  0  0  0  0  0  0  0  0  0
   26.6115   -6.8732  -20.6177 N   0  0  0  0  0  0  0  0  0  0  0  0
   21.3657   -7.7485  -16.2787 C   0  0  0  0  0  0  0  0  0  0  0  0
   20.1674   -7.4207  -16.6192 O   0  0  0  0  0  0  0  0  0  0  0  0
   21.9166   -6.9419  -15.2667 N   0  0  0  0  0  0  0  0  0  0  0  0
   21.2330   -5.7986  -14.6981 C   0  0  1  0  0  0  0  0  0  0  0  0
   20.0597   -6.4302  -13.9001 C   0  0  0  0  0  0  0  0  0  0  0  0
   20.7711   -7.4724  -12.6106 S   0  0  0  0  0  0  0  0  0  0  0  0
   22.0668   -4.9863  -13.8113 C   0  0  0  0  0  0  0  0  0  0  0  0
   21.6107   -3.8812  -13.1368 O   0  0  0  0  0  0  0  0  0  0  0  0
   23.2896   -5.2913  -13.6322 O   0  0  0  0  0  0  0  0  0  0  0  0
  1  2  1  0
  3  2  1  0
  3  4  1  6
  5  6  1  1
  5  3  1  0
  7  5  1  0
  8  7  2  0
  9  7  1  0
 10 11  1  6
 10  9  1  0
 11 12  1  0
 13 12  1  0
 13 14  1  0
 15 14  1  0
 16 10  1  0
 17 16  2  0
 18 16  1  0
 19 20  1  1
 19 18  1  0
 20 21  1  0
 22 19  1  0
 22 23  1  0
 24 22  2  0
M  END
$$$$
