IKC.pdb
     RDKit          3D

 24 23  0  0  1  0  0  0  0  0999 V2000
   22.4357  -20.5856   -8.2285 C   0  0  0  0  0  0  0  0  0  0  0  0
   23.8029  -20.9914   -8.6638 C   0  0  0  0  0  0  0  0  0  0  0  0
   24.2204  -20.3632   -9.9825 C   0  0  2  0  0  0  0  0  0  0  0  0
   23.2710  -20.8792  -11.0705 C   0  0  0  0  0  0  0  0  0  0  0  0
   25.5856  -20.9203  -10.3141 C   0  0  2  0  0  0  0  0  0  0  0  0
   26.5069  -20.5375   -9.2778 N   0  0  0  0  0  0  0  0  0  0  0  0
   26.0880  -20.4499  -11.6136 C   0  0  0  0  0  0  0  0  0  0  0  0
   26.5352  -19.2734  -11.7440 O   0  0  0  0  0  0  0  0  0  0  0  0
   26.0734  -21.3111  -12.7236 N   0  0  0  0  0  0  0  0  0  0  0  0
   26.5425  -20.7969  -14.0804 C   0  0  1  0  0  0  0  0  0  0  0  0
   27.3511  -21.8789  -14.6585 C   0  0  0  0  0  0  0  0  0  0  0  0
   27.8795  -21.8708  -16.0143 C   0  0  0  0  0  0  0  0  0  0  0  0
   28.6068  -23.0331  -16.5615 C   0  0  0  0  0  0  0  0  0  0  0  0
   29.0504  -22.6570  -17.9996 C   0  0  0  0  0  0  0  0  0  0  0  0
   29.7940  -23.7988  -18.4936 N   0  0  0  0  0  0  0  0  0  0  0  0
   25.3302  -20.3260  -14.7253 C   0  0  0  0  0  0  0  0  0  0  0  0
   24.2557  -21.0189  -14.5684 O   0  0  0  0  0  0  0  0  0  0  0  0
   25.1605  -19.1726  -15.5122 N   0  0  0  0  0  0  0  0  0  0  0  0
   23.9237  -18.8462  -16.1916 C   0  0  1  0  0  0  0  0  0  0  0  0
   24.1855  -17.4300  -16.7732 C   0  0  0  0  0  0  0  0  0  0  0  0
   22.6830  -16.8972  -17.6180 S   0  0  0  0  0  0  0  0  0  0  0  0
   23.5708  -19.7753  -17.2657 C   0  0  0  0  0  0  0  0  0  0  0  0
   24.4654  -20.2367  -18.1991 O   0  0  0  0  0  0  0  0  0  0  0  0
   22.3756  -20.2000  -17.3721 O   0  0  0  0  0  0  0  0  0  0  0  0
  1  2  1  0
  3  2  1  0
  3  4  1  6
  5  6  1  1
  5  3  1  0
  7  5  1  0
  8  7  2  0
  9  7  1  0
 10 11  1  6
 10  9  1  0
 11 12  1  0
 13 12  1  0
 13 14  1  0
 15 14  1  0
 16 10  1  0
 17 16  2  0
 18 16  1  0
 19 20  1  6
 19 18  1  0
 20 21  1  0
 22 19  1  0
 22 23  1  0
 24 22  2  0
M  END
$$$$
