FSP.pdb
     RDKit          3D

 25 26  0  0  1  0  0  0  0  0999 V2000
   16.1673  -11.1796  -15.7063 N   0  0  0  0  0  0  0  0  0  0  0  0
   16.9351  -10.3533  -16.5831 C   0  0  1  0  0  0  0  0  0  0  0  0
   16.0414   -9.2829  -17.1560 C   0  0  0  0  0  0  0  0  0  0  0  0
   15.0648   -9.9387  -18.0447 C   0  0  0  0  0  0  0  0  0  0  0  0
   13.7364  -10.0213  -17.7148 C   0  0  0  0  0  0  0  0  0  0  0  0
   12.8111  -10.6449  -18.5612 C   0  0  0  0  0  0  0  0  0  0  0  0
   13.2517  -11.1887  -19.7563 C   0  0  0  0  0  0  0  0  0  0  0  0
   14.5865  -11.1093  -20.0947 C   0  0  0  0  0  0  0  0  0  0  0  0
   15.4907  -10.4801  -19.2301 C   0  0  0  0  0  0  0  0  0  0  0  0
   18.1573   -9.8085  -15.9522 C   0  0  0  0  0  0  0  0  0  0  0  0
   18.0518   -9.2969  -14.8083 O   0  0  0  0  0  0  0  0  0  0  0  0
   22.1073  -11.1639  -16.3699 O   0  0  0  0  0  0  0  0  0  0  0  0
   21.8561   -9.8261  -16.6751 C   0  0  0  0  0  0  0  0  0  0  0  0
   20.6418   -9.3091  -15.9249 C   0  0  2  0  0  0  0  0  0  0  0  0
   19.4339   -9.8342  -16.5691 N   0  0  0  0  0  0  0  0  0  0  0  0
   20.5938   -7.8327  -15.8806 C   0  0  0  0  0  0  0  0  0  0  0  0
   20.2115   -7.1707  -16.9088 O   0  0  0  0  0  0  0  0  0  0  0  0
   20.9524   -7.0641  -14.7350 N   0  0  0  0  0  0  0  0  0  0  0  0
   21.2138   -7.5380  -13.4059 C   0  0  0  0  0  0  0  0  0  0  0  0
   22.4141   -6.6702  -12.9910 C   0  0  0  0  0  0  0  0  0  0  0  0
   21.8201   -5.3138  -13.3843 C   0  0  0  0  0  0  0  0  0  0  0  0
   21.1268   -5.6046  -14.7164 C   0  0  1  0  0  0  0  0  0  0  0  0
   22.0194   -5.2003  -15.8376 C   0  0  0  0  0  0  0  0  0  0  0  0
   22.0464   -3.9041  -16.2878 O   0  0  0  0  0  0  0  0  0  0  0  0
   22.7520   -6.0617  -16.3740 O   0  0  0  0  0  0  0  0  0  0  0  0
  2  1  1  1
  2 10  1  0
  3  2  1  0
  4  5  2  0
  4  3  1  0
  6  5  1  0
  7  6  2  0
  8  7  1  0
  8  9  2  0
  9  4  1  0
 10 15  1  0
 10 11  2  0
 13 12  1  0
 14 13  1  6
 15 14  1  0
 16 14  1  0
 16 17  2  0
 18 16  1  0
 19 18  1  0
 20 19  1  0
 20 21  1  0
 21 22  1  0
 22 18  1  0
 22 23  1  6
 24 23  1  0
 25 23  2  0
M  END
$$$$
