FSP.pdb
     RDKit          3D

 25 26  0  0  1  0  0  0  0  0999 V2000
   22.6871  -11.8705  -19.9258 N   0  0  0  0  0  0  0  0  0  0  0  0
   21.6525  -11.4026  -19.0589 C   0  0  1  0  0  0  0  0  0  0  0  0
   21.5402  -12.3365  -17.8808 C   0  0  0  0  0  0  0  0  0  0  0  0
   21.0774  -13.6430  -18.3833 C   0  0  0  0  0  0  0  0  0  0  0  0
   21.9304  -14.7104  -18.4996 C   0  0  0  0  0  0  0  0  0  0  0  0
   21.4877  -15.9503  -18.9773 C   0  0  0  0  0  0  0  0  0  0  0  0
   20.1588  -16.0970  -19.3390 C   0  0  0  0  0  0  0  0  0  0  0  0
   19.2952  -15.0277  -19.2246 C   0  0  0  0  0  0  0  0  0  0  0  0
   19.7639  -13.7987  -18.7439 C   0  0  0  0  0  0  0  0  0  0  0  0
   21.8187   -9.9877  -18.6604 C   0  0  0  0  0  0  0  0  0  0  0  0
   22.9594   -9.6105  -18.2890 O   0  0  0  0  0  0  0  0  0  0  0  0
   18.5861   -7.2441  -18.5850 O   0  0  0  0  0  0  0  0  0  0  0  0
   19.8652   -6.8028  -18.9244 C   0  0  0  0  0  0  0  0  0  0  0  0
   20.9344   -7.6476  -18.2550 C   0  0  2  0  0  0  0  0  0  0  0  0
   20.7627   -9.0414  -18.6762 N   0  0  0  0  0  0  0  0  0  0  0  0
   20.8865   -7.5520  -16.7810 C   0  0  0  0  0  0  0  0  0  0  0  0
   20.0709   -8.2825  -16.1156 O   0  0  0  0  0  0  0  0  0  0  0  0
   21.7133   -6.6766  -16.0183 N   0  0  0  0  0  0  0  0  0  0  0  0
   22.7802   -5.8416  -16.4917 C   0  0  0  0  0  0  0  0  0  0  0  0
   22.5663   -4.5590  -15.6699 C   0  0  0  0  0  0  0  0  0  0  0  0
   22.4591   -5.2239  -14.2938 C   0  0  0  0  0  0  0  0  0  0  0  0
   21.6105   -6.4668  -14.5670 C   0  0  1  0  0  0  0  0  0  0  0  0
   20.1927   -6.1868  -14.2085 C   0  0  0  0  0  0  0  0  0  0  0  0
   19.7440   -6.3465  -12.9214 O   0  0  0  0  0  0  0  0  0  0  0  0
   19.4034   -5.8020  -15.1004 O   0  0  0  0  0  0  0  0  0  0  0  0
  2  1  1  1
  2 10  1  0
  3  2  1  0
  4  5  2  0
  4  3  1  0
  6  5  1  0
  7  6  2  0
  8  7  1  0
  8  9  2  0
  9  4  1  0
 10 15  1  0
 10 11  2  0
 13 12  1  0
 14 13  1  6
 15 14  1  0
 16 14  1  0
 16 17  2  0
 18 16  1  0
 19 18  1  0
 20 19  1  0
 20 21  1  0
 21 22  1  0
 22 18  1  0
 22 23  1  6
 24 23  1  0
 25 23  2  0
M  END
$$$$
