FSP.pdb
     RDKit          3D

 25 26  0  0  1  0  0  0  0  0999 V2000
   21.4283  -19.6343  -17.3741 N   0  0  0  0  0  0  0  0  0  0  0  0
   22.1794  -18.8059  -16.4849 C   0  0  1  0  0  0  0  0  0  0  0  0
   21.2435  -18.2021  -15.4690 C   0  0  0  0  0  0  0  0  0  0  0  0
   20.4175  -17.1946  -16.1593 C   0  0  0  0  0  0  0  0  0  0  0  0
   19.0555  -17.3241  -16.2515 C   0  0  0  0  0  0  0  0  0  0  0  0
   18.2736  -16.3654  -16.9079 C   0  0  0  0  0  0  0  0  0  0  0  0
   18.8936  -15.2642  -17.4748 C   0  0  0  0  0  0  0  0  0  0  0  0
   20.2632  -15.1274  -17.3859 C   0  0  0  0  0  0  0  0  0  0  0  0
   21.0215  -16.1009  -16.7237 C   0  0  0  0  0  0  0  0  0  0  0  0
   23.3297  -19.5023  -15.8683 C   0  0  0  0  0  0  0  0  0  0  0  0
   23.1703  -20.6959  -15.5059 O   0  0  0  0  0  0  0  0  0  0  0  0
   28.0061  -19.2951  -14.3817 O   0  0  0  0  0  0  0  0  0  0  0  0
   26.9553  -18.7610  -15.1278 C   0  0  0  0  0  0  0  0  0  0  0  0
   25.6639  -19.5201  -14.8813 C   0  0  2  0  0  0  0  0  0  0  0  0
   24.5952  -18.8949  -15.6667 N   0  0  0  0  0  0  0  0  0  0  0  0
   25.2929  -19.5507  -13.4511 C   0  0  0  0  0  0  0  0  0  0  0  0
   24.8806  -18.4853  -12.8710 O   0  0  0  0  0  0  0  0  0  0  0  0
   25.3605  -20.7220  -12.6418 N   0  0  0  0  0  0  0  0  0  0  0  0
   25.6356  -22.0661  -13.0629 C   0  0  0  0  0  0  0  0  0  0  0  0
   26.5433  -22.5732  -11.9294 C   0  0  0  0  0  0  0  0  0  0  0  0
   25.6556  -22.1389  -10.7587 C   0  0  0  0  0  0  0  0  0  0  0  0
   25.1577  -20.7573  -11.1863 C   0  0  1  0  0  0  0  0  0  0  0  0
   25.9982  -19.7082  -10.5458 C   0  0  0  0  0  0  0  0  0  0  0  0
   25.7207  -19.2547   -9.2805 O   0  0  0  0  0  0  0  0  0  0  0  0
   26.9699  -19.2362  -11.1779 O   0  0  0  0  0  0  0  0  0  0  0  0
  2  1  1  1
  2 10  1  0
  3  2  1  0
  4  5  2  0
  4  3  1  0
  6  5  1  0
  7  6  2  0
  8  7  1  0
  8  9  2  0
  9  4  1  0
 10 15  1  0
 10 11  2  0
 13 12  1  0
 14 13  1  1
 15 14  1  0
 16 14  1  0
 16 17  2  0
 18 16  1  0
 19 18  1  0
 20 19  1  0
 20 21  1  0
 21 22  1  0
 22 18  1  0
 22 23  1  1
 24 23  1  0
 25 23  2  0
M  END
$$$$
