FSP.pdb
     RDKit          3D

 25 26  0  0  1  0  0  0  0  0999 V2000
   24.8398  -19.8470  -14.7495 N   0  0  0  0  0  0  0  0  0  0  0  0
   24.3633  -20.9340  -13.9543 C   0  0  1  0  0  0  0  0  0  0  0  0
   25.5431  -21.6652  -13.3659 C   0  0  0  0  0  0  0  0  0  0  0  0
   26.3225  -22.2345  -14.4804 C   0  0  0  0  0  0  0  0  0  0  0  0
   25.9785  -23.4284  -15.0606 C   0  0  0  0  0  0  0  0  0  0  0  0
   26.7211  -23.9667  -16.1191 C   0  0  0  0  0  0  0  0  0  0  0  0
   27.8259  -23.2747  -16.5868 C   0  0  0  0  0  0  0  0  0  0  0  0
   28.1778  -22.0732  -16.0080 C   0  0  0  0  0  0  0  0  0  0  0  0
   27.4179  -21.5574  -14.9507 C   0  0  0  0  0  0  0  0  0  0  0  0
   23.3722  -20.5231  -12.9360 C   0  0  0  0  0  0  0  0  0  0  0  0
   23.5612  -19.4344  -12.3357 O   0  0  0  0  0  0  0  0  0  0  0  0
   20.0298  -19.4895  -13.2039 O   0  0  0  0  0  0  0  0  0  0  0  0
   20.7488  -19.4635  -12.0088 C   0  0  0  0  0  0  0  0  0  0  0  0
   21.2284  -20.8518  -11.6248 C   0  0  2  0  0  0  0  0  0  0  0  0
   22.2267  -21.2908  -12.6048 N   0  0  0  0  0  0  0  0  0  0  0  0
   20.1225  -21.8295  -11.5524 C   0  0  0  0  0  0  0  0  0  0  0  0
   19.4406  -22.1077  -12.6009 O   0  0  0  0  0  0  0  0  0  0  0  0
   19.7476  -22.5119  -10.3585 N   0  0  0  0  0  0  0  0  0  0  0  0
   20.3887  -22.4548   -9.0758 C   0  0  0  0  0  0  0  0  0  0  0  0
   19.1832  -22.4263   -8.1208 C   0  0  0  0  0  0  0  0  0  0  0  0
   18.4298  -23.6177   -8.7210 C   0  0  0  0  0  0  0  0  0  0  0  0
   18.5985  -23.4194  -10.2282 C   0  0  1  0  0  0  0  0  0  0  0  0
   17.3834  -22.7587  -10.7797 C   0  0  0  0  0  0  0  0  0  0  0  0
   16.2306  -23.4698  -11.0008 O   0  0  0  0  0  0  0  0  0  0  0  0
   17.4221  -21.5361  -11.0449 O   0  0  0  0  0  0  0  0  0  0  0  0
  2  1  1  1
  2 10  1  0
  3  2  1  0
  4  5  2  0
  4  3  1  0
  6  5  1  0
  7  6  2  0
  8  7  1  0
  8  9  2  0
  9  4  1  0
 10 15  1  0
 10 11  2  0
 13 12  1  0
 14 13  1  6
 15 14  1  0
 16 14  1  0
 16 17  2  0
 18 16  1  0
 19 18  1  0
 20 19  1  0
 20 21  1  0
 21 22  1  0
 22 18  1  0
 22 23  1  1
 24 23  1  0
 25 23  2  0
M  END
$$$$
