FSP.pdb
     RDKit          3D

 25 26  0  0  1  0  0  0  0  0999 V2000
   23.2581  -21.0665  -18.2788 N   0  0  0  0  0  0  0  0  0  0  0  0
   23.1825  -20.2022  -17.1437 C   0  0  1  0  0  0  0  0  0  0  0  0
   21.8559  -20.4083  -16.4580 C   0  0  0  0  0  0  0  0  0  0  0  0
   20.8554  -19.5769  -17.1518 C   0  0  0  0  0  0  0  0  0  0  0  0
   20.0242  -20.1020  -18.1076 C   0  0  0  0  0  0  0  0  0  0  0  0
   19.0747  -19.3096  -18.7650 C   0  0  0  0  0  0  0  0  0  0  0  0
   18.9768  -17.9669  -18.4395 C   0  0  0  0  0  0  0  0  0  0  0  0
   19.8096  -17.4319  -17.4790 C   0  0  0  0  0  0  0  0  0  0  0  0
   20.7504  -18.2467  -16.8369 C   0  0  0  0  0  0  0  0  0  0  0  0
   24.3345  -20.3399  -16.2260 C   0  0  0  0  0  0  0  0  0  0  0  0
   24.8011  -21.4920  -16.0351 O   0  0  0  0  0  0  0  0  0  0  0  0
   27.5815  -17.8437  -15.5446 O   0  0  0  0  0  0  0  0  0  0  0  0
   26.7502  -18.0778  -14.4491 C   0  0  0  0  0  0  0  0  0  0  0  0
   26.0223  -19.4032  -14.5838 C   0  0  2  0  0  0  0  0  0  0  0  0
   24.9354  -19.2446  -15.5550 N   0  0  0  0  0  0  0  0  0  0  0  0
   25.4855  -19.8844  -13.2937 C   0  0  0  0  0  0  0  0  0  0  0  0
   24.4002  -19.3908  -12.8246 O   0  0  0  0  0  0  0  0  0  0  0  0
   26.1086  -20.8961  -12.5063 N   0  0  0  0  0  0  0  0  0  0  0  0
   27.2751  -21.6669  -12.8297 C   0  0  0  0  0  0  0  0  0  0  0  0
   28.0047  -21.7190  -11.4765 C   0  0  0  0  0  0  0  0  0  0  0  0
   26.8110  -22.1680  -10.6277 C   0  0  0  0  0  0  0  0  0  0  0  0
   25.6518  -21.3372  -11.1806 C   0  0  1  0  0  0  0  0  0  0  0  0
   25.4373  -20.1471  -10.3118 C   0  0  0  0  0  0  0  0  0  0  0  0
   24.6165  -20.2119   -9.2138 O   0  0  0  0  0  0  0  0  0  0  0  0
   26.0162  -19.0741  -10.5947 O   0  0  0  0  0  0  0  0  0  0  0  0
  2  1  1  6
  2 10  1  0
  3  2  1  0
  4  5  2  0
  4  3  1  0
  6  5  1  0
  7  6  2  0
  8  7  1  0
  8  9  2  0
  9  4  1  0
 10 15  1  0
 10 11  2  0
 13 12  1  0
 14 13  1  1
 15 14  1  0
 16 14  1  0
 16 17  2  0
 18 16  1  0
 19 18  1  0
 20 19  1  0
 20 21  1  0
 21 22  1  0
 22 18  1  0
 22 23  1  1
 24 23  1  0
 25 23  2  0
M  END
$$$$
