FSP.pdb
     RDKit          3D

 25 26  0  0  1  0  0  0  0  0999 V2000
   22.1939  -10.9874  -15.1097 N   0  0  0  0  0  0  0  0  0  0  0  0
   21.7484   -9.7975  -14.4565 C   0  0  1  0  0  0  0  0  0  0  0  0
   22.8640   -9.2647  -13.5938 C   0  0  0  0  0  0  0  0  0  0  0  0
   24.0577   -9.1094  -14.4451 C   0  0  0  0  0  0  0  0  0  0  0  0
   25.0332  -10.0718  -14.4959 C   0  0  0  0  0  0  0  0  0  0  0  0
   26.1660   -9.9212  -15.3056 C   0  0  0  0  0  0  0  0  0  0  0  0
   26.2998   -8.7739  -16.0697 C   0  0  0  0  0  0  0  0  0  0  0  0
   25.3226   -7.8016  -16.0235 C   0  0  0  0  0  0  0  0  0  0  0  0
   24.1997   -7.9774  -15.2053 C   0  0  0  0  0  0  0  0  0  0  0  0
   21.2067   -8.7858  -15.3900 C   0  0  0  0  0  0  0  0  0  0  0  0
   21.5104   -8.8842  -16.6063 O   0  0  0  0  0  0  0  0  0  0  0  0
   18.0029   -6.5335  -14.3631 O   0  0  0  0  0  0  0  0  0  0  0  0
   18.3231   -6.6389  -15.7168 C   0  0  0  0  0  0  0  0  0  0  0  0
   19.8246   -6.7291  -15.9218 C   0  0  2  0  0  0  0  0  0  0  0  0
   20.3673   -7.7172  -14.9843 N   0  0  0  0  0  0  0  0  0  0  0  0
   20.4977   -5.4268  -15.7344 C   0  0  0  0  0  0  0  0  0  0  0  0
   20.8536   -5.0497  -14.5628 O   0  0  0  0  0  0  0  0  0  0  0  0
   20.7926   -4.5287  -16.8012 N   0  0  0  0  0  0  0  0  0  0  0  0
   20.5835   -4.7346  -18.2060 C   0  0  0  0  0  0  0  0  0  0  0  0
   20.0793   -3.3530  -18.6565 C   0  0  0  0  0  0  0  0  0  0  0  0
   21.1856   -2.5184  -18.0032 C   0  0  0  0  0  0  0  0  0  0  0  0
   21.3775   -3.1896  -16.6422 C   0  0  1  0  0  0  0  0  0  0  0  0
   20.6147   -2.4380  -15.6076 C   0  0  0  0  0  0  0  0  0  0  0  0
   21.1457   -1.3235  -15.0080 O   0  0  0  0  0  0  0  0  0  0  0  0
   19.4731   -2.8358  -15.2837 O   0  0  0  0  0  0  0  0  0  0  0  0
  2  1  1  6
  2 10  1  0
  3  2  1  0
  4  5  2  0
  4  3  1  0
  6  5  1  0
  7  6  2  0
  8  7  1  0
  8  9  2  0
  9  4  1  0
 10 15  1  0
 10 11  2  0
 13 12  1  0
 14 13  1  1
 15 14  1  0
 16 14  1  0
 16 17  2  0
 18 16  1  0
 19 18  1  0
 20 19  1  0
 20 21  1  0
 21 22  1  0
 22 18  1  0
 22 23  1  1
 24 23  1  0
 25 23  2  0
M  END
$$$$
