FSP.pdb
     RDKit          3D

 25 26  0  0  1  0  0  0  0  0999 V2000
   23.8836  -13.8056  -15.0794 N   0  0  0  0  0  0  0  0  0  0  0  0
   24.0371  -12.4088  -15.3368 C   0  0  1  0  0  0  0  0  0  0  0  0
   24.9214  -12.2269  -16.5441 C   0  0  0  0  0  0  0  0  0  0  0  0
   26.2680  -12.7150  -16.1947 C   0  0  0  0  0  0  0  0  0  0  0  0
   27.2394  -11.8679  -15.7267 C   0  0  0  0  0  0  0  0  0  0  0  0
   28.5177  -12.3346  -15.3956 C   0  0  0  0  0  0  0  0  0  0  0  0
   28.8025  -13.6818  -15.5456 C   0  0  0  0  0  0  0  0  0  0  0  0
   27.8302  -14.5397  -16.0158 C   0  0  0  0  0  0  0  0  0  0  0  0
   26.5600  -14.0467  -16.3396 C   0  0  0  0  0  0  0  0  0  0  0  0
   22.7491  -11.6901  -15.4509 C   0  0  0  0  0  0  0  0  0  0  0  0
   21.6970  -12.3750  -15.5242 O   0  0  0  0  0  0  0  0  0  0  0  0
   21.1917   -9.3072  -13.1690 O   0  0  0  0  0  0  0  0  0  0  0  0
   20.5727   -9.8668  -14.2870 C   0  0  0  0  0  0  0  0  0  0  0  0
   21.3568   -9.5751  -15.5538 C   0  0  2  0  0  0  0  0  0  0  0  0
   22.6423  -10.2764  -15.4816 N   0  0  0  0  0  0  0  0  0  0  0  0
   21.5774   -8.1282  -15.7587 C   0  0  0  0  0  0  0  0  0  0  0  0
   22.2929   -7.4632  -14.9296 O   0  0  0  0  0  0  0  0  0  0  0  0
   21.0346   -7.3930  -16.8526 N   0  0  0  0  0  0  0  0  0  0  0  0
   20.2197   -7.8876  -17.9254 C   0  0  0  0  0  0  0  0  0  0  0  0
   19.1938   -6.7536  -18.0919 C   0  0  0  0  0  0  0  0  0  0  0  0
   20.1927   -5.5936  -18.1541 C   0  0  0  0  0  0  0  0  0  0  0  0
   21.2177   -5.9518  -17.0769 C   0  0  1  0  0  0  0  0  0  0  0  0
   20.8979   -5.2132  -15.8241 C   0  0  0  0  0  0  0  0  0  0  0  0
   21.2663   -3.9010  -15.6632 O   0  0  0  0  0  0  0  0  0  0  0  0
   20.2851   -5.8054  -14.9075 O   0  0  0  0  0  0  0  0  0  0  0  0
  2  1  1  6
  2 10  1  0
  3  2  1  0
  4  5  2  0
  4  3  1  0
  6  5  1  0
  7  6  2  0
  8  7  1  0
  8  9  2  0
  9  4  1  0
 10 15  1  0
 10 11  2  0
 13 12  1  0
 14 13  1  1
 15 14  1  0
 16 14  1  0
 16 17  2  0
 18 16  1  0
 19 18  1  0
 20 19  1  0
 20 21  1  0
 21 22  1  0
 22 18  1  0
 22 23  1  1
 24 23  1  0
 25 23  2  0
M  END
$$$$
