FSP.pdb
     RDKit          3D

 25 26  0  0  1  0  0  0  0  0999 V2000
   25.7503  -16.2227  -18.3620 N   0  0  0  0  0  0  0  0  0  0  0  0
   25.3795  -17.5985  -18.2584 C   0  0  1  0  0  0  0  0  0  0  0  0
   26.4670  -18.4466  -18.8672 C   0  0  0  0  0  0  0  0  0  0  0  0
   26.1696  -18.5991  -20.3032 C   0  0  0  0  0  0  0  0  0  0  0  0
   25.0433  -19.2493  -20.7378 C   0  0  0  0  0  0  0  0  0  0  0  0
   24.7636  -19.3926  -22.1026 C   0  0  0  0  0  0  0  0  0  0  0  0
   25.6465  -18.8645  -23.0299 C   0  0  0  0  0  0  0  0  0  0  0  0
   26.7815  -18.2092  -22.6000 C   0  0  0  0  0  0  0  0  0  0  0  0
   27.0372  -18.0800  -21.2292 C   0  0  0  0  0  0  0  0  0  0  0  0
   25.0310  -18.0080  -16.8803 C   0  0  0  0  0  0  0  0  0  0  0  0
   25.8094  -17.6723  -15.9514 O   0  0  0  0  0  0  0  0  0  0  0  0
   21.7476  -19.2990  -13.6168 O   0  0  0  0  0  0  0  0  0  0  0  0
   22.1177  -18.8469  -14.8836 C   0  0  0  0  0  0  0  0  0  0  0  0
   23.5617  -19.1988  -15.1933 C   0  0  2  0  0  0  0  0  0  0  0  0
   23.8703  -18.7556  -16.5564 N   0  0  0  0  0  0  0  0  0  0  0  0
   23.8307  -20.6454  -15.0555 C   0  0  0  0  0  0  0  0  0  0  0  0
   23.2836  -21.4804  -15.8587 O   0  0  0  0  0  0  0  0  0  0  0  0
   24.6875  -21.1988  -14.0599 N   0  0  0  0  0  0  0  0  0  0  0  0
   25.4786  -20.4944  -13.0916 C   0  0  0  0  0  0  0  0  0  0  0  0
   25.2942  -21.3664  -11.8380 C   0  0  0  0  0  0  0  0  0  0  0  0
   25.6204  -22.7149  -12.4877 C   0  0  0  0  0  0  0  0  0  0  0  0
   24.9137  -22.6348  -13.8419 C   0  0  1  0  0  0  0  0  0  0  0  0
   23.6014  -23.3334  -13.7575 C   0  0  0  0  0  0  0  0  0  0  0  0
   23.5252  -24.7030  -13.8045 O   0  0  0  0  0  0  0  0  0  0  0  0
   22.5561  -22.6546  -13.6440 O   0  0  0  0  0  0  0  0  0  0  0  0
  2  1  1  1
  2 10  1  0
  3  2  1  0
  4  5  2  0
  4  3  1  0
  6  5  1  0
  7  6  2  0
  8  7  1  0
  8  9  2  0
  9  4  1  0
 10 15  1  0
 10 11  2  0
 13 12  1  0
 14 13  1  6
 15 14  1  0
 16 14  1  0
 16 17  2  0
 18 16  1  0
 19 18  1  0
 20 19  1  0
 20 21  1  0
 21 22  1  0
 22 18  1  0
 22 23  1  1
 24 23  1  0
 25 23  2  0
M  END
$$$$
