FSP.pdb
     RDKit          3D

 25 26  0  0  1  0  0  0  0  0999 V2000
   26.5076  -21.5709   -7.6941 N   0  0  0  0  0  0  0  0  0  0  0  0
   26.7145  -20.4224   -8.5182 C   0  0  1  0  0  0  0  0  0  0  0  0
   27.9422  -19.6901   -8.0395 C   0  0  0  0  0  0  0  0  0  0  0  0
   27.8365  -19.5405   -6.5766 C   0  0  0  0  0  0  0  0  0  0  0  0
   26.6197  -19.4779   -5.9476 C   0  0  0  0  0  0  0  0  0  0  0  0
   26.5226  -19.3357   -4.5577 C   0  0  0  0  0  0  0  0  0  0  0  0
   27.6833  -19.2570   -3.8061 C   0  0  0  0  0  0  0  0  0  0  0  0
   28.9108  -19.3194   -4.4321 C   0  0  0  0  0  0  0  0  0  0  0  0
   28.9795  -19.4618   -5.8236 C   0  0  0  0  0  0  0  0  0  0  0  0
   26.7576  -20.7393   -9.9625 C   0  0  0  0  0  0  0  0  0  0  0  0
   27.4390  -21.7310  -10.3280 O   0  0  0  0  0  0  0  0  0  0  0  0
   26.5797  -22.1334  -13.7883 O   0  0  0  0  0  0  0  0  0  0  0  0
   25.8431  -21.6299  -12.7159 C   0  0  0  0  0  0  0  0  0  0  0  0
   26.2524  -20.2052  -12.3879 C   0  0  2  0  0  0  0  0  0  0  0  0
   26.0731  -19.9852  -10.9495 N   0  0  0  0  0  0  0  0  0  0  0  0
   25.4794  -19.2066  -13.1555 C   0  0  0  0  0  0  0  0  0  0  0  0
   24.1986  -19.2372  -13.1434 O   0  0  0  0  0  0  0  0  0  0  0  0
   26.0768  -18.1729  -13.9342 N   0  0  0  0  0  0  0  0  0  0  0  0
   27.4725  -17.8644  -14.0619 C   0  0  0  0  0  0  0  0  0  0  0  0
   27.5886  -17.5393  -15.5609 C   0  0  0  0  0  0  0  0  0  0  0  0
   26.4175  -16.5546  -15.6388 C   0  0  0  0  0  0  0  0  0  0  0  0
   25.3430  -17.2143  -14.7730 C   0  0  1  0  0  0  0  0  0  0  0  0
   24.3884  -17.9524  -15.6455 C   0  0  0  0  0  0  0  0  0  0  0  0
   24.6602  -19.2291  -16.0696 O   0  0  0  0  0  0  0  0  0  0  0  0
   23.3248  -17.3928  -15.9947 O   0  0  0  0  0  0  0  0  0  0  0  0
  2  1  1  1
  2 10  1  0
  3  2  1  0
  4  5  2  0
  4  3  1  0
  6  5  1  0
  7  6  2  0
  8  7  1  0
  8  9  2  0
  9  4  1  0
 10 15  1  0
 10 11  2  0
 13 12  1  0
 14 13  1  6
 15 14  1  0
 16 14  1  0
 16 17  2  0
 18 16  1  0
 19 18  1  0
 20 19  1  0
 20 21  1  0
 21 22  1  0
 22 18  1  0
 22 23  1  6
 24 23  1  0
 25 23  2  0
M  END
$$$$
