FSP.pdb
     RDKit          3D

 25 26  0  0  1  0  0  0  0  0999 V2000
   19.9548  -19.9557  -13.2157 N   0  0  0  0  0  0  0  0  0  0  0  0
   20.9801  -20.2958  -14.1505 C   0  0  1  0  0  0  0  0  0  0  0  0
   20.8603  -19.4000  -15.3571 C   0  0  0  0  0  0  0  0  0  0  0  0
   20.0684  -20.1162  -16.3738 C   0  0  0  0  0  0  0  0  0  0  0  0
   20.6461  -21.0200  -17.2280 C   0  0  0  0  0  0  0  0  0  0  0  0
   19.8912  -21.6987  -18.1928 C   0  0  0  0  0  0  0  0  0  0  0  0
   18.5319  -21.4485  -18.2826 C   0  0  0  0  0  0  0  0  0  0  0  0
   17.9440  -20.5406  -17.4267 C   0  0  0  0  0  0  0  0  0  0  0  0
   18.7222  -19.8756  -16.4709 C   0  0  0  0  0  0  0  0  0  0  0  0
   22.3361  -20.2897  -13.5592 C   0  0  0  0  0  0  0  0  0  0  0  0
   22.6930  -19.2707  -12.9144 O   0  0  0  0  0  0  0  0  0  0  0  0
   26.5194  -22.5347  -12.5070 O   0  0  0  0  0  0  0  0  0  0  0  0
   25.1530  -22.5710  -12.7858 C   0  0  0  0  0  0  0  0  0  0  0  0
   24.6730  -21.2496  -13.3588 C   0  0  2  0  0  0  0  0  0  0  0  0
   23.2479  -21.3688  -13.6822 N   0  0  0  0  0  0  0  0  0  0  0  0
   25.4351  -20.8464  -14.5591 C   0  0  0  0  0  0  0  0  0  0  0  0
   25.2285  -21.4335  -15.6790 O   0  0  0  0  0  0  0  0  0  0  0  0
   26.4166  -19.8129  -14.5620 N   0  0  0  0  0  0  0  0  0  0  0  0
   26.7549  -18.9197  -13.4909 C   0  0  0  0  0  0  0  0  0  0  0  0
   28.2873  -18.8537  -13.6063 C   0  0  0  0  0  0  0  0  0  0  0  0
   28.3580  -18.5584  -15.1080 C   0  0  0  0  0  0  0  0  0  0  0  0
   27.2846  -19.4739  -15.6989 C   0  0  1  0  0  0  0  0  0  0  0  0
   27.9234  -20.7146  -16.2186 C   0  0  0  0  0  0  0  0  0  0  0  0
   28.4427  -20.7641  -17.4880 O   0  0  0  0  0  0  0  0  0  0  0  0
   27.9823  -21.7242  -15.4813 O   0  0  0  0  0  0  0  0  0  0  0  0
  2  1  1  1
  2 10  1  0
  3  2  1  0
  4  5  2  0
  4  3  1  0
  6  5  1  0
  7  6  2  0
  8  7  1  0
  8  9  2  0
  9  4  1  0
 10 15  1  0
 10 11  2  0
 13 12  1  0
 14 13  1  6
 15 14  1  0
 16 14  1  0
 16 17  2  0
 18 16  1  0
 19 18  1  0
 20 19  1  0
 20 21  1  0
 21 22  1  0
 22 18  1  0
 22 23  1  1
 24 23  1  0
 25 23  2  0
M  END
$$$$
