FSP.pdb
     RDKit          3D

 25 26  0  0  1  0  0  0  0  0999 V2000
   26.1567   -7.4869  -18.7976 N   0  0  0  0  0  0  0  0  0  0  0  0
   25.4932   -6.5229  -17.9781 C   0  0  1  0  0  0  0  0  0  0  0  0
   25.4980   -5.1916  -18.6853 C   0  0  0  0  0  0  0  0  0  0  0  0
   26.8925   -4.7163  -18.7428 C   0  0  0  0  0  0  0  0  0  0  0  0
   27.5150   -4.1835  -17.6433 C   0  0  0  0  0  0  0  0  0  0  0  0
   28.8398   -3.7328  -17.7010 C   0  0  0  0  0  0  0  0  0  0  0  0
   29.5323   -3.8293  -18.8966 C   0  0  0  0  0  0  0  0  0  0  0  0
   28.9125   -4.3642  -20.0066 C   0  0  0  0  0  0  0  0  0  0  0  0
   27.5868   -4.8074  -19.9214 C   0  0  0  0  0  0  0  0  0  0  0  0
   24.1407   -6.9471  -17.5548 C   0  0  0  0  0  0  0  0  0  0  0  0
   23.4100   -7.5186  -18.4038 O   0  0  0  0  0  0  0  0  0  0  0  0
   22.6233   -6.0709  -13.7297 O   0  0  0  0  0  0  0  0  0  0  0  0
   22.2684   -7.2857  -14.3166 C   0  0  0  0  0  0  0  0  0  0  0  0
   22.2988   -7.1944  -15.8317 C   0  0  2  0  0  0  0  0  0  0  0  0
   23.6302   -6.7427  -16.2476 N   0  0  0  0  0  0  0  0  0  0  0  0
   21.2637   -6.2825  -16.3617 C   0  0  0  0  0  0  0  0  0  0  0  0
   21.4186   -5.0137  -16.2740 O   0  0  0  0  0  0  0  0  0  0  0  0
   20.0634   -6.7281  -16.9883 N   0  0  0  0  0  0  0  0  0  0  0  0
   19.6701   -8.0786  -17.2728 C   0  0  0  0  0  0  0  0  0  0  0  0
   18.1706   -8.0498  -16.9310 C   0  0  0  0  0  0  0  0  0  0  0  0
   17.8103   -6.7972  -17.7362 C   0  0  0  0  0  0  0  0  0  0  0  0
   18.9823   -5.8529  -17.4638 C   0  0  1  0  0  0  0  0  0  0  0  0
   18.6087   -4.8991  -16.3831 C   0  0  0  0  0  0  0  0  0  0  0  0
   19.0606   -5.0732  -15.0990 O   0  0  0  0  0  0  0  0  0  0  0  0
   17.8695   -3.9271  -16.6573 O   0  0  0  0  0  0  0  0  0  0  0  0
  2  1  1  6
  2 10  1  0
  3  2  1  0
  4  5  2  0
  4  3  1  0
  6  5  1  0
  7  6  2  0
  8  7  1  0
  8  9  2  0
  9  4  1  0
 10 15  1  0
 10 11  2  0
 13 12  1  0
 14 13  1  1
 15 14  1  0
 16 14  1  0
 16 17  2  0
 18 16  1  0
 19 18  1  0
 20 19  1  0
 20 21  1  0
 21 22  1  0
 22 18  1  0
 22 23  1  1
 24 23  1  0
 25 23  2  0
M  END
$$$$
