QLH.pdb
     RDKit          3D

 28 28  0  0  1  0  0  0  0  0999 V2000
   42.1900  -12.4242  -11.0883 N   0  0  0  0  0  0  0  0  0  0  0  0
   43.3821  -11.6486  -11.3005 C   0  0  0  0  0  0  0  0  0  0  0  0
   44.1098  -11.8461  -12.2968 O   0  0  0  0  0  0  0  0  0  0  0  0
   43.7000  -10.6273  -10.3065 C   0  0  0  0  0  0  0  0  0  0  0  0
   42.7339  -10.5189   -9.1694 C   0  0  0  0  0  0  0  0  0  0  0  0
   42.5212   -9.1063   -8.7328 C   0  0  2  0  0  0  0  0  0  0  0  0
   42.6222   -9.0217   -7.3034 N   0  0  0  0  0  0  0  0  0  0  0  0
   41.1110   -8.7403   -9.1372 C   0  0  0  0  0  0  0  0  0  0  0  0
   40.8487   -8.5110  -10.3371 O   0  0  0  0  0  0  0  0  0  0  0  0
   37.6281  -11.7347   -8.5783 C   0  0  0  0  0  0  0  0  0  0  0  0
   38.0586  -10.6779   -7.5233 C   0  0  2  0  0  0  0  0  0  0  0  0
   37.1457  -11.0216   -6.3323 C   0  0  0  0  0  0  0  0  0  0  0  0
   37.7203   -9.3671   -8.0654 C   0  0  0  0  0  0  0  0  0  0  0  0
   38.7026   -8.3771   -8.4912 C   0  0  2  0  0  0  0  0  0  0  0  0
   40.0764   -8.6516   -8.1804 N   0  0  0  0  0  0  0  0  0  0  0  0
   38.3618   -6.9392   -8.3998 C   0  0  0  0  0  0  0  0  0  0  0  0
   37.2231   -6.4800   -8.5735 O   0  0  0  0  0  0  0  0  0  0  0  0
   39.3913   -6.0208   -8.0991 N   0  0  0  0  0  0  0  0  0  0  0  0
   39.2941   -4.5861   -8.0971 C   0  0  1  0  0  0  0  0  0  0  0  0
   39.7556   -3.9152   -6.7975 C   0  0  0  0  0  0  0  0  0  0  0  0
   38.7962   -4.0722   -5.6962 C   0  0  0  0  0  0  0  0  0  0  0  0
   37.5527   -4.7151   -5.7575 C   0  0  0  0  0  0  0  0  0  0  0  0
   36.9493   -4.6647   -4.5573 N   0  0  0  0  0  0  0  0  0  0  0  0
   37.7854   -4.0051   -3.7444 C   0  0  0  0  0  0  0  0  0  0  0  0
   38.8950   -3.6543   -4.4461 N   0  0  0  0  0  0  0  0  0  0  0  0
   39.7383   -3.9087   -9.3027 C   0  0  0  0  0  0  0  0  0  0  0  0
   40.6586   -4.3165  -10.0678 O   0  0  0  0  0  0  0  0  0  0  0  0
   39.1364   -2.7134   -9.6905 O   0  0  0  0  0  0  0  0  0  0  0  0
  2  3  2  0
  2  1  1  0
  4  2  1  0
  5  4  1  0
  5  6  1  0
  6  8  1  0
  6  7  1  1
  8  9  2  0
 11 10  1  6
 12 11  1  0
 13 11  1  0
 14 13  1  1
 15 14  1  0
 15  8  1  0
 16 17  2  0
 16 14  1  0
 18 16  1  0
 19 18  1  0
 19 26  1  0
 19 20  1  1
 21 25  1  0
 21 20  1  0
 22 21  2  0
 23 22  1  0
 23 24  1  0
 24 25  2  0
 26 28  1  0
 27 26  2  0
M  END
$$$$
