QLH.pdb
     RDKit          3D

 28 28  0  0  1  0  0  0  0  0999 V2000
   26.7501  -22.8775  -19.2412 N   0  0  0  0  0  0  0  0  0  0  0  0
   27.2605  -21.5628  -19.5218 C   0  0  0  0  0  0  0  0  0  0  0  0
   27.9122  -21.3338  -20.5629 O   0  0  0  0  0  0  0  0  0  0  0  0
   26.9836  -20.5160  -18.5422 C   0  0  0  0  0  0  0  0  0  0  0  0
   26.0830  -20.9155  -17.4164 C   0  0  0  0  0  0  0  0  0  0  0  0
   26.8152  -21.0607  -16.1226 C   0  0  2  0  0  0  0  0  0  0  0  0
   27.8163  -22.0820  -16.2456 N   0  0  0  0  0  0  0  0  0  0  0  0
   25.7949  -21.5089  -15.1006 C   0  0  0  0  0  0  0  0  0  0  0  0
   25.5159  -22.7220  -14.9923 O   0  0  0  0  0  0  0  0  0  0  0  0
   25.2286  -20.2199   -9.5207 C   0  0  0  0  0  0  0  0  0  0  0  0
   25.2736  -21.1128  -10.7920 C   0  0  2  0  0  0  0  0  0  0  0  0
   26.7861  -21.2172  -11.0586 C   0  0  0  0  0  0  0  0  0  0  0  0
   24.6157  -20.3711  -11.8613 C   0  0  0  0  0  0  0  0  0  0  0  0
   24.2864  -20.9321  -13.1664 C   0  0  2  0  0  0  0  0  0  0  0  0
   25.1459  -20.5786  -14.2597 N   0  0  0  0  0  0  0  0  0  0  0  0
   22.8642  -21.0525  -13.5601 C   0  0  0  0  0  0  0  0  0  0  0  0
   21.9404  -21.2989  -12.7705 O   0  0  0  0  0  0  0  0  0  0  0  0
   22.5250  -20.8809  -14.9201 N   0  0  0  0  0  0  0  0  0  0  0  0
   21.2092  -20.9489  -15.4962 C   0  0  1  0  0  0  0  0  0  0  0  0
   20.9806  -20.0046  -16.6828 C   0  0  0  0  0  0  0  0  0  0  0  0
   21.2062  -18.5925  -16.3467 C   0  0  0  0  0  0  0  0  0  0  0  0
   21.4957  -18.0722  -15.0783 C   0  0  0  0  0  0  0  0  0  0  0  0
   21.6394  -16.7375  -15.1505 N   0  0  0  0  0  0  0  0  0  0  0  0
   21.4467  -16.4084  -16.4349 C   0  0  0  0  0  0  0  0  0  0  0  0
   21.1865  -17.5382  -17.1437 N   0  0  0  0  0  0  0  0  0  0  0  0
   20.6559  -22.2788  -15.6833 C   0  0  0  0  0  0  0  0  0  0  0  0
   21.2575  -23.3594  -15.4203 O   0  0  0  0  0  0  0  0  0  0  0  0
   19.3665  -22.4305  -16.1890 O   0  0  0  0  0  0  0  0  0  0  0  0
  2  3  2  0
  2  1  1  0
  4  2  1  0
  5  4  1  0
  5  6  1  0
  6  8  1  0
  6  7  1  6
  8  9  2  0
 11 10  1  1
 12 11  1  0
 13 11  1  0
 14 13  1  1
 15 14  1  0
 15  8  1  0
 16 17  2  0
 16 14  1  0
 18 16  1  0
 19 18  1  0
 19 26  1  0
 19 20  1  6
 21 25  1  0
 21 20  1  0
 22 21  2  0
 23 22  1  0
 23 24  1  0
 24 25  2  0
 26 28  1  0
 27 26  2  0
M  END
$$$$
