QLH.pdb
     RDKit          3D

 28 28  0  0  1  0  0  0  0  0999 V2000
   17.1843  -15.8650  -15.9208 N   0  0  0  0  0  0  0  0  0  0  0  0
   18.5685  -16.1122  -16.2220 C   0  0  0  0  0  0  0  0  0  0  0  0
   19.1630  -17.1044  -15.7495 O   0  0  0  0  0  0  0  0  0  0  0  0
   19.2416  -15.1583  -17.0990 C   0  0  0  0  0  0  0  0  0  0  0  0
   20.0246  -14.0909  -16.4020 C   0  0  0  0  0  0  0  0  0  0  0  0
   20.1759  -12.8586  -17.2325 C   0  0  2  0  0  0  0  0  0  0  0  0
   20.8369  -13.1839  -18.4644 N   0  0  0  0  0  0  0  0  0  0  0  0
   21.0609  -11.9179  -16.4464 C   0  0  0  0  0  0  0  0  0  0  0  0
   20.7127  -11.5452  -15.3057 O   0  0  0  0  0  0  0  0  0  0  0  0
   26.1857   -8.7743  -16.2368 C   0  0  0  0  0  0  0  0  0  0  0  0
   25.5288  -10.0500  -15.6399 C   0  0  2  0  0  0  0  0  0  0  0  0
   26.7149  -11.0302  -15.5916 C   0  0  0  0  0  0  0  0  0  0  0  0
   24.5275  -10.5056  -16.5970 C   0  0  0  0  0  0  0  0  0  0  0  0
   23.0879  -10.4223  -16.3803 C   0  0  2  0  0  0  0  0  0  0  0  0
   22.2819  -11.4481  -16.9779 N   0  0  0  0  0  0  0  0  0  0  0  0
   22.4349   -9.0935  -16.3844 C   0  0  0  0  0  0  0  0  0  0  0  0
   21.3230   -8.8643  -16.8833 O   0  0  0  0  0  0  0  0  0  0  0  0
   23.1129   -8.0081  -15.7877 N   0  0  0  0  0  0  0  0  0  0  0  0
   22.5341   -6.7698  -15.3409 C   0  0  1  0  0  0  0  0  0  0  0  0
   21.3280   -6.9274  -14.4067 C   0  0  0  0  0  0  0  0  0  0  0  0
   20.0472   -6.9792  -15.1240 C   0  0  0  0  0  0  0  0  0  0  0  0
   19.8647   -6.9225  -16.5121 C   0  0  0  0  0  0  0  0  0  0  0  0
   18.5553   -6.9979  -16.8073 N   0  0  0  0  0  0  0  0  0  0  0  0
   17.9121   -7.1007  -15.6365 C   0  0  0  0  0  0  0  0  0  0  0  0
   18.8257   -7.0880  -14.6307 N   0  0  0  0  0  0  0  0  0  0  0  0
   23.4663   -5.7330  -14.9337 C   0  0  0  0  0  0  0  0  0  0  0  0
   24.7260   -5.8363  -14.9637 O   0  0  0  0  0  0  0  0  0  0  0  0
   22.9865   -4.5112  -14.4663 O   0  0  0  0  0  0  0  0  0  0  0  0
  2  3  2  0
  2  1  1  0
  4  2  1  0
  5  4  1  0
  5  6  1  0
  6  8  1  0
  6  7  1  6
  8  9  2  0
 11 10  1  6
 12 11  1  0
 13 11  1  0
 14 13  1  6
 15 14  1  0
 15  8  1  0
 16 17  2  0
 16 14  1  0
 18 16  1  0
 19 18  1  0
 19 26  1  0
 19 20  1  1
 21 25  1  0
 21 20  1  0
 22 21  2  0
 23 22  1  0
 23 24  1  0
 24 25  2  0
 26 28  1  0
 27 26  2  0
M  END
$$$$
