QLH.pdb
     RDKit          3D

 28 28  0  0  1  0  0  0  0  0999 V2000
   28.6446  -17.7675  -21.2429 N   0  0  0  0  0  0  0  0  0  0  0  0
   27.3921  -17.5872  -20.5599 C   0  0  0  0  0  0  0  0  0  0  0  0
   26.3054  -17.7682  -21.1493 O   0  0  0  0  0  0  0  0  0  0  0  0
   27.4484  -17.1865  -19.1569 C   0  0  0  0  0  0  0  0  0  0  0  0
   26.7212  -18.0837  -18.2058 C   0  0  0  0  0  0  0  0  0  0  0  0
   27.6341  -19.0409  -17.5118 C   0  0  2  0  0  0  0  0  0  0  0  0
   28.0100  -20.0916  -18.4148 N   0  0  0  0  0  0  0  0  0  0  0  0
   26.8388  -19.6450  -16.3765 C   0  0  0  0  0  0  0  0  0  0  0  0
   25.7880  -20.2753  -16.6207 O   0  0  0  0  0  0  0  0  0  0  0  0
   28.9851  -21.1080  -11.2013 C   0  0  0  0  0  0  0  0  0  0  0  0
   28.2326  -21.3311  -12.5427 C   0  0  2  0  0  0  0  0  0  0  0  0
   29.3654  -21.1866  -13.5751 C   0  0  0  0  0  0  0  0  0  0  0  0
   27.2717  -20.2432  -12.6822 C   0  0  0  0  0  0  0  0  0  0  0  0
   26.5157  -19.9674  -13.8983 C   0  0  2  0  0  0  0  0  0  0  0  0
   27.2617  -19.5109  -15.0359 N   0  0  0  0  0  0  0  0  0  0  0  0
   25.1798  -19.3385  -13.7885 C   0  0  0  0  0  0  0  0  0  0  0  0
   24.9828  -18.1142  -13.7931 O   0  0  0  0  0  0  0  0  0  0  0  0
   24.0493  -20.1757  -13.6670 N   0  0  0  0  0  0  0  0  0  0  0  0
   22.6702  -19.7858  -13.7861 C   0  0  1  0  0  0  0  0  0  0  0  0
   22.3723  -18.8358  -14.9526 C   0  0  0  0  0  0  0  0  0  0  0  0
   20.9814  -18.3637  -14.9697 C   0  0  0  0  0  0  0  0  0  0  0  0
   20.0013  -18.6181  -14.0011 C   0  0  0  0  0  0  0  0  0  0  0  0
   18.8460  -18.0253  -14.3492 N   0  0  0  0  0  0  0  0  0  0  0  0
   19.0785  -17.4049  -15.5136 C   0  0  0  0  0  0  0  0  0  0  0  0
   20.3710  -17.6184  -15.8748 N   0  0  0  0  0  0  0  0  0  0  0  0
   21.6858  -20.8400  -13.6153 C   0  0  0  0  0  0  0  0  0  0  0  0
   21.9543  -22.0609  -13.4255 O   0  0  0  0  0  0  0  0  0  0  0  0
   20.3268  -20.5353  -13.6553 O   0  0  0  0  0  0  0  0  0  0  0  0
  2  3  2  0
  2  1  1  0
  4  2  1  0
  5  4  1  0
  5  6  1  0
  6  8  1  0
  6  7  1  6
  8  9  2  0
 11 10  1  1
 12 11  1  0
 13 11  1  0
 14 13  1  1
 15 14  1  0
 15  8  1  0
 16 17  2  0
 16 14  1  0
 18 16  1  0
 19 18  1  0
 19 26  1  0
 19 20  1  6
 21 25  1  0
 21 20  1  0
 22 21  2  0
 23 22  1  0
 23 24  1  0
 24 25  2  0
 26 28  1  0
 27 26  2  0
M  END
$$$$
