QLH.pdb
     RDKit          3D

 28 28  0  0  1  0  0  0  0  0999 V2000
   32.9524  -39.4552   -2.1772 N   0  0  0  0  0  0  0  0  0  0  0  0
   32.6849  -40.1729   -3.3941 C   0  0  0  0  0  0  0  0  0  0  0  0
   31.5554  -40.6560   -3.6218 O   0  0  0  0  0  0  0  0  0  0  0  0
   33.7853  -40.3094   -4.3443 C   0  0  0  0  0  0  0  0  0  0  0  0
   35.0733  -39.6730   -3.9271 C   0  0  0  0  0  0  0  0  0  0  0  0
   35.3824  -38.4403   -4.7120 C   0  0  2  0  0  0  0  0  0  0  0  0
   36.7825  -38.1405   -4.6099 N   0  0  0  0  0  0  0  0  0  0  0  0
   34.6023  -37.3159   -4.0691 C   0  0  0  0  0  0  0  0  0  0  0  0
   35.0131  -36.8036   -3.0061 O   0  0  0  0  0  0  0  0  0  0  0  0
   33.8185  -33.0590   -5.3441 C   0  0  0  0  0  0  0  0  0  0  0  0
   32.9415  -34.1281   -6.0537 C   0  0  2  0  0  0  0  0  0  0  0  0
   32.0699  -33.2641   -6.9830 C   0  0  0  0  0  0  0  0  0  0  0  0
   32.1222  -34.7617   -5.0272 C   0  0  0  0  0  0  0  0  0  0  0  0
   32.6099  -35.7735   -4.0972 C   0  0  2  0  0  0  0  0  0  0  0  0
   33.4104  -36.8290   -4.6488 N   0  0  0  0  0  0  0  0  0  0  0  0
   31.7270  -36.2267   -2.9984 C   0  0  0  0  0  0  0  0  0  0  0  0
   31.0570  -37.2697   -3.0273 O   0  0  0  0  0  0  0  0  0  0  0  0
   31.6304  -35.4270   -1.8387 N   0  0  0  0  0  0  0  0  0  0  0  0
   30.9597  -35.7637   -0.6120 C   0  0  1  0  0  0  0  0  0  0  0  0
   31.2529  -37.1753   -0.0890 C   0  0  0  0  0  0  0  0  0  0  0  0
   30.1602  -37.7268    0.7232 C   0  0  0  0  0  0  0  0  0  0  0  0
   28.9113  -37.1353    0.9547 C   0  0  0  0  0  0  0  0  0  0  0  0
   28.1665  -37.9277    1.7450 N   0  0  0  0  0  0  0  0  0  0  0  0
   28.9191  -39.0027    2.0147 C   0  0  0  0  0  0  0  0  0  0  0  0
   30.1189  -38.8667    1.3912 N   0  0  0  0  0  0  0  0  0  0  0  0
   30.9509  -34.7407    0.4191 C   0  0  0  0  0  0  0  0  0  0  0  0
   31.4430  -33.5824    0.2973 O   0  0  0  0  0  0  0  0  0  0  0  0
   30.3673  -35.0056    1.6562 O   0  0  0  0  0  0  0  0  0  0  0  0
  2  3  2  0
  2  1  1  0
  4  2  1  0
  5  4  1  0
  5  6  1  0
  6  8  1  0
  6  7  1  1
  8  9  2  0
 11 10  1  1
 12 11  1  0
 13 11  1  0
 14 13  1  6
 15 14  1  0
 15  8  1  0
 16 17  2  0
 16 14  1  0
 18 16  1  0
 19 18  1  0
 19 26  1  0
 19 20  1  1
 21 25  1  0
 21 20  1  0
 22 21  2  0
 23 22  1  0
 23 24  1  0
 24 25  2  0
 26 28  1  0
 27 26  2  0
M  END
$$$$
