QLH.pdb
     RDKit          3D

 28 28  0  0  1  0  0  0  0  0999 V2000
   18.7710  -12.9881  -17.5679 N   0  0  0  0  0  0  0  0  0  0  0  0
   19.3204  -13.8981  -18.5362 C   0  0  0  0  0  0  0  0  0  0  0  0
   18.5771  -14.6023  -19.2523 O   0  0  0  0  0  0  0  0  0  0  0  0
   20.7753  -13.9603  -18.6437 C   0  0  0  0  0  0  0  0  0  0  0  0
   21.5200  -12.9377  -17.8451 C   0  0  0  0  0  0  0  0  0  0  0  0
   22.9967  -13.0108  -18.0577 C   0  0  2  0  0  0  0  0  0  0  0  0
   23.4029  -14.3837  -18.1611 N   0  0  0  0  0  0  0  0  0  0  0  0
   23.6373  -12.4118  -16.8261 C   0  0  0  0  0  0  0  0  0  0  0  0
   23.2288  -12.7398  -15.6917 O   0  0  0  0  0  0  0  0  0  0  0  0
   28.7497  -12.4677  -15.2422 C   0  0  0  0  0  0  0  0  0  0  0  0
   27.3017  -12.4943  -15.8059 C   0  0  2  0  0  0  0  0  0  0  0  0
   27.5463  -12.7019  -17.3116 C   0  0  0  0  0  0  0  0  0  0  0  0
   26.7203  -11.1800  -15.5588 C   0  0  0  0  0  0  0  0  0  0  0  0
   25.3260  -10.8384  -15.8150 C   0  0  2  0  0  0  0  0  0  0  0  0
   24.6953  -11.4827  -16.9314 N   0  0  0  0  0  0  0  0  0  0  0  0
   24.8805   -9.4396  -15.6232 C   0  0  0  0  0  0  0  0  0  0  0  0
   25.2876   -8.6958  -14.7183 O   0  0  0  0  0  0  0  0  0  0  0  0
   23.9284   -8.9069  -16.5197 N   0  0  0  0  0  0  0  0  0  0  0  0
   23.3263   -7.6022  -16.4639 C   0  0  1  0  0  0  0  0  0  0  0  0
   22.9952   -6.9912  -17.8311 C   0  0  0  0  0  0  0  0  0  0  0  0
   22.4802   -5.6186  -17.7387 C   0  0  0  0  0  0  0  0  0  0  0  0
   22.5512   -4.7735  -16.6233 C   0  0  0  0  0  0  0  0  0  0  0  0
   21.9761   -3.5913  -16.9047 N   0  0  0  0  0  0  0  0  0  0  0  0
   21.5460   -3.6752  -18.1707 C   0  0  0  0  0  0  0  0  0  0  0  0
   21.8575   -4.9041  -18.6601 N   0  0  0  0  0  0  0  0  0  0  0  0
   22.2890   -7.4137  -15.4648 C   0  0  0  0  0  0  0  0  0  0  0  0
   22.0737   -6.3386  -14.8352 O   0  0  0  0  0  0  0  0  0  0  0  0
   21.4385   -8.4679  -15.1382 O   0  0  0  0  0  0  0  0  0  0  0  0
  2  3  2  0
  2  1  1  0
  4  2  1  0
  5  4  1  0
  5  6  1  0
  6  8  1  0
  6  7  1  1
  8  9  2  0
 11 10  1  1
 12 11  1  0
 13 11  1  0
 14 13  1  6
 15 14  1  0
 15  8  1  0
 16 17  2  0
 16 14  1  0
 18 16  1  0
 19 18  1  0
 19 26  1  0
 19 20  1  6
 21 25  1  0
 21 20  1  0
 22 21  2  0
 23 22  1  0
 23 24  1  0
 24 25  2  0
 26 28  1  0
 27 26  2  0
M  END
$$$$
