QLH.pdb
     RDKit          3D

 28 28  0  0  1  0  0  0  0  0999 V2000
   26.3616  -32.9423   -4.3922 N   0  0  0  0  0  0  0  0  0  0  0  0
   25.2479  -33.2581   -5.2452 C   0  0  0  0  0  0  0  0  0  0  0  0
   24.3525  -32.4170   -5.4730 O   0  0  0  0  0  0  0  0  0  0  0  0
   25.2124  -34.5961   -5.8288 C   0  0  0  0  0  0  0  0  0  0  0  0
   26.4176  -35.4418   -5.5637 C   0  0  0  0  0  0  0  0  0  0  0  0
   27.5311  -35.1660   -6.5204 C   0  0  2  0  0  0  0  0  0  0  0  0
   27.4373  -36.0575   -7.6415 N   0  0  0  0  0  0  0  0  0  0  0  0
   28.8158  -35.4600   -5.7792 C   0  0  0  0  0  0  0  0  0  0  0  0
   29.0238  -36.6062   -5.3274 O   0  0  0  0  0  0  0  0  0  0  0  0
   33.5477  -35.0963   -6.7467 C   0  0  0  0  0  0  0  0  0  0  0  0
   32.6614  -33.8352   -6.5489 C   0  0  2  0  0  0  0  0  0  0  0  0
   33.6831  -32.6951   -6.7109 C   0  0  0  0  0  0  0  0  0  0  0  0
   32.1539  -33.8767   -5.1825 C   0  0  0  0  0  0  0  0  0  0  0  0
   30.9645  -34.6133   -4.7713 C   0  0  2  0  0  0  0  0  0  0  0  0
   29.7928  -34.4592   -5.5852 N   0  0  0  0  0  0  0  0  0  0  0  0
   30.6578  -34.7377   -3.3282 C   0  0  0  0  0  0  0  0  0  0  0  0
   29.6343  -34.2881   -2.7914 O   0  0  0  0  0  0  0  0  0  0  0  0
   31.5839  -35.4063   -2.4980 N   0  0  0  0  0  0  0  0  0  0  0  0
   31.4480  -35.6691   -1.0907 C   0  0  1  0  0  0  0  0  0  0  0  0
   30.1214  -36.3242   -0.6872 C   0  0  0  0  0  0  0  0  0  0  0  0
   30.0281  -36.5957    0.7534 C   0  0  0  0  0  0  0  0  0  0  0  0
   29.6557  -35.6861    1.7521 C   0  0  0  0  0  0  0  0  0  0  0  0
   29.6821  -36.2869    2.9544 N   0  0  0  0  0  0  0  0  0  0  0  0
   30.0624  -37.5524    2.7332 C   0  0  0  0  0  0  0  0  0  0  0  0
   30.2673  -37.7231    1.4008 N   0  0  0  0  0  0  0  0  0  0  0  0
   32.6111  -36.2292   -0.4248 C   0  0  0  0  0  0  0  0  0  0  0  0
   33.7434  -36.3990   -0.9611 O   0  0  0  0  0  0  0  0  0  0  0  0
   32.5251  -36.6259    0.9080 O   0  0  0  0  0  0  0  0  0  0  0  0
  2  3  2  0
  2  1  1  0
  4  2  1  0
  5  4  1  0
  5  6  1  0
  6  8  1  0
  6  7  1  6
  8  9  2  0
 11 10  1  1
 12 11  1  0
 13 11  1  0
 14 13  1  1
 15 14  1  0
 15  8  1  0
 16 17  2  0
 16 14  1  0
 18 16  1  0
 19 18  1  0
 19 26  1  0
 19 20  1  6
 21 25  1  0
 21 20  1  0
 22 21  2  0
 23 22  1  0
 23 24  1  0
 24 25  2  0
 26 28  1  0
 27 26  2  0
M  END
$$$$
