QLH.pdb
     RDKit          3D

 28 28  0  0  1  0  0  0  0  0999 V2000
   25.4625  -17.0403  -15.9478 N   0  0  0  0  0  0  0  0  0  0  0  0
   26.7927  -17.3853  -16.3712 C   0  0  0  0  0  0  0  0  0  0  0  0
   27.3905  -16.7063  -17.2331 O   0  0  0  0  0  0  0  0  0  0  0  0
   27.4080  -18.5558  -15.7520 C   0  0  0  0  0  0  0  0  0  0  0  0
   26.5913  -19.2210  -14.6896 C   0  0  0  0  0  0  0  0  0  0  0  0
   27.3531  -20.2803  -13.9624 C   0  0  2  0  0  0  0  0  0  0  0  0
   27.7353  -21.3166  -14.8792 N   0  0  0  0  0  0  0  0  0  0  0  0
   26.4036  -20.8675  -12.9426 C   0  0  0  0  0  0  0  0  0  0  0  0
   25.7350  -21.8834  -13.2292 O   0  0  0  0  0  0  0  0  0  0  0  0
   28.4803  -21.0471   -8.8891 C   0  0  0  0  0  0  0  0  0  0  0  0
   27.2217  -20.1358   -8.8600 C   0  0  2  0  0  0  0  0  0  0  0  0
   27.1012  -19.8012   -7.3622 C   0  0  0  0  0  0  0  0  0  0  0  0
   26.0922  -20.9494   -9.2947 C   0  0  0  0  0  0  0  0  0  0  0  0
   25.4619  -20.8443  -10.6055 C   0  0  2  0  0  0  0  0  0  0  0  0
   26.2554  -20.2877  -11.6636 N   0  0  0  0  0  0  0  0  0  0  0  0
   24.0332  -20.4653  -10.6889 C   0  0  0  0  0  0  0  0  0  0  0  0
   23.4957  -19.6089   -9.9709 O   0  0  0  0  0  0  0  0  0  0  0  0
   23.2183  -21.1157  -11.6412 N   0  0  0  0  0  0  0  0  0  0  0  0
   22.1727  -20.5229  -12.4306 C   0  0  1  0  0  0  0  0  0  0  0  0
   22.5433  -19.1853  -13.0829 C   0  0  0  0  0  0  0  0  0  0  0  0
   21.4025  -18.5253  -13.7314 C   0  0  0  0  0  0  0  0  0  0  0  0
   20.0707  -18.9608  -13.7228 C   0  0  0  0  0  0  0  0  0  0  0  0
   19.3026  -18.1053  -14.4197 N   0  0  0  0  0  0  0  0  0  0  0  0
   20.1217  -17.1432  -14.8652 C   0  0  0  0  0  0  0  0  0  0  0  0
   21.3849  -17.4107  -14.4417 N   0  0  0  0  0  0  0  0  0  0  0  0
   21.4348  -21.4214  -13.3013 C   0  0  0  0  0  0  0  0  0  0  0  0
   20.4674  -21.0834  -14.0419 O   0  0  0  0  0  0  0  0  0  0  0  0
   21.7800  -22.7699  -13.3620 O   0  0  0  0  0  0  0  0  0  0  0  0
  2  3  2  0
  2  1  1  0
  4  2  1  0
  5  4  1  0
  5  6  1  0
  6  8  1  0
  6  7  1  6
  8  9  2  0
 11 10  1  1
 12 11  1  0
 13 11  1  0
 14 13  1  1
 15 14  1  0
 15  8  1  0
 16 17  2  0
 16 14  1  0
 18 16  1  0
 19 18  1  0
 19 26  1  0
 19 20  1  6
 21 25  1  0
 21 20  1  0
 22 21  2  0
 23 22  1  0
 23 24  1  0
 24 25  2  0
 26 28  1  0
 27 26  2  0
M  END
$$$$
