QLH.pdb
     RDKit          3D

 28 28  0  0  1  0  0  0  0  0999 V2000
   25.2461  -18.7580  -17.3922 N   0  0  0  0  0  0  0  0  0  0  0  0
   25.6520  -19.7419  -18.3590 C   0  0  0  0  0  0  0  0  0  0  0  0
   25.0397  -19.8732  -19.4401 O   0  0  0  0  0  0  0  0  0  0  0  0
   26.8041  -20.5734  -18.0220 C   0  0  0  0  0  0  0  0  0  0  0  0
   27.4462  -20.2731  -16.7045 C   0  0  0  0  0  0  0  0  0  0  0  0
   27.7287  -21.5072  -15.9118 C   0  0  2  0  0  0  0  0  0  0  0  0
   27.7158  -22.6517  -16.7781 N   0  0  0  0  0  0  0  0  0  0  0  0
   26.5988  -21.6454  -14.9166 C   0  0  0  0  0  0  0  0  0  0  0  0
   25.7192  -22.5153  -15.0924 O   0  0  0  0  0  0  0  0  0  0  0  0
   25.7521  -19.7812   -9.1197 C   0  0  0  0  0  0  0  0  0  0  0  0
   24.9907  -20.4843  -10.2778 C   0  0  2  0  0  0  0  0  0  0  0  0
   24.7276  -21.8818   -9.6883 C   0  0  0  0  0  0  0  0  0  0  0  0
   25.9100  -20.5702  -11.4065 C   0  0  0  0  0  0  0  0  0  0  0  0
   25.5093  -20.9098  -12.7668 C   0  0  2  0  0  0  0  0  0  0  0  0
   26.5159  -20.8060  -13.7842 N   0  0  0  0  0  0  0  0  0  0  0  0
   24.1622  -20.5178  -13.2396 C   0  0  0  0  0  0  0  0  0  0  0  0
   23.7928  -19.3448  -13.3985 O   0  0  0  0  0  0  0  0  0  0  0  0
   23.2272  -21.5358  -13.5285 N   0  0  0  0  0  0  0  0  0  0  0  0
   21.8273  -21.3665  -13.8107 C   0  0  1  0  0  0  0  0  0  0  0  0
   21.0488  -22.6750  -13.9946 C   0  0  0  0  0  0  0  0  0  0  0  0
   19.6479  -22.4619  -14.3817 C   0  0  0  0  0  0  0  0  0  0  0  0
   19.1185  -21.3263  -15.0089 C   0  0  0  0  0  0  0  0  0  0  0  0
   17.7988  -21.4852  -15.2102 N   0  0  0  0  0  0  0  0  0  0  0  0
   17.4880  -22.6942  -14.7238 C   0  0  0  0  0  0  0  0  0  0  0  0
   18.6140  -23.2709  -14.2275 N   0  0  0  0  0  0  0  0  0  0  0  0
   21.1274  -20.3676  -13.0219 C   0  0  0  0  0  0  0  0  0  0  0  0
   21.0971  -20.3304  -11.7584 O   0  0  0  0  0  0  0  0  0  0  0  0
   20.4195  -19.3502  -13.6583 O   0  0  0  0  0  0  0  0  0  0  0  0
  2  3  2  0
  2  1  1  0
  4  2  1  0
  5  4  1  0
  5  6  1  0
  6  8  1  0
  6  7  1  6
  8  9  2  0
 11 10  1  1
 12 11  1  0
 13 11  1  0
 14 13  1  1
 15 14  1  0
 15  8  1  0
 16 17  2  0
 16 14  1  0
 18 16  1  0
 19 18  1  0
 19 26  1  0
 19 20  1  1
 21 25  1  0
 21 20  1  0
 22 21  2  0
 23 22  1  0
 23 24  1  0
 24 25  2  0
 26 28  1  0
 27 26  2  0
M  END
$$$$
