QLH.pdb
     RDKit          3D

 28 28  0  0  1  0  0  0  0  0999 V2000
   25.5248  -31.7127   -8.9103 N   0  0  0  0  0  0  0  0  0  0  0  0
   25.6119  -33.1073   -9.2495 C   0  0  0  0  0  0  0  0  0  0  0  0
   25.3898  -33.5018  -10.4140 O   0  0  0  0  0  0  0  0  0  0  0  0
   25.9699  -34.0336   -8.1790 C   0  0  0  0  0  0  0  0  0  0  0  0
   26.2833  -33.3982   -6.8614 C   0  0  0  0  0  0  0  0  0  0  0  0
   25.1980  -33.6026   -5.8556 C   0  0  2  0  0  0  0  0  0  0  0  0
   23.9424  -33.1770   -6.4061 N   0  0  0  0  0  0  0  0  0  0  0  0
   25.5319  -32.7147   -4.6782 C   0  0  0  0  0  0  0  0  0  0  0  0
   26.5561  -31.9997   -4.7103 O   0  0  0  0  0  0  0  0  0  0  0  0
   22.7043  -29.3132   -0.7565 C   0  0  0  0  0  0  0  0  0  0  0  0
   24.1510  -29.7932   -1.0593 C   0  0  2  0  0  0  0  0  0  0  0  0
   24.8456  -28.4825   -1.4708 C   0  0  0  0  0  0  0  0  0  0  0  0
   24.0718  -30.7076   -2.1925 C   0  0  0  0  0  0  0  0  0  0  0  0
   24.9487  -31.8574   -2.3816 C   0  0  2  0  0  0  0  0  0  0  0  0
   24.7046  -32.6761   -3.5345 N   0  0  0  0  0  0  0  0  0  0  0  0
   25.3828  -32.6340   -1.1982 C   0  0  0  0  0  0  0  0  0  0  0  0
   25.7156  -32.1284   -0.1159 O   0  0  0  0  0  0  0  0  0  0  0  0
   25.4282  -34.0419   -1.2962 N   0  0  0  0  0  0  0  0  0  0  0  0
   25.2137  -34.9879   -0.2346 C   0  0  1  0  0  0  0  0  0  0  0  0
   25.4800  -34.4412    1.1733 C   0  0  0  0  0  0  0  0  0  0  0  0
   25.5152  -35.4901    2.2011 C   0  0  0  0  0  0  0  0  0  0  0  0
   25.5745  -36.8727    1.9814 C   0  0  0  0  0  0  0  0  0  0  0  0
   25.5926  -37.5248    3.1569 N   0  0  0  0  0  0  0  0  0  0  0  0
   25.5462  -36.5833    4.1089 C   0  0  0  0  0  0  0  0  0  0  0  0
   25.4998  -35.3612    3.5165 N   0  0  0  0  0  0  0  0  0  0  0  0
   24.0193  -35.8084   -0.3346 C   0  0  0  0  0  0  0  0  0  0  0  0
   24.0055  -37.0727   -0.3466 O   0  0  0  0  0  0  0  0  0  0  0  0
   22.7669  -35.2048   -0.4266 O   0  0  0  0  0  0  0  0  0  0  0  0
  2  3  2  0
  2  1  1  0
  4  2  1  0
  5  4  1  0
  5  6  1  0
  6  8  1  0
  6  7  1  6
  8  9  2  0
 11 10  1  6
 12 11  1  0
 13 11  1  0
 14 13  1  1
 15 14  1  0
 15  8  1  0
 16 17  2  0
 16 14  1  0
 18 16  1  0
 19 18  1  0
 19 26  1  0
 19 20  1  1
 21 25  1  0
 21 20  1  0
 22 21  2  0
 23 22  1  0
 23 24  1  0
 24 25  2  0
 26 28  1  0
 27 26  2  0
M  END
$$$$
