QLH.pdb
     RDKit          3D

 28 28  0  0  1  0  0  0  0  0999 V2000
   15.2127  -20.2883    2.0012 N   0  0  0  0  0  0  0  0  0  0  0  0
   14.2344  -19.3091    1.6117 C   0  0  0  0  0  0  0  0  0  0  0  0
   13.4461  -19.5269    0.6672 O   0  0  0  0  0  0  0  0  0  0  0  0
   14.2046  -18.0588    2.3653 C   0  0  0  0  0  0  0  0  0  0  0  0
   15.2581  -17.9214    3.4186 C   0  0  0  0  0  0  0  0  0  0  0  0
   14.9182  -18.6668    4.6676 C   0  0  2  0  0  0  0  0  0  0  0  0
   13.7708  -18.0695    5.2899 N   0  0  0  0  0  0  0  0  0  0  0  0
   16.1025  -18.5120    5.5948 C   0  0  0  0  0  0  0  0  0  0  0  0
   16.0363  -17.7217    6.5603 O   0  0  0  0  0  0  0  0  0  0  0  0
   21.5229  -21.4397    6.3072 C   0  0  0  0  0  0  0  0  0  0  0  0
   20.7047  -20.2334    6.8464 C   0  0  2  0  0  0  0  0  0  0  0  0
   20.4527  -20.6433    8.3087 C   0  0  0  0  0  0  0  0  0  0  0  0
   19.4512  -20.1975    6.1021 C   0  0  0  0  0  0  0  0  0  0  0  0
   18.4738  -19.1192    6.1931 C   0  0  2  0  0  0  0  0  0  0  0  0
   17.2907  -19.2473    5.3912 N   0  0  0  0  0  0  0  0  0  0  0  0
   18.9513  -17.7224    6.3063 C   0  0  0  0  0  0  0  0  0  0  0  0
   18.6519  -16.8167    5.5139 O   0  0  0  0  0  0  0  0  0  0  0  0
   19.8059  -17.3875    7.3793 N   0  0  0  0  0  0  0  0  0  0  0  0
   20.1526  -16.0653    7.8258 C   0  0  1  0  0  0  0  0  0  0  0  0
   18.9907  -15.0643    7.8250 C   0  0  0  0  0  0  0  0  0  0  0  0
   19.1394  -14.0103    6.8127 C   0  0  0  0  0  0  0  0  0  0  0  0
   20.1872  -13.8792    5.8916 C   0  0  0  0  0  0  0  0  0  0  0  0
   19.9892  -12.7955    5.1210 N   0  0  0  0  0  0  0  0  0  0  0  0
   18.8415  -12.2438    5.5372 C   0  0  0  0  0  0  0  0  0  0  0  0
   18.3411  -12.9881    6.5581 N   0  0  0  0  0  0  0  0  0  0  0  0
   21.0023  -15.9844    9.0010 C   0  0  0  0  0  0  0  0  0  0  0  0
   21.3823  -16.9728    9.6919 O   0  0  0  0  0  0  0  0  0  0  0  0
   21.4614  -14.7454    9.4431 O   0  0  0  0  0  0  0  0  0  0  0  0
  2  3  2  0
  2  1  1  0
  4  2  1  0
  5  4  1  0
  5  6  1  0
  6  8  1  0
  6  7  1  1
  8  9  2  0
 11 10  1  6
 12 11  1  0
 13 11  1  0
 14 13  1  6
 15 14  1  0
 15  8  1  0
 16 17  2  0
 16 14  1  0
 18 16  1  0
 19 18  1  0
 19 26  1  0
 19 20  1  1
 21 25  1  0
 21 20  1  0
 22 21  2  0
 23 22  1  0
 23 24  1  0
 24 25  2  0
 26 28  1  0
 27 26  2  0
M  END
$$$$
