YFY.pdb
     RDKit          3D

 36 38  0  0  1  0  0  0  0  0999 V2000
    8.1314  -21.5204   16.8067 O   0  0  0  0  0  0  0  0  0  0  0  0
    8.4986  -20.7401   17.8823 C   0  0  0  0  0  0  0  0  0  0  0  0
    7.5143  -20.1494   18.6205 C   0  0  0  0  0  0  0  0  0  0  0  0
    7.8703  -19.3683   19.6965 C   0  0  0  0  0  0  0  0  0  0  0  0
    9.1920  -19.1853   20.0233 C   0  0  0  0  0  0  0  0  0  0  0  0
    9.5512  -18.3293   21.2019 C   0  0  0  0  0  0  0  0  0  0  0  0
    9.5738  -16.9009   20.7248 C   0  0  2  0  0  0  0  0  0  0  0  0
   10.6327  -16.7078   19.7627 N   0  0  0  0  0  0  0  0  0  0  0  0
    9.6232  -15.9044   21.8194 C   0  0  0  0  0  0  0  0  0  0  0  0
   10.7736  -15.5698   22.2479 O   0  0  0  0  0  0  0  0  0  0  0  0
   10.1735  -19.7828   19.2758 C   0  0  0  0  0  0  0  0  0  0  0  0
    9.8226  -20.5650   18.1985 C   0  0  0  0  0  0  0  0  0  0  0  0
    8.4745  -15.3123   22.4039 N   0  0  0  0  0  0  0  0  0  0  0  0
    8.4647  -14.6405   23.6623 C   0  0  1  0  0  0  0  0  0  0  0  0
    7.1680  -13.8850   23.8294 C   0  0  0  0  0  0  0  0  0  0  0  0
    7.0231  -13.2178   25.1159 C   0  0  0  0  0  0  0  0  0  0  0  0
    6.2786  -13.7190   26.1693 C   0  0  0  0  0  0  0  0  0  0  0  0
    6.1530  -13.0775   27.3741 C   0  0  0  0  0  0  0  0  0  0  0  0
    6.7844  -11.8780   27.5769 C   0  0  0  0  0  0  0  0  0  0  0  0
    7.5339  -11.3438   26.5584 C   0  0  0  0  0  0  0  0  0  0  0  0
    7.6512  -12.0125   25.3343 C   0  0  0  0  0  0  0  0  0  0  0  0
    8.8333  -15.4473   24.8274 C   0  0  0  0  0  0  0  0  0  0  0  0
    8.1352  -16.3939   25.2933 O   0  0  0  0  0  0  0  0  0  0  0  0
   12.5677  -20.1600   22.2350 O   0  0  0  0  0  0  0  0  0  0  0  0
   12.3930  -19.2785   23.3016 C   0  0  0  0  0  0  0  0  0  0  0  0
   11.8774  -19.6788   24.5102 C   0  0  0  0  0  0  0  0  0  0  0  0
   11.7272  -18.7631   25.5291 C   0  0  0  0  0  0  0  0  0  0  0  0
   12.0736  -17.4216   25.4094 C   0  0  0  0  0  0  0  0  0  0  0  0
   11.8931  -16.4602   26.5138 C   0  0  0  0  0  0  0  0  0  0  0  0
   10.4452  -16.0239   26.6917 C   0  0  2  0  0  0  0  0  0  0  0  0
   10.0432  -15.2108   25.5317 N   0  0  0  0  0  0  0  0  0  0  0  0
   10.3748  -15.1479   27.8707 C   0  0  0  0  0  0  0  0  0  0  0  0
   10.0341  -13.8035   27.8516 O   0  0  0  0  0  0  0  0  0  0  0  0
   12.5913  -17.0508   24.1763 C   0  0  0  0  0  0  0  0  0  0  0  0
   12.7468  -17.9559   23.1496 C   0  0  0  0  0  0  0  0  0  0  0  0
   10.6407  -15.6325   28.9980 O   0  0  0  0  0  0  0  0  0  0  0  0
  2  1  1  0
  3  2  2  0
  4  3  1  0
  5 11  1  0
  5  4  2  0
  6  5  1  0
  7  6  1  0
  7  8  1  6
  9  7  1  0
 10  9  2  0
 11 12  2  0
 12  2  1  0
 13  9  1  0
 14 13  1  0
 14 15  1  1
 16 15  1  0
 16 17  2  0
 18 17  1  0
 19 18  2  0
 20 21  2  0
 20 19  1  0
 21 16  1  0
 22 14  1  0
 23 22  2  0
 25 24  1  0
 25 26  2  0
 27 26  1  0
 28 27  2  0
 29 28  1  0
 30 29  1  6
 30 31  1  0
 31 22  1  0
 32 30  1  0
 32 33  1  0
 34 35  2  0
 34 28  1  0
 35 25  1  0
 36 32  2  0
M  END
$$$$
