YFY.pdb
     RDKit          3D

 36 38  0  0  1  0  0  0  0  0999 V2000
    6.7942  -20.1333   15.3947 O   0  0  0  0  0  0  0  0  0  0  0  0
    7.1231  -19.6325   16.6363 C   0  0  0  0  0  0  0  0  0  0  0  0
    8.3067  -20.0161   17.1971 C   0  0  0  0  0  0  0  0  0  0  0  0
    8.6445  -19.5219   18.4365 C   0  0  0  0  0  0  0  0  0  0  0  0
    7.8067  -18.6578   19.0990 C   0  0  0  0  0  0  0  0  0  0  0  0
    8.2006  -18.1340   20.4486 C   0  0  0  0  0  0  0  0  0  0  0  0
    8.9143  -16.8262   20.2280 C   0  0  2  0  0  0  0  0  0  0  0  0
   10.1317  -17.0364   19.4808 N   0  0  0  0  0  0  0  0  0  0  0  0
    9.1461  -16.0532   21.4699 C   0  0  0  0  0  0  0  0  0  0  0  0
   10.2260  -16.2819   22.1026 O   0  0  0  0  0  0  0  0  0  0  0  0
    6.6199  -18.2783   18.5275 C   0  0  0  0  0  0  0  0  0  0  0  0
    6.2775  -18.7699   17.2880 C   0  0  0  0  0  0  0  0  0  0  0  0
    8.2429  -15.0865   21.9812 N   0  0  0  0  0  0  0  0  0  0  0  0
    8.3018  -14.5449   23.2997 C   0  0  1  0  0  0  0  0  0  0  0  0
    7.2895  -13.4335   23.4424 C   0  0  0  0  0  0  0  0  0  0  0  0
    7.1892  -12.8815   24.7865 C   0  0  0  0  0  0  0  0  0  0  0  0
    6.2198  -13.2469   25.7039 C   0  0  0  0  0  0  0  0  0  0  0  0
    6.1402  -12.7170   26.9656 C   0  0  0  0  0  0  0  0  0  0  0  0
    7.0517  -11.7761   27.3686 C   0  0  0  0  0  0  0  0  0  0  0  0
    8.0310  -11.3840   26.4902 C   0  0  0  0  0  0  0  0  0  0  0  0
    8.0974  -11.9357   25.2054 C   0  0  0  0  0  0  0  0  0  0  0  0
    8.2745  -15.5141   24.3971 C   0  0  0  0  0  0  0  0  0  0  0  0
    7.4179  -16.4374   24.5166 O   0  0  0  0  0  0  0  0  0  0  0  0
   11.4788  -22.5615   28.0335 O   0  0  0  0  0  0  0  0  0  0  0  0
   11.1389  -21.3706   27.3920 C   0  0  0  0  0  0  0  0  0  0  0  0
   10.8419  -20.2212   28.0831 C   0  0  0  0  0  0  0  0  0  0  0  0
   10.5125  -19.0731   27.3957 C   0  0  0  0  0  0  0  0  0  0  0  0
   10.4594  -19.0009   26.0079 C   0  0  0  0  0  0  0  0  0  0  0  0
   10.0941  -17.7607   25.2975 C   0  0  0  0  0  0  0  0  0  0  0  0
    9.5836  -16.6699   26.2291 C   0  0  2  0  0  0  0  0  0  0  0  0
    9.2450  -15.4785   25.4328 N   0  0  0  0  0  0  0  0  0  0  0  0
   10.6838  -16.2844   27.1254 C   0  0  0  0  0  0  0  0  0  0  0  0
   11.8014  -15.5517   26.7541 O   0  0  0  0  0  0  0  0  0  0  0  0
   10.7649  -20.1789   25.3408 C   0  0  0  0  0  0  0  0  0  0  0  0
   11.0959  -21.3333   26.0156 C   0  0  0  0  0  0  0  0  0  0  0  0
   10.6310  -16.6356   28.3297 O   0  0  0  0  0  0  0  0  0  0  0  0
  2  1  1  0
  3  2  2  0
  4  3  1  0
  5 11  1  0
  5  4  2  0
  6  5  1  0
  7  6  1  0
  7  8  1  1
  9  7  1  0
 10  9  2  0
 11 12  2  0
 12  2  1  0
 13  9  1  0
 14 13  1  0
 14 15  1  1
 16 15  1  0
 16 17  2  0
 18 17  1  0
 19 18  2  0
 20 21  2  0
 20 19  1  0
 21 16  1  0
 22 14  1  0
 23 22  2  0
 25 24  1  0
 25 26  2  0
 27 26  1  0
 28 27  2  0
 29 28  1  0
 30 29  1  6
 30 31  1  0
 31 22  1  0
 32 30  1  0
 32 33  1  0
 34 35  2  0
 34 28  1  0
 35 25  1  0
 36 32  2  0
M  END
$$$$
