YFY.pdb
     RDKit          3D

 36 38  0  0  1  0  0  0  0  0999 V2000
    7.1974  -21.4746   16.9450 O   0  0  0  0  0  0  0  0  0  0  0  0
    7.6650  -20.7517   18.0218 C   0  0  0  0  0  0  0  0  0  0  0  0
    6.7562  -20.1400   18.8356 C   0  0  0  0  0  0  0  0  0  0  0  0
    7.2127  -19.4158   19.9134 C   0  0  0  0  0  0  0  0  0  0  0  0
    8.5586  -19.3094   20.1674 C   0  0  0  0  0  0  0  0  0  0  0  0
    9.0281  -18.5143   21.3498 C   0  0  0  0  0  0  0  0  0  0  0  0
    9.2358  -17.0983   20.8805 C   0  0  2  0  0  0  0  0  0  0  0  0
   10.3373  -17.0325   19.9495 N   0  0  0  0  0  0  0  0  0  0  0  0
    9.3733  -16.1166   21.9809 C   0  0  0  0  0  0  0  0  0  0  0  0
   10.5323  -15.9681   22.4845 O   0  0  0  0  0  0  0  0  0  0  0  0
    9.4638  -19.9275   19.3441 C   0  0  0  0  0  0  0  0  0  0  0  0
    9.0123  -20.6530   18.2647 C   0  0  0  0  0  0  0  0  0  0  0  0
    8.2989  -15.3451   22.4929 N   0  0  0  0  0  0  0  0  0  0  0  0
    8.3024  -14.7016   23.7661 C   0  0  1  0  0  0  0  0  0  0  0  0
    7.1650  -13.7112   23.8424 C   0  0  0  0  0  0  0  0  0  0  0  0
    7.0124  -13.0708   25.1416 C   0  0  0  0  0  0  0  0  0  0  0  0
    7.7763  -12.0004   25.5725 C   0  0  0  0  0  0  0  0  0  0  0  0
    7.6191  -11.4094   26.7992 C   0  0  0  0  0  0  0  0  0  0  0  0
    6.6661  -11.8791   27.6651 C   0  0  0  0  0  0  0  0  0  0  0  0
    5.8854  -12.9399   27.2785 C   0  0  0  0  0  0  0  0  0  0  0  0
    6.0596  -13.5315   26.0219 C   0  0  0  0  0  0  0  0  0  0  0  0
    8.4003  -15.5806   24.9330 C   0  0  0  0  0  0  0  0  0  0  0  0
    7.5641  -16.4853   25.2209 O   0  0  0  0  0  0  0  0  0  0  0  0
   15.1955  -16.6572   23.7238 O   0  0  0  0  0  0  0  0  0  0  0  0
   14.0196  -16.8959   24.4348 C   0  0  0  0  0  0  0  0  0  0  0  0
   13.9751  -16.8880   25.8076 C   0  0  0  0  0  0  0  0  0  0  0  0
   12.7840  -17.1307   26.4569 C   0  0  0  0  0  0  0  0  0  0  0  0
   11.5900  -17.3908   25.7932 C   0  0  0  0  0  0  0  0  0  0  0  0
   10.3305  -17.6571   26.5136 C   0  0  0  0  0  0  0  0  0  0  0  0
    9.6372  -16.3875   26.9886 C   0  0  2  0  0  0  0  0  0  0  0  0
    9.4810  -15.4704   25.8472 N   0  0  0  0  0  0  0  0  0  0  0  0
   10.5222  -15.7189   27.9541 C   0  0  0  0  0  0  0  0  0  0  0  0
   10.9436  -16.2563   29.1613 O   0  0  0  0  0  0  0  0  0  0  0  0
   11.6699  -17.3913   24.4076 C   0  0  0  0  0  0  0  0  0  0  0  0
   12.8539  -17.1500   23.7462 C   0  0  0  0  0  0  0  0  0  0  0  0
   10.9438  -14.5667   27.6872 O   0  0  0  0  0  0  0  0  0  0  0  0
  2  1  1  0
  3  2  2  0
  4  3  1  0
  5 11  1  0
  5  4  2  0
  6  5  1  0
  7  6  1  0
  7  8  1  1
  9  7  1  0
 10  9  2  0
 11 12  2  0
 12  2  1  0
 13  9  1  0
 14 13  1  0
 14 15  1  1
 16 15  1  0
 16 17  2  0
 18 17  1  0
 19 18  2  0
 20 21  2  0
 20 19  1  0
 21 16  1  0
 22 14  1  0
 23 22  2  0
 25 24  1  0
 25 26  2  0
 27 26  1  0
 28 27  2  0
 29 28  1  0
 30 29  1  6
 30 31  1  0
 31 22  1  0
 32 30  1  0
 32 33  1  0
 34 35  2  0
 34 28  1  0
 35 25  1  0
 36 32  2  0
M  END
$$$$
