YFY.pdb
     RDKit          3D

 36 38  0  0  1  0  0  0  0  0999 V2000
    8.0158  -21.6643   16.4678 O   0  0  0  0  0  0  0  0  0  0  0  0
    8.2689  -20.9777   17.6362 C   0  0  0  0  0  0  0  0  0  0  0  0
    7.3113  -20.1279   18.1090 C   0  0  0  0  0  0  0  0  0  0  0  0
    7.5541  -19.4377   19.2748 C   0  0  0  0  0  0  0  0  0  0  0  0
    8.7384  -19.5996   19.9519 C   0  0  0  0  0  0  0  0  0  0  0  0
    8.9760  -18.8350   21.2207 C   0  0  0  0  0  0  0  0  0  0  0  0
    9.3665  -17.4339   20.8300 C   0  0  2  0  0  0  0  0  0  0  0  0
   10.5695  -17.4500   20.0319 N   0  0  0  0  0  0  0  0  0  0  0  0
    9.4661  -16.4986   21.9741 C   0  0  0  0  0  0  0  0  0  0  0  0
   10.5454  -16.5187   22.6476 O   0  0  0  0  0  0  0  0  0  0  0  0
    9.6942  -20.4555   19.4690 C   0  0  0  0  0  0  0  0  0  0  0  0
    9.4561  -21.1482   18.3033 C   0  0  0  0  0  0  0  0  0  0  0  0
    8.4391  -15.5958   22.3509 N   0  0  0  0  0  0  0  0  0  0  0  0
    8.4085  -14.8769   23.5827 C   0  0  1  0  0  0  0  0  0  0  0  0
    7.3560  -13.7959   23.5186 C   0  0  0  0  0  0  0  0  0  0  0  0
    7.1667  -13.0674   24.7655 C   0  0  0  0  0  0  0  0  0  0  0  0
    6.2368  -13.4117   25.7307 C   0  0  0  0  0  0  0  0  0  0  0  0
    6.0720  -12.7145   26.8993 C   0  0  0  0  0  0  0  0  0  0  0  0
    6.8522  -11.6167   27.1540 C   0  0  0  0  0  0  0  0  0  0  0  0
    7.7880  -11.2392   26.2234 C   0  0  0  0  0  0  0  0  0  0  0  0
    7.9428  -11.9629   25.0352 C   0  0  0  0  0  0  0  0  0  0  0  0
    8.3509  -15.6868   24.8012 C   0  0  0  0  0  0  0  0  0  0  0  0
    7.5457  -16.6446   24.9876 O   0  0  0  0  0  0  0  0  0  0  0  0
   12.2781  -21.9075   29.1776 O   0  0  0  0  0  0  0  0  0  0  0  0
   11.8055  -20.8341   28.4229 C   0  0  0  0  0  0  0  0  0  0  0  0
   11.1755  -19.7546   28.9927 C   0  0  0  0  0  0  0  0  0  0  0  0
   10.7289  -18.7220   28.1968 C   0  0  0  0  0  0  0  0  0  0  0  0
   10.8789  -18.7016   26.8144 C   0  0  0  0  0  0  0  0  0  0  0  0
   10.3824  -17.5872   25.9850 C   0  0  0  0  0  0  0  0  0  0  0  0
    9.6713  -16.5128   26.7963 C   0  0  2  0  0  0  0  0  0  0  0  0
    9.2293  -15.4405   25.8892 N   0  0  0  0  0  0  0  0  0  0  0  0
   10.6495  -15.9152   27.7174 C   0  0  0  0  0  0  0  0  0  0  0  0
   10.6574  -16.0780   29.0948 O   0  0  0  0  0  0  0  0  0  0  0  0
   11.5193  -19.8066   26.2712 C   0  0  0  0  0  0  0  0  0  0  0  0
   11.9706  -20.8453   27.0553 C   0  0  0  0  0  0  0  0  0  0  0  0
   11.5613  -15.1941   27.2430 O   0  0  0  0  0  0  0  0  0  0  0  0
  2  1  1  0
  3  2  2  0
  4  3  1  0
  5 11  1  0
  5  4  2  0
  6  5  1  0
  7  6  1  0
  7  8  1  1
  9  7  1  0
 10  9  2  0
 11 12  2  0
 12  2  1  0
 13  9  1  0
 14 13  1  0
 14 15  1  6
 16 15  1  0
 16 17  2  0
 18 17  1  0
 19 18  2  0
 20 21  2  0
 20 19  1  0
 21 16  1  0
 22 14  1  0
 23 22  2  0
 25 24  1  0
 25 26  2  0
 27 26  1  0
 28 27  2  0
 29 28  1  0
 30 29  1  6
 30 31  1  0
 31 22  1  0
 32 30  1  0
 32 33  1  0
 34 35  2  0
 34 28  1  0
 35 25  1  0
 36 32  2  0
M  END
$$$$
