YFY.pdb
     RDKit          3D

 36 38  0  0  1  0  0  0  0  0999 V2000
    8.7986  -24.2983   19.0581 O   0  0  0  0  0  0  0  0  0  0  0  0
    8.9525  -23.1111   19.7418 C   0  0  0  0  0  0  0  0  0  0  0  0
    8.1274  -22.0704   19.4273 C   0  0  0  0  0  0  0  0  0  0  0  0
    8.2728  -20.8808   20.1041 C   0  0  0  0  0  0  0  0  0  0  0  0
    9.2306  -20.7411   21.0790 C   0  0  0  0  0  0  0  0  0  0  0  0
    9.3664  -19.4331   21.8012 C   0  0  0  0  0  0  0  0  0  0  0  0
    8.2200  -18.5606   21.3619 C   0  0  2  0  0  0  0  0  0  0  0  0
    8.1364  -18.5262   19.9210 N   0  0  0  0  0  0  0  0  0  0  0  0
    8.2390  -17.2033   21.9543 C   0  0  0  0  0  0  0  0  0  0  0  0
    8.7604  -16.2741   21.2589 O   0  0  0  0  0  0  0  0  0  0  0  0
   10.0547  -21.7922   21.3877 C   0  0  0  0  0  0  0  0  0  0  0  0
    9.9132  -22.9843   20.7136 C   0  0  0  0  0  0  0  0  0  0  0  0
    7.7137  -16.8902   23.2341 N   0  0  0  0  0  0  0  0  0  0  0  0
    7.8675  -15.6291   23.8830 C   0  0  1  0  0  0  0  0  0  0  0  0
    6.8366  -15.4873   24.9773 C   0  0  0  0  0  0  0  0  0  0  0  0
    6.9447  -14.2564   25.7483 C   0  0  0  0  0  0  0  0  0  0  0  0
    7.5699  -14.1656   26.9795 C   0  0  0  0  0  0  0  0  0  0  0  0
    7.6627  -12.9982   27.6919 C   0  0  0  0  0  0  0  0  0  0  0  0
    7.1190  -11.8461   27.1864 C   0  0  0  0  0  0  0  0  0  0  0  0
    6.4890  -11.8904   25.9676 C   0  0  0  0  0  0  0  0  0  0  0  0
    6.4035  -13.0914   25.2536 C   0  0  0  0  0  0  0  0  0  0  0  0
    9.2265  -15.2806   24.3021 C   0  0  0  0  0  0  0  0  0  0  0  0
    9.6719  -14.0990   24.3790 O   0  0  0  0  0  0  0  0  0  0  0  0
    9.6283  -14.8489   31.0100 O   0  0  0  0  0  0  0  0  0  0  0  0
   10.2186  -15.2868   29.8248 C   0  0  0  0  0  0  0  0  0  0  0  0
   10.7929  -14.4220   28.9252 C   0  0  0  0  0  0  0  0  0  0  0  0
   11.3618  -14.9120   27.7696 C   0  0  0  0  0  0  0  0  0  0  0  0
   11.3927  -16.2641   27.4458 C   0  0  0  0  0  0  0  0  0  0  0  0
   12.0000  -16.7607   26.1964 C   0  0  0  0  0  0  0  0  0  0  0  0
   11.5691  -15.9683   24.9697 C   0  0  2  0  0  0  0  0  0  0  0  0
   10.1636  -16.2839   24.6642 N   0  0  0  0  0  0  0  0  0  0  0  0
   12.3680  -16.4304   23.8249 C   0  0  0  0  0  0  0  0  0  0  0  0
   11.8713  -17.1108   22.7230 O   0  0  0  0  0  0  0  0  0  0  0  0
   10.8044  -17.1100   28.3755 C   0  0  0  0  0  0  0  0  0  0  0  0
   10.2325  -16.6334   29.5345 C   0  0  0  0  0  0  0  0  0  0  0  0
   13.6028  -16.2034   23.8211 O   0  0  0  0  0  0  0  0  0  0  0  0
  2  1  1  0
  3  2  2  0
  4  3  1  0
  5 11  1  0
  5  4  2  0
  6  5  1  0
  7  6  1  0
  7  8  1  6
  9  7  1  0
 10  9  2  0
 11 12  2  0
 12  2  1  0
 13  9  1  0
 14 13  1  0
 14 15  1  1
 16 15  1  0
 16 17  2  0
 18 17  1  0
 19 18  2  0
 20 21  2  0
 20 19  1  0
 21 16  1  0
 22 14  1  0
 23 22  2  0
 25 24  1  0
 25 26  2  0
 27 26  1  0
 28 27  2  0
 29 28  1  0
 30 29  1  1
 30 31  1  0
 31 22  1  0
 32 30  1  0
 32 33  1  0
 34 35  2  0
 34 28  1  0
 35 25  1  0
 36 32  2  0
M  END
$$$$
