YFY.pdb
     RDKit          3D

 36 38  0  0  1  0  0  0  0  0999 V2000
   12.5154  -20.5539   15.1782 O   0  0  0  0  0  0  0  0  0  0  0  0
   12.3453  -19.6048   16.1636 C   0  0  0  0  0  0  0  0  0  0  0  0
   12.2008  -18.3004   15.7891 C   0  0  0  0  0  0  0  0  0  0  0  0
   12.0304  -17.3451   16.7652 C   0  0  0  0  0  0  0  0  0  0  0  0
   12.0060  -17.6960   18.0932 C   0  0  0  0  0  0  0  0  0  0  0  0
   11.8180  -16.6338   19.1360 C   0  0  0  0  0  0  0  0  0  0  0  0
   10.6203  -17.0261   19.9605 C   0  0  2  0  0  0  0  0  0  0  0  0
    9.4552  -17.1698   19.1201 N   0  0  0  0  0  0  0  0  0  0  0  0
   10.3704  -16.1341   21.1162 C   0  0  0  0  0  0  0  0  0  0  0  0
   11.3886  -15.6554   21.7104 O   0  0  0  0  0  0  0  0  0  0  0  0
   12.1521  -19.0088   18.4594 C   0  0  0  0  0  0  0  0  0  0  0  0
   12.3228  -19.9682   17.4869 C   0  0  0  0  0  0  0  0  0  0  0  0
    9.0771  -15.7901   21.5861 N   0  0  0  0  0  0  0  0  0  0  0  0
    8.8181  -15.1223   22.8199 C   0  0  1  0  0  0  0  0  0  0  0  0
    7.3888  -14.6357   22.8484 C   0  0  0  0  0  0  0  0  0  0  0  0
    7.0356  -13.8796   24.0421 C   0  0  0  0  0  0  0  0  0  0  0  0
    7.3118  -12.5350   24.2176 C   0  0  0  0  0  0  0  0  0  0  0  0
    6.9719  -11.8384   25.3481 C   0  0  0  0  0  0  0  0  0  0  0  0
    6.3253  -12.4774   26.3739 C   0  0  0  0  0  0  0  0  0  0  0  0
    6.0314  -13.8118   26.2422 C   0  0  0  0  0  0  0  0  0  0  0  0
    6.3860  -14.5077   25.0805 C   0  0  0  0  0  0  0  0  0  0  0  0
    9.2260  -15.8305   24.0349 C   0  0  0  0  0  0  0  0  0  0  0  0
    8.9612  -17.0429   24.2808 O   0  0  0  0  0  0  0  0  0  0  0  0
   11.8204  -17.0193   32.4647 O   0  0  0  0  0  0  0  0  0  0  0  0
   11.5468  -16.4517   31.2205 C   0  0  0  0  0  0  0  0  0  0  0  0
   10.7628  -15.3328   31.0784 C   0  0  0  0  0  0  0  0  0  0  0  0
   10.5263  -14.8156   29.8231 C   0  0  0  0  0  0  0  0  0  0  0  0
   11.0446  -15.3691   28.6574 C   0  0  0  0  0  0  0  0  0  0  0  0
   10.7674  -14.8005   27.3247 C   0  0  0  0  0  0  0  0  0  0  0  0
   10.3398  -15.8498   26.3076 C   0  0  2  0  0  0  0  0  0  0  0  0
    9.9741  -15.1775   25.0496 N   0  0  0  0  0  0  0  0  0  0  0  0
    9.1222  -16.5028   26.8110 C   0  0  0  0  0  0  0  0  0  0  0  0
    9.0747  -17.7438   27.4287 O   0  0  0  0  0  0  0  0  0  0  0  0
   11.8320  -16.4979   28.8364 C   0  0  0  0  0  0  0  0  0  0  0  0
   12.0764  -17.0250   30.0853 C   0  0  0  0  0  0  0  0  0  0  0  0
    8.0233  -15.9094   26.6826 O   0  0  0  0  0  0  0  0  0  0  0  0
  2  1  1  0
  3  2  2  0
  4  3  1  0
  5 11  1  0
  5  4  2  0
  6  5  1  0
  7  6  1  0
  7  8  1  6
  9  7  1  0
 10  9  2  0
 11 12  2  0
 12  2  1  0
 13  9  1  0
 14 13  1  0
 14 15  1  1
 16 15  1  0
 16 17  2  0
 18 17  1  0
 19 18  2  0
 20 21  2  0
 20 19  1  0
 21 16  1  0
 22 14  1  0
 23 22  2  0
 25 24  1  0
 25 26  2  0
 27 26  1  0
 28 27  2  0
 29 28  1  0
 30 29  1  1
 30 31  1  0
 31 22  1  0
 32 30  1  0
 32 33  1  0
 34 35  2  0
 34 28  1  0
 35 25  1  0
 36 32  2  0
M  END
$$$$
