YFY.pdb
     RDKit          3D

 36 38  0  0  1  0  0  0  0  0999 V2000
    7.5370  -20.9059   14.3386 O   0  0  0  0  0  0  0  0  0  0  0  0
    7.8829  -20.3337   15.5443 C   0  0  0  0  0  0  0  0  0  0  0  0
    7.1142  -20.6108   16.6374 C   0  0  0  0  0  0  0  0  0  0  0  0
    7.4510  -20.0446   17.8459 C   0  0  0  0  0  0  0  0  0  0  0  0
    8.5409  -19.2150   17.9521 C   0  0  0  0  0  0  0  0  0  0  0  0
    8.8853  -18.6122   19.2821 C   0  0  0  0  0  0  0  0  0  0  0  0
    9.2698  -17.1772   19.0347 C   0  0  2  0  0  0  0  0  0  0  0  0
   10.4412  -17.1072   18.1938 N   0  0  0  0  0  0  0  0  0  0  0  0
    9.4193  -16.3753   20.2709 C   0  0  0  0  0  0  0  0  0  0  0  0
   10.6045  -16.1310   20.6642 O   0  0  0  0  0  0  0  0  0  0  0  0
    9.3069  -18.9426   16.8484 C   0  0  0  0  0  0  0  0  0  0  0  0
    8.9742  -19.5066   15.6373 C   0  0  0  0  0  0  0  0  0  0  0  0
    8.3287  -15.8726   21.0257 N   0  0  0  0  0  0  0  0  0  0  0  0
    8.4414  -15.3167   22.3347 C   0  0  1  0  0  0  0  0  0  0  0  0
    7.1961  -14.5291   22.6654 C   0  0  0  0  0  0  0  0  0  0  0  0
    7.2297  -13.8696   23.9636 C   0  0  0  0  0  0  0  0  0  0  0  0
    7.8100  -12.6340   24.1902 C   0  0  0  0  0  0  0  0  0  0  0  0
    7.8326  -12.0274   25.4192 C   0  0  0  0  0  0  0  0  0  0  0  0
    7.2600  -12.6504   26.4975 C   0  0  0  0  0  0  0  0  0  0  0  0
    6.6727  -13.8781   26.3180 C   0  0  0  0  0  0  0  0  0  0  0  0
    6.6589  -14.4830   25.0557 C   0  0  0  0  0  0  0  0  0  0  0  0
    8.8566  -16.2388   23.3937 C   0  0  0  0  0  0  0  0  0  0  0  0
    8.0629  -16.9448   24.0808 O   0  0  0  0  0  0  0  0  0  0  0  0
   10.7705  -15.0196   31.4352 O   0  0  0  0  0  0  0  0  0  0  0  0
   10.6226  -15.0349   30.0485 C   0  0  0  0  0  0  0  0  0  0  0  0
   11.6362  -14.6704   29.1962 C   0  0  0  0  0  0  0  0  0  0  0  0
   11.4327  -14.7051   27.8336 C   0  0  0  0  0  0  0  0  0  0  0  0
   10.2331  -15.0960   27.2489 C   0  0  0  0  0  0  0  0  0  0  0  0
   10.0391  -15.1144   25.7866 C   0  0  0  0  0  0  0  0  0  0  0  0
   10.7138  -16.3011   25.1121 C   0  0  2  0  0  0  0  0  0  0  0  0
   10.2266  -16.4061   23.7265 N   0  0  0  0  0  0  0  0  0  0  0  0
   10.2864  -17.5242   25.8077 C   0  0  0  0  0  0  0  0  0  0  0  0
    8.9868  -18.0062   25.8569 O   0  0  0  0  0  0  0  0  0  0  0  0
    9.2305  -15.4578   28.1378 C   0  0  0  0  0  0  0  0  0  0  0  0
    9.4207  -15.4278   29.5018 C   0  0  0  0  0  0  0  0  0  0  0  0
   11.1494  -18.2050   26.4145 O   0  0  0  0  0  0  0  0  0  0  0  0
  2  1  1  0
  3  2  2  0
  4  3  1  0
  5 11  1  0
  5  4  2  0
  6  5  1  0
  7  6  1  0
  7  8  1  1
  9  7  1  0
 10  9  2  0
 11 12  2  0
 12  2  1  0
 13  9  1  0
 14 13  1  0
 14 15  1  1
 16 15  1  0
 16 17  2  0
 18 17  1  0
 19 18  2  0
 20 21  2  0
 20 19  1  0
 21 16  1  0
 22 14  1  0
 23 22  2  0
 25 24  1  0
 25 26  2  0
 27 26  1  0
 28 27  2  0
 29 28  1  0
 30 29  1  1
 30 31  1  0
 31 22  1  0
 32 30  1  0
 32 33  1  0
 34 35  2  0
 34 28  1  0
 35 25  1  0
 36 32  2  0
M  END
$$$$
