YFY.pdb
     RDKit          3D

 36 38  0  0  1  0  0  0  0  0999 V2000
    6.8472  -13.7472   15.5364 O   0  0  0  0  0  0  0  0  0  0  0  0
    7.6969  -14.0714   16.5725 C   0  0  0  0  0  0  0  0  0  0  0  0
    7.8709  -13.1632   17.5763 C   0  0  0  0  0  0  0  0  0  0  0  0
    8.7171  -13.4771   18.6154 C   0  0  0  0  0  0  0  0  0  0  0  0
    9.3758  -14.6824   18.6438 C   0  0  0  0  0  0  0  0  0  0  0  0
   10.2917  -14.9985   19.7892 C   0  0  0  0  0  0  0  0  0  0  0  0
    9.5938  -16.0194   20.6490 C   0  0  2  0  0  0  0  0  0  0  0  0
    8.3066  -16.3552   20.0881 N   0  0  0  0  0  0  0  0  0  0  0  0
    9.4998  -15.6366   22.0766 C   0  0  0  0  0  0  0  0  0  0  0  0
   10.5604  -15.7295   22.7733 O   0  0  0  0  0  0  0  0  0  0  0  0
    9.1944  -15.5882   17.6309 C   0  0  0  0  0  0  0  0  0  0  0  0
    8.3491  -15.2789   16.5892 C   0  0  0  0  0  0  0  0  0  0  0  0
    8.3096  -15.1780   22.6970 N   0  0  0  0  0  0  0  0  0  0  0  0
    8.2347  -14.6839   24.0331 C   0  0  1  0  0  0  0  0  0  0  0  0
    7.3550  -13.4573   24.0769 C   0  0  0  0  0  0  0  0  0  0  0  0
    7.2218  -12.8606   25.3989 C   0  0  0  0  0  0  0  0  0  0  0  0
    8.1913  -12.0735   25.9950 C   0  0  0  0  0  0  0  0  0  0  0  0
    8.0493  -11.5194   27.2407 C   0  0  0  0  0  0  0  0  0  0  0  0
    6.9012  -11.7373   27.9569 C   0  0  0  0  0  0  0  0  0  0  0  0
    5.9127  -12.5125   27.4035 C   0  0  0  0  0  0  0  0  0  0  0  0
    6.0746  -13.0706   26.1300 C   0  0  0  0  0  0  0  0  0  0  0  0
    7.9252  -15.6708   25.0696 C   0  0  0  0  0  0  0  0  0  0  0  0
    6.8181  -16.2735   25.1774 O   0  0  0  0  0  0  0  0  0  0  0  0
   10.2088  -23.7293   26.9531 O   0  0  0  0  0  0  0  0  0  0  0  0
    9.9993  -22.4152   26.5356 C   0  0  0  0  0  0  0  0  0  0  0  0
   10.0295  -22.0499   25.2118 C   0  0  0  0  0  0  0  0  0  0  0  0
    9.8152  -20.7355   24.8577 C   0  0  0  0  0  0  0  0  0  0  0  0
    9.5635  -19.7258   25.7802 C   0  0  0  0  0  0  0  0  0  0  0  0
    9.3471  -18.3242   25.3742 C   0  0  0  0  0  0  0  0  0  0  0  0
    9.0225  -17.4087   26.5467 C   0  0  2  0  0  0  0  0  0  0  0  0
    8.8844  -16.0281   26.0536 N   0  0  0  0  0  0  0  0  0  0  0  0
   10.1708  -17.4199   27.4652 C   0  0  0  0  0  0  0  0  0  0  0  0
   11.4340  -16.9256   27.1758 O   0  0  0  0  0  0  0  0  0  0  0  0
    9.5396  -20.1287   27.1081 C   0  0  0  0  0  0  0  0  0  0  0  0
    9.7520  -21.4391   27.4757 C   0  0  0  0  0  0  0  0  0  0  0  0
   10.0214  -17.9123   28.6105 O   0  0  0  0  0  0  0  0  0  0  0  0
  2  1  1  0
  3  2  2  0
  4  3  1  0
  5 11  1  0
  5  4  2  0
  6  5  1  0
  7  6  1  0
  7  8  1  6
  9  7  1  0
 10  9  2  0
 11 12  2  0
 12  2  1  0
 13  9  1  0
 14 13  1  0
 14 15  1  6
 16 15  1  0
 16 17  2  0
 18 17  1  0
 19 18  2  0
 20 21  2  0
 20 19  1  0
 21 16  1  0
 22 14  1  0
 23 22  2  0
 25 24  1  0
 25 26  2  0
 27 26  1  0
 28 27  2  0
 29 28  1  0
 30 29  1  6
 30 31  1  0
 31 22  1  0
 32 30  1  0
 32 33  1  0
 34 35  2  0
 34 28  1  0
 35 25  1  0
 36 32  2  0
M  END
$$$$
