YFY.pdb
     RDKit          3D

 36 38  0  0  1  0  0  0  0  0999 V2000
    5.4174  -22.6262   18.7551 O   0  0  0  0  0  0  0  0  0  0  0  0
    6.0235  -21.6831   19.5575 C   0  0  0  0  0  0  0  0  0  0  0  0
    7.3855  -21.6845   19.6440 C   0  0  0  0  0  0  0  0  0  0  0  0
    8.0004  -20.7470   20.4423 C   0  0  0  0  0  0  0  0  0  0  0  0
    7.2584  -19.8254   21.1405 C   0  0  0  0  0  0  0  0  0  0  0  0
    7.9552  -18.8143   22.0026 C   0  0  0  0  0  0  0  0  0  0  0  0
    8.2440  -17.6153   21.1383 C   0  0  2  0  0  0  0  0  0  0  0  0
    9.1445  -17.9712   20.0674 N   0  0  0  0  0  0  0  0  0  0  0  0
    8.7133  -16.4311   21.8940 C   0  0  0  0  0  0  0  0  0  0  0  0
    9.9518  -16.3792   22.1808 O   0  0  0  0  0  0  0  0  0  0  0  0
    5.8908  -19.8319   21.0472 C   0  0  0  0  0  0  0  0  0  0  0  0
    5.2709  -20.7677   20.2499 C   0  0  0  0  0  0  0  0  0  0  0  0
    7.8686  -15.3689   22.3064 N   0  0  0  0  0  0  0  0  0  0  0  0
    8.0333  -14.6297   23.5154 C   0  0  1  0  0  0  0  0  0  0  0  0
    6.9184  -13.6208   23.6546 C   0  0  0  0  0  0  0  0  0  0  0  0
    6.9708  -12.8330   24.8786 C   0  0  0  0  0  0  0  0  0  0  0  0
    7.8978  -11.8338   25.1179 C   0  0  0  0  0  0  0  0  0  0  0  0
    7.9326  -11.1017   26.2762 C   0  0  0  0  0  0  0  0  0  0  0  0
    7.0168  -11.3476   27.2659 C   0  0  0  0  0  0  0  0  0  0  0  0
    6.0787  -12.3304   27.0706 C   0  0  0  0  0  0  0  0  0  0  0  0
    6.0577  -13.0685   25.8814 C   0  0  0  0  0  0  0  0  0  0  0  0
    8.2722  -15.4179   24.7261 C   0  0  0  0  0  0  0  0  0  0  0  0
    7.4337  -16.2137   25.2401 O   0  0  0  0  0  0  0  0  0  0  0  0
   10.1579  -21.2208   30.6077 O   0  0  0  0  0  0  0  0  0  0  0  0
    9.9006  -20.2880   29.6033 C   0  0  0  0  0  0  0  0  0  0  0  0
   10.4748  -19.0402   29.5932 C   0  0  0  0  0  0  0  0  0  0  0  0
   10.1834  -18.1591   28.5744 C   0  0  0  0  0  0  0  0  0  0  0  0
    9.3207  -18.4599   27.5260 C   0  0  0  0  0  0  0  0  0  0  0  0
    9.0187  -17.4937   26.4529 C   0  0  0  0  0  0  0  0  0  0  0  0
    9.8105  -16.1992   26.5780 C   0  0  2  0  0  0  0  0  0  0  0  0
    9.5063  -15.3373   25.4235 N   0  0  0  0  0  0  0  0  0  0  0  0
   11.2410  -16.5303   26.4970 C   0  0  0  0  0  0  0  0  0  0  0  0
   12.0595  -16.8199   27.5787 O   0  0  0  0  0  0  0  0  0  0  0  0
    8.7582  -19.7280   27.5665 C   0  0  0  0  0  0  0  0  0  0  0  0
    9.0410  -20.6183   28.5788 C   0  0  0  0  0  0  0  0  0  0  0  0
   11.7896  -16.5593   25.3681 O   0  0  0  0  0  0  0  0  0  0  0  0
  2  1  1  0
  3  2  2  0
  4  3  1  0
  5 11  1  0
  5  4  2  0
  6  5  1  0
  7  6  1  0
  7  8  1  6
  9  7  1  0
 10  9  2  0
 11 12  2  0
 12  2  1  0
 13  9  1  0
 14 13  1  0
 14 15  1  1
 16 15  1  0
 16 17  2  0
 18 17  1  0
 19 18  2  0
 20 21  2  0
 20 19  1  0
 21 16  1  0
 22 14  1  0
 23 22  2  0
 25 24  1  0
 25 26  2  0
 27 26  1  0
 28 27  2  0
 29 28  1  0
 30 29  1  6
 30 31  1  0
 31 22  1  0
 32 30  1  0
 32 33  1  0
 34 35  2  0
 34 28  1  0
 35 25  1  0
 36 32  2  0
M  END
$$$$
