YFY.pdb
     RDKit          3D

 36 38  0  0  1  0  0  0  0  0999 V2000
    6.8179  -23.8180   20.0794 O   0  0  0  0  0  0  0  0  0  0  0  0
    7.3774  -22.7062   20.6722 C   0  0  0  0  0  0  0  0  0  0  0  0
    6.5712  -21.8923   21.4140 C   0  0  0  0  0  0  0  0  0  0  0  0
    7.1200  -20.7796   22.0101 C   0  0  0  0  0  0  0  0  0  0  0  0
    8.4552  -20.4916   21.8624 C   0  0  0  0  0  0  0  0  0  0  0  0
    9.0269  -19.2725   22.5240 C   0  0  0  0  0  0  0  0  0  0  0  0
    8.7771  -18.1073   21.6031 C   0  0  2  0  0  0  0  0  0  0  0  0
    9.5101  -18.2732   20.3704 N   0  0  0  0  0  0  0  0  0  0  0  0
    9.0230  -16.7869   22.2273 C   0  0  0  0  0  0  0  0  0  0  0  0
   10.2247  -16.3691   22.2467 O   0  0  0  0  0  0  0  0  0  0  0  0
    9.2569  -21.3152   21.1154 C   0  0  0  0  0  0  0  0  0  0  0  0
    8.7127  -22.4294   20.5171 C   0  0  0  0  0  0  0  0  0  0  0  0
    8.0058  -15.9767   22.7935 N   0  0  0  0  0  0  0  0  0  0  0  0
    8.1639  -15.1896   23.9728 C   0  0  1  0  0  0  0  0  0  0  0  0
    6.9922  -14.2487   24.1214 C   0  0  0  0  0  0  0  0  0  0  0  0
    7.0381  -13.4164   25.3157 C   0  0  0  0  0  0  0  0  0  0  0  0
    7.9499  -12.3943   25.5134 C   0  0  0  0  0  0  0  0  0  0  0  0
    7.9788  -11.6202   26.6442 C   0  0  0  0  0  0  0  0  0  0  0  0
    7.0723  -11.8448   27.6475 C   0  0  0  0  0  0  0  0  0  0  0  0
    6.1493  -12.8491   27.4933 C   0  0  0  0  0  0  0  0  0  0  0  0
    6.1342  -13.6301   26.3317 C   0  0  0  0  0  0  0  0  0  0  0  0
    8.4937  -15.9214   25.1975 C   0  0  0  0  0  0  0  0  0  0  0  0
    7.6939  -16.6832   25.8144 O   0  0  0  0  0  0  0  0  0  0  0  0
   15.1824  -15.3457   23.1678 O   0  0  0  0  0  0  0  0  0  0  0  0
   14.2039  -15.9066   23.9883 C   0  0  0  0  0  0  0  0  0  0  0  0
   13.1290  -16.5977   23.4848 C   0  0  0  0  0  0  0  0  0  0  0  0
   12.1924  -17.1306   24.3440 C   0  0  0  0  0  0  0  0  0  0  0  0
   12.2672  -17.0101   25.7274 C   0  0  0  0  0  0  0  0  0  0  0  0
   11.2450  -17.5824   26.6240 C   0  0  0  0  0  0  0  0  0  0  0  0
   10.1514  -16.5882   26.9901 C   0  0  2  0  0  0  0  0  0  0  0  0
    9.7800  -15.8201   25.7900 N   0  0  0  0  0  0  0  0  0  0  0  0
   10.7117  -15.6286   27.9533 C   0  0  0  0  0  0  0  0  0  0  0  0
   10.8275  -14.2617   27.7485 O   0  0  0  0  0  0  0  0  0  0  0  0
   13.3651  -16.3066   26.2027 C   0  0  0  0  0  0  0  0  0  0  0  0
   14.3084  -15.7691   25.3550 C   0  0  0  0  0  0  0  0  0  0  0  0
   11.1265  -16.0568   29.0583 O   0  0  0  0  0  0  0  0  0  0  0  0
  2  1  1  0
  3  2  2  0
  4  3  1  0
  5 11  1  0
  5  4  2  0
  6  5  1  0
  7  6  1  0
  7  8  1  6
  9  7  1  0
 10  9  2  0
 11 12  2  0
 12  2  1  0
 13  9  1  0
 14 13  1  0
 14 15  1  1
 16 15  1  0
 16 17  2  0
 18 17  1  0
 19 18  2  0
 20 21  2  0
 20 19  1  0
 21 16  1  0
 22 14  1  0
 23 22  2  0
 25 24  1  0
 25 26  2  0
 27 26  1  0
 28 27  2  0
 29 28  1  0
 30 29  1  6
 30 31  1  0
 31 22  1  0
 32 30  1  0
 32 33  1  0
 34 35  2  0
 34 28  1  0
 35 25  1  0
 36 32  2  0
M  END
$$$$
