YFY.pdb
     RDKit          3D

 36 38  0  0  1  0  0  0  0  0999 V2000
   10.5705  -22.1529   15.5482 O   0  0  0  0  0  0  0  0  0  0  0  0
   10.5685  -21.3500   16.6690 C   0  0  0  0  0  0  0  0  0  0  0  0
    9.4052  -21.2192   17.3705 C   0  0  0  0  0  0  0  0  0  0  0  0
    9.3926  -20.4199   18.4910 C   0  0  0  0  0  0  0  0  0  0  0  0
   10.5295  -19.7647   18.8977 C   0  0  0  0  0  0  0  0  0  0  0  0
   10.4872  -18.9006   20.1235 C   0  0  0  0  0  0  0  0  0  0  0  0
    9.9925  -17.5441   19.6953 C   0  0  2  0  0  0  0  0  0  0  0  0
   10.8042  -17.0285   18.6185 N   0  0  0  0  0  0  0  0  0  0  0  0
    9.8588  -16.5763   20.8085 C   0  0  0  0  0  0  0  0  0  0  0  0
   10.7456  -15.6683   20.8975 O   0  0  0  0  0  0  0  0  0  0  0  0
   11.6933  -19.9025   18.1865 C   0  0  0  0  0  0  0  0  0  0  0  0
   11.7110  -20.7008   17.0650 C   0  0  0  0  0  0  0  0  0  0  0  0
    8.8107  -16.6075   21.7636 N   0  0  0  0  0  0  0  0  0  0  0  0
    8.7531  -15.7822   22.9258 C   0  0  1  0  0  0  0  0  0  0  0  0
    7.4738  -14.9799   22.9211 C   0  0  0  0  0  0  0  0  0  0  0  0
    7.2532  -14.1943   24.1276 C   0  0  0  0  0  0  0  0  0  0  0  0
    6.7194  -14.7048   25.2978 C   0  0  0  0  0  0  0  0  0  0  0  0
    6.5186  -13.9507   26.4247 C   0  0  0  0  0  0  0  0  0  0  0  0
    6.8531  -12.6215   26.4242 C   0  0  0  0  0  0  0  0  0  0  0  0
    7.3860  -12.0733   25.2840 C   0  0  0  0  0  0  0  0  0  0  0  0
    7.5842  -12.8582   24.1421 C   0  0  0  0  0  0  0  0  0  0  0  0
    9.0311  -16.4445   24.2018 C   0  0  0  0  0  0  0  0  0  0  0  0
    8.6894  -17.6296   24.4835 O   0  0  0  0  0  0  0  0  0  0  0  0
    9.6801  -15.7196   31.7059 O   0  0  0  0  0  0  0  0  0  0  0  0
   10.1613  -15.5467   30.4083 C   0  0  0  0  0  0  0  0  0  0  0  0
   10.3436  -16.5991   29.5446 C   0  0  0  0  0  0  0  0  0  0  0  0
   10.8224  -16.3683   28.2731 C   0  0  0  0  0  0  0  0  0  0  0  0
   11.1426  -15.1025   27.7943 C   0  0  0  0  0  0  0  0  0  0  0  0
   11.6630  -14.8848   26.4312 C   0  0  0  0  0  0  0  0  0  0  0  0
   11.1804  -15.9314   25.4362 C   0  0  2  0  0  0  0  0  0  0  0  0
    9.7294  -15.7742   25.2405 N   0  0  0  0  0  0  0  0  0  0  0  0
   11.3881  -17.2587   26.0341 C   0  0  0  0  0  0  0  0  0  0  0  0
   10.3821  -18.1077   26.4711 O   0  0  0  0  0  0  0  0  0  0  0  0
   10.9468  -14.0622   28.6917 C   0  0  0  0  0  0  0  0  0  0  0  0
   10.4686  -14.2790   29.9652 C   0  0  0  0  0  0  0  0  0  0  0  0
   12.5627  -17.6803   26.1716 O   0  0  0  0  0  0  0  0  0  0  0  0
  2  1  1  0
  3  2  2  0
  4  3  1  0
  5 11  1  0
  5  4  2  0
  6  5  1  0
  7  6  1  0
  7  8  1  6
  9  7  1  0
 10  9  2  0
 11 12  2  0
 12  2  1  0
 13  9  1  0
 14 13  1  0
 14 15  1  1
 16 15  1  0
 16 17  2  0
 18 17  1  0
 19 18  2  0
 20 21  2  0
 20 19  1  0
 21 16  1  0
 22 14  1  0
 23 22  2  0
 25 24  1  0
 25 26  2  0
 27 26  1  0
 28 27  2  0
 29 28  1  0
 30 29  1  1
 30 31  1  0
 31 22  1  0
 32 30  1  0
 32 33  1  0
 34 35  2  0
 34 28  1  0
 35 25  1  0
 36 32  2  0
M  END
$$$$
