YFY.pdb
     RDKit          3D

 36 38  0  0  1  0  0  0  0  0999 V2000
   11.8748  -20.7080   14.7507 O   0  0  0  0  0  0  0  0  0  0  0  0
   11.7255  -19.7755   15.7551 C   0  0  0  0  0  0  0  0  0  0  0  0
   11.5974  -18.4622   15.4063 C   0  0  0  0  0  0  0  0  0  0  0  0
   11.4478  -17.5232   16.4015 C   0  0  0  0  0  0  0  0  0  0  0  0
   11.4276  -17.8989   17.7228 C   0  0  0  0  0  0  0  0  0  0  0  0
   11.2624  -16.8542   18.7868 C   0  0  0  0  0  0  0  0  0  0  0  0
   10.3315  -17.4205   19.8265 C   0  0  2  0  0  0  0  0  0  0  0  0
    9.0523  -17.7388   19.2377 N   0  0  0  0  0  0  0  0  0  0  0  0
   10.1967  -16.5743   21.0346 C   0  0  0  0  0  0  0  0  0  0  0  0
   11.2714  -16.1618   21.5768 O   0  0  0  0  0  0  0  0  0  0  0  0
   11.5570  -19.2205   18.0631 C   0  0  0  0  0  0  0  0  0  0  0  0
   11.7069  -20.1636   17.0714 C   0  0  0  0  0  0  0  0  0  0  0  0
    8.9532  -16.2047   21.6080 N   0  0  0  0  0  0  0  0  0  0  0  0
    8.8116  -15.4488   22.8096 C   0  0  1  0  0  0  0  0  0  0  0  0
    7.3941  -14.9428   22.9321 C   0  0  0  0  0  0  0  0  0  0  0  0
    7.1649  -14.0690   24.0746 C   0  0  0  0  0  0  0  0  0  0  0  0
    6.5761  -14.4790   25.2579 C   0  0  0  0  0  0  0  0  0  0  0  0
    6.3680  -13.6428   26.3239 C   0  0  0  0  0  0  0  0  0  0  0  0
    6.7514  -12.3292   26.2449 C   0  0  0  0  0  0  0  0  0  0  0  0
    7.3398  -11.8795   25.0891 C   0  0  0  0  0  0  0  0  0  0  0  0
    7.5446  -12.7475   24.0100 C   0  0  0  0  0  0  0  0  0  0  0  0
    9.3233  -16.0753   24.0301 C   0  0  0  0  0  0  0  0  0  0  0  0
    8.9479  -17.2008   24.4695 O   0  0  0  0  0  0  0  0  0  0  0  0
   11.3571  -16.2463   32.5651 O   0  0  0  0  0  0  0  0  0  0  0  0
   11.2662  -15.9098   31.2147 C   0  0  0  0  0  0  0  0  0  0  0  0
   11.7751  -16.7099   30.2209 C   0  0  0  0  0  0  0  0  0  0  0  0
   11.6561  -16.3263   28.9026 C   0  0  0  0  0  0  0  0  0  0  0  0
   11.0366  -15.1475   28.5018 C   0  0  0  0  0  0  0  0  0  0  0  0
   10.9317  -14.7562   27.0833 C   0  0  0  0  0  0  0  0  0  0  0  0
   10.6899  -15.9396   26.1562 C   0  0  2  0  0  0  0  0  0  0  0  0
   10.3112  -15.4366   24.8251 N   0  0  0  0  0  0  0  0  0  0  0  0
    9.5367  -16.6933   26.6706 C   0  0  0  0  0  0  0  0  0  0  0  0
    8.2607  -16.1811   26.8530 O   0  0  0  0  0  0  0  0  0  0  0  0
   10.5336  -14.3628   29.5301 C   0  0  0  0  0  0  0  0  0  0  0  0
   10.6457  -14.7346   30.8517 C   0  0  0  0  0  0  0  0  0  0  0  0
    9.6944  -17.9005   26.9774 O   0  0  0  0  0  0  0  0  0  0  0  0
  2  1  1  0
  3  2  2  0
  4  3  1  0
  5 11  1  0
  5  4  2  0
  6  5  1  0
  7  6  1  0
  7  8  1  6
  9  7  1  0
 10  9  2  0
 11 12  2  0
 12  2  1  0
 13  9  1  0
 14 13  1  0
 14 15  1  1
 16 15  1  0
 16 17  2  0
 18 17  1  0
 19 18  2  0
 20 21  2  0
 20 19  1  0
 21 16  1  0
 22 14  1  0
 23 22  2  0
 25 24  1  0
 25 26  2  0
 27 26  1  0
 28 27  2  0
 29 28  1  0
 30 29  1  1
 30 31  1  0
 31 22  1  0
 32 30  1  0
 32 33  1  0
 34 35  2  0
 34 28  1  0
 35 25  1  0
 36 32  2  0
M  END
$$$$
