YFY.pdb
     RDKit          3D

 36 38  0  0  1  0  0  0  0  0999 V2000
    5.7007  -25.5898   26.2147 O   0  0  0  0  0  0  0  0  0  0  0  0
    6.1933  -24.3470   25.8778 C   0  0  0  0  0  0  0  0  0  0  0  0
    5.7191  -23.2579   26.5499 C   0  0  0  0  0  0  0  0  0  0  0  0
    6.2044  -22.0126   26.2211 C   0  0  0  0  0  0  0  0  0  0  0  0
    7.1491  -21.8661   25.2345 C   0  0  0  0  0  0  0  0  0  0  0  0
    7.6610  -20.4967   24.8975 C   0  0  0  0  0  0  0  0  0  0  0  0
    6.5608  -19.7786   24.1612 C   0  0  2  0  0  0  0  0  0  0  0  0
    6.2523  -20.4602   22.9265 N   0  0  0  0  0  0  0  0  0  0  0  0
    6.8213  -18.3354   23.9541 C   0  0  0  0  0  0  0  0  0  0  0  0
    7.3977  -17.9996   22.8706 O   0  0  0  0  0  0  0  0  0  0  0  0
    7.6193  -22.9661   24.5651 C   0  0  0  0  0  0  0  0  0  0  0  0
    7.1370  -24.2140   24.8902 C   0  0  0  0  0  0  0  0  0  0  0  0
    6.4663  -17.3250   24.8840 N   0  0  0  0  0  0  0  0  0  0  0  0
    7.0174  -16.0092   24.8956 C   0  0  1  0  0  0  0  0  0  0  0  0
    6.1342  -15.0912   25.7065 C   0  0  0  0  0  0  0  0  0  0  0  0
    6.6101  -13.7170   25.7875 C   0  0  0  0  0  0  0  0  0  0  0  0
    6.5082  -12.9272   26.9192 C   0  0  0  0  0  0  0  0  0  0  0  0
    6.9618  -11.6350   26.9781 C   0  0  0  0  0  0  0  0  0  0  0  0
    7.5505  -11.0683   25.8777 C   0  0  0  0  0  0  0  0  0  0  0  0
    7.6722  -11.8161   24.7330 C   0  0  0  0  0  0  0  0  0  0  0  0
    7.2033  -13.1344   24.6905 C   0  0  0  0  0  0  0  0  0  0  0  0
    8.4396  -15.9083   25.2293 C   0  0  0  0  0  0  0  0  0  0  0  0
    8.8874  -15.5749   26.3646 O   0  0  0  0  0  0  0  0  0  0  0  0
    9.8488  -14.6053   30.7404 O   0  0  0  0  0  0  0  0  0  0  0  0
   10.2200  -15.1061   29.4927 C   0  0  0  0  0  0  0  0  0  0  0  0
   10.5758  -14.2886   28.4478 C   0  0  0  0  0  0  0  0  0  0  0  0
   10.9338  -14.8398   27.2365 C   0  0  0  0  0  0  0  0  0  0  0  0
   10.9585  -16.2094   26.9966 C   0  0  0  0  0  0  0  0  0  0  0  0
   11.3365  -16.7726   25.6866 C   0  0  0  0  0  0  0  0  0  0  0  0
   10.8679  -15.9201   24.5152 C   0  0  2  0  0  0  0  0  0  0  0  0
    9.4423  -16.1911   24.2647 N   0  0  0  0  0  0  0  0  0  0  0  0
   11.6006  -16.3517   23.3155 C   0  0  0  0  0  0  0  0  0  0  0  0
   11.0383  -16.9844   22.2168 O   0  0  0  0  0  0  0  0  0  0  0  0
   10.5938  -17.0064   28.0727 C   0  0  0  0  0  0  0  0  0  0  0  0
   10.2341  -16.4684   29.2887 C   0  0  0  0  0  0  0  0  0  0  0  0
   12.8372  -16.1421   23.2571 O   0  0  0  0  0  0  0  0  0  0  0  0
  2  1  1  0
  3  2  2  0
  4  3  1  0
  5 11  1  0
  5  4  2  0
  6  5  1  0
  7  6  1  0
  7  8  1  6
  9  7  1  0
 10  9  2  0
 11 12  2  0
 12  2  1  0
 13  9  1  0
 14 13  1  0
 14 15  1  1
 16 15  1  0
 16 17  2  0
 18 17  1  0
 19 18  2  0
 20 21  2  0
 20 19  1  0
 21 16  1  0
 22 14  1  0
 23 22  2  0
 25 24  1  0
 25 26  2  0
 27 26  1  0
 28 27  2  0
 29 28  1  0
 30 29  1  1
 30 31  1  0
 31 22  1  0
 32 30  1  0
 32 33  1  0
 34 35  2  0
 34 28  1  0
 35 25  1  0
 36 32  2  0
M  END
$$$$
