WDW.pdb
     RDKit          3D

 37 40  0  0  1  0  0  0  0  0999 V2000
   25.2492  -19.1915   -9.1018 N   0  0  0  0  0  0  0  0  0  0  0  0
   26.2670  -20.0044   -9.6747 C   0  0  1  0  0  0  0  0  0  0  0  0
   26.5211  -21.2116   -8.8464 C   0  0  0  0  0  0  0  0  0  0  0  0
   26.5018  -21.0612   -7.4025 C   0  0  0  0  0  0  0  0  0  0  0  0
   25.5299  -21.2564   -6.4870 C   0  0  0  0  0  0  0  0  0  0  0  0
   26.0125  -20.9438   -5.2464 N   0  0  0  0  0  0  0  0  0  0  0  0
   27.3000  -20.5472   -5.3853 C   0  0  0  0  0  0  0  0  0  0  0  0
   28.2450  -20.1191   -4.4594 C   0  0  0  0  0  0  0  0  0  0  0  0
   29.5133  -19.7523   -4.8243 C   0  0  0  0  0  0  0  0  0  0  0  0
   29.8567  -19.8154   -6.1726 C   0  0  0  0  0  0  0  0  0  0  0  0
   28.9003  -20.2471   -7.0915 C   0  0  0  0  0  0  0  0  0  0  0  0
   27.6340  -20.6086   -6.7028 C   0  0  0  0  0  0  0  0  0  0  0  0
   26.2981  -20.1512  -11.1192 C   0  0  0  0  0  0  0  0  0  0  0  0
   25.3775  -19.5905  -11.8103 O   0  0  0  0  0  0  0  0  0  0  0  0
   27.2470  -20.8688  -11.9019 N   0  0  0  0  0  0  0  0  0  0  0  0
   27.2842  -20.8790  -13.3415 C   0  0  1  0  0  0  0  0  0  0  0  0
   28.6157  -21.3679  -13.8594 C   0  0  0  0  0  0  0  0  0  0  0  0
   28.6832  -21.1512  -15.3150 C   0  0  0  0  0  0  0  0  0  0  0  0
   28.0604  -20.1540  -15.8035 O   0  0  0  0  0  0  0  0  0  0  0  0
   26.2096  -21.5616  -14.0308 C   0  0  0  0  0  0  0  0  0  0  0  0
   25.9536  -22.7463  -13.5901 O   0  0  0  0  0  0  0  0  0  0  0  0
   29.3812  -21.9575  -16.2099 O   0  0  0  0  0  0  0  0  0  0  0  0
   25.3873  -21.1624  -15.1024 N   0  0  0  0  0  0  0  0  0  0  0  0
   24.0282  -20.6885  -14.8773 C   0  0  1  0  0  0  0  0  0  0  0  0
   23.8970  -19.6460  -13.8187 C   0  0  0  0  0  0  0  0  0  0  0  0
   22.7077  -19.8064  -12.9495 C   0  0  0  0  0  0  0  0  0  0  0  0
   22.4322  -20.7281  -11.9908 C   0  0  0  0  0  0  0  0  0  0  0  0
   21.2057  -20.5064  -11.4495 N   0  0  0  0  0  0  0  0  0  0  0  0
   20.6958  -19.4231  -12.0769 C   0  0  0  0  0  0  0  0  0  0  0  0
   19.4858  -18.7552  -11.9285 C   0  0  0  0  0  0  0  0  0  0  0  0
   19.1609  -17.6460  -12.6889 C   0  0  0  0  0  0  0  0  0  0  0  0
   20.0761  -17.1916  -13.6264 C   0  0  0  0  0  0  0  0  0  0  0  0
   21.2711  -17.8578  -13.7677 C   0  0  0  0  0  0  0  0  0  0  0  0
   21.5891  -18.9760  -12.9957 C   0  0  0  0  0  0  0  0  0  0  0  0
   23.4067  -20.1583  -16.1164 C   0  0  0  0  0  0  0  0  0  0  0  0
   23.9023  -19.2937  -16.8651 O   0  0  0  0  0  0  0  0  0  0  0  0
   22.1475  -20.7133  -16.4259 O   0  0  0  0  0  0  0  0  0  0  0  0
  2  1  1  6
  2  3  1  0
  3  4  1  0
  4 12  1  0
  4  5  2  0
  5  6  1  0
  7  8  2  0
  7  6  1  0
  9  8  1  0
 10  9  2  0
 11 10  1  0
 11 12  2  0
 12  7  1  0
 13 14  2  0
 13  2  1  0
 15 13  1  0
 16 15  1  0
 17 18  1  0
 16 17  1  1
 18 19  2  0
 20 16  1  0
 20 21  2  0
 22 18  1  0
 23 20  1  0
 24 25  1  1
 24 23  1  0
 25 26  1  0
 26 34  1  0
 26 27  2  0
 27 28  1  0
 29 28  1  0
 29 30  2  0
 31 30  1  0
 32 31  2  0
 33 34  2  0
 33 32  1  0
 34 29  1  0
 35 24  1  0
 36 35  2  0
 37 35  1  0
M  END
$$$$
