WDW.pdb
     RDKit          3D

 37 40  0  0  1  0  0  0  0  0999 V2000
   19.3197  -27.8045   -9.5141 N   0  0  0  0  0  0  0  0  0  0  0  0
   18.3653  -26.7730   -9.2899 C   0  0  1  0  0  0  0  0  0  0  0  0
   17.4930  -26.5802  -10.4772 C   0  0  0  0  0  0  0  0  0  0  0  0
   18.1310  -26.2981  -11.7505 C   0  0  0  0  0  0  0  0  0  0  0  0
   18.4958  -27.0973  -12.7746 C   0  0  0  0  0  0  0  0  0  0  0  0
   19.0940  -26.3404  -13.7436 N   0  0  0  0  0  0  0  0  0  0  0  0
   19.1058  -25.0534  -13.3223 C   0  0  0  0  0  0  0  0  0  0  0  0
   19.5926  -23.8892  -13.9066 C   0  0  0  0  0  0  0  0  0  0  0  0
   19.5040  -22.6688  -13.2909 C   0  0  0  0  0  0  0  0  0  0  0  0
   18.9025  -22.6044  -12.0364 C   0  0  0  0  0  0  0  0  0  0  0  0
   18.4174  -23.7788  -11.4612 C   0  0  0  0  0  0  0  0  0  0  0  0
   18.5185  -24.9918  -12.0966 C   0  0  0  0  0  0  0  0  0  0  0  0
   17.7571  -26.6729   -7.9749 C   0  0  0  0  0  0  0  0  0  0  0  0
   16.5648  -27.1126   -7.8182 O   0  0  0  0  0  0  0  0  0  0  0  0
   18.3265  -26.1234   -6.7910 N   0  0  0  0  0  0  0  0  0  0  0  0
   17.6409  -26.0006   -5.5305 C   0  0  1  0  0  0  0  0  0  0  0  0
   18.5983  -25.6881   -4.4055 C   0  0  0  0  0  0  0  0  0  0  0  0
   19.4172  -26.8781   -4.1159 C   0  0  0  0  0  0  0  0  0  0  0  0
   19.0194  -28.0034   -4.5591 O   0  0  0  0  0  0  0  0  0  0  0  0
   16.5075  -25.1018   -5.4735 C   0  0  0  0  0  0  0  0  0  0  0  0
   16.7417  -23.9110   -5.9097 O   0  0  0  0  0  0  0  0  0  0  0  0
   20.6045  -26.8716   -3.3890 O   0  0  0  0  0  0  0  0  0  0  0  0
   15.1862  -25.2947   -5.0254 N   0  0  0  0  0  0  0  0  0  0  0  0
   14.2016  -24.2229   -5.0894 C   0  0  1  0  0  0  0  0  0  0  0  0
   13.7596  -23.8614   -6.4674 C   0  0  0  0  0  0  0  0  0  0  0  0
   13.1066  -24.9666   -7.2076 C   0  0  0  0  0  0  0  0  0  0  0  0
   12.6791  -26.1834   -6.7819 C   0  0  0  0  0  0  0  0  0  0  0  0
   12.1477  -26.8931   -7.8116 N   0  0  0  0  0  0  0  0  0  0  0  0
   12.2399  -26.1102   -8.9096 C   0  0  0  0  0  0  0  0  0  0  0  0
   11.8570  -26.3221  -10.2289 C   0  0  0  0  0  0  0  0  0  0  0  0
   12.0483  -25.3675  -11.2119 C   0  0  0  0  0  0  0  0  0  0  0  0
   12.6410  -24.1634  -10.8626 C   0  0  0  0  0  0  0  0  0  0  0  0
   13.0176  -23.9611   -9.5552 C   0  0  0  0  0  0  0  0  0  0  0  0
   12.8201  -24.9308   -8.5713 C   0  0  0  0  0  0  0  0  0  0  0  0
   12.9893  -24.5264   -4.2887 C   0  0  0  0  0  0  0  0  0  0  0  0
   12.6999  -25.6364   -3.8009 O   0  0  0  0  0  0  0  0  0  0  0  0
   12.1239  -23.4297   -4.0944 O   0  0  0  0  0  0  0  0  0  0  0  0
  2  1  1  6
  2  3  1  0
  3  4  1  0
  4 12  1  0
  4  5  2  0
  5  6  1  0
  7  8  2  0
  7  6  1  0
  9  8  1  0
 10  9  2  0
 11 10  1  0
 11 12  2  0
 12  7  1  0
 13 14  2  0
 13  2  1  0
 15 13  1  0
 16 15  1  0
 17 18  1  0
 16 17  1  1
 18 19  2  0
 20 16  1  0
 20 21  2  0
 22 18  1  0
 23 20  1  0
 24 25  1  6
 24 23  1  0
 25 26  1  0
 26 34  1  0
 26 27  2  0
 27 28  1  0
 29 28  1  0
 29 30  2  0
 31 30  1  0
 32 31  2  0
 33 34  2  0
 33 32  1  0
 34 29  1  0
 35 24  1  0
 36 35  2  0
 37 35  1  0
M  END
$$$$
