WDW.pdb
     RDKit          3D

 37 40  0  0  1  0  0  0  0  0999 V2000
   22.8592  -33.1167  -11.3041 N   0  0  0  0  0  0  0  0  0  0  0  0
   22.8364  -32.3600  -10.0991 C   0  0  1  0  0  0  0  0  0  0  0  0
   21.6585  -31.4552  -10.0546 C   0  0  0  0  0  0  0  0  0  0  0  0
   21.5001  -30.4926  -11.1298 C   0  0  0  0  0  0  0  0  0  0  0  0
   22.0544  -30.4102  -12.3572 C   0  0  0  0  0  0  0  0  0  0  0  0
   21.5944  -29.2848  -12.9829 N   0  0  0  0  0  0  0  0  0  0  0  0
   20.7438  -28.6540  -12.1387 C   0  0  0  0  0  0  0  0  0  0  0  0
   20.0105  -27.4792  -12.2652 C   0  0  0  0  0  0  0  0  0  0  0  0
   19.2001  -27.0110  -11.2651 C   0  0  0  0  0  0  0  0  0  0  0  0
   19.1152  -27.7464  -10.0853 C   0  0  0  0  0  0  0  0  0  0  0  0
   19.8547  -28.9234   -9.9709 C   0  0  0  0  0  0  0  0  0  0  0  0
   20.6621  -29.3729  -10.9865 C   0  0  0  0  0  0  0  0  0  0  0  0
   23.2375  -33.0163   -8.8672 C   0  0  0  0  0  0  0  0  0  0  0  0
   22.7424  -34.1660   -8.5983 O   0  0  0  0  0  0  0  0  0  0  0  0
   24.1368  -32.5321   -7.8749 N   0  0  0  0  0  0  0  0  0  0  0  0
   24.3408  -33.1395   -6.5852 C   0  0  1  0  0  0  0  0  0  0  0  0
   25.6625  -32.7293   -5.9809 C   0  0  0  0  0  0  0  0  0  0  0  0
   26.7260  -33.6161   -6.4839 C   0  0  0  0  0  0  0  0  0  0  0  0
   26.3864  -34.6267   -7.1798 O   0  0  0  0  0  0  0  0  0  0  0  0
   23.2864  -32.9910   -5.6045 C   0  0  0  0  0  0  0  0  0  0  0  0
   22.6597  -31.8648   -5.6536 O   0  0  0  0  0  0  0  0  0  0  0  0
   28.0878  -33.4362   -6.2578 O   0  0  0  0  0  0  0  0  0  0  0  0
   22.8176  -33.8605   -4.6005 N   0  0  0  0  0  0  0  0  0  0  0  0
   21.6863  -33.5008   -3.7559 C   0  0  1  0  0  0  0  0  0  0  0  0
   20.4247  -33.2035   -4.4941 C   0  0  0  0  0  0  0  0  0  0  0  0
   19.3201  -32.7097   -3.6387 C   0  0  0  0  0  0  0  0  0  0  0  0
   19.0882  -31.4760   -3.1203 C   0  0  0  0  0  0  0  0  0  0  0  0
   17.9532  -31.4744   -2.3732 N   0  0  0  0  0  0  0  0  0  0  0  0
   17.4569  -32.7309   -2.4205 C   0  0  0  0  0  0  0  0  0  0  0  0
   16.3257  -33.2984   -1.8457 C   0  0  0  0  0  0  0  0  0  0  0  0
   15.9993  -34.6306   -2.0270 C   0  0  0  0  0  0  0  0  0  0  0  0
   16.8313  -35.4184   -2.8084 C   0  0  0  0  0  0  0  0  0  0  0  0
   17.9489  -34.8497   -3.3735 C   0  0  0  0  0  0  0  0  0  0  0  0
   18.2692  -33.5047   -3.1842 C   0  0  0  0  0  0  0  0  0  0  0  0
   21.3860  -34.5460   -2.7458 C   0  0  0  0  0  0  0  0  0  0  0  0
   21.7539  -35.7356   -2.7998 O   0  0  0  0  0  0  0  0  0  0  0  0
   20.6137  -34.1014   -1.6524 O   0  0  0  0  0  0  0  0  0  0  0  0
  2  1  1  6
  2  3  1  0
  3  4  1  0
  4 12  1  0
  4  5  2  0
  5  6  1  0
  7  8  2  0
  7  6  1  0
  9  8  1  0
 10  9  2  0
 11 10  1  0
 11 12  2  0
 12  7  1  0
 13 14  2  0
 13  2  1  0
 15 13  1  0
 16 15  1  0
 17 18  1  0
 16 17  1  1
 18 19  2  0
 20 16  1  0
 20 21  2  0
 22 18  1  0
 23 20  1  0
 24 25  1  6
 24 23  1  0
 25 26  1  0
 26 34  1  0
 26 27  2  0
 27 28  1  0
 29 28  1  0
 29 30  2  0
 31 30  1  0
 32 31  2  0
 33 34  2  0
 33 32  1  0
 34 29  1  0
 35 24  1  0
 36 35  2  0
 37 35  1  0
M  END
$$$$
