WDW.pdb
     RDKit          3D

 37 40  0  0  1  0  0  0  0  0999 V2000
   24.3152  -15.9583  -18.0912 N   0  0  0  0  0  0  0  0  0  0  0  0
   23.4308  -17.0679  -18.1993 C   0  0  1  0  0  0  0  0  0  0  0  0
   23.9437  -18.0722  -19.1671 C   0  0  0  0  0  0  0  0  0  0  0  0
   24.3364  -17.6069  -20.4850 C   0  0  0  0  0  0  0  0  0  0  0  0
   25.5376  -17.5305  -21.0951 C   0  0  0  0  0  0  0  0  0  0  0  0
   25.3757  -16.9855  -22.3386 N   0  0  0  0  0  0  0  0  0  0  0  0
   24.0595  -16.7161  -22.5099 C   0  0  0  0  0  0  0  0  0  0  0  0
   23.3561  -16.1589  -23.5722 C   0  0  0  0  0  0  0  0  0  0  0  0
   22.0005  -15.9668  -23.5319 C   0  0  0  0  0  0  0  0  0  0  0  0
   21.3136  -16.3478  -22.3817 C   0  0  0  0  0  0  0  0  0  0  0  0
   22.0302  -16.9063  -21.3234 C   0  0  0  0  0  0  0  0  0  0  0  0
   23.3897  -17.0880  -21.3856 C   0  0  0  0  0  0  0  0  0  0  0  0
   22.7859  -17.5535  -16.9921 C   0  0  0  0  0  0  0  0  0  0  0  0
   23.4987  -17.7127  -15.9404 O   0  0  0  0  0  0  0  0  0  0  0  0
   21.4155  -17.8974  -16.8142 N   0  0  0  0  0  0  0  0  0  0  0  0
   20.8351  -18.3431  -15.5739 C   0  0  1  0  0  0  0  0  0  0  0  0
   19.3460  -18.0956  -15.5368 C   0  0  0  0  0  0  0  0  0  0  0  0
   19.0857  -16.7670  -14.9560 C   0  0  0  0  0  0  0  0  0  0  0  0
   19.8808  -16.3371  -14.0593 O   0  0  0  0  0  0  0  0  0  0  0  0
   21.1170  -19.7002  -15.1562 C   0  0  0  0  0  0  0  0  0  0  0  0
   20.8335  -20.6034  -16.0320 O   0  0  0  0  0  0  0  0  0  0  0  0
   18.0291  -15.9337  -15.3126 O   0  0  0  0  0  0  0  0  0  0  0  0
   21.6494  -20.2155  -13.9583 N   0  0  0  0  0  0  0  0  0  0  0  0
   21.8798  -21.6436  -13.7855 C   0  0  1  0  0  0  0  0  0  0  0  0
   23.1287  -21.9905  -13.0473 C   0  0  0  0  0  0  0  0  0  0  0  0
   23.3297  -21.2237  -11.7954 C   0  0  0  0  0  0  0  0  0  0  0  0
   22.4471  -20.5231  -11.0374 C   0  0  0  0  0  0  0  0  0  0  0  0
   23.0722  -19.9574   -9.9717 N   0  0  0  0  0  0  0  0  0  0  0  0
   24.3751  -20.3075  -10.0565 C   0  0  0  0  0  0  0  0  0  0  0  0
   25.4640  -20.0147   -9.2438 C   0  0  0  0  0  0  0  0  0  0  0  0
   26.7352  -20.4851   -9.5211 C   0  0  0  0  0  0  0  0  0  0  0  0
   26.9213  -21.2733  -10.6469 C   0  0  0  0  0  0  0  0  0  0  0  0
   25.8390  -21.5584  -11.4464 C   0  0  0  0  0  0  0  0  0  0  0  0
   24.5607  -21.0787  -11.1577 C   0  0  0  0  0  0  0  0  0  0  0  0
   20.7468  -22.3158  -13.1020 C   0  0  0  0  0  0  0  0  0  0  0  0
   19.7928  -21.7419  -12.5416 O   0  0  0  0  0  0  0  0  0  0  0  0
   20.8048  -23.7250  -13.1162 O   0  0  0  0  0  0  0  0  0  0  0  0
  2  1  1  1
  2  3  1  0
  3  4  1  0
  4 12  1  0
  4  5  2  0
  5  6  1  0
  7  8  2  0
  7  6  1  0
  9  8  1  0
 10  9  2  0
 11 10  1  0
 11 12  2  0
 12  7  1  0
 13 14  2  0
 13  2  1  0
 15 13  1  0
 16 15  1  0
 17 18  1  0
 16 17  1  6
 18 19  2  0
 20 16  1  0
 20 21  2  0
 22 18  1  0
 23 20  1  0
 24 25  1  1
 24 23  1  0
 25 26  1  0
 26 34  1  0
 26 27  2  0
 27 28  1  0
 29 28  1  0
 29 30  2  0
 31 30  1  0
 32 31  2  0
 33 34  2  0
 33 32  1  0
 34 29  1  0
 35 24  1  0
 36 35  2  0
 37 35  1  0
M  END
$$$$
