WDW.pdb
     RDKit          3D

 37 40  0  0  1  0  0  0  0  0999 V2000
   14.8337  -18.0748    3.3220 N   0  0  0  0  0  0  0  0  0  0  0  0
   16.1681  -18.1642    3.8082 C   0  0  1  0  0  0  0  0  0  0  0  0
   17.1087  -17.4099    2.9396 C   0  0  0  0  0  0  0  0  0  0  0  0
   17.8115  -18.1428    1.9020 C   0  0  0  0  0  0  0  0  0  0  0  0
   17.4251  -19.1432    1.0831 C   0  0  0  0  0  0  0  0  0  0  0  0
   18.4803  -19.5114    0.2953 N   0  0  0  0  0  0  0  0  0  0  0  0
   19.5399  -18.7347    0.6243 C   0  0  0  0  0  0  0  0  0  0  0  0
   20.8448  -18.6924    0.1454 C   0  0  0  0  0  0  0  0  0  0  0  0
   21.7754  -17.8137    0.6334 C   0  0  0  0  0  0  0  0  0  0  0  0
   21.3890  -16.9365    1.6438 C   0  0  0  0  0  0  0  0  0  0  0  0
   20.0773  -16.9881    2.1152 C   0  0  0  0  0  0  0  0  0  0  0  0
   19.1615  -17.8787    1.6118 C   0  0  0  0  0  0  0  0  0  0  0  0
   16.3815  -18.1178    5.2440 C   0  0  0  0  0  0  0  0  0  0  0  0
   15.5184  -17.5124    5.9706 O   0  0  0  0  0  0  0  0  0  0  0  0
   17.4672  -18.6698    5.9819 N   0  0  0  0  0  0  0  0  0  0  0  0
   17.5364  -18.7308    7.4190 C   0  0  1  0  0  0  0  0  0  0  0  0
   16.2973  -19.3609    8.0086 C   0  0  0  0  0  0  0  0  0  0  0  0
   16.2859  -19.1460    9.4661 C   0  0  0  0  0  0  0  0  0  0  0  0
   16.8204  -18.0837    9.9208 O   0  0  0  0  0  0  0  0  0  0  0  0
   18.7170  -19.3302    8.0043 C   0  0  0  0  0  0  0  0  0  0  0  0
   18.4784  -20.2494    8.8769 O   0  0  0  0  0  0  0  0  0  0  0  0
   15.7313  -20.0200   10.3969 O   0  0  0  0  0  0  0  0  0  0  0  0
   20.0883  -19.0897    7.7907 N   0  0  0  0  0  0  0  0  0  0  0  0
   20.6329  -17.7388    7.8192 C   0  0  1  0  0  0  0  0  0  0  0  0
   20.0010  -16.7896    6.8576 C   0  0  0  0  0  0  0  0  0  0  0  0
   20.5022  -15.3987    6.9559 C   0  0  0  0  0  0  0  0  0  0  0  0
   21.5173  -14.8755    7.6910 C   0  0  0  0  0  0  0  0  0  0  0  0
   21.6187  -13.5361    7.4852 N   0  0  0  0  0  0  0  0  0  0  0  0
   20.6498  -13.2057    6.6025 C   0  0  0  0  0  0  0  0  0  0  0  0
   20.2922  -11.9867    6.0382 C   0  0  0  0  0  0  0  0  0  0  0  0
   19.2473  -11.8719    5.1387 C   0  0  0  0  0  0  0  0  0  0  0  0
   18.5390  -13.0131    4.7936 C   0  0  0  0  0  0  0  0  0  0  0  0
   18.8984  -14.2156    5.3564 C   0  0  0  0  0  0  0  0  0  0  0  0
   19.9542  -14.3205    6.2629 C   0  0  0  0  0  0  0  0  0  0  0  0
   20.5580  -17.1323    9.1717 C   0  0  0  0  0  0  0  0  0  0  0  0
   21.1472  -16.0964    9.5370 O   0  0  0  0  0  0  0  0  0  0  0  0
   19.7371  -17.8287   10.0831 O   0  0  0  0  0  0  0  0  0  0  0  0
  2  1  1  1
  2  3  1  0
  3  4  1  0
  4 12  1  0
  4  5  2  0
  5  6  1  0
  7  8  2  0
  7  6  1  0
  9  8  1  0
 10  9  2  0
 11 10  1  0
 11 12  2  0
 12  7  1  0
 13 14  2  0
 13  2  1  0
 15 13  1  0
 16 15  1  0
 17 18  1  0
 16 17  1  6
 18 19  2  0
 20 16  1  0
 20 21  2  0
 22 18  1  0
 23 20  1  0
 24 25  1  6
 24 23  1  0
 25 26  1  0
 26 34  1  0
 26 27  2  0
 27 28  1  0
 29 28  1  0
 29 30  2  0
 31 30  1  0
 32 31  2  0
 33 34  2  0
 33 32  1  0
 34 29  1  0
 35 24  1  0
 36 35  2  0
 37 35  1  0
M  END
$$$$
