WDW.pdb
     RDKit          3D

 37 40  0  0  1  0  0  0  0  0999 V2000
   22.2667  -20.4881  -17.4042 N   0  0  0  0  0  0  0  0  0  0  0  0
   22.9095  -20.1012  -16.1950 C   0  0  1  0  0  0  0  0  0  0  0  0
   22.0899  -19.1172  -15.4412 C   0  0  0  0  0  0  0  0  0  0  0  0
   21.2675  -18.1935  -16.2018 C   0  0  0  0  0  0  0  0  0  0  0  0
   19.9310  -18.0913  -16.3567 C   0  0  0  0  0  0  0  0  0  0  0  0
   19.6557  -17.0585  -17.2094 N   0  0  0  0  0  0  0  0  0  0  0  0
   20.8317  -16.5080  -17.5943 C   0  0  0  0  0  0  0  0  0  0  0  0
   21.1269  -15.4492  -18.4462 C   0  0  0  0  0  0  0  0  0  0  0  0
   22.4129  -15.0547  -18.7050 C   0  0  0  0  0  0  0  0  0  0  0  0
   23.4524  -15.7454  -18.0867 C   0  0  0  0  0  0  0  0  0  0  0  0
   23.1434  -16.8049  -17.2339 C   0  0  0  0  0  0  0  0  0  0  0  0
   21.8464  -17.1838  -16.9904 C   0  0  0  0  0  0  0  0  0  0  0  0
   23.6198  -21.1170  -15.4382 C   0  0  0  0  0  0  0  0  0  0  0  0
   23.0617  -22.2574  -15.2725 O   0  0  0  0  0  0  0  0  0  0  0  0
   24.9006  -21.0102  -14.8249 N   0  0  0  0  0  0  0  0  0  0  0  0
   25.5447  -22.0613  -14.0805 C   0  0  1  0  0  0  0  0  0  0  0  0
   26.6244  -22.7358  -14.8926 C   0  0  0  0  0  0  0  0  0  0  0  0
   27.5680  -21.7198  -15.3906 C   0  0  0  0  0  0  0  0  0  0  0  0
   27.1440  -20.5289  -15.5414 O   0  0  0  0  0  0  0  0  0  0  0  0
   26.0540  -21.7313  -12.7662 C   0  0  0  0  0  0  0  0  0  0  0  0
   27.0458  -20.9069  -12.7641 O   0  0  0  0  0  0  0  0  0  0  0  0
   28.9010  -21.9591  -15.7127 O   0  0  0  0  0  0  0  0  0  0  0  0
   25.6586  -22.1500  -11.4808 N   0  0  0  0  0  0  0  0  0  0  0  0
   25.4089  -21.1884  -10.4154 C   0  0  1  0  0  0  0  0  0  0  0  0
   26.4216  -20.0987  -10.3069 C   0  0  0  0  0  0  0  0  0  0  0  0
   27.6698  -20.4935   -9.6128 C   0  0  0  0  0  0  0  0  0  0  0  0
   28.7011  -21.2747  -10.0260 C   0  0  0  0  0  0  0  0  0  0  0  0
   29.6415  -21.3841   -9.0513 N   0  0  0  0  0  0  0  0  0  0  0  0
   29.1973  -20.6575   -8.0016 C   0  0  0  0  0  0  0  0  0  0  0  0
   29.7473  -20.4154   -6.7481 C   0  0  0  0  0  0  0  0  0  0  0  0
   29.1110  -19.6261   -5.8067 C   0  0  0  0  0  0  0  0  0  0  0  0
   27.8865  -19.0616   -6.1309 C   0  0  0  0  0  0  0  0  0  0  0  0
   27.3485  -19.3060   -7.3729 C   0  0  0  0  0  0  0  0  0  0  0  0
   27.9986  -20.1039   -8.3154 C   0  0  0  0  0  0  0  0  0  0  0  0
   24.0716  -20.5555  -10.5330 C   0  0  0  0  0  0  0  0  0  0  0  0
   23.2724  -20.7158  -11.4760 O   0  0  0  0  0  0  0  0  0  0  0  0
   23.7261  -19.7085   -9.4593 O   0  0  0  0  0  0  0  0  0  0  0  0
  2  1  1  6
  2  3  1  0
  3  4  1  0
  4 12  1  0
  4  5  2  0
  5  6  1  0
  7  8  2  0
  7  6  1  0
  9  8  1  0
 10  9  2  0
 11 10  1  0
 11 12  2  0
 12  7  1  0
 13 14  2  0
 13  2  1  0
 15 13  1  0
 16 15  1  0
 17 18  1  0
 16 17  1  6
 18 19  2  0
 20 16  1  0
 20 21  2  0
 22 18  1  0
 23 20  1  0
 24 25  1  6
 24 23  1  0
 25 26  1  0
 26 34  1  0
 26 27  2  0
 27 28  1  0
 29 28  1  0
 29 30  2  0
 31 30  1  0
 32 31  2  0
 33 34  2  0
 33 32  1  0
 34 29  1  0
 35 24  1  0
 36 35  2  0
 37 35  1  0
M  END
$$$$
