WDW.pdb
     RDKit          3D

 37 40  0  0  1  0  0  0  0  0999 V2000
   21.5780  -17.3298  -15.5739 N   0  0  0  0  0  0  0  0  0  0  0  0
   22.5021  -18.2003  -14.9310 C   0  0  1  0  0  0  0  0  0  0  0  0
   21.8207  -19.4077  -14.3960 C   0  0  0  0  0  0  0  0  0  0  0  0
   20.6189  -19.2150  -13.6045 C   0  0  0  0  0  0  0  0  0  0  0  0
   19.3314  -19.0100  -13.9525 C   0  0  0  0  0  0  0  0  0  0  0  0
   18.5793  -18.8575  -12.8208 N   0  0  0  0  0  0  0  0  0  0  0  0
   19.4038  -18.9666  -11.7520 C   0  0  0  0  0  0  0  0  0  0  0  0
   19.1667  -18.8867  -10.3840 C   0  0  0  0  0  0  0  0  0  0  0  0
   20.1672  -19.0236   -9.4585 C   0  0  0  0  0  0  0  0  0  0  0  0
   21.4630  -19.2512   -9.9159 C   0  0  0  0  0  0  0  0  0  0  0  0
   21.6879  -19.3301  -11.2901 C   0  0  0  0  0  0  0  0  0  0  0  0
   20.6693  -19.1883  -12.1998 C   0  0  0  0  0  0  0  0  0  0  0  0
   23.8167  -18.3678  -15.5250 C   0  0  0  0  0  0  0  0  0  0  0  0
   23.9031  -18.9441  -16.6651 O   0  0  0  0  0  0  0  0  0  0  0  0
   25.0733  -17.9687  -14.9868 N   0  0  0  0  0  0  0  0  0  0  0  0
   26.2954  -18.7202  -15.1105 C   0  0  1  0  0  0  0  0  0  0  0  0
   27.4691  -17.9725  -14.5244 C   0  0  0  0  0  0  0  0  0  0  0  0
   28.7230  -18.6057  -14.9686 C   0  0  0  0  0  0  0  0  0  0  0  0
   28.8815  -18.8156  -16.2142 O   0  0  0  0  0  0  0  0  0  0  0  0
   26.2910  -20.0839  -14.6246 C   0  0  0  0  0  0  0  0  0  0  0  0
   27.3898  -20.7297  -14.8216 O   0  0  0  0  0  0  0  0  0  0  0  0
   29.7606  -18.9971  -14.1270 O   0  0  0  0  0  0  0  0  0  0  0  0
   25.2970  -20.8374  -13.9703 N   0  0  0  0  0  0  0  0  0  0  0  0
   25.5035  -22.2426  -13.6461 C   0  0  1  0  0  0  0  0  0  0  0  0
   26.5069  -22.4953  -12.5718 C   0  0  0  0  0  0  0  0  0  0  0  0
   26.2344  -21.7803  -11.3029 C   0  0  0  0  0  0  0  0  0  0  0  0
   25.0579  -21.4383  -10.7168 C   0  0  0  0  0  0  0  0  0  0  0  0
   25.2768  -20.7698   -9.5542 N   0  0  0  0  0  0  0  0  0  0  0  0
   26.6174  -20.6879   -9.4013 C   0  0  0  0  0  0  0  0  0  0  0  0
   27.3992  -20.1173   -8.4036 C   0  0  0  0  0  0  0  0  0  0  0  0
   28.7817  -20.1479   -8.4460 C   0  0  0  0  0  0  0  0  0  0  0  0
   29.4002  -20.7694   -9.5205 C   0  0  0  0  0  0  0  0  0  0  0  0
   28.6199  -21.3313  -10.5040 C   0  0  0  0  0  0  0  0  0  0  0  0
   27.2258  -21.2948  -10.4517 C   0  0  0  0  0  0  0  0  0  0  0  0
   24.2414  -22.9198  -13.2572 C   0  0  0  0  0  0  0  0  0  0  0  0
   23.1267  -22.3726  -13.1492 O   0  0  0  0  0  0  0  0  0  0  0  0
   24.3714  -24.3001  -12.9974 O   0  0  0  0  0  0  0  0  0  0  0  0
  2  1  1  6
  2  3  1  0
  3  4  1  0
  4 12  1  0
  4  5  2  0
  5  6  1  0
  7  8  2  0
  7  6  1  0
  9  8  1  0
 10  9  2  0
 11 10  1  0
 11 12  2  0
 12  7  1  0
 13 14  2  0
 13  2  1  0
 15 13  1  0
 16 15  1  0
 17 18  1  0
 16 17  1  1
 18 19  2  0
 20 16  1  0
 20 21  2  0
 22 18  1  0
 23 20  1  0
 24 25  1  1
 24 23  1  0
 25 26  1  0
 26 34  1  0
 26 27  2  0
 27 28  1  0
 29 28  1  0
 29 30  2  0
 31 30  1  0
 32 31  2  0
 33 34  2  0
 33 32  1  0
 34 29  1  0
 35 24  1  0
 36 35  2  0
 37 35  1  0
M  END
$$$$
