WDW.pdb
     RDKit          3D

 37 40  0  0  1  0  0  0  0  0999 V2000
   28.5530  -19.4605  -16.5222 N   0  0  0  0  0  0  0  0  0  0  0  0
   28.1512  -20.2146  -15.3843 C   0  0  1  0  0  0  0  0  0  0  0  0
   28.2843  -19.4181  -14.1369 C   0  0  0  0  0  0  0  0  0  0  0  0
   28.1307  -20.1096  -12.8696 C   0  0  0  0  0  0  0  0  0  0  0  0
   27.0904  -20.2109  -12.0162 C   0  0  0  0  0  0  0  0  0  0  0  0
   27.4671  -20.9600  -10.9361 N   0  0  0  0  0  0  0  0  0  0  0  0
   28.7575  -21.3313  -11.1132 C   0  0  0  0  0  0  0  0  0  0  0  0
   29.6234  -22.0846  -10.3280 C   0  0  0  0  0  0  0  0  0  0  0  0
   30.9162  -22.3395  -10.7020 C   0  0  0  0  0  0  0  0  0  0  0  0
   31.3674  -21.8214  -11.9135 C   0  0  0  0  0  0  0  0  0  0  0  0
   30.4892  -21.0682  -12.6925 C   0  0  0  0  0  0  0  0  0  0  0  0
   29.1973  -20.8241  -12.2966 C   0  0  0  0  0  0  0  0  0  0  0  0
   27.0013  -21.0924  -15.5120 C   0  0  0  0  0  0  0  0  0  0  0  0
   25.8951  -20.5944  -15.9217 O   0  0  0  0  0  0  0  0  0  0  0  0
   26.9323  -22.4854  -15.2248 N   0  0  0  0  0  0  0  0  0  0  0  0
   25.7214  -23.2650  -15.2257 C   0  0  1  0  0  0  0  0  0  0  0  0
   25.9974  -24.7203  -14.9322 C   0  0  0  0  0  0  0  0  0  0  0  0
   25.5131  -25.5451  -16.0527 C   0  0  0  0  0  0  0  0  0  0  0  0
   25.6958  -26.8038  -15.9949 O   0  0  0  0  0  0  0  0  0  0  0  0
   24.6275  -22.7975  -14.4008 C   0  0  0  0  0  0  0  0  0  0  0  0
   23.5254  -23.4514  -14.5461 O   0  0  0  0  0  0  0  0  0  0  0  0
   24.8641  -25.0543  -17.1822 O   0  0  0  0  0  0  0  0  0  0  0  0
   24.5493  -21.7511  -13.4612 N   0  0  0  0  0  0  0  0  0  0  0  0
   23.3194  -21.4831  -12.7279 C   0  0  1  0  0  0  0  0  0  0  0  0
   23.4987  -21.2731  -11.2621 C   0  0  0  0  0  0  0  0  0  0  0  0
   24.5720  -20.3139  -10.9106 C   0  0  0  0  0  0  0  0  0  0  0  0
   25.1673  -19.3439  -11.6519 C   0  0  0  0  0  0  0  0  0  0  0  0
   26.1240  -18.7055  -10.9284 N   0  0  0  0  0  0  0  0  0  0  0  0
   26.1338  -19.2819   -9.7057 C   0  0  0  0  0  0  0  0  0  0  0  0
   26.9019  -19.0329   -8.5743 C   0  0  0  0  0  0  0  0  0  0  0  0
   26.7441  -19.7562   -7.4055 C   0  0  0  0  0  0  0  0  0  0  0  0
   25.7874  -20.7595   -7.3688 C   0  0  0  0  0  0  0  0  0  0  0  0
   25.0315  -21.0002   -8.4924 C   0  0  0  0  0  0  0  0  0  0  0  0
   25.1987  -20.2648   -9.6665 C   0  0  0  0  0  0  0  0  0  0  0  0
   22.5881  -20.3103  -13.2686 C   0  0  0  0  0  0  0  0  0  0  0  0
   23.0270  -19.5077  -14.1152 O   0  0  0  0  0  0  0  0  0  0  0  0
   21.2904  -20.1345  -12.7446 O   0  0  0  0  0  0  0  0  0  0  0  0
  2  1  1  6
  2  3  1  0
  3  4  1  0
  4 12  1  0
  4  5  2  0
  5  6  1  0
  7  8  2  0
  7  6  1  0
  9  8  1  0
 10  9  2  0
 11 10  1  0
 11 12  2  0
 12  7  1  0
 13 14  2  0
 13  2  1  0
 15 13  1  0
 16 15  1  0
 17 18  1  0
 16 17  1  1
 18 19  2  0
 20 16  1  0
 20 21  2  0
 22 18  1  0
 23 20  1  0
 24 25  1  1
 24 23  1  0
 25 26  1  0
 26 34  1  0
 26 27  2  0
 27 28  1  0
 29 28  1  0
 29 30  2  0
 31 30  1  0
 32 31  2  0
 33 34  2  0
 33 32  1  0
 34 29  1  0
 35 24  1  0
 36 35  2  0
 37 35  1  0
M  END
$$$$
