WDW.pdb
     RDKit          3D

 37 40  0  0  1  0  0  0  0  0999 V2000
   26.4109  -21.8176   -9.2011 N   0  0  0  0  0  0  0  0  0  0  0  0
   26.7427  -20.4518   -9.4233 C   0  0  1  0  0  0  0  0  0  0  0  0
   28.0442  -20.1055   -8.7955 C   0  0  0  0  0  0  0  0  0  0  0  0
   28.3309  -20.6508   -7.4809 C   0  0  0  0  0  0  0  0  0  0  0  0
   28.6472  -21.8962   -7.0690 C   0  0  0  0  0  0  0  0  0  0  0  0
   28.7931  -21.8959   -5.7095 N   0  0  0  0  0  0  0  0  0  0  0  0
   28.5647  -20.6376   -5.2638 C   0  0  0  0  0  0  0  0  0  0  0  0
   28.5749  -20.0885   -3.9863 C   0  0  0  0  0  0  0  0  0  0  0  0
   28.3042  -18.7656   -3.7560 C   0  0  0  0  0  0  0  0  0  0  0  0
   28.0108  -17.9520   -4.8477 C   0  0  0  0  0  0  0  0  0  0  0  0
   28.0046  -18.5142   -6.1241 C   0  0  0  0  0  0  0  0  0  0  0  0
   28.2776  -19.8439   -6.3310 C   0  0  0  0  0  0  0  0  0  0  0  0
   26.4362  -19.8716  -10.7189 C   0  0  0  0  0  0  0  0  0  0  0  0
   27.3583  -19.2321  -11.3355 O   0  0  0  0  0  0  0  0  0  0  0  0
   25.1979  -19.9127  -11.4211 N   0  0  0  0  0  0  0  0  0  0  0  0
   24.9959  -20.5586  -12.6922 C   0  0  1  0  0  0  0  0  0  0  0  0
   25.5033  -21.9808  -12.6795 C   0  0  0  0  0  0  0  0  0  0  0  0
   25.3774  -22.5566  -14.0297 C   0  0  0  0  0  0  0  0  0  0  0  0
   24.4573  -23.4125  -14.2343 O   0  0  0  0  0  0  0  0  0  0  0  0
   23.6629  -20.5188  -13.2553 C   0  0  0  0  0  0  0  0  0  0  0  0
   23.5647  -19.8640  -14.3620 O   0  0  0  0  0  0  0  0  0  0  0  0
   26.1919  -22.2368  -15.1124 O   0  0  0  0  0  0  0  0  0  0  0  0
   22.4458  -21.0706  -12.8101 N   0  0  0  0  0  0  0  0  0  0  0  0
   21.3210  -20.2221  -12.4399 C   0  0  1  0  0  0  0  0  0  0  0  0
   20.8388  -19.3158  -13.5221 C   0  0  0  0  0  0  0  0  0  0  0  0
   19.6163  -19.7886  -14.2134 C   0  0  0  0  0  0  0  0  0  0  0  0
   18.3059  -19.6487  -13.8851 C   0  0  0  0  0  0  0  0  0  0  0  0
   17.5126  -20.2590  -14.8041 N   0  0  0  0  0  0  0  0  0  0  0  0
   18.3367  -20.7946  -15.7321 C   0  0  0  0  0  0  0  0  0  0  0  0
   18.0765  -21.5240  -16.8864 C   0  0  0  0  0  0  0  0  0  0  0  0
   19.0895  -21.9845  -17.7085 C   0  0  0  0  0  0  0  0  0  0  0  0
   20.4036  -21.7055  -17.3640 C   0  0  0  0  0  0  0  0  0  0  0  0
   20.6532  -20.9835  -16.2202 C   0  0  0  0  0  0  0  0  0  0  0  0
   19.6239  -20.5237  -15.3977 C   0  0  0  0  0  0  0  0  0  0  0  0
   20.1597  -21.0096  -11.9561 C   0  0  0  0  0  0  0  0  0  0  0  0
   19.1455  -20.5427  -11.4020 O   0  0  0  0  0  0  0  0  0  0  0  0
   20.2653  -22.4006  -12.1648 O   0  0  0  0  0  0  0  0  0  0  0  0
  2  1  1  6
  2  3  1  0
  3  4  1  0
  4 12  1  0
  4  5  2  0
  5  6  1  0
  7  8  2  0
  7  6  1  0
  9  8  1  0
 10  9  2  0
 11 10  1  0
 11 12  2  0
 12  7  1  0
 13 14  2  0
 13  2  1  0
 15 13  1  0
 16 15  1  0
 17 18  1  0
 16 17  1  1
 18 19  2  0
 20 16  1  0
 20 21  2  0
 22 18  1  0
 23 20  1  0
 24 25  1  6
 24 23  1  0
 25 26  1  0
 26 34  1  0
 26 27  2  0
 27 28  1  0
 29 28  1  0
 29 30  2  0
 31 30  1  0
 32 31  2  0
 33 34  2  0
 33 32  1  0
 34 29  1  0
 35 24  1  0
 36 35  2  0
 37 35  1  0
M  END
$$$$
