WDW.pdb
     RDKit          3D

 37 40  0  0  1  0  0  0  0  0999 V2000
   16.9744  -27.7919    1.7719 N   0  0  0  0  0  0  0  0  0  0  0  0
   18.0208  -28.4843    2.4433 C   0  0  1  0  0  0  0  0  0  0  0  0
   19.2458  -27.6483    2.5360 C   0  0  0  0  0  0  0  0  0  0  0  0
   19.8362  -27.1686    1.2994 C   0  0  0  0  0  0  0  0  0  0  0  0
   19.6649  -27.5394    0.0134 C   0  0  0  0  0  0  0  0  0  0  0  0
   20.4851  -26.7894   -0.7831 N   0  0  0  0  0  0  0  0  0  0  0  0
   21.1791  -25.9403    0.0117 C   0  0  0  0  0  0  0  0  0  0  0  0
   22.1398  -24.9765   -0.2741 C   0  0  0  0  0  0  0  0  0  0  0  0
   22.7292  -24.2183    0.7027 C   0  0  0  0  0  0  0  0  0  0  0  0
   22.3438  -24.4288    2.0244 C   0  0  0  0  0  0  0  0  0  0  0  0
   21.3787  -25.3978    2.2982 C   0  0  0  0  0  0  0  0  0  0  0  0
   20.8023  -26.1473    1.3026 C   0  0  0  0  0  0  0  0  0  0  0  0
   17.6752  -29.3141    3.5839 C   0  0  0  0  0  0  0  0  0  0  0  0
   16.5450  -29.1266    4.1558 O   0  0  0  0  0  0  0  0  0  0  0  0
   18.4568  -30.3439    4.1809 N   0  0  0  0  0  0  0  0  0  0  0  0
   18.3622  -30.7524    5.5587 C   0  0  1  0  0  0  0  0  0  0  0  0
   19.1657  -32.0031    5.8237 C   0  0  0  0  0  0  0  0  0  0  0  0
   18.4629  -33.1655    5.2534 C   0  0  0  0  0  0  0  0  0  0  0  0
   17.2208  -33.0509    4.9987 O   0  0  0  0  0  0  0  0  0  0  0  0
   18.6545  -29.7585    6.5698 C   0  0  0  0  0  0  0  0  0  0  0  0
   19.1639  -28.6634    6.1175 O   0  0  0  0  0  0  0  0  0  0  0  0
   19.0538  -34.3930    4.9668 O   0  0  0  0  0  0  0  0  0  0  0  0
   18.4811  -29.7714    7.9675 N   0  0  0  0  0  0  0  0  0  0  0  0
   18.7303  -28.5825    8.7718 C   0  0  1  0  0  0  0  0  0  0  0  0
   17.9247  -27.3875    8.3872 C   0  0  0  0  0  0  0  0  0  0  0  0
   18.2424  -26.1639    9.1601 C   0  0  0  0  0  0  0  0  0  0  0  0
   19.4391  -25.6371    9.5277 C   0  0  0  0  0  0  0  0  0  0  0  0
   19.2619  -24.4998   10.2498 N   0  0  0  0  0  0  0  0  0  0  0  0
   17.9277  -24.3025   10.3401 C   0  0  0  0  0  0  0  0  0  0  0  0
   17.1820  -23.3049   10.9572 C   0  0  0  0  0  0  0  0  0  0  0  0
   15.7989  -23.2958   10.9261 C   0  0  0  0  0  0  0  0  0  0  0  0
   15.1425  -24.3173   10.2560 C   0  0  0  0  0  0  0  0  0  0  0  0
   15.8871  -25.3011    9.6482 C   0  0  0  0  0  0  0  0  0  0  0  0
   17.2821  -25.3009    9.6856 C   0  0  0  0  0  0  0  0  0  0  0  0
   18.5142  -28.8292   10.2193 C   0  0  0  0  0  0  0  0  0  0  0  0
   18.5396  -27.9633   11.1155 O   0  0  0  0  0  0  0  0  0  0  0  0
   18.2643  -30.1762   10.5547 O   0  0  0  0  0  0  0  0  0  0  0  0
  2  1  1  1
  2  3  1  0
  3  4  1  0
  4 12  1  0
  4  5  2  0
  5  6  1  0
  7  8  2  0
  7  6  1  0
  9  8  1  0
 10  9  2  0
 11 10  1  0
 11 12  2  0
 12  7  1  0
 13 14  2  0
 13  2  1  0
 15 13  1  0
 16 15  1  0
 17 18  1  0
 16 17  1  6
 18 19  2  0
 20 16  1  0
 20 21  2  0
 22 18  1  0
 23 20  1  0
 24 25  1  6
 24 23  1  0
 25 26  1  0
 26 34  1  0
 26 27  2  0
 27 28  1  0
 29 28  1  0
 29 30  2  0
 31 30  1  0
 32 31  2  0
 33 34  2  0
 33 32  1  0
 34 29  1  0
 35 24  1  0
 36 35  2  0
 37 35  1  0
M  END
$$$$
