WDW.pdb
     RDKit          3D

 37 40  0  0  1  0  0  0  0  0999 V2000
   26.5958  -22.5887   -9.3180 N   0  0  0  0  0  0  0  0  0  0  0  0
   25.9448  -21.3360   -9.4969 C   0  0  1  0  0  0  0  0  0  0  0  0
   26.9115  -20.2107   -9.4123 C   0  0  0  0  0  0  0  0  0  0  0  0
   28.0052  -20.3243   -8.4643 C   0  0  0  0  0  0  0  0  0  0  0  0
   29.2748  -20.7614   -8.5981 C   0  0  0  0  0  0  0  0  0  0  0  0
   29.9028  -20.6945   -7.3854 N   0  0  0  0  0  0  0  0  0  0  0  0
   29.0175  -20.2119   -6.4811 C   0  0  0  0  0  0  0  0  0  0  0  0
   29.1284  -19.9535   -5.1193 C   0  0  0  0  0  0  0  0  0  0  0  0
   28.0852  -19.4619   -4.3802 C   0  0  0  0  0  0  0  0  0  0  0  0
   26.8765  -19.2154   -5.0267 C   0  0  0  0  0  0  0  0  0  0  0  0
   26.7779  -19.4778   -6.3930 C   0  0  0  0  0  0  0  0  0  0  0  0
   27.8370  -19.9721   -7.1137 C   0  0  0  0  0  0  0  0  0  0  0  0
   24.8823  -21.2478  -10.4830 C   0  0  0  0  0  0  0  0  0  0  0  0
   25.0415  -21.8395  -11.6073 O   0  0  0  0  0  0  0  0  0  0  0  0
   23.6412  -20.5591  -10.3674 N   0  0  0  0  0  0  0  0  0  0  0  0
   22.6334  -20.5051  -11.3946 C   0  0  1  0  0  0  0  0  0  0  0  0
   21.2720  -20.1919  -10.8213 C   0  0  0  0  0  0  0  0  0  0  0  0
   20.2817  -20.1453  -11.9111 C   0  0  0  0  0  0  0  0  0  0  0  0
   20.3323  -21.0477  -12.8078 O   0  0  0  0  0  0  0  0  0  0  0  0
   22.8915  -19.6543  -12.5371 C   0  0  0  0  0  0  0  0  0  0  0  0
   22.8783  -18.3903  -12.2816 O   0  0  0  0  0  0  0  0  0  0  0  0
   19.2834  -19.1838  -12.0410 O   0  0  0  0  0  0  0  0  0  0  0  0
   23.1571  -19.9600  -13.8862 N   0  0  0  0  0  0  0  0  0  0  0  0
   23.3721  -18.9090  -14.8718 C   0  0  1  0  0  0  0  0  0  0  0  0
   24.7958  -18.7046  -15.2672 C   0  0  0  0  0  0  0  0  0  0  0  0
   25.6297  -19.9273  -15.1959 C   0  0  0  0  0  0  0  0  0  0  0  0
   25.3334  -21.2176  -15.4991 C   0  0  0  0  0  0  0  0  0  0  0  0
   26.4027  -22.0233  -15.2675 N   0  0  0  0  0  0  0  0  0  0  0  0
   27.3950  -21.2276  -14.8098 C   0  0  0  0  0  0  0  0  0  0  0  0
   28.6983  -21.5106  -14.4181 C   0  0  0  0  0  0  0  0  0  0  0  0
   29.5621  -20.5256  -13.9735 C   0  0  0  0  0  0  0  0  0  0  0  0
   29.1065  -19.2168  -13.9200 C   0  0  0  0  0  0  0  0  0  0  0  0
   27.8156  -18.9446  -14.3090 C   0  0  0  0  0  0  0  0  0  0  0  0
   26.9523  -19.9458  -14.7558 C   0  0  0  0  0  0  0  0  0  0  0  0
   22.5844  -19.1315  -16.1099 C   0  0  0  0  0  0  0  0  0  0  0  0
   22.5048  -18.3429  -17.0718 O   0  0  0  0  0  0  0  0  0  0  0  0
   21.8841  -20.3552  -16.1486 O   0  0  0  0  0  0  0  0  0  0  0  0
  2  1  1  6
  2  3  1  0
  3  4  1  0
  4 12  1  0
  4  5  2  0
  5  6  1  0
  7  8  2  0
  7  6  1  0
  9  8  1  0
 10  9  2  0
 11 10  1  0
 11 12  2  0
 12  7  1  0
 13 14  2  0
 13  2  1  0
 15 13  1  0
 16 15  1  0
 17 18  1  0
 16 17  1  1
 18 19  2  0
 20 16  1  0
 20 21  2  0
 22 18  1  0
 23 20  1  0
 24 25  1  6
 24 23  1  0
 25 26  1  0
 26 34  1  0
 26 27  2  0
 27 28  1  0
 29 28  1  0
 29 30  2  0
 31 30  1  0
 32 31  2  0
 33 34  2  0
 33 32  1  0
 34 29  1  0
 35 24  1  0
 36 35  2  0
 37 35  1  0
M  END
$$$$
