AEL.pdb
     RDKit          3D

 23 22  0  0  1  0  0  0  0  0999 V2000
    8.2860  -12.3495   19.4231 C   0  0  0  0  0  0  0  0  0  0  0  0
    8.4521  -13.7921   18.9825 C   0  0  2  0  0  0  0  0  0  0  0  0
    7.5272  -14.1397   17.9461 N   0  0  0  0  0  0  0  0  0  0  0  0
    8.3001  -14.6537   20.1902 C   0  0  0  0  0  0  0  0  0  0  0  0
    7.1685  -14.8183   20.7142 O   0  0  0  0  0  0  0  0  0  0  0  0
    9.3962  -15.3216   20.8037 N   0  0  0  0  0  0  0  0  0  0  0  0
    9.2606  -16.1832   21.9559 C   0  0  1  0  0  0  0  0  0  0  0  0
   10.3271  -17.2467   22.0151 C   0  0  0  0  0  0  0  0  0  0  0  0
   10.3112  -18.1692   20.8396 C   0  0  0  0  0  0  0  0  0  0  0  0
   11.4443  -19.1198   20.9907 C   0  0  0  0  0  0  0  0  0  0  0  0
   12.1732  -19.1411   22.0270 O   0  0  0  0  0  0  0  0  0  0  0  0
    9.3235  -15.3237   23.1664 C   0  0  0  0  0  0  0  0  0  0  0  0
   10.3681  -14.6823   23.4891 O   0  0  0  0  0  0  0  0  0  0  0  0
   11.7777  -20.0501   20.0002 O   0  0  0  0  0  0  0  0  0  0  0  0
    7.8353  -11.5061   26.5129 C   0  0  0  0  0  0  0  0  0  0  0  0
    6.9044  -12.6824   26.6004 C   0  0  1  0  0  0  0  0  0  0  0  0
    5.5071  -12.1354   26.8580 C   0  0  0  0  0  0  0  0  0  0  0  0
    6.9675  -13.5319   25.3951 C   0  0  0  0  0  0  0  0  0  0  0  0
    8.2060  -14.3087   25.1780 C   0  0  2  0  0  0  0  0  0  0  0  0
    8.1831  -15.1789   24.0401 N   0  0  0  0  0  0  0  0  0  0  0  0
    8.5185  -15.1730   26.3768 C   0  0  0  0  0  0  0  0  0  0  0  0
    8.3067  -16.5286   26.3373 O   0  0  0  0  0  0  0  0  0  0  0  0
    8.9744  -14.6523   27.4163 O   0  0  0  0  0  0  0  0  0  0  0  0
  2  3  1  0
  2  1  1  1
  4  2  1  0
  4  5  2  0
  6  4  1  0
  7  6  1  0
  7 12  1  0
  7  8  1  1
  9 10  1  0
  9  8  1  0
 10 11  2  0
 12 13  2  0
 12 20  1  0
 14 10  1  0
 16 15  1  6
 16 17  1  0
 18 16  1  0
 19 18  1  1
 20 19  1  0
 21 19  1  0
 21 22  1  0
 23 21  2  0
M  END
$$$$
