AEL.pdb
     RDKit          3D

 23 22  0  0  1  0  0  0  0  0999 V2000
    7.1336  -13.3688   19.2370 C   0  0  0  0  0  0  0  0  0  0  0  0
    8.4274  -13.3538   20.0299 C   0  0  2  0  0  0  0  0  0  0  0  0
    9.5487  -13.7289   19.2221 N   0  0  0  0  0  0  0  0  0  0  0  0
    8.2480  -14.2553   21.2043 C   0  0  0  0  0  0  0  0  0  0  0  0
    7.1994  -14.1949   21.8965 O   0  0  0  0  0  0  0  0  0  0  0  0
    9.2255  -15.2103   21.5997 N   0  0  0  0  0  0  0  0  0  0  0  0
    9.0456  -16.1243   22.7045 C   0  0  1  0  0  0  0  0  0  0  0  0
    9.9145  -17.3506   22.5917 C   0  0  0  0  0  0  0  0  0  0  0  0
    9.6496  -18.1545   21.3600 C   0  0  0  0  0  0  0  0  0  0  0  0
   10.8767  -18.9355   21.0527 C   0  0  0  0  0  0  0  0  0  0  0  0
   11.5875  -19.4601   21.9611 O   0  0  0  0  0  0  0  0  0  0  0  0
    9.3611  -15.3833   23.9533 C   0  0  0  0  0  0  0  0  0  0  0  0
   10.4880  -14.8379   24.1518 O   0  0  0  0  0  0  0  0  0  0  0  0
   11.3245  -19.1409   19.7431 O   0  0  0  0  0  0  0  0  0  0  0  0
    5.5149  -12.3605   26.4923 C   0  0  0  0  0  0  0  0  0  0  0  0
    6.7957  -12.8570   25.8831 C   0  0  1  0  0  0  0  0  0  0  0  0
    7.6284  -11.6347   25.5217 C   0  0  0  0  0  0  0  0  0  0  0  0
    7.5123  -13.7872   26.7771 C   0  0  0  0  0  0  0  0  0  0  0  0
    8.6644  -14.5192   26.2102 C   0  0  2  0  0  0  0  0  0  0  0  0
    8.3859  -15.2500   25.0097 N   0  0  0  0  0  0  0  0  0  0  0  0
    9.2141  -15.5146   27.2045 C   0  0  0  0  0  0  0  0  0  0  0  0
    9.8158  -15.0888   28.3624 O   0  0  0  0  0  0  0  0  0  0  0  0
    9.1219  -16.7386   26.9740 O   0  0  0  0  0  0  0  0  0  0  0  0
  2  3  1  0
  2  1  1  6
  4  2  1  0
  4  5  2  0
  6  4  1  0
  7  6  1  0
  7 12  1  0
  7  8  1  6
  9 10  1  0
  9  8  1  0
 10 11  2  0
 12 13  2  0
 12 20  1  0
 14 10  1  0
 16 15  1  1
 16 17  1  0
 18 16  1  0
 19 18  1  1
 20 19  1  0
 21 19  1  0
 21 22  1  0
 23 21  2  0
M  END
$$$$
