AEL.pdb
     RDKit          3D

 23 22  0  0  1  0  0  0  0  0999 V2000
    8.2024  -12.0570   19.8469 C   0  0  0  0  0  0  0  0  0  0  0  0
    8.4258  -13.4450   19.2754 C   0  0  2  0  0  0  0  0  0  0  0  0
    7.5716  -13.7007   18.1549 N   0  0  0  0  0  0  0  0  0  0  0  0
    8.2215  -14.4264   20.3795 C   0  0  0  0  0  0  0  0  0  0  0  0
    7.0824  -14.9165   20.5905 O   0  0  0  0  0  0  0  0  0  0  0  0
    9.2743  -14.8541   21.2355 N   0  0  0  0  0  0  0  0  0  0  0  0
    9.1512  -15.9583   22.1596 C   0  0  1  0  0  0  0  0  0  0  0  0
   10.1235  -17.0722   21.8670 C   0  0  0  0  0  0  0  0  0  0  0  0
   10.0130  -18.2212   22.8162 C   0  0  0  0  0  0  0  0  0  0  0  0
   11.0237  -19.2375   22.4214 C   0  0  0  0  0  0  0  0  0  0  0  0
   10.7566  -20.4756   22.3846 O   0  0  0  0  0  0  0  0  0  0  0  0
    9.3779  -15.4236   23.5274 C   0  0  0  0  0  0  0  0  0  0  0  0
   10.5048  -14.9832   23.9051 O   0  0  0  0  0  0  0  0  0  0  0  0
   12.3323  -18.8925   22.0658 O   0  0  0  0  0  0  0  0  0  0  0  0
    5.6958  -12.2902   26.2586 C   0  0  0  0  0  0  0  0  0  0  0  0
    6.9499  -12.8800   25.6776 C   0  0  1  0  0  0  0  0  0  0  0  0
    8.0222  -11.8002   25.7259 C   0  0  0  0  0  0  0  0  0  0  0  0
    7.3575  -14.1156   26.3742 C   0  0  0  0  0  0  0  0  0  0  0  0
    8.5082  -14.8583   25.8186 C   0  0  2  0  0  0  0  0  0  0  0  0
    8.3111  -15.3814   24.4995 N   0  0  0  0  0  0  0  0  0  0  0  0
    8.8700  -16.0312   26.6991 C   0  0  0  0  0  0  0  0  0  0  0  0
    9.5393  -15.8389   27.8820 O   0  0  0  0  0  0  0  0  0  0  0  0
    8.5585  -17.1892   26.3504 O   0  0  0  0  0  0  0  0  0  0  0  0
  2  3  1  0
  2  1  1  1
  4  2  1  0
  4  5  2  0
  6  4  1  0
  7  6  1  0
  7 12  1  0
  7  8  1  6
  9 10  1  0
  9  8  1  0
 10 11  2  0
 12 13  2  0
 12 20  1  0
 14 10  1  0
 16 15  1  1
 16 17  1  0
 18 16  1  0
 19 18  1  1
 20 19  1  0
 21 19  1  0
 21 22  1  0
 23 21  2  0
M  END
$$$$
