AEL.pdb
     RDKit          3D

 23 22  0  0  1  0  0  0  0  0999 V2000
    8.2253  -11.9559   19.7443 C   0  0  0  0  0  0  0  0  0  0  0  0
    8.3541  -13.3573   19.1766 C   0  0  2  0  0  0  0  0  0  0  0  0
    7.4437  -13.5762   18.0932 N   0  0  0  0  0  0  0  0  0  0  0  0
    8.1443  -14.3194   20.2965 C   0  0  0  0  0  0  0  0  0  0  0  0
    6.9938  -14.7630   20.5452 O   0  0  0  0  0  0  0  0  0  0  0  0
    9.2042  -14.7795   21.1265 N   0  0  0  0  0  0  0  0  0  0  0  0
    9.0752  -15.8909   22.0412 C   0  0  1  0  0  0  0  0  0  0  0  0
   10.0375  -17.0099   21.7355 C   0  0  0  0  0  0  0  0  0  0  0  0
    9.9398  -18.1546   22.6912 C   0  0  0  0  0  0  0  0  0  0  0  0
   10.9498  -19.1697   22.2915 C   0  0  0  0  0  0  0  0  0  0  0  0
   10.9135  -20.3619   22.7190 O   0  0  0  0  0  0  0  0  0  0  0  0
    9.3105  -15.3703   23.4129 C   0  0  0  0  0  0  0  0  0  0  0  0
   10.3568  -14.7255   23.7232 O   0  0  0  0  0  0  0  0  0  0  0  0
   12.0032  -18.8740   21.4193 O   0  0  0  0  0  0  0  0  0  0  0  0
    5.8512  -12.6289   26.5940 C   0  0  0  0  0  0  0  0  0  0  0  0
    7.1446  -13.1270   26.0135 C   0  0  1  0  0  0  0  0  0  0  0  0
    8.2190  -12.1051   26.3590 C   0  0  0  0  0  0  0  0  0  0  0  0
    7.4798  -14.4842   26.4866 C   0  0  0  0  0  0  0  0  0  0  0  0
    8.6014  -15.1768   25.8182 C   0  0  2  0  0  0  0  0  0  0  0  0
    8.3458  -15.5783   24.4668 N   0  0  0  0  0  0  0  0  0  0  0  0
    8.9923  -16.4253   26.5734 C   0  0  0  0  0  0  0  0  0  0  0  0
    8.8533  -17.6640   25.9986 O   0  0  0  0  0  0  0  0  0  0  0  0
    9.4468  -16.3333   27.7329 O   0  0  0  0  0  0  0  0  0  0  0  0
  2  3  1  0
  2  1  1  1
  4  2  1  0
  4  5  2  0
  6  4  1  0
  7  6  1  0
  7 12  1  0
  7  8  1  6
  9 10  1  0
  9  8  1  0
 10 11  2  0
 12 13  2  0
 12 20  1  0
 14 10  1  0
 16 15  1  1
 16 17  1  0
 18 16  1  0
 19 18  1  1
 20 19  1  0
 21 19  1  0
 21 22  1  0
 23 21  2  0
M  END
$$$$
