AEL.pdb
     RDKit          3D

 23 22  0  0  1  0  0  0  0  0999 V2000
    8.3423  -12.0485   19.9380 C   0  0  0  0  0  0  0  0  0  0  0  0
    8.4105  -13.4719   19.4162 C   0  0  2  0  0  0  0  0  0  0  0  0
    7.4396  -13.7076   18.3904 N   0  0  0  0  0  0  0  0  0  0  0  0
    8.2392  -14.3884   20.5801 C   0  0  0  0  0  0  0  0  0  0  0  0
    7.0898  -14.7575   20.9336 O   0  0  0  0  0  0  0  0  0  0  0  0
    9.3357  -14.8853   21.3381 N   0  0  0  0  0  0  0  0  0  0  0  0
    9.2146  -15.9424   22.3161 C   0  0  1  0  0  0  0  0  0  0  0  0
   10.1693  -17.0808   22.0626 C   0  0  0  0  0  0  0  0  0  0  0  0
   10.0246  -18.2050   23.0366 C   0  0  0  0  0  0  0  0  0  0  0  0
   11.0540  -19.2267   22.7099 C   0  0  0  0  0  0  0  0  0  0  0  0
   10.7723  -20.4573   22.6016 O   0  0  0  0  0  0  0  0  0  0  0  0
    9.4689  -15.3457   23.6529 C   0  0  0  0  0  0  0  0  0  0  0  0
   10.5801  -14.8186   23.9599 O   0  0  0  0  0  0  0  0  0  0  0  0
   12.3973  -18.8953   22.5013 O   0  0  0  0  0  0  0  0  0  0  0  0
    5.6119  -12.5838   26.4790 C   0  0  0  0  0  0  0  0  0  0  0  0
    6.9052  -13.0293   25.8569 C   0  0  1  0  0  0  0  0  0  0  0  0
    7.8057  -11.8055   25.7597 C   0  0  0  0  0  0  0  0  0  0  0  0
    7.5307  -14.1356   26.6072 C   0  0  0  0  0  0  0  0  0  0  0  0
    8.6900  -14.8071   25.9829 C   0  0  2  0  0  0  0  0  0  0  0  0
    8.4489  -15.3394   24.6748 N   0  0  0  0  0  0  0  0  0  0  0  0
    9.1714  -15.9573   26.8356 C   0  0  0  0  0  0  0  0  0  0  0  0
    9.8559  -15.7256   28.0026 O   0  0  0  0  0  0  0  0  0  0  0  0
    8.9462  -17.1325   26.4781 O   0  0  0  0  0  0  0  0  0  0  0  0
  2  3  1  0
  2  1  1  1
  4  2  1  0
  4  5  2  0
  6  4  1  0
  7  6  1  0
  7 12  1  0
  7  8  1  6
  9 10  1  0
  9  8  1  0
 10 11  2  0
 12 13  2  0
 12 20  1  0
 14 10  1  0
 16 15  1  1
 16 17  1  0
 18 16  1  0
 19 18  1  1
 20 19  1  0
 21 19  1  0
 21 22  1  0
 23 21  2  0
M  END
$$$$
