AEL.pdb
     RDKit          3D

 23 22  0  0  1  0  0  0  0  0999 V2000
    7.2491  -12.9961   18.8983 C   0  0  0  0  0  0  0  0  0  0  0  0
    8.5085  -13.2124   19.7168 C   0  0  2  0  0  0  0  0  0  0  0  0
    9.5654  -13.7685   18.9267 N   0  0  0  0  0  0  0  0  0  0  0  0
    8.1505  -14.0800   20.8758 C   0  0  0  0  0  0  0  0  0  0  0  0
    7.1399  -13.8173   21.5772 O   0  0  0  0  0  0  0  0  0  0  0  0
    8.9103  -15.2244   21.2459 N   0  0  0  0  0  0  0  0  0  0  0  0
    8.5054  -16.1498   22.2795 C   0  0  1  0  0  0  0  0  0  0  0  0
    9.0210  -17.5463   22.0438 C   0  0  0  0  0  0  0  0  0  0  0  0
   10.3302  -17.5821   21.3240 C   0  0  0  0  0  0  0  0  0  0  0  0
   10.7301  -19.0063   21.1758 C   0  0  0  0  0  0  0  0  0  0  0  0
   10.5865  -19.8482   22.1119 O   0  0  0  0  0  0  0  0  0  0  0  0
    9.0140  -15.6251   23.5732 C   0  0  0  0  0  0  0  0  0  0  0  0
   10.1921  -15.1768   23.7070 O   0  0  0  0  0  0  0  0  0  0  0  0
   11.2898  -19.5073   19.9953 O   0  0  0  0  0  0  0  0  0  0  0  0
    5.8840  -12.3778   26.4481 C   0  0  0  0  0  0  0  0  0  0  0  0
    7.1350  -12.9650   25.8581 C   0  0  1  0  0  0  0  0  0  0  0  0
    8.1632  -11.8455   25.7716 C   0  0  0  0  0  0  0  0  0  0  0  0
    7.6226  -14.1244   26.6304 C   0  0  0  0  0  0  0  0  0  0  0  0
    8.6145  -15.0044   25.9776 C   0  0  2  0  0  0  0  0  0  0  0  0
    8.1785  -15.6022   24.7506 N   0  0  0  0  0  0  0  0  0  0  0  0
    9.0154  -16.1379   26.8920 C   0  0  0  0  0  0  0  0  0  0  0  0
    8.8061  -17.4433   26.5228 O   0  0  0  0  0  0  0  0  0  0  0  0
    9.5429  -15.8885   27.9962 O   0  0  0  0  0  0  0  0  0  0  0  0
  2  3  1  0
  2  1  1  6
  4  2  1  0
  4  5  2  0
  6  4  1  0
  7  6  1  0
  7 12  1  0
  7  8  1  6
  9 10  1  0
  9  8  1  0
 10 11  2  0
 12 13  2  0
 12 20  1  0
 14 10  1  0
 16 15  1  1
 16 17  1  0
 18 16  1  0
 19 18  1  1
 20 19  1  0
 21 19  1  0
 21 22  1  0
 23 21  2  0
M  END
$$$$
