AEL.pdb
     RDKit          3D

 23 22  0  0  1  0  0  0  0  0999 V2000
    8.1662  -12.1494   20.0677 C   0  0  0  0  0  0  0  0  0  0  0  0
    8.3355  -13.5462   19.4993 C   0  0  2  0  0  0  0  0  0  0  0  0
    7.3647  -13.8271   18.4848 N   0  0  0  0  0  0  0  0  0  0  0  0
    8.2619  -14.5085   20.6361 C   0  0  0  0  0  0  0  0  0  0  0  0
    7.1487  -14.9431   21.0289 O   0  0  0  0  0  0  0  0  0  0  0  0
    9.4150  -14.9786   21.3243 N   0  0  0  0  0  0  0  0  0  0  0  0
    9.3839  -16.0537   22.2895 C   0  0  1  0  0  0  0  0  0  0  0  0
   10.4453  -17.0933   22.0359 C   0  0  0  0  0  0  0  0  0  0  0  0
   10.1702  -17.9421   20.8370 C   0  0  0  0  0  0  0  0  0  0  0  0
   11.2800  -18.9230   20.7086 C   0  0  0  0  0  0  0  0  0  0  0  0
   11.3654  -19.7202   19.7274 O   0  0  0  0  0  0  0  0  0  0  0  0
    9.5654  -15.4510   23.6355 C   0  0  0  0  0  0  0  0  0  0  0  0
   10.5676  -14.7317   23.9269 O   0  0  0  0  0  0  0  0  0  0  0  0
   12.2994  -19.0284   21.6612 O   0  0  0  0  0  0  0  0  0  0  0  0
    5.7897  -12.7766   26.2801 C   0  0  0  0  0  0  0  0  0  0  0  0
    7.1583  -13.2128   25.8390 C   0  0  1  0  0  0  0  0  0  0  0  0
    8.0933  -12.0257   26.0249 C   0  0  0  0  0  0  0  0  0  0  0  0
    7.6179  -14.4152   26.5609 C   0  0  0  0  0  0  0  0  0  0  0  0
    8.7828  -15.1352   26.0048 C   0  0  2  0  0  0  0  0  0  0  0  0
    8.5961  -15.6604   24.6850 N   0  0  0  0  0  0  0  0  0  0  0  0
    9.1665  -16.3021   26.8840 C   0  0  0  0  0  0  0  0  0  0  0  0
    9.1511  -17.5838   26.3932 O   0  0  0  0  0  0  0  0  0  0  0  0
    9.5017  -16.1023   28.0703 O   0  0  0  0  0  0  0  0  0  0  0  0
  2  3  1  0
  2  1  1  1
  4  2  1  0
  4  5  2  0
  6  4  1  0
  7  6  1  0
  7 12  1  0
  7  8  1  6
  9 10  1  0
  9  8  1  0
 10 11  2  0
 12 13  2  0
 12 20  1  0
 14 10  1  0
 16 15  1  1
 16 17  1  0
 18 16  1  0
 19 18  1  1
 20 19  1  0
 21 19  1  0
 21 22  1  0
 23 21  2  0
M  END
$$$$
