AEL.pdb
     RDKit          3D

 23 22  0  0  1  0  0  0  0  0999 V2000
    8.2067  -12.3058   19.5678 C   0  0  0  0  0  0  0  0  0  0  0  0
    8.3372  -13.7137   19.0169 C   0  0  2  0  0  0  0  0  0  0  0  0
    7.3037  -14.0111   18.0714 N   0  0  0  0  0  0  0  0  0  0  0  0
    8.3340  -14.6539   20.1745 C   0  0  0  0  0  0  0  0  0  0  0  0
    7.2488  -14.9982   20.7095 O   0  0  0  0  0  0  0  0  0  0  0  0
    9.5254  -15.2014   20.7265 N   0  0  0  0  0  0  0  0  0  0  0  0
    9.5391  -16.1068   21.8528 C   0  0  1  0  0  0  0  0  0  0  0  0
   10.7370  -17.0216   21.8485 C   0  0  0  0  0  0  0  0  0  0  0  0
   10.6565  -18.1002   20.8174 C   0  0  0  0  0  0  0  0  0  0  0  0
   11.9232  -18.8767   20.8700 C   0  0  0  0  0  0  0  0  0  0  0  0
   12.9911  -18.4627   20.3279 O   0  0  0  0  0  0  0  0  0  0  0  0
    9.5258  -15.2824   23.0890 C   0  0  0  0  0  0  0  0  0  0  0  0
   10.3333  -14.3228   23.2728 O   0  0  0  0  0  0  0  0  0  0  0  0
   12.0171  -20.1121   21.5203 O   0  0  0  0  0  0  0  0  0  0  0  0
    7.9161  -11.7391   26.4892 C   0  0  0  0  0  0  0  0  0  0  0  0
    7.0849  -12.9902   26.5328 C   0  0  1  0  0  0  0  0  0  0  0  0
    5.6352  -12.5640   26.7192 C   0  0  0  0  0  0  0  0  0  0  0  0
    7.2797  -13.8289   25.3341 C   0  0  0  0  0  0  0  0  0  0  0  0
    8.4797  -14.6911   25.2985 C   0  0  2  0  0  0  0  0  0  0  0  0
    8.5804  -15.5409   24.1493 N   0  0  0  0  0  0  0  0  0  0  0  0
    8.5328  -15.5931   26.5090 C   0  0  0  0  0  0  0  0  0  0  0  0
    9.2606  -15.2366   27.6168 O   0  0  0  0  0  0  0  0  0  0  0  0
    7.9093  -16.6751   26.5054 O   0  0  0  0  0  0  0  0  0  0  0  0
  2  3  1  0
  2  1  1  1
  4  2  1  0
  4  5  2  0
  6  4  1  0
  7  6  1  0
  7 12  1  0
  7  8  1  1
  9 10  1  0
  9  8  1  0
 10 11  2  0
 12 13  2  0
 12 20  1  0
 14 10  1  0
 16 15  1  6
 16 17  1  0
 18 16  1  0
 19 18  1  6
 20 19  1  0
 21 19  1  0
 21 22  1  0
 23 21  2  0
M  END
$$$$
