AEL.pdb
     RDKit          3D

 23 22  0  0  1  0  0  0  0  0999 V2000
    7.9187  -12.3096   20.2957 C   0  0  0  0  0  0  0  0  0  0  0  0
    8.4564  -13.4996   19.5226 C   0  0  2  0  0  0  0  0  0  0  0  0
    7.7651  -13.6821   18.2819 N   0  0  0  0  0  0  0  0  0  0  0  0
    8.3573  -14.6955   20.4079 C   0  0  0  0  0  0  0  0  0  0  0  0
    7.8536  -15.7645   19.9767 O   0  0  0  0  0  0  0  0  0  0  0  0
    8.8140  -14.6975   21.7553 N   0  0  0  0  0  0  0  0  0  0  0  0
    9.5924  -15.7703   22.3314 C   0  0  1  0  0  0  0  0  0  0  0  0
   10.9056  -15.9810   21.6224 C   0  0  0  0  0  0  0  0  0  0  0  0
   11.6690  -14.7160   21.3985 C   0  0  0  0  0  0  0  0  0  0  0  0
   12.9344  -15.0646   20.7003 C   0  0  0  0  0  0  0  0  0  0  0  0
   13.4780  -16.2032   20.8178 O   0  0  0  0  0  0  0  0  0  0  0  0
    9.8269  -15.4349   23.7598 C   0  0  0  0  0  0  0  0  0  0  0  0
   10.7367  -15.9898   24.4461 O   0  0  0  0  0  0  0  0  0  0  0  0
   13.6049  -14.1595   19.8703 O   0  0  0  0  0  0  0  0  0  0  0  0
    5.7792  -12.0772   26.0560 C   0  0  0  0  0  0  0  0  0  0  0  0
    7.1473  -12.5745   25.6831 C   0  0  1  0  0  0  0  0  0  0  0  0
    8.1531  -11.5412   26.1716 C   0  0  0  0  0  0  0  0  0  0  0  0
    7.4137  -13.9232   26.2200 C   0  0  0  0  0  0  0  0  0  0  0  0
    8.6826  -14.5706   25.8261 C   0  0  2  0  0  0  0  0  0  0  0  0
    9.0185  -14.4496   24.4385 N   0  0  0  0  0  0  0  0  0  0  0  0
    8.6539  -16.0487   26.1365 C   0  0  0  0  0  0  0  0  0  0  0  0
    8.2997  -16.9600   25.1731 O   0  0  0  0  0  0  0  0  0  0  0  0
    8.9549  -16.4492   27.2804 O   0  0  0  0  0  0  0  0  0  0  0  0
  2  3  1  0
  2  1  1  1
  4  2  1  0
  4  5  2  0
  6  4  1  0
  7  6  1  0
  7 12  1  0
  7  8  1  6
  9 10  1  0
  9  8  1  0
 10 11  2  0
 12 13  2  0
 12 20  1  0
 14 10  1  0
 16 15  1  1
 16 17  1  0
 18 16  1  0
 19 18  1  6
 20 19  1  0
 21 19  1  0
 21 22  1  0
 23 21  2  0
M  END
$$$$
