AEL.pdb
     RDKit          3D

 23 22  0  0  1  0  0  0  0  0999 V2000
    8.0156  -12.1959   19.9830 C   0  0  0  0  0  0  0  0  0  0  0  0
    8.3406  -13.5969   19.4990 C   0  0  2  0  0  0  0  0  0  0  0  0
    7.4556  -14.0155   18.4540 N   0  0  0  0  0  0  0  0  0  0  0  0
    8.2924  -14.5056   20.6805 C   0  0  0  0  0  0  0  0  0  0  0  0
    7.2001  -15.0078   21.0509 O   0  0  0  0  0  0  0  0  0  0  0  0
    9.4472  -14.8483   21.4373 N   0  0  0  0  0  0  0  0  0  0  0  0
    9.4764  -15.9213   22.4050 C   0  0  1  0  0  0  0  0  0  0  0  0
   10.5671  -16.9240   22.1282 C   0  0  0  0  0  0  0  0  0  0  0  0
   10.5634  -18.0812   23.0739 C   0  0  0  0  0  0  0  0  0  0  0  0
   11.6353  -19.0200   22.6496 C   0  0  0  0  0  0  0  0  0  0  0  0
   11.7859  -19.3701   21.4412 O   0  0  0  0  0  0  0  0  0  0  0  0
    9.6684  -15.3091   23.7452 C   0  0  0  0  0  0  0  0  0  0  0  0
   10.6918  -14.6196   24.0354 O   0  0  0  0  0  0  0  0  0  0  0  0
   12.5447  -19.5761   23.5559 O   0  0  0  0  0  0  0  0  0  0  0  0
    5.9135  -12.4897   26.3355 C   0  0  0  0  0  0  0  0  0  0  0  0
    7.2249  -13.0193   25.8276 C   0  0  1  0  0  0  0  0  0  0  0  0
    8.2096  -11.8582   25.8207 C   0  0  0  0  0  0  0  0  0  0  0  0
    7.7060  -14.1663   26.6220 C   0  0  0  0  0  0  0  0  0  0  0  0
    8.8671  -14.9147   26.0964 C   0  0  2  0  0  0  0  0  0  0  0  0
    8.6856  -15.4743   24.7900 N   0  0  0  0  0  0  0  0  0  0  0  0
    9.2296  -16.0611   27.0110 C   0  0  0  0  0  0  0  0  0  0  0  0
    9.2323  -17.3531   26.5475 O   0  0  0  0  0  0  0  0  0  0  0  0
    9.5305  -15.8347   28.2017 O   0  0  0  0  0  0  0  0  0  0  0  0
  2  3  1  0
  2  1  1  1
  4  2  1  0
  4  5  2  0
  6  4  1  0
  7  6  1  0
  7 12  1  0
  7  8  1  6
  9 10  1  0
  9  8  1  0
 10 11  2  0
 12 13  2  0
 12 20  1  0
 14 10  1  0
 16 15  1  1
 16 17  1  0
 18 16  1  0
 19 18  1  1
 20 19  1  0
 21 19  1  0
 21 22  1  0
 23 21  2  0
M  END
$$$$
