AEL.pdb
     RDKit          3D

 23 22  0  0  1  0  0  0  0  0999 V2000
    8.0929  -12.2019   19.9356 C   0  0  0  0  0  0  0  0  0  0  0  0
    8.1655  -13.6309   19.4303 C   0  0  2  0  0  0  0  0  0  0  0  0
    7.1034  -13.9245   18.5158 N   0  0  0  0  0  0  0  0  0  0  0  0
    8.1551  -14.5315   20.6189 C   0  0  0  0  0  0  0  0  0  0  0  0
    7.0697  -14.9932   21.0560 O   0  0  0  0  0  0  0  0  0  0  0  0
    9.3398  -14.9108   21.3092 N   0  0  0  0  0  0  0  0  0  0  0  0
    9.3913  -15.9878   22.2714 C   0  0  1  0  0  0  0  0  0  0  0  0
   10.5283  -16.9432   22.0141 C   0  0  0  0  0  0  0  0  0  0  0  0
   10.5791  -18.0802   22.9826 C   0  0  0  0  0  0  0  0  0  0  0  0
   11.7014  -18.9696   22.5832 C   0  0  0  0  0  0  0  0  0  0  0  0
   11.6947  -19.6161   21.4934 O   0  0  0  0  0  0  0  0  0  0  0  0
    9.5277  -15.3769   23.6190 C   0  0  0  0  0  0  0  0  0  0  0  0
   10.4792  -14.5935   23.9153 O   0  0  0  0  0  0  0  0  0  0  0  0
   12.8350  -19.1493   23.3836 O   0  0  0  0  0  0  0  0  0  0  0  0
    6.0544  -12.4047   26.1861 C   0  0  0  0  0  0  0  0  0  0  0  0
    7.3610  -13.0271   25.7815 C   0  0  1  0  0  0  0  0  0  0  0  0
    8.4526  -11.9989   26.0446 C   0  0  0  0  0  0  0  0  0  0  0  0
    7.6065  -14.3055   26.4769 C   0  0  0  0  0  0  0  0  0  0  0  0
    8.7288  -15.1358   25.9917 C   0  0  2  0  0  0  0  0  0  0  0  0
    8.5704  -15.6517   24.6645 N   0  0  0  0  0  0  0  0  0  0  0  0
    8.9495  -16.3265   26.8947 C   0  0  0  0  0  0  0  0  0  0  0  0
    8.8354  -17.6051   26.4084 O   0  0  0  0  0  0  0  0  0  0  0  0
    9.2389  -16.1496   28.0965 O   0  0  0  0  0  0  0  0  0  0  0  0
  2  3  1  0
  2  1  1  1
  4  2  1  0
  4  5  2  0
  6  4  1  0
  7  6  1  0
  7 12  1  0
  7  8  1  6
  9 10  1  0
  9  8  1  0
 10 11  2  0
 12 13  2  0
 12 20  1  0
 14 10  1  0
 16 15  1  1
 16 17  1  0
 18 16  1  0
 19 18  1  1
 20 19  1  0
 21 19  1  0
 21 22  1  0
 23 21  2  0
M  END
$$$$
