AEL.pdb
     RDKit          3D

 23 22  0  0  1  0  0  0  0  0999 V2000
    8.1722  -12.1422   20.1852 C   0  0  0  0  0  0  0  0  0  0  0  0
    8.1248  -13.5271   19.5665 C   0  0  2  0  0  0  0  0  0  0  0  0
    6.9983  -13.6805   18.6959 N   0  0  0  0  0  0  0  0  0  0  0  0
    8.1200  -14.5192   20.6798 C   0  0  0  0  0  0  0  0  0  0  0  0
    7.0341  -14.8889   21.1960 O   0  0  0  0  0  0  0  0  0  0  0  0
    9.3108  -15.0902   21.2089 N   0  0  0  0  0  0  0  0  0  0  0  0
    9.3185  -16.1257   22.2170 C   0  0  1  0  0  0  0  0  0  0  0  0
   10.2883  -17.2358   21.9025 C   0  0  0  0  0  0  0  0  0  0  0  0
   10.3114  -18.3145   22.9365 C   0  0  0  0  0  0  0  0  0  0  0  0
   11.3323  -19.3153   22.5285 C   0  0  0  0  0  0  0  0  0  0  0  0
   12.4080  -19.4840   23.1765 O   0  0  0  0  0  0  0  0  0  0  0  0
    9.6705  -15.4865   23.5114 C   0  0  0  0  0  0  0  0  0  0  0  0
   10.7693  -14.8809   23.6919 O   0  0  0  0  0  0  0  0  0  0  0  0
   11.1709  -20.1334   21.4049 O   0  0  0  0  0  0  0  0  0  0  0  0
    6.0325  -13.9423   26.1816 C   0  0  0  0  0  0  0  0  0  0  0  0
    7.2700  -13.3564   25.5624 C   0  0  1  0  0  0  0  0  0  0  0  0
    7.0737  -11.8480   25.4993 C   0  0  0  0  0  0  0  0  0  0  0  0
    8.4926  -13.7390   26.2953 C   0  0  0  0  0  0  0  0  0  0  0  0
    9.1329  -15.0181   25.9233 C   0  0  2  0  0  0  0  0  0  0  0  0
    8.7652  -15.5271   24.6355 N   0  0  0  0  0  0  0  0  0  0  0  0
    8.8025  -16.0990   26.9256 C   0  0  0  0  0  0  0  0  0  0  0  0
    8.2014  -17.2661   26.5247 O   0  0  0  0  0  0  0  0  0  0  0  0
    9.0777  -15.9324   28.1323 O   0  0  0  0  0  0  0  0  0  0  0  0
  2  3  1  0
  2  1  1  1
  4  2  1  0
  4  5  2  0
  6  4  1  0
  7  6  1  0
  7 12  1  0
  7  8  1  6
  9 10  1  0
  9  8  1  0
 10 11  2  0
 12 13  2  0
 12 20  1  0
 14 10  1  0
 16 15  1  1
 16 17  1  0
 18 16  1  0
 19 18  1  1
 20 19  1  0
 21 19  1  0
 21 22  1  0
 23 21  2  0
M  END
$$$$
