GNQ.pdb
     RDKit          3D

 22 21  0  0  1  0  0  0  0  0999 V2000
   28.4128  -22.3706  -16.3797 N   0  0  0  0  0  0  0  0  0  0  0  0
   27.9577  -21.2245  -15.6213 C   0  0  0  0  0  0  0  0  0  0  0  0
   26.7414  -21.5859  -14.8639 C   0  0  0  0  0  0  0  0  0  0  0  0
   26.1164  -22.6462  -15.1452 O   0  0  0  0  0  0  0  0  0  0  0  0
   25.0244  -21.4370   -9.3739 N   0  0  0  0  0  0  0  0  0  0  0  0
   24.4569  -20.9357  -10.6114 C   0  0  0  0  0  0  0  0  0  0  0  0
   23.2216  -20.8543  -10.5996 O   0  0  0  0  0  0  0  0  0  0  0  0
   25.2821  -20.5765  -11.7263 C   0  0  0  0  0  0  0  0  0  0  0  0
   25.0463  -21.2294  -13.0705 C   0  0  2  0  0  0  0  0  0  0  0  0
   26.2486  -20.7821  -13.8279 N   0  0  0  0  0  0  0  0  0  0  0  0
   23.8415  -20.7838  -13.7700 C   0  0  0  0  0  0  0  0  0  0  0  0
   23.8956  -19.6200  -14.3161 O   0  0  0  0  0  0  0  0  0  0  0  0
   19.6372  -23.9782  -16.5963 N   0  0  0  0  0  0  0  0  0  0  0  0
   19.1577  -22.7030  -16.9832 C   0  0  0  0  0  0  0  0  0  0  0  0
   18.1061  -22.5813  -17.6545 O   0  0  0  0  0  0  0  0  0  0  0  0
   19.9115  -21.4920  -16.5885 C   0  0  0  0  0  0  0  0  0  0  0  0
   21.1413  -21.8918  -15.8548 C   0  0  0  0  0  0  0  0  0  0  0  0
   21.5255  -20.9423  -14.7526 C   0  0  2  0  0  0  0  0  0  0  0  0
   22.6184  -21.4591  -13.9372 N   0  0  0  0  0  0  0  0  0  0  0  0
   20.3716  -20.7039  -13.8603 C   0  0  0  0  0  0  0  0  0  0  0  0
   19.5429  -19.7964  -14.0516 O   0  0  0  0  0  0  0  0  0  0  0  0
   20.1499  -21.5063  -12.7319 O   0  0  0  0  0  0  0  0  0  0  0  0
  2  3  1  0
  2  1  1  0
  3  4  2  0
  5  6  1  0
  6  7  2  0
  6  8  1  0
  9  8  1  1
  9 11  1  0
 10  9  1  0
 10  3  1  0
 11 19  1  0
 11 12  2  0
 13 14  1  0
 14 16  1  0
 15 14  2  0
 17 16  1  0
 18 17  1  6
 19 18  1  0
 20 22  1  0
 20 18  1  0
 21 20  2  0
M  END
$$$$
