GNQ.pdb
     RDKit          3D

 22 21  0  0  1  0  0  0  0  0999 V2000
   25.2595  -10.8302  -15.2258 N   0  0  0  0  0  0  0  0  0  0  0  0
   24.5012  -11.5384  -16.2353 C   0  0  0  0  0  0  0  0  0  0  0  0
   23.3501  -10.7131  -16.6568 C   0  0  0  0  0  0  0  0  0  0  0  0
   23.5311   -9.7227  -17.4187 O   0  0  0  0  0  0  0  0  0  0  0  0
   18.9860  -13.3093  -17.6421 N   0  0  0  0  0  0  0  0  0  0  0  0
   19.4496  -11.9430  -17.7936 C   0  0  0  0  0  0  0  0  0  0  0  0
   19.5402  -11.5721  -18.9712 O   0  0  0  0  0  0  0  0  0  0  0  0
   19.7647  -11.1254  -16.6598 C   0  0  0  0  0  0  0  0  0  0  0  0
   20.9217  -10.1539  -16.7387 C   0  0  2  0  0  0  0  0  0  0  0  0
   22.0441  -10.9943  -16.2356 N   0  0  0  0  0  0  0  0  0  0  0  0
   20.7900   -8.9676  -15.8932 C   0  0  0  0  0  0  0  0  0  0  0  0
   20.9408   -9.1482  -14.6281 O   0  0  0  0  0  0  0  0  0  0  0  0
   23.6807   -3.8937  -15.9173 N   0  0  0  0  0  0  0  0  0  0  0  0
   22.7714   -3.5331  -14.8930 C   0  0  0  0  0  0  0  0  0  0  0  0
   22.9352   -2.4901  -14.2174 O   0  0  0  0  0  0  0  0  0  0  0  0
   21.6071   -4.4033  -14.6147 C   0  0  0  0  0  0  0  0  0  0  0  0
   21.6257   -5.5662  -15.5410 C   0  0  0  0  0  0  0  0  0  0  0  0
   20.4896   -6.5295  -15.3277 C   0  0  2  0  0  0  0  0  0  0  0  0
   20.5243   -7.6391  -16.2732 N   0  0  0  0  0  0  0  0  0  0  0  0
   19.1953   -5.8357  -15.4949 C   0  0  0  0  0  0  0  0  0  0  0  0
   18.5953   -5.7729  -16.5825 O   0  0  0  0  0  0  0  0  0  0  0  0
   18.5674   -5.2021  -14.4129 O   0  0  0  0  0  0  0  0  0  0  0  0
  2  3  1  0
  2  1  1  0
  3  4  2  0
  5  6  1  0
  6  7  2  0
  6  8  1  0
  9  8  1  1
  9 11  1  0
 10  9  1  0
 10  3  1  0
 11 19  1  0
 11 12  2  0
 13 14  1  0
 14 16  1  0
 15 14  2  0
 17 16  1  0
 18 17  1  6
 19 18  1  0
 20 22  1  0
 20 18  1  0
 21 20  2  0
M  END
$$$$
