GNQ.pdb
     RDKit          3D

 22 21  0  0  1  0  0  0  0  0999 V2000
   25.1357  -23.5865  -14.6971 N   0  0  0  0  0  0  0  0  0  0  0  0
   24.7255  -22.2867  -15.1850 C   0  0  0  0  0  0  0  0  0  0  0  0
   23.3788  -21.9680  -14.6667 C   0  0  0  0  0  0  0  0  0  0  0  0
   22.4180  -22.7582  -14.8821 O   0  0  0  0  0  0  0  0  0  0  0  0
   19.7073  -20.8529  -11.4382 N   0  0  0  0  0  0  0  0  0  0  0  0
   20.9055  -20.0801  -11.1703 C   0  0  0  0  0  0  0  0  0  0  0  0
   20.9532  -19.6099  -10.0261 O   0  0  0  0  0  0  0  0  0  0  0  0
   21.9215  -19.8986  -12.1643 C   0  0  0  0  0  0  0  0  0  0  0  0
   21.7234  -20.4762  -13.5484 C   0  0  2  0  0  0  0  0  0  0  0  0
   23.1252  -20.8021  -13.9327 N   0  0  0  0  0  0  0  0  0  0  0  0
   21.1568  -19.5498  -14.5282 C   0  0  0  0  0  0  0  0  0  0  0  0
   21.9422  -18.6282  -14.9637 O   0  0  0  0  0  0  0  0  0  0  0  0
   18.4846  -20.4749  -19.6922 N   0  0  0  0  0  0  0  0  0  0  0  0
   18.3888  -19.0619  -19.7030 C   0  0  0  0  0  0  0  0  0  0  0  0
   18.0164  -18.4444  -20.7283 O   0  0  0  0  0  0  0  0  0  0  0  0
   18.7349  -18.3001  -18.4822 C   0  0  0  0  0  0  0  0  0  0  0  0
   19.1184  -19.2458  -17.4009 C   0  0  0  0  0  0  0  0  0  0  0  0
   19.4382  -18.5740  -16.0930 C   0  0  2  0  0  0  0  0  0  0  0  0
   19.8598  -19.5274  -15.0734 N   0  0  0  0  0  0  0  0  0  0  0  0
   18.2474  -17.8639  -15.5807 C   0  0  0  0  0  0  0  0  0  0  0  0
   17.5171  -18.3237  -14.6851 O   0  0  0  0  0  0  0  0  0  0  0  0
   17.8758  -16.6111  -16.0894 O   0  0  0  0  0  0  0  0  0  0  0  0
  2  3  1  0
  2  1  1  0
  3  4  2  0
  5  6  1  0
  6  7  2  0
  6  8  1  0
  9  8  1  1
  9 11  1  0
 10  9  1  0
 10  3  1  0
 11 19  1  0
 11 12  2  0
 13 14  1  0
 14 16  1  0
 15 14  2  0
 17 16  1  0
 18 17  1  6
 19 18  1  0
 20 22  1  0
 20 18  1  0
 21 20  2  0
M  END
$$$$
