GNQ.pdb
     RDKit          3D

 22 21  0  0  1  0  0  0  0  0999 V2000
   26.7117  -15.9692  -15.7032 N   0  0  0  0  0  0  0  0  0  0  0  0
   26.8839  -17.1414  -14.8713 C   0  0  0  0  0  0  0  0  0  0  0  0
   26.0500  -18.2438  -15.3939 C   0  0  0  0  0  0  0  0  0  0  0  0
   25.1894  -18.0127  -16.2883 O   0  0  0  0  0  0  0  0  0  0  0  0
   28.7484  -21.7556  -16.1195 N   0  0  0  0  0  0  0  0  0  0  0  0
   27.3543  -21.7957  -16.5189 C   0  0  0  0  0  0  0  0  0  0  0  0
   27.1849  -21.8342  -17.7446 O   0  0  0  0  0  0  0  0  0  0  0  0
   26.2948  -21.7902  -15.5542 C   0  0  0  0  0  0  0  0  0  0  0  0
   25.3281  -20.6273  -15.5138 C   0  0  2  0  0  0  0  0  0  0  0  0
   26.1818  -19.5575  -14.9258 N   0  0  0  0  0  0  0  0  0  0  0  0
   24.1543  -20.8299  -14.6648 C   0  0  0  0  0  0  0  0  0  0  0  0
   24.3718  -20.9089  -13.3990 O   0  0  0  0  0  0  0  0  0  0  0  0
   20.0683  -17.4639  -12.7711 N   0  0  0  0  0  0  0  0  0  0  0  0
   20.0233  -17.6833  -14.1696 C   0  0  0  0  0  0  0  0  0  0  0  0
   19.4980  -16.8467  -14.9412 O   0  0  0  0  0  0  0  0  0  0  0  0
   20.6064  -18.9225  -14.7305 C   0  0  0  0  0  0  0  0  0  0  0  0
   21.1928  -19.7349  -13.6319 C   0  0  0  0  0  0  0  0  0  0  0  0
   21.7146  -21.0734  -14.0794 C   0  0  2  0  0  0  0  0  0  0  0  0
   22.8034  -20.9460  -15.0410 N   0  0  0  0  0  0  0  0  0  0  0  0
   20.6350  -21.8519  -14.7222 C   0  0  0  0  0  0  0  0  0  0  0  0
   20.6228  -22.1193  -15.9368 O   0  0  0  0  0  0  0  0  0  0  0  0
   19.5499  -22.3375  -13.9785 O   0  0  0  0  0  0  0  0  0  0  0  0
  2  3  1  0
  2  1  1  0
  3  4  2  0
  5  6  1  0
  6  7  2  0
  6  8  1  0
  9  8  1  1
  9 11  1  0
 10  9  1  0
 10  3  1  0
 11 19  1  0
 11 12  2  0
 13 14  1  0
 14 16  1  0
 15 14  2  0
 17 16  1  0
 18 17  1  6
 19 18  1  0
 20 22  1  0
 20 18  1  0
 21 20  2  0
M  END
$$$$
