GNQ.pdb
     RDKit          3D

 22 21  0  0  1  0  0  0  0  0999 V2000
   21.5760  -18.9764  -15.1291 N   0  0  0  0  0  0  0  0  0  0  0  0
   21.7780  -17.9130  -16.0904 C   0  0  0  0  0  0  0  0  0  0  0  0
   22.5294  -16.8103  -15.4554 C   0  0  0  0  0  0  0  0  0  0  0  0
   22.2995  -16.5026  -14.2527 O   0  0  0  0  0  0  0  0  0  0  0  0
   27.0027  -17.2167  -15.7974 N   0  0  0  0  0  0  0  0  0  0  0  0
   26.4731  -16.0046  -15.2014 C   0  0  0  0  0  0  0  0  0  0  0  0
   26.8390  -15.8193  -14.0333 O   0  0  0  0  0  0  0  0  0  0  0  0
   25.6076  -15.1245  -15.9290 C   0  0  0  0  0  0  0  0  0  0  0  0
   24.1771  -14.9391  -15.4730 C   0  0  2  0  0  0  0  0  0  0  0  0
   23.5037  -16.0823  -16.1503 N   0  0  0  0  0  0  0  0  0  0  0  0
   23.5507  -13.6881  -15.8995 C   0  0  0  0  0  0  0  0  0  0  0  0
   22.9777  -13.7000  -17.0515 O   0  0  0  0  0  0  0  0  0  0  0  0
   22.3903   -8.3569  -12.7481 N   0  0  0  0  0  0  0  0  0  0  0  0
   21.6149   -8.1430  -13.9138 C   0  0  0  0  0  0  0  0  0  0  0  0
   20.9267   -7.1047  -14.0540 O   0  0  0  0  0  0  0  0  0  0  0  0
   21.6163   -9.1634  -14.9857 C   0  0  0  0  0  0  0  0  0  0  0  0
   22.4983  -10.2938  -14.5918 C   0  0  0  0  0  0  0  0  0  0  0  0
   22.6416  -11.3498  -15.6540 C   0  0  2  0  0  0  0  0  0  0  0  0
   23.4802  -12.4598  -15.2167 N   0  0  0  0  0  0  0  0  0  0  0  0
   23.2564  -10.7716  -16.8674 C   0  0  0  0  0  0  0  0  0  0  0  0
   24.4864  -10.6724  -17.0225 O   0  0  0  0  0  0  0  0  0  0  0  0
   22.4667  -10.2976  -17.9247 O   0  0  0  0  0  0  0  0  0  0  0  0
  2  3  1  0
  2  1  1  0
  3  4  2  0
  5  6  1  0
  6  7  2  0
  6  8  1  0
  9  8  1  6
  9 11  1  0
 10  9  1  0
 10  3  1  0
 11 19  1  0
 11 12  2  0
 13 14  1  0
 14 16  1  0
 15 14  2  0
 17 16  1  0
 18 17  1  1
 19 18  1  0
 20 22  1  0
 20 18  1  0
 21 20  2  0
M  END
$$$$
