GNQ.pdb
     RDKit          3D

 22 21  0  0  1  0  0  0  0  0999 V2000
   19.9500  -13.2666  -16.5474 N   0  0  0  0  0  0  0  0  0  0  0  0
   20.6997  -12.3976  -17.4298 C   0  0  0  0  0  0  0  0  0  0  0  0
   21.1334  -11.1960  -16.6870 C   0  0  0  0  0  0  0  0  0  0  0  0
   20.5730  -10.8934  -15.5969 O   0  0  0  0  0  0  0  0  0  0  0  0
   23.8565  -10.6575  -14.2246 N   0  0  0  0  0  0  0  0  0  0  0  0
   24.6448  -10.0325  -15.2698 C   0  0  0  0  0  0  0  0  0  0  0  0
   25.8637  -10.2178  -15.1570 O   0  0  0  0  0  0  0  0  0  0  0  0
   24.0340   -9.2763  -16.3225 C   0  0  0  0  0  0  0  0  0  0  0  0
   22.5272   -9.1523  -16.3751 C   0  0  2  0  0  0  0  0  0  0  0  0
   22.1608  -10.3671  -17.1557 N   0  0  0  0  0  0  0  0  0  0  0  0
   22.0297   -7.9644  -17.0686 C   0  0  0  0  0  0  0  0  0  0  0  0
   21.9479   -8.0436  -18.3503 O   0  0  0  0  0  0  0  0  0  0  0  0
   16.5767   -4.2306  -15.7099 N   0  0  0  0  0  0  0  0  0  0  0  0
   17.5125   -4.6589  -16.6829 C   0  0  0  0  0  0  0  0  0  0  0  0
   17.2456   -4.6081  -17.9066 O   0  0  0  0  0  0  0  0  0  0  0  0
   18.8290   -5.1762  -16.2477 C   0  0  0  0  0  0  0  0  0  0  0  0
   19.5403   -5.7633  -17.4140 C   0  0  0  0  0  0  0  0  0  0  0  0
   21.0388   -5.6608  -17.3248 C   0  0  2  0  0  0  0  0  0  0  0  0
   21.6170   -6.7340  -16.5247 N   0  0  0  0  0  0  0  0  0  0  0  0
   21.4254   -4.3769  -16.7027 C   0  0  0  0  0  0  0  0  0  0  0  0
   21.7995   -4.2820  -15.5204 O   0  0  0  0  0  0  0  0  0  0  0  0
   21.3890   -3.1788  -17.4304 O   0  0  0  0  0  0  0  0  0  0  0  0
  2  3  1  0
  2  1  1  0
  3  4  2  0
  5  6  1  0
  6  7  2  0
  6  8  1  0
  9  8  1  6
  9 11  1  0
 10  9  1  0
 10  3  1  0
 11 19  1  0
 11 12  2  0
 13 14  1  0
 14 16  1  0
 15 14  2  0
 17 16  1  0
 18 17  1  1
 19 18  1  0
 20 22  1  0
 20 18  1  0
 21 20  2  0
M  END
$$$$
