GNQ.pdb
     RDKit          3D

 22 21  0  0  1  0  0  0  0  0999 V2000
   19.7024  -13.3062  -16.0946 N   0  0  0  0  0  0  0  0  0  0  0  0
   19.5637  -12.3637  -17.1847 C   0  0  0  0  0  0  0  0  0  0  0  0
   18.6223  -11.2936  -16.7944 C   0  0  0  0  0  0  0  0  0  0  0  0
   18.2682  -10.4268  -17.6415 O   0  0  0  0  0  0  0  0  0  0  0  0
   13.9027  -11.3070  -15.0927 N   0  0  0  0  0  0  0  0  0  0  0  0
   15.2049  -11.7722  -14.6538 C   0  0  0  0  0  0  0  0  0  0  0  0
   15.3476  -13.0000  -14.7219 O   0  0  0  0  0  0  0  0  0  0  0  0
   16.2111  -10.8637  -14.1898 C   0  0  0  0  0  0  0  0  0  0  0  0
   17.0921  -10.1505  -15.1918 C   0  0  2  0  0  0  0  0  0  0  0  0
   18.0994  -11.2044  -15.4979 N   0  0  0  0  0  0  0  0  0  0  0  0
   17.7755   -8.9638  -14.6778 C   0  0  0  0  0  0  0  0  0  0  0  0
   18.2175   -9.0368  -13.4715 O   0  0  0  0  0  0  0  0  0  0  0  0
   21.9259   -5.6862  -13.5263 N   0  0  0  0  0  0  0  0  0  0  0  0
   22.0496   -6.9977  -14.0464 C   0  0  0  0  0  0  0  0  0  0  0  0
   22.9664   -7.7631  -13.6658 O   0  0  0  0  0  0  0  0  0  0  0  0
   21.0797   -7.4734  -15.0580 C   0  0  0  0  0  0  0  0  0  0  0  0
   20.0882   -6.4007  -15.3358 C   0  0  0  0  0  0  0  0  0  0  0  0
   18.7450   -6.6371  -14.7000 C   0  0  2  0  0  0  0  0  0  0  0  0
   18.0264   -7.7406  -15.3263 N   0  0  0  0  0  0  0  0  0  0  0  0
   17.9049   -5.4269  -14.8197 C   0  0  0  0  0  0  0  0  0  0  0  0
   16.8728   -5.3840  -15.5124 O   0  0  0  0  0  0  0  0  0  0  0  0
   18.2370   -4.2441  -14.1438 O   0  0  0  0  0  0  0  0  0  0  0  0
  2  3  1  0
  2  1  1  0
  3  4  2  0
  5  6  1  0
  6  7  2  0
  6  8  1  0
  9  8  1  1
  9 11  1  0
 10  9  1  0
 10  3  1  0
 11 19  1  0
 11 12  2  0
 13 14  1  0
 14 16  1  0
 15 14  2  0
 17 16  1  0
 18 17  1  6
 19 18  1  0
 20 22  1  0
 20 18  1  0
 21 20  2  0
M  END
$$$$
