GNQ.pdb
     RDKit          3D

 22 21  0  0  1  0  0  0  0  0999 V2000
   27.5136  -23.6474  -16.5620 N   0  0  0  0  0  0  0  0  0  0  0  0
   26.3014  -23.0540  -17.0858 C   0  0  0  0  0  0  0  0  0  0  0  0
   25.8932  -21.9247  -16.2246 C   0  0  0  0  0  0  0  0  0  0  0  0
   26.0053  -22.0168  -14.9704 O   0  0  0  0  0  0  0  0  0  0  0  0
   27.6114  -18.3036  -16.0436 N   0  0  0  0  0  0  0  0  0  0  0  0
   26.4814  -17.8093  -16.8074 C   0  0  0  0  0  0  0  0  0  0  0  0
   26.7469  -16.8322  -17.5198 O   0  0  0  0  0  0  0  0  0  0  0  0
   25.1889  -18.4217  -16.7206 C   0  0  0  0  0  0  0  0  0  0  0  0
   24.9945  -19.6320  -15.8340 C   0  0  2  0  0  0  0  0  0  0  0  0
   25.3784  -20.7359  -16.7576 N   0  0  0  0  0  0  0  0  0  0  0  0
   23.6232  -19.8440  -15.3714 C   0  0  0  0  0  0  0  0  0  0  0  0
   22.7846  -20.2731  -16.2481 O   0  0  0  0  0  0  0  0  0  0  0  0
   21.2475  -20.4214   -9.6003 N   0  0  0  0  0  0  0  0  0  0  0  0
   20.0799  -20.6368  -10.3724 C   0  0  0  0  0  0  0  0  0  0  0  0
   18.9934  -20.9513   -9.8321 O   0  0  0  0  0  0  0  0  0  0  0  0
   20.1432  -20.4887  -11.8436 C   0  0  0  0  0  0  0  0  0  0  0  0
   21.5224  -20.1028  -12.2432 C   0  0  0  0  0  0  0  0  0  0  0  0
   21.7145  -19.9947  -13.7317 C   0  0  2  0  0  0  0  0  0  0  0  0
   23.0861  -19.6484  -14.0857 N   0  0  0  0  0  0  0  0  0  0  0  0
   20.8289  -18.9486  -14.2849 C   0  0  0  0  0  0  0  0  0  0  0  0
   21.1378  -17.7441  -14.3129 O   0  0  0  0  0  0  0  0  0  0  0  0
   19.5718  -19.2698  -14.8167 O   0  0  0  0  0  0  0  0  0  0  0  0
  2  3  1  0
  2  1  1  0
  3  4  2  0
  5  6  1  0
  6  7  2  0
  6  8  1  0
  9  8  1  6
  9 11  1  0
 10  9  1  0
 10  3  1  0
 11 19  1  0
 11 12  2  0
 13 14  1  0
 14 16  1  0
 15 14  2  0
 17 16  1  0
 18 17  1  1
 19 18  1  0
 20 22  1  0
 20 18  1  0
 21 20  2  0
M  END
$$$$
