GNQ.pdb
     RDKit          3D

 22 21  0  0  1  0  0  0  0  0999 V2000
   16.3352  -12.6029  -14.0761 N   0  0  0  0  0  0  0  0  0  0  0  0
   17.1539  -11.5677  -14.6710 C   0  0  0  0  0  0  0  0  0  0  0  0
   17.6773  -10.6824  -13.6099 C   0  0  0  0  0  0  0  0  0  0  0  0
   17.5802  -11.0257  -12.3988 O   0  0  0  0  0  0  0  0  0  0  0  0
   21.5756   -6.0739  -13.2094 N   0  0  0  0  0  0  0  0  0  0  0  0
   21.0684   -7.3389  -12.7120 C   0  0  0  0  0  0  0  0  0  0  0  0
   21.5086   -7.6522  -11.5981 O   0  0  0  0  0  0  0  0  0  0  0  0
   20.1422   -8.1279  -13.4688 C   0  0  0  0  0  0  0  0  0  0  0  0
   18.8971   -8.6650  -12.7980 C   0  0  2  0  0  0  0  0  0  0  0  0
   18.2876   -9.4561  -13.9034 N   0  0  0  0  0  0  0  0  0  0  0  0
   17.9474   -7.6455  -12.3530 C   0  0  0  0  0  0  0  0  0  0  0  0
   17.2637   -7.0612  -13.2734 O   0  0  0  0  0  0  0  0  0  0  0  0
   13.1721   -8.0618   -7.7802 N   0  0  0  0  0  0  0  0  0  0  0  0
   14.5064   -7.6352   -7.9886 C   0  0  0  0  0  0  0  0  0  0  0  0
   15.2729   -7.4064   -7.0234 O   0  0  0  0  0  0  0  0  0  0  0  0
   15.0052   -7.4558   -9.3703 C   0  0  0  0  0  0  0  0  0  0  0  0
   16.0459   -6.3939   -9.3868 C   0  0  0  0  0  0  0  0  0  0  0  0
   16.6788   -6.1860  -10.7360 C   0  0  2  0  0  0  0  0  0  0  0  0
   17.6679   -7.2123  -11.0438 N   0  0  0  0  0  0  0  0  0  0  0  0
   17.3603   -4.8753  -10.7823 C   0  0  0  0  0  0  0  0  0  0  0  0
   18.5933   -4.7559  -10.8944 O   0  0  0  0  0  0  0  0  0  0  0  0
   16.6352   -3.6778  -10.7012 O   0  0  0  0  0  0  0  0  0  0  0  0
  2  3  1  0
  2  1  1  0
  3  4  2  0
  5  6  1  0
  6  7  2  0
  6  8  1  0
  9  8  1  6
  9 11  1  0
 10  9  1  0
 10  3  1  0
 11 19  1  0
 11 12  2  0
 13 14  1  0
 14 16  1  0
 15 14  2  0
 17 16  1  0
 18 17  1  1
 19 18  1  0
 20 22  1  0
 20 18  1  0
 21 20  2  0
M  END
$$$$
