GNQ.pdb
     RDKit          3D

 22 21  0  0  1  0  0  0  0  0999 V2000
   13.0355  -13.7810  -14.1306 N   0  0  0  0  0  0  0  0  0  0  0  0
   13.4579  -12.7114  -15.0100 C   0  0  0  0  0  0  0  0  0  0  0  0
   14.6618  -12.0609  -14.4523 C   0  0  0  0  0  0  0  0  0  0  0  0
   15.0540  -12.3543  -13.2885 O   0  0  0  0  0  0  0  0  0  0  0  0
   19.4795   -9.0091  -15.9424 N   0  0  0  0  0  0  0  0  0  0  0  0
   18.9813  -10.3138  -15.5497 C   0  0  0  0  0  0  0  0  0  0  0  0
   19.8430  -11.0504  -15.0522 O   0  0  0  0  0  0  0  0  0  0  0  0
   17.6091  -10.6823  -15.7353 C   0  0  0  0  0  0  0  0  0  0  0  0
   16.6371  -10.5450  -14.5842 C   0  0  2  0  0  0  0  0  0  0  0  0
   15.3963  -11.1154  -15.1796 N   0  0  0  0  0  0  0  0  0  0  0  0
   16.3792   -9.1707  -14.1550 C   0  0  0  0  0  0  0  0  0  0  0  0
   15.5402   -8.4992  -14.8628 O   0  0  0  0  0  0  0  0  0  0  0  0
   14.7753   -6.7559   -8.1381 N   0  0  0  0  0  0  0  0  0  0  0  0
   15.8269   -7.0873   -9.0270 C   0  0  0  0  0  0  0  0  0  0  0  0
   17.0023   -7.2328   -8.6163 O   0  0  0  0  0  0  0  0  0  0  0  0
   15.5337   -7.2647  -10.4668 C   0  0  0  0  0  0  0  0  0  0  0  0
   16.6968   -6.8025  -11.2694 C   0  0  0  0  0  0  0  0  0  0  0  0
   16.5724   -7.0932  -12.7405 C   0  0  2  0  0  0  0  0  0  0  0  0
   16.9211   -8.4726  -13.0601 N   0  0  0  0  0  0  0  0  0  0  0  0
   17.4727   -6.2107  -13.5120 C   0  0  0  0  0  0  0  0  0  0  0  0
   17.3960   -4.9697  -13.4807 O   0  0  0  0  0  0  0  0  0  0  0  0
   18.4785   -6.7404  -14.3331 O   0  0  0  0  0  0  0  0  0  0  0  0
  2  3  1  0
  2  1  1  0
  3  4  2  0
  5  6  1  0
  6  7  2  0
  6  8  1  0
  9  8  1  6
  9 11  1  0
 10  9  1  0
 10  3  1  0
 11 19  1  0
 11 12  2  0
 13 14  1  0
 14 16  1  0
 15 14  2  0
 17 16  1  0
 18 17  1  1
 19 18  1  0
 20 22  1  0
 20 18  1  0
 21 20  2  0
M  END
$$$$
