GNQ.pdb
     RDKit          3D

 22 21  0  0  1  0  0  0  0  0999 V2000
   24.0612  -17.5546  -18.1697 N   0  0  0  0  0  0  0  0  0  0  0  0
   25.0902  -17.4982  -17.1530 C   0  0  0  0  0  0  0  0  0  0  0  0
   25.2589  -18.8356  -16.5475 C   0  0  0  0  0  0  0  0  0  0  0  0
   24.4902  -19.7797  -16.8820 O   0  0  0  0  0  0  0  0  0  0  0  0
   28.8159  -22.6024  -16.3497 N   0  0  0  0  0  0  0  0  0  0  0  0
   28.5269  -21.1873  -16.2128 C   0  0  0  0  0  0  0  0  0  0  0  0
   28.8842  -20.5066  -17.1831 O   0  0  0  0  0  0  0  0  0  0  0  0
   27.8842  -20.6602  -15.0457 C   0  0  0  0  0  0  0  0  0  0  0  0
   26.3829  -20.4734  -15.0404 C   0  0  2  0  0  0  0  0  0  0  0  0
   26.2573  -19.0988  -15.6007 N   0  0  0  0  0  0  0  0  0  0  0  0
   25.7607  -20.5143  -13.7173 C   0  0  0  0  0  0  0  0  0  0  0  0
   25.8476  -19.4418  -13.0118 O   0  0  0  0  0  0  0  0  0  0  0  0
   26.5181  -19.1864   -9.0105 N   0  0  0  0  0  0  0  0  0  0  0  0
   25.7098  -20.2163   -8.4703 C   0  0  0  0  0  0  0  0  0  0  0  0
   25.6308  -20.3976   -7.2325 O   0  0  0  0  0  0  0  0  0  0  0  0
   24.9447  -21.0948   -9.3831 C   0  0  0  0  0  0  0  0  0  0  0  0
   25.2811  -20.7578  -10.7917 C   0  0  0  0  0  0  0  0  0  0  0  0
   24.4105  -21.4499  -11.8052 C   0  0  2  0  0  0  0  0  0  0  0  0
   25.0665  -21.5722  -13.1018 N   0  0  0  0  0  0  0  0  0  0  0  0
   23.1581  -20.6907  -12.0040 C   0  0  0  0  0  0  0  0  0  0  0  0
   22.9895  -19.8955  -12.9454 O   0  0  0  0  0  0  0  0  0  0  0  0
   22.0763  -20.8333  -11.1232 O   0  0  0  0  0  0  0  0  0  0  0  0
  2  3  1  0
  2  1  1  0
  3  4  2  0
  5  6  1  0
  6  7  2  0
  6  8  1  0
  9  8  1  1
  9 11  1  0
 10  9  1  0
 10  3  1  0
 11 19  1  0
 11 12  2  0
 13 14  1  0
 14 16  1  0
 15 14  2  0
 17 16  1  0
 18 17  1  1
 19 18  1  0
 20 22  1  0
 20 18  1  0
 21 20  2  0
M  END
$$$$
