GNQ.pdb
     RDKit          3D

 22 21  0  0  1  0  0  0  0  0999 V2000
   28.3347  -21.5298  -16.2623 N   0  0  0  0  0  0  0  0  0  0  0  0
   27.8218  -20.4729  -15.4163 C   0  0  0  0  0  0  0  0  0  0  0  0
   26.4934  -20.8584  -14.8963 C   0  0  0  0  0  0  0  0  0  0  0  0
   25.7595  -21.6409  -15.5621 O   0  0  0  0  0  0  0  0  0  0  0  0
   26.8580  -21.4297  -10.3398 N   0  0  0  0  0  0  0  0  0  0  0  0
   25.6654  -21.7844  -11.0860 C   0  0  0  0  0  0  0  0  0  0  0  0
   25.4432  -23.0016  -11.1266 O   0  0  0  0  0  0  0  0  0  0  0  0
   24.8424  -20.7890  -11.7065 C   0  0  0  0  0  0  0  0  0  0  0  0
   24.6593  -20.8021  -13.2082 C   0  0  2  0  0  0  0  0  0  0  0  0
   26.0108  -20.3801  -13.6713 N   0  0  0  0  0  0  0  0  0  0  0  0
   23.6596  -19.8629  -13.7161 C   0  0  0  0  0  0  0  0  0  0  0  0
   23.9763  -18.6163  -13.6789 O   0  0  0  0  0  0  0  0  0  0  0  0
   20.9944  -16.3316  -18.8588 N   0  0  0  0  0  0  0  0  0  0  0  0
   21.3427  -17.5695  -18.2653 C   0  0  0  0  0  0  0  0  0  0  0  0
   22.0461  -18.4075  -18.8772 O   0  0  0  0  0  0  0  0  0  0  0  0
   20.8677  -17.8801  -16.8985 C   0  0  0  0  0  0  0  0  0  0  0  0
   21.7638  -18.8935  -16.2814 C   0  0  0  0  0  0  0  0  0  0  0  0
   21.5201  -19.1037  -14.8115 C   0  0  2  0  0  0  0  0  0  0  0  0
   22.3871  -20.1339  -14.2519 N   0  0  0  0  0  0  0  0  0  0  0  0
   20.1204  -19.5193  -14.5817 C   0  0  0  0  0  0  0  0  0  0  0  0
   19.1635  -18.7254  -14.6136 O   0  0  0  0  0  0  0  0  0  0  0  0
   19.7963  -20.8566  -14.3116 O   0  0  0  0  0  0  0  0  0  0  0  0
  2  3  1  0
  2  1  1  0
  3  4  2  0
  5  6  1  0
  6  7  2  0
  6  8  1  0
  9  8  1  1
  9 11  1  0
 10  9  1  0
 10  3  1  0
 11 19  1  0
 11 12  2  0
 13 14  1  0
 14 16  1  0
 15 14  2  0
 17 16  1  0
 18 17  1  6
 19 18  1  0
 20 22  1  0
 20 18  1  0
 21 20  2  0
M  END
$$$$
