GNQ.pdb
     RDKit          3D

 22 21  0  0  1  0  0  0  0  0999 V2000
   28.4300  -22.2572  -16.5605 N   0  0  0  0  0  0  0  0  0  0  0  0
   28.1354  -21.0368  -15.8397 C   0  0  0  0  0  0  0  0  0  0  0  0
   27.0779  -21.2972  -14.8408 C   0  0  0  0  0  0  0  0  0  0  0  0
   26.5610  -22.4460  -14.7561 O   0  0  0  0  0  0  0  0  0  0  0  0
   25.5938  -22.0414  -10.4129 N   0  0  0  0  0  0  0  0  0  0  0  0
   26.1154  -20.6913  -10.5133 C   0  0  0  0  0  0  0  0  0  0  0  0
   26.5933  -20.2587   -9.4564 O   0  0  0  0  0  0  0  0  0  0  0  0
   26.0654  -19.9550  -11.7415 C   0  0  0  0  0  0  0  0  0  0  0  0
   25.5441  -20.6257  -12.9933 C   0  0  2  0  0  0  0  0  0  0  0  0
   26.6209  -20.2998  -13.9698 N   0  0  0  0  0  0  0  0  0  0  0  0
   24.2699  -20.1046  -13.4876 C   0  0  0  0  0  0  0  0  0  0  0  0
   24.3386  -19.1731  -14.3726 O   0  0  0  0  0  0  0  0  0  0  0  0
   24.8712  -20.9894  -17.3988 N   0  0  0  0  0  0  0  0  0  0  0  0
   23.6359  -21.5719  -17.0235 C   0  0  0  0  0  0  0  0  0  0  0  0
   23.4220  -22.7971  -17.1795 O   0  0  0  0  0  0  0  0  0  0  0  0
   22.5781  -20.7190  -16.4369 C   0  0  0  0  0  0  0  0  0  0  0  0
   22.0269  -21.3784  -15.2236 C   0  0  0  0  0  0  0  0  0  0  0  0
   21.8384  -20.4447  -14.0588 C   0  0  2  0  0  0  0  0  0  0  0  0
   22.9634  -20.4871  -13.1319 N   0  0  0  0  0  0  0  0  0  0  0  0
   20.6202  -20.8098  -13.3054 C   0  0  0  0  0  0  0  0  0  0  0  0
   20.5813  -21.7527  -12.4953 O   0  0  0  0  0  0  0  0  0  0  0  0
   19.4247  -20.0957  -13.4702 O   0  0  0  0  0  0  0  0  0  0  0  0
  2  3  1  0
  2  1  1  0
  3  4  2  0
  5  6  1  0
  6  7  2  0
  6  8  1  0
  9  8  1  1
  9 11  1  0
 10  9  1  0
 10  3  1  0
 11 19  1  0
 11 12  2  0
 13 14  1  0
 14 16  1  0
 15 14  2  0
 17 16  1  0
 18 17  1  6
 19 18  1  0
 20 22  1  0
 20 18  1  0
 21 20  2  0
M  END
$$$$
