GNQ.pdb
     RDKit          3D

 22 21  0  0  1  0  0  0  0  0999 V2000
   18.5520  -15.6016  -17.3782 N   0  0  0  0  0  0  0  0  0  0  0  0
   18.0986  -14.2825  -17.7657 C   0  0  0  0  0  0  0  0  0  0  0  0
   19.1898  -13.3068  -17.5632 C   0  0  0  0  0  0  0  0  0  0  0  0
   20.1752  -13.6069  -16.8332 O   0  0  0  0  0  0  0  0  0  0  0  0
   23.0064  -10.1700  -18.2214 N   0  0  0  0  0  0  0  0  0  0  0  0
   22.0993  -10.2794  -19.3483 C   0  0  0  0  0  0  0  0  0  0  0  0
   22.6259  -10.0331  -20.4413 O   0  0  0  0  0  0  0  0  0  0  0  0
   20.7242  -10.6426  -19.1746 C   0  0  0  0  0  0  0  0  0  0  0  0
   20.2276  -11.0527  -17.8057 C   0  0  2  0  0  0  0  0  0  0  0  0
   19.1708  -12.0404  -18.1618 N   0  0  0  0  0  0  0  0  0  0  0  0
   19.6342   -9.9740  -17.0160 C   0  0  0  0  0  0  0  0  0  0  0  0
   18.4072   -9.6851  -17.2746 O   0  0  0  0  0  0  0  0  0  0  0  0
   17.6163   -9.8082  -11.8732 N   0  0  0  0  0  0  0  0  0  0  0  0
   17.5748   -8.3962  -11.9759 C   0  0  0  0  0  0  0  0  0  0  0  0
   16.9750   -7.7007  -11.1227 O   0  0  0  0  0  0  0  0  0  0  0  0
   18.2512   -7.7293  -13.1109 C   0  0  0  0  0  0  0  0  0  0  0  0
   18.8841   -8.7550  -13.9816 C   0  0  0  0  0  0  0  0  0  0  0  0
   19.4912   -8.1925  -15.2383 C   0  0  2  0  0  0  0  0  0  0  0  0
   20.2210   -9.2021  -15.9964 N   0  0  0  0  0  0  0  0  0  0  0  0
   20.4382   -7.1077  -14.9051 C   0  0  0  0  0  0  0  0  0  0  0  0
   21.6625   -7.1905  -15.1080 O   0  0  0  0  0  0  0  0  0  0  0  0
   19.9933   -5.9074  -14.3328 O   0  0  0  0  0  0  0  0  0  0  0  0
  2  3  1  0
  2  1  1  0
  3  4  2  0
  5  6  1  0
  6  7  2  0
  6  8  1  0
  9  8  1  6
  9 11  1  0
 10  9  1  0
 10  3  1  0
 11 19  1  0
 11 12  2  0
 13 14  1  0
 14 16  1  0
 15 14  2  0
 17 16  1  0
 18 17  1  1
 19 18  1  0
 20 22  1  0
 20 18  1  0
 21 20  2  0
M  END
$$$$
