YSV.pdb
     RDKit          3D

 26 26  0  0  1  0  0  0  0  0999 V2000
    8.6086  -13.0993   16.9330 O   0  0  0  0  0  0  0  0  0  0  0  0
    8.1602  -13.5333   18.1702 C   0  0  0  0  0  0  0  0  0  0  0  0
    8.2864  -14.8561   18.5140 C   0  0  0  0  0  0  0  0  0  0  0  0
    7.8337  -15.2862   19.7590 C   0  0  0  0  0  0  0  0  0  0  0  0
    7.2694  -14.4008   20.6301 C   0  0  0  0  0  0  0  0  0  0  0  0
    6.7878  -14.8698   21.9603 C   0  0  0  0  0  0  0  0  0  0  0  0
    6.8067  -16.3927   22.0318 C   0  0  2  0  0  0  0  0  0  0  0  0
    5.5506  -16.8468   21.4677 N   0  0  0  0  0  0  0  0  0  0  0  0
    6.9242  -16.7758   23.4447 C   0  0  0  0  0  0  0  0  0  0  0  0
    5.8713  -16.7483   24.1517 O   0  0  0  0  0  0  0  0  0  0  0  0
    7.1462  -13.0646   20.2732 C   0  0  0  0  0  0  0  0  0  0  0  0
    7.5882  -12.6242   19.0477 C   0  0  0  0  0  0  0  0  0  0  0  0
    9.4461  -19.4528   25.1026 O   0  0  0  0  0  0  0  0  0  0  0  0
    8.3762  -18.8675   25.7406 C   0  0  0  0  0  0  0  0  0  0  0  0
    8.2671  -17.3699   25.4150 C   0  0  2  0  0  0  0  0  0  0  0  0
    8.1743  -17.1620   23.9929 N   0  0  0  0  0  0  0  0  0  0  0  0
    9.5231  -16.7639   25.9567 C   0  0  0  0  0  0  0  0  0  0  0  0
   10.5569  -16.6773   25.2475 O   0  0  0  0  0  0  0  0  0  0  0  0
    9.2574  -14.4054   29.3127 C   0  0  0  0  0  0  0  0  0  0  0  0
   10.4281  -14.3440   28.3243 C   0  0  2  0  0  0  0  0  0  0  0  0
   10.0935  -13.5007   27.1369 C   0  0  0  0  0  0  0  0  0  0  0  0
   10.7217  -15.7865   27.9466 C   0  0  2  0  0  0  0  0  0  0  0  0
    9.5406  -16.2878   27.2750 N   0  0  0  0  0  0  0  0  0  0  0  0
   10.9473  -16.6065   29.1526 C   0  0  0  0  0  0  0  0  0  0  0  0
   12.1321  -16.5160   29.8637 O   0  0  0  0  0  0  0  0  0  0  0  0
   10.0708  -17.3956   29.5501 O   0  0  0  0  0  0  0  0  0  0  0  0
  2  3  2  0
  2  1  1  0
  4  3  1  0
  5  4  2  0
  6  5  1  0
  7  6  1  0
  7  9  1  0
  7  8  1  1
  9 16  1  0
  9 10  2  0
 11  5  1  0
 11 12  2  0
 12  2  1  0
 13 14  1  0
 15 14  1  6
 16 15  1  0
 17 15  1  0
 17 18  2  0
 20 19  1  1
 20 21  1  0
 20 22  1  0
 22 23  1  1
 23 17  1  0
 24 22  1  0
 25 24  1  0
 26 24  2  0
M  END
$$$$
