YSV.pdb
     RDKit          3D

 26 26  0  0  1  0  0  0  0  0999 V2000
    8.3556  -12.5132   16.3882 O   0  0  0  0  0  0  0  0  0  0  0  0
    8.0388  -12.9452   17.6661 C   0  0  0  0  0  0  0  0  0  0  0  0
    6.7338  -12.9158   18.0903 C   0  0  0  0  0  0  0  0  0  0  0  0
    6.4217  -13.3514   19.3759 C   0  0  0  0  0  0  0  0  0  0  0  0
    7.4042  -13.8038   20.2072 C   0  0  0  0  0  0  0  0  0  0  0  0
    7.0611  -14.2681   21.5813 C   0  0  0  0  0  0  0  0  0  0  0  0
    7.4197  -15.7397   21.7560 C   0  0  2  0  0  0  0  0  0  0  0  0
    6.4668  -16.4923   20.9637 N   0  0  0  0  0  0  0  0  0  0  0  0
    7.2998  -16.0662   23.1829 C   0  0  0  0  0  0  0  0  0  0  0  0
    6.1454  -16.3465   23.6278 O   0  0  0  0  0  0  0  0  0  0  0  0
    8.7215  -13.8298   19.7690 C   0  0  0  0  0  0  0  0  0  0  0  0
    9.0460  -13.4032   18.5026 C   0  0  0  0  0  0  0  0  0  0  0  0
    8.2141  -19.0188   26.1875 O   0  0  0  0  0  0  0  0  0  0  0  0
    8.2704  -18.3032   25.0133 C   0  0  0  0  0  0  0  0  0  0  0  0
    8.3743  -16.7919   25.2703 C   0  0  2  0  0  0  0  0  0  0  0  0
    8.4391  -16.0660   24.0281 N   0  0  0  0  0  0  0  0  0  0  0  0
    9.6391  -16.6183   26.0503 C   0  0  0  0  0  0  0  0  0  0  0  0
   10.7605  -16.7852   25.5086 O   0  0  0  0  0  0  0  0  0  0  0  0
    9.1074  -15.0640   29.8404 C   0  0  0  0  0  0  0  0  0  0  0  0
   10.3278  -14.6702   28.9997 C   0  0  2  0  0  0  0  0  0  0  0  0
   10.0215  -13.5128   28.1054 C   0  0  0  0  0  0  0  0  0  0  0  0
   10.7099  -15.9186   28.2219 C   0  0  2  0  0  0  0  0  0  0  0  0
    9.5652  -16.2643   27.4047 N   0  0  0  0  0  0  0  0  0  0  0  0
   10.9764  -17.0438   29.1387 C   0  0  0  0  0  0  0  0  0  0  0  0
   12.1773  -17.1364   29.8220 O   0  0  0  0  0  0  0  0  0  0  0  0
   10.1207  -17.9308   29.3118 O   0  0  0  0  0  0  0  0  0  0  0  0
  2  3  2  0
  2  1  1  0
  4  3  1  0
  5  4  2  0
  6  5  1  0
  7  6  1  0
  7  9  1  0
  7  8  1  6
  9 16  1  0
  9 10  2  0
 11  5  1  0
 11 12  2  0
 12  2  1  0
 13 14  1  0
 15 14  1  6
 16 15  1  0
 17 15  1  0
 17 18  2  0
 20 19  1  6
 20 21  1  0
 20 22  1  0
 22 23  1  6
 23 17  1  0
 24 22  1  0
 25 24  1  0
 26 24  2  0
M  END
$$$$
