YSV.pdb
     RDKit          3D

 26 26  0  0  1  0  0  0  0  0999 V2000
   11.0048  -14.3479   30.3441 O   0  0  0  0  0  0  0  0  0  0  0  0
   10.2027  -14.6781   29.2635 C   0  0  0  0  0  0  0  0  0  0  0  0
   10.1002  -13.8131   28.2028 C   0  0  0  0  0  0  0  0  0  0  0  0
    9.2924  -14.1506   27.1196 C   0  0  0  0  0  0  0  0  0  0  0  0
    8.6083  -15.3310   27.1120 C   0  0  0  0  0  0  0  0  0  0  0  0
    7.7462  -15.6840   25.9486 C   0  0  0  0  0  0  0  0  0  0  0  0
    8.1281  -17.0514   25.3927 C   0  0  2  0  0  0  0  0  0  0  0  0
    9.0202  -17.6555   26.3629 N   0  0  0  0  0  0  0  0  0  0  0  0
    8.8052  -16.8415   24.1065 C   0  0  0  0  0  0  0  0  0  0  0  0
    9.7956  -16.0492   24.0848 O   0  0  0  0  0  0  0  0  0  0  0  0
    8.7183  -16.1994   28.1897 C   0  0  0  0  0  0  0  0  0  0  0  0
    9.5118  -15.8808   29.2668 C   0  0  0  0  0  0  0  0  0  0  0  0
    8.1385  -19.2865   20.8378 O   0  0  0  0  0  0  0  0  0  0  0  0
    9.2554  -18.4830   20.8722 C   0  0  0  0  0  0  0  0  0  0  0  0
    9.0118  -17.2017   21.6845 C   0  0  2  0  0  0  0  0  0  0  0  0
    8.3619  -17.5048   22.9334 N   0  0  0  0  0  0  0  0  0  0  0  0
    8.1286  -16.3581   20.8204 C   0  0  0  0  0  0  0  0  0  0  0  0
    6.8803  -16.5007   20.8382 O   0  0  0  0  0  0  0  0  0  0  0  0
    8.1760  -12.8687   20.8071 C   0  0  0  0  0  0  0  0  0  0  0  0
    8.4237  -13.1285   19.3163 C   0  0  2  0  0  0  0  0  0  0  0  0
    7.6981  -12.1385   18.4640 C   0  0  0  0  0  0  0  0  0  0  0  0
    7.9639  -14.5553   19.0669 C   0  0  2  0  0  0  0  0  0  0  0  0
    8.7083  -15.3965   19.9811 N   0  0  0  0  0  0  0  0  0  0  0  0
    8.2874  -14.9751   17.6897 C   0  0  0  0  0  0  0  0  0  0  0  0
    9.2959  -15.8915   17.4430 O   0  0  0  0  0  0  0  0  0  0  0  0
    7.6548  -14.5088   16.7246 O   0  0  0  0  0  0  0  0  0  0  0  0
  2  3  2  0
  2  1  1  0
  4  3  1  0
  5  4  2  0
  6  5  1  0
  7  6  1  0
  7  9  1  0
  7  8  1  1
  9 16  1  0
  9 10  2  0
 11  5  1  0
 11 12  2  0
 12  2  1  0
 13 14  1  0
 15 14  1  6
 16 15  1  0
 17 15  1  0
 17 18  2  0
 20 19  1  1
 20 21  1  0
 20 22  1  0
 22 23  1  1
 23 17  1  0
 24 22  1  0
 25 24  1  0
 26 24  2  0
M  END
$$$$
