YSV.pdb
     RDKit          3D

 26 26  0  0  1  0  0  0  0  0999 V2000
   10.2310  -15.8231   31.8307 O   0  0  0  0  0  0  0  0  0  0  0  0
   10.3843  -15.6065   30.4707 C   0  0  0  0  0  0  0  0  0  0  0  0
   10.6642  -14.3442   30.0100 C   0  0  0  0  0  0  0  0  0  0  0  0
   10.8171  -14.1328   28.6419 C   0  0  0  0  0  0  0  0  0  0  0  0
   10.6900  -15.1712   27.7662 C   0  0  0  0  0  0  0  0  0  0  0  0
   10.8554  -14.9358   26.3037 C   0  0  0  0  0  0  0  0  0  0  0  0
   11.3956  -16.1851   25.6166 C   0  0  2  0  0  0  0  0  0  0  0  0
   12.7676  -16.3376   26.0596 N   0  0  0  0  0  0  0  0  0  0  0  0
   11.3267  -15.9665   24.1659 C   0  0  0  0  0  0  0  0  0  0  0  0
   12.0401  -15.0393   23.6756 O   0  0  0  0  0  0  0  0  0  0  0  0
   10.4068  -16.4445   28.2418 C   0  0  0  0  0  0  0  0  0  0  0  0
   10.2528  -16.6697   29.5896 C   0  0  0  0  0  0  0  0  0  0  0  0
    9.8412  -18.6317   21.3108 O   0  0  0  0  0  0  0  0  0  0  0  0
   10.5573  -17.4957   21.0091 C   0  0  0  0  0  0  0  0  0  0  0  0
   10.2534  -16.3523   21.9893 C   0  0  2  0  0  0  0  0  0  0  0  0
   10.4895  -16.7680   23.3478 N   0  0  0  0  0  0  0  0  0  0  0  0
    8.8066  -16.0358   21.7776 C   0  0  0  0  0  0  0  0  0  0  0  0
    7.9319  -16.4398   22.5842 O   0  0  0  0  0  0  0  0  0  0  0  0
    8.1013  -13.4696   18.7155 C   0  0  0  0  0  0  0  0  0  0  0  0
    7.0166  -13.5667   19.7951 C   0  0  2  0  0  0  0  0  0  0  0  0
    7.2531  -12.5816   20.8936 C   0  0  0  0  0  0  0  0  0  0  0  0
    7.0556  -15.0041   20.2870 C   0  0  2  0  0  0  0  0  0  0  0  0
    8.4278  -15.2771   20.6613 N   0  0  0  0  0  0  0  0  0  0  0  0
    6.6800  -15.9362   19.2065 C   0  0  0  0  0  0  0  0  0  0  0  0
    7.6317  -16.7295   18.5878 O   0  0  0  0  0  0  0  0  0  0  0  0
    5.4959  -16.0232   18.8335 O   0  0  0  0  0  0  0  0  0  0  0  0
  2  3  2  0
  2  1  1  0
  4  3  1  0
  5  4  2  0
  6  5  1  0
  7  6  1  0
  7  9  1  0
  7  8  1  1
  9 16  1  0
  9 10  2  0
 11  5  1  0
 11 12  2  0
 12  2  1  0
 13 14  1  0
 15 14  1  6
 16 15  1  0
 17 15  1  0
 17 18  2  0
 20 19  1  6
 20 21  1  0
 20 22  1  0
 22 23  1  6
 23 17  1  0
 24 22  1  0
 25 24  1  0
 26 24  2  0
M  END
$$$$
