YSV.pdb
     RDKit          3D

 26 26  0  0  1  0  0  0  0  0999 V2000
   11.9451  -17.7928   30.0889 O   0  0  0  0  0  0  0  0  0  0  0  0
   12.1437  -17.5126   28.7465 C   0  0  0  0  0  0  0  0  0  0  0  0
   13.1272  -18.1717   28.0521 C   0  0  0  0  0  0  0  0  0  0  0  0
   13.3220  -17.8857   26.7030 C   0  0  0  0  0  0  0  0  0  0  0  0
   12.5422  -16.9582   26.0761 C   0  0  0  0  0  0  0  0  0  0  0  0
   12.7577  -16.6584   24.6321 C   0  0  0  0  0  0  0  0  0  0  0  0
   11.7959  -17.4653   23.7669 C   0  0  2  0  0  0  0  0  0  0  0  0
   12.5630  -17.9406   22.6322 N   0  0  0  0  0  0  0  0  0  0  0  0
   10.7144  -16.5684   23.3391 C   0  0  0  0  0  0  0  0  0  0  0  0
   10.5917  -16.3449   22.0965 O   0  0  0  0  0  0  0  0  0  0  0  0
   11.5499  -16.2967   26.7870 C   0  0  0  0  0  0  0  0  0  0  0  0
   11.3449  -16.5678   28.1195 C   0  0  0  0  0  0  0  0  0  0  0  0
    7.0558  -16.9427   23.6374 O   0  0  0  0  0  0  0  0  0  0  0  0
    7.8196  -16.0618   22.9061 C   0  0  0  0  0  0  0  0  0  0  0  0
    8.7235  -15.2061   23.8069 C   0  0  2  0  0  0  0  0  0  0  0  0
    9.8414  -15.9763   24.2877 N   0  0  0  0  0  0  0  0  0  0  0  0
    7.8471  -14.7814   24.9426 C   0  0  0  0  0  0  0  0  0  0  0  0
    7.5973  -15.5637   25.8937 O   0  0  0  0  0  0  0  0  0  0  0  0
    7.6475  -10.8511   25.3777 C   0  0  0  0  0  0  0  0  0  0  0  0
    6.2759  -11.4704   25.6720 C   0  0  2  0  0  0  0  0  0  0  0  0
    5.5675  -10.7307   26.7602 C   0  0  0  0  0  0  0  0  0  0  0  0
    6.5506  -12.9192   26.0395 C   0  0  2  0  0  0  0  0  0  0  0  0
    7.2997  -13.4909   24.9397 N   0  0  0  0  0  0  0  0  0  0  0  0
    5.2885  -13.6716   26.1759 C   0  0  0  0  0  0  0  0  0  0  0  0
    4.8976  -14.5867   25.2128 O   0  0  0  0  0  0  0  0  0  0  0  0
    4.5533  -13.4935   27.1641 O   0  0  0  0  0  0  0  0  0  0  0  0
  2  3  2  0
  2  1  1  0
  4  3  1  0
  5  4  2  0
  6  5  1  0
  7  6  1  0
  7  9  1  0
  7  8  1  6
  9 16  1  0
  9 10  2  0
 11  5  1  0
 11 12  2  0
 12  2  1  0
 13 14  1  0
 15 14  1  6
 16 15  1  0
 17 15  1  0
 17 18  2  0
 20 19  1  1
 20 21  1  0
 20 22  1  0
 22 23  1  6
 23 17  1  0
 24 22  1  0
 25 24  1  0
 26 24  2  0
M  END
$$$$
