YSV.pdb
     RDKit          3D

 26 26  0  0  1  0  0  0  0  0999 V2000
    9.0420  -12.9759   17.0150 O   0  0  0  0  0  0  0  0  0  0  0  0
    8.5730  -13.4170   18.2420 C   0  0  0  0  0  0  0  0  0  0  0  0
    9.4357  -14.0187   19.1239 C   0  0  0  0  0  0  0  0  0  0  0  0
    8.9583  -14.4599   20.3556 C   0  0  0  0  0  0  0  0  0  0  0  0
    7.6443  -14.2959   20.6838 C   0  0  0  0  0  0  0  0  0  0  0  0
    7.1420  -14.7711   22.0042 C   0  0  0  0  0  0  0  0  0  0  0  0
    7.0749  -16.2939   22.0366 C   0  0  2  0  0  0  0  0  0  0  0  0
    5.8383  -16.6655   21.3773 N   0  0  0  0  0  0  0  0  0  0  0  0
    7.0743  -16.7148   23.4437 C   0  0  0  0  0  0  0  0  0  0  0  0
    6.0656  -16.4088   24.1494 O   0  0  0  0  0  0  0  0  0  0  0  0
    6.7793  -13.6860   19.7850 C   0  0  0  0  0  0  0  0  0  0  0  0
    7.2351  -13.2449   18.5649 C   0  0  0  0  0  0  0  0  0  0  0  0
    9.5751  -19.5488   25.1490 O   0  0  0  0  0  0  0  0  0  0  0  0
    8.5455  -18.9740   25.8589 C   0  0  0  0  0  0  0  0  0  0  0  0
    8.2897  -17.5239   25.4203 C   0  0  2  0  0  0  0  0  0  0  0  0
    8.1668  -17.4379   23.9879 N   0  0  0  0  0  0  0  0  0  0  0  0
    9.4851  -16.7597   25.8948 C   0  0  0  0  0  0  0  0  0  0  0  0
   10.5362  -16.7120   25.2078 O   0  0  0  0  0  0  0  0  0  0  0  0
    8.9461  -14.0821   28.9540 C   0  0  0  0  0  0  0  0  0  0  0  0
   10.1693  -14.0179   28.0315 C   0  0  2  0  0  0  0  0  0  0  0  0
    9.8628  -13.2725   26.7731 C   0  0  0  0  0  0  0  0  0  0  0  0
   10.5609  -15.4626   27.7689 C   0  0  2  0  0  0  0  0  0  0  0  0
    9.4254  -16.0893   27.1245 N   0  0  0  0  0  0  0  0  0  0  0  0
   10.8191  -16.1723   29.0366 C   0  0  0  0  0  0  0  0  0  0  0  0
    9.9426  -17.1375   29.5034 O   0  0  0  0  0  0  0  0  0  0  0  0
   11.8341  -15.9121   29.7082 O   0  0  0  0  0  0  0  0  0  0  0  0
  2  3  2  0
  2  1  1  0
  4  3  1  0
  5  4  2  0
  6  5  1  0
  7  6  1  0
  7  9  1  0
  7  8  1  1
  9 16  1  0
  9 10  2  0
 11  5  1  0
 11 12  2  0
 12  2  1  0
 13 14  1  0
 15 14  1  6
 16 15  1  0
 17 15  1  0
 17 18  2  0
 20 19  1  1
 20 21  1  0
 20 22  1  0
 22 23  1  1
 23 17  1  0
 24 22  1  0
 25 24  1  0
 26 24  2  0
M  END
$$$$
