YSV.pdb
     RDKit          3D

 26 26  0  0  1  0  0  0  0  0999 V2000
    9.2308  -12.8428   17.2970 O   0  0  0  0  0  0  0  0  0  0  0  0
    8.6189  -13.3273   18.4419 C   0  0  0  0  0  0  0  0  0  0  0  0
    9.3136  -14.1581   19.2851 C   0  0  0  0  0  0  0  0  0  0  0  0
    8.6931  -14.6418   20.4344 C   0  0  0  0  0  0  0  0  0  0  0  0
    7.4055  -14.2933   20.7205 C   0  0  0  0  0  0  0  0  0  0  0  0
    6.7494  -14.8156   21.9526 C   0  0  0  0  0  0  0  0  0  0  0  0
    6.8266  -16.3377   21.9980 C   0  0  2  0  0  0  0  0  0  0  0  0
    5.6006  -16.8299   21.4010 N   0  0  0  0  0  0  0  0  0  0  0  0
    6.9316  -16.7414   23.4062 C   0  0  0  0  0  0  0  0  0  0  0  0
    5.9056  -16.5975   24.1380 O   0  0  0  0  0  0  0  0  0  0  0  0
    6.7109  -13.4523   19.8613 C   0  0  0  0  0  0  0  0  0  0  0  0
    7.3094  -12.9663   18.7226 C   0  0  0  0  0  0  0  0  0  0  0  0
    9.5997  -19.3849   25.0391 O   0  0  0  0  0  0  0  0  0  0  0  0
    8.5641  -18.8369   25.7612 C   0  0  0  0  0  0  0  0  0  0  0  0
    8.2898  -17.3818   25.3514 C   0  0  2  0  0  0  0  0  0  0  0  0
    8.1411  -17.2730   23.9230 N   0  0  0  0  0  0  0  0  0  0  0  0
    9.4877  -16.6163   25.8176 C   0  0  0  0  0  0  0  0  0  0  0  0
   10.5189  -16.5326   25.1045 O   0  0  0  0  0  0  0  0  0  0  0  0
    9.0378  -13.9443   28.8773 C   0  0  0  0  0  0  0  0  0  0  0  0
   10.2719  -13.9388   27.9671 C   0  0  2  0  0  0  0  0  0  0  0  0
   10.0091  -13.1929   26.6992 C   0  0  0  0  0  0  0  0  0  0  0  0
   10.6062  -15.4007   27.7211 C   0  0  2  0  0  0  0  0  0  0  0  0
    9.4528  -15.9857   27.0691 N   0  0  0  0  0  0  0  0  0  0  0  0
   10.8207  -16.1094   28.9976 C   0  0  0  0  0  0  0  0  0  0  0  0
    9.9149  -17.0552   29.4478 O   0  0  0  0  0  0  0  0  0  0  0  0
   11.8245  -15.8657   29.6918 O   0  0  0  0  0  0  0  0  0  0  0  0
  2  3  2  0
  2  1  1  0
  4  3  1  0
  5  4  2  0
  6  5  1  0
  7  6  1  0
  7  9  1  0
  7  8  1  1
  9 16  1  0
  9 10  2  0
 11  5  1  0
 11 12  2  0
 12  2  1  0
 13 14  1  0
 15 14  1  6
 16 15  1  0
 17 15  1  0
 17 18  2  0
 20 19  1  1
 20 21  1  0
 20 22  1  0
 22 23  1  1
 23 17  1  0
 24 22  1  0
 25 24  1  0
 26 24  2  0
M  END
$$$$
