YSV.pdb
     RDKit          3D

 26 26  0  0  1  0  0  0  0  0999 V2000
    5.4629  -10.3588   27.4033 O   0  0  0  0  0  0  0  0  0  0  0  0
    6.0816  -11.5059   26.9328 C   0  0  0  0  0  0  0  0  0  0  0  0
    5.9214  -12.6908   27.6069 C   0  0  0  0  0  0  0  0  0  0  0  0
    6.5458  -13.8404   27.1289 C   0  0  0  0  0  0  0  0  0  0  0  0
    7.3106  -13.7901   26.0002 C   0  0  0  0  0  0  0  0  0  0  0  0
    7.9751  -15.0252   25.4960 C   0  0  0  0  0  0  0  0  0  0  0  0
    7.1148  -15.7028   24.4351 C   0  0  2  0  0  0  0  0  0  0  0  0
    6.0241  -16.3475   25.1399 N   0  0  0  0  0  0  0  0  0  0  0  0
    7.9522  -16.6872   23.7375 C   0  0  0  0  0  0  0  0  0  0  0  0
    8.1870  -17.7848   24.3285 O   0  0  0  0  0  0  0  0  0  0  0  0
    7.4667  -12.5868   25.3253 C   0  0  0  0  0  0  0  0  0  0  0  0
    6.8568  -11.4429   25.7843 C   0  0  0  0  0  0  0  0  0  0  0  0
   10.2829  -15.4682   20.5356 O   0  0  0  0  0  0  0  0  0  0  0  0
    9.9579  -16.8056   20.5359 C   0  0  0  0  0  0  0  0  0  0  0  0
    9.4994  -17.2812   21.9231 C   0  0  2  0  0  0  0  0  0  0  0  0
    8.4769  -16.4135   22.4481 N   0  0  0  0  0  0  0  0  0  0  0  0
   10.7274  -17.2269   22.7759 C   0  0  0  0  0  0  0  0  0  0  0  0
   11.1993  -16.1276   23.1602 O   0  0  0  0  0  0  0  0  0  0  0  0
   11.5543  -20.4258   24.9330 C   0  0  0  0  0  0  0  0  0  0  0  0
   12.2721  -19.1053   25.2370 C   0  0  2  0  0  0  0  0  0  0  0  0
   11.4232  -18.2055   26.0753 C   0  0  0  0  0  0  0  0  0  0  0  0
   12.6014  -18.4969   23.8839 C   0  0  2  0  0  0  0  0  0  0  0  0
   11.3559  -18.4234   23.1483 N   0  0  0  0  0  0  0  0  0  0  0  0
   13.5280  -19.3653   23.1324 C   0  0  0  0  0  0  0  0  0  0  0  0
   13.0931  -20.0898   22.0353 O   0  0  0  0  0  0  0  0  0  0  0  0
   14.7205  -19.4596   23.4759 O   0  0  0  0  0  0  0  0  0  0  0  0
  2  3  2  0
  2  1  1  0
  4  3  1  0
  5  4  2  0
  6  5  1  0
  7  6  1  0
  7  9  1  0
  7  8  1  1
  9 16  1  0
  9 10  2  0
 11  5  1  0
 11 12  2  0
 12  2  1  0
 13 14  1  0
 15 14  1  6
 16 15  1  0
 17 15  1  0
 17 18  2  0
 20 19  1  6
 20 21  1  0
 20 22  1  0
 22 23  1  6
 23 17  1  0
 24 22  1  0
 25 24  1  0
 26 24  2  0
M  END
$$$$
