YSV.pdb
     RDKit          3D

 26 26  0  0  1  0  0  0  0  0999 V2000
   15.9236  -21.0466   21.4062 O   0  0  0  0  0  0  0  0  0  0  0  0
   15.0023  -20.0282   21.5910 C   0  0  0  0  0  0  0  0  0  0  0  0
   15.1733  -18.8302   20.9432 C   0  0  0  0  0  0  0  0  0  0  0  0
   14.2439  -17.8104   21.1329 C   0  0  0  0  0  0  0  0  0  0  0  0
   13.1722  -17.9996   21.9556 C   0  0  0  0  0  0  0  0  0  0  0  0
   12.1826  -16.9028   22.1528 C   0  0  0  0  0  0  0  0  0  0  0  0
   10.8519  -17.2560   21.4977 C   0  0  2  0  0  0  0  0  0  0  0  0
   10.9795  -16.9120   20.0951 N   0  0  0  0  0  0  0  0  0  0  0  0
    9.8041  -16.4579   22.1474 C   0  0  0  0  0  0  0  0  0  0  0  0
    9.6391  -15.2655   21.7475 O   0  0  0  0  0  0  0  0  0  0  0  0
   13.0078  -19.2150   22.6066 C   0  0  0  0  0  0  0  0  0  0  0  0
   13.9166  -20.2318   22.4297 C   0  0  0  0  0  0  0  0  0  0  0  0
    7.3469  -18.0322   25.1953 O   0  0  0  0  0  0  0  0  0  0  0  0
    6.8434  -17.0878   24.3299 C   0  0  0  0  0  0  0  0  0  0  0  0
    7.9532  -16.2018   23.7434 C   0  0  2  0  0  0  0  0  0  0  0  0
    9.0083  -17.0076   23.1853 N   0  0  0  0  0  0  0  0  0  0  0  0
    8.4578  -15.3977   24.8997 C   0  0  0  0  0  0  0  0  0  0  0  0
    9.5795  -15.6373   25.4129 O   0  0  0  0  0  0  0  0  0  0  0  0
    5.7089  -13.1361   27.0511 C   0  0  0  0  0  0  0  0  0  0  0  0
    6.9914  -12.4194   26.6117 C   0  0  2  0  0  0  0  0  0  0  0  0
    6.7935  -11.6936   25.3206 C   0  0  0  0  0  0  0  0  0  0  0  0
    8.0524  -13.5027   26.5111 C   0  0  2  0  0  0  0  0  0  0  0  0
    7.6631  -14.3635   25.4133 N   0  0  0  0  0  0  0  0  0  0  0  0
    8.0871  -14.3156   27.7422 C   0  0  0  0  0  0  0  0  0  0  0  0
    8.7440  -13.8646   28.8748 O   0  0  0  0  0  0  0  0  0  0  0  0
    7.5233  -15.4244   27.7803 O   0  0  0  0  0  0  0  0  0  0  0  0
  2  3  2  0
  2  1  1  0
  4  3  1  0
  5  4  2  0
  6  5  1  0
  7  6  1  0
  7  9  1  0
  7  8  1  6
  9 16  1  0
  9 10  2  0
 11  5  1  0
 11 12  2  0
 12  2  1  0
 13 14  1  0
 15 14  1  1
 16 15  1  0
 17 15  1  0
 17 18  2  0
 20 19  1  6
 20 21  1  0
 20 22  1  0
 22 23  1  6
 23 17  1  0
 24 22  1  0
 25 24  1  0
 26 24  2  0
M  END
$$$$
