YSV.pdb
     RDKit          3D

 26 26  0  0  1  0  0  0  0  0999 V2000
    4.6530  -10.2983   27.1312 O   0  0  0  0  0  0  0  0  0  0  0  0
    5.4999  -11.2616   26.6067 C   0  0  0  0  0  0  0  0  0  0  0  0
    5.1524  -11.9173   25.4521 C   0  0  0  0  0  0  0  0  0  0  0  0
    6.0079  -12.8844   24.9299 C   0  0  0  0  0  0  0  0  0  0  0  0
    7.1816  -13.1782   25.5601 C   0  0  0  0  0  0  0  0  0  0  0  0
    8.0911  -14.2146   24.9942 C   0  0  0  0  0  0  0  0  0  0  0  0
    7.3053  -15.4595   24.5973 C   0  0  2  0  0  0  0  0  0  0  0  0
    6.3322  -15.6844   25.6482 N   0  0  0  0  0  0  0  0  0  0  0  0
    8.2521  -16.5781   24.5015 C   0  0  0  0  0  0  0  0  0  0  0  0
    8.1361  -17.5214   25.3417 O   0  0  0  0  0  0  0  0  0  0  0  0
    7.5244  -12.5095   26.7277 C   0  0  0  0  0  0  0  0  0  0  0  0
    6.6907  -11.5520   27.2560 C   0  0  0  0  0  0  0  0  0  0  0  0
   10.5730  -17.0436   21.3213 O   0  0  0  0  0  0  0  0  0  0  0  0
   11.2602  -17.5063   22.4203 C   0  0  0  0  0  0  0  0  0  0  0  0
   10.4042  -17.4478   23.6949 C   0  0  2  0  0  0  0  0  0  0  0  0
    9.2587  -16.5966   23.5019 N   0  0  0  0  0  0  0  0  0  0  0  0
   11.3103  -16.8845   24.7437 C   0  0  0  0  0  0  0  0  0  0  0  0
   12.2658  -16.1294   24.4345 O   0  0  0  0  0  0  0  0  0  0  0  0
    9.7260  -16.4002   28.3002 C   0  0  0  0  0  0  0  0  0  0  0  0
   11.0117  -15.6659   27.9013 C   0  0  2  0  0  0  0  0  0  0  0  0
   10.7164  -14.4828   27.0375 C   0  0  0  0  0  0  0  0  0  0  0  0
   11.8716  -16.7000   27.1938 C   0  0  2  0  0  0  0  0  0  0  0  0
   11.0847  -17.2077   26.0890 N   0  0  0  0  0  0  0  0  0  0  0  0
   12.1796  -17.8276   28.0946 C   0  0  0  0  0  0  0  0  0  0  0  0
   13.0548  -17.6719   29.1564 O   0  0  0  0  0  0  0  0  0  0  0  0
   11.6542  -18.9408   27.9118 O   0  0  0  0  0  0  0  0  0  0  0  0
  2  3  2  0
  2  1  1  0
  4  3  1  0
  5  4  2  0
  6  5  1  0
  7  6  1  0
  7  9  1  0
  7  8  1  1
  9 16  1  0
  9 10  2  0
 11  5  1  0
 11 12  2  0
 12  2  1  0
 13 14  1  0
 15 14  1  6
 16 15  1  0
 17 15  1  0
 17 18  2  0
 20 19  1  6
 20 21  1  0
 20 22  1  0
 22 23  1  6
 23 17  1  0
 24 22  1  0
 25 24  1  0
 26 24  2  0
M  END
$$$$
