YSV.pdb
     RDKit          3D

 26 26  0  0  1  0  0  0  0  0999 V2000
   11.6981  -25.1691   21.4309 O   0  0  0  0  0  0  0  0  0  0  0  0
   11.0655  -23.9772   21.7461 C   0  0  0  0  0  0  0  0  0  0  0  0
   10.6590  -23.7431   23.0360 C   0  0  0  0  0  0  0  0  0  0  0  0
   10.0237  -22.5432   23.3466 C   0  0  0  0  0  0  0  0  0  0  0  0
    9.8068  -21.6078   22.3775 C   0  0  0  0  0  0  0  0  0  0  0  0
    9.1262  -20.3265   22.7189 C   0  0  0  0  0  0  0  0  0  0  0  0
    7.6732  -20.5771   23.1069 C   0  0  2  0  0  0  0  0  0  0  0  0
    6.9540  -20.8225   21.8722 N   0  0  0  0  0  0  0  0  0  0  0  0
    7.1734  -19.3729   23.7828 C   0  0  0  0  0  0  0  0  0  0  0  0
    6.5332  -18.5289   23.0850 O   0  0  0  0  0  0  0  0  0  0  0  0
   10.2217  -21.8538   21.0755 C   0  0  0  0  0  0  0  0  0  0  0  0
   10.8503  -23.0335   20.7527 C   0  0  0  0  0  0  0  0  0  0  0  0
    7.5240  -18.9058   27.9325 O   0  0  0  0  0  0  0  0  0  0  0  0
    6.4489  -18.3544   27.2735 C   0  0  0  0  0  0  0  0  0  0  0  0
    6.7801  -18.0366   25.8072 C   0  0  2  0  0  0  0  0  0  0  0  0
    7.4021  -19.1672   25.1677 N   0  0  0  0  0  0  0  0  0  0  0  0
    7.7244  -16.8777   25.8665 C   0  0  0  0  0  0  0  0  0  0  0  0
    8.9651  -17.0491   25.7658 O   0  0  0  0  0  0  0  0  0  0  0  0
    8.0021  -11.9680   26.0020 C   0  0  0  0  0  0  0  0  0  0  0  0
    7.1004  -13.2076   25.9614 C   0  0  2  0  0  0  0  0  0  0  0  0
    6.0239  -13.1310   26.9950 C   0  0  0  0  0  0  0  0  0  0  0  0
    8.0253  -14.3944   26.1745 C   0  0  2  0  0  0  0  0  0  0  0  0
    7.2112  -15.5843   26.0370 N   0  0  0  0  0  0  0  0  0  0  0  0
    8.5892  -14.3787   27.5381 C   0  0  0  0  0  0  0  0  0  0  0  0
    9.5822  -13.4789   27.8876 O   0  0  0  0  0  0  0  0  0  0  0  0
    8.1781  -15.1786   28.3984 O   0  0  0  0  0  0  0  0  0  0  0  0
  2  3  2  0
  2  1  1  0
  4  3  1  0
  5  4  2  0
  6  5  1  0
  7  6  1  0
  7  9  1  0
  7  8  1  6
  9 16  1  0
  9 10  2  0
 11  5  1  0
 11 12  2  0
 12  2  1  0
 13 14  1  0
 15 14  1  1
 16 15  1  0
 17 15  1  0
 17 18  2  0
 20 19  1  1
 20 21  1  0
 20 22  1  0
 22 23  1  1
 23 17  1  0
 24 22  1  0
 25 24  1  0
 26 24  2  0
M  END
$$$$
