YSV.pdb
     RDKit          3D

 26 26  0  0  1  0  0  0  0  0999 V2000
    3.9159  -24.0767   23.2903 O   0  0  0  0  0  0  0  0  0  0  0  0
    4.7462  -22.9858   23.4924 C   0  0  0  0  0  0  0  0  0  0  0  0
    4.2461  -21.8491   24.0769 C   0  0  0  0  0  0  0  0  0  0  0  0
    5.0856  -20.7560   24.2773 C   0  0  0  0  0  0  0  0  0  0  0  0
    6.3943  -20.8137   23.8962 C   0  0  0  0  0  0  0  0  0  0  0  0
    7.2855  -19.6392   24.1145 C   0  0  0  0  0  0  0  0  0  0  0  0
    6.8571  -18.4694   23.2355 C   0  0  2  0  0  0  0  0  0  0  0  0
    7.2704  -18.7965   21.8849 N   0  0  0  0  0  0  0  0  0  0  0  0
    7.5413  -17.2650   23.7237 C   0  0  0  0  0  0  0  0  0  0  0  0
    8.7344  -17.0693   23.3399 O   0  0  0  0  0  0  0  0  0  0  0  0
    6.8910  -21.9681   23.3057 C   0  0  0  0  0  0  0  0  0  0  0  0
    6.0750  -23.0559   23.1009 C   0  0  0  0  0  0  0  0  0  0  0  0
    6.0229  -14.8139   26.9015 O   0  0  0  0  0  0  0  0  0  0  0  0
    6.7360  -14.2647   25.8603 C   0  0  0  0  0  0  0  0  0  0  0  0
    7.6561  -15.2974   25.1913 C   0  0  2  0  0  0  0  0  0  0  0  0
    6.8850  -16.3569   24.5938 N   0  0  0  0  0  0  0  0  0  0  0  0
    8.5125  -15.8267   26.2979 C   0  0  0  0  0  0  0  0  0  0  0  0
    8.2536  -16.9277   26.8453 O   0  0  0  0  0  0  0  0  0  0  0  0
   11.0020  -13.1834   28.2384 C   0  0  0  0  0  0  0  0  0  0  0  0
   11.6720  -14.4809   27.7706 C   0  0  2  0  0  0  0  0  0  0  0  0
   12.3373  -14.3019   26.4445 C   0  0  0  0  0  0  0  0  0  0  0  0
   10.5652  -15.5215   27.7281 C   0  0  2  0  0  0  0  0  0  0  0  0
    9.6183  -15.0787   26.7256 N   0  0  0  0  0  0  0  0  0  0  0  0
    9.8632  -15.5904   29.0243 C   0  0  0  0  0  0  0  0  0  0  0  0
   10.3785  -16.3316   30.0744 O   0  0  0  0  0  0  0  0  0  0  0  0
    8.7920  -14.9799   29.1931 O   0  0  0  0  0  0  0  0  0  0  0  0
  2  3  2  0
  2  1  1  0
  4  3  1  0
  5  4  2  0
  6  5  1  0
  7  6  1  0
  7  9  1  0
  7  8  1  6
  9 16  1  0
  9 10  2  0
 11  5  1  0
 11 12  2  0
 12  2  1  0
 13 14  1  0
 15 14  1  1
 16 15  1  0
 17 15  1  0
 17 18  2  0
 20 19  1  6
 20 21  1  0
 20 22  1  0
 22 23  1  6
 23 17  1  0
 24 22  1  0
 25 24  1  0
 26 24  2  0
M  END
$$$$
