YSV.pdb
     RDKit          3D

 26 26  0  0  1  0  0  0  0  0999 V2000
    8.2149  -12.4195   16.8867 O   0  0  0  0  0  0  0  0  0  0  0  0
    8.0495  -12.9217   18.1675 C   0  0  0  0  0  0  0  0  0  0  0  0
    9.1236  -13.4600   18.8312 C   0  0  0  0  0  0  0  0  0  0  0  0
    8.9510  -13.9632   20.1184 C   0  0  0  0  0  0  0  0  0  0  0  0
    7.7250  -13.9217   20.7154 C   0  0  0  0  0  0  0  0  0  0  0  0
    7.5495  -14.4625   22.0932 C   0  0  0  0  0  0  0  0  0  0  0  0
    7.5472  -15.9871   22.0754 C   0  0  2  0  0  0  0  0  0  0  0  0
    6.2185  -16.3918   21.6600 N   0  0  0  0  0  0  0  0  0  0  0  0
    7.8439  -16.4538   23.4359 C   0  0  0  0  0  0  0  0  0  0  0  0
    6.9628  -16.2646   24.3285 O   0  0  0  0  0  0  0  0  0  0  0  0
    6.6445  -13.3752   20.0359 C   0  0  0  0  0  0  0  0  0  0  0  0
    6.7985  -12.8743   18.7645 C   0  0  0  0  0  0  0  0  0  0  0  0
   11.1717  -18.8417   24.2964 O   0  0  0  0  0  0  0  0  0  0  0  0
   10.0701  -18.8505   25.1214 C   0  0  0  0  0  0  0  0  0  0  0  0
    9.3233  -17.5081   25.0907 C   0  0  2  0  0  0  0  0  0  0  0  0
    9.0748  -17.0929   23.7343 N   0  0  0  0  0  0  0  0  0  0  0  0
   10.2349  -16.5427   25.7801 C   0  0  0  0  0  0  0  0  0  0  0  0
   11.1687  -15.9780   25.1570 O   0  0  0  0  0  0  0  0  0  0  0  0
    9.0101  -14.6126   29.0967 C   0  0  0  0  0  0  0  0  0  0  0  0
   10.2686  -14.2118   28.3177 C   0  0  2  0  0  0  0  0  0  0  0  0
    9.9253  -13.4021   27.1095 C   0  0  0  0  0  0  0  0  0  0  0  0
   10.9638  -15.5159   27.9633 C   0  0  2  0  0  0  0  0  0  0  0  0
   10.0393  -16.2683   27.1408 N   0  0  0  0  0  0  0  0  0  0  0  0
   11.2447  -16.3049   29.1783 C   0  0  0  0  0  0  0  0  0  0  0  0
   12.2369  -15.9192   30.0641 O   0  0  0  0  0  0  0  0  0  0  0  0
   10.5902  -17.3341   29.4256 O   0  0  0  0  0  0  0  0  0  0  0  0
  2  3  2  0
  2  1  1  0
  4  3  1  0
  5  4  2  0
  6  5  1  0
  7  6  1  0
  7  9  1  0
  7  8  1  1
  9 16  1  0
  9 10  2  0
 11  5  1  0
 11 12  2  0
 12  2  1  0
 13 14  1  0
 15 14  1  6
 16 15  1  0
 17 15  1  0
 17 18  2  0
 20 19  1  6
 20 21  1  0
 20 22  1  0
 22 23  1  6
 23 17  1  0
 24 22  1  0
 25 24  1  0
 26 24  2  0
M  END
$$$$
