YSV.pdb
     RDKit          3D

 26 26  0  0  1  0  0  0  0  0999 V2000
    9.9606  -22.7978   31.1646 O   0  0  0  0  0  0  0  0  0  0  0  0
   10.0082  -21.7180   30.2976 C   0  0  0  0  0  0  0  0  0  0  0  0
   11.0974  -20.8827   30.3103 C   0  0  0  0  0  0  0  0  0  0  0  0
   11.1394  -19.7990   29.4364 C   0  0  0  0  0  0  0  0  0  0  0  0
   10.1071  -19.5688   28.5746 C   0  0  0  0  0  0  0  0  0  0  0  0
   10.1606  -18.4066   27.6430 C   0  0  0  0  0  0  0  0  0  0  0  0
   10.2514  -18.8815   26.1969 C   0  0  2  0  0  0  0  0  0  0  0  0
   11.6156  -19.3289   25.9956 N   0  0  0  0  0  0  0  0  0  0  0  0
    9.9321  -17.7416   25.3277 C   0  0  0  0  0  0  0  0  0  0  0  0
   10.8055  -16.8294   25.2083 O   0  0  0  0  0  0  0  0  0  0  0  0
    9.0097  -20.4193   28.5693 C   0  0  0  0  0  0  0  0  0  0  0  0
    8.9530  -21.4937   29.4258 C   0  0  0  0  0  0  0  0  0  0  0  0
    6.1854  -17.3924   23.3944 O   0  0  0  0  0  0  0  0  0  0  0  0
    7.2139  -16.5469   23.0459 C   0  0  0  0  0  0  0  0  0  0  0  0
    8.2307  -16.3847   24.1863 C   0  0  2  0  0  0  0  0  0  0  0  0
    8.6887  -17.6695   24.6485 N   0  0  0  0  0  0  0  0  0  0  0  0
    7.4869  -15.6683   25.2687 C   0  0  0  0  0  0  0  0  0  0  0  0
    6.9839  -16.2978   26.2329 O   0  0  0  0  0  0  0  0  0  0  0  0
    7.3225  -11.5382   24.8748 C   0  0  0  0  0  0  0  0  0  0  0  0
    7.2932  -12.1533   26.2791 C   0  0  2  0  0  0  0  0  0  0  0  0
    8.6723  -12.3115   26.8323 C   0  0  0  0  0  0  0  0  0  0  0  0
    6.5727  -13.4829   26.1291 C   0  0  2  0  0  0  0  0  0  0  0  0
    7.3526  -14.2746   25.2004 N   0  0  0  0  0  0  0  0  0  0  0  0
    5.2295  -13.2866   25.5503 C   0  0  0  0  0  0  0  0  0  0  0  0
    4.9623  -13.6359   24.2371 O   0  0  0  0  0  0  0  0  0  0  0  0
    4.3126  -12.8016   26.2379 O   0  0  0  0  0  0  0  0  0  0  0  0
  2  3  2  0
  2  1  1  0
  4  3  1  0
  5  4  2  0
  6  5  1  0
  7  6  1  0
  7  9  1  0
  7  8  1  6
  9 16  1  0
  9 10  2  0
 11  5  1  0
 11 12  2  0
 12  2  1  0
 13 14  1  0
 15 14  1  6
 16 15  1  0
 17 15  1  0
 17 18  2  0
 20 19  1  6
 20 21  1  0
 20 22  1  0
 22 23  1  6
 23 17  1  0
 24 22  1  0
 25 24  1  0
 26 24  2  0
M  END
$$$$
