CDS.pdb
     RDKit          3D

 21 20  0  0  1  0  0  0  0  0999 V2000
   23.6547  -13.6867  -17.2828 N   0  0  0  0  0  0  0  0  0  0  0  0
   24.0167  -12.4943  -16.5429 C   0  0  1  0  0  0  0  0  0  0  0  0
   25.4518  -12.1458  -16.9459 C   0  0  0  0  0  0  0  0  0  0  0  0
   26.5669  -13.4498  -16.3429 S   0  0  0  0  0  0  0  0  0  0  0  0
   23.1235  -11.3717  -16.9098 C   0  0  0  0  0  0  0  0  0  0  0  0
   22.2976  -11.5276  -17.8447 O   0  0  0  0  0  0  0  0  0  0  0  0
   23.1744  -10.1407  -16.2429 N   0  0  0  0  0  0  0  0  0  0  0  0
   22.1717   -9.1232  -16.5534 C   0  0  1  0  0  0  0  0  0  0  0  0
   20.7948   -9.6662  -16.2464 C   0  0  0  0  0  0  0  0  0  0  0  0
   19.7193   -8.6976  -16.3921 C   0  0  0  0  0  0  0  0  0  0  0  0
   19.6445   -8.0078  -17.4572 O   0  0  0  0  0  0  0  0  0  0  0  0
   22.5288   -7.9367  -15.7590 C   0  0  0  0  0  0  0  0  0  0  0  0
   22.8091   -8.0271  -14.5280 O   0  0  0  0  0  0  0  0  0  0  0  0
   18.7339   -8.4470  -15.4472 O   0  0  0  0  0  0  0  0  0  0  0  0
   23.5059   -3.2436  -15.6623 O   0  0  0  0  0  0  0  0  0  0  0  0
   23.0382   -4.2965  -16.4604 C   0  0  0  0  0  0  0  0  0  0  0  0
   22.9573   -5.5108  -15.5101 C   0  0  2  0  0  0  0  0  0  0  0  0
   22.5853   -6.6338  -16.3211 N   0  0  0  0  0  0  0  0  0  0  0  0
   21.9347   -5.1760  -14.5045 C   0  0  0  0  0  0  0  0  0  0  0  0
   22.2908   -4.6305  -13.3054 O   0  0  0  0  0  0  0  0  0  0  0  0
   20.7060   -5.4095  -14.7831 O   0  0  0  0  0  0  0  0  0  0  0  0
  2  5  1  0
  2  1  1  6
  3  2  1  0
  4  3  1  0
  5  6  2  0
  7  8  1  0
  7  5  1  0
  8 12  1  0
  9 10  1  0
  8  9  1  1
 10 14  1  0
 11 10  2  0
 12 13  2  0
 15 16  1  0
 17 16  1  6
 17 19  1  0
 18 17  1  0
 18 12  1  0
 19 21  2  0
 19 20  1  0
M  END
$$$$
