CDS.pdb
     RDKit          3D

 21 20  0  0  1  0  0  0  0  0999 V2000
   14.8894  -13.8590  -11.9943 N   0  0  0  0  0  0  0  0  0  0  0  0
   14.3087  -12.5337  -11.9128 C   0  0  1  0  0  0  0  0  0  0  0  0
   13.2229  -12.5953  -10.8355 C   0  0  0  0  0  0  0  0  0  0  0  0
   11.8578  -13.6377  -11.4329 S   0  0  0  0  0  0  0  0  0  0  0  0
   15.3365  -11.5468  -11.5098 C   0  0  0  0  0  0  0  0  0  0  0  0
   16.2503  -11.9021  -10.7230 O   0  0  0  0  0  0  0  0  0  0  0  0
   15.3176  -10.2280  -11.9822 N   0  0  0  0  0  0  0  0  0  0  0  0
   16.3899   -9.3168  -11.5860 C   0  0  1  0  0  0  0  0  0  0  0  0
   17.2753   -9.0360  -12.7785 C   0  0  0  0  0  0  0  0  0  0  0  0
   18.3574   -8.0993  -12.5179 C   0  0  0  0  0  0  0  0  0  0  0  0
   18.8685   -8.0485  -11.3551 O   0  0  0  0  0  0  0  0  0  0  0  0
   15.7319   -8.1169  -11.0440 C   0  0  0  0  0  0  0  0  0  0  0  0
   14.8414   -7.5004  -11.6989 O   0  0  0  0  0  0  0  0  0  0  0  0
   18.9031   -7.2269  -13.4494 O   0  0  0  0  0  0  0  0  0  0  0  0
   14.9169   -7.6387   -7.3079 O   0  0  0  0  0  0  0  0  0  0  0  0
   15.5338   -6.4536   -7.7312 C   0  0  0  0  0  0  0  0  0  0  0  0
   15.3541   -6.4370   -9.2648 C   0  0  2  0  0  0  0  0  0  0  0  0
   16.0491   -7.5876   -9.7649 N   0  0  0  0  0  0  0  0  0  0  0  0
   15.9454   -5.1717   -9.7323 C   0  0  0  0  0  0  0  0  0  0  0  0
   15.4201   -3.9734   -9.3445 O   0  0  0  0  0  0  0  0  0  0  0  0
   16.9622   -5.2245  -10.5103 O   0  0  0  0  0  0  0  0  0  0  0  0
  2  5  1  0
  2  1  1  1
  3  2  1  0
  4  3  1  0
  5  6  2  0
  7  8  1  0
  7  5  1  0
  8 12  1  0
  9 10  1  0
  8  9  1  6
 10 14  1  0
 11 10  2  0
 12 13  2  0
 15 16  1  0
 17 16  1  1
 17 19  1  0
 18 17  1  0
 18 12  1  0
 19 21  2  0
 19 20  1  0
M  END
$$$$
