CDS.pdb
     RDKit          3D

 21 20  0  0  1  0  0  0  0  0999 V2000
   17.3443  -15.5552  -16.5604 N   0  0  0  0  0  0  0  0  0  0  0  0
   17.2720  -14.5659  -15.5039 C   0  0  1  0  0  0  0  0  0  0  0  0
   18.2902  -14.9839  -14.4400 C   0  0  0  0  0  0  0  0  0  0  0  0
   17.6476  -16.4306  -13.5448 S   0  0  0  0  0  0  0  0  0  0  0  0
   17.6372  -13.2294  -16.0263 C   0  0  0  0  0  0  0  0  0  0  0  0
   18.4077  -13.1493  -17.0164 O   0  0  0  0  0  0  0  0  0  0  0  0
   17.1469  -12.0519  -15.4466 N   0  0  0  0  0  0  0  0  0  0  0  0
   17.4225  -10.7722  -16.0975 C   0  0  1  0  0  0  0  0  0  0  0  0
   16.1198  -10.0496  -16.3543 C   0  0  0  0  0  0  0  0  0  0  0  0
   16.2708   -8.7218  -16.9291 C   0  0  0  0  0  0  0  0  0  0  0  0
   15.5098   -7.7836  -16.5338 O   0  0  0  0  0  0  0  0  0  0  0  0
   18.3354  -10.0428  -15.2026 C   0  0  0  0  0  0  0  0  0  0  0  0
   18.1491  -10.0143  -13.9510 O   0  0  0  0  0  0  0  0  0  0  0  0
   17.1981   -8.3705  -17.9003 O   0  0  0  0  0  0  0  0  0  0  0  0
   22.5316   -8.0625  -14.3453 O   0  0  0  0  0  0  0  0  0  0  0  0
   21.7513   -8.7819  -15.2608 C   0  0  0  0  0  0  0  0  0  0  0  0
   20.2964   -8.5914  -14.7799 C   0  0  2  0  0  0  0  0  0  0  0  0
   19.4714   -9.3394  -15.6838 N   0  0  0  0  0  0  0  0  0  0  0  0
   20.0321   -7.1438  -14.8392 C   0  0  0  0  0  0  0  0  0  0  0  0
   20.2247   -6.3561  -13.7416 O   0  0  0  0  0  0  0  0  0  0  0  0
   19.6176   -6.6443  -15.9440 O   0  0  0  0  0  0  0  0  0  0  0  0
  2  5  1  0
  2  1  1  6
  3  2  1  0
  4  3  1  0
  5  6  2  0
  7  8  1  0
  7  5  1  0
  8 12  1  0
  9 10  1  0
  8  9  1  1
 10 14  1  0
 11 10  2  0
 12 13  2  0
 15 16  1  0
 17 16  1  6
 17 19  1  0
 18 17  1  0
 18 12  1  0
 19 21  2  0
 19 20  1  0
M  END
$$$$
