CDS.pdb
     RDKit          3D

 21 20  0  0  1  0  0  0  0  0999 V2000
   20.5543  -13.1126  -17.7940 N   0  0  0  0  0  0  0  0  0  0  0  0
   21.6223  -12.1335  -17.8240 C   0  0  1  0  0  0  0  0  0  0  0  0
   22.1721  -12.1267  -19.2527 C   0  0  0  0  0  0  0  0  0  0  0  0
   23.2295  -13.5880  -19.4846 S   0  0  0  0  0  0  0  0  0  0  0  0
   21.0946  -10.7883  -17.5009 C   0  0  0  0  0  0  0  0  0  0  0  0
   19.9638  -10.4539  -17.9366 O   0  0  0  0  0  0  0  0  0  0  0  0
   21.8219   -9.8783  -16.7225 N   0  0  0  0  0  0  0  0  0  0  0  0
   21.2523   -8.5587  -16.4553 C   0  0  1  0  0  0  0  0  0  0  0  0
   21.3974   -8.2384  -14.9852 C   0  0  0  0  0  0  0  0  0  0  0  0
   20.8841   -6.9330  -14.5998 C   0  0  0  0  0  0  0  0  0  0  0  0
   21.6380   -6.1326  -13.9618 O   0  0  0  0  0  0  0  0  0  0  0  0
   21.9616   -7.6175  -17.3371 C   0  0  0  0  0  0  0  0  0  0  0  0
   23.2249   -7.6103  -17.4142 O   0  0  0  0  0  0  0  0  0  0  0  0
   19.6069   -6.4625  -14.8718 O   0  0  0  0  0  0  0  0  0  0  0  0
   21.0387   -6.6625  -20.8851 O   0  0  0  0  0  0  0  0  0  0  0  0
   21.1246   -5.4486  -20.1898 C   0  0  0  0  0  0  0  0  0  0  0  0
   22.0149   -5.7531  -18.9656 C   0  0  2  0  0  0  0  0  0  0  0  0
   21.2782   -6.6746  -18.1500 N   0  0  0  0  0  0  0  0  0  0  0  0
   22.2437   -4.4622  -18.2947 C   0  0  0  0  0  0  0  0  0  0  0  0
   23.2019   -3.6028  -18.7483 O   0  0  0  0  0  0  0  0  0  0  0  0
   21.5227   -4.1674  -17.2773 O   0  0  0  0  0  0  0  0  0  0  0  0
  2  5  1  0
  2  1  1  6
  3  2  1  0
  4  3  1  0
  5  6  2  0
  7  8  1  0
  7  5  1  0
  8 12  1  0
  9 10  1  0
  8  9  1  1
 10 14  1  0
 11 10  2  0
 12 13  2  0
 15 16  1  0
 17 16  1  6
 17 19  1  0
 18 17  1  0
 18 12  1  0
 19 21  2  0
 19 20  1  0
M  END
$$$$
