CDS.pdb
     RDKit          3D

 21 20  0  0  1  0  0  0  0  0999 V2000
   16.2531  -12.8969  -13.6214 N   0  0  0  0  0  0  0  0  0  0  0  0
   15.3633  -11.7530  -13.6273 C   0  0  1  0  0  0  0  0  0  0  0  0
   14.1036  -12.1721  -12.8654 C   0  0  0  0  0  0  0  0  0  0  0  0
   13.1584  -13.3426  -13.8870 S   0  0  0  0  0  0  0  0  0  0  0  0
   15.9938  -10.6088  -12.9303 C   0  0  0  0  0  0  0  0  0  0  0  0
   16.6976  -10.8257  -11.9115 O   0  0  0  0  0  0  0  0  0  0  0  0
   15.8269   -9.2911  -13.3760 N   0  0  0  0  0  0  0  0  0  0  0  0
   16.5645   -8.2182  -12.7113 C   0  0  1  0  0  0  0  0  0  0  0  0
   17.0710   -7.2413  -13.7477 C   0  0  0  0  0  0  0  0  0  0  0  0
   17.7660   -6.0873  -13.1986 C   0  0  0  0  0  0  0  0  0  0  0  0
   18.6985   -6.2677  -12.3538 O   0  0  0  0  0  0  0  0  0  0  0  0
   15.6347   -7.6190  -11.7403 C   0  0  0  0  0  0  0  0  0  0  0  0
   14.4317   -7.3706  -12.0456 O   0  0  0  0  0  0  0  0  0  0  0  0
   17.4988   -4.7638  -13.5206 O   0  0  0  0  0  0  0  0  0  0  0  0
   14.8230   -8.5186   -8.2036 O   0  0  0  0  0  0  0  0  0  0  0  0
   15.3420   -7.2187   -8.1310 C   0  0  0  0  0  0  0  0  0  0  0  0
   15.1132   -6.6197   -9.5357 C   0  0  2  0  0  0  0  0  0  0  0  0
   16.0255   -7.2922  -10.4146 N   0  0  0  0  0  0  0  0  0  0  0  0
   15.3991   -5.1798   -9.4180 C   0  0  0  0  0  0  0  0  0  0  0  0
   16.4174   -4.6125  -10.1277 O   0  0  0  0  0  0  0  0  0  0  0  0
   14.6701   -4.4753   -8.6343 O   0  0  0  0  0  0  0  0  0  0  0  0
  2  5  1  0
  2  1  1  1
  3  2  1  0
  4  3  1  0
  5  6  2  0
  7  8  1  0
  7  5  1  0
  8 12  1  0
  9 10  1  0
  8  9  1  6
 10 14  1  0
 11 10  2  0
 12 13  2  0
 15 16  1  0
 17 16  1  1
 17 19  1  0
 18 17  1  0
 18 12  1  0
 19 21  2  0
 19 20  1  0
M  END
$$$$
