CDS.pdb
     RDKit          3D

 21 20  0  0  1  0  0  0  0  0999 V2000
   17.9286  -11.7598  -15.2908 N   0  0  0  0  0  0  0  0  0  0  0  0
   19.1513  -12.0185  -16.0245 C   0  0  1  0  0  0  0  0  0  0  0  0
   18.7883  -12.9818  -17.1575 C   0  0  0  0  0  0  0  0  0  0  0  0
   17.9633  -14.4400  -16.4504 S   0  0  0  0  0  0  0  0  0  0  0  0
   19.6768  -10.7621  -16.6056 C   0  0  0  0  0  0  0  0  0  0  0  0
   20.7681  -10.7861  -17.2293 O   0  0  0  0  0  0  0  0  0  0  0  0
   18.9904   -9.5474  -16.4788 N   0  0  0  0  0  0  0  0  0  0  0  0
   19.6280   -8.3192  -16.9503 C   0  0  1  0  0  0  0  0  0  0  0  0
   18.7447   -7.6615  -17.9858 C   0  0  0  0  0  0  0  0  0  0  0  0
   19.2696   -6.4146  -18.5206 C   0  0  0  0  0  0  0  0  0  0  0  0
   18.9482   -5.3168  -17.9663 O   0  0  0  0  0  0  0  0  0  0  0  0
   19.8566   -7.4890  -15.7566 C   0  0  0  0  0  0  0  0  0  0  0  0
   19.1498   -7.6227  -14.7151 O   0  0  0  0  0  0  0  0  0  0  0  0
   20.1164   -6.3063  -19.6150 O   0  0  0  0  0  0  0  0  0  0  0  0
   22.1143   -6.1871  -12.3600 O   0  0  0  0  0  0  0  0  0  0  0  0
   21.8370   -6.8752  -13.5491 C   0  0  0  0  0  0  0  0  0  0  0  0
   21.1661   -5.8301  -14.4667 C   0  0  2  0  0  0  0  0  0  0  0  0
   20.8767   -6.5027  -15.7000 N   0  0  0  0  0  0  0  0  0  0  0  0
   22.1450   -4.7423  -14.6319 C   0  0  0  0  0  0  0  0  0  0  0  0
   22.3345   -3.8210  -13.6432 O   0  0  0  0  0  0  0  0  0  0  0  0
   22.8120   -4.6828  -15.7244 O   0  0  0  0  0  0  0  0  0  0  0  0
  2  5  1  0
  2  1  1  6
  3  2  1  0
  4  3  1  0
  5  6  2  0
  7  8  1  0
  7  5  1  0
  8 12  1  0
  9 10  1  0
  8  9  1  6
 10 14  1  0
 11 10  2  0
 12 13  2  0
 15 16  1  0
 17 16  1  1
 17 19  1  0
 18 17  1  0
 18 12  1  0
 19 21  2  0
 19 20  1  0
M  END
$$$$
