CDS.pdb
     RDKit          3D

 21 20  0  0  1  0  0  0  0  0999 V2000
   21.1626  -10.2020  -17.7472 N   0  0  0  0  0  0  0  0  0  0  0  0
   20.3119  -10.4865  -16.6090 C   0  0  1  0  0  0  0  0  0  0  0  0
   20.9361  -11.6797  -15.8811 C   0  0  0  0  0  0  0  0  0  0  0  0
   20.7081  -13.1731  -16.8934 S   0  0  0  0  0  0  0  0  0  0  0  0
   20.2752   -9.3241  -15.6924 C   0  0  0  0  0  0  0  0  0  0  0  0
   19.5618   -9.3824  -14.6590 O   0  0  0  0  0  0  0  0  0  0  0  0
   21.0144   -8.1613  -15.9462 N   0  0  0  0  0  0  0  0  0  0  0  0
   20.8842   -7.0247  -15.0361 C   0  0  1  0  0  0  0  0  0  0  0  0
   22.2599   -6.5380  -14.6419 C   0  0  0  0  0  0  0  0  0  0  0  0
   22.2604   -5.3578  -13.7915 C   0  0  0  0  0  0  0  0  0  0  0  0
   21.9214   -5.4710  -12.5716 O   0  0  0  0  0  0  0  0  0  0  0  0
   20.0832   -6.0161  -15.7485 C   0  0  0  0  0  0  0  0  0  0  0  0
   20.4539   -5.5471  -16.8641 O   0  0  0  0  0  0  0  0  0  0  0  0
   22.6076   -4.0772  -14.1991 O   0  0  0  0  0  0  0  0  0  0  0  0
   16.4923   -5.1683  -14.4386 O   0  0  0  0  0  0  0  0  0  0  0  0
   16.6556   -4.7730  -15.7733 C   0  0  0  0  0  0  0  0  0  0  0  0
   18.1617   -4.4634  -15.9154 C   0  0  2  0  0  0  0  0  0  0  0  0
   18.8563   -5.5179  -15.2352 N   0  0  0  0  0  0  0  0  0  0  0  0
   18.3706   -3.1494  -15.2841 C   0  0  0  0  0  0  0  0  0  0  0  0
   19.1298   -3.0325  -14.1561 O   0  0  0  0  0  0  0  0  0  0  0  0
   17.8228   -2.1218  -15.8189 O   0  0  0  0  0  0  0  0  0  0  0  0
  2  5  1  0
  2  1  1  6
  3  2  1  0
  4  3  1  0
  5  6  2  0
  7  8  1  0
  7  5  1  0
  8 12  1  0
  9 10  1  0
  8  9  1  6
 10 14  1  0
 11 10  2  0
 12 13  2  0
 15 16  1  0
 17 16  1  1
 17 19  1  0
 18 17  1  0
 18 12  1  0
 19 21  2  0
 19 20  1  0
M  END
$$$$
