CDS.pdb
     RDKit          3D

 21 20  0  0  1  0  0  0  0  0999 V2000
   12.8797  -12.5867  -10.6371 N   0  0  0  0  0  0  0  0  0  0  0  0
   12.8698  -11.1798  -10.9849 C   0  0  1  0  0  0  0  0  0  0  0  0
   12.3743  -10.4250   -9.7488 C   0  0  0  0  0  0  0  0  0  0  0  0
   10.5613  -10.5443   -9.6723 S   0  0  0  0  0  0  0  0  0  0  0  0
   14.2390  -10.7233  -11.3156 C   0  0  0  0  0  0  0  0  0  0  0  0
   15.1550  -10.8722  -10.4675 O   0  0  0  0  0  0  0  0  0  0  0  0
   14.5409  -10.1300  -12.5484 N   0  0  0  0  0  0  0  0  0  0  0  0
   15.9258   -9.7637  -12.8397 C   0  0  1  0  0  0  0  0  0  0  0  0
   16.6122  -10.9146  -13.5393 C   0  0  0  0  0  0  0  0  0  0  0  0
   16.0179  -11.2848  -14.8144 C   0  0  0  0  0  0  0  0  0  0  0  0
   15.9229  -10.4109  -15.7326 O   0  0  0  0  0  0  0  0  0  0  0  0
   15.8660   -8.5340  -13.6462 C   0  0  0  0  0  0  0  0  0  0  0  0
   14.9842   -8.3737  -14.5400 O   0  0  0  0  0  0  0  0  0  0  0  0
   15.5286  -12.5437  -15.1344 O   0  0  0  0  0  0  0  0  0  0  0  0
   16.7232   -5.2856  -12.2626 O   0  0  0  0  0  0  0  0  0  0  0  0
   16.1622   -5.1602  -13.5409 C   0  0  0  0  0  0  0  0  0  0  0  0
   16.7540   -6.3332  -14.3522 C   0  0  2  0  0  0  0  0  0  0  0  0
   16.7807   -7.4623  -13.4682 N   0  0  0  0  0  0  0  0  0  0  0  0
   18.1017   -5.9062  -14.7650 C   0  0  0  0  0  0  0  0  0  0  0  0
   18.2709   -4.8101  -15.5601 O   0  0  0  0  0  0  0  0  0  0  0  0
   19.1083   -6.5881  -14.3603 O   0  0  0  0  0  0  0  0  0  0  0  0
  2  5  1  0
  2  1  1  1
  3  2  1  0
  4  3  1  0
  5  6  2  0
  7  8  1  0
  7  5  1  0
  8 12  1  0
  9 10  1  0
  8  9  1  6
 10 14  1  0
 11 10  2  0
 12 13  2  0
 15 16  1  0
 17 16  1  1
 17 19  1  0
 18 17  1  0
 18 12  1  0
 19 21  2  0
 19 20  1  0
M  END
$$$$
