CDS.pdb
     RDKit          3D

 21 20  0  0  1  0  0  0  0  0999 V2000
   18.2447  -12.8354  -15.3404 N   0  0  0  0  0  0  0  0  0  0  0  0
   18.0983  -11.6362  -16.1409 C   0  0  1  0  0  0  0  0  0  0  0  0
   16.6131  -11.5217  -16.4935 C   0  0  0  0  0  0  0  0  0  0  0  0
   16.2358  -12.6824  -17.8416 S   0  0  0  0  0  0  0  0  0  0  0  0
   18.5049  -10.4453  -15.3605 C   0  0  0  0  0  0  0  0  0  0  0  0
   18.7873  -10.5792  -14.1429 O   0  0  0  0  0  0  0  0  0  0  0  0
   18.5832   -9.1735  -15.9430 N   0  0  0  0  0  0  0  0  0  0  0  0
   19.1143   -8.0631  -15.1543 C   0  0  1  0  0  0  0  0  0  0  0  0
   20.6173   -8.0128  -15.3081 C   0  0  0  0  0  0  0  0  0  0  0  0
   21.2585   -6.9149  -14.6012 C   0  0  0  0  0  0  0  0  0  0  0  0
   20.5817   -6.2316  -13.7700 O   0  0  0  0  0  0  0  0  0  0  0  0
   18.4310   -6.8517  -15.6359 C   0  0  0  0  0  0  0  0  0  0  0  0
   18.4228   -6.5429  -16.8633 O   0  0  0  0  0  0  0  0  0  0  0  0
   22.5834   -6.5299  -14.7531 O   0  0  0  0  0  0  0  0  0  0  0  0
   15.0710   -5.4961  -14.2496 O   0  0  0  0  0  0  0  0  0  0  0  0
   15.9908   -4.4386  -14.2348 C   0  0  0  0  0  0  0  0  0  0  0  0
   17.0559   -4.8228  -15.2846 C   0  0  2  0  0  0  0  0  0  0  0  0
   17.7422   -5.9689  -14.7624 N   0  0  0  0  0  0  0  0  0  0  0  0
   17.9366   -3.6504  -15.4219 C   0  0  0  0  0  0  0  0  0  0  0  0
   17.4401   -2.4542  -15.8520 O   0  0  0  0  0  0  0  0  0  0  0  0
   19.1770   -3.7816  -15.1286 O   0  0  0  0  0  0  0  0  0  0  0  0
  2  5  1  0
  2  1  1  1
  3  2  1  0
  4  3  1  0
  5  6  2  0
  7  8  1  0
  7  5  1  0
  8 12  1  0
  9 10  1  0
  8  9  1  6
 10 14  1  0
 11 10  2  0
 12 13  2  0
 15 16  1  0
 17 16  1  1
 17 19  1  0
 18 17  1  0
 18 12  1  0
 19 21  2  0
 19 20  1  0
M  END
$$$$
