CDS.pdb
     RDKit          3D

 21 20  0  0  1  0  0  0  0  0999 V2000
   17.0627  -12.7319  -15.0743 N   0  0  0  0  0  0  0  0  0  0  0  0
   16.1236  -11.6968  -14.6912 C   0  0  1  0  0  0  0  0  0  0  0  0
   15.0469  -12.3738  -13.8392 C   0  0  0  0  0  0  0  0  0  0  0  0
   13.7111  -12.9538  -14.9283 S   0  0  0  0  0  0  0  0  0  0  0  0
   16.8038  -10.6612  -13.8804 C   0  0  0  0  0  0  0  0  0  0  0  0
   17.7165  -11.0065  -13.0880 O   0  0  0  0  0  0  0  0  0  0  0  0
   16.4573   -9.3068  -13.9730 N   0  0  0  0  0  0  0  0  0  0  0  0
   17.2084   -8.3269  -13.1902 C   0  0  1  0  0  0  0  0  0  0  0  0
   17.8103   -7.2980  -14.1197 C   0  0  0  0  0  0  0  0  0  0  0  0
   18.5875   -6.2651  -13.4523 C   0  0  0  0  0  0  0  0  0  0  0  0
   18.8514   -6.3882  -12.2149 O   0  0  0  0  0  0  0  0  0  0  0  0
   16.2589   -7.7606  -12.2185 C   0  0  0  0  0  0  0  0  0  0  0  0
   15.1073   -7.3715  -12.5714 O   0  0  0  0  0  0  0  0  0  0  0  0
   19.0850   -5.1199  -14.0586 O   0  0  0  0  0  0  0  0  0  0  0  0
   14.9608   -7.2544   -7.6753 O   0  0  0  0  0  0  0  0  0  0  0  0
   16.0273   -7.5947   -8.5186 C   0  0  0  0  0  0  0  0  0  0  0  0
   15.5931   -7.1186   -9.9218 C   0  0  2  0  0  0  0  0  0  0  0  0
   16.5722   -7.6234  -10.8402 N   0  0  0  0  0  0  0  0  0  0  0  0
   15.5749   -5.6470   -9.8670 C   0  0  0  0  0  0  0  0  0  0  0  0
   14.4484   -4.9791   -9.4831 O   0  0  0  0  0  0  0  0  0  0  0  0
   16.6401   -5.0115  -10.1883 O   0  0  0  0  0  0  0  0  0  0  0  0
  2  5  1  0
  2  1  1  1
  3  2  1  0
  4  3  1  0
  5  6  2  0
  7  8  1  0
  7  5  1  0
  8 12  1  0
  9 10  1  0
  8  9  1  6
 10 14  1  0
 11 10  2  0
 12 13  2  0
 15 16  1  0
 17 16  1  1
 17 19  1  0
 18 17  1  0
 18 12  1  0
 19 21  2  0
 19 20  1  0
M  END
$$$$
