CDS.pdb
     RDKit          3D

 21 20  0  0  1  0  0  0  0  0999 V2000
   22.4473  -13.4562  -16.7018 N   0  0  0  0  0  0  0  0  0  0  0  0
   23.0177  -12.2786  -16.0788 C   0  0  1  0  0  0  0  0  0  0  0  0
   24.2639  -11.9128  -16.8890 C   0  0  0  0  0  0  0  0  0  0  0  0
   25.6935  -12.8073  -16.2083 S   0  0  0  0  0  0  0  0  0  0  0  0
   22.0568  -11.1533  -16.1320 C   0  0  0  0  0  0  0  0  0  0  0  0
   20.9910  -11.2895  -16.7846 O   0  0  0  0  0  0  0  0  0  0  0  0
   22.3038   -9.9411  -15.4746 N   0  0  0  0  0  0  0  0  0  0  0  0
   21.2777   -8.9000  -15.4962 C   0  0  1  0  0  0  0  0  0  0  0  0
   20.0216   -9.4205  -14.8358 C   0  0  0  0  0  0  0  0  0  0  0  0
   18.9919   -8.4150  -14.6235 C   0  0  0  0  0  0  0  0  0  0  0  0
   18.4953   -7.8130  -15.6269 O   0  0  0  0  0  0  0  0  0  0  0  0
   21.8612   -7.7321  -14.8165 C   0  0  0  0  0  0  0  0  0  0  0  0
   22.4575   -7.8452  -13.7058 O   0  0  0  0  0  0  0  0  0  0  0  0
   18.4831   -8.0383  -13.3883 O   0  0  0  0  0  0  0  0  0  0  0  0
   21.6823   -4.3677  -16.6882 O   0  0  0  0  0  0  0  0  0  0  0  0
   22.7428   -4.2735  -15.7767 C   0  0  0  0  0  0  0  0  0  0  0  0
   22.4289   -5.3253  -14.6907 C   0  0  2  0  0  0  0  0  0  0  0  0
   21.7960   -6.4229  -15.3629 N   0  0  0  0  0  0  0  0  0  0  0  0
   21.5358   -4.6627  -13.7252 C   0  0  0  0  0  0  0  0  0  0  0  0
   22.0080   -3.6846  -12.8989 O   0  0  0  0  0  0  0  0  0  0  0  0
   20.3081   -5.0268  -13.6807 O   0  0  0  0  0  0  0  0  0  0  0  0
  2  5  1  0
  2  1  1  6
  3  2  1  0
  4  3  1  0
  5  6  2  0
  7  8  1  0
  7  5  1  0
  8 12  1  0
  9 10  1  0
  8  9  1  1
 10 14  1  0
 11 10  2  0
 12 13  2  0
 15 16  1  0
 17 16  1  6
 17 19  1  0
 18 17  1  0
 18 12  1  0
 19 21  2  0
 19 20  1  0
M  END
$$$$
