CDS.pdb
     RDKit          3D

 21 20  0  0  1  0  0  0  0  0999 V2000
   17.1149  -14.5894  -15.6144 N   0  0  0  0  0  0  0  0  0  0  0  0
   17.0273  -13.3400  -16.3434 C   0  0  1  0  0  0  0  0  0  0  0  0
   15.9254  -12.5161  -15.6724 C   0  0  0  0  0  0  0  0  0  0  0  0
   14.3101  -13.2379  -16.0932 S   0  0  0  0  0  0  0  0  0  0  0  0
   18.3080  -12.6022  -16.2529 C   0  0  0  0  0  0  0  0  0  0  0  0
   19.0453  -12.7774  -15.2499 O   0  0  0  0  0  0  0  0  0  0  0  0
   18.7198  -11.7142  -17.2553 N   0  0  0  0  0  0  0  0  0  0  0  0
   20.0078  -11.0366  -17.1180 C   0  0  1  0  0  0  0  0  0  0  0  0
   20.7250  -11.0488  -18.4486 C   0  0  0  0  0  0  0  0  0  0  0  0
   22.0120  -10.3707  -18.4452 C   0  0  0  0  0  0  0  0  0  0  0  0
   22.3325   -9.6412  -19.4357 O   0  0  0  0  0  0  0  0  0  0  0  0
   19.7108   -9.6837  -16.6201 C   0  0  0  0  0  0  0  0  0  0  0  0
   18.8063   -8.9712  -17.1458 O   0  0  0  0  0  0  0  0  0  0  0  0
   22.9546  -10.4468  -17.4291 O   0  0  0  0  0  0  0  0  0  0  0  0
   21.2964   -8.5554  -13.2357 O   0  0  0  0  0  0  0  0  0  0  0  0
   20.1404   -7.8218  -13.5356 C   0  0  0  0  0  0  0  0  0  0  0  0
   20.0829   -7.7825  -15.0782 C   0  0  2  0  0  0  0  0  0  0  0  0
   20.4098   -9.1046  -15.5280 N   0  0  0  0  0  0  0  0  0  0  0  0
   21.0762   -6.7801  -15.4992 C   0  0  0  0  0  0  0  0  0  0  0  0
   20.9080   -5.4616  -15.1899 O   0  0  0  0  0  0  0  0  0  0  0  0
   22.0992   -7.1760  -16.1617 O   0  0  0  0  0  0  0  0  0  0  0  0
  2  5  1  0
  2  1  1  1
  3  2  1  0
  4  3  1  0
  5  6  2  0
  7  8  1  0
  7  5  1  0
  8 12  1  0
  9 10  1  0
  8  9  1  6
 10 14  1  0
 11 10  2  0
 12 13  2  0
 15 16  1  0
 17 16  1  1
 17 19  1  0
 18 17  1  0
 18 12  1  0
 19 21  2  0
 19 20  1  0
M  END
$$$$
