CDS.pdb
     RDKit          3D

 21 20  0  0  1  0  0  0  0  0999 V2000
   14.2781   -8.9288   -9.7865 N   0  0  0  0  0  0  0  0  0  0  0  0
   14.8294   -7.5886   -9.7948 C   0  0  1  0  0  0  0  0  0  0  0  0
   15.7121   -7.4689   -8.5499 C   0  0  0  0  0  0  0  0  0  0  0  0
   14.6491   -7.4268   -7.0749 S   0  0  0  0  0  0  0  0  0  0  0  0
   15.6624   -7.3837  -11.0017 C   0  0  0  0  0  0  0  0  0  0  0  0
   16.0133   -8.3826  -11.6795 O   0  0  0  0  0  0  0  0  0  0  0  0
   16.0699   -6.1064  -11.4083 N   0  0  0  0  0  0  0  0  0  0  0  0
   16.7587   -5.9552  -12.6888 C   0  0  1  0  0  0  0  0  0  0  0  0
   16.2420   -4.7217  -13.3934 C   0  0  0  0  0  0  0  0  0  0  0  0
   16.8306   -4.4849  -14.7025 C   0  0  0  0  0  0  0  0  0  0  0  0
   17.4905   -5.4148  -15.2643 O   0  0  0  0  0  0  0  0  0  0  0  0
   18.1965   -5.8991  -12.3792 C   0  0  0  0  0  0  0  0  0  0  0  0
   18.6237   -5.3357  -11.3294 O   0  0  0  0  0  0  0  0  0  0  0  0
   16.7368   -3.3006  -15.4203 O   0  0  0  0  0  0  0  0  0  0  0  0
   22.4987   -7.7522  -12.8574 O   0  0  0  0  0  0  0  0  0  0  0  0
   21.1444   -7.8252  -13.2108 C   0  0  0  0  0  0  0  0  0  0  0  0
   20.5654   -6.4380  -12.8573 C   0  0  2  0  0  0  0  0  0  0  0  0
   19.1803   -6.4726  -13.2279 N   0  0  0  0  0  0  0  0  0  0  0  0
   21.3368   -5.4603  -13.6434 C   0  0  0  0  0  0  0  0  0  0  0  0
   22.3949   -4.8011  -13.0882 O   0  0  0  0  0  0  0  0  0  0  0  0
   20.9901   -5.2446  -14.8580 O   0  0  0  0  0  0  0  0  0  0  0  0
  2  5  1  0
  2  1  1  6
  3  2  1  0
  4  3  1  0
  5  6  2  0
  7  8  1  0
  7  5  1  0
  8 12  1  0
  9 10  1  0
  8  9  1  1
 10 14  1  0
 11 10  2  0
 12 13  2  0
 15 16  1  0
 17 16  1  6
 17 19  1  0
 18 17  1  0
 18 12  1  0
 19 21  2  0
 19 20  1  0
M  END
$$$$
