CDS.pdb
     RDKit          3D

 21 20  0  0  1  0  0  0  0  0999 V2000
   26.6645  -12.1112  -16.8641 N   0  0  0  0  0  0  0  0  0  0  0  0
   26.2645  -10.7908  -16.4205 C   0  0  1  0  0  0  0  0  0  0  0  0
   27.1608   -9.7904  -17.1547 C   0  0  0  0  0  0  0  0  0  0  0  0
   28.8503   -9.9162  -16.4936 S   0  0  0  0  0  0  0  0  0  0  0  0
   24.8521  -10.5336  -16.7827 C   0  0  0  0  0  0  0  0  0  0  0  0
   24.3693  -11.0946  -17.7989 O   0  0  0  0  0  0  0  0  0  0  0  0
   24.0394   -9.6818  -16.0232 N   0  0  0  0  0  0  0  0  0  0  0  0
   22.6588   -9.4541  -16.4465 C   0  0  1  0  0  0  0  0  0  0  0  0
   21.7314  -10.3081  -15.6123 C   0  0  0  0  0  0  0  0  0  0  0  0
   20.3184  -10.1282  -15.9077 C   0  0  0  0  0  0  0  0  0  0  0  0
   19.9085  -10.2841  -17.1008 O   0  0  0  0  0  0  0  0  0  0  0  0
   22.4173   -8.0091  -16.3050 C   0  0  0  0  0  0  0  0  0  0  0  0
   22.7122   -7.3923  -15.2398 O   0  0  0  0  0  0  0  0  0  0  0  0
   19.3429   -9.7916  -14.9795 O   0  0  0  0  0  0  0  0  0  0  0  0
   20.8374   -6.2056  -19.3247 O   0  0  0  0  0  0  0  0  0  0  0  0
   21.4531   -5.2097  -18.5542 C   0  0  0  0  0  0  0  0  0  0  0  0
   21.6003   -5.8289  -17.1474 C   0  0  2  0  0  0  0  0  0  0  0  0
   21.8503   -7.2271  -17.3460 N   0  0  0  0  0  0  0  0  0  0  0  0
   20.3264   -5.5751  -16.4533 C   0  0  0  0  0  0  0  0  0  0  0  0
   19.4964   -6.6070  -16.1237 O   0  0  0  0  0  0  0  0  0  0  0  0
   20.0179   -4.3646  -16.1681 O   0  0  0  0  0  0  0  0  0  0  0  0
  2  5  1  0
  2  1  1  6
  3  2  1  0
  4  3  1  0
  5  6  2  0
  7  8  1  0
  7  5  1  0
  8 12  1  0
  9 10  1  0
  8  9  1  1
 10 14  1  0
 11 10  2  0
 12 13  2  0
 15 16  1  0
 17 16  1  6
 17 19  1  0
 18 17  1  0
 18 12  1  0
 19 21  2  0
 19 20  1  0
M  END
$$$$
