YHT.pdb
     RDKit          3D

 30 31  0  0  1  0  0  0  0  0999 V2000
   10.1303  -19.3182   29.9659 O   0  0  0  0  0  0  0  0  0  0  0  0
    9.4349  -18.5850   29.0332 C   0  0  0  0  0  0  0  0  0  0  0  0
   10.0729  -17.5527   28.3866 C   0  0  0  0  0  0  0  0  0  0  0  0
    9.4000  -16.8190   27.4626 C   0  0  0  0  0  0  0  0  0  0  0  0
    8.0850  -17.1039   27.1717 C   0  0  0  0  0  0  0  0  0  0  0  0
    7.3203  -16.3179   26.1690 C   0  0  0  0  0  0  0  0  0  0  0  0
    6.7570  -17.1973   25.0798 C   0  0  2  0  0  0  0  0  0  0  0  0
    7.1502  -18.5669   25.4584 N   0  0  0  0  0  0  0  0  0  0  0  0
    7.2681  -16.9049   23.7416 C   0  0  0  0  0  0  0  0  0  0  0  0
    8.0620  -17.7230   23.2104 O   0  0  0  0  0  0  0  0  0  0  0  0
    7.4390  -18.1298   27.8096 C   0  0  0  0  0  0  0  0  0  0  0  0
    8.1110  -18.8805   28.7479 C   0  0  0  0  0  0  0  0  0  0  0  0
    6.9422  -15.7625   22.9716 N   0  0  0  0  0  0  0  0  0  0  0  0
    7.5380  -15.4466   21.6881 C   0  0  1  0  0  0  0  0  0  0  0  0
    6.9843  -14.1489   21.1417 C   0  0  0  0  0  0  0  0  0  0  0  0
    7.5260  -13.8434   19.7959 C   0  0  0  0  0  0  0  0  0  0  0  0
    8.2434  -12.7064   19.4296 C   0  0  0  0  0  0  0  0  0  0  0  0
    8.5764  -12.7586   18.1392 N   0  0  0  0  0  0  0  0  0  0  0  0
    8.0796  -13.9215   17.6672 C   0  0  0  0  0  0  0  0  0  0  0  0
    7.4497  -14.5691   18.6666 N   0  0  0  0  0  0  0  0  0  0  0  0
    8.9801  -15.4963   21.7845 C   0  0  0  0  0  0  0  0  0  0  0  0
    9.5073  -15.0253   22.8531 O   0  0  0  0  0  0  0  0  0  0  0  0
   10.7719  -16.8145   23.5522 C   0  0  0  0  0  0  0  0  0  0  0  0
   11.4334  -17.2693   22.2923 C   0  0  1  0  0  0  0  0  0  0  0  0
   10.8451  -18.4816   21.9202 O   0  0  0  0  0  0  0  0  0  0  0  0
   11.2914  -16.2779   21.1562 C   0  0  2  0  0  0  0  0  0  0  0  0
    9.9113  -16.0022   20.8500 N   0  0  0  0  0  0  0  0  0  0  0  0
   12.1289  -16.6106   20.0024 C   0  0  0  0  0  0  0  0  0  0  0  0
   11.6761  -16.8893   18.8618 O   0  0  0  0  0  0  0  0  0  0  0  0
   13.5132  -16.6387   20.1044 O   0  0  0  0  0  0  0  0  0  0  0  0
  2  1  1  0
  3  2  2  0
  4  3  1  0
  5 11  1  0
  5  4  2  0
  6  5  1  0
  7  9  1  0
  7  6  1  0
  7  8  1  1
  9 10  2  0
 11 12  2  0
 12  2  1  0
 13 14  1  0
 13  9  1  0
 14 15  1  1
 15 16  1  0
 16 17  2  0
 17 18  1  0
 19 18  1  0
 20 16  1  0
 20 19  2  0
 21 14  1  0
 22 21  2  0
 24 23  1  1
 24 26  1  0
 25 24  1  0
 26 28  1  0
 26 27  1  6
 27 21  1  0
 28 30  1  0
 29 28  2  0
M  END
$$$$
