YHT.pdb
     RDKit          3D

 30 31  0  0  1  0  0  0  0  0999 V2000
   12.1343  -19.5137   30.9041 O   0  0  0  0  0  0  0  0  0  0  0  0
   11.9277  -18.6206   29.8789 C   0  0  0  0  0  0  0  0  0  0  0  0
   10.8307  -18.7820   29.0656 C   0  0  0  0  0  0  0  0  0  0  0  0
   10.6124  -17.9085   28.0487 C   0  0  0  0  0  0  0  0  0  0  0  0
   11.4828  -16.8648   27.8296 C   0  0  0  0  0  0  0  0  0  0  0  0
   11.2740  -15.8945   26.7236 C   0  0  0  0  0  0  0  0  0  0  0  0
   10.9170  -16.5871   25.4314 C   0  0  2  0  0  0  0  0  0  0  0  0
   12.2116  -16.8836   24.7911 N   0  0  0  0  0  0  0  0  0  0  0  0
   10.1044  -15.7837   24.5192 C   0  0  0  0  0  0  0  0  0  0  0  0
   10.6268  -14.7740   23.9812 O   0  0  0  0  0  0  0  0  0  0  0  0
   12.5790  -16.6939   28.6332 C   0  0  0  0  0  0  0  0  0  0  0  0
   12.8105  -17.5731   29.6672 C   0  0  0  0  0  0  0  0  0  0  0  0
    8.7560  -16.0453   24.1768 N   0  0  0  0  0  0  0  0  0  0  0  0
    7.8442  -15.0553   23.6378 C   0  0  1  0  0  0  0  0  0  0  0  0
    6.8836  -15.6863   22.6538 C   0  0  0  0  0  0  0  0  0  0  0  0
    7.5233  -15.9269   21.3382 C   0  0  0  0  0  0  0  0  0  0  0  0
    8.8498  -15.6653   21.0012 C   0  0  0  0  0  0  0  0  0  0  0  0
    9.0859  -16.0032   19.7328 N   0  0  0  0  0  0  0  0  0  0  0  0
    7.9215  -16.4818   19.2460 C   0  0  0  0  0  0  0  0  0  0  0  0
    6.9864  -16.4337   20.2145 N   0  0  0  0  0  0  0  0  0  0  0  0
    7.2141  -14.3228   24.7139 C   0  0  0  0  0  0  0  0  0  0  0  0
    6.7738  -15.0080   25.7029 O   0  0  0  0  0  0  0  0  0  0  0  0
    8.2443  -10.6283   26.3998 C   0  0  0  0  0  0  0  0  0  0  0  0
    6.7979  -10.8363   26.0892 C   0  0  1  0  0  0  0  0  0  0  0  0
    6.5326  -10.2046   24.8706 O   0  0  0  0  0  0  0  0  0  0  0  0
    6.4176  -12.2985   25.9850 C   0  0  2  0  0  0  0  0  0  0  0  0
    7.0114  -12.9297   24.8345 N   0  0  0  0  0  0  0  0  0  0  0  0
    4.9801  -12.5255   26.1450 C   0  0  0  0  0  0  0  0  0  0  0  0
    4.2707  -13.1527   25.3161 O   0  0  0  0  0  0  0  0  0  0  0  0
    4.2969  -12.0467   27.2548 O   0  0  0  0  0  0  0  0  0  0  0  0
  2  1  1  0
  3  2  2  0
  4  3  1  0
  5 11  1  0
  5  4  2  0
  6  5  1  0
  7  9  1  0
  7  6  1  0
  7  8  1  6
  9 10  2  0
 11 12  2  0
 12  2  1  0
 13 14  1  0
 13  9  1  0
 14 15  1  1
 15 16  1  0
 16 17  2  0
 17 18  1  0
 19 18  1  0
 20 16  1  0
 20 19  2  0
 21 14  1  0
 22 21  2  0
 24 23  1  6
 24 26  1  0
 25 24  1  0
 26 28  1  0
 26 27  1  6
 27 21  1  0
 28 30  1  0
 29 28  2  0
M  END
$$$$
