YHT.pdb
     RDKit          3D

 30 31  0  0  1  0  0  0  0  0999 V2000
    5.1598  -10.0061   26.6042 O   0  0  0  0  0  0  0  0  0  0  0  0
    5.8210  -11.1905   26.3779 C   0  0  0  0  0  0  0  0  0  0  0  0
    5.3258  -12.3467   26.9333 C   0  0  0  0  0  0  0  0  0  0  0  0
    5.9672  -13.5247   26.7192 C   0  0  0  0  0  0  0  0  0  0  0  0
    7.1083  -13.5655   25.9503 C   0  0  0  0  0  0  0  0  0  0  0  0
    7.8351  -14.8373   25.7004 C   0  0  0  0  0  0  0  0  0  0  0  0
    7.2627  -15.5869   24.5224 C   0  0  2  0  0  0  0  0  0  0  0  0
    6.1379  -16.3617   25.0776 N   0  0  0  0  0  0  0  0  0  0  0  0
    8.2008  -16.5019   23.8742 C   0  0  0  0  0  0  0  0  0  0  0  0
    8.3257  -17.6632   24.3407 O   0  0  0  0  0  0  0  0  0  0  0  0
    7.6110  -12.4200   25.3919 C   0  0  0  0  0  0  0  0  0  0  0  0
    6.9693  -11.2201   25.6020 C   0  0  0  0  0  0  0  0  0  0  0  0
    8.9963  -16.1950   22.7441 N   0  0  0  0  0  0  0  0  0  0  0  0
   10.0188  -17.0696   22.2041 C   0  0  1  0  0  0  0  0  0  0  0  0
   10.6228  -16.4813   20.9479 C   0  0  0  0  0  0  0  0  0  0  0  0
   11.5938  -17.4082   20.3185 C   0  0  0  0  0  0  0  0  0  0  0  0
   11.9793  -18.6575   20.8004 C   0  0  0  0  0  0  0  0  0  0  0  0
   12.8705  -19.2199   19.9830 N   0  0  0  0  0  0  0  0  0  0  0  0
   13.0649  -18.3435   18.9751 C   0  0  0  0  0  0  0  0  0  0  0  0
   12.2955  -17.2571   19.1817 N   0  0  0  0  0  0  0  0  0  0  0  0
   10.9756  -17.4096   23.2339 C   0  0  0  0  0  0  0  0  0  0  0  0
   11.6927  -16.4549   23.6985 O   0  0  0  0  0  0  0  0  0  0  0  0
   10.9174  -17.9726   26.7451 C   0  0  0  0  0  0  0  0  0  0  0  0
   11.6258  -19.1621   26.1836 C   0  0  1  0  0  0  0  0  0  0  0  0
   10.6924  -20.1970   26.0747 O   0  0  0  0  0  0  0  0  0  0  0  0
   12.2395  -18.9002   24.8241 C   0  0  2  0  0  0  0  0  0  0  0  0
   11.2376  -18.6705   23.8151 N   0  0  0  0  0  0  0  0  0  0  0  0
   13.2685  -19.8782   24.4661 C   0  0  0  0  0  0  0  0  0  0  0  0
   13.2360  -20.5837   23.4245 O   0  0  0  0  0  0  0  0  0  0  0  0
   14.3726  -20.0894   25.2808 O   0  0  0  0  0  0  0  0  0  0  0  0
  2  1  1  0
  3  2  2  0
  4  3  1  0
  5 11  1  0
  5  4  2  0
  6  5  1  0
  7  9  1  0
  7  6  1  0
  7  8  1  1
  9 10  2  0
 11 12  2  0
 12  2  1  0
 13 14  1  0
 13  9  1  0
 14 15  1  6
 15 16  1  0
 16 17  2  0
 17 18  1  0
 19 18  1  0
 20 16  1  0
 20 19  2  0
 21 14  1  0
 22 21  2  0
 24 23  1  6
 24 26  1  0
 25 24  1  0
 26 28  1  0
 26 27  1  6
 27 21  1  0
 28 30  1  0
 29 28  2  0
M  END
$$$$
