YHT.pdb
     RDKit          3D

 30 31  0  0  1  0  0  0  0  0999 V2000
    7.1640  -11.7868   17.4533 O   0  0  0  0  0  0  0  0  0  0  0  0
    7.5970  -12.6095   18.4666 C   0  0  0  0  0  0  0  0  0  0  0  0
    8.9472  -12.7274   18.6982 C   0  0  0  0  0  0  0  0  0  0  0  0
    9.3911  -13.5360   19.6953 C   0  0  0  0  0  0  0  0  0  0  0  0
    8.4967  -14.2362   20.4729 C   0  0  0  0  0  0  0  0  0  0  0  0
    8.9504  -15.1315   21.5687 C   0  0  0  0  0  0  0  0  0  0  0  0
    9.7584  -16.2930   21.0442 C   0  0  2  0  0  0  0  0  0  0  0  0
    8.8160  -17.0645   20.2131 N   0  0  0  0  0  0  0  0  0  0  0  0
   10.3072  -17.1652   22.0813 C   0  0  0  0  0  0  0  0  0  0  0  0
    9.5259  -17.9429   22.6867 O   0  0  0  0  0  0  0  0  0  0  0  0
    7.1492  -14.1267   20.2515 C   0  0  0  0  0  0  0  0  0  0  0  0
    6.6877  -13.3101   19.2437 C   0  0  0  0  0  0  0  0  0  0  0  0
   11.6666  -17.2176   22.4729 N   0  0  0  0  0  0  0  0  0  0  0  0
   12.1852  -18.0942   23.5047 C   0  0  1  0  0  0  0  0  0  0  0  0
   13.6661  -18.3367   23.3116 C   0  0  0  0  0  0  0  0  0  0  0  0
   13.9423  -19.0867   22.0630 C   0  0  0  0  0  0  0  0  0  0  0  0
   13.3949  -20.3140   21.6949 C   0  0  0  0  0  0  0  0  0  0  0  0
   13.8635  -20.6981   20.5067 N   0  0  0  0  0  0  0  0  0  0  0  0
   14.7106  -19.7280   20.1028 C   0  0  0  0  0  0  0  0  0  0  0  0
   14.7541  -18.7625   21.0414 N   0  0  0  0  0  0  0  0  0  0  0  0
   11.8191  -17.5940   24.8113 C   0  0  0  0  0  0  0  0  0  0  0  0
   12.4812  -16.5912   25.2558 O   0  0  0  0  0  0  0  0  0  0  0  0
    8.8708  -15.8541   26.1940 C   0  0  0  0  0  0  0  0  0  0  0  0
    9.1612  -16.9774   27.1350 C   0  0  1  0  0  0  0  0  0  0  0  0
    8.2480  -18.0011   26.8654 O   0  0  0  0  0  0  0  0  0  0  0  0
   10.5694  -17.5178   26.9977 C   0  0  2  0  0  0  0  0  0  0  0  0
   10.8131  -18.0615   25.6864 N   0  0  0  0  0  0  0  0  0  0  0  0
   10.9573  -18.3852   28.1114 C   0  0  0  0  0  0  0  0  0  0  0  0
   11.3889  -19.5589   27.9713 O   0  0  0  0  0  0  0  0  0  0  0  0
   10.8680  -17.9485   29.4263 O   0  0  0  0  0  0  0  0  0  0  0  0
  2  1  1  0
  3  2  2  0
  4  3  1  0
  5 11  1  0
  5  4  2  0
  6  5  1  0
  7  9  1  0
  7  6  1  0
  7  8  1  6
  9 10  2  0
 11 12  2  0
 12  2  1  0
 13 14  1  0
 13  9  1  0
 14 15  1  1
 15 16  1  0
 16 17  2  0
 17 18  1  0
 19 18  1  0
 20 16  1  0
 20 19  2  0
 21 14  1  0
 22 21  2  0
 24 23  1  6
 24 26  1  0
 25 24  1  0
 26 28  1  0
 26 27  1  6
 27 21  1  0
 28 30  1  0
 29 28  2  0
M  END
$$$$
