YHT.pdb
     RDKit          3D

 30 31  0  0  1  0  0  0  0  0999 V2000
    7.0732  -11.8483   17.3699 O   0  0  0  0  0  0  0  0  0  0  0  0
    7.5250  -12.6631   18.3814 C   0  0  0  0  0  0  0  0  0  0  0  0
    6.6661  -12.9973   19.4018 C   0  0  0  0  0  0  0  0  0  0  0  0
    7.0970  -13.8011   20.4083 C   0  0  0  0  0  0  0  0  0  0  0  0
    8.3871  -14.2814   20.4108 C   0  0  0  0  0  0  0  0  0  0  0  0
    8.8900  -15.1596   21.4989 C   0  0  0  0  0  0  0  0  0  0  0  0
    9.5282  -16.4144   20.9556 C   0  0  2  0  0  0  0  0  0  0  0  0
    8.4362  -17.1261   20.2665 N   0  0  0  0  0  0  0  0  0  0  0  0
   10.1027  -17.2909   21.9751 C   0  0  0  0  0  0  0  0  0  0  0  0
    9.3281  -18.0234   22.6425 O   0  0  0  0  0  0  0  0  0  0  0  0
    9.2519  -13.9552   19.3996 C   0  0  0  0  0  0  0  0  0  0  0  0
    8.8261  -13.1411   18.3741 C   0  0  0  0  0  0  0  0  0  0  0  0
   11.4801  -17.3948   22.2847 N   0  0  0  0  0  0  0  0  0  0  0  0
   12.0227  -18.2645   23.3100 C   0  0  1  0  0  0  0  0  0  0  0  0
   13.4834  -18.5599   23.0486 C   0  0  0  0  0  0  0  0  0  0  0  0
   13.6636  -19.4437   21.8720 C   0  0  0  0  0  0  0  0  0  0  0  0
   12.6590  -20.1142   21.1772 C   0  0  0  0  0  0  0  0  0  0  0  0
   13.1769  -20.8207   20.1715 N   0  0  0  0  0  0  0  0  0  0  0  0
   14.5099  -20.6124   20.2101 C   0  0  0  0  0  0  0  0  0  0  0  0
   14.7967  -19.7845   21.2335 N   0  0  0  0  0  0  0  0  0  0  0  0
   11.7398  -17.7231   24.6208 C   0  0  0  0  0  0  0  0  0  0  0  0
   12.2838  -16.6012   24.9156 O   0  0  0  0  0  0  0  0  0  0  0  0
    9.1374  -15.9241   26.1098 C   0  0  0  0  0  0  0  0  0  0  0  0
    9.3837  -17.0275   27.0864 C   0  0  1  0  0  0  0  0  0  0  0  0
    8.4049  -18.0034   26.8768 O   0  0  0  0  0  0  0  0  0  0  0  0
   10.7534  -17.6565   26.9383 C   0  0  2  0  0  0  0  0  0  0  0  0
   10.9307  -18.2647   25.6447 N   0  0  0  0  0  0  0  0  0  0  0  0
   11.1179  -18.5014   28.0769 C   0  0  0  0  0  0  0  0  0  0  0  0
   11.5199  -19.6892   27.9709 O   0  0  0  0  0  0  0  0  0  0  0  0
   11.0380  -18.0255   29.3787 O   0  0  0  0  0  0  0  0  0  0  0  0
  2  1  1  0
  3  2  2  0
  4  3  1  0
  5 11  1  0
  5  4  2  0
  6  5  1  0
  7  9  1  0
  7  6  1  0
  7  8  1  1
  9 10  2  0
 11 12  2  0
 12  2  1  0
 13 14  1  0
 13  9  1  0
 14 15  1  6
 15 16  1  0
 16 17  2  0
 17 18  1  0
 19 18  1  0
 20 16  1  0
 20 19  2  0
 21 14  1  0
 22 21  2  0
 24 23  1  6
 24 26  1  0
 25 24  1  0
 26 28  1  0
 26 27  1  6
 27 21  1  0
 28 30  1  0
 29 28  2  0
M  END
$$$$
