YHT.pdb
     RDKit          3D

 30 31  0  0  1  0  0  0  0  0999 V2000
   11.2881  -14.4017   29.0718 O   0  0  0  0  0  0  0  0  0  0  0  0
   10.0700  -14.6909   28.5028 C   0  0  0  0  0  0  0  0  0  0  0  0
    9.4565  -15.8822   28.8113 C   0  0  0  0  0  0  0  0  0  0  0  0
    8.2531  -16.1827   28.2578 C   0  0  0  0  0  0  0  0  0  0  0  0
    7.6467  -15.3015   27.3913 C   0  0  0  0  0  0  0  0  0  0  0  0
    6.3325  -15.6023   26.7664 C   0  0  0  0  0  0  0  0  0  0  0  0
    6.4140  -16.7858   25.8337 C   0  0  2  0  0  0  0  0  0  0  0  0
    6.9712  -17.8764   26.6546 N   0  0  0  0  0  0  0  0  0  0  0  0
    7.2707  -16.5786   24.6673 C   0  0  0  0  0  0  0  0  0  0  0  0
    8.1403  -17.4469   24.3995 O   0  0  0  0  0  0  0  0  0  0  0  0
    8.2484  -14.1117   27.0765 C   0  0  0  0  0  0  0  0  0  0  0  0
    9.4682  -13.7963   27.6316 C   0  0  0  0  0  0  0  0  0  0  0  0
    7.2081  -15.4681   23.7916 N   0  0  0  0  0  0  0  0  0  0  0  0
    7.9373  -15.3720   22.5422 C   0  0  1  0  0  0  0  0  0  0  0  0
    7.5190  -14.1419   21.7671 C   0  0  0  0  0  0  0  0  0  0  0  0
    8.0281  -14.1696   20.3750 C   0  0  0  0  0  0  0  0  0  0  0  0
    8.8186  -15.1633   19.8010 C   0  0  0  0  0  0  0  0  0  0  0  0
    9.0932  -14.8671   18.5300 N   0  0  0  0  0  0  0  0  0  0  0  0
    8.4860  -13.6885   18.2767 C   0  0  0  0  0  0  0  0  0  0  0  0
    7.8477  -13.2742   19.3884 N   0  0  0  0  0  0  0  0  0  0  0  0
    9.3586  -15.4785   22.7876 C   0  0  0  0  0  0  0  0  0  0  0  0
    9.8857  -14.5883   23.5434 O   0  0  0  0  0  0  0  0  0  0  0  0
   11.6493  -17.8371   24.6837 C   0  0  0  0  0  0  0  0  0  0  0  0
   12.1213  -17.7245   23.2707 C   0  0  1  0  0  0  0  0  0  0  0  0
   11.6053  -18.8153   22.5649 O   0  0  0  0  0  0  0  0  0  0  0  0
   11.6789  -16.4419   22.5977 C   0  0  2  0  0  0  0  0  0  0  0  0
   10.2688  -16.4451   22.3044 N   0  0  0  0  0  0  0  0  0  0  0  0
   12.5445  -16.0570   21.4815 C   0  0  0  0  0  0  0  0  0  0  0  0
   12.1547  -15.9658   20.2885 O   0  0  0  0  0  0  0  0  0  0  0  0
   13.8862  -15.7617   21.6822 O   0  0  0  0  0  0  0  0  0  0  0  0
  2  1  1  0
  3  2  2  0
  4  3  1  0
  5 11  1  0
  5  4  2  0
  6  5  1  0
  7  9  1  0
  7  6  1  0
  7  8  1  1
  9 10  2  0
 11 12  2  0
 12  2  1  0
 13 14  1  0
 13  9  1  0
 14 15  1  1
 15 16  1  0
 16 17  2  0
 17 18  1  0
 19 18  1  0
 20 16  1  0
 20 19  2  0
 21 14  1  0
 22 21  2  0
 24 23  1  1
 24 26  1  0
 25 24  1  0
 26 28  1  0
 26 27  1  6
 27 21  1  0
 28 30  1  0
 29 28  2  0
M  END
$$$$
