YHT.pdb
     RDKit          3D

 30 31  0  0  1  0  0  0  0  0999 V2000
   11.9124  -12.4654   19.9261 O   0  0  0  0  0  0  0  0  0  0  0  0
   11.0570  -12.9312   18.9552 C   0  0  0  0  0  0  0  0  0  0  0  0
    9.7129  -12.6632   19.0670 C   0  0  0  0  0  0  0  0  0  0  0  0
    8.8550  -13.1161   18.1164 C   0  0  0  0  0  0  0  0  0  0  0  0
    9.3245  -13.8405   17.0442 C   0  0  0  0  0  0  0  0  0  0  0  0
    8.4115  -14.3531   15.9897 C   0  0  0  0  0  0  0  0  0  0  0  0
    8.5343  -15.8476   15.8210 C   0  0  2  0  0  0  0  0  0  0  0  0
    7.4023  -16.2246   14.9548 N   0  0  0  0  0  0  0  0  0  0  0  0
    8.4557  -16.6054   17.0688 C   0  0  0  0  0  0  0  0  0  0  0  0
    7.3311  -16.7510   17.6128 O   0  0  0  0  0  0  0  0  0  0  0  0
   10.6614  -14.1137   16.9222 C   0  0  0  0  0  0  0  0  0  0  0  0
   11.5405  -13.6597   17.8797 C   0  0  0  0  0  0  0  0  0  0  0  0
    9.5522  -17.2054   17.7335 N   0  0  0  0  0  0  0  0  0  0  0  0
    9.4416  -17.9816   18.9530 C   0  0  1  0  0  0  0  0  0  0  0  0
   10.1931  -19.2890   18.8298 C   0  0  0  0  0  0  0  0  0  0  0  0
   10.0383  -20.1285   20.0419 C   0  0  0  0  0  0  0  0  0  0  0  0
   11.0630  -20.7275   20.7719 C   0  0  0  0  0  0  0  0  0  0  0  0
   10.5653  -21.4110   21.8033 N   0  0  0  0  0  0  0  0  0  0  0  0
    9.2253  -21.2590   21.7463 C   0  0  0  0  0  0  0  0  0  0  0  0
    8.9144  -20.4877   20.6864 N   0  0  0  0  0  0  0  0  0  0  0  0
    9.8166  -17.1730   20.0919 C   0  0  0  0  0  0  0  0  0  0  0  0
   10.8957  -16.4900   19.9891 O   0  0  0  0  0  0  0  0  0  0  0  0
    8.2224  -14.2506   21.9720 C   0  0  0  0  0  0  0  0  0  0  0  0
    8.6332  -15.2817   22.9720 C   0  0  1  0  0  0  0  0  0  0  0  0
    7.4857  -15.9864   23.3477 O   0  0  0  0  0  0  0  0  0  0  0  0
    9.6607  -16.2549   22.4330 C   0  0  2  0  0  0  0  0  0  0  0  0
    9.1484  -17.0233   21.3278 N   0  0  0  0  0  0  0  0  0  0  0  0
   10.3099  -17.0382   23.4858 C   0  0  0  0  0  0  0  0  0  0  0  0
   10.2769  -18.2946   23.5492 O   0  0  0  0  0  0  0  0  0  0  0  0
   11.0208  -16.4201   24.5056 O   0  0  0  0  0  0  0  0  0  0  0  0
  2  1  1  0
  3  2  2  0
  4  3  1  0
  5 11  1  0
  5  4  2  0
  6  5  1  0
  7  9  1  0
  7  6  1  0
  7  8  1  6
  9 10  2  0
 11 12  2  0
 12  2  1  0
 13 14  1  0
 13  9  1  0
 14 15  1  6
 15 16  1  0
 16 17  2  0
 17 18  1  0
 19 18  1  0
 20 16  1  0
 20 19  2  0
 21 14  1  0
 22 21  2  0
 24 23  1  6
 24 26  1  0
 25 24  1  0
 26 28  1  0
 26 27  1  6
 27 21  1  0
 28 30  1  0
 29 28  2  0
M  END
$$$$
