YHT.pdb
     RDKit          3D

 30 31  0  0  1  0  0  0  0  0999 V2000
    5.8468  -10.1699   26.9629 O   0  0  0  0  0  0  0  0  0  0  0  0
    6.1924  -11.4547   26.6151 C   0  0  0  0  0  0  0  0  0  0  0  0
    5.7117  -12.5008   27.3670 C   0  0  0  0  0  0  0  0  0  0  0  0
    6.0438  -13.7757   27.0365 C   0  0  0  0  0  0  0  0  0  0  0  0
    6.8577  -14.0241   25.9544 C   0  0  0  0  0  0  0  0  0  0  0  0
    7.2422  -15.4068   25.5691 C   0  0  0  0  0  0  0  0  0  0  0  0
    6.8546  -15.7191   24.1446 C   0  0  2  0  0  0  0  0  0  0  0  0
    5.9053  -16.8425   24.2486 N   0  0  0  0  0  0  0  0  0  0  0  0
    7.9710  -16.1134   23.2867 C   0  0  0  0  0  0  0  0  0  0  0  0
    8.3131  -17.3235   23.2652 O   0  0  0  0  0  0  0  0  0  0  0  0
    7.3426  -12.9900   25.1980 C   0  0  0  0  0  0  0  0  0  0  0  0
    7.0126  -11.6936   25.5234 C   0  0  0  0  0  0  0  0  0  0  0  0
    8.7161  -15.2399   22.4586 N   0  0  0  0  0  0  0  0  0  0  0  0
    9.7898  -15.6647   21.5818 C   0  0  1  0  0  0  0  0  0  0  0  0
   10.1599  -14.5651   20.6108 C   0  0  0  0  0  0  0  0  0  0  0  0
    9.1288  -14.3895   19.5601 C   0  0  0  0  0  0  0  0  0  0  0  0
    8.0068  -15.1905   19.3576 C   0  0  0  0  0  0  0  0  0  0  0  0
    7.2936  -14.7441   18.3228 N   0  0  0  0  0  0  0  0  0  0  0  0
    7.9459  -13.6595   17.8537 C   0  0  0  0  0  0  0  0  0  0  0  0
    9.0475  -13.4511   18.6006 N   0  0  0  0  0  0  0  0  0  0  0  0
   10.8933  -16.1799   22.3620 C   0  0  0  0  0  0  0  0  0  0  0  0
   11.7019  -15.3211   22.8619 O   0  0  0  0  0  0  0  0  0  0  0  0
   11.1725  -18.3933   25.5995 C   0  0  0  0  0  0  0  0  0  0  0  0
   11.9959  -18.9556   24.4871 C   0  0  1  0  0  0  0  0  0  0  0  0
   11.2557  -19.9802   23.8899 O   0  0  0  0  0  0  0  0  0  0  0  0
   12.3574  -17.9258   23.4371 C   0  0  2  0  0  0  0  0  0  0  0  0
   11.2136  -17.5234   22.6598 N   0  0  0  0  0  0  0  0  0  0  0  0
   13.5384  -18.2992   22.6565 C   0  0  0  0  0  0  0  0  0  0  0  0
   13.5576  -18.3690   21.4002 O   0  0  0  0  0  0  0  0  0  0  0  0
   14.7414  -18.6072   23.2774 O   0  0  0  0  0  0  0  0  0  0  0  0
  2  1  1  0
  3  2  2  0
  4  3  1  0
  5 11  1  0
  5  4  2  0
  6  5  1  0
  7  9  1  0
  7  6  1  0
  7  8  1  1
  9 10  2  0
 11 12  2  0
 12  2  1  0
 13 14  1  0
 13  9  1  0
 14 15  1  1
 15 16  1  0
 16 17  2  0
 17 18  1  0
 19 18  1  0
 20 16  1  0
 20 19  2  0
 21 14  1  0
 22 21  2  0
 24 23  1  1
 24 26  1  0
 25 24  1  0
 26 28  1  0
 26 27  1  6
 27 21  1  0
 28 30  1  0
 29 28  2  0
M  END
$$$$
