YHT.pdb
     RDKit          3D

 30 31  0  0  1  0  0  0  0  0999 V2000
    7.5038  -12.5321   25.1376 O   0  0  0  0  0  0  0  0  0  0  0  0
    7.3949  -13.1641   23.9210 C   0  0  0  0  0  0  0  0  0  0  0  0
    6.7774  -14.3912   23.8604 C   0  0  0  0  0  0  0  0  0  0  0  0
    6.6618  -15.0283   22.6665 C   0  0  0  0  0  0  0  0  0  0  0  0
    7.1592  -14.4519   21.5196 C   0  0  0  0  0  0  0  0  0  0  0  0
    7.0519  -15.1247   20.1990 C   0  0  0  0  0  0  0  0  0  0  0  0
    8.3604  -15.7493   19.7811 C   0  0  2  0  0  0  0  0  0  0  0  0
    8.0350  -16.5419   18.5812 N   0  0  0  0  0  0  0  0  0  0  0  0
    8.9604  -16.6257   20.7858 C   0  0  0  0  0  0  0  0  0  0  0  0
    8.4218  -17.7403   21.0084 O   0  0  0  0  0  0  0  0  0  0  0  0
    7.7764  -13.2298   21.5677 C   0  0  0  0  0  0  0  0  0  0  0  0
    7.8993  -12.5746   22.7723 C   0  0  0  0  0  0  0  0  0  0  0  0
   10.1179  -16.3297   21.5452 N   0  0  0  0  0  0  0  0  0  0  0  0
   10.7437  -17.2524   22.4720 C   0  0  1  0  0  0  0  0  0  0  0  0
   12.2435  -17.2806   22.2743 C   0  0  0  0  0  0  0  0  0  0  0  0
   12.6200  -17.9796   21.0222 C   0  0  0  0  0  0  0  0  0  0  0  0
   12.7043  -19.3579   20.8355 C   0  0  0  0  0  0  0  0  0  0  0  0
   13.0712  -19.6391   19.5844 N   0  0  0  0  0  0  0  0  0  0  0  0
   13.2250  -18.4526   18.9597 C   0  0  0  0  0  0  0  0  0  0  0  0
   12.9527  -17.4592   19.8280 N   0  0  0  0  0  0  0  0  0  0  0  0
   10.3167  -16.9646   23.8234 C   0  0  0  0  0  0  0  0  0  0  0  0
   10.6310  -15.8176   24.2999 O   0  0  0  0  0  0  0  0  0  0  0  0
    6.9747  -16.7475   25.7306 C   0  0  0  0  0  0  0  0  0  0  0  0
    7.8997  -17.6460   26.4849 C   0  0  1  0  0  0  0  0  0  0  0  0
    7.5164  -18.9643   26.2213 O   0  0  0  0  0  0  0  0  0  0  0  0
    9.3522  -17.4631   26.0970 C   0  0  2  0  0  0  0  0  0  0  0  0
    9.5853  -17.7839   24.7123 N   0  0  0  0  0  0  0  0  0  0  0  0
   10.2773  -18.0887   27.0436 C   0  0  0  0  0  0  0  0  0  0  0  0
   11.1984  -18.8783   26.7091 O   0  0  0  0  0  0  0  0  0  0  0  0
   10.1881  -17.8387   28.4063 O   0  0  0  0  0  0  0  0  0  0  0  0
  2  1  1  0
  3  2  2  0
  4  3  1  0
  5 11  1  0
  5  4  2  0
  6  5  1  0
  7  9  1  0
  7  6  1  0
  7  8  1  6
  9 10  2  0
 11 12  2  0
 12  2  1  0
 13 14  1  0
 13  9  1  0
 14 15  1  1
 15 16  1  0
 16 17  2  0
 17 18  1  0
 19 18  1  0
 20 16  1  0
 20 19  2  0
 21 14  1  0
 22 21  2  0
 24 23  1  6
 24 26  1  0
 25 24  1  0
 26 28  1  0
 26 27  1  6
 27 21  1  0
 28 30  1  0
 29 28  2  0
M  END
$$$$
