YHT.pdb
     RDKit          3D

 30 31  0  0  1  0  0  0  0  0999 V2000
    7.0619  -12.9171   15.2336 O   0  0  0  0  0  0  0  0  0  0  0  0
    7.1473  -13.5363   16.4585 C   0  0  0  0  0  0  0  0  0  0  0  0
    7.5623  -12.8057   17.5470 C   0  0  0  0  0  0  0  0  0  0  0  0
    7.6518  -13.4026   18.7638 C   0  0  0  0  0  0  0  0  0  0  0  0
    7.3296  -14.7328   18.9113 C   0  0  0  0  0  0  0  0  0  0  0  0
    7.4206  -15.4157   20.2279 C   0  0  0  0  0  0  0  0  0  0  0  0
    8.7338  -15.1333   20.9153 C   0  0  2  0  0  0  0  0  0  0  0  0
    9.7548  -15.3057   19.8658 N   0  0  0  0  0  0  0  0  0  0  0  0
    9.0374  -16.0286   22.0306 C   0  0  0  0  0  0  0  0  0  0  0  0
    8.1040  -16.3593   22.8060 O   0  0  0  0  0  0  0  0  0  0  0  0
    6.9150  -15.4707   17.8341 C   0  0  0  0  0  0  0  0  0  0  0  0
    6.8204  -14.8763   16.5958 C   0  0  0  0  0  0  0  0  0  0  0  0
   10.3121  -16.5711   22.3222 N   0  0  0  0  0  0  0  0  0  0  0  0
   10.5802  -17.4811   23.4186 C   0  0  1  0  0  0  0  0  0  0  0  0
   11.8046  -18.3228   23.1333 C   0  0  0  0  0  0  0  0  0  0  0  0
   11.5810  -19.2523   22.0002 C   0  0  0  0  0  0  0  0  0  0  0  0
   11.7755  -18.9740   20.6488 C   0  0  0  0  0  0  0  0  0  0  0  0
   11.4776  -20.0394   19.9039 N   0  0  0  0  0  0  0  0  0  0  0  0
   11.0916  -21.0058   20.7634 C   0  0  0  0  0  0  0  0  0  0  0  0
   11.1556  -20.5276   22.0213 N   0  0  0  0  0  0  0  0  0  0  0  0
   10.6231  -16.7540   24.6680 C   0  0  0  0  0  0  0  0  0  0  0  0
   11.7464  -16.2343   24.9991 O   0  0  0  0  0  0  0  0  0  0  0  0
    8.6140  -13.7269   25.9256 C   0  0  0  0  0  0  0  0  0  0  0  0
    8.6400  -14.7594   27.0050 C   0  0  1  0  0  0  0  0  0  0  0  0
    7.4011  -15.4071   26.9999 O   0  0  0  0  0  0  0  0  0  0  0  0
    9.7386  -15.7851   26.8190 C   0  0  2  0  0  0  0  0  0  0  0  0
    9.5812  -16.5282   25.5952 N   0  0  0  0  0  0  0  0  0  0  0  0
    9.9661  -16.5987   28.0146 C   0  0  0  0  0  0  0  0  0  0  0  0
    9.8998  -17.8553   28.0331 O   0  0  0  0  0  0  0  0  0  0  0  0
   10.2774  -16.0119   29.2337 O   0  0  0  0  0  0  0  0  0  0  0  0
  2  1  1  0
  3  2  2  0
  4  3  1  0
  5 11  1  0
  5  4  2  0
  6  5  1  0
  7  9  1  0
  7  6  1  0
  7  8  1  6
  9 10  2  0
 11 12  2  0
 12  2  1  0
 13 14  1  0
 13  9  1  0
 14 15  1  6
 15 16  1  0
 16 17  2  0
 17 18  1  0
 19 18  1  0
 20 16  1  0
 20 19  2  0
 21 14  1  0
 22 21  2  0
 24 23  1  6
 24 26  1  0
 25 24  1  0
 26 28  1  0
 26 27  1  6
 27 21  1  0
 28 30  1  0
 29 28  2  0
M  END
$$$$
