MSV.pdb
     RDKit          3D

 22 21  0  0  1  0  0  0  0  0999 V2000
    7.4867  -11.2603   25.7190 C   0  0  0  0  0  0  0  0  0  0  0  0
    5.9701  -12.1939   25.4000 S   0  0  0  0  0  0  0  0  0  0  0  0
    6.2583  -13.5813   24.2828 C   0  0  0  0  0  0  0  0  0  0  0  0
    7.2543  -13.2136   23.1930 C   0  0  0  0  0  0  0  0  0  0  0  0
    7.5789  -14.4136   22.3317 C   0  0  2  0  0  0  0  0  0  0  0  0
    6.3303  -14.8742   21.7533 N   0  0  0  0  0  0  0  0  0  0  0  0
    8.1841  -15.4733   23.2026 C   0  0  0  0  0  0  0  0  0  0  0  0
    7.4996  -16.0447   24.0878 O   0  0  0  0  0  0  0  0  0  0  0  0
   11.6691  -18.6386   24.0089 O   0  0  0  0  0  0  0  0  0  0  0  0
   11.1823  -17.6210   23.1933 C   0  0  0  0  0  0  0  0  0  0  0  0
   10.1561  -16.8119   23.9949 C   0  0  2  0  0  0  0  0  0  0  0  0
    9.5345  -15.8740   23.0714 N   0  0  0  0  0  0  0  0  0  0  0  0
   10.7859  -16.1280   25.1349 C   0  0  0  0  0  0  0  0  0  0  0  0
   11.5654  -15.1766   24.9282 O   0  0  0  0  0  0  0  0  0  0  0  0
    9.1806  -15.3283   28.8713 C   0  0  0  0  0  0  0  0  0  0  0  0
   10.5790  -15.0626   28.4203 C   0  0  2  0  0  0  0  0  0  0  0  0
   10.6281  -13.8093   27.5489 C   0  0  0  0  0  0  0  0  0  0  0  0
   11.2131  -16.1664   27.6318 C   0  0  2  0  0  0  0  0  0  0  0  0
   10.4957  -16.5624   26.4497 N   0  0  0  0  0  0  0  0  0  0  0  0
   11.5592  -17.3620   28.4629 C   0  0  0  0  0  0  0  0  0  0  0  0
   11.0542  -18.4676   28.1933 O   0  0  0  0  0  0  0  0  0  0  0  0
   12.4320  -17.2668   29.5299 O   0  0  0  0  0  0  0  0  0  0  0  0
  2  1  1  0
  3  2  1  0
  4  5  1  0
  4  3  1  0
  5  6  1  1
  7  5  1  0
  8  7  2  0
 11 10  1  6
 10  9  1  0
 11 13  1  0
 11 12  1  0
 12  7  1  0
 13 19  1  0
 14 13  2  0
 16 15  1  6
 16 17  1  0
 18 20  1  0
 18 16  1  0
 18 19  1  6
 20 22  1  0
 21 20  2  0
M  END
$$$$
