MSV.pdb
     RDKit          3D

 22 21  0  0  1  0  0  0  0  0999 V2000
    7.9547  -12.1374   19.8703 C   0  0  0  0  0  0  0  0  0  0  0  0
    8.1376  -12.9774   18.2783 S   0  0  0  0  0  0  0  0  0  0  0  0
    7.5274  -14.6744   18.3407 C   0  0  0  0  0  0  0  0  0  0  0  0
    6.9582  -15.0054   19.7123 C   0  0  0  0  0  0  0  0  0  0  0  0
    8.0505  -15.4605   20.6540 C   0  0  2  0  0  0  0  0  0  0  0  0
    8.4560  -16.7871   20.2281 N   0  0  0  0  0  0  0  0  0  0  0  0
    7.4935  -15.4962   22.0455 C   0  0  0  0  0  0  0  0  0  0  0  0
    7.0636  -14.4495   22.5916 O   0  0  0  0  0  0  0  0  0  0  0  0
    8.0735  -18.7852   24.6172 O   0  0  0  0  0  0  0  0  0  0  0  0
    6.8242  -18.1718   24.5955 C   0  0  0  0  0  0  0  0  0  0  0  0
    7.0160  -16.7044   24.1950 C   0  0  2  0  0  0  0  0  0  0  0  0
    7.4267  -16.6919   22.7985 N   0  0  0  0  0  0  0  0  0  0  0  0
    7.9964  -16.0359   25.0643 C   0  0  0  0  0  0  0  0  0  0  0  0
    9.2038  -16.0453   24.7519 O   0  0  0  0  0  0  0  0  0  0  0  0
    6.9744  -12.4752   26.6139 C   0  0  0  0  0  0  0  0  0  0  0  0
    7.6456  -13.3403   27.6290 C   0  0  2  0  0  0  0  0  0  0  0  0
    8.6790  -12.5355   28.4145 C   0  0  0  0  0  0  0  0  0  0  0  0
    8.3550  -14.5370   27.0751 C   0  0  2  0  0  0  0  0  0  0  0  0
    7.5517  -15.3921   26.2430 N   0  0  0  0  0  0  0  0  0  0  0  0
    9.0668  -15.3374   28.1203 C   0  0  0  0  0  0  0  0  0  0  0  0
    8.6102  -16.4421   28.4684 O   0  0  0  0  0  0  0  0  0  0  0  0
   10.2269  -14.8757   28.7123 O   0  0  0  0  0  0  0  0  0  0  0  0
  2  1  1  0
  3  2  1  0
  4  5  1  0
  4  3  1  0
  5  6  1  6
  7  5  1  0
  8  7  2  0
 11 10  1  1
 10  9  1  0
 11 13  1  0
 11 12  1  0
 12  7  1  0
 13 19  1  0
 14 13  2  0
 16 15  1  6
 16 17  1  0
 18 20  1  0
 18 16  1  0
 18 19  1  1
 20 22  1  0
 21 20  2  0
M  END
$$$$
