MSV.pdb
     RDKit          3D

 22 21  0  0  1  0  0  0  0  0999 V2000
    8.5290  -11.7089   20.4963 C   0  0  0  0  0  0  0  0  0  0  0  0
    8.0575  -12.5429   18.9615 S   0  0  0  0  0  0  0  0  0  0  0  0
    7.9500  -14.3314   19.1751 C   0  0  0  0  0  0  0  0  0  0  0  0
    9.0284  -14.8394   20.1204 C   0  0  0  0  0  0  0  0  0  0  0  0
    8.9190  -16.3360   20.3091 C   0  0  2  0  0  0  0  0  0  0  0  0
    7.7683  -16.7796   19.5445 N   0  0  0  0  0  0  0  0  0  0  0  0
    8.7278  -16.6177   21.7691 C   0  0  0  0  0  0  0  0  0  0  0  0
    7.6211  -16.4042   22.3243 O   0  0  0  0  0  0  0  0  0  0  0  0
   11.6371  -18.5993   24.0165 O   0  0  0  0  0  0  0  0  0  0  0  0
   10.2781  -18.7611   24.2702 C   0  0  0  0  0  0  0  0  0  0  0  0
    9.5749  -17.4278   23.9905 C   0  0  2  0  0  0  0  0  0  0  0  0
    9.7688  -17.1292   22.5791 N   0  0  0  0  0  0  0  0  0  0  0  0
   10.0922  -16.3575   24.8569 C   0  0  0  0  0  0  0  0  0  0  0  0
   11.0516  -15.6612   24.4693 O   0  0  0  0  0  0  0  0  0  0  0  0
    7.8363  -13.6802   26.6101 C   0  0  0  0  0  0  0  0  0  0  0  0
    8.7355  -14.3148   27.6191 C   0  0  2  0  0  0  0  0  0  0  0  0
    9.3481  -13.2522   28.5291 C   0  0  0  0  0  0  0  0  0  0  0  0
    9.8709  -15.1075   27.0494 C   0  0  2  0  0  0  0  0  0  0  0  0
    9.4910  -16.1359   26.1183 N   0  0  0  0  0  0  0  0  0  0  0  0
   10.7900  -15.6573   28.0948 C   0  0  0  0  0  0  0  0  0  0  0  0
   10.7614  -16.8726   28.3637 O   0  0  0  0  0  0  0  0  0  0  0  0
   11.6756  -14.8420   28.7733 O   0  0  0  0  0  0  0  0  0  0  0  0
  2  1  1  0
  3  2  1  0
  4  5  1  0
  4  3  1  0
  5  6  1  6
  7  5  1  0
  8  7  2  0
 11 10  1  1
 10  9  1  0
 11 13  1  0
 11 12  1  0
 12  7  1  0
 13 19  1  0
 14 13  2  0
 16 15  1  6
 16 17  1  0
 18 20  1  0
 18 16  1  0
 18 19  1  1
 20 22  1  0
 21 20  2  0
M  END
$$$$
