MSV.pdb
     RDKit          3D

 22 21  0  0  1  0  0  0  0  0999 V2000
    7.1849  -11.9343   26.6763 C   0  0  0  0  0  0  0  0  0  0  0  0
    5.4981  -12.4302   26.2492 S   0  0  0  0  0  0  0  0  0  0  0  0
    5.4384  -14.1092   25.5909 C   0  0  0  0  0  0  0  0  0  0  0  0
    6.8328  -14.7076   25.4798 C   0  0  0  0  0  0  0  0  0  0  0  0
    6.8221  -15.9419   24.6061 C   0  0  2  0  0  0  0  0  0  0  0  0
    5.8113  -16.8350   25.1413 N   0  0  0  0  0  0  0  0  0  0  0  0
    8.1785  -16.5778   24.6658 C   0  0  0  0  0  0  0  0  0  0  0  0
    8.3976  -17.5520   25.4284 O   0  0  0  0  0  0  0  0  0  0  0  0
   11.6401  -14.9199   22.9467 O   0  0  0  0  0  0  0  0  0  0  0  0
   11.3202  -16.2404   22.6444 C   0  0  0  0  0  0  0  0  0  0  0  0
   10.5309  -16.8253   23.8214 C   0  0  2  0  0  0  0  0  0  0  0  0
    9.2602  -16.1177   23.8787 N   0  0  0  0  0  0  0  0  0  0  0  0
   11.2832  -16.7108   25.0802 C   0  0  0  0  0  0  0  0  0  0  0  0
   12.4494  -17.1487   25.1428 O   0  0  0  0  0  0  0  0  0  0  0  0
    9.4228  -14.7741   28.7442 C   0  0  0  0  0  0  0  0  0  0  0  0
   10.8321  -14.7251   28.2534 C   0  0  2  0  0  0  0  0  0  0  0  0
   11.0349  -13.5204   27.3368 C   0  0  0  0  0  0  0  0  0  0  0  0
   11.2822  -15.9328   27.4913 C   0  0  2  0  0  0  0  0  0  0  0  0
   10.6694  -16.1043   26.2014 N   0  0  0  0  0  0  0  0  0  0  0  0
   11.1976  -17.1979   28.2865 C   0  0  0  0  0  0  0  0  0  0  0  0
   10.5174  -18.1497   27.8607 O   0  0  0  0  0  0  0  0  0  0  0  0
   11.8613  -17.3351   29.4907 O   0  0  0  0  0  0  0  0  0  0  0  0
  2  1  1  0
  3  2  1  0
  4  5  1  0
  4  3  1  0
  5  6  1  1
  7  5  1  0
  8  7  2  0
 11 10  1  6
 10  9  1  0
 11 13  1  0
 11 12  1  0
 12  7  1  0
 13 19  1  0
 14 13  2  0
 16 15  1  6
 16 17  1  0
 18 20  1  0
 18 16  1  0
 18 19  1  6
 20 22  1  0
 21 20  2  0
M  END
$$$$
