MSV.pdb
     RDKit          3D

 22 21  0  0  1  0  0  0  0  0999 V2000
    8.1046  -11.6548   19.7819 C   0  0  0  0  0  0  0  0  0  0  0  0
    8.6379  -12.7532   18.4468 S   0  0  0  0  0  0  0  0  0  0  0  0
    7.6511  -14.2627   18.3848 C   0  0  0  0  0  0  0  0  0  0  0  0
    7.1672  -14.6621   19.7708 C   0  0  0  0  0  0  0  0  0  0  0  0
    7.7263  -16.0094   20.1699 C   0  0  2  0  0  0  0  0  0  0  0  0
    7.0683  -17.0058   19.3453 N   0  0  0  0  0  0  0  0  0  0  0  0
    7.4255  -16.2374   21.6208 C   0  0  0  0  0  0  0  0  0  0  0  0
    6.2391  -16.3335   22.0229 O   0  0  0  0  0  0  0  0  0  0  0  0
   10.1477  -17.6784   24.2778 O   0  0  0  0  0  0  0  0  0  0  0  0
    8.7828  -17.7093   24.5489 C   0  0  0  0  0  0  0  0  0  0  0  0
    8.1576  -16.4145   24.0169 C   0  0  2  0  0  0  0  0  0  0  0  0
    8.4479  -16.3530   22.5918 N   0  0  0  0  0  0  0  0  0  0  0  0
    8.6701  -15.2377   24.7355 C   0  0  0  0  0  0  0  0  0  0  0  0
    9.6635  -14.6288   24.2904 O   0  0  0  0  0  0  0  0  0  0  0  0
    6.2306  -13.1993   27.8047 C   0  0  0  0  0  0  0  0  0  0  0  0
    7.4319  -12.7020   27.0706 C   0  0  2  0  0  0  0  0  0  0  0  0
    7.0217  -12.0833   25.7358 C   0  0  0  0  0  0  0  0  0  0  0  0
    8.4677  -13.7405   26.7691 C   0  0  2  0  0  0  0  0  0  0  0  0
    8.0258  -14.8158   25.9222 N   0  0  0  0  0  0  0  0  0  0  0  0
    9.1393  -14.2773   27.9942 C   0  0  0  0  0  0  0  0  0  0  0  0
    9.0462  -15.4882   28.2681 O   0  0  0  0  0  0  0  0  0  0  0  0
    9.8652  -13.4546   28.8342 O   0  0  0  0  0  0  0  0  0  0  0  0
  2  1  1  0
  3  2  1  0
  4  5  1  0
  4  3  1  0
  5  6  1  6
  7  5  1  0
  8  7  2  0
 11 10  1  1
 10  9  1  0
 11 13  1  0
 11 12  1  0
 12  7  1  0
 13 19  1  0
 14 13  2  0
 16 15  1  6
 16 17  1  0
 18 20  1  0
 18 16  1  0
 18 19  1  1
 20 22  1  0
 21 20  2  0
M  END
$$$$
