MSV.pdb
     RDKit          3D

 22 21  0  0  1  0  0  0  0  0999 V2000
    8.5118  -11.3523   20.3102 C   0  0  0  0  0  0  0  0  0  0  0  0
    7.8507  -12.2737   18.9005 S   0  0  0  0  0  0  0  0  0  0  0  0
    8.2503  -14.0305   18.9998 C   0  0  0  0  0  0  0  0  0  0  0  0
    8.0838  -14.5543   20.4186 C   0  0  0  0  0  0  0  0  0  0  0  0
    8.3979  -16.0320   20.4884 C   0  0  2  0  0  0  0  0  0  0  0  0
    7.3709  -16.7229   19.7310 N   0  0  0  0  0  0  0  0  0  0  0  0
    8.3733  -16.4552   21.9264 C   0  0  0  0  0  0  0  0  0  0  0  0
    7.3148  -16.3807   22.5992 O   0  0  0  0  0  0  0  0  0  0  0  0
   11.5368  -18.4954   23.6423 O   0  0  0  0  0  0  0  0  0  0  0  0
   10.2402  -18.6537   24.1233 C   0  0  0  0  0  0  0  0  0  0  0  0
    9.5126  -17.3104   23.9949 C   0  0  2  0  0  0  0  0  0  0  0  0
    9.5234  -16.9507   22.5844 N   0  0  0  0  0  0  0  0  0  0  0  0
   10.1427  -16.2781   24.8322 C   0  0  0  0  0  0  0  0  0  0  0  0
   11.1151  -15.6348   24.3894 O   0  0  0  0  0  0  0  0  0  0  0  0
    9.8813  -12.9733   28.3931 C   0  0  0  0  0  0  0  0  0  0  0  0
    9.3782  -13.8681   27.3088 C   0  0  2  0  0  0  0  0  0  0  0  0
    7.9525  -14.3234   27.6132 C   0  0  0  0  0  0  0  0  0  0  0  0
   10.1902  -15.1046   27.0771 C   0  0  2  0  0  0  0  0  0  0  0  0
    9.6334  -16.0320   26.1291 N   0  0  0  0  0  0  0  0  0  0  0  0
   10.5677  -15.8087   28.3427 C   0  0  0  0  0  0  0  0  0  0  0  0
   10.0860  -16.9292   28.5923 O   0  0  0  0  0  0  0  0  0  0  0  0
   11.4442  -15.2401   29.2470 O   0  0  0  0  0  0  0  0  0  0  0  0
  2  1  1  0
  3  2  1  0
  4  5  1  0
  4  3  1  0
  5  6  1  6
  7  5  1  0
  8  7  2  0
 11 10  1  6
 10  9  1  0
 11 13  1  0
 11 12  1  0
 12  7  1  0
 13 19  1  0
 14 13  2  0
 16 15  1  1
 16 17  1  0
 18 20  1  0
 18 16  1  0
 18 19  1  6
 20 22  1  0
 21 20  2  0
M  END
$$$$
