MSV.pdb
     RDKit          3D

 22 21  0  0  1  0  0  0  0  0999 V2000
    7.7516  -12.0865   19.4246 C   0  0  0  0  0  0  0  0  0  0  0  0
    8.2553  -13.2012   18.0914 S   0  0  0  0  0  0  0  0  0  0  0  0
    8.2299  -14.9280   18.6145 C   0  0  0  0  0  0  0  0  0  0  0  0
    7.5725  -15.0812   19.9780 C   0  0  0  0  0  0  0  0  0  0  0  0
    7.5367  -16.5331   20.3995 C   0  0  2  0  0  0  0  0  0  0  0  0
    6.7210  -17.2393   19.4291 N   0  0  0  0  0  0  0  0  0  0  0  0
    6.9271  -16.6158   21.7667 C   0  0  0  0  0  0  0  0  0  0  0  0
    5.6865  -16.4949   21.9246 O   0  0  0  0  0  0  0  0  0  0  0  0
    8.5105  -18.3062   25.1455 O   0  0  0  0  0  0  0  0  0  0  0  0
    7.1996  -17.8494   25.0444 C   0  0  0  0  0  0  0  0  0  0  0  0
    7.2088  -16.5316   24.2611 C   0  0  2  0  0  0  0  0  0  0  0  0
    7.7080  -16.8301   22.9267 N   0  0  0  0  0  0  0  0  0  0  0  0
    8.0232  -15.5114   24.9392 C   0  0  0  0  0  0  0  0  0  0  0  0
    9.2371  -15.4137   24.6702 O   0  0  0  0  0  0  0  0  0  0  0  0
    6.0695  -12.6273   27.7656 C   0  0  0  0  0  0  0  0  0  0  0  0
    7.2797  -12.4075   26.9192 C   0  0  2  0  0  0  0  0  0  0  0  0
    6.8836  -11.8191   25.5666 C   0  0  0  0  0  0  0  0  0  0  0  0
    8.0912  -13.6344   26.6395 C   0  0  2  0  0  0  0  0  0  0  0  0
    7.4137  -14.6563   25.8874 N   0  0  0  0  0  0  0  0  0  0  0  0
    8.7244  -14.2153   27.8649 C   0  0  0  0  0  0  0  0  0  0  0  0
    8.4367  -15.3742   28.2175 O   0  0  0  0  0  0  0  0  0  0  0  0
    9.6269  -13.4904   28.6195 O   0  0  0  0  0  0  0  0  0  0  0  0
  2  1  1  0
  3  2  1  0
  4  5  1  0
  4  3  1  0
  5  6  1  6
  7  5  1  0
  8  7  2  0
 11 10  1  1
 10  9  1  0
 11 13  1  0
 11 12  1  0
 12  7  1  0
 13 19  1  0
 14 13  2  0
 16 15  1  1
 16 17  1  0
 18 20  1  0
 18 16  1  0
 18 19  1  1
 20 22  1  0
 21 20  2  0
M  END
$$$$
