MSV.pdb
     RDKit          3D

 22 21  0  0  1  0  0  0  0  0999 V2000
    7.5091  -10.9091   25.0032 C   0  0  0  0  0  0  0  0  0  0  0  0
    6.2624  -12.1627   25.3875 S   0  0  0  0  0  0  0  0  0  0  0  0
    6.8845  -13.8343   25.1137 C   0  0  0  0  0  0  0  0  0  0  0  0
    6.0867  -14.5492   24.0334 C   0  0  0  0  0  0  0  0  0  0  0  0
    6.9877  -14.9953   22.9036 C   0  0  2  0  0  0  0  0  0  0  0  0
    6.1427  -15.6296   21.9089 N   0  0  0  0  0  0  0  0  0  0  0  0
    7.9880  -15.9691   23.4503 C   0  0  0  0  0  0  0  0  0  0  0  0
    7.6236  -16.9140   24.1938 O   0  0  0  0  0  0  0  0  0  0  0  0
   12.1210  -15.8395   22.4916 O   0  0  0  0  0  0  0  0  0  0  0  0
   11.4482  -17.0212   22.7886 C   0  0  0  0  0  0  0  0  0  0  0  0
   10.3596  -16.7079   23.8216 C   0  0  2  0  0  0  0  0  0  0  0  0
    9.3690  -15.8716   23.1596 N   0  0  0  0  0  0  0  0  0  0  0  0
   10.9240  -16.0560   25.0134 C   0  0  0  0  0  0  0  0  0  0  0  0
   11.3935  -14.9042   24.9211 O   0  0  0  0  0  0  0  0  0  0  0  0
   11.1779  -14.3390   29.1952 C   0  0  0  0  0  0  0  0  0  0  0  0
   10.7290  -14.9016   27.8870 C   0  0  2  0  0  0  0  0  0  0  0  0
    9.2184  -15.1269   27.8947 C   0  0  0  0  0  0  0  0  0  0  0  0
   11.3616  -16.2037   27.5044 C   0  0  2  0  0  0  0  0  0  0  0  0
   10.9248  -16.7487   26.2470 N   0  0  0  0  0  0  0  0  0  0  0  0
   11.2813  -17.2384   28.5829 C   0  0  0  0  0  0  0  0  0  0  0  0
   11.7523  -16.9933   29.7089 O   0  0  0  0  0  0  0  0  0  0  0  0
   10.6927  -18.4679   28.3563 O   0  0  0  0  0  0  0  0  0  0  0  0
  2  1  1  0
  3  2  1  0
  4  5  1  0
  4  3  1  0
  5  6  1  6
  7  5  1  0
  8  7  2  0
 11 10  1  6
 10  9  1  0
 11 13  1  0
 11 12  1  0
 12  7  1  0
 13 19  1  0
 14 13  2  0
 16 15  1  1
 16 17  1  0
 18 20  1  0
 18 16  1  0
 18 19  1  6
 20 22  1  0
 21 20  2  0
M  END
$$$$
