MSV.pdb
     RDKit          3D

 22 21  0  0  1  0  0  0  0  0999 V2000
    8.5361  -11.3948   20.9882 C   0  0  0  0  0  0  0  0  0  0  0  0
    8.5734  -12.9812   20.1191 S   0  0  0  0  0  0  0  0  0  0  0  0
    7.0310  -13.8952   20.3240 C   0  0  0  0  0  0  0  0  0  0  0  0
    7.0839  -15.2340   19.6032 C   0  0  0  0  0  0  0  0  0  0  0  0
    8.2842  -16.0393   20.0483 C   0  0  2  0  0  0  0  0  0  0  0  0
    8.2824  -17.2692   19.2782 N   0  0  0  0  0  0  0  0  0  0  0  0
    8.1452  -16.3288   21.5127 C   0  0  0  0  0  0  0  0  0  0  0  0
    7.0197  -16.5742   22.0143 O   0  0  0  0  0  0  0  0  0  0  0  0
   11.0399  -18.1145   23.6333 O   0  0  0  0  0  0  0  0  0  0  0  0
    9.6798  -18.1348   23.9286 C   0  0  0  0  0  0  0  0  0  0  0  0
    9.1363  -16.7080   23.7891 C   0  0  2  0  0  0  0  0  0  0  0  0
    9.2579  -16.3388   22.3863 N   0  0  0  0  0  0  0  0  0  0  0  0
    9.8538  -15.7734   24.6696 C   0  0  0  0  0  0  0  0  0  0  0  0
   10.9488  -15.3007   24.3045 O   0  0  0  0  0  0  0  0  0  0  0  0
    7.7778  -13.7578   28.0081 C   0  0  0  0  0  0  0  0  0  0  0  0
    9.0537  -13.3967   27.3217 C   0  0  2  0  0  0  0  0  0  0  0  0
    8.7691  -12.5679   26.0708 C   0  0  0  0  0  0  0  0  0  0  0  0
    9.8954  -14.5583   26.8923 C   0  0  2  0  0  0  0  0  0  0  0  0
    9.2880  -15.4256   25.9189 N   0  0  0  0  0  0  0  0  0  0  0  0
   10.4355  -15.3522   28.0404 C   0  0  0  0  0  0  0  0  0  0  0  0
   10.1357  -16.5552   28.1535 O   0  0  0  0  0  0  0  0  0  0  0  0
   11.2648  -14.7771   28.9843 O   0  0  0  0  0  0  0  0  0  0  0  0
  2  1  1  0
  3  2  1  0
  4  5  1  0
  4  3  1  0
  5  6  1  6
  7  5  1  0
  8  7  2  0
 11 10  1  6
 10  9  1  0
 11 13  1  0
 11 12  1  0
 12  7  1  0
 13 19  1  0
 14 13  2  0
 16 15  1  6
 16 17  1  0
 18 20  1  0
 18 16  1  0
 18 19  1  6
 20 22  1  0
 21 20  2  0
M  END
$$$$
