MSV.pdb
     RDKit          3D

 22 21  0  0  1  0  0  0  0  0999 V2000
    7.0715  -11.2754   25.7473 C   0  0  0  0  0  0  0  0  0  0  0  0
    5.7289  -12.3180   25.1278 S   0  0  0  0  0  0  0  0  0  0  0  0
    6.3523  -13.7299   24.1929 C   0  0  0  0  0  0  0  0  0  0  0  0
    7.1879  -13.2784   23.0043 C   0  0  0  0  0  0  0  0  0  0  0  0
    7.6901  -14.4669   22.2154 C   0  0  2  0  0  0  0  0  0  0  0  0
    6.5477  -15.0329   21.5224 N   0  0  0  0  0  0  0  0  0  0  0  0
    8.2758  -15.4599   23.1740 C   0  0  0  0  0  0  0  0  0  0  0  0
    7.5593  -16.0057   24.0499 O   0  0  0  0  0  0  0  0  0  0  0  0
   12.3124  -16.6798   22.9688 O   0  0  0  0  0  0  0  0  0  0  0  0
   11.2866  -17.5740   23.2613 C   0  0  0  0  0  0  0  0  0  0  0  0
   10.2005  -16.8219   24.0391 C   0  0  2  0  0  0  0  0  0  0  0  0
    9.6424  -15.8236   23.1386 N   0  0  0  0  0  0  0  0  0  0  0  0
   10.7421  -16.2168   25.2656 C   0  0  0  0  0  0  0  0  0  0  0  0
   11.4469  -15.1908   25.1869 O   0  0  0  0  0  0  0  0  0  0  0  0
   10.1552  -13.9986   27.6657 C   0  0  0  0  0  0  0  0  0  0  0  0
   10.2271  -15.2705   28.4445 C   0  0  2  0  0  0  0  0  0  0  0  0
   10.8887  -15.0281   29.7996 C   0  0  0  0  0  0  0  0  0  0  0  0
   10.9843  -16.3795   27.7823 C   0  0  2  0  0  0  0  0  0  0  0  0
   10.4535  -16.8107   26.5169 N   0  0  0  0  0  0  0  0  0  0  0  0
   11.2199  -17.5525   28.6815 C   0  0  0  0  0  0  0  0  0  0  0  0
   10.4953  -18.5601   28.5835 O   0  0  0  0  0  0  0  0  0  0  0  0
   12.2298  -17.5432   29.6246 O   0  0  0  0  0  0  0  0  0  0  0  0
  2  1  1  0
  3  2  1  0
  4  5  1  0
  4  3  1  0
  5  6  1  1
  7  5  1  0
  8  7  2  0
 11 10  1  6
 10  9  1  0
 11 13  1  0
 11 12  1  0
 12  7  1  0
 13 19  1  0
 14 13  2  0
 16 15  1  6
 16 17  1  0
 18 20  1  0
 18 16  1  0
 18 19  1  6
 20 22  1  0
 21 20  2  0
M  END
$$$$
