MSV.pdb
     RDKit          3D

 22 21  0  0  1  0  0  0  0  0999 V2000
    6.1510  -11.6972   27.0837 C   0  0  0  0  0  0  0  0  0  0  0  0
    6.1668  -11.3079   25.3169 S   0  0  0  0  0  0  0  0  0  0  0  0
    6.0555  -12.7949   24.3008 C   0  0  0  0  0  0  0  0  0  0  0  0
    6.9926  -13.8807   24.8083 C   0  0  0  0  0  0  0  0  0  0  0  0
    6.9540  -15.0925   23.9043 C   0  0  2  0  0  0  0  0  0  0  0  0
    5.6354  -15.6832   24.0384 N   0  0  0  0  0  0  0  0  0  0  0  0
    8.0147  -16.0528   24.3519 C   0  0  0  0  0  0  0  0  0  0  0  0
    7.8794  -16.7085   25.4151 O   0  0  0  0  0  0  0  0  0  0  0  0
   11.7550  -15.9839   22.5880 O   0  0  0  0  0  0  0  0  0  0  0  0
   11.3039  -17.2419   22.9770 C   0  0  0  0  0  0  0  0  0  0  0  0
   10.3042  -17.0603   24.1251 C   0  0  2  0  0  0  0  0  0  0  0  0
    9.2007  -16.2629   23.6099 N   0  0  0  0  0  0  0  0  0  0  0  0
   10.9396  -16.4327   25.2940 C   0  0  0  0  0  0  0  0  0  0  0  0
   11.6517  -15.4206   25.1385 O   0  0  0  0  0  0  0  0  0  0  0  0
   10.0704  -14.1635   27.5244 C   0  0  0  0  0  0  0  0  0  0  0  0
   10.2807  -15.3614   28.3905 C   0  0  2  0  0  0  0  0  0  0  0  0
   10.8803  -14.9488   29.7332 C   0  0  0  0  0  0  0  0  0  0  0  0
   11.1806  -16.4112   27.8159 C   0  0  2  0  0  0  0  0  0  0  0  0
   10.7314  -16.9895   26.5779 N   0  0  0  0  0  0  0  0  0  0  0  0
   11.5399  -17.4824   28.7974 C   0  0  0  0  0  0  0  0  0  0  0  0
   10.7922  -18.4682   28.9357 O   0  0  0  0  0  0  0  0  0  0  0  0
   12.6899  -17.4021   29.5593 O   0  0  0  0  0  0  0  0  0  0  0  0
  2  1  1  0
  3  2  1  0
  4  5  1  0
  4  3  1  0
  5  6  1  1
  7  5  1  0
  8  7  2  0
 11 10  1  6
 10  9  1  0
 11 13  1  0
 11 12  1  0
 12  7  1  0
 13 19  1  0
 14 13  2  0
 16 15  1  6
 16 17  1  0
 18 20  1  0
 18 16  1  0
 18 19  1  6
 20 22  1  0
 21 20  2  0
M  END
$$$$
