MSV.pdb
     RDKit          3D

 22 21  0  0  1  0  0  0  0  0999 V2000
    6.7984  -11.7282   27.5290 C   0  0  0  0  0  0  0  0  0  0  0  0
    5.9075  -11.3667   25.9964 S   0  0  0  0  0  0  0  0  0  0  0  0
    5.7340  -12.8329   24.9590 C   0  0  0  0  0  0  0  0  0  0  0  0
    6.8332  -13.8447   25.2465 C   0  0  0  0  0  0  0  0  0  0  0  0
    6.6755  -15.0736   24.3792 C   0  0  2  0  0  0  0  0  0  0  0  0
    5.4247  -15.7049   24.7569 N   0  0  0  0  0  0  0  0  0  0  0  0
    7.8332  -15.9900   24.6392 C   0  0  0  0  0  0  0  0  0  0  0  0
    7.8697  -16.6997   25.6754 O   0  0  0  0  0  0  0  0  0  0  0  0
   11.3677  -15.7970   22.3881 O   0  0  0  0  0  0  0  0  0  0  0  0
   10.8846  -17.0554   22.7351 C   0  0  0  0  0  0  0  0  0  0  0  0
   10.0866  -16.9217   24.0373 C   0  0  2  0  0  0  0  0  0  0  0  0
    8.9233  -16.0974   23.7439 N   0  0  0  0  0  0  0  0  0  0  0  0
   10.9104  -16.3500   25.1137 C   0  0  0  0  0  0  0  0  0  0  0  0
   11.6841  -15.4049   24.8613 O   0  0  0  0  0  0  0  0  0  0  0  0
    9.6422  -15.6152   29.0027 C   0  0  0  0  0  0  0  0  0  0  0  0
   10.9248  -15.2877   28.3122 C   0  0  2  0  0  0  0  0  0  0  0  0
   10.7150  -14.1558   27.3085 C   0  0  0  0  0  0  0  0  0  0  0  0
   11.5517  -16.4229   27.5636 C   0  0  2  0  0  0  0  0  0  0  0  0
   10.8105  -16.8836   26.4202 N   0  0  0  0  0  0  0  0  0  0  0  0
   11.9303  -17.5728   28.4436 C   0  0  0  0  0  0  0  0  0  0  0  0
   11.4064  -18.6874   28.2615 O   0  0  0  0  0  0  0  0  0  0  0  0
   12.8538  -17.4251   29.4608 O   0  0  0  0  0  0  0  0  0  0  0  0
  2  1  1  0
  3  2  1  0
  4  5  1  0
  4  3  1  0
  5  6  1  1
  7  5  1  0
  8  7  2  0
 11 10  1  6
 10  9  1  0
 11 13  1  0
 11 12  1  0
 12  7  1  0
 13 19  1  0
 14 13  2  0
 16 15  1  6
 16 17  1  0
 18 20  1  0
 18 16  1  0
 18 19  1  6
 20 22  1  0
 21 20  2  0
M  END
$$$$
