MSV.pdb
     RDKit          3D

 22 21  0  0  1  0  0  0  0  0999 V2000
    7.7124  -11.1984   19.3781 C   0  0  0  0  0  0  0  0  0  0  0  0
    6.9788  -12.8415   19.5671 S   0  0  0  0  0  0  0  0  0  0  0  0
    7.8027  -14.0677   18.5308 C   0  0  0  0  0  0  0  0  0  0  0  0
    8.8512  -13.4202   17.6386 C   0  0  0  0  0  0  0  0  0  0  0  0
    9.5595  -14.4586   16.7976 C   0  0  2  0  0  0  0  0  0  0  0  0
    8.5428  -15.3574   16.2836 N   0  0  0  0  0  0  0  0  0  0  0  0
   10.5288  -15.1966   17.6713 C   0  0  0  0  0  0  0  0  0  0  0  0
   10.1807  -16.2414   18.2761 O   0  0  0  0  0  0  0  0  0  0  0  0
   15.1281  -15.8431   18.9757 O   0  0  0  0  0  0  0  0  0  0  0  0
   14.2099  -15.1401   18.2011 C   0  0  0  0  0  0  0  0  0  0  0  0
   12.8009  -15.4729   18.7054 C   0  0  2  0  0  0  0  0  0  0  0  0
   11.8613  -14.7580   17.8540 N   0  0  0  0  0  0  0  0  0  0  0  0
   12.6417  -15.1162   20.1236 C   0  0  0  0  0  0  0  0  0  0  0  0
   12.6979  -13.9186   20.4674 O   0  0  0  0  0  0  0  0  0  0  0  0
   10.5826  -17.7544   22.8763 C   0  0  0  0  0  0  0  0  0  0  0  0
   10.9676  -16.3248   23.0696 C   0  0  2  0  0  0  0  0  0  0  0  0
    9.9263  -15.4031   22.4380 C   0  0  0  0  0  0  0  0  0  0  0  0
   12.2954  -15.9406   22.4940 C   0  0  2  0  0  0  0  0  0  0  0  0
   12.4270  -16.1404   21.0757 N   0  0  0  0  0  0  0  0  0  0  0  0
   13.4527  -16.5506   23.2211 C   0  0  0  0  0  0  0  0  0  0  0  0
   13.6264  -16.2963   24.4274 O   0  0  0  0  0  0  0  0  0  0  0  0
   14.3390  -17.3952   22.5804 O   0  0  0  0  0  0  0  0  0  0  0  0
  2  1  1  0
  3  2  1  0
  4  5  1  0
  4  3  1  0
  5  6  1  1
  7  5  1  0
  8  7  2  0
 11 10  1  6
 10  9  1  0
 11 13  1  0
 11 12  1  0
 12  7  1  0
 13 19  1  0
 14 13  2  0
 16 15  1  6
 16 17  1  0
 18 20  1  0
 18 16  1  0
 18 19  1  6
 20 22  1  0
 21 20  2  0
M  END
$$$$
