MSV.pdb
     RDKit          3D

 22 21  0  0  1  0  0  0  0  0999 V2000
    8.0428  -11.7179   20.2215 C   0  0  0  0  0  0  0  0  0  0  0  0
    8.0737  -12.9313   18.8799 S   0  0  0  0  0  0  0  0  0  0  0  0
    7.2114  -14.4513   19.3295 C   0  0  0  0  0  0  0  0  0  0  0  0
    8.0773  -15.6745   19.0671 C   0  0  0  0  0  0  0  0  0  0  0  0
    9.2318  -15.7372   20.0421 C   0  0  2  0  0  0  0  0  0  0  0  0
    9.9455  -16.9731   19.7795 N   0  0  0  0  0  0  0  0  0  0  0  0
    8.6778  -15.7291   21.4351 C   0  0  0  0  0  0  0  0  0  0  0  0
    8.0460  -14.7334   21.8687 O   0  0  0  0  0  0  0  0  0  0  0  0
    9.8497  -18.3548   24.4760 O   0  0  0  0  0  0  0  0  0  0  0  0
    8.4854  -18.2476   24.2214 C   0  0  0  0  0  0  0  0  0  0  0  0
    8.2146  -16.8595   23.6297 C   0  0  2  0  0  0  0  0  0  0  0  0
    8.8381  -16.8254   22.3147 N   0  0  0  0  0  0  0  0  0  0  0  0
    8.7219  -15.7945   24.5084 C   0  0  0  0  0  0  0  0  0  0  0  0
    9.8754  -15.3521   24.3371 O   0  0  0  0  0  0  0  0  0  0  0  0
    6.6076  -12.5607   25.6007 C   0  0  0  0  0  0  0  0  0  0  0  0
    7.1800  -13.2698   26.7834 C   0  0  2  0  0  0  0  0  0  0  0  0
    7.7713  -12.2660   27.7710 C   0  0  0  0  0  0  0  0  0  0  0  0
    8.2589  -14.2597   26.4702 C   0  0  2  0  0  0  0  0  0  0  0  0
    7.8906  -15.2891   25.5356 N   0  0  0  0  0  0  0  0  0  0  0  0
    8.8846  -14.8571   27.6915 C   0  0  0  0  0  0  0  0  0  0  0  0
    8.6387  -16.0391   27.9951 O   0  0  0  0  0  0  0  0  0  0  0  0
    9.7345  -14.1221   28.4958 O   0  0  0  0  0  0  0  0  0  0  0  0
  2  1  1  0
  3  2  1  0
  4  5  1  0
  4  3  1  0
  5  6  1  6
  7  5  1  0
  8  7  2  0
 11 10  1  1
 10  9  1  0
 11 13  1  0
 11 12  1  0
 12  7  1  0
 13 19  1  0
 14 13  2  0
 16 15  1  6
 16 17  1  0
 18 20  1  0
 18 16  1  0
 18 19  1  6
 20 22  1  0
 21 20  2  0
M  END
$$$$
