MSV.pdb
     RDKit          3D

 22 21  0  0  1  0  0  0  0  0999 V2000
    7.1073  -13.4135   19.8061 C   0  0  0  0  0  0  0  0  0  0  0  0
    8.2407  -12.8745   18.5029 S   0  0  0  0  0  0  0  0  0  0  0  0
    9.3407  -14.2049   17.9773 C   0  0  0  0  0  0  0  0  0  0  0  0
    9.9596  -14.9131   19.1732 C   0  0  0  0  0  0  0  0  0  0  0  0
   10.9176  -13.9997   19.9046 C   0  0  2  0  0  0  0  0  0  0  0  0
   12.1354  -13.9401   19.1178 N   0  0  0  0  0  0  0  0  0  0  0  0
   11.1881  -14.5820   21.2594 C   0  0  0  0  0  0  0  0  0  0  0  0
   12.3133  -15.0676   21.5361 O   0  0  0  0  0  0  0  0  0  0  0  0
    8.1199  -15.2267   23.9991 O   0  0  0  0  0  0  0  0  0  0  0  0
    9.3269  -14.7575   24.5094 C   0  0  0  0  0  0  0  0  0  0  0  0
   10.4538  -15.2155   23.5762 C   0  0  2  0  0  0  0  0  0  0  0  0
   10.2039  -14.6124   22.2751 N   0  0  0  0  0  0  0  0  0  0  0  0
   10.5226  -16.6829   23.4999 C   0  0  0  0  0  0  0  0  0  0  0  0
    9.8048  -17.2914   22.6814 O   0  0  0  0  0  0  0  0  0  0  0  0
   14.0164  -18.8412   24.6138 C   0  0  0  0  0  0  0  0  0  0  0  0
   12.7847  -19.4040   23.9850 C   0  0  2  0  0  0  0  0  0  0  0  0
   12.8232  -19.2087   22.4708 C   0  0  0  0  0  0  0  0  0  0  0  0
   11.4970  -18.8117   24.4679 C   0  0  2  0  0  0  0  0  0  0  0  0
   11.4043  -17.3806   24.3588 N   0  0  0  0  0  0  0  0  0  0  0  0
   11.1210  -19.2600   25.8455 C   0  0  0  0  0  0  0  0  0  0  0  0
   10.9824  -20.4743   26.0826 O   0  0  0  0  0  0  0  0  0  0  0  0
   10.9226  -18.3513   26.8674 O   0  0  0  0  0  0  0  0  0  0  0  0
  2  1  1  0
  3  2  1  0
  4  5  1  0
  4  3  1  0
  5  6  1  6
  7  5  1  0
  8  7  2  0
 11 10  1  1
 10  9  1  0
 11 13  1  0
 11 12  1  0
 12  7  1  0
 13 19  1  0
 14 13  2  0
 16 15  1  1
 16 17  1  0
 18 20  1  0
 18 16  1  0
 18 19  1  1
 20 22  1  0
 21 20  2  0
M  END
$$$$
