NYL.pdb
     RDKit          3D

 29 29  0  0  1  0  0  0  0  0999 V2000
   29.0385  -19.7228  -16.7137 N   0  0  0  0  0  0  0  0  0  0  0  0
   28.2477  -18.5949  -16.3772 C   0  0  0  0  0  0  0  0  0  0  0  0
   28.2491  -17.6104  -17.1633 O   0  0  0  0  0  0  0  0  0  0  0  0
   27.4350  -18.5755  -15.1238 C   0  0  0  0  0  0  0  0  0  0  0  0
   27.7182  -19.8643  -14.3471 C   0  0  2  0  0  0  0  0  0  0  0  0
   27.3642  -20.9950  -15.1471 N   0  0  0  0  0  0  0  0  0  0  0  0
   27.0625  -19.8444  -13.0286 C   0  0  0  0  0  0  0  0  0  0  0  0
   27.2480  -18.8141  -12.3137 O   0  0  0  0  0  0  0  0  0  0  0  0
   20.7719  -19.2060  -15.3753 O   0  0  0  0  0  0  0  0  0  0  0  0
   21.6154  -19.7393  -14.3973 C   0  0  0  0  0  0  0  0  0  0  0  0
   22.4319  -20.7931  -14.7456 C   0  0  0  0  0  0  0  0  0  0  0  0
   23.2602  -21.3117  -13.7731 C   0  0  0  0  0  0  0  0  0  0  0  0
   23.2927  -20.8085  -12.4732 C   0  0  0  0  0  0  0  0  0  0  0  0
   24.1854  -21.3964  -11.4553 C   0  0  0  0  0  0  0  0  0  0  0  0
   25.4934  -20.6795  -11.3190 C   0  0  2  0  0  0  0  0  0  0  0  0
   26.2535  -20.8971  -12.5332 N   0  0  0  0  0  0  0  0  0  0  0  0
   26.2686  -21.0457  -10.1127 C   0  0  0  0  0  0  0  0  0  0  0  0
   26.9513  -22.0954  -10.1382 O   0  0  0  0  0  0  0  0  0  0  0  0
   22.4736  -19.7568  -12.1365 C   0  0  0  0  0  0  0  0  0  0  0  0
   21.6468  -19.2405  -13.1108 C   0  0  0  0  0  0  0  0  0  0  0  0
   28.6002  -18.5204   -5.1706 C   0  0  0  0  0  0  0  0  0  0  0  0
   28.3089  -19.8854   -5.8017 C   0  0  2  0  0  0  0  0  0  0  0  0
   29.5617  -20.6856   -5.7904 C   0  0  0  0  0  0  0  0  0  0  0  0
   27.7447  -19.6548   -7.1739 C   0  0  0  0  0  0  0  0  0  0  0  0
   26.8488  -20.7397   -7.6626 C   0  0  2  0  0  0  0  0  0  0  0  0
   26.2719  -20.2589   -8.9285 N   0  0  0  0  0  0  0  0  0  0  0  0
   25.7482  -21.0831   -6.7396 C   0  0  0  0  0  0  0  0  0  0  0  0
   25.9728  -21.7511   -5.5453 O   0  0  0  0  0  0  0  0  0  0  0  0
   24.5580  -20.7762   -7.0123 O   0  0  0  0  0  0  0  0  0  0  0  0
  1  2  1  0
  2  3  2  0
  4  2  1  0
  5  4  1  0
  5  6  1  6
  7  8  2  0
  7  5  1  0
  9 10  1  0
 10 20  2  0
 10 11  1  0
 11 12  2  0
 12 13  1  0
 13 14  1  0
 15 14  1  6
 15 16  1  0
 16  7  1  0
 17 15  1  0
 17 18  2  0
 19 13  2  0
 20 19  1  0
 22 23  1  6
 22 21  1  0
 24 22  1  0
 25 24  1  1
 25 26  1  0
 26 17  1  0
 27 25  1  0
 28 27  1  0
 29 27  2  0
M  END
$$$$
