NYL.pdb
     RDKit          3D

 29 29  0  0  1  0  0  0  0  0999 V2000
   27.9737  -10.5394  -16.3857 N   0  0  0  0  0  0  0  0  0  0  0  0
   26.7351  -10.8304  -15.7595 C   0  0  0  0  0  0  0  0  0  0  0  0
   26.5571  -11.9905  -15.3019 O   0  0  0  0  0  0  0  0  0  0  0  0
   25.6706   -9.7884  -15.6461 C   0  0  0  0  0  0  0  0  0  0  0  0
   24.4250  -10.2917  -16.3807 C   0  0  2  0  0  0  0  0  0  0  0  0
   24.7488  -10.5608  -17.7468 N   0  0  0  0  0  0  0  0  0  0  0  0
   23.2971   -9.3596  -16.2131 C   0  0  0  0  0  0  0  0  0  0  0  0
   22.5007   -9.2443  -17.1925 O   0  0  0  0  0  0  0  0  0  0  0  0
   18.0288  -12.8151  -15.3995 O   0  0  0  0  0  0  0  0  0  0  0  0
   18.7705  -11.6956  -15.0133 C   0  0  0  0  0  0  0  0  0  0  0  0
   18.5148  -10.4964  -15.6420 C   0  0  0  0  0  0  0  0  0  0  0  0
   19.2522   -9.3982  -15.2535 C   0  0  0  0  0  0  0  0  0  0  0  0
   20.2298   -9.4675  -14.2617 C   0  0  0  0  0  0  0  0  0  0  0  0
   21.0070   -8.2724  -13.8791 C   0  0  0  0  0  0  0  0  0  0  0  0
   21.8915   -7.7572  -14.9726 C   0  0  2  0  0  0  0  0  0  0  0  0
   23.0656   -8.6038  -15.0369 N   0  0  0  0  0  0  0  0  0  0  0  0
   22.2517   -6.3274  -14.8452 C   0  0  0  0  0  0  0  0  0  0  0  0
   23.4528   -6.0297  -14.6524 O   0  0  0  0  0  0  0  0  0  0  0  0
   20.4767  -10.6692  -13.6409 C   0  0  0  0  0  0  0  0  0  0  0  0
   19.7380  -11.7652  -14.0315 C   0  0  0  0  0  0  0  0  0  0  0  0
   21.9723   -1.4526  -16.7823 C   0  0  0  0  0  0  0  0  0  0  0  0
   23.1450   -2.3175  -16.3099 C   0  0  2  0  0  0  0  0  0  0  0  0
   24.2377   -2.2162  -17.3127 C   0  0  0  0  0  0  0  0  0  0  0  0
   22.6390   -3.7153  -16.0981 C   0  0  0  0  0  0  0  0  0  0  0  0
   21.6804   -3.8593  -14.9672 C   0  0  2  0  0  0  0  0  0  0  0  0
   21.2949   -5.2793  -14.9321 N   0  0  0  0  0  0  0  0  0  0  0  0
   20.4590   -3.0389  -15.0956 C   0  0  0  0  0  0  0  0  0  0  0  0
   20.3076   -1.8367  -14.4212 O   0  0  0  0  0  0  0  0  0  0  0  0
   19.5064   -3.4106  -15.8301 O   0  0  0  0  0  0  0  0  0  0  0  0
  1  2  1  0
  2  3  2  0
  4  2  1  0
  5  4  1  0
  5  6  1  6
  7  8  2  0
  7  5  1  0
  9 10  1  0
 10 20  2  0
 10 11  1  0
 11 12  2  0
 12 13  1  0
 13 14  1  0
 15 14  1  1
 15 16  1  0
 16  7  1  0
 17 15  1  0
 17 18  2  0
 19 13  2  0
 20 19  1  0
 22 23  1  6
 22 21  1  0
 24 22  1  0
 25 24  1  6
 25 26  1  0
 26 17  1  0
 27 25  1  0
 28 27  1  0
 29 27  2  0
M  END
$$$$
