NYL.pdb
     RDKit          3D

 29 29  0  0  1  0  0  0  0  0999 V2000
   23.2349  -12.3905  -18.4099 N   0  0  0  0  0  0  0  0  0  0  0  0
   22.9994  -11.1814  -19.1122 C   0  0  0  0  0  0  0  0  0  0  0  0
   23.6828  -10.9496  -20.1449 O   0  0  0  0  0  0  0  0  0  0  0  0
   21.9682  -10.2093  -18.6395 C   0  0  0  0  0  0  0  0  0  0  0  0
   21.2039  -10.8468  -17.4760 C   0  0  2  0  0  0  0  0  0  0  0  0
   20.1694  -11.6914  -17.9862 N   0  0  0  0  0  0  0  0  0  0  0  0
   20.7205   -9.8230  -16.5342 C   0  0  0  0  0  0  0  0  0  0  0  0
   19.6225   -9.2573  -16.8191 O   0  0  0  0  0  0  0  0  0  0  0  0
   18.5084   -5.3590   -9.4205 O   0  0  0  0  0  0  0  0  0  0  0  0
   19.1455   -6.2105  -10.3270 C   0  0  0  0  0  0  0  0  0  0  0  0
   20.4053   -5.8677  -10.7675 C   0  0  0  0  0  0  0  0  0  0  0  0
   21.0249   -6.7146  -11.6616 C   0  0  0  0  0  0  0  0  0  0  0  0
   20.4229   -7.8848  -12.1224 C   0  0  0  0  0  0  0  0  0  0  0  0
   21.1129   -8.7622  -13.0882 C   0  0  0  0  0  0  0  0  0  0  0  0
   20.8447   -8.4075  -14.5184 C   0  0  2  0  0  0  0  0  0  0  0  0
   21.4083   -9.4495  -15.3528 N   0  0  0  0  0  0  0  0  0  0  0  0
   21.3252   -7.0654  -14.9161 C   0  0  0  0  0  0  0  0  0  0  0  0
   22.5473   -6.9124  -15.1428 O   0  0  0  0  0  0  0  0  0  0  0  0
   19.1656   -8.2172  -11.6762 C   0  0  0  0  0  0  0  0  0  0  0  0
   18.5488   -7.3686  -10.7825 C   0  0  0  0  0  0  0  0  0  0  0  0
   19.8287   -1.8543  -16.0010 C   0  0  0  0  0  0  0  0  0  0  0  0
   20.3825   -2.7911  -17.0791 C   0  0  2  0  0  0  0  0  0  0  0  0
   19.7328   -2.4548  -18.3731 C   0  0  0  0  0  0  0  0  0  0  0  0
   20.1535   -4.2058  -16.6310 C   0  0  0  0  0  0  0  0  0  0  0  0
   20.9510   -4.6123  -15.4404 C   0  0  2  0  0  0  0  0  0  0  0  0
   20.4610   -5.9446  -15.0516 N   0  0  0  0  0  0  0  0  0  0  0  0
   20.8242   -3.7036  -14.2831 C   0  0  0  0  0  0  0  0  0  0  0  0
   19.7124   -3.7203  -13.4546 O   0  0  0  0  0  0  0  0  0  0  0  0
   21.7328   -2.8758  -14.0102 O   0  0  0  0  0  0  0  0  0  0  0  0
  1  2  1  0
  2  3  2  0
  4  2  1  0
  5  4  1  0
  5  6  1  6
  7  8  2  0
  7  5  1  0
  9 10  1  0
 10 20  2  0
 10 11  1  0
 11 12  2  0
 12 13  1  0
 13 14  1  0
 15 14  1  1
 15 16  1  0
 16  7  1  0
 17 15  1  0
 17 18  2  0
 19 13  2  0
 20 19  1  0
 22 23  1  6
 22 21  1  0
 24 22  1  0
 25 24  1  6
 25 26  1  0
 26 17  1  0
 27 25  1  0
 28 27  1  0
 29 27  2  0
M  END
$$$$
