NYL.pdb
     RDKit          3D

 29 29  0  0  1  0  0  0  0  0999 V2000
   29.9372  -32.3193  -16.6575 N   0  0  0  0  0  0  0  0  0  0  0  0
   28.9910  -33.1797  -16.0451 C   0  0  0  0  0  0  0  0  0  0  0  0
   28.2613  -33.8882  -16.7886 O   0  0  0  0  0  0  0  0  0  0  0  0
   28.8635  -33.2437  -14.5579 C   0  0  0  0  0  0  0  0  0  0  0  0
   27.4022  -32.9741  -14.1886 C   0  0  2  0  0  0  0  0  0  0  0  0
   27.0225  -31.6746  -14.6477 N   0  0  0  0  0  0  0  0  0  0  0  0
   27.1713  -33.1833  -12.7492 C   0  0  0  0  0  0  0  0  0  0  0  0
   27.9181  -32.5410  -11.9514 O   0  0  0  0  0  0  0  0  0  0  0  0
   22.7813  -31.7700   -5.6304 O   0  0  0  0  0  0  0  0  0  0  0  0
   23.4075  -31.9504   -6.8665 C   0  0  0  0  0  0  0  0  0  0  0  0
   22.6310  -32.3244   -7.9415 C   0  0  0  0  0  0  0  0  0  0  0  0
   23.2588  -32.4997   -9.1565 C   0  0  0  0  0  0  0  0  0  0  0  0
   24.6304  -32.3123   -9.3226 C   0  0  0  0  0  0  0  0  0  0  0  0
   25.2696  -32.5195  -10.6368 C   0  0  0  0  0  0  0  0  0  0  0  0
   25.7937  -33.9083  -10.8363 C   0  0  2  0  0  0  0  0  0  0  0  0
   26.1776  -34.0480  -12.2266 N   0  0  0  0  0  0  0  0  0  0  0  0
   24.8643  -34.9794  -10.4130 C   0  0  0  0  0  0  0  0  0  0  0  0
   23.8515  -35.2023  -11.1152 O   0  0  0  0  0  0  0  0  0  0  0  0
   25.3957  -31.9392   -8.2431 C   0  0  0  0  0  0  0  0  0  0  0  0
   24.7653  -31.7647   -7.0300 C   0  0  0  0  0  0  0  0  0  0  0  0
   24.9665  -40.5283   -8.5525 C   0  0  0  0  0  0  0  0  0  0  0  0
   24.0466  -39.3037   -8.5317 C   0  0  2  0  0  0  0  0  0  0  0  0
   22.9270  -39.5405   -9.4805 C   0  0  0  0  0  0  0  0  0  0  0  0
   24.8736  -38.0926   -8.8541 C   0  0  0  0  0  0  0  0  0  0  0  0
   24.1237  -36.8062   -8.8170 C   0  0  2  0  0  0  0  0  0  0  0  0
   25.0710  -35.7645   -9.2459 N   0  0  0  0  0  0  0  0  0  0  0  0
   23.5947  -36.4475   -7.4855 C   0  0  0  0  0  0  0  0  0  0  0  0
   22.2432  -36.5294   -7.1859 O   0  0  0  0  0  0  0  0  0  0  0  0
   24.3639  -36.0516   -6.5708 O   0  0  0  0  0  0  0  0  0  0  0  0
  1  2  1  0
  2  3  2  0
  4  2  1  0
  5  4  1  0
  5  6  1  1
  7  8  2  0
  7  5  1  0
  9 10  1  0
 10 20  2  0
 10 11  1  0
 11 12  2  0
 12 13  1  0
 13 14  1  0
 15 14  1  6
 15 16  1  0
 16  7  1  0
 17 15  1  0
 17 18  2  0
 19 13  2  0
 20 19  1  0
 22 23  1  6
 22 21  1  0
 24 22  1  0
 25 24  1  1
 25 26  1  0
 26 17  1  0
 27 25  1  0
 28 27  1  0
 29 27  2  0
M  END
$$$$
