NYL.pdb
     RDKit          3D

 29 29  0  0  1  0  0  0  0  0999 V2000
   29.1514  -17.4518  -17.2505 N   0  0  0  0  0  0  0  0  0  0  0  0
   28.7019  -18.5810  -16.5200 C   0  0  0  0  0  0  0  0  0  0  0  0
   29.0271  -19.7258  -16.9333 O   0  0  0  0  0  0  0  0  0  0  0  0
   27.8651  -18.4164  -15.2934 C   0  0  0  0  0  0  0  0  0  0  0  0
   27.3660  -19.7985  -14.8629 C   0  0  2  0  0  0  0  0  0  0  0  0
   26.5218  -20.3428  -15.8801 N   0  0  0  0  0  0  0  0  0  0  0  0
   26.7316  -19.7437  -13.5349 C   0  0  0  0  0  0  0  0  0  0  0  0
   26.3441  -18.6055  -13.1332 O   0  0  0  0  0  0  0  0  0  0  0  0
   20.7152  -19.4907  -15.1610 O   0  0  0  0  0  0  0  0  0  0  0  0
   21.6682  -20.0132  -14.2827 C   0  0  0  0  0  0  0  0  0  0  0  0
   21.6405  -19.5977  -12.9693 C   0  0  0  0  0  0  0  0  0  0  0  0
   22.5851  -20.1194  -12.1112 C   0  0  0  0  0  0  0  0  0  0  0  0
   23.5478  -21.0374  -12.5287 C   0  0  0  0  0  0  0  0  0  0  0  0
   24.5503  -21.5667  -11.5834 C   0  0  0  0  0  0  0  0  0  0  0  0
   25.7816  -20.7204  -11.4792 C   0  0  2  0  0  0  0  0  0  0  0  0
   26.5386  -20.8760  -12.7049 N   0  0  0  0  0  0  0  0  0  0  0  0
   26.6106  -20.9914  -10.2835 C   0  0  0  0  0  0  0  0  0  0  0  0
   27.3388  -22.0104  -10.2811 O   0  0  0  0  0  0  0  0  0  0  0  0
   23.5663  -21.4452  -13.8416 C   0  0  0  0  0  0  0  0  0  0  0  0
   22.6208  -20.9220  -14.6969 C   0  0  0  0  0  0  0  0  0  0  0  0
   29.3481  -20.6807   -6.8187 C   0  0  0  0  0  0  0  0  0  0  0  0
   28.5896  -19.3837   -7.1165 C   0  0  2  0  0  0  0  0  0  0  0  0
   29.1588  -18.3013   -6.2714 C   0  0  0  0  0  0  0  0  0  0  0  0
   27.1273  -19.6338   -6.8843 C   0  0  0  0  0  0  0  0  0  0  0  0
   26.5317  -20.6741   -7.7684 C   0  0  2  0  0  0  0  0  0  0  0  0
   26.6161  -20.1467   -9.1400 N   0  0  0  0  0  0  0  0  0  0  0  0
   25.1212  -20.9935   -7.4687 C   0  0  0  0  0  0  0  0  0  0  0  0
   24.0720  -20.3965   -8.1512 O   0  0  0  0  0  0  0  0  0  0  0  0
   24.8247  -21.8277   -6.5736 O   0  0  0  0  0  0  0  0  0  0  0  0
  1  2  1  0
  2  3  2  0
  4  2  1  0
  5  4  1  0
  5  6  1  6
  7  8  2  0
  7  5  1  0
  9 10  1  0
 10 20  2  0
 10 11  1  0
 11 12  2  0
 12 13  1  0
 13 14  1  0
 15 14  1  6
 15 16  1  0
 16  7  1  0
 17 15  1  0
 17 18  2  0
 19 13  2  0
 20 19  1  0
 22 23  1  1
 22 21  1  0
 24 22  1  0
 25 24  1  1
 25 26  1  0
 26 17  1  0
 27 25  1  0
 28 27  1  0
 29 27  2  0
M  END
$$$$
