NYL.pdb
     RDKit          3D

 29 29  0  0  1  0  0  0  0  0999 V2000
   29.1956  -20.4427  -19.9657 N   0  0  0  0  0  0  0  0  0  0  0  0
   29.7831  -20.0017  -18.7529 C   0  0  0  0  0  0  0  0  0  0  0  0
   30.9780  -20.3244  -18.5178 O   0  0  0  0  0  0  0  0  0  0  0  0
   29.0051  -19.1765  -17.7805 C   0  0  0  0  0  0  0  0  0  0  0  0
   27.5987  -18.9640  -18.3473 C   0  0  2  0  0  0  0  0  0  0  0  0
   27.6579  -18.0604  -19.4534 N   0  0  0  0  0  0  0  0  0  0  0  0
   26.6589  -18.5469  -17.2929 C   0  0  0  0  0  0  0  0  0  0  0  0
   26.6050  -17.3074  -17.0331 O   0  0  0  0  0  0  0  0  0  0  0  0
   20.5333  -20.9117  -19.8182 O   0  0  0  0  0  0  0  0  0  0  0  0
   21.3643  -20.2008  -18.9484 C   0  0  0  0  0  0  0  0  0  0  0  0
   22.4388  -19.5234  -19.4823 C   0  0  0  0  0  0  0  0  0  0  0  0
   23.2523  -18.8252  -18.6154 C   0  0  0  0  0  0  0  0  0  0  0  0
   23.0211  -18.7872  -17.2409 C   0  0  0  0  0  0  0  0  0  0  0  0
   23.9200  -18.0372  -16.3419 C   0  0  0  0  0  0  0  0  0  0  0  0
   24.8945  -18.9058  -15.6074 C   0  0  2  0  0  0  0  0  0  0  0  0
   25.8320  -19.4442  -16.5722 N   0  0  0  0  0  0  0  0  0  0  0  0
   24.2702  -19.9727  -14.7937 C   0  0  0  0  0  0  0  0  0  0  0  0
   23.9779  -21.0550  -15.3521 O   0  0  0  0  0  0  0  0  0  0  0  0
   21.9459  -19.4668  -16.7188 C   0  0  0  0  0  0  0  0  0  0  0  0
   21.1347  -20.1638  -17.5879 C   0  0  0  0  0  0  0  0  0  0  0  0
   26.0862  -21.9383  -11.6589 C   0  0  0  0  0  0  0  0  0  0  0  0
   25.4761  -20.6158  -11.1845 C   0  0  2  0  0  0  0  0  0  0  0  0
   26.0159  -20.3065   -9.8344 C   0  0  0  0  0  0  0  0  0  0  0  0
   23.9811  -20.7489  -11.2279 C   0  0  0  0  0  0  0  0  0  0  0  0
   23.4158  -20.9086  -12.5967 C   0  0  2  0  0  0  0  0  0  0  0  0
   23.9885  -19.8224  -13.4083 N   0  0  0  0  0  0  0  0  0  0  0  0
   21.9428  -20.8233  -12.6613 C   0  0  0  0  0  0  0  0  0  0  0  0
   21.2930  -19.7023  -13.1556 O   0  0  0  0  0  0  0  0  0  0  0  0
   21.2232  -21.7772  -12.2646 O   0  0  0  0  0  0  0  0  0  0  0  0
  1  2  1  0
  2  3  2  0
  4  2  1  0
  5  4  1  0
  5  6  1  6
  7  8  2  0
  7  5  1  0
  9 10  1  0
 10 20  2  0
 10 11  1  0
 11 12  2  0
 12 13  1  0
 13 14  1  0
 15 14  1  6
 15 16  1  0
 16  7  1  0
 17 15  1  0
 17 18  2  0
 19 13  2  0
 20 19  1  0
 22 23  1  1
 22 21  1  0
 24 22  1  0
 25 24  1  1
 25 26  1  0
 26 17  1  0
 27 25  1  0
 28 27  1  0
 29 27  2  0
M  END
$$$$
