NYL.pdb
     RDKit          3D

 29 29  0  0  1  0  0  0  0  0999 V2000
   29.9036  -20.0888  -18.3745 N   0  0  0  0  0  0  0  0  0  0  0  0
   28.7297  -19.2970  -18.4517 C   0  0  0  0  0  0  0  0  0  0  0  0
   28.3873  -18.8475  -19.5776 O   0  0  0  0  0  0  0  0  0  0  0  0
   27.9214  -19.0043  -17.2299 C   0  0  0  0  0  0  0  0  0  0  0  0
   28.5933  -19.6851  -16.0343 C   0  0  2  0  0  0  0  0  0  0  0  0
   28.5998  -21.1013  -16.2291 N   0  0  0  0  0  0  0  0  0  0  0  0
   27.9721  -19.2657  -14.7666 C   0  0  0  0  0  0  0  0  0  0  0  0
   27.6229  -18.0505  -14.6759 O   0  0  0  0  0  0  0  0  0  0  0  0
   20.2860  -21.0946  -11.7508 O   0  0  0  0  0  0  0  0  0  0  0  0
   21.5525  -20.9260  -12.3167 C   0  0  0  0  0  0  0  0  0  0  0  0
   22.4346  -21.9832  -12.2656 C   0  0  0  0  0  0  0  0  0  0  0  0
   23.6815  -21.8063  -12.8268 C   0  0  0  0  0  0  0  0  0  0  0  0
   24.0654  -20.6104  -13.4322 C   0  0  0  0  0  0  0  0  0  0  0  0
   25.4131  -20.4540  -14.0135 C   0  0  0  0  0  0  0  0  0  0  0  0
   26.4643  -20.1059  -13.0050 C   0  0  2  0  0  0  0  0  0  0  0  0
   27.7515  -20.1354  -13.6697 N   0  0  0  0  0  0  0  0  0  0  0  0
   26.4529  -20.9540  -11.7922 C   0  0  0  0  0  0  0  0  0  0  0  0
   26.6201  -22.1880  -11.9256 O   0  0  0  0  0  0  0  0  0  0  0  0
   23.1772  -19.5619  -13.4775 C   0  0  0  0  0  0  0  0  0  0  0  0
   21.9316  -19.7418  -12.9157 C   0  0  0  0  0  0  0  0  0  0  0  0
   26.6761  -18.6061   -8.2808 C   0  0  0  0  0  0  0  0  0  0  0  0
   27.0860  -19.8412   -7.4727 C   0  0  2  0  0  0  0  0  0  0  0  0
   28.2789  -19.4944   -6.6563 C   0  0  0  0  0  0  0  0  0  0  0  0
   27.3121  -20.9735   -8.4327 C   0  0  0  0  0  0  0  0  0  0  0  0
   26.1419  -21.2914   -9.2977 C   0  0  2  0  0  0  0  0  0  0  0  0
   26.2609  -20.4294  -10.4848 N   0  0  0  0  0  0  0  0  0  0  0  0
   24.8309  -21.0470   -8.6631 C   0  0  0  0  0  0  0  0  0  0  0  0
   24.4235  -21.7357   -7.5305 O   0  0  0  0  0  0  0  0  0  0  0  0
   24.0333  -20.1958   -9.1369 O   0  0  0  0  0  0  0  0  0  0  0  0
  1  2  1  0
  2  3  2  0
  4  2  1  0
  5  4  1  0
  5  6  1  6
  7  8  2  0
  7  5  1  0
  9 10  1  0
 10 20  2  0
 10 11  1  0
 11 12  2  0
 12 13  1  0
 13 14  1  0
 15 14  1  6
 15 16  1  0
 16  7  1  0
 17 15  1  0
 17 18  2  0
 19 13  2  0
 20 19  1  0
 22 23  1  6
 22 21  1  0
 24 22  1  0
 25 24  1  1
 25 26  1  0
 26 17  1  0
 27 25  1  0
 28 27  1  0
 29 27  2  0
M  END
$$$$
