NYL.pdb
     RDKit          3D

 29 29  0  0  1  0  0  0  0  0999 V2000
   21.7976  -18.6774  -19.2785 N   0  0  0  0  0  0  0  0  0  0  0  0
   23.1067  -18.4417  -19.7696 C   0  0  0  0  0  0  0  0  0  0  0  0
   23.2352  -18.0557  -20.9619 O   0  0  0  0  0  0  0  0  0  0  0  0
   24.3011  -18.6459  -18.8958 C   0  0  0  0  0  0  0  0  0  0  0  0
   23.8212  -19.1741  -17.5411 C   0  0  2  0  0  0  0  0  0  0  0  0
   23.1264  -18.1394  -16.8408 N   0  0  0  0  0  0  0  0  0  0  0  0
   24.9340  -19.7615  -16.7760 C   0  0  0  0  0  0  0  0  0  0  0  0
   25.4884  -20.7884  -17.2709 O   0  0  0  0  0  0  0  0  0  0  0  0
   29.4226  -15.8441  -18.8859 O   0  0  0  0  0  0  0  0  0  0  0  0
   28.9431  -16.5765  -17.7968 C   0  0  0  0  0  0  0  0  0  0  0  0
   29.5352  -17.7884  -17.5155 C   0  0  0  0  0  0  0  0  0  0  0  0
   29.0545  -18.5029  -16.4388 C   0  0  0  0  0  0  0  0  0  0  0  0
   28.0067  -18.0410  -15.6435 C   0  0  0  0  0  0  0  0  0  0  0  0
   27.5114  -18.8387  -14.5045 C   0  0  0  0  0  0  0  0  0  0  0  0
   26.5254  -19.8958  -14.8967 C   0  0  2  0  0  0  0  0  0  0  0  0
   25.4029  -19.2455  -15.5422 N   0  0  0  0  0  0  0  0  0  0  0  0
   26.0889  -20.7680  -13.7836 C   0  0  0  0  0  0  0  0  0  0  0  0
   26.8868  -21.6332  -13.3555 O   0  0  0  0  0  0  0  0  0  0  0  0
   27.4230  -16.8303  -15.9332 C   0  0  0  0  0  0  0  0  0  0  0  0
   27.9058  -16.1184  -17.0100 C   0  0  0  0  0  0  0  0  0  0  0  0
   25.4058  -19.3296   -8.6705 C   0  0  0  0  0  0  0  0  0  0  0  0
   25.1687  -20.6292   -9.4457 C   0  0  2  0  0  0  0  0  0  0  0  0
   26.0678  -21.6766   -8.8939 C   0  0  0  0  0  0  0  0  0  0  0  0
   25.3831  -20.3484  -10.9051 C   0  0  0  0  0  0  0  0  0  0  0  0
   24.5310  -21.1575  -11.8204 C   0  0  2  0  0  0  0  0  0  0  0  0
   24.8054  -20.6664  -13.1805 N   0  0  0  0  0  0  0  0  0  0  0  0
   23.0815  -21.0476  -11.5595 C   0  0  0  0  0  0  0  0  0  0  0  0
   22.4771  -21.6901  -10.4894 O   0  0  0  0  0  0  0  0  0  0  0  0
   22.3412  -20.3591  -12.3099 O   0  0  0  0  0  0  0  0  0  0  0  0
  1  2  1  0
  2  3  2  0
  4  2  1  0
  5  4  1  0
  5  6  1  1
  7  8  2  0
  7  5  1  0
  9 10  1  0
 10 20  2  0
 10 11  1  0
 11 12  2  0
 12 13  1  0
 13 14  1  0
 15 14  1  1
 15 16  1  0
 16  7  1  0
 17 15  1  0
 17 18  2  0
 19 13  2  0
 20 19  1  0
 22 23  1  1
 22 21  1  0
 24 22  1  0
 25 24  1  1
 25 26  1  0
 26 17  1  0
 27 25  1  0
 28 27  1  0
 29 27  2  0
M  END
$$$$
