NYL.pdb
     RDKit          3D

 29 29  0  0  1  0  0  0  0  0999 V2000
   18.3508  -16.4673  -18.5881 N   0  0  0  0  0  0  0  0  0  0  0  0
   19.2235  -16.2823  -17.4858 C   0  0  0  0  0  0  0  0  0  0  0  0
   19.0831  -17.0314  -16.4826 O   0  0  0  0  0  0  0  0  0  0  0  0
   20.2808  -15.2273  -17.5144 C   0  0  0  0  0  0  0  0  0  0  0  0
   20.2285  -14.5309  -18.8770 C   0  0  2  0  0  0  0  0  0  0  0  0
   21.0964  -15.2022  -19.7933 N   0  0  0  0  0  0  0  0  0  0  0  0
   20.5055  -13.0902  -18.7477 C   0  0  0  0  0  0  0  0  0  0  0  0
   21.7230  -12.7380  -18.7722 O   0  0  0  0  0  0  0  0  0  0  0  0
   19.7003   -4.3508  -17.9906 O   0  0  0  0  0  0  0  0  0  0  0  0
   19.4547   -5.7148  -18.1687 C   0  0  0  0  0  0  0  0  0  0  0  0
   18.6869   -6.3665  -17.2284 C   0  0  0  0  0  0  0  0  0  0  0  0
   18.4506   -7.7122  -17.4138 C   0  0  0  0  0  0  0  0  0  0  0  0
   18.9577   -8.4164  -18.5051 C   0  0  0  0  0  0  0  0  0  0  0  0
   18.6925   -9.8596  -18.6650 C   0  0  0  0  0  0  0  0  0  0  0  0
   19.8993  -10.7189  -18.4447 C   0  0  2  0  0  0  0  0  0  0  0  0
   19.4996  -12.1029  -18.6007 N   0  0  0  0  0  0  0  0  0  0  0  0
   20.5873  -10.4880  -17.1549 C   0  0  0  0  0  0  0  0  0  0  0  0
   20.0770  -10.9612  -16.1136 O   0  0  0  0  0  0  0  0  0  0  0  0
   19.7227   -7.7561  -19.4374 C   0  0  0  0  0  0  0  0  0  0  0  0
   19.9571   -6.4111  -19.2493 C   0  0  0  0  0  0  0  0  0  0  0  0
   26.1829  -10.2690  -15.1387 C   0  0  0  0  0  0  0  0  0  0  0  0
   24.7742   -9.8005  -14.7610 C   0  0  2  0  0  0  0  0  0  0  0  0
   24.3634  -10.5019  -13.5164 C   0  0  0  0  0  0  0  0  0  0  0  0
   23.8682  -10.0538  -15.9314 C   0  0  0  0  0  0  0  0  0  0  0  0
   22.4811   -9.5389  -15.7600 C   0  0  2  0  0  0  0  0  0  0  0  0
   21.7999   -9.7538  -17.0470 N   0  0  0  0  0  0  0  0  0  0  0  0
   22.4017   -8.1052  -15.4146 C   0  0  0  0  0  0  0  0  0  0  0  0
   22.4723   -7.1122  -16.3800 O   0  0  0  0  0  0  0  0  0  0  0  0
   22.2661   -7.7362  -14.2185 O   0  0  0  0  0  0  0  0  0  0  0  0
  1  2  1  0
  2  3  2  0
  4  2  1  0
  5  4  1  0
  5  6  1  6
  7  8  2  0
  7  5  1  0
  9 10  1  0
 10 20  2  0
 10 11  1  0
 11 12  2  0
 12 13  1  0
 13 14  1  0
 15 14  1  1
 15 16  1  0
 16  7  1  0
 17 15  1  0
 17 18  2  0
 19 13  2  0
 20 19  1  0
 22 23  1  1
 22 21  1  0
 24 22  1  0
 25 24  1  6
 25 26  1  0
 26 17  1  0
 27 25  1  0
 28 27  1  0
 29 27  2  0
M  END
$$$$
