NYL.pdb
     RDKit          3D

 29 29  0  0  1  0  0  0  0  0999 V2000
   19.3167  -14.0755  -18.7869 N   0  0  0  0  0  0  0  0  0  0  0  0
   19.2335  -14.1598  -17.3738 C   0  0  0  0  0  0  0  0  0  0  0  0
   18.7836  -15.2213  -16.8659 O   0  0  0  0  0  0  0  0  0  0  0  0
   19.6680  -13.0199  -16.5114 C   0  0  0  0  0  0  0  0  0  0  0  0
   20.1436  -11.8833  -17.4204 C   0  0  2  0  0  0  0  0  0  0  0  0
   21.4193  -12.2132  -17.9747 N   0  0  0  0  0  0  0  0  0  0  0  0
   20.1229  -10.5927  -16.7113 C   0  0  0  0  0  0  0  0  0  0  0  0
   18.9903  -10.1653  -16.3352 O   0  0  0  0  0  0  0  0  0  0  0  0
   22.5696   -2.6158  -13.8607 O   0  0  0  0  0  0  0  0  0  0  0  0
   22.5394   -3.9657  -14.2203 C   0  0  0  0  0  0  0  0  0  0  0  0
   23.0641   -4.3260  -15.4423 C   0  0  0  0  0  0  0  0  0  0  0  0
   23.0294   -5.6604  -15.7873 C   0  0  0  0  0  0  0  0  0  0  0  0
   22.4884   -6.6348  -14.9496 C   0  0  0  0  0  0  0  0  0  0  0  0
   22.4591   -8.0531  -15.3573 C   0  0  0  0  0  0  0  0  0  0  0  0
   21.1219   -8.5055  -15.8578 C   0  0  2  0  0  0  0  0  0  0  0  0
   21.2816   -9.8244  -16.4363 N   0  0  0  0  0  0  0  0  0  0  0  0
   20.4723   -7.5674  -16.8004 C   0  0  0  0  0  0  0  0  0  0  0  0
   20.8426   -7.5720  -17.9967 O   0  0  0  0  0  0  0  0  0  0  0  0
   21.9675   -6.2642  -13.7323 C   0  0  0  0  0  0  0  0  0  0  0  0
   22.0037   -4.9296  -13.3903 C   0  0  0  0  0  0  0  0  0  0  0  0
   15.7727   -5.9975  -19.4117 C   0  0  0  0  0  0  0  0  0  0  0  0
   17.1209   -5.3658  -19.0517 C   0  0  2  0  0  0  0  0  0  0  0  0
   17.8776   -5.1245  -20.3082 C   0  0  0  0  0  0  0  0  0  0  0  0
   17.8199   -6.2767  -18.0840 C   0  0  0  0  0  0  0  0  0  0  0  0
   18.9170   -5.6302  -17.3112 C   0  0  2  0  0  0  0  0  0  0  0  0
   19.4482   -6.6631  -16.4071 N   0  0  0  0  0  0  0  0  0  0  0  0
   18.4916   -4.4676  -16.5057 C   0  0  0  0  0  0  0  0  0  0  0  0
   18.3755   -4.5334  -15.1254 O   0  0  0  0  0  0  0  0  0  0  0  0
   18.2181   -3.3679  -17.0544 O   0  0  0  0  0  0  0  0  0  0  0  0
  1  2  1  0
  2  3  2  0
  4  2  1  0
  5  4  1  0
  5  6  1  1
  7  8  2  0
  7  5  1  0
  9 10  1  0
 10 20  2  0
 10 11  1  0
 11 12  2  0
 12 13  1  0
 13 14  1  0
 15 14  1  6
 15 16  1  0
 16  7  1  0
 17 15  1  0
 17 18  2  0
 19 13  2  0
 20 19  1  0
 22 23  1  6
 22 21  1  0
 24 22  1  0
 25 24  1  1
 25 26  1  0
 26 17  1  0
 27 25  1  0
 28 27  1  0
 29 27  2  0
M  END
$$$$
