NYL.pdb
     RDKit          3D

 29 29  0  0  1  0  0  0  0  0999 V2000
   22.5653  -12.9787  -20.2867 N   0  0  0  0  0  0  0  0  0  0  0  0
   22.6565  -11.5702  -20.4230 C   0  0  0  0  0  0  0  0  0  0  0  0
   22.5717  -11.0769  -21.5791 O   0  0  0  0  0  0  0  0  0  0  0  0
   22.8479  -10.6956  -19.2271 C   0  0  0  0  0  0  0  0  0  0  0  0
   22.0091   -9.4290  -19.4184 C   0  0  2  0  0  0  0  0  0  0  0  0
   22.5907   -8.6177  -20.4417 N   0  0  0  0  0  0  0  0  0  0  0  0
   21.8169   -8.7218  -18.1410 C   0  0  0  0  0  0  0  0  0  0  0  0
   21.0764   -9.2865  -17.2810 O   0  0  0  0  0  0  0  0  0  0  0  0
   26.4306  -11.3318  -14.9850 O   0  0  0  0  0  0  0  0  0  0  0  0
   25.7027  -10.1606  -15.2107 C   0  0  0  0  0  0  0  0  0  0  0  0
   24.5898   -9.9254  -14.4330 C   0  0  0  0  0  0  0  0  0  0  0  0
   23.8788   -8.7670  -14.6639 C   0  0  0  0  0  0  0  0  0  0  0  0
   24.2485   -7.8462  -15.6434 C   0  0  0  0  0  0  0  0  0  0  0  0
   23.4565   -6.6212  -15.8692 C   0  0  0  0  0  0  0  0  0  0  0  0
   22.1420   -6.8726  -16.5418 C   0  0  2  0  0  0  0  0  0  0  0  0
   22.4064   -7.4699  -17.8352 N   0  0  0  0  0  0  0  0  0  0  0  0
   21.2748   -5.6788  -16.6551 C   0  0  0  0  0  0  0  0  0  0  0  0
   21.5712   -4.8043  -17.5012 O   0  0  0  0  0  0  0  0  0  0  0  0
   25.3608   -8.0909  -16.4137 C   0  0  0  0  0  0  0  0  0  0  0  0
   26.0694   -9.2497  -16.1805 C   0  0  0  0  0  0  0  0  0  0  0  0
   16.3603   -3.7575  -17.2373 C   0  0  0  0  0  0  0  0  0  0  0  0
   17.7055   -3.4951  -17.9213 C   0  0  2  0  0  0  0  0  0  0  0  0
   17.4867   -3.4601  -19.3912 C   0  0  0  0  0  0  0  0  0  0  0  0
   18.6716   -4.5539  -17.4734 C   0  0  0  0  0  0  0  0  0  0  0  0
   19.1714   -4.3831  -16.0807 C   0  0  2  0  0  0  0  0  0  0  0  0
   20.1220   -5.4822  -15.8465 N   0  0  0  0  0  0  0  0  0  0  0  0
   18.1197   -4.4364  -15.0452 C   0  0  0  0  0  0  0  0  0  0  0  0
   17.6252   -3.2903  -14.4411 O   0  0  0  0  0  0  0  0  0  0  0  0
   17.6343   -5.5374  -14.6746 O   0  0  0  0  0  0  0  0  0  0  0  0
  1  2  1  0
  2  3  2  0
  4  2  1  0
  5  4  1  0
  5  6  1  6
  7  8  2  0
  7  5  1  0
  9 10  1  0
 10 20  2  0
 10 11  1  0
 11 12  2  0
 12 13  1  0
 13 14  1  0
 15 14  1  6
 15 16  1  0
 16  7  1  0
 17 15  1  0
 17 18  2  0
 19 13  2  0
 20 19  1  0
 22 23  1  6
 22 21  1  0
 24 22  1  0
 25 24  1  6
 25 26  1  0
 26 17  1  0
 27 25  1  0
 28 27  1  0
 29 27  2  0
M  END
$$$$
