NYL.pdb
     RDKit          3D

 29 29  0  0  1  0  0  0  0  0999 V2000
   21.6135  -10.4001  -22.3726 N   0  0  0  0  0  0  0  0  0  0  0  0
   20.5690   -9.4965  -22.6941 C   0  0  0  0  0  0  0  0  0  0  0  0
   20.5898   -8.9397  -23.8240 O   0  0  0  0  0  0  0  0  0  0  0  0
   19.4738   -9.2129  -21.7184 C   0  0  0  0  0  0  0  0  0  0  0  0
   19.7422  -10.0213  -20.4461 C   0  0  2  0  0  0  0  0  0  0  0  0
   19.3996  -11.3917  -20.6663 N   0  0  0  0  0  0  0  0  0  0  0  0
   19.0648   -9.4221  -19.2838 C   0  0  0  0  0  0  0  0  0  0  0  0
   17.8042   -9.5448  -19.2311 O   0  0  0  0  0  0  0  0  0  0  0  0
   16.9706  -13.9760  -15.4875 O   0  0  0  0  0  0  0  0  0  0  0  0
   17.5613  -12.7140  -15.5924 C   0  0  0  0  0  0  0  0  0  0  0  0
   16.8317  -11.6178  -15.1870 C   0  0  0  0  0  0  0  0  0  0  0  0
   17.4238  -10.3773  -15.2948 C   0  0  0  0  0  0  0  0  0  0  0  0
   18.7148  -10.2065  -15.7930 C   0  0  0  0  0  0  0  0  0  0  0  0
   19.3124   -8.8613  -15.9036 C   0  0  0  0  0  0  0  0  0  0  0  0
   18.9580   -8.1504  -17.1734 C   0  0  2  0  0  0  0  0  0  0  0  0
   19.7394   -8.7314  -18.2464 N   0  0  0  0  0  0  0  0  0  0  0  0
   19.1135   -6.6798  -17.1147 C   0  0  0  0  0  0  0  0  0  0  0  0
   20.0411   -6.1515  -17.7698 O   0  0  0  0  0  0  0  0  0  0  0  0
   19.4338  -11.3074  -16.1948 C   0  0  0  0  0  0  0  0  0  0  0  0
   18.8392  -12.5459  -16.0858 C   0  0  0  0  0  0  0  0  0  0  0  0
   17.8692   -2.1656  -19.4138 C   0  0  0  0  0  0  0  0  0  0  0  0
   18.3493   -2.4681  -17.9910 C   0  0  2  0  0  0  0  0  0  0  0  0
   19.7169   -1.9089  -17.8274 C   0  0  0  0  0  0  0  0  0  0  0  0
   18.2673   -3.9520  -17.7760 C   0  0  0  0  0  0  0  0  0  0  0  0
   18.3771   -4.3756  -16.3523 C   0  0  2  0  0  0  0  0  0  0  0  0
   18.2572   -5.8426  -16.3485 N   0  0  0  0  0  0  0  0  0  0  0  0
   17.3379   -3.8122  -15.4670 C   0  0  0  0  0  0  0  0  0  0  0  0
   17.5628   -2.6802  -14.6982 O   0  0  0  0  0  0  0  0  0  0  0  0
   16.2022   -4.3490  -15.3822 O   0  0  0  0  0  0  0  0  0  0  0  0
  1  2  1  0
  2  3  2  0
  4  2  1  0
  5  4  1  0
  5  6  1  6
  7  8  2  0
  7  5  1  0
  9 10  1  0
 10 20  2  0
 10 11  1  0
 11 12  2  0
 12 13  1  0
 13 14  1  0
 15 14  1  1
 15 16  1  0
 16  7  1  0
 17 15  1  0
 17 18  2  0
 19 13  2  0
 20 19  1  0
 22 23  1  6
 22 21  1  0
 24 22  1  0
 25 24  1  6
 25 26  1  0
 26 17  1  0
 27 25  1  0
 28 27  1  0
 29 27  2  0
M  END
$$$$
