NYL.pdb
     RDKit          3D

 29 29  0  0  1  0  0  0  0  0999 V2000
   34.4598  -31.0025  -21.2392 N   0  0  0  0  0  0  0  0  0  0  0  0
   33.8679  -31.2981  -19.9851 C   0  0  0  0  0  0  0  0  0  0  0  0
   34.6266  -31.5832  -19.0207 O   0  0  0  0  0  0  0  0  0  0  0  0
   32.3841  -31.2720  -19.8130 C   0  0  0  0  0  0  0  0  0  0  0  0
   32.0345  -30.1578  -18.8227 C   0  0  2  0  0  0  0  0  0  0  0  0
   32.6368  -30.4343  -17.5561 N   0  0  0  0  0  0  0  0  0  0  0  0
   30.5784  -29.9483  -18.7519 C   0  0  0  0  0  0  0  0  0  0  0  0
   29.9839  -29.6943  -19.8422 O   0  0  0  0  0  0  0  0  0  0  0  0
   27.7401  -34.8854  -21.5277 O   0  0  0  0  0  0  0  0  0  0  0  0
   27.7583  -33.9788  -20.4645 C   0  0  0  0  0  0  0  0  0  0  0  0
   26.7347  -33.0609  -20.3737 C   0  0  0  0  0  0  0  0  0  0  0  0
   26.7623  -32.1711  -19.3209 C   0  0  0  0  0  0  0  0  0  0  0  0
   27.7777  -32.1755  -18.3654 C   0  0  0  0  0  0  0  0  0  0  0  0
   27.7796  -31.2003  -17.2574 C   0  0  0  0  0  0  0  0  0  0  0  0
   28.3877  -29.8807  -17.6212 C   0  0  2  0  0  0  0  0  0  0  0  0
   29.8287  -30.0157  -17.5512 N   0  0  0  0  0  0  0  0  0  0  0  0
   27.9030  -28.7402  -16.8121 C   0  0  0  0  0  0  0  0  0  0  0  0
   28.1981  -28.7038  -15.5955 O   0  0  0  0  0  0  0  0  0  0  0  0
   28.7942  -33.0958  -18.4657 C   0  0  0  0  0  0  0  0  0  0  0  0
   28.7639  -33.9839  -19.5192 C   0  0  0  0  0  0  0  0  0  0  0  0
   28.6577  -24.5156  -17.0534 C   0  0  0  0  0  0  0  0  0  0  0  0
   27.6679  -24.9612  -18.1342 C   0  0  2  0  0  0  0  0  0  0  0  0
   27.4604  -23.8305  -19.0767 C   0  0  0  0  0  0  0  0  0  0  0  0
   26.4126  -25.4270  -17.4545 C   0  0  0  0  0  0  0  0  0  0  0  0
   26.6027  -26.5807  -16.5318 C   0  0  2  0  0  0  0  0  0  0  0  0
   27.1184  -27.6863  -17.3553 N   0  0  0  0  0  0  0  0  0  0  0  0
   25.3692  -27.0287  -15.8543 C   0  0  0  0  0  0  0  0  0  0  0  0
   24.8221  -26.3310  -14.7880 O   0  0  0  0  0  0  0  0  0  0  0  0
   24.7695  -28.0706  -16.2286 O   0  0  0  0  0  0  0  0  0  0  0  0
  1  2  1  0
  2  3  2  0
  4  2  1  0
  5  4  1  0
  5  6  1  1
  7  8  2  0
  7  5  1  0
  9 10  1  0
 10 20  2  0
 10 11  1  0
 11 12  2  0
 12 13  1  0
 13 14  1  0
 15 14  1  1
 15 16  1  0
 16  7  1  0
 17 15  1  0
 17 18  2  0
 19 13  2  0
 20 19  1  0
 22 23  1  6
 22 21  1  0
 24 22  1  0
 25 24  1  6
 25 26  1  0
 26 17  1  0
 27 25  1  0
 28 27  1  0
 29 27  2  0
M  END
$$$$
