TGC.pdb
     RDKit          3D

 18 17  0  0  1  0  0  0  0  0999 V2000
    7.2085  -12.7642   19.3453 C   0  0  0  0  0  0  0  0  0  0  0  0
    8.1900  -13.5266   20.1760 C   0  0  1  0  0  0  0  0  0  0  0  0
    7.7141  -13.5776   21.4956 O   0  0  0  0  0  0  0  0  0  0  0  0
    8.2890  -14.9826   19.7121 C   0  0  2  0  0  0  0  0  0  0  0  0
    6.9525  -15.4872   19.6326 N   0  0  0  0  0  0  0  0  0  0  0  0
    9.1393  -15.7834   20.6285 C   0  0  0  0  0  0  0  0  0  0  0  0
    8.6549  -16.6672   21.3747 O   0  0  0  0  0  0  0  0  0  0  0  0
   10.5392  -15.5511   20.6694 N   0  0  0  0  0  0  0  0  0  0  0  0
   11.4581  -16.2965   21.4628 C   0  0  0  0  0  0  0  0  0  0  0  0
   11.2737  -16.1081   22.9154 C   0  0  0  0  0  0  0  0  0  0  0  0
   12.2457  -16.2689   23.6957 O   0  0  0  0  0  0  0  0  0  0  0  0
   10.0087  -15.7463   23.4449 N   0  0  0  0  0  0  0  0  0  0  0  0
    9.7028  -15.7063   24.8484 C   0  0  1  0  0  0  0  0  0  0  0  0
    8.2767  -15.1825   24.9999 C   0  0  0  0  0  0  0  0  0  0  0  0
    8.1170  -13.4782   24.4546 S   0  0  0  0  0  0  0  0  0  0  0  0
    9.7340  -17.0786   25.4560 C   0  0  0  0  0  0  0  0  0  0  0  0
    9.6421  -17.2420   26.6982 O   0  0  0  0  0  0  0  0  0  0  0  0
    9.8657  -18.1806   24.6387 O   0  0  0  0  0  0  0  0  0  0  0  0
  2  1  1  6
  3  2  1  0
  4  6  1  0
  4  5  1  1
  4  2  1  0
  6  7  2  0
  8  9  1  0
  8  6  1  0
 10 11  2  0
 10  9  1  0
 12 10  1  0
 13 12  1  0
 13 14  1  6
 14 15  1  0
 16 13  1  0
 17 16  2  0
 18 16  1  0
M  END
$$$$
