TGC.pdb
     RDKit          3D

 18 17  0  0  1  0  0  0  0  0999 V2000
   10.4927  -18.6398   18.6343 C   0  0  0  0  0  0  0  0  0  0  0  0
    9.3927  -17.8323   19.2449 C   0  0  1  0  0  0  0  0  0  0  0  0
    8.3945  -18.7085   19.6993 O   0  0  0  0  0  0  0  0  0  0  0  0
    9.8851  -17.0820   20.4857 C   0  0  2  0  0  0  0  0  0  0  0  0
   10.2485  -18.0704   21.4544 N   0  0  0  0  0  0  0  0  0  0  0  0
    8.8505  -16.1475   20.9961 C   0  0  0  0  0  0  0  0  0  0  0  0
    8.4922  -15.1390   20.3424 O   0  0  0  0  0  0  0  0  0  0  0  0
    8.2439  -16.3921   22.2561 N   0  0  0  0  0  0  0  0  0  0  0  0
    7.2362  -15.5715   22.8395 C   0  0  0  0  0  0  0  0  0  0  0  0
    7.7460  -14.6615   23.8844 C   0  0  0  0  0  0  0  0  0  0  0  0
    8.9699  -14.6597   24.1699 O   0  0  0  0  0  0  0  0  0  0  0  0
    6.8693  -13.7851   24.5735 N   0  0  0  0  0  0  0  0  0  0  0  0
    7.2555  -12.9756   25.6962 C   0  0  1  0  0  0  0  0  0  0  0  0
    6.0079  -12.2564   26.2035 C   0  0  0  0  0  0  0  0  0  0  0  0
    6.3609  -11.1890   27.6047 S   0  0  0  0  0  0  0  0  0  0  0  0
    7.7690  -13.8169   26.8284 C   0  0  0  0  0  0  0  0  0  0  0  0
    7.2778  -14.9469   27.0736 O   0  0  0  0  0  0  0  0  0  0  0  0
    8.7975  -13.3436   27.6144 O   0  0  0  0  0  0  0  0  0  0  0  0
  2  1  1  1
  3  2  1  0
  4  6  1  0
  4  5  1  1
  4  2  1  0
  6  7  2  0
  8  9  1  0
  8  6  1  0
 10 11  2  0
 10  9  1  0
 12 10  1  0
 13 12  1  0
 13 14  1  1
 14 15  1  0
 16 13  1  0
 17 16  2  0
 18 16  1  0
M  END
$$$$
