TGC.pdb
     RDKit          3D

 18 17  0  0  1  0  0  0  0  0999 V2000
    8.7478  -17.5287   17.9558 C   0  0  0  0  0  0  0  0  0  0  0  0
    8.2008  -17.3135   19.3303 C   0  0  1  0  0  0  0  0  0  0  0  0
    8.1178  -18.5563   19.9778 O   0  0  0  0  0  0  0  0  0  0  0  0
    9.1559  -16.4660   20.1756 C   0  0  2  0  0  0  0  0  0  0  0  0
   10.3875  -17.1887   20.2649 N   0  0  0  0  0  0  0  0  0  0  0  0
    8.5774  -16.1726   21.5111 C   0  0  0  0  0  0  0  0  0  0  0  0
    7.5620  -15.4491   21.6458 O   0  0  0  0  0  0  0  0  0  0  0  0
    9.1814  -16.7203   22.6733 N   0  0  0  0  0  0  0  0  0  0  0  0
    8.7421  -16.4703   24.0051 C   0  0  0  0  0  0  0  0  0  0  0  0
    9.6492  -15.5937   24.7724 C   0  0  0  0  0  0  0  0  0  0  0  0
   10.8441  -15.4570   24.4079 O   0  0  0  0  0  0  0  0  0  0  0  0
    9.1882  -14.9005   25.9206 N   0  0  0  0  0  0  0  0  0  0  0  0
   10.0157  -14.0616   26.7432 C   0  0  1  0  0  0  0  0  0  0  0  0
    9.2336  -12.7848   27.0421 C   0  0  0  0  0  0  0  0  0  0  0  0
    7.4900  -13.1075   27.3309 S   0  0  0  0  0  0  0  0  0  0  0  0
   10.3165  -14.7120   28.0621 C   0  0  0  0  0  0  0  0  0  0  0  0
   11.0760  -14.1636   28.8993 O   0  0  0  0  0  0  0  0  0  0  0  0
    9.7509  -15.9324   28.3626 O   0  0  0  0  0  0  0  0  0  0  0  0
  2  1  1  6
  3  2  1  0
  4  6  1  0
  4  5  1  1
  4  2  1  0
  6  7  2  0
  8  9  1  0
  8  6  1  0
 10 11  2  0
 10  9  1  0
 12 10  1  0
 13 12  1  0
 13 14  1  1
 14 15  1  0
 16 13  1  0
 17 16  2  0
 18 16  1  0
M  END
$$$$
