TGC.pdb
     RDKit          3D

 18 17  0  0  1  0  0  0  0  0999 V2000
    7.3121  -19.3322   18.8625 C   0  0  0  0  0  0  0  0  0  0  0  0
    7.3053  -18.2015   19.8404 C   0  0  1  0  0  0  0  0  0  0  0  0
    6.0016  -17.6872   19.9197 O   0  0  0  0  0  0  0  0  0  0  0  0
    7.6462  -18.6921   21.2504 C   0  0  2  0  0  0  0  0  0  0  0  0
    6.6865  -19.6989   21.5856 N   0  0  0  0  0  0  0  0  0  0  0  0
    7.6501  -17.5716   22.2244 C   0  0  0  0  0  0  0  0  0  0  0  0
    8.4376  -16.6022   22.1119 O   0  0  0  0  0  0  0  0  0  0  0  0
    6.7425  -17.5875   23.3160 N   0  0  0  0  0  0  0  0  0  0  0  0
    6.6464  -16.5625   24.3006 C   0  0  0  0  0  0  0  0  0  0  0  0
    7.8829  -16.3793   25.0863 C   0  0  0  0  0  0  0  0  0  0  0  0
    8.8275  -17.1995   24.9670 O   0  0  0  0  0  0  0  0  0  0  0  0
    8.0198  -15.2850   25.9781 N   0  0  0  0  0  0  0  0  0  0  0  0
    9.2032  -15.0137   26.7468 C   0  0  1  0  0  0  0  0  0  0  0  0
    8.9089  -13.8179   27.6494 C   0  0  0  0  0  0  0  0  0  0  0  0
    8.1543  -12.4574   26.7508 S   0  0  0  0  0  0  0  0  0  0  0  0
    9.5512  -16.1662   27.6435 C   0  0  0  0  0  0  0  0  0  0  0  0
   10.6337  -16.1907   28.2806 O   0  0  0  0  0  0  0  0  0  0  0  0
    8.6691  -17.2174   27.7719 O   0  0  0  0  0  0  0  0  0  0  0  0
  2  1  1  6
  3  2  1  0
  4  6  1  0
  4  5  1  1
  4  2  1  0
  6  7  2  0
  8  9  1  0
  8  6  1  0
 10 11  2  0
 10  9  1  0
 12 10  1  0
 13 12  1  0
 13 14  1  1
 14 15  1  0
 16 13  1  0
 17 16  2  0
 18 16  1  0
M  END
$$$$
