TGC.pdb
     RDKit          3D

 18 17  0  0  1  0  0  0  0  0999 V2000
    9.1081  -12.7016   17.5950 C   0  0  0  0  0  0  0  0  0  0  0  0
    8.3162  -13.2552   18.7357 C   0  0  1  0  0  0  0  0  0  0  0  0
    6.9668  -13.3186   18.3538 O   0  0  0  0  0  0  0  0  0  0  0  0
    8.7302  -14.6969   19.0439 C   0  0  2  0  0  0  0  0  0  0  0  0
    8.5062  -15.4591   17.8539 N   0  0  0  0  0  0  0  0  0  0  0  0
    7.9809  -15.2358   20.2068 C   0  0  0  0  0  0  0  0  0  0  0  0
    7.0391  -16.0515   20.0643 O   0  0  0  0  0  0  0  0  0  0  0  0
    8.3311  -14.8236   21.5194 N   0  0  0  0  0  0  0  0  0  0  0  0
    7.6806  -15.2695   22.7057 C   0  0  0  0  0  0  0  0  0  0  0  0
    8.2476  -14.6958   23.9424 C   0  0  0  0  0  0  0  0  0  0  0  0
    9.3778  -14.1469   23.9168 O   0  0  0  0  0  0  0  0  0  0  0  0
    7.5307  -14.7560   25.1646 N   0  0  0  0  0  0  0  0  0  0  0  0
    7.7271  -13.8480   26.2610 C   0  0  1  0  0  0  0  0  0  0  0  0
    6.3853  -13.1855   26.5637 C   0  0  0  0  0  0  0  0  0  0  0  0
    6.5313  -11.8856   27.7951 S   0  0  0  0  0  0  0  0  0  0  0  0
    8.1499  -14.5736   27.5051 C   0  0  0  0  0  0  0  0  0  0  0  0
    8.9661  -14.0612   28.3111 O   0  0  0  0  0  0  0  0  0  0  0  0
    7.6351  -15.8243   27.7704 O   0  0  0  0  0  0  0  0  0  0  0  0
  2  1  1  6
  3  2  1  0
  4  6  1  0
  4  5  1  6
  4  2  1  0
  6  7  2  0
  8  9  1  0
  8  6  1  0
 10 11  2  0
 10  9  1  0
 12 10  1  0
 13 12  1  0
 13 14  1  1
 14 15  1  0
 16 13  1  0
 17 16  2  0
 18 16  1  0
M  END
$$$$
