TGC.pdb
     RDKit          3D

 18 17  0  0  1  0  0  0  0  0999 V2000
    8.9628  -12.6556   19.6812 C   0  0  0  0  0  0  0  0  0  0  0  0
    8.2911  -13.6608   18.8018 C   0  0  1  0  0  0  0  0  0  0  0  0
    9.0123  -13.7570   17.6014 O   0  0  0  0  0  0  0  0  0  0  0  0
    8.3368  -15.0572   19.4285 C   0  0  2  0  0  0  0  0  0  0  0  0
    7.8276  -15.9701   18.4516 N   0  0  0  0  0  0  0  0  0  0  0  0
    7.5673  -15.1037   20.6974 C   0  0  0  0  0  0  0  0  0  0  0  0
    6.3167  -15.0124   20.7144 O   0  0  0  0  0  0  0  0  0  0  0  0
    8.2550  -15.2554   21.9300 N   0  0  0  0  0  0  0  0  0  0  0  0
    7.6208  -15.3419   23.2027 C   0  0  0  0  0  0  0  0  0  0  0  0
    8.3103  -14.5767   24.2604 C   0  0  0  0  0  0  0  0  0  0  0  0
    9.4984  -14.2041   24.0899 O   0  0  0  0  0  0  0  0  0  0  0  0
    7.6471  -14.2548   25.4720 N   0  0  0  0  0  0  0  0  0  0  0  0
    8.2773  -13.6078   26.5897 C   0  0  1  0  0  0  0  0  0  0  0  0
    7.2034  -12.8249   27.3413 C   0  0  0  0  0  0  0  0  0  0  0  0
    5.6349  -12.8096   26.4653 S   0  0  0  0  0  0  0  0  0  0  0  0
    8.8470  -14.6083   27.5529 C   0  0  0  0  0  0  0  0  0  0  0  0
    8.5985  -15.8346   27.4396 O   0  0  0  0  0  0  0  0  0  0  0  0
    9.6575  -14.1766   28.5807 O   0  0  0  0  0  0  0  0  0  0  0  0
  2  1  1  1
  3  2  1  0
  4  6  1  0
  4  5  1  6
  4  2  1  0
  6  7  2  0
  8  9  1  0
  8  6  1  0
 10 11  2  0
 10  9  1  0
 12 10  1  0
 13 12  1  0
 13 14  1  1
 14 15  1  0
 16 13  1  0
 17 16  2  0
 18 16  1  0
M  END
$$$$
