TGC.pdb
     RDKit          3D

 18 17  0  0  1  0  0  0  0  0999 V2000
    8.5196  -12.7209   21.8572 C   0  0  0  0  0  0  0  0  0  0  0  0
    7.5956  -13.3784   20.8832 C   0  0  1  0  0  0  0  0  0  0  0  0
    7.7990  -12.8055   19.6179 O   0  0  0  0  0  0  0  0  0  0  0  0
    7.9292  -14.8646   20.7262 C   0  0  2  0  0  0  0  0  0  0  0  0
    7.1650  -15.3493   19.6179 N   0  0  0  0  0  0  0  0  0  0  0  0
    7.6466  -15.6151   21.9757 C   0  0  0  0  0  0  0  0  0  0  0  0
    6.4749  -15.8091   22.3782 O   0  0  0  0  0  0  0  0  0  0  0  0
    8.7236  -16.1312   22.7432 N   0  0  0  0  0  0  0  0  0  0  0  0
    8.5832  -17.0859   23.7911 C   0  0  0  0  0  0  0  0  0  0  0  0
    8.9490  -16.5615   25.1219 C   0  0  0  0  0  0  0  0  0  0  0  0
    9.0416  -17.3456   26.0997 O   0  0  0  0  0  0  0  0  0  0  0  0
    9.1984  -15.1785   25.3129 N   0  0  0  0  0  0  0  0  0  0  0  0
    9.6825  -14.6076   26.5395 C   0  0  1  0  0  0  0  0  0  0  0  0
    8.5522  -13.7798   27.1464 C   0  0  0  0  0  0  0  0  0  0  0  0
    8.1333  -12.3559   26.1342 S   0  0  0  0  0  0  0  0  0  0  0  0
   10.0338  -15.6714   27.5386 C   0  0  0  0  0  0  0  0  0  0  0  0
    9.1526  -16.2031   28.2593 O   0  0  0  0  0  0  0  0  0  0  0  0
   11.3454  -16.0739   27.6697 O   0  0  0  0  0  0  0  0  0  0  0  0
  2  1  1  1
  3  2  1  0
  4  6  1  0
  4  5  1  6
  4  2  1  0
  6  7  2  0
  8  9  1  0
  8  6  1  0
 10 11  2  0
 10  9  1  0
 12 10  1  0
 13 12  1  0
 13 14  1  1
 14 15  1  0
 16 13  1  0
 17 16  2  0
 18 16  1  0
M  END
$$$$
