TGC.pdb
     RDKit          3D

 18 17  0  0  1  0  0  0  0  0999 V2000
    8.5266  -12.4600   19.4591 C   0  0  0  0  0  0  0  0  0  0  0  0
    8.3180  -13.6748   18.6132 C   0  0  1  0  0  0  0  0  0  0  0  0
    9.2057  -13.6208   17.5271 O   0  0  0  0  0  0  0  0  0  0  0  0
    8.6780  -14.9489   19.3827 C   0  0  2  0  0  0  0  0  0  0  0  0
    8.6021  -16.0337   18.4529 N   0  0  0  0  0  0  0  0  0  0  0  0
    7.7820  -15.1445   20.5502 C   0  0  0  0  0  0  0  0  0  0  0  0
    6.6698  -15.7134   20.4403 O   0  0  0  0  0  0  0  0  0  0  0  0
    8.1846  -14.6793   21.8296 N   0  0  0  0  0  0  0  0  0  0  0  0
    7.3853  -14.7603   23.0060 C   0  0  0  0  0  0  0  0  0  0  0  0
    8.0731  -14.2836   24.2223 C   0  0  0  0  0  0  0  0  0  0  0  0
    9.3231  -14.1533   24.2241 O   0  0  0  0  0  0  0  0  0  0  0  0
    7.3390  -13.9691   25.3944 N   0  0  0  0  0  0  0  0  0  0  0  0
    7.9277  -13.4641   26.6041 C   0  0  1  0  0  0  0  0  0  0  0  0
    6.8200  -12.8025   27.4206 C   0  0  0  0  0  0  0  0  0  0  0  0
    5.8644  -11.6328   26.4479 S   0  0  0  0  0  0  0  0  0  0  0  0
    8.4911  -14.5729   27.4445 C   0  0  0  0  0  0  0  0  0  0  0  0
    8.2440  -15.7767   27.1833 O   0  0  0  0  0  0  0  0  0  0  0  0
    9.2939  -14.2677   28.5224 O   0  0  0  0  0  0  0  0  0  0  0  0
  2  1  1  1
  3  2  1  0
  4  6  1  0
  4  5  1  6
  4  2  1  0
  6  7  2  0
  8  9  1  0
  8  6  1  0
 10 11  2  0
 10  9  1  0
 12 10  1  0
 13 12  1  0
 13 14  1  1
 14 15  1  0
 16 13  1  0
 17 16  2  0
 18 16  1  0
M  END
$$$$
