TGC.pdb
     RDKit          3D

 18 17  0  0  1  0  0  0  0  0999 V2000
   10.8880  -13.4736   19.8371 C   0  0  0  0  0  0  0  0  0  0  0  0
   10.0330  -14.4723   19.1254 C   0  0  1  0  0  0  0  0  0  0  0  0
   10.0997  -15.6916   19.8178 O   0  0  0  0  0  0  0  0  0  0  0  0
    8.5598  -14.0557   19.1560 C   0  0  2  0  0  0  0  0  0  0  0  0
    8.4309  -12.9142   18.3031 N   0  0  0  0  0  0  0  0  0  0  0  0
    8.1074  -13.7765   20.5422 C   0  0  0  0  0  0  0  0  0  0  0  0
    8.3453  -12.6819   21.1060 O   0  0  0  0  0  0  0  0  0  0  0  0
    7.3859  -14.7677   21.2580 N   0  0  0  0  0  0  0  0  0  0  0  0
    6.7532  -14.5542   22.5164 C   0  0  0  0  0  0  0  0  0  0  0  0
    7.7012  -14.3028   23.6199 C   0  0  0  0  0  0  0  0  0  0  0  0
    8.9380  -14.3900   23.4146 O   0  0  0  0  0  0  0  0  0  0  0  0
    7.2330  -13.9626   24.9147 N   0  0  0  0  0  0  0  0  0  0  0  0
    8.0837  -13.7817   26.0587 C   0  0  1  0  0  0  0  0  0  0  0  0
    7.2649  -13.0849   27.1429 C   0  0  0  0  0  0  0  0  0  0  0  0
    6.4736  -11.5885   26.5411 S   0  0  0  0  0  0  0  0  0  0  0  0
    8.5309  -15.0985   26.6235 C   0  0  0  0  0  0  0  0  0  0  0  0
    8.0198  -16.1791   26.2369 O   0  0  0  0  0  0  0  0  0  0  0  0
    9.5196  -15.1255   27.5834 O   0  0  0  0  0  0  0  0  0  0  0  0
  2  1  1  1
  3  2  1  0
  4  6  1  0
  4  5  1  6
  4  2  1  0
  6  7  2  0
  8  9  1  0
  8  6  1  0
 10 11  2  0
 10  9  1  0
 12 10  1  0
 13 12  1  0
 13 14  1  1
 14 15  1  0
 16 13  1  0
 17 16  2  0
 18 16  1  0
M  END
$$$$
