TGC.pdb
     RDKit          3D

 18 17  0  0  1  0  0  0  0  0999 V2000
    2.8364  -19.1134   19.8537 C   0  0  0  0  0  0  0  0  0  0  0  0
    3.0479  -18.7456   21.2872 C   0  0  1  0  0  0  0  0  0  0  0  0
    2.3178  -19.6366   22.0895 O   0  0  0  0  0  0  0  0  0  0  0  0
    4.5139  -18.9271   21.6907 C   0  0  2  0  0  0  0  0  0  0  0  0
    4.5719  -18.8139   23.1158 N   0  0  0  0  0  0  0  0  0  0  0  0
    5.3863  -17.9361   21.0114 C   0  0  0  0  0  0  0  0  0  0  0  0
    6.1584  -18.2658   20.0799 O   0  0  0  0  0  0  0  0  0  0  0  0
    5.3537  -16.5767   21.4190 N   0  0  0  0  0  0  0  0  0  0  0  0
    6.1044  -15.5323   20.8064 C   0  0  0  0  0  0  0  0  0  0  0  0
    7.3420  -15.1883   21.5342 C   0  0  0  0  0  0  0  0  0  0  0  0
    8.0633  -14.2419   21.1298 O   0  0  0  0  0  0  0  0  0  0  0  0
    7.7301  -15.9147   22.6888 N   0  0  0  0  0  0  0  0  0  0  0  0
    8.8820  -15.6027   23.4893 C   0  0  1  0  0  0  0  0  0  0  0  0
    8.3871  -15.0224   24.8120 C   0  0  0  0  0  0  0  0  0  0  0  0
    7.4224  -13.5249   24.5788 S   0  0  0  0  0  0  0  0  0  0  0  0
    9.6717  -16.8361   23.8183 C   0  0  0  0  0  0  0  0  0  0  0  0
    9.2650  -17.9770   23.4846 O   0  0  0  0  0  0  0  0  0  0  0  0
   10.8646  -16.7177   24.4985 O   0  0  0  0  0  0  0  0  0  0  0  0
  2  1  1  6
  3  2  1  0
  4  6  1  0
  4  5  1  1
  4  2  1  0
  6  7  2  0
  8  9  1  0
  8  6  1  0
 10 11  2  0
 10  9  1  0
 12 10  1  0
 13 12  1  0
 13 14  1  1
 14 15  1  0
 16 13  1  0
 17 16  2  0
 18 16  1  0
M  END
$$$$
