TGC.pdb
     RDKit          3D

 18 17  0  0  1  0  0  0  0  0999 V2000
    8.6211  -12.4686   19.4415 C   0  0  0  0  0  0  0  0  0  0  0  0
    8.2451  -13.6364   18.5873 C   0  0  1  0  0  0  0  0  0  0  0  0
    9.0302  -13.6101   17.4239 O   0  0  0  0  0  0  0  0  0  0  0  0
    8.5786  -14.9580   19.2853 C   0  0  2  0  0  0  0  0  0  0  0  0
    8.4078  -15.9967   18.3163 N   0  0  0  0  0  0  0  0  0  0  0  0
    7.7290  -15.1627   20.4855 C   0  0  0  0  0  0  0  0  0  0  0  0
    6.5874  -15.6757   20.4061 O   0  0  0  0  0  0  0  0  0  0  0  0
    8.2114  -14.7711   21.7620 N   0  0  0  0  0  0  0  0  0  0  0  0
    7.5000  -14.9497   22.9832 C   0  0  0  0  0  0  0  0  0  0  0  0
    8.1948  -14.3903   24.1597 C   0  0  0  0  0  0  0  0  0  0  0  0
    9.4397  -14.5206   24.2718 O   0  0  0  0  0  0  0  0  0  0  0  0
    7.4731  -13.7046   25.1698 N   0  0  0  0  0  0  0  0  0  0  0  0
    7.9832  -13.4384   26.4866 C   0  0  1  0  0  0  0  0  0  0  0  0
    6.8725  -12.7657   27.2896 C   0  0  0  0  0  0  0  0  0  0  0  0
    5.9649  -11.5591   26.3161 S   0  0  0  0  0  0  0  0  0  0  0  0
    8.3378  -14.7081   27.2046 C   0  0  0  0  0  0  0  0  0  0  0  0
    7.8970  -15.8190   26.8173 O   0  0  0  0  0  0  0  0  0  0  0  0
    9.1613  -14.6570   28.3086 O   0  0  0  0  0  0  0  0  0  0  0  0
  2  1  1  1
  3  2  1  0
  4  6  1  0
  4  5  1  6
  4  2  1  0
  6  7  2  0
  8  9  1  0
  8  6  1  0
 10 11  2  0
 10  9  1  0
 12 10  1  0
 13 12  1  0
 13 14  1  1
 14 15  1  0
 16 13  1  0
 17 16  2  0
 18 16  1  0
M  END
$$$$
