TGC.pdb
     RDKit          3D

 18 17  0  0  1  0  0  0  0  0999 V2000
    8.4398  -19.1290   16.6516 C   0  0  0  0  0  0  0  0  0  0  0  0
    8.2411  -17.7580   17.2134 C   0  0  1  0  0  0  0  0  0  0  0  0
    6.8935  -17.3996   17.0511 O   0  0  0  0  0  0  0  0  0  0  0  0
    8.4983  -17.7397   18.7228 C   0  0  2  0  0  0  0  0  0  0  0  0
    7.5657  -18.6480   19.3163 N   0  0  0  0  0  0  0  0  0  0  0  0
    8.3752  -16.3666   19.2737 C   0  0  0  0  0  0  0  0  0  0  0  0
    9.1973  -15.4642   18.9866 O   0  0  0  0  0  0  0  0  0  0  0  0
    7.3023  -16.0555   20.1498 N   0  0  0  0  0  0  0  0  0  0  0  0
    7.0382  -14.7572   20.6732 C   0  0  0  0  0  0  0  0  0  0  0  0
    7.7052  -14.4927   21.9635 C   0  0  0  0  0  0  0  0  0  0  0  0
    7.5207  -13.3969   22.5504 O   0  0  0  0  0  0  0  0  0  0  0  0
    8.5554  -15.4631   22.5526 N   0  0  0  0  0  0  0  0  0  0  0  0
    9.2547  -15.2763   23.7940 C   0  0  1  0  0  0  0  0  0  0  0  0
    8.7228  -16.3058   24.7881 C   0  0  0  0  0  0  0  0  0  0  0  0
    7.0113  -15.9957   25.2377 S   0  0  0  0  0  0  0  0  0  0  0  0
   10.7254  -15.5335   23.6392 C   0  0  0  0  0  0  0  0  0  0  0  0
   11.2011  -15.9570   22.5563 O   0  0  0  0  0  0  0  0  0  0  0  0
   11.5712  -15.3016   24.7025 O   0  0  0  0  0  0  0  0  0  0  0  0
  2  1  1  1
  3  2  1  0
  4  6  1  0
  4  5  1  1
  4  2  1  0
  6  7  2  0
  8  9  1  0
  8  6  1  0
 10 11  2  0
 10  9  1  0
 12 10  1  0
 13 12  1  0
 13 14  1  1
 14 15  1  0
 16 13  1  0
 17 16  2  0
 18 16  1  0
M  END
$$$$
