TGC.pdb
     RDKit          3D

 18 17  0  0  1  0  0  0  0  0999 V2000
    8.2341  -12.7293   17.4980 C   0  0  0  0  0  0  0  0  0  0  0  0
    7.8296  -13.4579   18.7391 C   0  0  1  0  0  0  0  0  0  0  0  0
    7.6627  -14.8160   18.4256 O   0  0  0  0  0  0  0  0  0  0  0  0
    8.9395  -13.4068   19.7929 C   0  0  2  0  0  0  0  0  0  0  0  0
   10.0478  -14.1439   19.2681 N   0  0  0  0  0  0  0  0  0  0  0  0
    8.4714  -13.9453   21.0949 C   0  0  0  0  0  0  0  0  0  0  0  0
    7.5788  -13.3718   21.7636 O   0  0  0  0  0  0  0  0  0  0  0  0
    9.0421  -15.1403   21.6062 N   0  0  0  0  0  0  0  0  0  0  0  0
    8.5522  -15.8472   22.7418 C   0  0  0  0  0  0  0  0  0  0  0  0
    8.7932  -15.1509   24.0212 C   0  0  0  0  0  0  0  0  0  0  0  0
    9.9700  -14.9721   24.4244 O   0  0  0  0  0  0  0  0  0  0  0  0
    7.7098  -14.6788   24.8053 N   0  0  0  0  0  0  0  0  0  0  0  0
    7.8561  -14.0536   26.0908 C   0  0  1  0  0  0  0  0  0  0  0  0
    6.5276  -13.3862   26.4384 C   0  0  0  0  0  0  0  0  0  0  0  0
    6.7449  -11.9468   27.4913 S   0  0  0  0  0  0  0  0  0  0  0  0
    8.1342  -15.0652   27.1644 C   0  0  0  0  0  0  0  0  0  0  0  0
    7.6522  -16.2239   27.1065 O   0  0  0  0  0  0  0  0  0  0  0  0
    8.9320  -14.7192   28.2336 O   0  0  0  0  0  0  0  0  0  0  0  0
  2  1  1  6
  3  2  1  0
  4  6  1  0
  4  5  1  6
  4  2  1  0
  6  7  2  0
  8  9  1  0
  8  6  1  0
 10 11  2  0
 10  9  1  0
 12 10  1  0
 13 12  1  0
 13 14  1  1
 14 15  1  0
 16 13  1  0
 17 16  2  0
 18 16  1  0
M  END
$$$$
