DGL.pdb
     RDKit          3D

 21 20  0  0  1  0  0  0  0  0999 V2000
   16.0027  -13.1224  -16.2766 N   0  0  0  0  0  0  0  0  0  0  0  0
   17.2150  -13.7973  -15.8706 C   0  0  1  0  0  0  0  0  0  0  0  0
   17.3259  -15.1639  -16.5254 C   0  0  0  0  0  0  0  0  0  0  0  0
   16.5640  -16.1631  -15.7550 C   0  0  0  0  0  0  0  0  0  0  0  0
   15.3499  -15.9788  -15.5359 O   0  0  0  0  0  0  0  0  0  0  0  0
   18.3717  -12.9326  -16.2776 C   0  0  0  0  0  0  0  0  0  0  0  0
   19.5580  -13.2714  -16.0351 O   0  0  0  0  0  0  0  0  0  0  0  0
   17.1968  -17.2935  -15.2819 O   0  0  0  0  0  0  0  0  0  0  0  0
   18.1685  -11.6956  -16.9540 N   0  0  0  0  0  0  0  0  0  0  0  0
   19.2210  -10.8487  -17.4055 C   0  0  0  0  0  0  0  0  0  0  0  0
   20.1729  -10.3974  -16.3862 C   0  0  0  0  0  0  0  0  0  0  0  0
   19.8722  -10.4999  -15.1431 O   0  0  0  0  0  0  0  0  0  0  0  0
   26.2387   -9.9662  -15.5606 C   0  0  0  0  0  0  0  0  0  0  0  0
   24.8673   -9.7536  -14.9814 C   0  0  2  0  0  0  0  0  0  0  0  0
   24.7557  -10.4395  -13.6580 C   0  0  0  0  0  0  0  0  0  0  0  0
   23.7378   -9.9330  -15.8977 C   0  0  0  0  0  0  0  0  0  0  0  0
   22.3790   -9.4954  -15.5326 C   0  0  2  0  0  0  0  0  0  0  0  0
   21.4479   -9.8376  -16.6531 N   0  0  0  0  0  0  0  0  0  0  0  0
   22.1672   -8.0681  -15.2734 C   0  0  0  0  0  0  0  0  0  0  0  0
   21.9581   -7.2340  -16.2328 O   0  0  0  0  0  0  0  0  0  0  0  0
   22.1582   -7.4573  -14.0212 O   0  0  0  0  0  0  0  0  0  0  0  0
  2  1  1  6
  2  3  1  0
  3  4  1  0
  4  5  2  0
  4  8  1  0
  6  7  2  0
  6  2  1  0
  9  6  1  0
 10  9  1  0
 11 10  1  0
 11 18  1  0
 12 11  2  0
 14 13  1  6
 14 15  1  0
 16 14  1  0
 17 18  1  0
 17 16  1  6
 19 21  1  0
 19 17  1  0
 20 19  2  0
M  END
$$$$
