DGL.pdb
     RDKit          3D

 21 20  0  0  1  0  0  0  0  0999 V2000
   21.2410   -9.9506  -17.7420 N   0  0  0  0  0  0  0  0  0  0  0  0
   22.6769  -10.0815  -17.8482 C   0  0  1  0  0  0  0  0  0  0  0  0
   23.0614  -10.9378  -19.0431 C   0  0  0  0  0  0  0  0  0  0  0  0
   22.5724  -12.3164  -18.8623 C   0  0  0  0  0  0  0  0  0  0  0  0
   22.8121  -12.9218  -17.7982 O   0  0  0  0  0  0  0  0  0  0  0  0
   23.2469   -8.7015  -17.9952 C   0  0  0  0  0  0  0  0  0  0  0  0
   24.4862   -8.4969  -17.9384 O   0  0  0  0  0  0  0  0  0  0  0  0
   21.8542  -12.9276  -19.8687 O   0  0  0  0  0  0  0  0  0  0  0  0
   22.4049   -7.5717  -18.2048 N   0  0  0  0  0  0  0  0  0  0  0  0
   22.8715   -6.2274  -18.2679 C   0  0  0  0  0  0  0  0  0  0  0  0
   22.4965   -5.3575  -17.1492 C   0  0  0  0  0  0  0  0  0  0  0  0
   22.6784   -4.0905  -17.2381 O   0  0  0  0  0  0  0  0  0  0  0  0
   18.7309   -3.6777  -16.3382 C   0  0  0  0  0  0  0  0  0  0  0  0
   18.8985   -5.0542  -15.7562 C   0  0  2  0  0  0  0  0  0  0  0  0
   17.5621   -5.6490  -15.4486 C   0  0  0  0  0  0  0  0  0  0  0  0
   19.9244   -5.2034  -14.7205 C   0  0  0  0  0  0  0  0  0  0  0  0
   21.3253   -4.8205  -14.9700 C   0  0  2  0  0  0  0  0  0  0  0  0
   21.9263   -5.7998  -15.9288 N   0  0  0  0  0  0  0  0  0  0  0  0
   22.2393   -4.7874  -13.8243 C   0  0  0  0  0  0  0  0  0  0  0  0
   22.0216   -4.0204  -12.8122 O   0  0  0  0  0  0  0  0  0  0  0  0
   23.3998   -5.5450  -13.6823 O   0  0  0  0  0  0  0  0  0  0  0  0
  2  1  1  6
  2  3  1  0
  3  4  1  0
  4  5  2  0
  4  8  1  0
  6  7  2  0
  6  2  1  0
  9  6  1  0
 10  9  1  0
 11 10  1  0
 11 18  1  0
 12 11  2  0
 14 13  1  1
 14 15  1  0
 16 14  1  0
 17 18  1  0
 17 16  1  1
 19 21  1  0
 19 17  1  0
 20 19  2  0
M  END
$$$$
