DGL.pdb
     RDKit          3D

 21 20  0  0  1  0  0  0  0  0999 V2000
   17.9689  -12.3483  -18.1105 N   0  0  0  0  0  0  0  0  0  0  0  0
   17.1591  -11.9022  -16.9990 C   0  0  1  0  0  0  0  0  0  0  0  0
   17.3638  -12.7891  -15.7823 C   0  0  0  0  0  0  0  0  0  0  0  0
   16.3363  -13.8450  -15.7410 C   0  0  0  0  0  0  0  0  0  0  0  0
   16.3916  -14.7921  -16.5509 O   0  0  0  0  0  0  0  0  0  0  0  0
   17.5608  -10.4912  -16.6848 C   0  0  0  0  0  0  0  0  0  0  0  0
   16.9535   -9.8174  -15.8141 O   0  0  0  0  0  0  0  0  0  0  0  0
   15.3219  -13.7797  -14.8088 O   0  0  0  0  0  0  0  0  0  0  0  0
   18.6454   -9.8627  -17.3614 N   0  0  0  0  0  0  0  0  0  0  0  0
   19.1003   -8.5409  -17.0880 C   0  0  0  0  0  0  0  0  0  0  0  0
   20.0574   -8.3990  -15.9869 C   0  0  0  0  0  0  0  0  0  0  0  0
   20.0758   -9.2671  -15.0423 O   0  0  0  0  0  0  0  0  0  0  0  0
   25.5625   -9.1485  -15.4264 C   0  0  0  0  0  0  0  0  0  0  0  0
   24.3931   -8.6009  -14.6557 C   0  0  2  0  0  0  0  0  0  0  0  0
   24.1665   -9.4111  -13.4201 C   0  0  0  0  0  0  0  0  0  0  0  0
   23.1983   -8.2657  -15.4351 C   0  0  0  0  0  0  0  0  0  0  0  0
   22.1157   -7.4464  -14.8621 C   0  0  2  0  0  0  0  0  0  0  0  0
   21.0057   -7.3524  -15.8615 N   0  0  0  0  0  0  0  0  0  0  0  0
   22.4273   -6.0615  -14.4959 C   0  0  0  0  0  0  0  0  0  0  0  0
   22.1594   -5.0802  -15.2865 O   0  0  0  0  0  0  0  0  0  0  0  0
   23.0175   -5.6441  -13.3049 O   0  0  0  0  0  0  0  0  0  0  0  0
  2  1  1  6
  2  3  1  0
  3  4  1  0
  4  5  2  0
  4  8  1  0
  6  7  2  0
  6  2  1  0
  9  6  1  0
 10  9  1  0
 11 10  1  0
 11 18  1  0
 12 11  2  0
 14 13  1  6
 14 15  1  0
 16 14  1  0
 17 18  1  0
 17 16  1  6
 19 21  1  0
 19 17  1  0
 20 19  2  0
M  END
$$$$
