DGL.pdb
     RDKit          3D

 21 20  0  0  1  0  0  0  0  0999 V2000
   24.0586  -18.8878  -14.1560 N   0  0  0  0  0  0  0  0  0  0  0  0
   23.4745  -20.1729  -13.8438 C   0  0  1  0  0  0  0  0  0  0  0  0
   22.8722  -20.8155  -15.0820 C   0  0  0  0  0  0  0  0  0  0  0  0
   21.7251  -20.0242  -15.5618 C   0  0  0  0  0  0  0  0  0  0  0  0
   21.6795  -19.6643  -16.7553 O   0  0  0  0  0  0  0  0  0  0  0  0
   24.5641  -21.0416  -13.2875 C   0  0  0  0  0  0  0  0  0  0  0  0
   24.3198  -22.1917  -12.8423 O   0  0  0  0  0  0  0  0  0  0  0  0
   20.7109  -19.6872  -14.6900 O   0  0  0  0  0  0  0  0  0  0  0  0
   25.9161  -20.5950  -13.2433 N   0  0  0  0  0  0  0  0  0  0  0  0
   26.9926  -21.3568  -12.7050 C   0  0  0  0  0  0  0  0  0  0  0  0
   27.1219  -21.3552  -11.2450 C   0  0  0  0  0  0  0  0  0  0  0  0
   27.9981  -22.1045  -10.6817 O   0  0  0  0  0  0  0  0  0  0  0  0
   27.8913  -18.0904   -6.3976 C   0  0  0  0  0  0  0  0  0  0  0  0
   27.6010  -19.4576   -6.9526 C   0  0  2  0  0  0  0  0  0  0  0  0
   28.7114  -20.3980   -6.6105 C   0  0  0  0  0  0  0  0  0  0  0  0
   27.1140  -19.5103   -8.3337 C   0  0  0  0  0  0  0  0  0  0  0  0
   26.4838  -20.7265   -8.8771 C   0  0  2  0  0  0  0  0  0  0  0  0
   26.3409  -20.5711  -10.3587 N   0  0  0  0  0  0  0  0  0  0  0  0
   25.1456  -21.0779   -8.3923 C   0  0  0  0  0  0  0  0  0  0  0  0
   24.0832  -20.6828   -9.0046 O   0  0  0  0  0  0  0  0  0  0  0  0
   24.8602  -21.8497   -7.2681 O   0  0  0  0  0  0  0  0  0  0  0  0
  2  1  1  6
  2  3  1  0
  3  4  1  0
  4  5  2  0
  4  8  1  0
  6  7  2  0
  6  2  1  0
  9  6  1  0
 10  9  1  0
 11 10  1  0
 11 18  1  0
 12 11  2  0
 14 13  1  6
 14 15  1  0
 16 14  1  0
 17 18  1  0
 17 16  1  1
 19 21  1  0
 19 17  1  0
 20 19  2  0
M  END
$$$$
