DGL.pdb
     RDKit          3D

 21 20  0  0  1  0  0  0  0  0999 V2000
   23.8185  -18.5904  -17.6395 N   0  0  0  0  0  0  0  0  0  0  0  0
   24.3888  -17.5224  -16.8495 C   0  0  1  0  0  0  0  0  0  0  0  0
   23.4579  -17.1224  -15.7171 C   0  0  0  0  0  0  0  0  0  0  0  0
   22.0631  -17.0829  -16.1919 C   0  0  0  0  0  0  0  0  0  0  0  0
   21.8237  -17.1781  -17.4124 O   0  0  0  0  0  0  0  0  0  0  0  0
   25.6937  -18.0157  -16.2973 C   0  0  0  0  0  0  0  0  0  0  0  0
   26.0131  -17.8157  -15.0978 O   0  0  0  0  0  0  0  0  0  0  0  0
   21.0332  -16.9413  -15.2856 O   0  0  0  0  0  0  0  0  0  0  0  0
   26.6192  -18.7292  -17.1120 N   0  0  0  0  0  0  0  0  0  0  0  0
   27.7890  -19.3736  -16.6169 C   0  0  0  0  0  0  0  0  0  0  0  0
   27.5724  -20.5542  -15.7756 C   0  0  0  0  0  0  0  0  0  0  0  0
   28.5769  -21.2451  -15.3756 O   0  0  0  0  0  0  0  0  0  0  0  0
   27.0477  -22.0751  -11.4528 C   0  0  0  0  0  0  0  0  0  0  0  0
   25.8775  -21.3170  -12.0162 C   0  0  2  0  0  0  0  0  0  0  0  0
   24.8847  -21.0269  -10.9370 C   0  0  0  0  0  0  0  0  0  0  0  0
   25.3282  -21.8123  -13.2813 C   0  0  0  0  0  0  0  0  0  0  0  0
   26.2074  -22.1859  -14.4033 C   0  0  2  0  0  0  0  0  0  0  0  0
   26.3072  -21.0242  -15.3414 N   0  0  0  0  0  0  0  0  0  0  0  0
   25.8068  -23.3244  -15.2356 C   0  0  0  0  0  0  0  0  0  0  0  0
   24.7323  -23.2932  -15.9458 O   0  0  0  0  0  0  0  0  0  0  0  0
   26.5011  -24.5250  -15.3670 O   0  0  0  0  0  0  0  0  0  0  0  0
  2  1  1  1
  2  3  1  0
  3  4  1  0
  4  5  2  0
  4  8  1  0
  6  7  2  0
  6  2  1  0
  9  6  1  0
 10  9  1  0
 11 10  1  0
 11 18  1  0
 12 11  2  0
 14 13  1  1
 14 15  1  0
 16 14  1  0
 17 18  1  0
 17 16  1  1
 19 21  1  0
 19 17  1  0
 20 19  2  0
M  END
$$$$
