DGL.pdb
     RDKit          3D

 21 20  0  0  1  0  0  0  0  0999 V2000
   15.8538  -12.6649  -16.8148 N   0  0  0  0  0  0  0  0  0  0  0  0
   17.0858  -13.3845  -16.5818 C   0  0  1  0  0  0  0  0  0  0  0  0
   17.1855  -14.6046  -17.4820 C   0  0  0  0  0  0  0  0  0  0  0  0
   16.4239  -15.7276  -16.9066 C   0  0  0  0  0  0  0  0  0  0  0  0
   16.5452  -15.9994  -15.6952 O   0  0  0  0  0  0  0  0  0  0  0  0
   18.2195  -12.4418  -16.8600 C   0  0  0  0  0  0  0  0  0  0  0  0
   19.4145  -12.7821  -16.6678 O   0  0  0  0  0  0  0  0  0  0  0  0
   15.5833  -16.4699  -17.7096 O   0  0  0  0  0  0  0  0  0  0  0  0
   17.9836  -11.1260  -17.3522 N   0  0  0  0  0  0  0  0  0  0  0  0
   19.0115  -10.1802  -17.6308 C   0  0  0  0  0  0  0  0  0  0  0  0
   19.6333   -9.5371  -16.4696 C   0  0  0  0  0  0  0  0  0  0  0  0
   18.9632   -9.3946  -15.3848 O   0  0  0  0  0  0  0  0  0  0  0  0
   24.6096  -10.6591  -14.9545 C   0  0  0  0  0  0  0  0  0  0  0  0
   23.3928   -9.9828  -14.3859 C   0  0  2  0  0  0  0  0  0  0  0  0
   22.3387  -10.9961  -14.0759 C   0  0  0  0  0  0  0  0  0  0  0  0
   22.9396   -8.7708  -15.0737 C   0  0  0  0  0  0  0  0  0  0  0  0
   21.5078   -8.4365  -15.1719 C   0  0  2  0  0  0  0  0  0  0  0  0
   20.9601   -9.0388  -16.4276 N   0  0  0  0  0  0  0  0  0  0  0  0
   21.1393   -7.0187  -15.2280 C   0  0  0  0  0  0  0  0  0  0  0  0
   20.8946   -6.4311  -16.3482 O   0  0  0  0  0  0  0  0  0  0  0  0
   21.0058   -6.1650  -14.1351 O   0  0  0  0  0  0  0  0  0  0  0  0
  2  1  1  6
  2  3  1  0
  3  4  1  0
  4  5  2  0
  4  8  1  0
  6  7  2  0
  6  2  1  0
  9  6  1  0
 10  9  1  0
 11 10  1  0
 11 18  1  0
 12 11  2  0
 14 13  1  6
 14 15  1  0
 16 14  1  0
 17 18  1  0
 17 16  1  6
 19 21  1  0
 19 17  1  0
 20 19  2  0
M  END
$$$$
