DGL.pdb
     RDKit          3D

 21 20  0  0  1  0  0  0  0  0999 V2000
   43.2786   -8.2337   -8.0241 N   0  0  0  0  0  0  0  0  0  0  0  0
   44.6075   -8.0422   -7.4881 C   0  0  1  0  0  0  0  0  0  0  0  0
   44.5735   -7.1837   -6.2349 C   0  0  0  0  0  0  0  0  0  0  0  0
   44.1782   -5.8042   -6.5710 C   0  0  0  0  0  0  0  0  0  0  0  0
   44.4410   -5.3446   -7.7005 O   0  0  0  0  0  0  0  0  0  0  0  0
   45.1672   -9.3979   -7.1721 C   0  0  0  0  0  0  0  0  0  0  0  0
   46.3858   -9.5560   -6.9058 O   0  0  0  0  0  0  0  0  0  0  0  0
   43.5214   -5.0312   -5.6365 O   0  0  0  0  0  0  0  0  0  0  0  0
   44.3383  -10.5564   -7.1620 N   0  0  0  0  0  0  0  0  0  0  0  0
   44.8148  -11.8787   -6.9312 C   0  0  0  0  0  0  0  0  0  0  0  0
   45.7758  -12.4014   -7.9069 C   0  0  0  0  0  0  0  0  0  0  0  0
   45.6002  -12.1768   -9.1580 O   0  0  0  0  0  0  0  0  0  0  0  0
   49.2009  -13.6540  -11.2405 C   0  0  0  0  0  0  0  0  0  0  0  0
   49.7052  -12.7646  -10.1378 C   0  0  2  0  0  0  0  0  0  0  0  0
   51.1700  -12.9798   -9.9325 C   0  0  0  0  0  0  0  0  0  0  0  0
   48.8863  -12.7032   -8.9241 C   0  0  0  0  0  0  0  0  0  0  0  0
   47.8187  -13.6868   -8.6705 C   0  0  2  0  0  0  0  0  0  0  0  0
   46.9298  -13.1607   -7.5876 N   0  0  0  0  0  0  0  0  0  0  0  0
   48.2154  -15.0278   -8.2305 C   0  0  0  0  0  0  0  0  0  0  0  0
   48.3907  -15.3023   -6.9840 O   0  0  0  0  0  0  0  0  0  0  0  0
   48.4379  -16.1268   -9.0574 O   0  0  0  0  0  0  0  0  0  0  0  0
  2  1  1  1
  2  3  1  0
  3  4  1  0
  4  5  2  0
  4  8  1  0
  6  7  2  0
  6  2  1  0
  9  6  1  0
 10  9  1  0
 11 10  1  0
 11 18  1  0
 12 11  2  0
 14 13  1  6
 14 15  1  0
 16 14  1  0
 17 18  1  0
 17 16  1  1
 19 21  1  0
 19 17  1  0
 20 19  2  0
M  END
$$$$
