DGL.pdb
     RDKit          3D

 21 20  0  0  1  0  0  0  0  0999 V2000
   14.7867  -11.2736  -14.4015 N   0  0  0  0  0  0  0  0  0  0  0  0
   16.1537  -11.3347  -14.8682 C   0  0  1  0  0  0  0  0  0  0  0  0
   16.2691  -12.2006  -16.1115 C   0  0  0  0  0  0  0  0  0  0  0  0
   15.9609  -13.6048  -15.7867 C   0  0  0  0  0  0  0  0  0  0  0  0
   15.8608  -13.9547  -14.5935 O   0  0  0  0  0  0  0  0  0  0  0  0
   16.5908   -9.9319  -15.1718 C   0  0  0  0  0  0  0  0  0  0  0  0
   15.9094   -9.1817  -15.9160 O   0  0  0  0  0  0  0  0  0  0  0  0
   15.7853  -14.5217  -16.8019 O   0  0  0  0  0  0  0  0  0  0  0  0
   17.7943   -9.3980  -14.6280 N   0  0  0  0  0  0  0  0  0  0  0  0
   18.3781   -8.1646  -15.0363 C   0  0  0  0  0  0  0  0  0  0  0  0
   19.6425   -7.8002  -14.3904 C   0  0  0  0  0  0  0  0  0  0  0  0
   19.9259   -8.2726  -13.2316 O   0  0  0  0  0  0  0  0  0  0  0  0
   23.2973   -9.4950  -14.9953 C   0  0  0  0  0  0  0  0  0  0  0  0
   23.1395   -8.2872  -15.8772 C   0  0  2  0  0  0  0  0  0  0  0  0
   24.1099   -8.3487  -17.0125 C   0  0  0  0  0  0  0  0  0  0  0  0
   23.0240   -6.9943  -15.1971 C   0  0  0  0  0  0  0  0  0  0  0  0
   21.9294   -6.7236  -14.2485 C   0  0  2  0  0  0  0  0  0  0  0  0
   20.6244   -6.9423  -14.9474 N   0  0  0  0  0  0  0  0  0  0  0  0
   21.8412   -5.3783  -13.6725 C   0  0  0  0  0  0  0  0  0  0  0  0
   21.0046   -4.5077  -14.1220 O   0  0  0  0  0  0  0  0  0  0  0  0
   22.6055   -4.8904  -12.6148 O   0  0  0  0  0  0  0  0  0  0  0  0
  2  1  1  6
  2  3  1  0
  3  4  1  0
  4  5  2  0
  4  8  1  0
  6  7  2  0
  6  2  1  0
  9  6  1  0
 10  9  1  0
 11 10  1  0
 11 18  1  0
 12 11  2  0
 14 13  1  1
 14 15  1  0
 16 14  1  0
 17 18  1  0
 17 16  1  6
 19 21  1  0
 19 17  1  0
 20 19  2  0
M  END
$$$$
