DGL.pdb
     RDKit          3D

 21 20  0  0  1  0  0  0  0  0999 V2000
   16.7877  -13.6445  -17.1037 N   0  0  0  0  0  0  0  0  0  0  0  0
   17.4519  -13.0217  -18.2267 C   0  0  1  0  0  0  0  0  0  0  0  0
   16.5761  -13.0557  -19.4680 C   0  0  0  0  0  0  0  0  0  0  0  0
   16.4466  -14.4374  -19.9644 C   0  0  0  0  0  0  0  0  0  0  0  0
   17.4637  -15.1507  -20.0767 O   0  0  0  0  0  0  0  0  0  0  0  0
   17.7526  -11.6025  -17.8438 C   0  0  0  0  0  0  0  0  0  0  0  0
   18.5901  -10.9166  -18.4832 O   0  0  0  0  0  0  0  0  0  0  0  0
   15.2041  -14.9323  -20.3012 O   0  0  0  0  0  0  0  0  0  0  0  0
   17.1000  -10.9797  -16.7414 N   0  0  0  0  0  0  0  0  0  0  0  0
   17.3041   -9.6246  -16.3529 C   0  0  0  0  0  0  0  0  0  0  0  0
   18.2996   -9.3940  -15.3019 C   0  0  0  0  0  0  0  0  0  0  0  0
   18.2929  -10.1234  -14.2463 O   0  0  0  0  0  0  0  0  0  0  0  0
   22.7170  -10.4813  -13.3751 C   0  0  0  0  0  0  0  0  0  0  0  0
   22.5003  -10.4274  -14.8623 C   0  0  2  0  0  0  0  0  0  0  0  0
   23.7170   -9.8848  -15.5401 C   0  0  0  0  0  0  0  0  0  0  0  0
   21.2154   -9.8869  -15.3144 C   0  0  0  0  0  0  0  0  0  0  0  0
   20.6527   -8.6581  -14.7271 C   0  0  2  0  0  0  0  0  0  0  0  0
   19.3127   -8.4029  -15.3426 N   0  0  0  0  0  0  0  0  0  0  0  0
   21.4041   -7.4113  -14.9010 C   0  0  0  0  0  0  0  0  0  0  0  0
   22.2287   -6.9924  -14.0041 O   0  0  0  0  0  0  0  0  0  0  0  0
   21.3345   -6.5621  -16.0032 O   0  0  0  0  0  0  0  0  0  0  0  0
  2  1  1  1
  2  3  1  0
  3  4  1  0
  4  5  2  0
  4  8  1  0
  6  7  2  0
  6  2  1  0
  9  6  1  0
 10  9  1  0
 11 10  1  0
 11 18  1  0
 12 11  2  0
 14 13  1  1
 14 15  1  0
 16 14  1  0
 17 18  1  0
 17 16  1  6
 19 21  1  0
 19 17  1  0
 20 19  2  0
M  END
$$$$
