DGL.pdb
     RDKit          3D

 21 20  0  0  1  0  0  0  0  0999 V2000
   13.7358  -11.2122  -17.5783 N   0  0  0  0  0  0  0  0  0  0  0  0
   14.5804  -12.0406  -16.7472 C   0  0  1  0  0  0  0  0  0  0  0  0
   14.4495  -13.5068  -17.1240 C   0  0  0  0  0  0  0  0  0  0  0  0
   14.9685  -14.3610  -16.0407 C   0  0  0  0  0  0  0  0  0  0  0  0
   16.1749  -14.2989  -15.7298 O   0  0  0  0  0  0  0  0  0  0  0  0
   15.9954  -11.5806  -16.9404 C   0  0  0  0  0  0  0  0  0  0  0  0
   16.4901  -11.4534  -18.0893 O   0  0  0  0  0  0  0  0  0  0  0  0
   14.1186  -15.2223  -15.3787 O   0  0  0  0  0  0  0  0  0  0  0  0
   16.8308  -11.2708  -15.8290 N   0  0  0  0  0  0  0  0  0  0  0  0
   18.1664  -10.7891  -15.9422 C   0  0  0  0  0  0  0  0  0  0  0  0
   18.4107   -9.4317  -15.4458 C   0  0  0  0  0  0  0  0  0  0  0  0
   17.4522   -8.7656  -14.9129 O   0  0  0  0  0  0  0  0  0  0  0  0
   22.4046   -5.3450  -13.7174 C   0  0  0  0  0  0  0  0  0  0  0  0
   21.3021   -6.2197  -13.1875 C   0  0  2  0  0  0  0  0  0  0  0  0
   21.4904   -6.4545  -11.7233 C   0  0  0  0  0  0  0  0  0  0  0  0
   20.9613   -7.3970  -13.9906 C   0  0  0  0  0  0  0  0  0  0  0  0
   19.8077   -7.3902  -14.9075 C   0  0  2  0  0  0  0  0  0  0  0  0
   19.6567   -8.7570  -15.4979 N   0  0  0  0  0  0  0  0  0  0  0  0
   19.8497   -6.4750  -16.0520 C   0  0  0  0  0  0  0  0  0  0  0  0
   19.9534   -6.9123  -17.2594 O   0  0  0  0  0  0  0  0  0  0  0  0
   19.7806   -5.0849  -15.9899 O   0  0  0  0  0  0  0  0  0  0  0  0
  2  1  1  6
  2  3  1  0
  3  4  1  0
  4  5  2  0
  4  8  1  0
  6  7  2  0
  6  2  1  0
  9  6  1  0
 10  9  1  0
 11 10  1  0
 11 18  1  0
 12 11  2  0
 14 13  1  6
 14 15  1  0
 16 14  1  0
 17 18  1  0
 17 16  1  6
 19 21  1  0
 19 17  1  0
 20 19  2  0
M  END
$$$$
