EQQ.pdb
     RDKit          3D

 28 27  0  0  1  0  0  0  0  0999 V2000
   26.9484  -19.6879  -15.0029 N   0  0  0  0  0  0  0  0  0  0  0  0
   26.4806  -20.9534  -15.5280 C   0  0  1  0  0  0  0  0  0  0  0  0
   27.6035  -21.9665  -15.5803 C   0  0  0  0  0  0  0  0  0  0  0  0
   28.6128  -21.6541  -16.6497 C   0  0  0  0  0  0  0  0  0  0  0  0
   29.6175  -22.7403  -16.6328 C   0  0  0  0  0  0  0  0  0  0  0  0
   30.5660  -22.7391  -17.4408 O   0  0  0  0  0  0  0  0  0  0  0  0
   25.4852  -21.5080  -14.5845 C   0  0  0  0  0  0  0  0  0  0  0  0
   24.9524  -22.6117  -14.8485 O   0  0  0  0  0  0  0  0  0  0  0  0
   29.5458  -23.8031  -15.7270 O   0  0  0  0  0  0  0  0  0  0  0  0
   25.4495  -20.8890   -8.6163 N   0  0  0  0  0  0  0  0  0  0  0  0
   26.4800  -20.9019   -9.5845 C   0  0  0  0  0  0  0  0  0  0  0  0
   27.6766  -20.8386   -9.2107 O   0  0  0  0  0  0  0  0  0  0  0  0
   26.1118  -20.9904  -11.0256 C   0  0  0  0  0  0  0  0  0  0  0  0
   24.6312  -21.1781  -11.1295 C   0  0  0  0  0  0  0  0  0  0  0  0
   24.1013  -21.2040  -12.5224 C   0  0  2  0  0  0  0  0  0  0  0  0
   25.1645  -20.7836  -13.4209 N   0  0  0  0  0  0  0  0  0  0  0  0
   22.9003  -20.3938  -12.7619 C   0  0  0  0  0  0  0  0  0  0  0  0
   22.9821  -19.1539  -12.9582 O   0  0  0  0  0  0  0  0  0  0  0  0
   21.7378  -19.0576  -17.4647 N   0  0  0  0  0  0  0  0  0  0  0  0
   20.5060  -19.4421  -16.8924 C   0  0  0  0  0  0  0  0  0  0  0  0
   19.4433  -19.1251  -17.4919 O   0  0  0  0  0  0  0  0  0  0  0  0
   20.4333  -20.1929  -15.6429 C   0  0  0  0  0  0  0  0  0  0  0  0
   20.6145  -19.4145  -14.3847 C   0  0  0  0  0  0  0  0  0  0  0  0
   20.3925  -20.1506  -13.1059 C   0  0  2  0  0  0  0  0  0  0  0  0
   21.5840  -20.9527  -12.7874 N   0  0  0  0  0  0  0  0  0  0  0  0
   19.1647  -20.8819  -12.9099 C   0  0  0  0  0  0  0  0  0  0  0  0
   17.8886  -20.4006  -12.7059 O   0  0  0  0  0  0  0  0  0  0  0  0
   19.2491  -22.1637  -12.9129 O   0  0  0  0  0  0  0  0  0  0  0  0
  2  1  1  1
  2  7  1  0
  3  2  1  0
  3  4  1  0
  5  4  1  0
  5  9  1  0
  6  5  2  0
  7  8  2  0
  7 16  1  0
 10 11  1  0
 11 12  2  0
 13 14  1  0
 13 11  1  0
 15 17  1  0
 15 14  1  1
 16 15  1  0
 17 18  2  0
 20 19  1  0
 20 21  2  0
 22 20  1  0
 23 22  1  0
 24 23  1  6
 25 24  1  0
 25 17  1  0
 26 24  1  0
 26 27  1  0
 28 26  2  0
M  END
$$$$
