EQQ.pdb
     RDKit          3D

 28 27  0  0  1  0  0  0  0  0999 V2000
   23.6839  -12.3384  -17.6916 N   0  0  0  0  0  0  0  0  0  0  0  0
   23.3362  -11.8318  -19.0026 C   0  0  1  0  0  0  0  0  0  0  0  0
   23.1367  -12.9647  -19.9857 C   0  0  0  0  0  0  0  0  0  0  0  0
   24.1577  -14.0560  -19.8231 C   0  0  0  0  0  0  0  0  0  0  0  0
   23.8542  -15.0925  -20.8347 C   0  0  0  0  0  0  0  0  0  0  0  0
   22.8563  -14.9848  -21.5729 O   0  0  0  0  0  0  0  0  0  0  0  0
   22.0260  -11.1516  -18.9049 C   0  0  0  0  0  0  0  0  0  0  0  0
   21.5354  -10.6348  -19.9365 O   0  0  0  0  0  0  0  0  0  0  0  0
   24.6582  -16.2244  -21.0013 O   0  0  0  0  0  0  0  0  0  0  0  0
   17.3903  -13.0141  -15.7220 N   0  0  0  0  0  0  0  0  0  0  0  0
   17.8677  -13.4440  -16.9818 C   0  0  0  0  0  0  0  0  0  0  0  0
   17.4773  -14.5431  -17.4454 O   0  0  0  0  0  0  0  0  0  0  0  0
   18.8241  -12.5748  -17.7232 C   0  0  0  0  0  0  0  0  0  0  0  0
   19.1308  -11.3761  -16.8821 C   0  0  0  0  0  0  0  0  0  0  0  0
   20.0979  -10.4181  -17.4893 C   0  0  2  0  0  0  0  0  0  0  0  0
   21.3690  -11.1032  -17.6609 N   0  0  0  0  0  0  0  0  0  0  0  0
   20.3047   -9.1670  -16.7488 C   0  0  0  0  0  0  0  0  0  0  0  0
   20.0509   -9.0910  -15.5190 O   0  0  0  0  0  0  0  0  0  0  0  0
   20.9460   -6.6966  -12.8338 N   0  0  0  0  0  0  0  0  0  0  0  0
   22.0869   -5.9990  -13.2859 C   0  0  0  0  0  0  0  0  0  0  0  0
   22.5536   -5.0811  -12.5587 O   0  0  0  0  0  0  0  0  0  0  0  0
   22.7346   -6.3137  -14.5553 C   0  0  0  0  0  0  0  0  0  0  0  0
   22.0697   -7.3399  -15.4079 C   0  0  0  0  0  0  0  0  0  0  0  0
   21.3095   -6.8365  -16.5890 C   0  0  2  0  0  0  0  0  0  0  0  0
   20.7997   -7.9763  -17.3673 N   0  0  0  0  0  0  0  0  0  0  0  0
   21.8877   -5.8114  -17.4231 C   0  0  0  0  0  0  0  0  0  0  0  0
   21.9384   -4.4488  -17.2177 O   0  0  0  0  0  0  0  0  0  0  0  0
   22.4295   -6.1982  -18.5218 O   0  0  0  0  0  0  0  0  0  0  0  0
  2  1  1  1
  2  7  1  0
  3  2  1  0
  3  4  1  0
  5  4  1  0
  5  9  1  0
  6  5  2  0
  7  8  2  0
  7 16  1  0
 10 11  1  0
 11 12  2  0
 13 14  1  0
 13 11  1  0
 15 17  1  0
 15 14  1  1
 16 15  1  0
 17 18  2  0
 20 19  1  0
 20 21  2  0
 22 20  1  0
 23 22  1  0
 24 23  1  1
 25 24  1  0
 25 17  1  0
 26 24  1  0
 26 27  1  0
 28 26  2  0
M  END
$$$$
