EQQ.pdb
     RDKit          3D

 28 27  0  0  1  0  0  0  0  0999 V2000
   17.9375  -12.2693  -14.3545 N   0  0  0  0  0  0  0  0  0  0  0  0
   18.0624  -10.9467  -14.9300 C   0  0  1  0  0  0  0  0  0  0  0  0
   18.0836  -11.0135  -16.4417 C   0  0  0  0  0  0  0  0  0  0  0  0
   19.0270  -12.0632  -16.9595 C   0  0  0  0  0  0  0  0  0  0  0  0
   18.9999  -11.9845  -18.4368 C   0  0  0  0  0  0  0  0  0  0  0  0
   19.2099  -10.9025  -19.0179 O   0  0  0  0  0  0  0  0  0  0  0  0
   16.8513  -10.1722  -14.5808 C   0  0  0  0  0  0  0  0  0  0  0  0
   16.1849   -9.6450  -15.5027 O   0  0  0  0  0  0  0  0  0  0  0  0
   18.7362  -13.1022  -19.2346 O   0  0  0  0  0  0  0  0  0  0  0  0
   13.0575  -12.5036  -10.9679 N   0  0  0  0  0  0  0  0  0  0  0  0
   12.4954  -11.2152  -10.8149 C   0  0  0  0  0  0  0  0  0  0  0  0
   11.4484  -11.0770  -10.1365 O   0  0  0  0  0  0  0  0  0  0  0  0
   13.1664  -10.0557  -11.4672 C   0  0  0  0  0  0  0  0  0  0  0  0
   14.4459  -10.5283  -12.0818 C   0  0  0  0  0  0  0  0  0  0  0  0
   15.2028   -9.4840  -12.8291 C   0  0  2  0  0  0  0  0  0  0  0  0
   16.4822  -10.0484  -13.2281 N   0  0  0  0  0  0  0  0  0  0  0  0
   15.4197   -8.2203  -12.1134 C   0  0  0  0  0  0  0  0  0  0  0  0
   16.3826   -8.0831  -11.3155 O   0  0  0  0  0  0  0  0  0  0  0  0
   13.7054   -6.3460   -7.3079 N   0  0  0  0  0  0  0  0  0  0  0  0
   14.3350   -5.1610   -7.7460 C   0  0  0  0  0  0  0  0  0  0  0  0
   14.6020   -4.2743   -6.8906 O   0  0  0  0  0  0  0  0  0  0  0  0
   14.6851   -4.9420   -9.1459 C   0  0  0  0  0  0  0  0  0  0  0  0
   14.4010   -6.0615  -10.0882 C   0  0  0  0  0  0  0  0  0  0  0  0
   14.7598   -5.8375  -11.5192 C   0  0  2  0  0  0  0  0  0  0  0  0
   14.5657   -7.0846  -12.2754 N   0  0  0  0  0  0  0  0  0  0  0  0
   16.0008   -5.1792  -11.8469 C   0  0  0  0  0  0  0  0  0  0  0  0
   17.2472   -5.3403  -11.2796 O   0  0  0  0  0  0  0  0  0  0  0  0
   15.9613   -4.3093  -12.7914 O   0  0  0  0  0  0  0  0  0  0  0  0
  2  1  1  1
  2  7  1  0
  3  2  1  0
  3  4  1  0
  5  4  1  0
  5  9  1  0
  6  5  2  0
  7  8  2  0
  7 16  1  0
 10 11  1  0
 11 12  2  0
 13 14  1  0
 13 11  1  0
 15 17  1  0
 15 14  1  1
 16 15  1  0
 17 18  2  0
 20 19  1  0
 20 21  2  0
 22 20  1  0
 23 22  1  0
 24 23  1  1
 25 24  1  0
 25 17  1  0
 26 24  1  0
 26 27  1  0
 28 26  2  0
M  END
$$$$
