EQQ.pdb
     RDKit          3D

 28 27  0  0  1  0  0  0  0  0999 V2000
   17.0278  -10.0964  -15.9259 N   0  0  0  0  0  0  0  0  0  0  0  0
   16.2964  -10.5634  -14.7670 C   0  0  1  0  0  0  0  0  0  0  0  0
   16.4610  -12.0570  -14.5883 C   0  0  0  0  0  0  0  0  0  0  0  0
   16.9986  -12.7297  -15.8205 C   0  0  0  0  0  0  0  0  0  0  0  0
   17.0920  -14.1761  -15.5232 C   0  0  0  0  0  0  0  0  0  0  0  0
   18.2016  -14.7203  -15.3644 O   0  0  0  0  0  0  0  0  0  0  0  0
   16.8942   -9.9480  -13.5618 C   0  0  0  0  0  0  0  0  0  0  0  0
   16.5296  -10.3532  -12.4328 O   0  0  0  0  0  0  0  0  0  0  0  0
   15.9573  -14.9859  -15.4141 O   0  0  0  0  0  0  0  0  0  0  0  0
   21.9160   -6.4383  -14.0063 N   0  0  0  0  0  0  0  0  0  0  0  0
   21.6766   -6.2315  -12.6281 C   0  0  0  0  0  0  0  0  0  0  0  0
   22.4553   -5.4981  -11.9714 O   0  0  0  0  0  0  0  0  0  0  0  0
   20.5018   -6.8939  -11.9948 C   0  0  0  0  0  0  0  0  0  0  0  0
   19.7284   -7.6109  -13.0560 C   0  0  0  0  0  0  0  0  0  0  0  0
   18.5009   -8.3048  -12.5729 C   0  0  2  0  0  0  0  0  0  0  0  0
   17.8519   -8.9279  -13.7154 N   0  0  0  0  0  0  0  0  0  0  0  0
   17.5363   -7.4642  -11.8523 C   0  0  0  0  0  0  0  0  0  0  0  0
   16.9468   -6.5133  -12.4276 O   0  0  0  0  0  0  0  0  0  0  0  0
   12.9413   -9.1202   -8.1058 N   0  0  0  0  0  0  0  0  0  0  0  0
   13.0251   -7.7304   -7.8729 C   0  0  0  0  0  0  0  0  0  0  0  0
   12.1345   -7.1880   -7.1646 O   0  0  0  0  0  0  0  0  0  0  0  0
   14.1066   -6.9173   -8.4202 C   0  0  0  0  0  0  0  0  0  0  0  0
   15.1621   -7.6385   -9.1868 C   0  0  0  0  0  0  0  0  0  0  0  0
   16.2647   -6.8062   -9.7508 C   0  0  2  0  0  0  0  0  0  0  0  0
   17.2108   -7.6694  -10.4748 N   0  0  0  0  0  0  0  0  0  0  0  0
   16.9289   -5.8408   -8.9096 C   0  0  0  0  0  0  0  0  0  0  0  0
   18.2477   -5.7974   -8.5090 O   0  0  0  0  0  0  0  0  0  0  0  0
   16.2078   -4.8822   -8.4498 O   0  0  0  0  0  0  0  0  0  0  0  0
  2  1  1  6
  2  7  1  0
  3  2  1  0
  3  4  1  0
  5  4  1  0
  5  9  1  0
  6  5  2  0
  7  8  2  0
  7 16  1  0
 10 11  1  0
 11 12  2  0
 13 14  1  0
 13 11  1  0
 15 17  1  0
 15 14  1  6
 16 15  1  0
 17 18  2  0
 20 19  1  0
 20 21  2  0
 22 20  1  0
 23 22  1  0
 24 23  1  1
 25 24  1  0
 25 17  1  0
 26 24  1  0
 26 27  1  0
 28 26  2  0
M  END
$$$$
