EQQ.pdb
     RDKit          3D

 28 27  0  0  1  0  0  0  0  0999 V2000
   19.1370  -25.8078  -14.7069 N   0  0  0  0  0  0  0  0  0  0  0  0
   18.4986  -24.8317  -13.8490 C   0  0  1  0  0  0  0  0  0  0  0  0
   18.2050  -25.4187  -12.4855 C   0  0  0  0  0  0  0  0  0  0  0  0
   18.3333  -26.9164  -12.4624 C   0  0  0  0  0  0  0  0  0  0  0  0
   18.7995  -27.2941  -11.1099 C   0  0  0  0  0  0  0  0  0  0  0  0
   19.0707  -26.4191  -10.2654 O   0  0  0  0  0  0  0  0  0  0  0  0
   19.4537  -23.7271  -13.6117 C   0  0  0  0  0  0  0  0  0  0  0  0
   19.1373  -22.8171  -12.8095 O   0  0  0  0  0  0  0  0  0  0  0  0
   18.9593  -28.6293  -10.7263 O   0  0  0  0  0  0  0  0  0  0  0  0
   25.3243  -24.0694  -15.3665 N   0  0  0  0  0  0  0  0  0  0  0  0
   25.3212  -22.6968  -15.0267 C   0  0  0  0  0  0  0  0  0  0  0  0
   26.3935  -22.0468  -15.0816 O   0  0  0  0  0  0  0  0  0  0  0  0
   24.0390  -22.0615  -14.6116 C   0  0  0  0  0  0  0  0  0  0  0  0
   22.9640  -23.1020  -14.6258 C   0  0  0  0  0  0  0  0  0  0  0  0
   21.6241  -22.6216  -14.1835 C   0  0  2  0  0  0  0  0  0  0  0  0
   20.6865  -23.7280  -14.2910 N   0  0  0  0  0  0  0  0  0  0  0  0
   21.0976  -21.4538  -14.9014 C   0  0  0  0  0  0  0  0  0  0  0  0
   20.5282  -21.5795  -16.0162 O   0  0  0  0  0  0  0  0  0  0  0  0
   16.3944  -19.8389  -16.0518 N   0  0  0  0  0  0  0  0  0  0  0  0
   16.9574  -18.5844  -16.3713 C   0  0  0  0  0  0  0  0  0  0  0  0
   16.2355  -17.7389  -16.9656 O   0  0  0  0  0  0  0  0  0  0  0  0
   18.3351  -18.2443  -16.0301 C   0  0  0  0  0  0  0  0  0  0  0  0
   19.1663  -19.3339  -15.4439 C   0  0  0  0  0  0  0  0  0  0  0  0
   20.5593  -18.9729  -15.0493 C   0  0  2  0  0  0  0  0  0  0  0  0
   21.1962  -20.1226  -14.3881 N   0  0  0  0  0  0  0  0  0  0  0  0
   20.8035  -17.7313  -14.3568 C   0  0  0  0  0  0  0  0  0  0  0  0
   20.8191  -16.4457  -14.8553 O   0  0  0  0  0  0  0  0  0  0  0  0
   21.0528  -17.8108  -13.0991 O   0  0  0  0  0  0  0  0  0  0  0  0
  2  1  1  6
  2  7  1  0
  3  2  1  0
  3  4  1  0
  5  4  1  0
  5  9  1  0
  6  5  2  0
  7  8  2  0
  7 16  1  0
 10 11  1  0
 11 12  2  0
 13 14  1  0
 13 11  1  0
 15 17  1  0
 15 14  1  6
 16 15  1  0
 17 18  2  0
 20 19  1  0
 20 21  2  0
 22 20  1  0
 23 22  1  0
 24 23  1  1
 25 24  1  0
 25 17  1  0
 26 24  1  0
 26 27  1  0
 28 26  2  0
M  END
$$$$
