EQQ.pdb
     RDKit          3D

 28 27  0  0  1  0  0  0  0  0999 V2000
   21.1965  -13.2514  -16.9294 N   0  0  0  0  0  0  0  0  0  0  0  0
   20.4728  -12.1249  -17.4802 C   0  0  1  0  0  0  0  0  0  0  0  0
   19.4925  -11.5656  -16.4721 C   0  0  0  0  0  0  0  0  0  0  0  0
   18.3598  -12.5110  -16.1832 C   0  0  0  0  0  0  0  0  0  0  0  0
   17.4675  -11.8399  -15.2122 C   0  0  0  0  0  0  0  0  0  0  0  0
   17.4696  -12.1755  -14.0123 O   0  0  0  0  0  0  0  0  0  0  0  0
   21.4393  -11.0365  -17.7444 C   0  0  0  0  0  0  0  0  0  0  0  0
   22.4524  -10.9376  -17.0126 O   0  0  0  0  0  0  0  0  0  0  0  0
   16.5916  -10.8185  -15.5926 O   0  0  0  0  0  0  0  0  0  0  0  0
   24.5841  -10.0234  -21.5913 N   0  0  0  0  0  0  0  0  0  0  0  0
   24.4622   -8.6157  -21.6457 C   0  0  0  0  0  0  0  0  0  0  0  0
   25.3937   -7.9359  -22.1413 O   0  0  0  0  0  0  0  0  0  0  0  0
   23.2258   -7.9797  -21.1101 C   0  0  0  0  0  0  0  0  0  0  0  0
   22.3142   -9.0551  -20.6090 C   0  0  0  0  0  0  0  0  0  0  0  0
   22.1160   -9.0675  -19.1318 C   0  0  2  0  0  0  0  0  0  0  0  0
   21.1953  -10.1449  -18.8060 N   0  0  0  0  0  0  0  0  0  0  0  0
   21.6367   -7.8105  -18.5431 C   0  0  0  0  0  0  0  0  0  0  0  0
   20.4246   -7.6538  -18.2451 O   0  0  0  0  0  0  0  0  0  0  0  0
   20.1760   -6.1168  -13.7124 N   0  0  0  0  0  0  0  0  0  0  0  0
   21.5576   -6.3516  -13.8818 C   0  0  0  0  0  0  0  0  0  0  0  0
   22.2319   -6.7038  -12.8766 O   0  0  0  0  0  0  0  0  0  0  0  0
   22.2152   -6.2041  -15.1764 C   0  0  0  0  0  0  0  0  0  0  0  0
   21.3434   -5.8459  -16.3312 C   0  0  0  0  0  0  0  0  0  0  0  0
   22.0346   -5.4817  -17.6024 C   0  0  2  0  0  0  0  0  0  0  0  0
   22.5021   -6.7038  -18.2751 N   0  0  0  0  0  0  0  0  0  0  0  0
   23.0301   -4.4378  -17.5971 C   0  0  0  0  0  0  0  0  0  0  0  0
   22.9979   -3.2082  -16.9737 O   0  0  0  0  0  0  0  0  0  0  0  0
   24.1026   -4.6589  -18.2687 O   0  0  0  0  0  0  0  0  0  0  0  0
  2  1  1  1
  2  7  1  0
  3  2  1  0
  3  4  1  0
  5  4  1  0
  5  9  1  0
  6  5  2  0
  7  8  2  0
  7 16  1  0
 10 11  1  0
 11 12  2  0
 13 14  1  0
 13 11  1  0
 15 17  1  0
 15 14  1  6
 16 15  1  0
 17 18  2  0
 20 19  1  0
 20 21  2  0
 22 20  1  0
 23 22  1  0
 24 23  1  1
 25 24  1  0
 25 17  1  0
 26 24  1  0
 26 27  1  0
 28 26  2  0
M  END
$$$$
