EQQ.pdb
     RDKit          3D

 28 27  0  0  1  0  0  0  0  0999 V2000
   27.3524  -18.6733  -15.5429 N   0  0  0  0  0  0  0  0  0  0  0  0
   26.4083  -19.3150  -14.6523 C   0  0  1  0  0  0  0  0  0  0  0  0
   26.7630  -19.0503  -13.2051 C   0  0  0  0  0  0  0  0  0  0  0  0
   27.4273  -20.2286  -12.5492 C   0  0  0  0  0  0  0  0  0  0  0  0
   26.3536  -21.1498  -12.1156 C   0  0  0  0  0  0  0  0  0  0  0  0
   26.5897  -22.3606  -11.9401 O   0  0  0  0  0  0  0  0  0  0  0  0
   25.0808  -18.6955  -14.8585 C   0  0  0  0  0  0  0  0  0  0  0  0
   24.9514  -17.4644  -14.6602 O   0  0  0  0  0  0  0  0  0  0  0  0
   25.0450  -20.7110  -11.8919 O   0  0  0  0  0  0  0  0  0  0  0  0
   22.0126  -18.9834  -19.5519 N   0  0  0  0  0  0  0  0  0  0  0  0
   22.7116  -17.8482  -19.0805 C   0  0  0  0  0  0  0  0  0  0  0  0
   23.1390  -17.0028  -19.9039 O   0  0  0  0  0  0  0  0  0  0  0  0
   22.9204  -17.6900  -17.6137 C   0  0  0  0  0  0  0  0  0  0  0  0
   22.3896  -18.9057  -16.9219 C   0  0  0  0  0  0  0  0  0  0  0  0
   22.6665  -18.9624  -15.4584 C   0  0  2  0  0  0  0  0  0  0  0  0
   24.0033  -19.5027  -15.2696 N   0  0  0  0  0  0  0  0  0  0  0  0
   21.7039  -19.7293  -14.6576 C   0  0  0  0  0  0  0  0  0  0  0  0
   21.8498  -20.9655  -14.4756 O   0  0  0  0  0  0  0  0  0  0  0  0
   21.6282  -20.4588   -9.2467 N   0  0  0  0  0  0  0  0  0  0  0  0
   20.3014  -20.8958   -9.4500 C   0  0  0  0  0  0  0  0  0  0  0  0
   19.7113  -21.4778   -8.5002 O   0  0  0  0  0  0  0  0  0  0  0  0
   19.6028  -20.6882  -10.7146 C   0  0  0  0  0  0  0  0  0  0  0  0
   20.3557  -19.9726  -11.7837 C   0  0  0  0  0  0  0  0  0  0  0  0
   19.6878  -19.8655  -13.1137 C   0  0  2  0  0  0  0  0  0  0  0  0
   20.5595  -19.1304  -14.0434 N   0  0  0  0  0  0  0  0  0  0  0  0
   18.3130  -19.4350  -13.1869 C   0  0  0  0  0  0  0  0  0  0  0  0
   17.1614  -20.1929  -13.1565 O   0  0  0  0  0  0  0  0  0  0  0  0
   18.1087  -18.1724  -13.3067 O   0  0  0  0  0  0  0  0  0  0  0  0
  2  1  1  6
  2  7  1  0
  3  2  1  0
  3  4  1  0
  5  4  1  0
  5  9  1  0
  6  5  2  0
  7  8  2  0
  7 16  1  0
 10 11  1  0
 11 12  2  0
 13 14  1  0
 13 11  1  0
 15 17  1  0
 15 14  1  6
 16 15  1  0
 17 18  2  0
 20 19  1  0
 20 21  2  0
 22 20  1  0
 23 22  1  0
 24 23  1  1
 25 24  1  0
 25 17  1  0
 26 24  1  0
 26 27  1  0
 28 26  2  0
M  END
$$$$
