EQQ.pdb
     RDKit          3D

 28 27  0  0  1  0  0  0  0  0999 V2000
   32.3990  -23.2096  -18.5040 N   0  0  0  0  0  0  0  0  0  0  0  0
   31.2895  -22.6956  -17.7289 C   0  0  1  0  0  0  0  0  0  0  0  0
   30.9752  -21.2665  -18.1148 C   0  0  0  0  0  0  0  0  0  0  0  0
   31.1802  -21.0065  -19.5812 C   0  0  0  0  0  0  0  0  0  0  0  0
   30.8366  -19.5882  -19.8256 C   0  0  0  0  0  0  0  0  0  0  0  0
   29.6461  -19.2234  -19.8731 O   0  0  0  0  0  0  0  0  0  0  0  0
   30.0814  -23.4775  -18.0726 C   0  0  0  0  0  0  0  0  0  0  0  0
   30.1896  -24.4348  -18.8748 O   0  0  0  0  0  0  0  0  0  0  0  0
   31.8169  -18.6096  -20.0168 O   0  0  0  0  0  0  0  0  0  0  0  0
   28.5858  -27.7497  -16.3404 N   0  0  0  0  0  0  0  0  0  0  0  0
   27.2773  -27.6221  -16.8612 C   0  0  0  0  0  0  0  0  0  0  0  0
   26.5214  -28.6240  -16.8785 O   0  0  0  0  0  0  0  0  0  0  0  0
   26.8343  -26.2960  -17.3761 C   0  0  0  0  0  0  0  0  0  0  0  0
   27.9666  -25.3279  -17.2387 C   0  0  0  0  0  0  0  0  0  0  0  0
   27.6547  -23.9365  -17.6728 C   0  0  2  0  0  0  0  0  0  0  0  0
   28.8483  -23.1258  -17.4920 N   0  0  0  0  0  0  0  0  0  0  0  0
   26.5158  -23.2996  -16.9993 C   0  0  0  0  0  0  0  0  0  0  0  0
   26.6731  -22.6460  -15.9358 O   0  0  0  0  0  0  0  0  0  0  0  0
   22.0451  -25.2186  -14.3432 N   0  0  0  0  0  0  0  0  0  0  0  0
   21.9081  -23.8453  -14.0462 C   0  0  0  0  0  0  0  0  0  0  0  0
   20.9468  -23.4848  -13.3148 O   0  0  0  0  0  0  0  0  0  0  0  0
   22.8431  -22.8462  -14.5538 C   0  0  0  0  0  0  0  0  0  0  0  0
   23.9529  -23.3463  -15.4141 C   0  0  0  0  0  0  0  0  0  0  0  0
   24.0343  -22.7837  -16.7937 C   0  0  2  0  0  0  0  0  0  0  0  0
   25.1788  -23.3796  -17.5006 N   0  0  0  0  0  0  0  0  0  0  0  0
   23.9470  -21.3567  -16.9864 C   0  0  0  0  0  0  0  0  0  0  0  0
   24.9506  -20.4541  -17.2683 O   0  0  0  0  0  0  0  0  0  0  0  0
   22.7810  -20.8292  -16.8753 O   0  0  0  0  0  0  0  0  0  0  0  0
  2  1  1  6
  2  7  1  0
  3  2  1  0
  3  4  1  0
  5  4  1  0
  5  9  1  0
  6  5  2  0
  7  8  2  0
  7 16  1  0
 10 11  1  0
 11 12  2  0
 13 14  1  0
 13 11  1  0
 15 17  1  0
 15 14  1  1
 16 15  1  0
 17 18  2  0
 20 19  1  0
 20 21  2  0
 22 20  1  0
 23 22  1  0
 24 23  1  1
 25 24  1  0
 25 17  1  0
 26 24  1  0
 26 27  1  0
 28 26  2  0
M  END
$$$$
