EQQ.pdb
     RDKit          3D

 28 27  0  0  1  0  0  0  0  0999 V2000
   19.6804  -12.7780  -15.3610 N   0  0  0  0  0  0  0  0  0  0  0  0
   19.8986  -12.3085  -16.7130 C   0  0  1  0  0  0  0  0  0  0  0  0
   19.3773  -13.3068  -17.7238 C   0  0  0  0  0  0  0  0  0  0  0  0
   19.3846  -14.7157  -17.1996 C   0  0  0  0  0  0  0  0  0  0  0  0
   18.8806  -15.5878  -18.2836 C   0  0  0  0  0  0  0  0  0  0  0  0
   18.5422  -15.1040  -19.3808 O   0  0  0  0  0  0  0  0  0  0  0  0
   19.0972  -11.0811  -16.9132 C   0  0  0  0  0  0  0  0  0  0  0  0
   19.1726  -10.4833  -18.0127 O   0  0  0  0  0  0  0  0  0  0  0  0
   18.7583  -16.9718  -18.1260 O   0  0  0  0  0  0  0  0  0  0  0  0
   13.4330  -10.5349  -15.9509 N   0  0  0  0  0  0  0  0  0  0  0  0
   14.0483  -10.5160  -14.6778 C   0  0  0  0  0  0  0  0  0  0  0  0
   13.3778  -10.8338  -13.6655 O   0  0  0  0  0  0  0  0  0  0  0  0
   15.4803  -10.1170  -14.5770 C   0  0  0  0  0  0  0  0  0  0  0  0
   16.0089   -9.8823  -15.9568 C   0  0  0  0  0  0  0  0  0  0  0  0
   17.4324   -9.4442  -16.0140 C   0  0  2  0  0  0  0  0  0  0  0  0
   18.2758  -10.6197  -15.8674 N   0  0  0  0  0  0  0  0  0  0  0  0
   17.8253   -8.4262  -15.0313 C   0  0  0  0  0  0  0  0  0  0  0  0
   18.5037   -8.7311  -14.0167 O   0  0  0  0  0  0  0  0  0  0  0  0
   22.4908   -6.2175  -15.2410 N   0  0  0  0  0  0  0  0  0  0  0  0
   21.9769   -5.2166  -14.3883 C   0  0  0  0  0  0  0  0  0  0  0  0
   22.7876   -4.4141  -13.8519 O   0  0  0  0  0  0  0  0  0  0  0  0
   20.5482   -5.0862  -14.1203 C   0  0  0  0  0  0  0  0  0  0  0  0
   19.6620   -6.1374  -14.6961 C   0  0  0  0  0  0  0  0  0  0  0  0
   18.1966   -5.9746  -14.4675 C   0  0  2  0  0  0  0  0  0  0  0  0
   17.4686   -7.0475  -15.1629 N   0  0  0  0  0  0  0  0  0  0  0  0
   17.5867   -4.6808  -14.6548 C   0  0  0  0  0  0  0  0  0  0  0  0
   17.5877   -3.5886  -13.8129 O   0  0  0  0  0  0  0  0  0  0  0  0
   16.9381   -4.5009  -15.7489 O   0  0  0  0  0  0  0  0  0  0  0  0
  2  1  1  1
  2  7  1  0
  3  2  1  0
  3  4  1  0
  5  4  1  0
  5  9  1  0
  6  5  2  0
  7  8  2  0
  7 16  1  0
 10 11  1  0
 11 12  2  0
 13 14  1  0
 13 11  1  0
 15 17  1  0
 15 14  1  1
 16 15  1  0
 17 18  2  0
 20 19  1  0
 20 21  2  0
 22 20  1  0
 23 22  1  0
 24 23  1  6
 25 24  1  0
 25 17  1  0
 26 24  1  0
 26 27  1  0
 28 26  2  0
M  END
$$$$
