EQQ.pdb
     RDKit          3D

 28 27  0  0  1  0  0  0  0  0999 V2000
   30.9115  -26.0076  -15.7503 N   0  0  0  0  0  0  0  0  0  0  0  0
   30.0982  -25.8051  -16.9309 C   0  0  1  0  0  0  0  0  0  0  0  0
   28.8814  -26.7045  -16.9113 C   0  0  0  0  0  0  0  0  0  0  0  0
   29.2405  -28.1623  -16.9891 C   0  0  0  0  0  0  0  0  0  0  0  0
   29.2870  -28.5248  -18.4229 C   0  0  0  0  0  0  0  0  0  0  0  0
   30.3763  -28.7467  -18.9857 O   0  0  0  0  0  0  0  0  0  0  0  0
   29.5737  -24.4220  -16.9016 C   0  0  0  0  0  0  0  0  0  0  0  0
   30.1417  -23.5760  -16.1712 O   0  0  0  0  0  0  0  0  0  0  0  0
   28.1291  -28.6278  -19.2001 O   0  0  0  0  0  0  0  0  0  0  0  0
   31.6822  -21.1222  -19.5638 N   0  0  0  0  0  0  0  0  0  0  0  0
   30.5831  -20.2330  -19.5963 C   0  0  0  0  0  0  0  0  0  0  0  0
   30.7454  -19.0698  -20.0389 O   0  0  0  0  0  0  0  0  0  0  0  0
   29.2600  -20.7068  -19.1014 C   0  0  0  0  0  0  0  0  0  0  0  0
   29.3949  -22.1321  -18.6673 C   0  0  0  0  0  0  0  0  0  0  0  0
   28.1609  -22.7249  -18.0777 C   0  0  2  0  0  0  0  0  0  0  0  0
   28.4551  -24.0956  -17.6913 N   0  0  0  0  0  0  0  0  0  0  0  0
   26.9688  -22.6962  -18.9346 C   0  0  0  0  0  0  0  0  0  0  0  0
   26.8665  -23.4582  -19.9304 O   0  0  0  0  0  0  0  0  0  0  0  0
   24.1102  -26.0583  -17.9688 N   0  0  0  0  0  0  0  0  0  0  0  0
   23.2263  -25.3690  -17.1107 C   0  0  0  0  0  0  0  0  0  0  0  0
   22.2188  -25.9851  -16.6699 O   0  0  0  0  0  0  0  0  0  0  0  0
   23.4501  -23.9802  -16.7218 C   0  0  0  0  0  0  0  0  0  0  0  0
   24.7000  -23.3399  -17.2215 C   0  0  0  0  0  0  0  0  0  0  0  0
   24.5416  -22.3050  -18.2847 C   0  0  2  0  0  0  0  0  0  0  0  0
   25.8670  -21.8161  -18.6958 N   0  0  0  0  0  0  0  0  0  0  0  0
   23.5902  -21.2364  -18.1011 C   0  0  0  0  0  0  0  0  0  0  0  0
   22.2212  -21.2527  -18.2660 O   0  0  0  0  0  0  0  0  0  0  0  0
   24.0632  -20.0972  -17.7425 O   0  0  0  0  0  0  0  0  0  0  0  0
  2  1  1  1
  2  7  1  0
  3  2  1  0
  3  4  1  0
  5  4  1  0
  5  9  1  0
  6  5  2  0
  7  8  2  0
  7 16  1  0
 10 11  1  0
 11 12  2  0
 13 14  1  0
 13 11  1  0
 15 17  1  0
 15 14  1  6
 16 15  1  0
 17 18  2  0
 20 19  1  0
 20 21  2  0
 22 20  1  0
 23 22  1  0
 24 23  1  1
 25 24  1  0
 25 17  1  0
 26 24  1  0
 26 27  1  0
 28 26  2  0
M  END
$$$$
