EQQ.pdb
     RDKit          3D

 28 27  0  0  1  0  0  0  0  0999 V2000
   17.9340  -10.6366  -17.2565 N   0  0  0  0  0  0  0  0  0  0  0  0
   17.7384  -10.2343  -15.8796 C   0  0  1  0  0  0  0  0  0  0  0  0
   17.2820  -11.4029  -15.0334 C   0  0  0  0  0  0  0  0  0  0  0  0
   16.6068  -12.4735  -15.8446 C   0  0  0  0  0  0  0  0  0  0  0  0
   16.2179  -13.5511  -14.9081 C   0  0  0  0  0  0  0  0  0  0  0  0
   15.8885  -14.6742  -15.3356 O   0  0  0  0  0  0  0  0  0  0  0  0
   19.0476   -9.8260  -15.3248 C   0  0  0  0  0  0  0  0  0  0  0  0
   19.1350   -9.5856  -14.0974 O   0  0  0  0  0  0  0  0  0  0  0  0
   16.1975  -13.3590  -13.5233 O   0  0  0  0  0  0  0  0  0  0  0  0
   24.4212  -11.0392  -18.0198 N   0  0  0  0  0  0  0  0  0  0  0  0
   23.9518  -11.8521  -16.9623 C   0  0  0  0  0  0  0  0  0  0  0  0
   24.4587  -12.9869  -16.7866 O   0  0  0  0  0  0  0  0  0  0  0  0
   22.8646  -11.3342  -16.0850 C   0  0  0  0  0  0  0  0  0  0  0  0
   22.5029   -9.9545  -16.5368 C   0  0  0  0  0  0  0  0  0  0  0  0
   21.4585   -9.2815  -15.7134 C   0  0  2  0  0  0  0  0  0  0  0  0
   20.1550   -9.7184  -16.1872 N   0  0  0  0  0  0  0  0  0  0  0  0
   21.5122   -7.8142  -15.6920 C   0  0  0  0  0  0  0  0  0  0  0  0
   21.1965   -7.1382  -16.7050 O   0  0  0  0  0  0  0  0  0  0  0  0
   18.7937   -3.8512  -16.8936 N   0  0  0  0  0  0  0  0  0  0  0  0
   19.2664   -3.1292  -15.7764 C   0  0  0  0  0  0  0  0  0  0  0  0
   18.9172   -1.9244  -15.6518 O   0  0  0  0  0  0  0  0  0  0  0  0
   20.1339   -3.7368  -14.7722 C   0  0  0  0  0  0  0  0  0  0  0  0
   20.4887   -5.1702  -14.9755 C   0  0  0  0  0  0  0  0  0  0  0  0
   21.8228   -5.6065  -14.4690 C   0  0  2  0  0  0  0  0  0  0  0  0
   21.9191   -7.0729  -14.5387 N   0  0  0  0  0  0  0  0  0  0  0  0
   22.3176   -5.0782  -13.2213 C   0  0  0  0  0  0  0  0  0  0  0  0
   22.5194   -5.7265  -12.0211 O   0  0  0  0  0  0  0  0  0  0  0  0
   22.6093   -3.8273  -13.1988 O   0  0  0  0  0  0  0  0  0  0  0  0
  2  1  1  6
  2  7  1  0
  3  2  1  0
  3  4  1  0
  5  4  1  0
  5  9  1  0
  6  5  2  0
  7  8  2  0
  7 16  1  0
 10 11  1  0
 11 12  2  0
 13 14  1  0
 13 11  1  0
 15 17  1  0
 15 14  1  6
 16 15  1  0
 17 18  2  0
 20 19  1  0
 20 21  2  0
 22 20  1  0
 23 22  1  0
 24 23  1  1
 25 24  1  0
 25 17  1  0
 26 24  1  0
 26 27  1  0
 28 26  2  0
M  END
$$$$
