EQQ.pdb
     RDKit          3D

 28 27  0  0  1  0  0  0  0  0999 V2000
   29.6833  -25.1403  -17.3856 N   0  0  0  0  0  0  0  0  0  0  0  0
   29.6593  -26.4977  -17.8885 C   0  0  1  0  0  0  0  0  0  0  0  0
   31.0079  -27.1627  -17.7173 C   0  0  0  0  0  0  0  0  0  0  0  0
   32.0404  -26.6267  -18.6694 C   0  0  0  0  0  0  0  0  0  0  0  0
   33.2640  -27.4391  -18.4896 C   0  0  0  0  0  0  0  0  0  0  0  0
   34.3408  -27.0866  -19.0079 O   0  0  0  0  0  0  0  0  0  0  0  0
   28.7181  -27.2831  -17.0603 C   0  0  0  0  0  0  0  0  0  0  0  0
   28.4563  -26.8844  -15.9009 O   0  0  0  0  0  0  0  0  0  0  0  0
   33.2656  -28.6233  -17.7461 O   0  0  0  0  0  0  0  0  0  0  0  0
   24.1139  -25.9155  -17.2836 N   0  0  0  0  0  0  0  0  0  0  0  0
   23.6060  -27.1282  -16.7632 C   0  0  0  0  0  0  0  0  0  0  0  0
   22.4329  -27.1635  -16.3182 O   0  0  0  0  0  0  0  0  0  0  0  0
   24.4834  -28.3324  -16.7589 C   0  0  0  0  0  0  0  0  0  0  0  0
   25.8449  -27.9330  -17.2332 C   0  0  0  0  0  0  0  0  0  0  0  0
   26.8882  -28.9889  -17.0975 C   0  0  2  0  0  0  0  0  0  0  0  0
   28.1449  -28.4524  -17.5948 N   0  0  0  0  0  0  0  0  0  0  0  0
   26.5944  -30.2636  -17.7646 C   0  0  0  0  0  0  0  0  0  0  0  0
   26.2440  -30.2986  -18.9724 O   0  0  0  0  0  0  0  0  0  0  0  0
   26.7981  -35.6759  -15.2688 N   0  0  0  0  0  0  0  0  0  0  0  0
   25.9064  -34.6043  -15.0467 C   0  0  0  0  0  0  0  0  0  0  0  0
   26.0850  -33.8784  -14.0315 O   0  0  0  0  0  0  0  0  0  0  0  0
   24.8006  -34.3161  -15.9545 C   0  0  0  0  0  0  0  0  0  0  0  0
   24.8151  -32.9839  -16.6229 C   0  0  0  0  0  0  0  0  0  0  0  0
   25.9516  -32.7147  -17.5515 C   0  0  2  0  0  0  0  0  0  0  0  0
   26.6869  -31.5245  -17.0961 N   0  0  0  0  0  0  0  0  0  0  0  0
   25.7214  -32.7114  -18.9755 C   0  0  0  0  0  0  0  0  0  0  0  0
   25.8242  -31.6677  -19.8709 O   0  0  0  0  0  0  0  0  0  0  0  0
   25.3597  -33.8246  -19.5047 O   0  0  0  0  0  0  0  0  0  0  0  0
  2  1  1  1
  2  7  1  0
  3  2  1  0
  3  4  1  0
  5  4  1  0
  5  9  1  0
  6  5  2  0
  7  8  2  0
  7 16  1  0
 10 11  1  0
 11 12  2  0
 13 14  1  0
 13 11  1  0
 15 17  1  0
 15 14  1  6
 16 15  1  0
 17 18  2  0
 20 19  1  0
 20 21  2  0
 22 20  1  0
 23 22  1  0
 24 23  1  1
 25 24  1  0
 25 17  1  0
 26 24  1  0
 26 27  1  0
 28 26  2  0
M  END
$$$$
