EQQ.pdb
     RDKit          3D

 28 27  0  0  1  0  0  0  0  0999 V2000
   21.1760   -8.4496  -15.3995 N   0  0  0  0  0  0  0  0  0  0  0  0
   20.8843   -8.6873  -14.0015 C   0  0  1  0  0  0  0  0  0  0  0  0
   21.5757   -7.6674  -13.1229 C   0  0  0  0  0  0  0  0  0  0  0  0
   21.9367   -6.4134  -13.8692 C   0  0  0  0  0  0  0  0  0  0  0  0
   21.9164   -5.3024  -12.8920 C   0  0  0  0  0  0  0  0  0  0  0  0
   22.4465   -5.4334  -11.7721 O   0  0  0  0  0  0  0  0  0  0  0  0
   19.4348   -8.4819  -13.7882 C   0  0  0  0  0  0  0  0  0  0  0  0
   18.8305   -7.6509  -14.5065 O   0  0  0  0  0  0  0  0  0  0  0  0
   21.3063   -4.0765  -13.1752 O   0  0  0  0  0  0  0  0  0  0  0  0
   15.6991  -12.8903  -13.2984 N   0  0  0  0  0  0  0  0  0  0  0  0
   16.0745  -12.1914  -14.4689 C   0  0  0  0  0  0  0  0  0  0  0  0
   15.9422  -12.7471  -15.5866 O   0  0  0  0  0  0  0  0  0  0  0  0
   16.6183  -10.8104  -14.3387 C   0  0  0  0  0  0  0  0  0  0  0  0
   16.7562  -10.4865  -12.8846 C   0  0  0  0  0  0  0  0  0  0  0  0
   17.3374   -9.1446  -12.5960 C   0  0  2  0  0  0  0  0  0  0  0  0
   18.7768   -9.2222  -12.7880 N   0  0  0  0  0  0  0  0  0  0  0  0
   17.0433   -8.5960  -11.2661 C   0  0  0  0  0  0  0  0  0  0  0  0
   17.9620   -8.1570  -10.5272 O   0  0  0  0  0  0  0  0  0  0  0  0
   17.2907   -3.9101   -9.2561 N   0  0  0  0  0  0  0  0  0  0  0  0
   16.4610   -4.3612   -8.2069 C   0  0  0  0  0  0  0  0  0  0  0  0
   16.3220   -3.6227   -7.1948 O   0  0  0  0  0  0  0  0  0  0  0  0
   15.7647   -5.6425   -8.2665 C   0  0  0  0  0  0  0  0  0  0  0  0
   16.0533   -6.5051   -9.4475 C   0  0  0  0  0  0  0  0  0  0  0  0
   15.4103   -7.8515   -9.4646 C   0  0  2  0  0  0  0  0  0  0  0  0
   15.7170   -8.5263  -10.7354 N   0  0  0  0  0  0  0  0  0  0  0  0
   14.0237   -7.9824   -9.0891 C   0  0  0  0  0  0  0  0  0  0  0  0
   13.4592   -7.9806   -7.8310 O   0  0  0  0  0  0  0  0  0  0  0  0
   13.1783   -8.1322  -10.0447 O   0  0  0  0  0  0  0  0  0  0  0  0
  2  1  1  6
  2  7  1  0
  3  2  1  0
  3  4  1  0
  5  4  1  0
  5  9  1  0
  6  5  2  0
  7  8  2  0
  7 16  1  0
 10 11  1  0
 11 12  2  0
 13 14  1  0
 13 11  1  0
 15 17  1  0
 15 14  1  1
 16 15  1  0
 17 18  2  0
 20 19  1  0
 20 21  2  0
 22 20  1  0
 23 22  1  0
 24 23  1  6
 25 24  1  0
 25 17  1  0
 26 24  1  0
 26 27  1  0
 28 26  2  0
M  END
$$$$
