EQQ.pdb
     RDKit          3D

 28 27  0  0  1  0  0  0  0  0999 V2000
   14.3604  -10.9759  -14.5170 N   0  0  0  0  0  0  0  0  0  0  0  0
   15.6216  -10.9584  -13.8062 C   0  0  1  0  0  0  0  0  0  0  0  0
   16.7534  -11.4172  -14.6998 C   0  0  0  0  0  0  0  0  0  0  0  0
   16.6659  -12.8798  -15.0364 C   0  0  0  0  0  0  0  0  0  0  0  0
   17.8039  -13.1913  -15.9294 C   0  0  0  0  0  0  0  0  0  0  0  0
   18.9755  -13.1212  -15.5113 O   0  0  0  0  0  0  0  0  0  0  0  0
   15.9352   -9.5568  -13.4515 C   0  0  0  0  0  0  0  0  0  0  0  0
   15.6530   -8.6492  -14.2691 O   0  0  0  0  0  0  0  0  0  0  0  0
   17.6187  -13.5675  -17.2634 O   0  0  0  0  0  0  0  0  0  0  0  0
   14.9319   -7.1603   -8.2548 N   0  0  0  0  0  0  0  0  0  0  0  0
   15.7800   -6.1130   -8.6829 C   0  0  0  0  0  0  0  0  0  0  0  0
   15.8615   -5.0666   -7.9945 O   0  0  0  0  0  0  0  0  0  0  0  0
   16.5542   -6.2846   -9.9443 C   0  0  0  0  0  0  0  0  0  0  0  0
   16.2896   -7.6545  -10.4844 C   0  0  0  0  0  0  0  0  0  0  0  0
   16.9026   -7.9304  -11.8148 C   0  0  2  0  0  0  0  0  0  0  0  0
   16.5402   -9.2819  -12.2105 N   0  0  0  0  0  0  0  0  0  0  0  0
   18.3597   -7.7652  -11.8910 C   0  0  0  0  0  0  0  0  0  0  0  0
   19.1356   -8.7240  -11.6431 O   0  0  0  0  0  0  0  0  0  0  0  0
   20.7451   -9.1972  -16.2013 N   0  0  0  0  0  0  0  0  0  0  0  0
   21.8635   -8.4753  -15.7313 C   0  0  0  0  0  0  0  0  0  0  0  0
   22.9729   -8.6526  -16.3030 O   0  0  0  0  0  0  0  0  0  0  0  0
   21.7673   -7.5367  -14.6178 C   0  0  0  0  0  0  0  0  0  0  0  0
   20.4686   -7.4983  -13.8871 C   0  0  0  0  0  0  0  0  0  0  0  0
   20.3286   -6.4567  -12.8279 C   0  0  2  0  0  0  0  0  0  0  0  0
   18.9790   -6.5259  -12.2461 N   0  0  0  0  0  0  0  0  0  0  0  0
   20.7440   -5.1028  -13.1021 C   0  0  0  0  0  0  0  0  0  0  0  0
   22.0131   -4.5635  -13.0927 O   0  0  0  0  0  0  0  0  0  0  0  0
   19.8170   -4.2610  -13.3890 O   0  0  0  0  0  0  0  0  0  0  0  0
  2  1  1  6
  2  7  1  0
  3  2  1  0
  3  4  1  0
  5  4  1  0
  5  9  1  0
  6  5  2  0
  7  8  2  0
  7 16  1  0
 10 11  1  0
 11 12  2  0
 13 14  1  0
 13 11  1  0
 15 17  1  0
 15 14  1  1
 16 15  1  0
 17 18  2  0
 20 19  1  0
 20 21  2  0
 22 20  1  0
 23 22  1  0
 24 23  1  6
 25 24  1  0
 25 17  1  0
 26 24  1  0
 26 27  1  0
 28 26  2  0
M  END
$$$$
