GFG.pdb
     RDKit          3D

 20 20  0  0  1  0  0  0  0  0999 V2000
    5.7584  -18.9592   19.5801 N   0  0  0  0  0  0  0  0  0  0  0  0
    5.3221  -18.2053   20.6923 C   0  0  0  0  0  0  0  0  0  0  0  0
    6.4291  -17.6560   21.5024 C   0  0  0  0  0  0  0  0  0  0  0  0
    7.5604  -18.1759   21.3792 O   0  0  0  0  0  0  0  0  0  0  0  0
    6.2628  -16.5780   22.4016 N   0  0  0  0  0  0  0  0  0  0  0  0
    7.3012  -16.0208   23.2331 C   0  0  1  0  0  0  0  0  0  0  0  0
    7.3580  -14.5386   23.2104 C   0  0  0  0  0  0  0  0  0  0  0  0
    7.5968  -13.9821   21.8541 C   0  0  0  0  0  0  0  0  0  0  0  0
    8.9124  -13.8640   21.4592 C   0  0  0  0  0  0  0  0  0  0  0  0
    9.2538  -13.3633   20.2281 C   0  0  0  0  0  0  0  0  0  0  0  0
    8.2555  -12.9674   19.3618 C   0  0  0  0  0  0  0  0  0  0  0  0
    6.9382  -13.0927   19.7739 C   0  0  0  0  0  0  0  0  0  0  0  0
    6.5911  -13.5956   21.0108 C   0  0  0  0  0  0  0  0  0  0  0  0
    7.1594  -16.5139   24.6505 C   0  0  0  0  0  0  0  0  0  0  0  0
    6.1138  -16.3559   25.3137 O   0  0  0  0  0  0  0  0  0  0  0  0
    8.2481  -17.1860   25.2686 N   0  0  0  0  0  0  0  0  0  0  0  0
    8.1224  -17.7833   26.5998 C   0  0  0  0  0  0  0  0  0  0  0  0
    9.4040  -18.4120   26.9712 C   0  0  0  0  0  0  0  0  0  0  0  0
    9.5416  -19.0417   28.2143 O   0  0  0  0  0  0  0  0  0  0  0  0
   10.4039  -18.4133   26.2143 O   0  0  0  0  0  0  0  0  0  0  0  0
  2  1  1  0
  3  2  1  0
  4  3  2  0
  5  3  1  0
  6  5  1  0
  6  7  1  1
  8  7  1  0
  9  8  2  0
 10  9  1  0
 11 12  1  0
 11 10  2  0
 12 13  2  0
 13  8  1  0
 14 15  2  0
 14  6  1  0
 16 14  1  0
 17 18  1  0
 17 16  1  0
 18 19  1  0
 20 18  2  0
M  END
$$$$
