GFG.pdb
     RDKit          3D

 20 20  0  0  1  0  0  0  0  0999 V2000
    6.0630  -16.6545   20.8201 N   0  0  0  0  0  0  0  0  0  0  0  0
    6.1499  -16.7782   22.2247 C   0  0  0  0  0  0  0  0  0  0  0  0
    7.2113  -15.9435   22.8250 C   0  0  0  0  0  0  0  0  0  0  0  0
    7.8647  -15.1915   22.0682 O   0  0  0  0  0  0  0  0  0  0  0  0
    7.5146  -15.9604   24.2056 N   0  0  0  0  0  0  0  0  0  0  0  0
    8.5775  -15.2140   24.8328 C   0  0  1  0  0  0  0  0  0  0  0  0
    8.2525  -14.7407   26.2007 C   0  0  0  0  0  0  0  0  0  0  0  0
    7.5122  -13.4530   26.2148 C   0  0  0  0  0  0  0  0  0  0  0  0
    6.2197  -13.4903   26.6928 C   0  0  0  0  0  0  0  0  0  0  0  0
    5.4400  -12.3628   26.7530 C   0  0  0  0  0  0  0  0  0  0  0  0
    5.9619  -11.1596   26.3243 C   0  0  0  0  0  0  0  0  0  0  0  0
    7.2628  -11.1391   25.8465 C   0  0  0  0  0  0  0  0  0  0  0  0
    8.0497  -12.2706   25.7845 C   0  0  0  0  0  0  0  0  0  0  0  0
    9.8479  -16.0249   24.8514 C   0  0  0  0  0  0  0  0  0  0  0  0
   10.9511  -15.5352   25.1695 O   0  0  0  0  0  0  0  0  0  0  0  0
    9.8042  -17.4001   24.4965 N   0  0  0  0  0  0  0  0  0  0  0  0
   11.0197  -18.2150   24.4407 C   0  0  0  0  0  0  0  0  0  0  0  0
   11.2781  -18.7909   25.7738 C   0  0  0  0  0  0  0  0  0  0  0  0
   11.4825  -20.1691   25.9145 O   0  0  0  0  0  0  0  0  0  0  0  0
   11.3258  -18.0952   26.8161 O   0  0  0  0  0  0  0  0  0  0  0  0
  2  1  1  0
  3  2  1  0
  4  3  2  0
  5  3  1  0
  6  5  1  0
  6  7  1  1
  8  7  1  0
  9  8  2  0
 10  9  1  0
 11 12  1  0
 11 10  2  0
 12 13  2  0
 13  8  1  0
 14 15  2  0
 14  6  1  0
 16 14  1  0
 17 18  1  0
 17 16  1  0
 18 19  1  0
 20 18  2  0
M  END
$$$$
