GFG.pdb
     RDKit          3D

 20 20  0  0  1  0  0  0  0  0999 V2000
    8.7152  -19.2873   19.2917 N   0  0  0  0  0  0  0  0  0  0  0  0
    8.3385  -18.7305   20.5342 C   0  0  0  0  0  0  0  0  0  0  0  0
    9.2127  -17.6227   20.9725 C   0  0  0  0  0  0  0  0  0  0  0  0
   10.1839  -17.3186   20.2448 O   0  0  0  0  0  0  0  0  0  0  0  0
    8.9978  -16.9003   22.1685 N   0  0  0  0  0  0  0  0  0  0  0  0
    9.7680  -15.7603   22.6012 C   0  0  1  0  0  0  0  0  0  0  0  0
    8.9416  -14.6127   23.0496 C   0  0  0  0  0  0  0  0  0  0  0  0
    8.0624  -14.0711   21.9818 C   0  0  0  0  0  0  0  0  0  0  0  0
    8.5899  -13.0655   21.2002 C   0  0  0  0  0  0  0  0  0  0  0  0
    7.8703  -12.4891   20.1839 C   0  0  0  0  0  0  0  0  0  0  0  0
    6.5853  -12.9265   19.9367 C   0  0  0  0  0  0  0  0  0  0  0  0
    6.0698  -13.9381   20.7314 C   0  0  0  0  0  0  0  0  0  0  0  0
    6.7902  -14.5201   21.7541 C   0  0  0  0  0  0  0  0  0  0  0  0
   10.7335  -16.1611   23.6870 C   0  0  0  0  0  0  0  0  0  0  0  0
   10.3548  -16.5397   24.8146 O   0  0  0  0  0  0  0  0  0  0  0  0
   12.1306  -16.1117   23.4327 N   0  0  0  0  0  0  0  0  0  0  0  0
   13.1032  -16.6245   24.4001 C   0  0  0  0  0  0  0  0  0  0  0  0
   14.4614  -16.4830   23.8424 C   0  0  0  0  0  0  0  0  0  0  0  0
   15.4006  -15.6655   24.4831 O   0  0  0  0  0  0  0  0  0  0  0  0
   14.8308  -17.0705   22.7979 O   0  0  0  0  0  0  0  0  0  0  0  0
  2  1  1  0
  3  2  1  0
  4  3  2  0
  5  3  1  0
  6  5  1  0
  6  7  1  1
  8  7  1  0
  9  8  2  0
 10  9  1  0
 11 12  1  0
 11 10  2  0
 12 13  2  0
 13  8  1  0
 14 15  2  0
 14  6  1  0
 16 14  1  0
 17 18  1  0
 17 16  1  0
 18 19  1  0
 20 18  2  0
M  END
$$$$
