GFG.pdb
     RDKit          3D

 20 20  0  0  1  0  0  0  0  0999 V2000
    6.6852  -14.3117   20.3786 N   0  0  0  0  0  0  0  0  0  0  0  0
    6.5293  -15.0725   21.5587 C   0  0  0  0  0  0  0  0  0  0  0  0
    7.6335  -14.8946   22.5244 C   0  0  0  0  0  0  0  0  0  0  0  0
    8.6884  -14.3592   22.1173 O   0  0  0  0  0  0  0  0  0  0  0  0
    7.5465  -15.3009   23.8756 N   0  0  0  0  0  0  0  0  0  0  0  0
    8.5867  -15.1388   24.8614 C   0  0  1  0  0  0  0  0  0  0  0  0
    8.0809  -14.9742   26.2464 C   0  0  0  0  0  0  0  0  0  0  0  0
    7.3675  -13.6891   26.4607 C   0  0  0  0  0  0  0  0  0  0  0  0
    8.1531  -12.5687   26.6287 C   0  0  0  0  0  0  0  0  0  0  0  0
    7.6049  -11.3276   26.8338 C   0  0  0  0  0  0  0  0  0  0  0  0
    6.2320  -11.1961   26.8733 C   0  0  0  0  0  0  0  0  0  0  0  0
    5.4566  -12.3320   26.7027 C   0  0  0  0  0  0  0  0  0  0  0  0
    6.0040  -13.5815   26.4962 C   0  0  0  0  0  0  0  0  0  0  0  0
    9.5561  -16.2911   24.7956 C   0  0  0  0  0  0  0  0  0  0  0  0
    9.3202  -17.3965   25.3253 O   0  0  0  0  0  0  0  0  0  0  0  0
   10.7888  -16.1286   24.1080 N   0  0  0  0  0  0  0  0  0  0  0  0
   11.8076  -17.1807   24.1043 C   0  0  0  0  0  0  0  0  0  0  0  0
   13.0269  -16.6716   23.4488 C   0  0  0  0  0  0  0  0  0  0  0  0
   13.4927  -15.3832   23.7386 O   0  0  0  0  0  0  0  0  0  0  0  0
   13.6869  -17.3475   22.6241 O   0  0  0  0  0  0  0  0  0  0  0  0
  2  1  1  0
  3  2  1  0
  4  3  2  0
  5  3  1  0
  6  5  1  0
  6  7  1  1
  8  7  1  0
  9  8  2  0
 10  9  1  0
 11 12  1  0
 11 10  2  0
 12 13  2  0
 13  8  1  0
 14 15  2  0
 14  6  1  0
 16 14  1  0
 17 18  1  0
 17 16  1  0
 18 19  1  0
 20 18  2  0
M  END
$$$$
