GFG.pdb
     RDKit          3D

 20 20  0  0  1  0  0  0  0  0999 V2000
    5.0160  -18.7555   23.1560 N   0  0  0  0  0  0  0  0  0  0  0  0
    5.6790  -18.2889   24.3129 C   0  0  0  0  0  0  0  0  0  0  0  0
    6.7354  -17.2961   24.0264 C   0  0  0  0  0  0  0  0  0  0  0  0
    6.9636  -17.0111   22.8298 O   0  0  0  0  0  0  0  0  0  0  0  0
    7.4905  -16.6624   25.0396 N   0  0  0  0  0  0  0  0  0  0  0  0
    8.5988  -15.7675   24.8141 C   0  0  1  0  0  0  0  0  0  0  0  0
    8.8190  -14.7957   25.9132 C   0  0  0  0  0  0  0  0  0  0  0  0
    7.7946  -13.7210   25.9590 C   0  0  0  0  0  0  0  0  0  0  0  0
    6.8042  -13.8538   26.9088 C   0  0  0  0  0  0  0  0  0  0  0  0
    5.8051  -12.9230   27.0441 C   0  0  0  0  0  0  0  0  0  0  0  0
    5.7901  -11.8251   26.2086 C   0  0  0  0  0  0  0  0  0  0  0  0
    6.7928  -11.7065   25.2592 C   0  0  0  0  0  0  0  0  0  0  0  0
    7.7989  -12.6402   25.1202 C   0  0  0  0  0  0  0  0  0  0  0  0
    9.8601  -16.5501   24.5519 C   0  0  0  0  0  0  0  0  0  0  0  0
   10.2591  -17.4538   25.3150 O   0  0  0  0  0  0  0  0  0  0  0  0
   10.6347  -16.2603   23.3965 N   0  0  0  0  0  0  0  0  0  0  0  0
   11.7162  -17.1453   22.9584 C   0  0  0  0  0  0  0  0  0  0  0  0
   12.9830  -16.7002   23.5687 C   0  0  0  0  0  0  0  0  0  0  0  0
   14.1793  -17.3599   23.2609 O   0  0  0  0  0  0  0  0  0  0  0  0
   13.0492  -15.7375   24.3697 O   0  0  0  0  0  0  0  0  0  0  0  0
  2  1  1  0
  3  2  1  0
  4  3  2  0
  5  3  1  0
  6  5  1  0
  6  7  1  1
  8  7  1  0
  9  8  2  0
 10  9  1  0
 11 12  1  0
 11 10  2  0
 12 13  2  0
 13  8  1  0
 14 15  2  0
 14  6  1  0
 16 14  1  0
 17 18  1  0
 17 16  1  0
 18 19  1  0
 20 18  2  0
M  END
$$$$
