GFG.pdb
     RDKit          3D

 20 20  0  0  1  0  0  0  0  0999 V2000
    7.6164  -15.1115   20.2969 N   0  0  0  0  0  0  0  0  0  0  0  0
    6.8190  -15.4041   21.4258 C   0  0  0  0  0  0  0  0  0  0  0  0
    7.5634  -15.3550   22.7014 C   0  0  0  0  0  0  0  0  0  0  0  0
    8.7799  -15.0661   22.6601 O   0  0  0  0  0  0  0  0  0  0  0  0
    6.9621  -15.6187   23.9534 N   0  0  0  0  0  0  0  0  0  0  0  0
    7.6359  -15.5643   25.2274 C   0  0  1  0  0  0  0  0  0  0  0  0
    6.8319  -14.9380   26.3055 C   0  0  0  0  0  0  0  0  0  0  0  0
    6.9033  -13.4543   26.3031 C   0  0  0  0  0  0  0  0  0  0  0  0
    5.7456  -12.7811   26.6302 C   0  0  0  0  0  0  0  0  0  0  0  0
    5.6925  -11.4103   26.6608 C   0  0  0  0  0  0  0  0  0  0  0  0
    6.8265  -10.6856   26.3566 C   0  0  0  0  0  0  0  0  0  0  0  0
    7.9821  -11.3774   26.0299 C   0  0  0  0  0  0  0  0  0  0  0  0
    8.0394  -12.7555   25.9981 C   0  0  0  0  0  0  0  0  0  0  0  0
    8.0809  -16.9426   25.6448 C   0  0  0  0  0  0  0  0  0  0  0  0
    8.6217  -17.1672   26.7471 O   0  0  0  0  0  0  0  0  0  0  0  0
    7.8840  -18.0378   24.7612 N   0  0  0  0  0  0  0  0  0  0  0  0
    8.2237  -19.4075   25.1526 C   0  0  0  0  0  0  0  0  0  0  0  0
    9.6435  -19.6612   24.8436 C   0  0  0  0  0  0  0  0  0  0  0  0
   10.4593  -18.6177   24.3890 O   0  0  0  0  0  0  0  0  0  0  0  0
   10.1741  -20.7905   24.9691 O   0  0  0  0  0  0  0  0  0  0  0  0
  2  1  1  0
  3  2  1  0
  4  3  2  0
  5  3  1  0
  6  5  1  0
  6  7  1  1
  8  7  1  0
  9  8  2  0
 10  9  1  0
 11 12  1  0
 11 10  2  0
 12 13  2  0
 13  8  1  0
 14 15  2  0
 14  6  1  0
 16 14  1  0
 17 18  1  0
 17 16  1  0
 18 19  1  0
 20 18  2  0
M  END
$$$$
