GFG.pdb
     RDKit          3D

 20 20  0  0  1  0  0  0  0  0999 V2000
    9.5220  -18.0293   20.3947 N   0  0  0  0  0  0  0  0  0  0  0  0
    8.2994  -17.6401   20.9859 C   0  0  0  0  0  0  0  0  0  0  0  0
    8.4686  -16.8330   22.2121 C   0  0  0  0  0  0  0  0  0  0  0  0
    9.5934  -16.8271   22.7600 O   0  0  0  0  0  0  0  0  0  0  0  0
    7.4216  -16.0753   22.7848 N   0  0  0  0  0  0  0  0  0  0  0  0
    7.5179  -15.3132   24.0055 C   0  0  1  0  0  0  0  0  0  0  0  0
    6.6104  -14.1407   24.0544 C   0  0  0  0  0  0  0  0  0  0  0  0
    6.8556  -13.2585   25.2241 C   0  0  0  0  0  0  0  0  0  0  0  0
    5.8538  -13.1953   26.1691 C   0  0  0  0  0  0  0  0  0  0  0  0
    5.9690  -12.4139   27.2912 C   0  0  0  0  0  0  0  0  0  0  0  0
    7.1166  -11.6717   27.4799 C   0  0  0  0  0  0  0  0  0  0  0  0
    8.1142  -11.7463   26.5206 C   0  0  0  0  0  0  0  0  0  0  0  0
    8.0020  -12.5307   25.3912 C   0  0  0  0  0  0  0  0  0  0  0  0
    7.2825  -16.2028   25.1993 C   0  0  0  0  0  0  0  0  0  0  0  0
    6.2558  -16.9019   25.3222 O   0  0  0  0  0  0  0  0  0  0  0  0
    8.2571  -16.2589   26.2318 N   0  0  0  0  0  0  0  0  0  0  0  0
    8.1108  -17.1637   27.3739 C   0  0  0  0  0  0  0  0  0  0  0  0
    9.2973  -18.0361   27.4555 C   0  0  0  0  0  0  0  0  0  0  0  0
    9.7641  -18.6935   26.3105 O   0  0  0  0  0  0  0  0  0  0  0  0
    9.9279  -18.2264   28.5226 O   0  0  0  0  0  0  0  0  0  0  0  0
  2  1  1  0
  3  2  1  0
  4  3  2  0
  5  3  1  0
  6  5  1  0
  6  7  1  6
  8  7  1  0
  9  8  2  0
 10  9  1  0
 11 12  1  0
 11 10  2  0
 12 13  2  0
 13  8  1  0
 14 15  2  0
 14  6  1  0
 16 14  1  0
 17 18  1  0
 17 16  1  0
 18 19  1  0
 20 18  2  0
M  END
$$$$
