GFG.pdb
     RDKit          3D

 20 20  0  0  1  0  0  0  0  0999 V2000
    5.3182  -18.6879   23.2675 N   0  0  0  0  0  0  0  0  0  0  0  0
    5.7941  -18.1016   24.4615 C   0  0  0  0  0  0  0  0  0  0  0  0
    6.9012  -17.1465   24.2481 C   0  0  0  0  0  0  0  0  0  0  0  0
    7.2018  -16.8503   23.0704 O   0  0  0  0  0  0  0  0  0  0  0  0
    7.6267  -16.5603   25.3104 N   0  0  0  0  0  0  0  0  0  0  0  0
    8.7225  -15.6349   25.1581 C   0  0  1  0  0  0  0  0  0  0  0  0
    8.7620  -14.5752   26.1956 C   0  0  0  0  0  0  0  0  0  0  0  0
    7.6867  -13.5623   26.0398 C   0  0  0  0  0  0  0  0  0  0  0  0
    6.7241  -13.5288   27.0261 C   0  0  0  0  0  0  0  0  0  0  0  0
    5.6831  -12.6356   26.9880 C   0  0  0  0  0  0  0  0  0  0  0  0
    5.5963  -11.7474   25.9357 C   0  0  0  0  0  0  0  0  0  0  0  0
    6.5719  -11.7941   24.9525 C   0  0  0  0  0  0  0  0  0  0  0  0
    7.6200  -12.6906   24.9874 C   0  0  0  0  0  0  0  0  0  0  0  0
   10.0342  -16.3765   25.1223 C   0  0  0  0  0  0  0  0  0  0  0  0
   11.1269  -15.7978   24.9509 O   0  0  0  0  0  0  0  0  0  0  0  0
   10.0438  -17.7875   25.2888 N   0  0  0  0  0  0  0  0  0  0  0  0
   11.2971  -18.5348   25.4140 C   0  0  0  0  0  0  0  0  0  0  0  0
   11.6997  -19.0308   24.0845 C   0  0  0  0  0  0  0  0  0  0  0  0
   11.9260  -20.3983   23.8854 O   0  0  0  0  0  0  0  0  0  0  0  0
   11.8546  -18.2745   23.0962 O   0  0  0  0  0  0  0  0  0  0  0  0
  2  1  1  0
  3  2  1  0
  4  3  2  0
  5  3  1  0
  6  5  1  0
  6  7  1  1
  8  7  1  0
  9  8  2  0
 10  9  1  0
 11 12  1  0
 11 10  2  0
 12 13  2  0
 13  8  1  0
 14 15  2  0
 14  6  1  0
 16 14  1  0
 17 18  1  0
 17 16  1  0
 18 19  1  0
 20 18  2  0
M  END
$$$$
