GFG.pdb
     RDKit          3D

 20 20  0  0  1  0  0  0  0  0999 V2000
    7.5483  -18.3777   20.2844 N   0  0  0  0  0  0  0  0  0  0  0  0
    7.1909  -18.3151   21.6497 C   0  0  0  0  0  0  0  0  0  0  0  0
    7.5541  -17.0367   22.2957 C   0  0  0  0  0  0  0  0  0  0  0  0
    8.2481  -16.2259   21.6429 O   0  0  0  0  0  0  0  0  0  0  0  0
    7.1529  -16.6968   23.6079 N   0  0  0  0  0  0  0  0  0  0  0  0
    7.4497  -15.4513   24.2719 C   0  0  1  0  0  0  0  0  0  0  0  0
    6.5044  -15.1132   25.3642 C   0  0  0  0  0  0  0  0  0  0  0  0
    6.7627  -13.7824   25.9715 C   0  0  0  0  0  0  0  0  0  0  0  0
    5.7463  -12.8555   25.8801 C   0  0  0  0  0  0  0  0  0  0  0  0
    5.8715  -11.5937   26.4045 C   0  0  0  0  0  0  0  0  0  0  0  0
    7.0446  -11.2421   27.0401 C   0  0  0  0  0  0  0  0  0  0  0  0
    8.0565  -12.1853   27.1235 C   0  0  0  0  0  0  0  0  0  0  0  0
    7.9344  -13.4549   26.5975 C   0  0  0  0  0  0  0  0  0  0  0  0
    8.8643  -15.4583   24.7924 C   0  0  0  0  0  0  0  0  0  0  0  0
    9.3783  -14.4668   25.3499 O   0  0  0  0  0  0  0  0  0  0  0  0
    9.6550  -16.6304   24.6508 N   0  0  0  0  0  0  0  0  0  0  0  0
   10.9706  -16.7470   25.2836 C   0  0  0  0  0  0  0  0  0  0  0  0
   11.9330  -17.2848   24.3037 C   0  0  0  0  0  0  0  0  0  0  0  0
   11.5210  -17.5571   22.9933 O   0  0  0  0  0  0  0  0  0  0  0  0
   13.1320  -17.5179   24.5875 O   0  0  0  0  0  0  0  0  0  0  0  0
  2  1  1  0
  3  2  1  0
  4  3  2  0
  5  3  1  0
  6  5  1  0
  6  7  1  1
  8  7  1  0
  9  8  2  0
 10  9  1  0
 11 12  1  0
 11 10  2  0
 12 13  2  0
 13  8  1  0
 14 15  2  0
 14  6  1  0
 16 14  1  0
 17 18  1  0
 17 16  1  0
 18 19  1  0
 20 18  2  0
M  END
$$$$
