GFG.pdb
     RDKit          3D

 20 20  0  0  1  0  0  0  0  0999 V2000
    7.5516  -13.1387   19.8761 N   0  0  0  0  0  0  0  0  0  0  0  0
    7.0496  -13.9157   20.9438 C   0  0  0  0  0  0  0  0  0  0  0  0
    8.0156  -14.0939   22.0477 C   0  0  0  0  0  0  0  0  0  0  0  0
    9.1730  -13.6448   21.8927 O   0  0  0  0  0  0  0  0  0  0  0  0
    7.6878  -14.7446   23.2590 N   0  0  0  0  0  0  0  0  0  0  0  0
    8.5814  -14.9190   24.3776 C   0  0  1  0  0  0  0  0  0  0  0  0
    7.8989  -14.9327   25.6948 C   0  0  0  0  0  0  0  0  0  0  0  0
    7.3516  -13.6080   26.0849 C   0  0  0  0  0  0  0  0  0  0  0  0
    5.9799  -13.5132   26.1850 C   0  0  0  0  0  0  0  0  0  0  0  0
    5.3619  -12.3399   26.5377 C   0  0  0  0  0  0  0  0  0  0  0  0
    6.1320  -11.2254   26.7992 C   0  0  0  0  0  0  0  0  0  0  0  0
    7.5094  -11.3374   26.6941 C   0  0  0  0  0  0  0  0  0  0  0  0
    8.1344  -12.5152   26.3398 C   0  0  0  0  0  0  0  0  0  0  0  0
    9.4010  -16.1720   24.2040 C   0  0  0  0  0  0  0  0  0  0  0  0
    8.9304  -17.3125   24.3934 O   0  0  0  0  0  0  0  0  0  0  0  0
   10.7621  -16.0675   23.8097 N   0  0  0  0  0  0  0  0  0  0  0  0
   11.6195  -17.2495   23.6981 C   0  0  0  0  0  0  0  0  0  0  0  0
   12.9458  -16.8400   23.1993 C   0  0  0  0  0  0  0  0  0  0  0  0
   13.7518  -15.9903   23.9670 O   0  0  0  0  0  0  0  0  0  0  0  0
   13.4034  -17.2214   22.0957 O   0  0  0  0  0  0  0  0  0  0  0  0
  2  1  1  0
  3  2  1  0
  4  3  2  0
  5  3  1  0
  6  5  1  0
  6  7  1  1
  8  7  1  0
  9  8  2  0
 10  9  1  0
 11 12  1  0
 11 10  2  0
 12 13  2  0
 13  8  1  0
 14 15  2  0
 14  6  1  0
 16 14  1  0
 17 18  1  0
 17 16  1  0
 18 19  1  0
 20 18  2  0
M  END
$$$$
