GFG.pdb
     RDKit          3D

 20 20  0  0  1  0  0  0  0  0999 V2000
    6.1103  -17.4546   21.4830 N   0  0  0  0  0  0  0  0  0  0  0  0
    6.3506  -17.4394   22.8751 C   0  0  0  0  0  0  0  0  0  0  0  0
    7.4846  -16.5772   23.2678 C   0  0  0  0  0  0  0  0  0  0  0  0
    8.1596  -16.0454   22.3585 O   0  0  0  0  0  0  0  0  0  0  0  0
    7.8334  -16.3317   24.6155 N   0  0  0  0  0  0  0  0  0  0  0  0
    8.9845  -15.5810   25.0531 C   0  0  1  0  0  0  0  0  0  0  0  0
    8.7868  -14.8767   26.3438 C   0  0  0  0  0  0  0  0  0  0  0  0
    7.7922  -13.7763   26.2644 C   0  0  0  0  0  0  0  0  0  0  0  0
    6.7883  -13.7836   27.2093 C   0  0  0  0  0  0  0  0  0  0  0  0
    5.8141  -12.8176   27.2341 C   0  0  0  0  0  0  0  0  0  0  0  0
    5.8385  -11.8123   26.2894 C   0  0  0  0  0  0  0  0  0  0  0  0
    6.8542  -11.8194   25.3465 C   0  0  0  0  0  0  0  0  0  0  0  0
    7.8354  -12.7888   25.3184 C   0  0  0  0  0  0  0  0  0  0  0  0
   10.1959  -16.4748   25.1291 C   0  0  0  0  0  0  0  0  0  0  0  0
   10.2749  -17.4301   25.9286 O   0  0  0  0  0  0  0  0  0  0  0  0
   11.2972  -16.2338   24.2642 N   0  0  0  0  0  0  0  0  0  0  0  0
   12.4733  -17.1064   24.2614 C   0  0  0  0  0  0  0  0  0  0  0  0
   13.3788  -16.6948   23.1723 C   0  0  0  0  0  0  0  0  0  0  0  0
   13.2349  -17.2483   21.8941 O   0  0  0  0  0  0  0  0  0  0  0  0
   14.2951  -15.8537   23.3327 O   0  0  0  0  0  0  0  0  0  0  0  0
  2  1  1  0
  3  2  1  0
  4  3  2  0
  5  3  1  0
  6  5  1  0
  6  7  1  1
  8  7  1  0
  9  8  2  0
 10  9  1  0
 11 12  1  0
 11 10  2  0
 12 13  2  0
 13  8  1  0
 14 15  2  0
 14  6  1  0
 16 14  1  0
 17 18  1  0
 17 16  1  0
 18 19  1  0
 20 18  2  0
M  END
$$$$
