GFG.pdb
     RDKit          3D

 20 20  0  0  1  0  0  0  0  0999 V2000
    9.2093  -17.8618   19.5003 N   0  0  0  0  0  0  0  0  0  0  0  0
    8.2101  -17.8394   20.4987 C   0  0  0  0  0  0  0  0  0  0  0  0
    8.4730  -16.8598   21.5733 C   0  0  0  0  0  0  0  0  0  0  0  0
    9.6572  -16.5061   21.7679 O   0  0  0  0  0  0  0  0  0  0  0  0
    7.4509  -16.3121   22.3817 N   0  0  0  0  0  0  0  0  0  0  0  0
    7.6632  -15.4868   23.5453 C   0  0  1  0  0  0  0  0  0  0  0  0
    6.5824  -14.4996   23.7865 C   0  0  0  0  0  0  0  0  0  0  0  0
    6.8770  -13.5706   24.9075 C   0  0  0  0  0  0  0  0  0  0  0  0
    6.0389  -13.6378   26.0001 C   0  0  0  0  0  0  0  0  0  0  0  0
    6.2138  -12.8284   27.0942 C   0  0  0  0  0  0  0  0  0  0  0  0
    7.2551  -11.9232   27.1025 C   0  0  0  0  0  0  0  0  0  0  0  0
    8.0885  -11.8681   25.9965 C   0  0  0  0  0  0  0  0  0  0  0  0
    7.9158  -12.6803   24.8947 C   0  0  0  0  0  0  0  0  0  0  0  0
    7.8653  -16.3453   24.7677 C   0  0  0  0  0  0  0  0  0  0  0  0
    6.9795  -17.1084   25.2047 O   0  0  0  0  0  0  0  0  0  0  0  0
    9.1056  -16.2954   25.4592 N   0  0  0  0  0  0  0  0  0  0  0  0
    9.4157  -17.2304   26.5428 C   0  0  0  0  0  0  0  0  0  0  0  0
   10.8192  -17.0437   26.9563 C   0  0  0  0  0  0  0  0  0  0  0  0
   11.1352  -16.8805   28.3108 O   0  0  0  0  0  0  0  0  0  0  0  0
   11.7705  -17.0226   26.1394 O   0  0  0  0  0  0  0  0  0  0  0  0
  2  1  1  0
  3  2  1  0
  4  3  2  0
  5  3  1  0
  6  5  1  0
  6  7  1  1
  8  7  1  0
  9  8  2  0
 10  9  1  0
 11 12  1  0
 11 10  2  0
 12 13  2  0
 13  8  1  0
 14 15  2  0
 14  6  1  0
 16 14  1  0
 17 18  1  0
 17 16  1  0
 18 19  1  0
 20 18  2  0
M  END
$$$$
