NCC.pdb
     RDKit          3D

 21 20  0  0  1  0  0  0  0  0999 V2000
   27.8064  -12.3438  -19.4043 N   0  0  0  0  0  0  0  0  0  0  0  0
   27.5234  -11.2038  -20.2065 C   0  0  0  0  0  0  0  0  0  0  0  0
   28.4197  -10.8038  -20.9920 O   0  0  0  0  0  0  0  0  0  0  0  0
   26.1919  -10.5558  -20.0700 C   0  0  0  0  0  0  0  0  0  0  0  0
   25.4174  -11.3164  -19.0444 C   0  0  2  0  0  0  0  0  0  0  0  0
   25.2682  -12.6733  -19.4625 N   0  0  0  0  0  0  0  0  0  0  0  0
   24.1355  -10.6743  -18.6694 C   0  0  0  0  0  0  0  0  0  0  0  0
   23.0833  -11.0414  -19.2118 O   0  0  0  0  0  0  0  0  0  0  0  0
   24.0685   -9.6429  -17.7016 N   0  0  0  0  0  0  0  0  0  0  0  0
   22.8752   -9.0047  -17.2548 C   0  0  1  0  0  0  0  0  0  0  0  0
   21.8625   -9.9960  -16.7432 C   0  0  0  0  0  0  0  0  0  0  0  0
   20.4363   -9.1178  -16.0813 S   0  0  0  0  0  0  0  0  0  0  0  0
   23.1257   -7.9100  -16.2845 C   0  0  0  0  0  0  0  0  0  0  0  0
   23.6991   -8.1859  -15.2051 O   0  0  0  0  0  0  0  0  0  0  0  0
   22.7512   -6.5611  -16.5113 N   0  0  0  0  0  0  0  0  0  0  0  0
   23.0272   -5.4882  -15.5816 C   0  0  1  0  0  0  0  0  0  0  0  0
   23.5232   -4.3089  -16.4266 C   0  0  0  0  0  0  0  0  0  0  0  0
   25.1419   -4.7673  -17.0916 S   0  0  0  0  0  0  0  0  0  0  0  0
   21.8396   -5.0588  -14.8246 C   0  0  0  0  0  0  0  0  0  0  0  0
   20.6962   -5.2430  -15.2943 O   0  0  0  0  0  0  0  0  0  0  0  0
   21.9632   -4.4492  -13.5926 O   0  0  0  0  0  0  0  0  0  0  0  0
  2  4  1  0
  2  1  1  0
  3  2  2  0
  5  7  1  0
  5  4  1  0
  5  6  1  6
  7  9  1  0
  8  7  2  0
  9 10  1  0
 10 13  1  0
 11 12  1  0
 10 11  1  1
 13 15  1  0
 13 14  2  0
 15 16  1  0
 16 19  1  0
 16 17  1  6
 18 17  1  0
 19 21  1  0
 20 19  2  0
M  END
$$$$
