NCC.pdb
     RDKit          3D

 21 20  0  0  1  0  0  0  0  0999 V2000
   21.4242  -11.4202  -18.5189 N   0  0  0  0  0  0  0  0  0  0  0  0
   20.1638  -12.0134  -18.2317 C   0  0  0  0  0  0  0  0  0  0  0  0
   19.8018  -12.9890  -18.9370 O   0  0  0  0  0  0  0  0  0  0  0  0
   19.3529  -11.4484  -17.1206 C   0  0  0  0  0  0  0  0  0  0  0  0
   20.0760  -10.2544  -16.5895 C   0  0  2  0  0  0  0  0  0  0  0  0
   21.0437  -10.6678  -15.6245 N   0  0  0  0  0  0  0  0  0  0  0  0
   19.1769   -9.1844  -16.0967 C   0  0  0  0  0  0  0  0  0  0  0  0
   18.3805   -8.6438  -16.8775 O   0  0  0  0  0  0  0  0  0  0  0  0
   19.1955   -8.7513  -14.7487 N   0  0  0  0  0  0  0  0  0  0  0  0
   18.3838   -7.7153  -14.2020 C   0  0  1  0  0  0  0  0  0  0  0  0
   17.8465   -8.0776  -12.8418 C   0  0  0  0  0  0  0  0  0  0  0  0
   18.2598   -9.7893  -12.4638 S   0  0  0  0  0  0  0  0  0  0  0  0
   19.0486   -6.3885  -14.2054 C   0  0  0  0  0  0  0  0  0  0  0  0
   18.3813   -5.3833  -13.8673 O   0  0  0  0  0  0  0  0  0  0  0  0
   20.4048   -6.1926  -14.5712 N   0  0  0  0  0  0  0  0  0  0  0  0
   21.0399   -4.8942  -14.6187 C   0  0  1  0  0  0  0  0  0  0  0  0
   22.4268   -5.0747  -13.9905 C   0  0  0  0  0  0  0  0  0  0  0  0
   22.1776   -5.4859  -12.2465 S   0  0  0  0  0  0  0  0  0  0  0  0
   21.2066   -4.3815  -15.9889 C   0  0  0  0  0  0  0  0  0  0  0  0
   20.8618   -5.0801  -16.9661 O   0  0  0  0  0  0  0  0  0  0  0  0
   21.7423   -3.1309  -16.2202 O   0  0  0  0  0  0  0  0  0  0  0  0
  2  4  1  0
  2  1  1  0
  3  2  2  0
  5  7  1  0
  5  4  1  0
  5  6  1  1
  7  9  1  0
  8  7  2  0
  9 10  1  0
 10 13  1  0
 11 12  1  0
 10 11  1  1
 13 15  1  0
 13 14  2  0
 15 16  1  0
 16 19  1  0
 16 17  1  6
 18 17  1  0
 19 21  1  0
 20 19  2  0
M  END
$$$$
