NCC.pdb
     RDKit          3D

 21 20  0  0  1  0  0  0  0  0999 V2000
   15.6470  -13.0485  -17.1509 N   0  0  0  0  0  0  0  0  0  0  0  0
   17.0480  -12.9308  -17.3661 C   0  0  0  0  0  0  0  0  0  0  0  0
   17.5103  -13.3535  -18.4559 O   0  0  0  0  0  0  0  0  0  0  0  0
   17.8789  -12.3182  -16.2957 C   0  0  0  0  0  0  0  0  0  0  0  0
   18.5233  -11.0956  -16.8618 C   0  0  2  0  0  0  0  0  0  0  0  0
   19.6852  -11.4643  -17.6051 N   0  0  0  0  0  0  0  0  0  0  0  0
   18.7820  -10.0388  -15.8556 C   0  0  0  0  0  0  0  0  0  0  0  0
   17.8917   -9.7245  -15.0527 O   0  0  0  0  0  0  0  0  0  0  0  0
   20.0256   -9.3662  -15.7778 N   0  0  0  0  0  0  0  0  0  0  0  0
   20.4047   -8.4446  -14.7589 C   0  0  1  0  0  0  0  0  0  0  0  0
   21.4197   -9.0339  -13.8141 C   0  0  0  0  0  0  0  0  0  0  0  0
   22.9002   -9.4978  -14.7285 S   0  0  0  0  0  0  0  0  0  0  0  0
   20.8350   -7.1282  -15.2919 C   0  0  0  0  0  0  0  0  0  0  0  0
   21.3375   -7.0815  -16.4388 O   0  0  0  0  0  0  0  0  0  0  0  0
   20.7084   -5.9124  -14.5727 N   0  0  0  0  0  0  0  0  0  0  0  0
   21.2716   -4.6575  -15.0195 C   0  0  1  0  0  0  0  0  0  0  0  0
   20.1101   -3.6572  -15.0541 C   0  0  0  0  0  0  0  0  0  0  0  0
   20.8042   -2.0420  -15.4809 S   0  0  0  0  0  0  0  0  0  0  0  0
   22.3140   -4.1379  -14.1189 C   0  0  0  0  0  0  0  0  0  0  0  0
   22.1443   -4.1661  -12.8810 O   0  0  0  0  0  0  0  0  0  0  0  0
   23.4889   -3.6135  -14.6182 O   0  0  0  0  0  0  0  0  0  0  0  0
  2  4  1  0
  2  1  1  0
  3  2  2  0
  5  7  1  0
  5  4  1  0
  5  6  1  1
  7  9  1  0
  8  7  2  0
  9 10  1  0
 10 13  1  0
 11 12  1  0
 10 11  1  6
 13 15  1  0
 13 14  2  0
 15 16  1  0
 16 19  1  0
 16 17  1  1
 18 17  1  0
 19 21  1  0
 20 19  2  0
M  END
$$$$
