NCC.pdb
     RDKit          3D

 21 20  0  0  1  0  0  0  0  0999 V2000
   18.3155  -11.1904  -19.1617 N   0  0  0  0  0  0  0  0  0  0  0  0
   17.5117  -10.0868  -18.7628 C   0  0  0  0  0  0  0  0  0  0  0  0
   16.4576   -9.8660  -19.4111 O   0  0  0  0  0  0  0  0  0  0  0  0
   17.9624   -9.2639  -17.6091 C   0  0  0  0  0  0  0  0  0  0  0  0
   18.9139  -10.0878  -16.8052 C   0  0  2  0  0  0  0  0  0  0  0  0
   18.2092  -11.1553  -16.1711 N   0  0  0  0  0  0  0  0  0  0  0  0
   19.7431   -9.2944  -15.8676 C   0  0  0  0  0  0  0  0  0  0  0  0
   19.2028   -8.6948  -14.9270 O   0  0  0  0  0  0  0  0  0  0  0  0
   21.1484   -9.1948  -16.0097 N   0  0  0  0  0  0  0  0  0  0  0  0
   22.0091   -8.4118  -15.1868 C   0  0  1  0  0  0  0  0  0  0  0  0
   23.4031   -8.9802  -15.1265 C   0  0  0  0  0  0  0  0  0  0  0  0
   23.3809  -10.5450  -14.2352 S   0  0  0  0  0  0  0  0  0  0  0  0
   22.0075   -6.9712  -15.5435 C   0  0  0  0  0  0  0  0  0  0  0  0
   22.2423   -6.6479  -16.7311 O   0  0  0  0  0  0  0  0  0  0  0  0
   21.7533   -5.9335  -14.6109 N   0  0  0  0  0  0  0  0  0  0  0  0
   21.7170   -4.5319  -14.9656 C   0  0  1  0  0  0  0  0  0  0  0  0
   20.3180   -4.2729  -15.5372 C   0  0  0  0  0  0  0  0  0  0  0  0
   19.1208   -4.7967  -14.2862 S   0  0  0  0  0  0  0  0  0  0  0  0
   21.9284   -3.6382  -13.8147 C   0  0  0  0  0  0  0  0  0  0  0  0
   22.1647   -4.1164  -12.6845 O   0  0  0  0  0  0  0  0  0  0  0  0
   21.8702   -2.2669  -13.9587 O   0  0  0  0  0  0  0  0  0  0  0  0
  2  4  1  0
  2  1  1  0
  3  2  2  0
  5  7  1  0
  5  4  1  0
  5  6  1  1
  7  9  1  0
  8  7  2  0
  9 10  1  0
 10 13  1  0
 11 12  1  0
 10 11  1  6
 13 15  1  0
 13 14  2  0
 15 16  1  0
 16 19  1  0
 16 17  1  1
 18 17  1  0
 19 21  1  0
 20 19  2  0
M  END
$$$$
