NCC.pdb
     RDKit          3D

 21 20  0  0  1  0  0  0  0  0999 V2000
   22.8515  -22.7798  -13.0588 N   0  0  0  0  0  0  0  0  0  0  0  0
   22.5024  -21.5131  -12.5142 C   0  0  0  0  0  0  0  0  0  0  0  0
   21.3438  -21.3766  -12.0459 O   0  0  0  0  0  0  0  0  0  0  0  0
   23.5222  -20.4309  -12.5304 C   0  0  0  0  0  0  0  0  0  0  0  0
   24.7278  -20.9508  -13.2422 C   0  0  2  0  0  0  0  0  0  0  0  0
   25.4080  -21.8924  -12.4121 N   0  0  0  0  0  0  0  0  0  0  0  0
   25.6138  -19.8858  -13.7684 C   0  0  0  0  0  0  0  0  0  0  0  0
   26.5432  -19.4589  -13.0683 O   0  0  0  0  0  0  0  0  0  0  0  0
   25.4343  -19.3308  -15.0587 N   0  0  0  0  0  0  0  0  0  0  0  0
   26.2511  -18.3208  -15.6451 C   0  0  1  0  0  0  0  0  0  0  0  0
   27.0359  -18.8418  -16.8209 C   0  0  0  0  0  0  0  0  0  0  0  0
   27.4167  -20.5842  -16.5706 S   0  0  0  0  0  0  0  0  0  0  0  0
   25.5025  -17.0831  -15.9767 C   0  0  0  0  0  0  0  0  0  0  0  0
   24.3875  -17.1897  -16.5383 O   0  0  0  0  0  0  0  0  0  0  0  0
   25.9801  -15.7785  -15.6917 N   0  0  0  0  0  0  0  0  0  0  0  0
   25.2193  -14.5755  -15.9477 C   0  0  1  0  0  0  0  0  0  0  0  0
   25.9135  -13.4567  -15.1621 C   0  0  0  0  0  0  0  0  0  0  0  0
   24.9665  -11.9399  -15.4363 S   0  0  0  0  0  0  0  0  0  0  0  0
   25.1890  -14.2023  -17.3717 C   0  0  0  0  0  0  0  0  0  0  0  0
   26.2006  -14.3709  -18.0858 O   0  0  0  0  0  0  0  0  0  0  0  0
   24.0537  -13.6632  -17.9418 O   0  0  0  0  0  0  0  0  0  0  0  0
  2  4  1  0
  2  1  1  0
  3  2  2  0
  5  7  1  0
  5  4  1  0
  5  6  1  1
  7  9  1  0
  8  7  2  0
  9 10  1  0
 10 13  1  0
 11 12  1  0
 10 11  1  6
 13 15  1  0
 13 14  2  0
 15 16  1  0
 16 19  1  0
 16 17  1  1
 18 17  1  0
 19 21  1  0
 20 19  2  0
M  END
$$$$
