NCC.pdb
     RDKit          3D

 21 20  0  0  1  0  0  0  0  0999 V2000
   21.2649  -14.0077  -21.5041 N   0  0  0  0  0  0  0  0  0  0  0  0
   21.7625  -13.2823  -20.3864 C   0  0  0  0  0  0  0  0  0  0  0  0
   22.9312  -13.5345  -19.9982 O   0  0  0  0  0  0  0  0  0  0  0  0
   20.8765  -12.2739  -19.7463 C   0  0  0  0  0  0  0  0  0  0  0  0
   21.6235  -11.6710  -18.6023 C   0  0  2  0  0  0  0  0  0  0  0  0
   21.8599  -12.6646  -17.6047 N   0  0  0  0  0  0  0  0  0  0  0  0
   20.9981  -10.4392  -18.0660 C   0  0  0  0  0  0  0  0  0  0  0  0
   20.7656   -9.4880  -18.8257 O   0  0  0  0  0  0  0  0  0  0  0  0
   20.6527  -10.3078  -16.6991 N   0  0  0  0  0  0  0  0  0  0  0  0
   20.1481   -9.1254  -16.0839 C   0  0  1  0  0  0  0  0  0  0  0  0
   19.0455   -9.4265  -15.1022 C   0  0  0  0  0  0  0  0  0  0  0  0
   18.5709   -7.9165  -14.2429 S   0  0  0  0  0  0  0  0  0  0  0  0
   21.2104   -8.2770  -15.4889 C   0  0  0  0  0  0  0  0  0  0  0  0
   22.2347   -8.8337  -15.0297 O   0  0  0  0  0  0  0  0  0  0  0  0
   21.1318   -6.8631  -15.4106 N   0  0  0  0  0  0  0  0  0  0  0  0
   22.2085   -6.0288  -14.9245 C   0  0  1  0  0  0  0  0  0  0  0  0
   23.2650   -6.0061  -16.0355 C   0  0  0  0  0  0  0  0  0  0  0  0
   24.6020   -4.9195  -15.4837 S   0  0  0  0  0  0  0  0  0  0  0  0
   21.7880   -4.6455  -14.6460 C   0  0  0  0  0  0  0  0  0  0  0  0
   20.9325   -4.0923  -15.3699 O   0  0  0  0  0  0  0  0  0  0  0  0
   22.3252   -3.9377  -13.5901 O   0  0  0  0  0  0  0  0  0  0  0  0
  2  4  1  0
  2  1  1  0
  3  2  2  0
  5  7  1  0
  5  4  1  0
  5  6  1  1
  7  9  1  0
  8  7  2  0
  9 10  1  0
 10 13  1  0
 11 12  1  0
 10 11  1  1
 13 15  1  0
 13 14  2  0
 15 16  1  0
 16 19  1  0
 16 17  1  6
 18 17  1  0
 19 21  1  0
 20 19  2  0
M  END
$$$$
