NCC.pdb
     RDKit          3D

 21 20  0  0  1  0  0  0  0  0999 V2000
   13.6936  -12.0436   -9.7960 N   0  0  0  0  0  0  0  0  0  0  0  0
   14.9393  -12.2575  -10.4484 C   0  0  0  0  0  0  0  0  0  0  0  0
   15.3713  -13.4362  -10.5131 O   0  0  0  0  0  0  0  0  0  0  0  0
   15.6534  -11.0814  -11.0124 C   0  0  0  0  0  0  0  0  0  0  0  0
   14.8374   -9.8664  -10.7149 C   0  0  2  0  0  0  0  0  0  0  0  0
   13.5628   -9.9758  -11.3488 N   0  0  0  0  0  0  0  0  0  0  0  0
   15.5340   -8.5933  -11.0150 C   0  0  0  0  0  0  0  0  0  0  0  0
   15.7007   -8.2478  -12.1935 O   0  0  0  0  0  0  0  0  0  0  0  0
   16.0229   -7.7467   -9.9907 N   0  0  0  0  0  0  0  0  0  0  0  0
   16.7134   -6.5168  -10.1940 C   0  0  1  0  0  0  0  0  0  0  0  0
   16.5291   -5.5682   -9.0381 C   0  0  0  0  0  0  0  0  0  0  0  0
   17.5102   -4.0828   -9.3114 S   0  0  0  0  0  0  0  0  0  0  0  0
   18.1439   -6.7004  -10.5441 C   0  0  0  0  0  0  0  0  0  0  0  0
   18.8648   -7.3832   -9.7798 O   0  0  0  0  0  0  0  0  0  0  0  0
   18.7447   -6.1440  -11.7021 N   0  0  0  0  0  0  0  0  0  0  0  0
   20.1511   -6.2739  -12.0132 C   0  0  1  0  0  0  0  0  0  0  0  0
   20.2887   -7.5604  -12.8359 C   0  0  0  0  0  0  0  0  0  0  0  0
   22.0103   -7.6681  -13.3812 S   0  0  0  0  0  0  0  0  0  0  0  0
   20.6744   -5.1493  -12.8064 C   0  0  0  0  0  0  0  0  0  0  0  0
   21.9021   -4.9168  -12.8309 O   0  0  0  0  0  0  0  0  0  0  0  0
   19.8279   -4.3360  -13.5321 O   0  0  0  0  0  0  0  0  0  0  0  0
  2  4  1  0
  2  1  1  0
  3  2  2  0
  5  7  1  0
  5  4  1  0
  5  6  1  6
  7  9  1  0
  8  7  2  0
  9 10  1  0
 10 13  1  0
 11 12  1  0
 10 11  1  1
 13 15  1  0
 13 14  2  0
 15 16  1  0
 16 19  1  0
 16 17  1  6
 18 17  1  0
 19 21  1  0
 20 19  2  0
M  END
$$$$
