NCC.pdb
     RDKit          3D

 21 20  0  0  1  0  0  0  0  0999 V2000
   27.8604  -22.1709  -16.8058 N   0  0  0  0  0  0  0  0  0  0  0  0
   27.6796  -23.3978  -16.1093 C   0  0  0  0  0  0  0  0  0  0  0  0
   28.2774  -24.4131  -16.5475 O   0  0  0  0  0  0  0  0  0  0  0  0
   26.7994  -23.4076  -14.9107 C   0  0  0  0  0  0  0  0  0  0  0  0
   26.2633  -22.0259  -14.7271 C   0  0  2  0  0  0  0  0  0  0  0  0
   27.3367  -21.1257  -14.4517 N   0  0  0  0  0  0  0  0  0  0  0  0
   25.1600  -21.9415  -13.7413 C   0  0  0  0  0  0  0  0  0  0  0  0
   24.0894  -22.5236  -13.9669 O   0  0  0  0  0  0  0  0  0  0  0  0
   25.2864  -21.2098  -12.5356 N   0  0  0  0  0  0  0  0  0  0  0  0
   24.2606  -21.0386  -11.5611 C   0  0  1  0  0  0  0  0  0  0  0  0
   24.7661  -20.3382  -10.3267 C   0  0  0  0  0  0  0  0  0  0  0  0
   26.2996  -21.1076   -9.7790 S   0  0  0  0  0  0  0  0  0  0  0  0
   23.0375  -20.3986  -12.1060 C   0  0  0  0  0  0  0  0  0  0  0  0
   23.1327  -19.2540  -12.6067 O   0  0  0  0  0  0  0  0  0  0  0  0
   21.7594  -21.0131  -12.0926 N   0  0  0  0  0  0  0  0  0  0  0  0
   20.5994  -20.4586  -12.7547 C   0  0  1  0  0  0  0  0  0  0  0  0
   20.7573  -20.7933  -14.2427 C   0  0  0  0  0  0  0  0  0  0  0  0
   19.8879  -19.5113  -15.1772 S   0  0  0  0  0  0  0  0  0  0  0  0
   19.3306  -21.0313  -12.2752 C   0  0  0  0  0  0  0  0  0  0  0  0
   18.2769  -20.3623  -12.3389 O   0  0  0  0  0  0  0  0  0  0  0  0
   19.2792  -22.3064  -11.7499 O   0  0  0  0  0  0  0  0  0  0  0  0
  2  4  1  0
  2  1  1  0
  3  2  2  0
  5  7  1  0
  5  4  1  0
  5  6  1  1
  7  9  1  0
  8  7  2  0
  9 10  1  0
 10 13  1  0
 11 12  1  0
 10 11  1  1
 13 15  1  0
 13 14  2  0
 15 16  1  0
 16 19  1  0
 16 17  1  6
 18 17  1  0
 19 21  1  0
 20 19  2  0
M  END
$$$$
