NCC.pdb
     RDKit          3D

 21 20  0  0  1  0  0  0  0  0999 V2000
   18.3052  -21.8119  -11.2628 N   0  0  0  0  0  0  0  0  0  0  0  0
   19.0747  -21.1638  -12.2682 C   0  0  0  0  0  0  0  0  0  0  0  0
   18.5622  -21.0414  -13.4095 O   0  0  0  0  0  0  0  0  0  0  0  0
   20.4322  -20.6716  -11.9126 C   0  0  0  0  0  0  0  0  0  0  0  0
   21.3389  -20.9628  -13.0631 C   0  0  2  0  0  0  0  0  0  0  0  0
   21.3775  -22.3700  -13.3013 N   0  0  0  0  0  0  0  0  0  0  0  0
   22.6833  -20.3537  -12.9305 C   0  0  0  0  0  0  0  0  0  0  0  0
   22.7911  -19.1252  -12.8061 O   0  0  0  0  0  0  0  0  0  0  0  0
   23.8645  -21.1345  -12.9416 N   0  0  0  0  0  0  0  0  0  0  0  0
   25.1935  -20.6240  -12.8765 C   0  0  1  0  0  0  0  0  0  0  0  0
   26.0912  -21.4927  -12.0342 C   0  0  0  0  0  0  0  0  0  0  0  0
   25.7462  -21.2078  -10.2897 S   0  0  0  0  0  0  0  0  0  0  0  0
   25.7783  -20.3443  -14.2115 C   0  0  0  0  0  0  0  0  0  0  0  0
   25.6370  -21.1976  -15.1181 O   0  0  0  0  0  0  0  0  0  0  0  0
   26.4919  -19.1585  -14.5215 N   0  0  0  0  0  0  0  0  0  0  0  0
   26.9724  -18.8387  -15.8475 C   0  0  1  0  0  0  0  0  0  0  0  0
   27.7029  -17.4964  -15.7241 C   0  0  0  0  0  0  0  0  0  0  0  0
   28.2869  -17.0482  -17.3766 S   0  0  0  0  0  0  0  0  0  0  0  0
   27.9125  -19.8394  -16.3791 C   0  0  0  0  0  0  0  0  0  0  0  0
   28.8154  -20.3017  -15.6491 O   0  0  0  0  0  0  0  0  0  0  0  0
   27.8172  -20.2833  -17.6824 O   0  0  0  0  0  0  0  0  0  0  0  0
  2  4  1  0
  2  1  1  0
  3  2  2  0
  5  7  1  0
  5  4  1  0
  5  6  1  1
  7  9  1  0
  8  7  2  0
  9 10  1  0
 10 13  1  0
 11 12  1  0
 10 11  1  6
 13 15  1  0
 13 14  2  0
 15 16  1  0
 16 19  1  0
 16 17  1  1
 18 17  1  0
 19 21  1  0
 20 19  2  0
M  END
$$$$
