NCC.pdb
     RDKit          3D

 21 20  0  0  1  0  0  0  0  0999 V2000
   17.7211  -13.0997  -16.0072 N   0  0  0  0  0  0  0  0  0  0  0  0
   17.9450  -11.8116  -16.5674 C   0  0  0  0  0  0  0  0  0  0  0  0
   17.8294  -11.6869  -17.8129 O   0  0  0  0  0  0  0  0  0  0  0  0
   18.3005  -10.6945  -15.6524 C   0  0  0  0  0  0  0  0  0  0  0  0
   19.3350   -9.8593  -16.3326 C   0  0  2  0  0  0  0  0  0  0  0  0
   20.5516  -10.5980  -16.4459 N   0  0  0  0  0  0  0  0  0  0  0  0
   19.5164   -8.5216  -15.7214 C   0  0  0  0  0  0  0  0  0  0  0  0
   18.5358   -7.7797  -15.5660 O   0  0  0  0  0  0  0  0  0  0  0  0
   20.7860   -8.0541  -15.3036 N   0  0  0  0  0  0  0  0  0  0  0  0
   21.0692   -6.7385  -14.8345 C   0  0  1  0  0  0  0  0  0  0  0  0
   22.2246   -6.7205  -13.8678 C   0  0  0  0  0  0  0  0  0  0  0  0
   22.5426   -5.0296  -13.3357 S   0  0  0  0  0  0  0  0  0  0  0  0
   21.2408   -5.7517  -15.9296 C   0  0  0  0  0  0  0  0  0  0  0  0
   22.2073   -5.8905  -16.7150 O   0  0  0  0  0  0  0  0  0  0  0  0
   20.3675   -4.6541  -16.1393 N   0  0  0  0  0  0  0  0  0  0  0  0
   20.5473   -3.6801  -17.1931 C   0  0  1  0  0  0  0  0  0  0  0  0
   19.1655   -3.4765  -17.8257 C   0  0  0  0  0  0  0  0  0  0  0  0
   18.6945   -5.0407  -18.6032 S   0  0  0  0  0  0  0  0  0  0  0  0
   21.0368   -2.3810  -16.7027 C   0  0  0  0  0  0  0  0  0  0  0  0
   21.0862   -2.1522  -15.4751 O   0  0  0  0  0  0  0  0  0  0  0  0
   21.4470   -1.3981  -17.5803 O   0  0  0  0  0  0  0  0  0  0  0  0
  2  4  1  0
  2  1  1  0
  3  2  2  0
  5  7  1  0
  5  4  1  0
  5  6  1  1
  7  9  1  0
  8  7  2  0
  9 10  1  0
 10 13  1  0
 11 12  1  0
 10 11  1  6
 13 15  1  0
 13 14  2  0
 15 16  1  0
 16 19  1  0
 16 17  1  1
 18 17  1  0
 19 21  1  0
 20 19  2  0
M  END
$$$$
