NCC.pdb
     RDKit          3D

 21 20  0  0  1  0  0  0  0  0999 V2000
   27.6531  -33.2224  -13.7368 N   0  0  0  0  0  0  0  0  0  0  0  0
   27.2541  -33.4765  -12.3954 C   0  0  0  0  0  0  0  0  0  0  0  0
   27.8955  -34.3426  -11.7481 O   0  0  0  0  0  0  0  0  0  0  0  0
   26.1087  -32.7075  -11.8403 C   0  0  0  0  0  0  0  0  0  0  0  0
   25.7339  -33.3265  -10.5339 C   0  0  2  0  0  0  0  0  0  0  0  0
   25.3883  -34.6975  -10.7325 N   0  0  0  0  0  0  0  0  0  0  0  0
   24.7047  -32.5648   -9.7877 C   0  0  0  0  0  0  0  0  0  0  0  0
   24.6265  -31.3362   -9.9307 O   0  0  0  0  0  0  0  0  0  0  0  0
   23.7962  -33.1981   -8.9054 N   0  0  0  0  0  0  0  0  0  0  0  0
   22.6867  -32.5690   -8.2696 C   0  0  1  0  0  0  0  0  0  0  0  0
   21.8034  -31.8509   -9.2564 C   0  0  0  0  0  0  0  0  0  0  0  0
   20.3810  -31.1532   -8.4000 S   0  0  0  0  0  0  0  0  0  0  0  0
   21.9164  -33.4875   -7.3947 C   0  0  0  0  0  0  0  0  0  0  0  0
   21.3755  -34.4932   -7.9106 O   0  0  0  0  0  0  0  0  0  0  0  0
   21.7572  -33.2906   -5.9992 N   0  0  0  0  0  0  0  0  0  0  0  0
   21.0989  -34.2394   -5.1286 C   0  0  1  0  0  0  0  0  0  0  0  0
   21.9680  -34.3367   -3.8692 C   0  0  0  0  0  0  0  0  0  0  0  0
   23.6951  -34.3484   -4.4076 S   0  0  0  0  0  0  0  0  0  0  0  0
   19.7439  -33.8193   -4.7344 C   0  0  0  0  0  0  0  0  0  0  0  0
   19.2916  -32.7195   -5.1188 O   0  0  0  0  0  0  0  0  0  0  0  0
   18.9528  -34.6237   -3.9395 O   0  0  0  0  0  0  0  0  0  0  0  0
  2  4  1  0
  2  1  1  0
  3  2  2  0
  5  7  1  0
  5  4  1  0
  5  6  1  6
  7  9  1  0
  8  7  2  0
  9 10  1  0
 10 13  1  0
 11 12  1  0
 10 11  1  6
 13 15  1  0
 13 14  2  0
 15 16  1  0
 16 19  1  0
 16 17  1  1
 18 17  1  0
 19 21  1  0
 20 19  2  0
M  END
$$$$
