NCC.pdb
     RDKit          3D

 21 20  0  0  1  0  0  0  0  0999 V2000
   16.8215  -22.2337  -12.4782 N   0  0  0  0  0  0  0  0  0  0  0  0
   17.9285  -23.0916  -12.7268 C   0  0  0  0  0  0  0  0  0  0  0  0
   18.0305  -24.1324  -12.0294 O   0  0  0  0  0  0  0  0  0  0  0  0
   18.8946  -22.7093  -13.7908 C   0  0  0  0  0  0  0  0  0  0  0  0
   20.1004  -22.1312  -13.1259 C   0  0  2  0  0  0  0  0  0  0  0  0
   19.7196  -21.0083  -12.3306 N   0  0  0  0  0  0  0  0  0  0  0  0
   21.2122  -21.8374  -14.0606 C   0  0  0  0  0  0  0  0  0  0  0  0
   21.6423  -22.7315  -14.8034 O   0  0  0  0  0  0  0  0  0  0  0  0
   21.8091  -20.5556  -14.1362 N   0  0  0  0  0  0  0  0  0  0  0  0
   22.8840  -20.1939  -14.9993 C   0  0  1  0  0  0  0  0  0  0  0  0
   22.5591  -18.9769  -15.8259 C   0  0  0  0  0  0  0  0  0  0  0  0
   21.8812  -17.6883  -14.7660 S   0  0  0  0  0  0  0  0  0  0  0  0
   24.1817  -20.0592  -14.2919 C   0  0  0  0  0  0  0  0  0  0  0  0
   24.2091  -19.4391  -13.2035 O   0  0  0  0  0  0  0  0  0  0  0  0
   25.3999  -20.5963  -14.7807 N   0  0  0  0  0  0  0  0  0  0  0  0
   26.6732  -20.4210  -14.1179 C   0  0  1  0  0  0  0  0  0  0  0  0
   26.5673  -21.1723  -12.7855 C   0  0  0  0  0  0  0  0  0  0  0  0
   28.1702  -21.0296  -11.9590 S   0  0  0  0  0  0  0  0  0  0  0  0
   27.8041  -20.9740  -14.8817 C   0  0  0  0  0  0  0  0  0  0  0  0
   27.6227  -21.9280  -15.6683 O   0  0  0  0  0  0  0  0  0  0  0  0
   29.0757  -20.4553  -14.7457 O   0  0  0  0  0  0  0  0  0  0  0  0
  2  4  1  0
  2  1  1  0
  3  2  2  0
  5  7  1  0
  5  4  1  0
  5  6  1  6
  7  9  1  0
  8  7  2  0
  9 10  1  0
 10 13  1  0
 11 12  1  0
 10 11  1  1
 13 15  1  0
 13 14  2  0
 15 16  1  0
 16 19  1  0
 16 17  1  1
 18 17  1  0
 19 21  1  0
 20 19  2  0
M  END
$$$$
