DVL.pdb
     RDKit          3D

 24 23  0  0  1  0  0  0  0  0999 V2000
   12.7015  -14.5962   18.3849 N   0  0  0  0  0  0  0  0  0  0  0  0
   12.5115  -15.1360   19.6878 C   0  0  1  0  0  0  0  0  0  0  0  0
   13.7753  -15.2105   20.5008 C   0  0  0  0  0  0  0  0  0  0  0  0
   14.7432  -16.1480   19.8757 C   0  0  0  0  0  0  0  0  0  0  0  0
   14.3165  -17.1562   19.2495 O   0  0  0  0  0  0  0  0  0  0  0  0
   11.4129  -14.4121   20.3966 C   0  0  0  0  0  0  0  0  0  0  0  0
   11.6192  -13.1900   20.6950 O   0  0  0  0  0  0  0  0  0  0  0  0
   16.1077  -15.9676   19.9474 O   0  0  0  0  0  0  0  0  0  0  0  0
    6.7956  -13.5465   21.5147 C   0  0  0  0  0  0  0  0  0  0  0  0
    7.8388  -14.3112   20.7059 C   0  0  1  0  0  0  0  0  0  0  0  0
    8.0045  -13.5835   19.3925 C   0  0  0  0  0  0  0  0  0  0  0  0
    9.1025  -14.4558   21.4699 C   0  0  2  0  0  0  0  0  0  0  0  0
   10.1825  -15.0313   20.7370 N   0  0  0  0  0  0  0  0  0  0  0  0
    8.9505  -14.9573   22.8653 C   0  0  0  0  0  0  0  0  0  0  0  0
    9.6222  -15.9344   23.2595 O   0  0  0  0  0  0  0  0  0  0  0  0
    6.0893  -11.8796   26.6950 C   0  0  0  0  0  0  0  0  0  0  0  0
    7.3872  -12.4704   26.0448 C   0  0  1  0  0  0  0  0  0  0  0  0
    8.4839  -11.9779   26.9282 C   0  0  0  0  0  0  0  0  0  0  0  0
    7.1382  -13.9154   25.9865 C   0  0  0  0  0  0  0  0  0  0  0  0
    7.9829  -14.8307   25.2111 C   0  0  2  0  0  0  0  0  0  0  0  0
    8.0606  -14.3697   23.7959 N   0  0  0  0  0  0  0  0  0  0  0  0
    7.6567  -16.2517   25.2439 C   0  0  0  0  0  0  0  0  0  0  0  0
    6.8705  -16.7894   24.2057 O   0  0  0  0  0  0  0  0  0  0  0  0
    8.0062  -17.0601   26.1108 O   0  0  0  0  0  0  0  0  0  0  0  0
  2  1  1  6
  2  6  1  0
  2  3  1  0
  3  4  1  0
  4  8  1  0
  4  5  2  0
  6 13  1  0
  6  7  2  0
 10  9  1  1
 10 11  1  0
 12 10  1  0
 12 13  1  6
 14 15  2  0
 14 12  1  0
 17 16  1  1
 17 19  1  0
 18 17  1  0
 20 19  1  1
 20 21  1  0
 21 14  1  0
 22 20  1  0
 23 22  1  0
 24 22  2  0
M  END
$$$$
