DVL.pdb
     RDKit          3D

 24 23  0  0  1  0  0  0  0  0999 V2000
   11.0433  -18.5229   19.6068 N   0  0  0  0  0  0  0  0  0  0  0  0
   11.9856  -17.5835   20.1112 C   0  0  1  0  0  0  0  0  0  0  0  0
   12.7188  -16.8272   19.0368 C   0  0  0  0  0  0  0  0  0  0  0  0
   13.8431  -17.6381   18.5030 C   0  0  0  0  0  0  0  0  0  0  0  0
   14.2898  -18.6037   19.1802 O   0  0  0  0  0  0  0  0  0  0  0  0
   11.3376  -16.6807   21.1105 C   0  0  0  0  0  0  0  0  0  0  0  0
   12.0540  -15.7479   21.6025 O   0  0  0  0  0  0  0  0  0  0  0  0
   14.4324  -17.3829   17.2834 O   0  0  0  0  0  0  0  0  0  0  0  0
    7.1892  -15.0684   23.3525 C   0  0  0  0  0  0  0  0  0  0  0  0
    7.8370  -15.9158   22.2619 C   0  0  1  0  0  0  0  0  0  0  0  0
    7.5066  -15.2663   20.9387 C   0  0  0  0  0  0  0  0  0  0  0  0
    9.2931  -16.0694   22.5026 C   0  0  2  0  0  0  0  0  0  0  0  0
    9.9860  -16.8306   21.5150 N   0  0  0  0  0  0  0  0  0  0  0  0
    9.6790  -16.3658   23.9115 C   0  0  0  0  0  0  0  0  0  0  0  0
    9.8748  -17.5450   24.2755 O   0  0  0  0  0  0  0  0  0  0  0  0
   10.9846  -12.8906   28.8008 C   0  0  0  0  0  0  0  0  0  0  0  0
   10.9219  -14.4117   28.4285 C   0  0  1  0  0  0  0  0  0  0  0  0
   10.0207  -14.9949   29.4646 C   0  0  0  0  0  0  0  0  0  0  0  0
   10.4739  -14.4250   27.0311 C   0  0  0  0  0  0  0  0  0  0  0  0
   10.2417  -15.6691   26.2891 C   0  0  2  0  0  0  0  0  0  0  0  0
    9.8409  -15.3547   24.8884 N   0  0  0  0  0  0  0  0  0  0  0  0
    9.3107  -16.6375   26.8569 C   0  0  0  0  0  0  0  0  0  0  0  0
    9.8299  -17.7549   27.5401 O   0  0  0  0  0  0  0  0  0  0  0  0
    8.0773  -16.5820   26.8017 O   0  0  0  0  0  0  0  0  0  0  0  0
  2  1  1  6
  2  6  1  0
  2  3  1  0
  3  4  1  0
  4  8  1  0
  4  5  2  0
  6 13  1  0
  6  7  2  0
 10  9  1  1
 10 11  1  0
 12 10  1  0
 12 13  1  6
 14 15  2  0
 14 12  1  0
 17 16  1  1
 17 19  1  0
 18 17  1  0
 20 19  1  1
 20 21  1  0
 21 14  1  0
 22 20  1  0
 23 22  1  0
 24 22  2  0
M  END
$$$$
