DVL.pdb
     RDKit          3D

 24 23  0  0  1  0  0  0  0  0999 V2000
   67.6391  -16.9127   -2.7574 N   0  0  0  0  0  0  0  0  0  0  0  0
   68.1929  -15.8429   -3.5148 C   0  0  1  0  0  0  0  0  0  0  0  0
   69.6127  -15.5116   -3.1434 C   0  0  0  0  0  0  0  0  0  0  0  0
   69.6849  -15.0228   -1.7426 C   0  0  0  0  0  0  0  0  0  0  0  0
   70.4037  -14.0233   -1.4689 O   0  0  0  0  0  0  0  0  0  0  0  0
   68.0253  -16.0988   -4.9777 C   0  0  0  0  0  0  0  0  0  0  0  0
   67.1103  -15.4476   -5.5812 O   0  0  0  0  0  0  0  0  0  0  0  0
   68.9933  -15.6178   -0.7094 O   0  0  0  0  0  0  0  0  0  0  0  0
   70.4086  -18.4445   -8.3772 C   0  0  0  0  0  0  0  0  0  0  0  0
   69.4828  -17.2793   -8.0420 C   0  0  1  0  0  0  0  0  0  0  0  0
   68.0654  -17.7851   -8.1734 C   0  0  0  0  0  0  0  0  0  0  0  0
   69.7940  -16.7214   -6.7027 C   0  0  2  0  0  0  0  0  0  0  0  0
   68.8334  -17.0209   -5.6916 N   0  0  0  0  0  0  0  0  0  0  0  0
   70.2974  -15.3184   -6.6973 C   0  0  0  0  0  0  0  0  0  0  0  0
   69.5482  -14.3797   -7.0422 O   0  0  0  0  0  0  0  0  0  0  0  0
   74.9702  -15.3186   -6.6631 C   0  0  0  0  0  0  0  0  0  0  0  0
   74.2482  -14.6841   -5.4252 C   0  0  1  0  0  0  0  0  0  0  0  0
   75.3566  -14.4261   -4.4604 C   0  0  0  0  0  0  0  0  0  0  0  0
   73.5259  -13.5324   -5.9775 C   0  0  0  0  0  0  0  0  0  0  0  0
   72.0880  -13.5681   -6.2668 C   0  0  2  0  0  0  0  0  0  0  0  0
   71.6167  -14.9814   -6.3113 N   0  0  0  0  0  0  0  0  0  0  0  0
   71.6129  -12.8582   -7.4488 C   0  0  0  0  0  0  0  0  0  0  0  0
   70.2947  -12.3609   -7.4550 O   0  0  0  0  0  0  0  0  0  0  0  0
   72.2619  -12.6390   -8.4774 O   0  0  0  0  0  0  0  0  0  0  0  0
  2  1  1  1
  2  6  1  0
  2  3  1  0
  3  4  1  0
  4  8  1  0
  4  5  2  0
  6 13  1  0
  6  7  2  0
 10  9  1  1
 10 11  1  0
 12 10  1  0
 12 13  1  1
 14 15  2  0
 14 12  1  0
 17 16  1  6
 17 19  1  0
 18 17  1  0
 20 19  1  6
 20 21  1  0
 21 14  1  0
 22 20  1  0
 23 22  1  0
 24 22  2  0
M  END
$$$$
