DVL.pdb
     RDKit          3D

 24 23  0  0  1  0  0  0  0  0999 V2000
   11.2155  -18.5576   20.2557 N   0  0  0  0  0  0  0  0  0  0  0  0
   11.9626  -17.4517   20.7493 C   0  0  1  0  0  0  0  0  0  0  0  0
   12.8328  -16.7986   19.7100 C   0  0  0  0  0  0  0  0  0  0  0  0
   13.8995  -17.7305   19.2625 C   0  0  0  0  0  0  0  0  0  0  0  0
   14.4892  -18.4540   20.1106 O   0  0  0  0  0  0  0  0  0  0  0  0
   11.0607  -16.4795   21.4384 C   0  0  0  0  0  0  0  0  0  0  0  0
   11.6102  -15.4842   22.0153 O   0  0  0  0  0  0  0  0  0  0  0  0
   14.2832  -17.8454   17.9437 O   0  0  0  0  0  0  0  0  0  0  0  0
    6.4970  -14.6346   22.0566 C   0  0  0  0  0  0  0  0  0  0  0  0
    7.3786  -15.7089   21.4273 C   0  0  1  0  0  0  0  0  0  0  0  0
    7.4547  -15.4119   19.9482 C   0  0  0  0  0  0  0  0  0  0  0  0
    8.7039  -15.7657   22.0922 C   0  0  2  0  0  0  0  0  0  0  0  0
    9.6503  -16.6310   21.4675 N   0  0  0  0  0  0  0  0  0  0  0  0
    8.6683  -15.8409   23.5804 C   0  0  0  0  0  0  0  0  0  0  0  0
    9.2105  -16.7966   24.1754 O   0  0  0  0  0  0  0  0  0  0  0  0
    6.4094  -11.5954   26.6400 C   0  0  0  0  0  0  0  0  0  0  0  0
    7.6114  -12.4553   26.1186 C   0  0  1  0  0  0  0  0  0  0  0  0
    8.7927  -11.8823   26.8270 C   0  0  0  0  0  0  0  0  0  0  0  0
    7.2250  -13.8387   26.4192 C   0  0  0  0  0  0  0  0  0  0  0  0
    7.9352  -14.9949   25.8612 C   0  0  2  0  0  0  0  0  0  0  0  0
    8.0353  -14.8598   24.3803 N   0  0  0  0  0  0  0  0  0  0  0  0
    7.4410  -16.3253   26.1972 C   0  0  0  0  0  0  0  0  0  0  0  0
    6.4213  -16.8882   25.4044 O   0  0  0  0  0  0  0  0  0  0  0  0
    7.8321  -17.0339   27.1310 O   0  0  0  0  0  0  0  0  0  0  0  0
  2  1  1  6
  2  6  1  0
  2  3  1  0
  3  4  1  0
  4  8  1  0
  4  5  2  0
  6 13  1  0
  6  7  2  0
 10  9  1  1
 10 11  1  0
 12 10  1  0
 12 13  1  6
 14 15  2  0
 14 12  1  0
 17 16  1  1
 17 19  1  0
 18 17  1  0
 20 19  1  6
 20 21  1  0
 21 14  1  0
 22 20  1  0
 23 22  1  0
 24 22  2  0
M  END
$$$$
