DVL.pdb
     RDKit          3D

 24 23  0  0  1  0  0  0  0  0999 V2000
   11.3303  -14.6619   18.0611 N   0  0  0  0  0  0  0  0  0  0  0  0
   11.5669  -14.8574   19.4506 C   0  0  1  0  0  0  0  0  0  0  0  0
   12.7884  -14.1430   19.9616 C   0  0  0  0  0  0  0  0  0  0  0  0
   14.0172  -14.7025   19.3422 C   0  0  0  0  0  0  0  0  0  0  0  0
   14.2439  -15.9407   19.4193 O   0  0  0  0  0  0  0  0  0  0  0  0
   10.3390  -14.5340   20.2388 C   0  0  0  0  0  0  0  0  0  0  0  0
    9.7401  -13.4432   19.9614 O   0  0  0  0  0  0  0  0  0  0  0  0
   14.9374  -13.9220   18.6761 O   0  0  0  0  0  0  0  0  0  0  0  0
    7.0594  -15.4177   20.2421 C   0  0  0  0  0  0  0  0  0  0  0  0
    7.4621  -15.8516   21.6482 C   0  0  1  0  0  0  0  0  0  0  0  0
    7.5878  -17.3568   21.6304 C   0  0  0  0  0  0  0  0  0  0  0  0
    8.6977  -15.1561   22.0856 C   0  0  2  0  0  0  0  0  0  0  0  0
    9.8373  -15.3835   21.2584 N   0  0  0  0  0  0  0  0  0  0  0  0
    8.9660  -15.1936   23.5513 C   0  0  0  0  0  0  0  0  0  0  0  0
   10.0277  -15.6903   23.9843 O   0  0  0  0  0  0  0  0  0  0  0  0
    5.9304  -12.0337   27.0471 C   0  0  0  0  0  0  0  0  0  0  0  0
    7.2229  -12.4816   26.2822 C   0  0  1  0  0  0  0  0  0  0  0  0
    8.2418  -11.4672   26.6804 C   0  0  0  0  0  0  0  0  0  0  0  0
    7.4279  -13.8732   26.7003 C   0  0  0  0  0  0  0  0  0  0  0  0
    8.3087  -14.7937   25.9727 C   0  0  2  0  0  0  0  0  0  0  0  0
    8.0570  -14.6820   24.5080 N   0  0  0  0  0  0  0  0  0  0  0  0
    8.2981  -16.1987   26.3635 C   0  0  0  0  0  0  0  0  0  0  0  0
    7.6680  -17.1318   25.5166 O   0  0  0  0  0  0  0  0  0  0  0  0
    8.7977  -16.6739   27.3892 O   0  0  0  0  0  0  0  0  0  0  0  0
  2  1  1  6
  2  6  1  0
  2  3  1  0
  3  4  1  0
  4  8  1  0
  4  5  2  0
  6 13  1  0
  6  7  2  0
 10  9  1  6
 10 11  1  0
 12 10  1  0
 12 13  1  6
 14 15  2  0
 14 12  1  0
 17 16  1  1
 17 19  1  0
 18 17  1  0
 20 19  1  1
 20 21  1  0
 21 14  1  0
 22 20  1  0
 23 22  1  0
 24 22  2  0
M  END
$$$$
