DVL.pdb
     RDKit          3D

 24 23  0  0  1  0  0  0  0  0999 V2000
   13.2648  -14.2531   19.0915 N   0  0  0  0  0  0  0  0  0  0  0  0
   12.5683  -15.1844   19.9115 C   0  0  1  0  0  0  0  0  0  0  0  0
   13.4638  -15.9611   20.8380 C   0  0  0  0  0  0  0  0  0  0  0  0
   14.3737  -16.8447   20.0647 C   0  0  0  0  0  0  0  0  0  0  0  0
   14.5089  -16.6648   18.8237 O   0  0  0  0  0  0  0  0  0  0  0  0
   11.4450  -14.5085   20.6291 C   0  0  0  0  0  0  0  0  0  0  0  0
   11.7052  -13.4016   21.2057 O   0  0  0  0  0  0  0  0  0  0  0  0
   15.0896  -17.8689   20.6462 O   0  0  0  0  0  0  0  0  0  0  0  0
    6.6352  -13.8044   21.3927 C   0  0  0  0  0  0  0  0  0  0  0  0
    7.7728  -14.4033   20.5714 C   0  0  1  0  0  0  0  0  0  0  0  0
    7.9316  -13.5445   19.3388 C   0  0  0  0  0  0  0  0  0  0  0  0
    9.0107  -14.5168   21.3815 C   0  0  2  0  0  0  0  0  0  0  0  0
   10.1351  -15.0508   20.6847 N   0  0  0  0  0  0  0  0  0  0  0  0
    8.8221  -15.0374   22.7653 C   0  0  0  0  0  0  0  0  0  0  0  0
    9.3594  -16.1107   23.1126 O   0  0  0  0  0  0  0  0  0  0  0  0
    5.9487  -11.8892   26.3518 C   0  0  0  0  0  0  0  0  0  0  0  0
    7.3050  -12.5106   25.8716 C   0  0  1  0  0  0  0  0  0  0  0  0
    8.3139  -11.9250   26.8015 C   0  0  0  0  0  0  0  0  0  0  0  0
    7.0766  -13.9595   25.9174 C   0  0  0  0  0  0  0  0  0  0  0  0
    7.8546  -14.9065   25.1110 C   0  0  2  0  0  0  0  0  0  0  0  0
    8.0446  -14.3624   23.7365 N   0  0  0  0  0  0  0  0  0  0  0  0
    7.3794  -16.2828   25.0292 C   0  0  0  0  0  0  0  0  0  0  0  0
    7.8373  -17.2143   25.9818 O   0  0  0  0  0  0  0  0  0  0  0  0
    6.5941  -16.7341   24.1884 O   0  0  0  0  0  0  0  0  0  0  0  0
  2  1  1  1
  2  6  1  0
  2  3  1  0
  3  4  1  0
  4  8  1  0
  4  5  2  0
  6 13  1  0
  6  7  2  0
 10  9  1  1
 10 11  1  0
 12 10  1  0
 12 13  1  6
 14 15  2  0
 14 12  1  0
 17 16  1  1
 17 19  1  0
 18 17  1  0
 20 19  1  6
 20 21  1  0
 21 14  1  0
 22 20  1  0
 23 22  1  0
 24 22  2  0
M  END
$$$$
