DVL.pdb
     RDKit          3D

 24 23  0  0  1  0  0  0  0  0999 V2000
   13.0729  -14.7433   18.2879 N   0  0  0  0  0  0  0  0  0  0  0  0
   12.8042  -15.1305   19.6305 C   0  0  1  0  0  0  0  0  0  0  0  0
   13.9857  -14.9810   20.5501 C   0  0  0  0  0  0  0  0  0  0  0  0
   15.1196  -15.8191   20.0827 C   0  0  0  0  0  0  0  0  0  0  0  0
   16.2312  -15.2780   19.8332 O   0  0  0  0  0  0  0  0  0  0  0  0
   11.5858  -14.4313   20.1406 C   0  0  0  0  0  0  0  0  0  0  0  0
   11.6380  -13.1605   20.2280 O   0  0  0  0  0  0  0  0  0  0  0  0
   15.0152  -17.1818   19.9050 O   0  0  0  0  0  0  0  0  0  0  0  0
    6.7587  -14.1637   20.7830 C   0  0  0  0  0  0  0  0  0  0  0  0
    8.0033  -14.7945   20.1663 C   0  0  1  0  0  0  0  0  0  0  0  0
    8.1357  -14.2413   18.7669 C   0  0  0  0  0  0  0  0  0  0  0  0
    9.1963  -14.5567   21.0159 C   0  0  2  0  0  0  0  0  0  0  0  0
   10.4072  -15.1243   20.5197 N   0  0  0  0  0  0  0  0  0  0  0  0
    8.9786  -14.7197   22.4814 C   0  0  0  0  0  0  0  0  0  0  0  0
    9.4970  -15.6789   23.0918 O   0  0  0  0  0  0  0  0  0  0  0  0
    6.8736  -11.0175   26.8616 C   0  0  0  0  0  0  0  0  0  0  0  0
    7.1787  -12.5458   26.6949 C   0  0  1  0  0  0  0  0  0  0  0  0
    5.9444  -13.2125   27.2026 C   0  0  0  0  0  0  0  0  0  0  0  0
    7.5149  -12.6957   25.2743 C   0  0  0  0  0  0  0  0  0  0  0  0
    8.0813  -13.9322   24.7242 C   0  0  2  0  0  0  0  0  0  0  0  0
    8.1936  -13.8207   23.2421 N   0  0  0  0  0  0  0  0  0  0  0  0
    7.4329  -15.1918   25.0707 C   0  0  0  0  0  0  0  0  0  0  0  0
    6.3837  -15.6594   24.2549 O   0  0  0  0  0  0  0  0  0  0  0  0
    7.7132  -15.9155   26.0324 O   0  0  0  0  0  0  0  0  0  0  0  0
  2  1  1  6
  2  6  1  0
  2  3  1  0
  3  4  1  0
  4  8  1  0
  4  5  2  0
  6 13  1  0
  6  7  2  0
 10  9  1  1
 10 11  1  0
 12 10  1  0
 12 13  1  6
 14 15  2  0
 14 12  1  0
 17 16  1  6
 17 19  1  0
 18 17  1  0
 20 19  1  6
 20 21  1  0
 21 14  1  0
 22 20  1  0
 23 22  1  0
 24 22  2  0
M  END
$$$$
