DVL.pdb
     RDKit          3D

 24 23  0  0  1  0  0  0  0  0999 V2000
   10.0709  -19.0307   19.8116 N   0  0  0  0  0  0  0  0  0  0  0  0
    9.2853  -18.5538   20.8980 C   0  0  1  0  0  0  0  0  0  0  0  0
    9.4445  -19.3603   22.1581 C   0  0  0  0  0  0  0  0  0  0  0  0
    9.6069  -20.8017   21.8378 C   0  0  0  0  0  0  0  0  0  0  0  0
    9.6743  -21.1671   20.6326 O   0  0  0  0  0  0  0  0  0  0  0  0
    9.5263  -17.0948   21.1141 C   0  0  0  0  0  0  0  0  0  0  0  0
   10.7168  -16.7373   21.3971 O   0  0  0  0  0  0  0  0  0  0  0  0
    9.6890  -21.7761   22.8091 O   0  0  0  0  0  0  0  0  0  0  0  0
    6.1583  -14.3261   21.1027 C   0  0  0  0  0  0  0  0  0  0  0  0
    7.5480  -13.8941   20.6451 C   0  0  1  0  0  0  0  0  0  0  0  0
    7.6779  -12.4199   20.9480 C   0  0  0  0  0  0  0  0  0  0  0  0
    8.5993  -14.7272   21.2794 C   0  0  2  0  0  0  0  0  0  0  0  0
    8.4949  -16.1253   21.0163 N   0  0  0  0  0  0  0  0  0  0  0  0
    8.9280  -14.3747   22.6899 C   0  0  0  0  0  0  0  0  0  0  0  0
    9.3492  -13.2324   22.9713 O   0  0  0  0  0  0  0  0  0  0  0  0
    8.3098  -12.1398   26.8429 C   0  0  0  0  0  0  0  0  0  0  0  0
    7.2125  -13.2225   26.5596 C   0  0  1  0  0  0  0  0  0  0  0  0
    5.9337  -12.4562   26.6156 C   0  0  0  0  0  0  0  0  0  0  0  0
    7.6111  -13.8161   25.2781 C   0  0  0  0  0  0  0  0  0  0  0  0
    8.6602  -14.8364   25.1739 C   0  0  2  0  0  0  0  0  0  0  0  0
    8.7848  -15.2902   23.7597 N   0  0  0  0  0  0  0  0  0  0  0  0
    8.5715  -15.9971   26.0524 C   0  0  0  0  0  0  0  0  0  0  0  0
    8.2093  -17.2400   25.4967 O   0  0  0  0  0  0  0  0  0  0  0  0
    8.7864  -16.0083   27.2694 O   0  0  0  0  0  0  0  0  0  0  0  0
  2  1  1  6
  2  6  1  0
  2  3  1  0
  3  4  1  0
  4  8  1  0
  4  5  2  0
  6 13  1  0
  6  7  2  0
 10  9  1  1
 10 11  1  0
 12 10  1  0
 12 13  1  1
 14 15  2  0
 14 12  1  0
 17 16  1  6
 17 19  1  0
 18 17  1  0
 20 19  1  6
 20 21  1  0
 21 14  1  0
 22 20  1  0
 23 22  1  0
 24 22  2  0
M  END
$$$$
