DVL.pdb
     RDKit          3D

 24 23  0  0  1  0  0  0  0  0999 V2000
   10.9933  -18.9471   20.3720 N   0  0  0  0  0  0  0  0  0  0  0  0
   10.0511  -18.6542   21.3974 C   0  0  1  0  0  0  0  0  0  0  0  0
   10.2744  -19.4352   22.6638 C   0  0  0  0  0  0  0  0  0  0  0  0
   10.3647  -20.8887   22.3711 C   0  0  0  0  0  0  0  0  0  0  0  0
   11.3980  -21.5281   22.7091 O   0  0  0  0  0  0  0  0  0  0  0  0
    9.9808  -17.1804   21.6349 C   0  0  0  0  0  0  0  0  0  0  0  0
   11.0865  -16.5548   21.7414 O   0  0  0  0  0  0  0  0  0  0  0  0
    9.3581  -21.5851   21.7375 O   0  0  0  0  0  0  0  0  0  0  0  0
    7.2799  -12.9959   21.7703 C   0  0  0  0  0  0  0  0  0  0  0  0
    7.3680  -14.4799   21.4278 C   0  0  1  0  0  0  0  0  0  0  0  0
    7.3261  -14.5923   19.9220 C   0  0  0  0  0  0  0  0  0  0  0  0
    8.5726  -15.0955   22.0375 C   0  0  2  0  0  0  0  0  0  0  0  0
    8.7519  -16.4796   21.7425 N   0  0  0  0  0  0  0  0  0  0  0  0
    8.8364  -14.7142   23.4541 C   0  0  0  0  0  0  0  0  0  0  0  0
    9.0096  -13.5155   23.7614 O   0  0  0  0  0  0  0  0  0  0  0  0
    5.7706  -13.0123   26.0798 C   0  0  0  0  0  0  0  0  0  0  0  0
    7.3123  -13.1942   25.8644 C   0  0  1  0  0  0  0  0  0  0  0  0
    7.9189  -12.1347   26.7218 C   0  0  0  0  0  0  0  0  0  0  0  0
    7.5640  -14.5976   26.2118 C   0  0  0  0  0  0  0  0  0  0  0  0
    8.8427  -15.2614   25.9351 C   0  0  2  0  0  0  0  0  0  0  0  0
    8.9031  -15.6639   24.5013 N   0  0  0  0  0  0  0  0  0  0  0  0
    9.2191  -16.3924   26.7754 C   0  0  0  0  0  0  0  0  0  0  0  0
    9.4550  -17.6399   26.1646 O   0  0  0  0  0  0  0  0  0  0  0  0
    9.3578  -16.3740   28.0033 O   0  0  0  0  0  0  0  0  0  0  0  0
  2  1  1  6
  2  6  1  0
  2  3  1  0
  3  4  1  0
  4  8  1  0
  4  5  2  0
  6 13  1  0
  6  7  2  0
 10  9  1  6
 10 11  1  0
 12 10  1  0
 12 13  1  1
 14 15  2  0
 14 12  1  0
 17 16  1  1
 17 19  1  0
 18 17  1  0
 20 19  1  1
 20 21  1  0
 21 14  1  0
 22 20  1  0
 23 22  1  0
 24 22  2  0
M  END
$$$$
