DVL.pdb
     RDKit          3D

 24 23  0  0  1  0  0  0  0  0999 V2000
   12.7845  -16.5433   19.4478 N   0  0  0  0  0  0  0  0  0  0  0  0
   12.3133  -17.0391   20.6955 C   0  0  1  0  0  0  0  0  0  0  0  0
   13.4080  -17.2997   21.6942 C   0  0  0  0  0  0  0  0  0  0  0  0
   14.3307  -18.3510   21.1942 C   0  0  0  0  0  0  0  0  0  0  0  0
   13.8648  -19.3377   20.5619 O   0  0  0  0  0  0  0  0  0  0  0  0
   11.2395  -16.1517   21.2369 C   0  0  0  0  0  0  0  0  0  0  0  0
   11.5139  -14.9123   21.3556 O   0  0  0  0  0  0  0  0  0  0  0  0
   15.6940  -18.3005   21.3905 O   0  0  0  0  0  0  0  0  0  0  0  0
    6.5132  -15.2133   22.2326 C   0  0  0  0  0  0  0  0  0  0  0  0
    7.5678  -16.1025   21.5812 C   0  0  1  0  0  0  0  0  0  0  0  0
    7.5430  -15.8097   20.0994 C   0  0  0  0  0  0  0  0  0  0  0  0
    8.8974  -15.8957   22.2067 C   0  0  2  0  0  0  0  0  0  0  0  0
    9.9605  -16.6379   21.6120 N   0  0  0  0  0  0  0  0  0  0  0  0
    8.9042  -15.8698   23.6970 C   0  0  0  0  0  0  0  0  0  0  0  0
    9.6122  -16.6761   24.3372 O   0  0  0  0  0  0  0  0  0  0  0  0
    6.0785  -11.8097   26.4419 C   0  0  0  0  0  0  0  0  0  0  0  0
    7.4062  -12.5131   25.9960 C   0  0  1  0  0  0  0  0  0  0  0  0
    8.4761  -11.6864   26.6264 C   0  0  0  0  0  0  0  0  0  0  0  0
    7.2481  -13.9022   26.4419 C   0  0  0  0  0  0  0  0  0  0  0  0
    8.0905  -14.9928   25.9384 C   0  0  2  0  0  0  0  0  0  0  0  0
    8.1296  -14.9546   24.4490 N   0  0  0  0  0  0  0  0  0  0  0  0
    7.7885  -16.3483   26.3837 C   0  0  0  0  0  0  0  0  0  0  0  0
    6.9138  -17.1356   25.6091 O   0  0  0  0  0  0  0  0  0  0  0  0
    8.2306  -16.8978   27.3985 O   0  0  0  0  0  0  0  0  0  0  0  0
  2  1  1  6
  2  6  1  0
  2  3  1  0
  3  4  1  0
  4  8  1  0
  4  5  2  0
  6 13  1  0
  6  7  2  0
 10  9  1  1
 10 11  1  0
 12 10  1  0
 12 13  1  1
 14 15  2  0
 14 12  1  0
 17 16  1  1
 17 19  1  0
 18 17  1  0
 20 19  1  6
 20 21  1  0
 21 14  1  0
 22 20  1  0
 23 22  1  0
 24 22  2  0
M  END
$$$$
