WHM.pdb
     RDKit          3D

 33 35  0  0  1  0  0  0  0  0999 V2000
    9.0838  -16.0442   20.8045 N   0  0  0  0  0  0  0  0  0  0  0  0
    8.4806  -15.0840   21.7253 C   0  0  1  0  0  0  0  0  0  0  0  0
    7.2306  -14.5054   21.0461 C   0  0  0  0  0  0  0  0  0  0  0  0
    7.6503  -13.8947   19.7597 C   0  0  0  0  0  0  0  0  0  0  0  0
    8.3123  -12.6801   19.5813 C   0  0  0  0  0  0  0  0  0  0  0  0
    8.5166  -12.4758   18.2693 N   0  0  0  0  0  0  0  0  0  0  0  0
    8.0206  -13.5000   17.5645 C   0  0  0  0  0  0  0  0  0  0  0  0
    7.9799  -13.7603   16.2118 C   0  0  0  0  0  0  0  0  0  0  0  0
    7.3877  -14.9276   15.7778 C   0  0  0  0  0  0  0  0  0  0  0  0
    6.8392  -15.8316   16.6755 C   0  0  0  0  0  0  0  0  0  0  0  0
    6.8956  -15.5427   18.0248 C   0  0  0  0  0  0  0  0  0  0  0  0
    7.4750  -14.3961   18.4841 C   0  0  0  0  0  0  0  0  0  0  0  0
    8.1509  -15.6917   23.0187 C   0  0  0  0  0  0  0  0  0  0  0  0
    7.6113  -14.9465   23.8936 O   0  0  0  0  0  0  0  0  0  0  0  0
    8.3816  -17.0415   23.3795 N   0  0  0  0  0  0  0  0  0  0  0  0
    8.1942  -17.4854   24.7517 C   0  0  1  0  0  0  0  0  0  0  0  0
    7.9837  -18.9817   24.7357 C   0  0  0  0  0  0  0  0  0  0  0  0
    7.8659  -19.4867   26.0977 C   0  0  0  0  0  0  0  0  0  0  0  0
    8.6763  -20.3843   26.7378 C   0  0  0  0  0  0  0  0  0  0  0  0
    8.2253  -20.6095   27.9961 N   0  0  0  0  0  0  0  0  0  0  0  0
    7.1266  -19.8439   28.1329 C   0  0  0  0  0  0  0  0  0  0  0  0
    6.9017  -19.1602   26.9874 N   0  0  0  0  0  0  0  0  0  0  0  0
    9.2917  -17.0390   25.6301 C   0  0  0  0  0  0  0  0  0  0  0  0
   10.4915  -17.2745   25.3401 O   0  0  0  0  0  0  0  0  0  0  0  0
    7.3122  -11.5199   26.2573 C   0  0  0  0  0  0  0  0  0  0  0  0
    7.8059  -12.7038   27.5134 S   0  0  0  0  0  0  0  0  0  0  0  0
    9.4009  -13.4997   27.1060 C   0  0  0  0  0  0  0  0  0  0  0  0
    9.8028  -14.4428   28.2084 C   0  0  0  0  0  0  0  0  0  0  0  0
   10.1943  -15.7596   27.6312 C   0  0  2  0  0  0  0  0  0  0  0  0
    9.0748  -16.3253   26.8405 N   0  0  0  0  0  0  0  0  0  0  0  0
   10.6571  -16.7756   28.5702 C   0  0  0  0  0  0  0  0  0  0  0  0
    9.9563  -17.8300   28.7741 O   0  0  0  0  0  0  0  0  0  0  0  0
   11.8285  -16.7200   29.2971 O   0  0  0  0  0  0  0  0  0  0  0  0
  2  1  1  6
  2 13  1  0
  2  3  1  0
  4  5  2  0
  4  3  1  0
  6  5  1  0
  7 12  2  0
  7  6  1  0
  8  7  1  0
  9 10  1  0
  9  8  2  0
 10 11  2  0
 11 12  1  0
 12  4  1  0
 13 14  2  0
 15 13  1  0
 15 16  1  0
 16 17  1  6
 18 17  1  0
 19 18  2  0
 20 21  1  0
 20 19  1  0
 21 22  2  0
 22 18  1  0
 23 24  2  0
 23 16  1  0
 25 26  1  0
 26 27  1  0
 27 28  1  0
 29 28  1  1
 29 30  1  0
 30 23  1  0
 31 29  1  0
 31 33  1  0
 32 31  2  0
M  END
$$$$
