WHM.pdb
     RDKit          3D

 33 35  0  0  1  0  0  0  0  0999 V2000
    8.9958  -17.7242   20.2019 N   0  0  0  0  0  0  0  0  0  0  0  0
    9.1741  -16.7790   21.3012 C   0  0  1  0  0  0  0  0  0  0  0  0
    7.7806  -16.3190   21.7541 C   0  0  0  0  0  0  0  0  0  0  0  0
    7.3813  -15.1673   20.9068 C   0  0  0  0  0  0  0  0  0  0  0  0
    6.7747  -15.2162   19.6519 C   0  0  0  0  0  0  0  0  0  0  0  0
    6.5717  -13.9642   19.2090 N   0  0  0  0  0  0  0  0  0  0  0  0
    7.0157  -13.0821   20.1128 C   0  0  0  0  0  0  0  0  0  0  0  0
    7.0357  -11.7043   20.1304 C   0  0  0  0  0  0  0  0  0  0  0  0
    7.5710  -11.0620   21.2270 C   0  0  0  0  0  0  0  0  0  0  0  0
    8.0830  -11.7775   22.2993 C   0  0  0  0  0  0  0  0  0  0  0  0
    8.0485  -13.1573   22.2523 C   0  0  0  0  0  0  0  0  0  0  0  0
    7.5253  -13.8206   21.1811 C   0  0  0  0  0  0  0  0  0  0  0  0
    9.9300  -17.3629   22.4141 C   0  0  0  0  0  0  0  0  0  0  0  0
    9.4867  -18.4397   22.9200 O   0  0  0  0  0  0  0  0  0  0  0  0
   11.1156  -16.8303   22.9763 N   0  0  0  0  0  0  0  0  0  0  0  0
   11.7228  -17.4439   24.1467 C   0  0  1  0  0  0  0  0  0  0  0  0
   13.1922  -17.6482   23.8596 C   0  0  0  0  0  0  0  0  0  0  0  0
   13.3622  -18.5631   22.7380 C   0  0  0  0  0  0  0  0  0  0  0  0
   13.6648  -18.2582   21.4388 C   0  0  0  0  0  0  0  0  0  0  0  0
   13.7223  -19.3885   20.6928 N   0  0  0  0  0  0  0  0  0  0  0  0
   13.4526  -20.3995   21.5397 C   0  0  0  0  0  0  0  0  0  0  0  0
   13.2333  -19.9082   22.7810 N   0  0  0  0  0  0  0  0  0  0  0  0
   11.4483  -16.6767   25.3761 C   0  0  0  0  0  0  0  0  0  0  0  0
   12.0179  -15.5786   25.5964 O   0  0  0  0  0  0  0  0  0  0  0  0
    8.1053  -11.6556   26.4079 C   0  0  0  0  0  0  0  0  0  0  0  0
    7.8547  -13.3877   26.8080 S   0  0  0  0  0  0  0  0  0  0  0  0
    9.4302  -14.2276   27.2027 C   0  0  0  0  0  0  0  0  0  0  0  0
    9.1593  -15.6164   27.7168 C   0  0  0  0  0  0  0  0  0  0  0  0
   10.4117  -16.4229   27.6820 C   0  0  2  0  0  0  0  0  0  0  0  0
   10.5388  -17.1154   26.3771 N   0  0  0  0  0  0  0  0  0  0  0  0
   10.5888  -17.4052   28.7459 C   0  0  0  0  0  0  0  0  0  0  0  0
   10.4920  -18.6576   28.4880 O   0  0  0  0  0  0  0  0  0  0  0  0
   10.8652  -17.1146   30.0662 O   0  0  0  0  0  0  0  0  0  0  0  0
  2  1  1  6
  2 13  1  0
  2  3  1  0
  4  5  2  0
  4  3  1  0
  6  5  1  0
  7 12  2  0
  7  6  1  0
  8  7  1  0
  9 10  1  0
  9  8  2  0
 10 11  2  0
 11 12  1  0
 12  4  1  0
 13 14  2  0
 15 13  1  0
 15 16  1  0
 16 17  1  6
 18 17  1  0
 19 18  2  0
 20 21  1  0
 20 19  1  0
 21 22  2  0
 22 18  1  0
 23 24  2  0
 23 16  1  0
 25 26  1  0
 26 27  1  0
 27 28  1  0
 29 28  1  6
 29 30  1  0
 30 23  1  0
 31 29  1  0
 31 33  1  0
 32 31  2  0
M  END
$$$$
