WHM.pdb
     RDKit          3D

 33 35  0  0  1  0  0  0  0  0999 V2000
    6.1799  -17.9605   25.0357 N   0  0  0  0  0  0  0  0  0  0  0  0
    7.0482  -16.8626   24.6178 C   0  0  1  0  0  0  0  0  0  0  0  0
    7.4962  -16.1129   25.8810 C   0  0  0  0  0  0  0  0  0  0  0  0
    6.6226  -14.9233   26.0410 C   0  0  0  0  0  0  0  0  0  0  0  0
    5.4882  -14.8145   26.8451 C   0  0  0  0  0  0  0  0  0  0  0  0
    4.9725  -13.5804   26.7186 N   0  0  0  0  0  0  0  0  0  0  0  0
    5.7124  -12.8611   25.8660 C   0  0  0  0  0  0  0  0  0  0  0  0
    5.6031  -11.5652   25.4100 C   0  0  0  0  0  0  0  0  0  0  0  0
    6.5398  -11.0956   24.5135 C   0  0  0  0  0  0  0  0  0  0  0  0
    7.5779  -11.9020   24.0709 C   0  0  0  0  0  0  0  0  0  0  0  0
    7.6608  -13.1960   24.5462 C   0  0  0  0  0  0  0  0  0  0  0  0
    6.7490  -13.6886   25.4336 C   0  0  0  0  0  0  0  0  0  0  0  0
    8.1997  -17.3343   23.8417 C   0  0  0  0  0  0  0  0  0  0  0  0
    8.9134  -18.2509   24.3540 O   0  0  0  0  0  0  0  0  0  0  0  0
    8.5874  -16.8563   22.5663 N   0  0  0  0  0  0  0  0  0  0  0  0
    9.9360  -17.0781   22.0691 C   0  0  1  0  0  0  0  0  0  0  0  0
   10.0191  -16.5114   20.6708 C   0  0  0  0  0  0  0  0  0  0  0  0
   11.2969  -16.8602   20.0628 C   0  0  0  0  0  0  0  0  0  0  0  0
   11.9739  -18.0466   20.1438 C   0  0  0  0  0  0  0  0  0  0  0  0
   13.1365  -17.9717   19.4509 N   0  0  0  0  0  0  0  0  0  0  0  0
   13.1767  -16.7277   18.9380 C   0  0  0  0  0  0  0  0  0  0  0  0
   12.0659  -16.0476   19.3038 N   0  0  0  0  0  0  0  0  0  0  0  0
   10.9578  -16.5544   22.9950 C   0  0  0  0  0  0  0  0  0  0  0  0
   10.7737  -15.4834   23.6259 O   0  0  0  0  0  0  0  0  0  0  0  0
   10.2558  -14.4912   28.2827 C   0  0  0  0  0  0  0  0  0  0  0  0
   11.3622  -15.8801   28.0186 S   0  0  0  0  0  0  0  0  0  0  0  0
   12.2781  -15.7279   26.4433 C   0  0  0  0  0  0  0  0  0  0  0  0
   12.1819  -17.0128   25.6648 C   0  0  0  0  0  0  0  0  0  0  0  0
   13.0183  -16.9240   24.4349 C   0  0  2  0  0  0  0  0  0  0  0  0
   12.1962  -17.2103   23.2346 N   0  0  0  0  0  0  0  0  0  0  0  0
   14.2100  -17.7643   24.3903 C   0  0  0  0  0  0  0  0  0  0  0  0
   14.1834  -18.8860   23.7694 O   0  0  0  0  0  0  0  0  0  0  0  0
   15.4240  -17.4639   24.9733 O   0  0  0  0  0  0  0  0  0  0  0  0
  2  1  1  1
  2 13  1  0
  2  3  1  0
  4  5  2  0
  4  3  1  0
  6  5  1  0
  7 12  2  0
  7  6  1  0
  8  7  1  0
  9 10  1  0
  9  8  2  0
 10 11  2  0
 11 12  1  0
 12  4  1  0
 13 14  2  0
 15 13  1  0
 15 16  1  0
 16 17  1  6
 18 17  1  0
 19 18  2  0
 20 21  1  0
 20 19  1  0
 21 22  2  0
 22 18  1  0
 23 24  2  0
 23 16  1  0
 25 26  1  0
 26 27  1  0
 27 28  1  0
 29 28  1  1
 29 30  1  0
 30 23  1  0
 31 29  1  0
 31 33  1  0
 32 31  2  0
M  END
$$$$
