WHM.pdb
     RDKit          3D

 33 35  0  0  1  0  0  0  0  0999 V2000
    6.2633  -18.2878   25.4142 N   0  0  0  0  0  0  0  0  0  0  0  0
    6.7588  -17.0634   24.7904 C   0  0  1  0  0  0  0  0  0  0  0  0
    7.4539  -16.2317   25.8783 C   0  0  0  0  0  0  0  0  0  0  0  0
    6.6233  -15.0281   26.1345 C   0  0  0  0  0  0  0  0  0  0  0  0
    5.3154  -14.9957   26.6178 C   0  0  0  0  0  0  0  0  0  0  0  0
    4.9101  -13.7184   26.7132 N   0  0  0  0  0  0  0  0  0  0  0  0
    5.8895  -12.8972   26.3152 C   0  0  0  0  0  0  0  0  0  0  0  0
    5.9688  -11.5242   26.2274 C   0  0  0  0  0  0  0  0  0  0  0  0
    7.1383  -10.9546   25.7696 C   0  0  0  0  0  0  0  0  0  0  0  0
    8.2223  -11.7376   25.4012 C   0  0  0  0  0  0  0  0  0  0  0  0
    8.1124  -13.1107   25.5006 C   0  0  0  0  0  0  0  0  0  0  0  0
    6.9684  -13.7029   25.9500 C   0  0  0  0  0  0  0  0  0  0  0  0
    7.6657  -17.3418   23.6719 C   0  0  0  0  0  0  0  0  0  0  0  0
    8.5398  -18.2470   23.8400 O   0  0  0  0  0  0  0  0  0  0  0  0
    7.6523  -16.6880   22.4158 N   0  0  0  0  0  0  0  0  0  0  0  0
    8.7384  -16.8797   21.4677 C   0  0  1  0  0  0  0  0  0  0  0  0
    8.3218  -16.2716   20.1486 C   0  0  0  0  0  0  0  0  0  0  0  0
    9.3188  -16.5603   19.1256 C   0  0  0  0  0  0  0  0  0  0  0  0
   10.4783  -17.2752   19.2554 C   0  0  0  0  0  0  0  0  0  0  0  0
   11.1442  -17.3076   18.0751 N   0  0  0  0  0  0  0  0  0  0  0  0
   10.3884  -16.6063   17.2098 C   0  0  0  0  0  0  0  0  0  0  0  0
    9.2805  -16.1500   17.8380 N   0  0  0  0  0  0  0  0  0  0  0  0
   10.0211  -16.3715   21.9891 C   0  0  0  0  0  0  0  0  0  0  0  0
   10.3516  -15.1685   21.8388 O   0  0  0  0  0  0  0  0  0  0  0  0
   10.4046  -15.5991   28.4764 C   0  0  0  0  0  0  0  0  0  0  0  0
   11.1157  -14.9347   26.9678 S   0  0  0  0  0  0  0  0  0  0  0  0
   11.2094  -16.1972   25.6485 C   0  0  0  0  0  0  0  0  0  0  0  0
   11.6590  -15.5632   24.3592 C   0  0  0  0  0  0  0  0  0  0  0  0
   12.1143  -16.6163   23.4084 C   0  0  2  0  0  0  0  0  0  0  0  0
   10.9540  -17.1887   22.6842 N   0  0  0  0  0  0  0  0  0  0  0  0
   12.8959  -17.7128   23.9696 C   0  0  0  0  0  0  0  0  0  0  0  0
   12.4995  -18.9240   23.8275 O   0  0  0  0  0  0  0  0  0  0  0  0
   14.0766  -17.5777   24.6707 O   0  0  0  0  0  0  0  0  0  0  0  0
  2  1  1  1
  2 13  1  0
  2  3  1  0
  4  5  2  0
  4  3  1  0
  6  5  1  0
  7 12  2  0
  7  6  1  0
  8  7  1  0
  9 10  1  0
  9  8  2  0
 10 11  2  0
 11 12  1  0
 12  4  1  0
 13 14  2  0
 15 13  1  0
 15 16  1  0
 16 17  1  6
 18 17  1  0
 19 18  2  0
 20 21  1  0
 20 19  1  0
 21 22  2  0
 22 18  1  0
 23 24  2  0
 23 16  1  0
 25 26  1  0
 26 27  1  0
 27 28  1  0
 29 28  1  1
 29 30  1  0
 30 23  1  0
 31 29  1  0
 31 33  1  0
 32 31  2  0
M  END
$$$$
