WHM.pdb
     RDKit          3D

 33 35  0  0  1  0  0  0  0  0999 V2000
    6.2138  -18.2038   23.9663 N   0  0  0  0  0  0  0  0  0  0  0  0
    7.4044  -17.8009   23.2220 C   0  0  1  0  0  0  0  0  0  0  0  0
    7.2155  -16.3387   22.7921 C   0  0  0  0  0  0  0  0  0  0  0  0
    6.7569  -15.5694   23.9761 C   0  0  0  0  0  0  0  0  0  0  0  0
    6.0242  -16.0514   25.0605 C   0  0  0  0  0  0  0  0  0  0  0  0
    5.8044  -15.0487   25.9272 N   0  0  0  0  0  0  0  0  0  0  0  0
    6.3579  -13.9192   25.4692 C   0  0  0  0  0  0  0  0  0  0  0  0
    6.4103  -12.6401   25.9794 C   0  0  0  0  0  0  0  0  0  0  0  0
    7.0688  -11.6649   25.2604 C   0  0  0  0  0  0  0  0  0  0  0  0
    7.6716  -11.9527   24.0448 C   0  0  0  0  0  0  0  0  0  0  0  0
    7.6022  -13.2439   23.5598 C   0  0  0  0  0  0  0  0  0  0  0  0
    6.9578  -14.2297   24.2486 C   0  0  0  0  0  0  0  0  0  0  0  0
    8.6307  -17.9708   24.0083 C   0  0  0  0  0  0  0  0  0  0  0  0
    8.5370  -17.8540   25.2690 O   0  0  0  0  0  0  0  0  0  0  0  0
    9.9150  -18.2551   23.4838 N   0  0  0  0  0  0  0  0  0  0  0  0
   10.9433  -17.2276   23.4408 C   0  0  1  0  0  0  0  0  0  0  0  0
   10.3434  -15.9902   22.8142 C   0  0  0  0  0  0  0  0  0  0  0  0
   10.3262  -16.1205   21.3627 C   0  0  0  0  0  0  0  0  0  0  0  0
   10.7513  -17.1779   20.6054 C   0  0  0  0  0  0  0  0  0  0  0  0
   10.5821  -16.9093   19.2876 N   0  0  0  0  0  0  0  0  0  0  0  0
   10.0479  -15.6750   19.2319 C   0  0  0  0  0  0  0  0  0  0  0  0
    9.8894  -15.1898   20.4848 N   0  0  0  0  0  0  0  0  0  0  0  0
   11.5508  -17.0001   24.7654 C   0  0  0  0  0  0  0  0  0  0  0  0
   12.5336  -16.2295   24.9047 O   0  0  0  0  0  0  0  0  0  0  0  0
    8.6894  -13.0218   28.2417 C   0  0  0  0  0  0  0  0  0  0  0  0
    9.3544  -14.5534   28.9012 S   0  0  0  0  0  0  0  0  0  0  0  0
   10.3779  -15.4349   27.6687 C   0  0  0  0  0  0  0  0  0  0  0  0
   10.8178  -16.7647   28.2204 C   0  0  0  0  0  0  0  0  0  0  0  0
   11.7457  -17.4289   27.2622 C   0  0  2  0  0  0  0  0  0  0  0  0
   11.0775  -17.6225   25.9528 N   0  0  0  0  0  0  0  0  0  0  0  0
   12.3197  -18.7029   27.6814 C   0  0  0  0  0  0  0  0  0  0  0  0
   12.0770  -19.7692   27.0117 O   0  0  0  0  0  0  0  0  0  0  0  0
   13.1384  -18.8909   28.7760 O   0  0  0  0  0  0  0  0  0  0  0  0
  2  1  1  1
  2 13  1  0
  2  3  1  0
  4  5  2  0
  4  3  1  0
  6  5  1  0
  7 12  2  0
  7  6  1  0
  8  7  1  0
  9 10  1  0
  9  8  2  0
 10 11  2  0
 11 12  1  0
 12  4  1  0
 13 14  2  0
 15 13  1  0
 15 16  1  0
 16 17  1  1
 18 17  1  0
 19 18  2  0
 20 21  1  0
 20 19  1  0
 21 22  2  0
 22 18  1  0
 23 24  2  0
 23 16  1  0
 25 26  1  0
 26 27  1  0
 27 28  1  0
 29 28  1  1
 29 30  1  0
 30 23  1  0
 31 29  1  0
 31 33  1  0
 32 31  2  0
M  END
$$$$
