WHM.pdb
     RDKit          3D

 33 35  0  0  1  0  0  0  0  0999 V2000
    6.0924  -17.6892   23.0106 N   0  0  0  0  0  0  0  0  0  0  0  0
    7.0425  -16.6074   23.2573 C   0  0  1  0  0  0  0  0  0  0  0  0
    7.3815  -16.6143   24.7551 C   0  0  0  0  0  0  0  0  0  0  0  0
    6.6368  -15.5025   25.3979 C   0  0  0  0  0  0  0  0  0  0  0  0
    5.4855  -15.6017   26.1788 C   0  0  0  0  0  0  0  0  0  0  0  0
    5.1141  -14.3739   26.5781 N   0  0  0  0  0  0  0  0  0  0  0  0
    5.9665  -13.4600   26.0985 C   0  0  0  0  0  0  0  0  0  0  0  0
    6.0206  -12.0886   26.2222 C   0  0  0  0  0  0  0  0  0  0  0  0
    7.0432  -11.4054   25.5983 C   0  0  0  0  0  0  0  0  0  0  0  0
    8.0061  -12.0740   24.8569 C   0  0  0  0  0  0  0  0  0  0  0  0
    7.9251  -13.4487   24.7516 C   0  0  0  0  0  0  0  0  0  0  0  0
    6.9252  -14.1517   25.3576 C   0  0  0  0  0  0  0  0  0  0  0  0
    8.2512  -16.7364   22.4369 C   0  0  0  0  0  0  0  0  0  0  0  0
    8.6152  -17.9089   22.1134 O   0  0  0  0  0  0  0  0  0  0  0  0
    9.0513  -15.6648   21.9713 N   0  0  0  0  0  0  0  0  0  0  0  0
   10.3717  -15.9120   21.4140 C   0  0  1  0  0  0  0  0  0  0  0  0
   10.7170  -14.7607   20.4981 C   0  0  0  0  0  0  0  0  0  0  0  0
    9.6552  -14.5617   19.5198 C   0  0  0  0  0  0  0  0  0  0  0  0
    9.2871  -15.3892   18.4941 C   0  0  0  0  0  0  0  0  0  0  0  0
    8.2616  -14.8432   17.7957 N   0  0  0  0  0  0  0  0  0  0  0  0
    7.9951  -13.6684   18.3964 C   0  0  0  0  0  0  0  0  0  0  0  0
    8.8347  -13.4900   19.4420 N   0  0  0  0  0  0  0  0  0  0  0  0
   11.3741  -16.1695   22.4650 C   0  0  0  0  0  0  0  0  0  0  0  0
   12.6039  -16.0704   22.2269 O   0  0  0  0  0  0  0  0  0  0  0  0
   10.1140  -13.5971   28.6260 C   0  0  0  0  0  0  0  0  0  0  0  0
   10.0134  -15.3208   28.1340 S   0  0  0  0  0  0  0  0  0  0  0  0
   10.4247  -15.5470   26.3668 C   0  0  0  0  0  0  0  0  0  0  0  0
   11.3683  -16.7083   26.2017 C   0  0  0  0  0  0  0  0  0  0  0  0
   12.0390  -16.6313   24.8734 C   0  0  2  0  0  0  0  0  0  0  0  0
   11.0274  -16.5394   23.7933 N   0  0  0  0  0  0  0  0  0  0  0  0
   12.9693  -17.7062   24.5453 C   0  0  0  0  0  0  0  0  0  0  0  0
   12.5969  -18.6698   23.7857 O   0  0  0  0  0  0  0  0  0  0  0  0
   14.2733  -17.7992   24.9867 O   0  0  0  0  0  0  0  0  0  0  0  0
  2  1  1  1
  2 13  1  0
  2  3  1  0
  4  5  2  0
  4  3  1  0
  6  5  1  0
  7 12  2  0
  7  6  1  0
  8  7  1  0
  9 10  1  0
  9  8  2  0
 10 11  2  0
 11 12  1  0
 12  4  1  0
 13 14  2  0
 15 13  1  0
 15 16  1  0
 16 17  1  1
 18 17  1  0
 19 18  2  0
 20 21  1  0
 20 19  1  0
 21 22  2  0
 22 18  1  0
 23 24  2  0
 23 16  1  0
 25 26  1  0
 26 27  1  0
 27 28  1  0
 29 28  1  1
 29 30  1  0
 30 23  1  0
 31 29  1  0
 31 33  1  0
 32 31  2  0
M  END
$$$$
