WHM.pdb
     RDKit          3D

 33 35  0  0  1  0  0  0  0  0999 V2000
    6.4440  -18.7779   22.1316 N   0  0  0  0  0  0  0  0  0  0  0  0
    7.1981  -17.5299   22.2178 C   0  0  1  0  0  0  0  0  0  0  0  0
    6.4609  -16.6038   23.1963 C   0  0  0  0  0  0  0  0  0  0  0  0
    7.0086  -15.2340   23.0305 C   0  0  0  0  0  0  0  0  0  0  0  0
    7.8172  -14.7711   21.9927 C   0  0  0  0  0  0  0  0  0  0  0  0
    8.1045  -13.4751   22.1995 N   0  0  0  0  0  0  0  0  0  0  0  0
    7.5234  -13.0528   23.3290 C   0  0  0  0  0  0  0  0  0  0  0  0
    7.5139  -11.8302   23.9650 C   0  0  0  0  0  0  0  0  0  0  0  0
    6.8082  -11.6998   25.1425 C   0  0  0  0  0  0  0  0  0  0  0  0
    6.1162  -12.7712   25.6876 C   0  0  0  0  0  0  0  0  0  0  0  0
    6.1445  -13.9836   25.0268 C   0  0  0  0  0  0  0  0  0  0  0  0
    6.8338  -14.1430   23.8603 C   0  0  0  0  0  0  0  0  0  0  0  0
    8.5859  -17.7514   22.6371 C   0  0  0  0  0  0  0  0  0  0  0  0
    8.7806  -18.5158   23.6320 O   0  0  0  0  0  0  0  0  0  0  0  0
    9.7327  -17.1864   22.0279 N   0  0  0  0  0  0  0  0  0  0  0  0
   11.0667  -17.5360   22.4896 C   0  0  1  0  0  0  0  0  0  0  0  0
   12.0589  -17.0780   21.4459 C   0  0  0  0  0  0  0  0  0  0  0  0
   11.8087  -17.7594   20.1822 C   0  0  0  0  0  0  0  0  0  0  0  0
   12.2236  -19.0057   19.7990 C   0  0  0  0  0  0  0  0  0  0  0  0
   11.7989  -19.2753   18.5403 N   0  0  0  0  0  0  0  0  0  0  0  0
   11.1160  -18.1851   18.1437 C   0  0  0  0  0  0  0  0  0  0  0  0
   11.1169  -17.2618   19.1326 N   0  0  0  0  0  0  0  0  0  0  0  0
   11.3338  -17.0193   23.8450 C   0  0  0  0  0  0  0  0  0  0  0  0
   11.5818  -15.8028   24.0384 O   0  0  0  0  0  0  0  0  0  0  0  0
    8.9021  -14.0486   29.9779 C   0  0  0  0  0  0  0  0  0  0  0  0
    8.8525  -14.7407   28.3221 S   0  0  0  0  0  0  0  0  0  0  0  0
   10.1862  -15.9633   28.0576 C   0  0  0  0  0  0  0  0  0  0  0  0
   10.2214  -16.3832   26.6124 C   0  0  0  0  0  0  0  0  0  0  0  0
   11.3903  -17.2756   26.3723 C   0  0  2  0  0  0  0  0  0  0  0  0
   11.3288  -17.8431   25.0038 N   0  0  0  0  0  0  0  0  0  0  0  0
   11.5856  -18.3691   27.3180 C   0  0  0  0  0  0  0  0  0  0  0  0
   11.1439  -19.5418   27.0457 O   0  0  0  0  0  0  0  0  0  0  0  0
   12.2290  -18.2704   28.5346 O   0  0  0  0  0  0  0  0  0  0  0  0
  2  1  1  1
  2 13  1  0
  2  3  1  0
  4  5  2  0
  4  3  1  0
  6  5  1  0
  7 12  2  0
  7  6  1  0
  8  7  1  0
  9 10  1  0
  9  8  2  0
 10 11  2  0
 11 12  1  0
 12  4  1  0
 13 14  2  0
 15 13  1  0
 15 16  1  0
 16 17  1  6
 18 17  1  0
 19 18  2  0
 20 21  1  0
 20 19  1  0
 21 22  2  0
 22 18  1  0
 23 24  2  0
 23 16  1  0
 25 26  1  0
 26 27  1  0
 27 28  1  0
 29 28  1  1
 29 30  1  0
 30 23  1  0
 31 29  1  0
 31 33  1  0
 32 31  2  0
M  END
$$$$
