WHM.pdb
     RDKit          3D

 33 35  0  0  1  0  0  0  0  0999 V2000
    9.1753  -17.3724   19.7822 N   0  0  0  0  0  0  0  0  0  0  0  0
   10.3706  -17.2029   20.6046 C   0  0  1  0  0  0  0  0  0  0  0  0
   10.8989  -15.7793   20.3751 C   0  0  0  0  0  0  0  0  0  0  0  0
    9.8205  -14.9897   19.7290 C   0  0  0  0  0  0  0  0  0  0  0  0
    9.5772  -14.8586   18.3620 C   0  0  0  0  0  0  0  0  0  0  0  0
    8.5120  -14.0612   18.1762 N   0  0  0  0  0  0  0  0  0  0  0  0
    8.0337  -13.6548   19.3585 C   0  0  0  0  0  0  0  0  0  0  0  0
    6.9743  -12.8420   19.6994 C   0  0  0  0  0  0  0  0  0  0  0  0
    6.7243  -12.6018   21.0341 C   0  0  0  0  0  0  0  0  0  0  0  0
    7.5166  -13.1618   22.0254 C   0  0  0  0  0  0  0  0  0  0  0  0
    8.5708  -13.9721   21.6522 C   0  0  0  0  0  0  0  0  0  0  0  0
    8.8427  -14.2280   20.3400 C   0  0  0  0  0  0  0  0  0  0  0  0
   10.1027  -17.4491   22.0253 C   0  0  0  0  0  0  0  0  0  0  0  0
    9.0023  -17.0238   22.4943 O   0  0  0  0  0  0  0  0  0  0  0  0
   10.9658  -18.1223   22.9237 N   0  0  0  0  0  0  0  0  0  0  0  0
   10.6203  -18.2489   24.3307 C   0  0  1  0  0  0  0  0  0  0  0  0
   11.2436  -19.5222   24.8537 C   0  0  0  0  0  0  0  0  0  0  0  0
   10.6262  -20.6804   24.2201 C   0  0  0  0  0  0  0  0  0  0  0  0
    9.2964  -20.9947   24.1497 C   0  0  0  0  0  0  0  0  0  0  0  0
    9.1252  -22.1649   23.4872 N   0  0  0  0  0  0  0  0  0  0  0  0
   10.3608  -22.5759   23.1463 C   0  0  0  0  0  0  0  0  0  0  0  0
   11.2763  -21.6822   23.5863 N   0  0  0  0  0  0  0  0  0  0  0  0
   10.9796  -17.0411   25.0972 C   0  0  0  0  0  0  0  0  0  0  0  0
   12.0327  -16.4030   24.8465 O   0  0  0  0  0  0  0  0  0  0  0  0
    6.6454  -12.2488   25.6022 C   0  0  0  0  0  0  0  0  0  0  0  0
    7.6402  -12.6283   27.0477 S   0  0  0  0  0  0  0  0  0  0  0  0
    8.4143  -14.2803   26.9238 C   0  0  0  0  0  0  0  0  0  0  0  0
    9.8711  -14.1417   26.5702 C   0  0  0  0  0  0  0  0  0  0  0  0
   10.6100  -15.3704   26.9756 C   0  0  2  0  0  0  0  0  0  0  0  0
   10.1770  -16.5240   26.1508 N   0  0  0  0  0  0  0  0  0  0  0  0
   10.5284  -15.7508   28.3816 C   0  0  0  0  0  0  0  0  0  0  0  0
   10.9161  -14.9353   29.2922 O   0  0  0  0  0  0  0  0  0  0  0  0
   10.0528  -16.9547   28.8592 O   0  0  0  0  0  0  0  0  0  0  0  0
  2  1  1  6
  2 13  1  0
  2  3  1  0
  4  5  2  0
  4  3  1  0
  6  5  1  0
  7 12  2  0
  7  6  1  0
  8  7  1  0
  9 10  1  0
  9  8  2  0
 10 11  2  0
 11 12  1  0
 12  4  1  0
 13 14  2  0
 15 13  1  0
 15 16  1  0
 16 17  1  1
 18 17  1  0
 19 18  2  0
 20 21  1  0
 20 19  1  0
 21 22  2  0
 22 18  1  0
 23 24  2  0
 23 16  1  0
 25 26  1  0
 26 27  1  0
 27 28  1  0
 29 28  1  1
 29 30  1  0
 30 23  1  0
 31 29  1  0
 31 33  1  0
 32 31  2  0
M  END
$$$$
