WHM.pdb
     RDKit          3D

 33 35  0  0  1  0  0  0  0  0999 V2000
    6.8329  -17.6750   23.9246 N   0  0  0  0  0  0  0  0  0  0  0  0
    7.9694  -16.7602   23.8500 C   0  0  1  0  0  0  0  0  0  0  0  0
    8.2749  -16.2758   25.2749 C   0  0  0  0  0  0  0  0  0  0  0  0
    7.2804  -15.2310   25.6259 C   0  0  0  0  0  0  0  0  0  0  0  0
    5.9879  -15.4287   26.1114 C   0  0  0  0  0  0  0  0  0  0  0  0
    5.4012  -14.2362   26.3076 N   0  0  0  0  0  0  0  0  0  0  0  0
    6.2448  -13.2516   25.9748 C   0  0  0  0  0  0  0  0  0  0  0  0
    6.1212  -11.8792   25.9954 C   0  0  0  0  0  0  0  0  0  0  0  0
    7.1889  -11.1101   25.5829 C   0  0  0  0  0  0  0  0  0  0  0  0
    8.3712  -11.6942   25.1530 C   0  0  0  0  0  0  0  0  0  0  0  0
    8.4647  -13.0721   25.1440 C   0  0  0  0  0  0  0  0  0  0  0  0
    7.4253  -13.8590   25.5462 C   0  0  0  0  0  0  0  0  0  0  0  0
    9.1445  -17.3886   23.2376 C   0  0  0  0  0  0  0  0  0  0  0  0
    9.4732  -18.5423   23.6533 O   0  0  0  0  0  0  0  0  0  0  0  0
    9.9480  -16.8204   22.2193 N   0  0  0  0  0  0  0  0  0  0  0  0
   11.3451  -17.1990   22.0783 C   0  0  1  0  0  0  0  0  0  0  0  0
   11.8490  -16.6504   20.7636 C   0  0  0  0  0  0  0  0  0  0  0  0
   11.5427  -17.5781   19.6821 C   0  0  0  0  0  0  0  0  0  0  0  0
   10.3741  -18.2526   19.4546 C   0  0  0  0  0  0  0  0  0  0  0  0
   10.4894  -19.0323   18.3518 N   0  0  0  0  0  0  0  0  0  0  0  0
   11.7405  -18.8368   17.8952 C   0  0  0  0  0  0  0  0  0  0  0  0
   12.3856  -17.9570   18.6953 N   0  0  0  0  0  0  0  0  0  0  0  0
   12.1465  -16.7946   23.2487 C   0  0  0  0  0  0  0  0  0  0  0  0
   12.6812  -15.6590   23.3077 O   0  0  0  0  0  0  0  0  0  0  0  0
    9.0231  -14.5340   28.2156 C   0  0  0  0  0  0  0  0  0  0  0  0
   10.7849  -14.8760   28.1682 S   0  0  0  0  0  0  0  0  0  0  0  0
   11.1703  -16.3020   27.0905 C   0  0  0  0  0  0  0  0  0  0  0  0
   12.2291  -15.9210   26.0904 C   0  0  0  0  0  0  0  0  0  0  0  0
   12.9555  -17.1387   25.6326 C   0  0  2  0  0  0  0  0  0  0  0  0
   12.3654  -17.6423   24.3689 N   0  0  0  0  0  0  0  0  0  0  0  0
   13.0386  -18.2468   26.5779 C   0  0  0  0  0  0  0  0  0  0  0  0
   13.6231  -18.0859   27.7079 O   0  0  0  0  0  0  0  0  0  0  0  0
   12.5278  -19.5124   26.3752 O   0  0  0  0  0  0  0  0  0  0  0  0
  2  1  1  1
  2 13  1  0
  2  3  1  0
  4  5  2  0
  4  3  1  0
  6  5  1  0
  7 12  2  0
  7  6  1  0
  8  7  1  0
  9 10  1  0
  9  8  2  0
 10 11  2  0
 11 12  1  0
 12  4  1  0
 13 14  2  0
 15 13  1  0
 15 16  1  0
 16 17  1  6
 18 17  1  0
 19 18  2  0
 20 21  1  0
 20 19  1  0
 21 22  2  0
 22 18  1  0
 23 24  2  0
 23 16  1  0
 25 26  1  0
 26 27  1  0
 27 28  1  0
 29 28  1  1
 29 30  1  0
 30 23  1  0
 31 29  1  0
 31 33  1  0
 32 31  2  0
M  END
$$$$
