WHM.pdb
     RDKit          3D

 33 35  0  0  1  0  0  0  0  0999 V2000
    6.2720  -18.8151   23.9924 N   0  0  0  0  0  0  0  0  0  0  0  0
    6.9715  -17.5369   23.8886 C   0  0  1  0  0  0  0  0  0  0  0  0
    6.5250  -16.6614   25.0686 C   0  0  0  0  0  0  0  0  0  0  0  0
    6.6529  -15.2405   24.6582 C   0  0  0  0  0  0  0  0  0  0  0  0
    7.0629  -14.7572   23.4158 C   0  0  0  0  0  0  0  0  0  0  0  0
    7.0481  -13.4139   23.4363 N   0  0  0  0  0  0  0  0  0  0  0  0
    6.6464  -12.9796   24.6370 C   0  0  0  0  0  0  0  0  0  0  0  0
    6.4674  -11.7140   25.1521 C   0  0  0  0  0  0  0  0  0  0  0  0
    6.0338  -11.5824   26.4546 C   0  0  0  0  0  0  0  0  0  0  0  0
    5.7789  -12.6950   27.2426 C   0  0  0  0  0  0  0  0  0  0  0  0
    5.9674  -13.9501   26.6980 C   0  0  0  0  0  0  0  0  0  0  0  0
    6.3954  -14.1118   25.4127 C   0  0  0  0  0  0  0  0  0  0  0  0
    8.4283  -17.7047   23.8711 C   0  0  0  0  0  0  0  0  0  0  0  0
    8.9202  -18.6154   24.6063 O   0  0  0  0  0  0  0  0  0  0  0  0
    9.3385  -16.9383   23.1033 N   0  0  0  0  0  0  0  0  0  0  0  0
   10.7633  -17.2283   23.1341 C   0  0  1  0  0  0  0  0  0  0  0  0
   11.4002  -16.5779   21.9279 C   0  0  0  0  0  0  0  0  0  0  0  0
   12.7411  -17.1097   21.7202 C   0  0  0  0  0  0  0  0  0  0  0  0
   13.3591  -18.1271   22.3950 C   0  0  0  0  0  0  0  0  0  0  0  0
   14.6127  -18.3152   21.9148 N   0  0  0  0  0  0  0  0  0  0  0  0
   14.7690  -17.4053   20.9351 C   0  0  0  0  0  0  0  0  0  0  0  0
   13.6397  -16.6709   20.8105 N   0  0  0  0  0  0  0  0  0  0  0  0
   11.3757  -16.8462   24.4204 C   0  0  0  0  0  0  0  0  0  0  0  0
   12.2815  -15.9771   24.4749 O   0  0  0  0  0  0  0  0  0  0  0  0
   10.2300  -12.3931   28.4209 C   0  0  0  0  0  0  0  0  0  0  0  0
   10.8601  -14.0183   28.8508 S   0  0  0  0  0  0  0  0  0  0  0  0
   10.5809  -15.2304   27.5105 C   0  0  0  0  0  0  0  0  0  0  0  0
   11.0070  -16.6027   27.9596 C   0  0  0  0  0  0  0  0  0  0  0  0
   11.8094  -17.2596   26.8896 C   0  0  2  0  0  0  0  0  0  0  0  0
   10.9923  -17.4213   25.6629 N   0  0  0  0  0  0  0  0  0  0  0  0
   12.4103  -18.5478   27.2180 C   0  0  0  0  0  0  0  0  0  0  0  0
   11.9595  -19.6229   26.6839 O   0  0  0  0  0  0  0  0  0  0  0  0
   13.4665  -18.7410   28.0846 O   0  0  0  0  0  0  0  0  0  0  0  0
  2  1  1  1
  2 13  1  0
  2  3  1  0
  4  5  2  0
  4  3  1  0
  6  5  1  0
  7 12  2  0
  7  6  1  0
  8  7  1  0
  9 10  1  0
  9  8  2  0
 10 11  2  0
 11 12  1  0
 12  4  1  0
 13 14  2  0
 15 13  1  0
 15 16  1  0
 16 17  1  6
 18 17  1  0
 19 18  2  0
 20 21  1  0
 20 19  1  0
 21 22  2  0
 22 18  1  0
 23 24  2  0
 23 16  1  0
 25 26  1  0
 26 27  1  0
 27 28  1  0
 29 28  1  1
 29 30  1  0
 30 23  1  0
 31 29  1  0
 31 33  1  0
 32 31  2  0
M  END
$$$$
