WHM.pdb
     RDKit          3D

 33 35  0  0  1  0  0  0  0  0999 V2000
    6.3224  -17.0587   23.8714 N   0  0  0  0  0  0  0  0  0  0  0  0
    7.3325  -16.0085   23.7688 C   0  0  1  0  0  0  0  0  0  0  0  0
    7.7214  -15.5918   25.1948 C   0  0  0  0  0  0  0  0  0  0  0  0
    6.6826  -14.6581   25.6979 C   0  0  0  0  0  0  0  0  0  0  0  0
    5.5122  -14.9899   26.3800 C   0  0  0  0  0  0  0  0  0  0  0  0
    4.8329  -13.8668   26.6663 N   0  0  0  0  0  0  0  0  0  0  0  0
    5.4980  -12.8004   26.2056 C   0  0  0  0  0  0  0  0  0  0  0  0
    5.2255  -11.4501   26.2458 C   0  0  0  0  0  0  0  0  0  0  0  0
    6.1224  -10.5743   25.6712 C   0  0  0  0  0  0  0  0  0  0  0  0
    7.2813  -11.0307   25.0609 C   0  0  0  0  0  0  0  0  0  0  0  0
    7.5267  -12.3896   25.0369 C   0  0  0  0  0  0  0  0  0  0  0  0
    6.6580  -13.2802   25.5969 C   0  0  0  0  0  0  0  0  0  0  0  0
    8.5050  -16.4432   23.0025 C   0  0  0  0  0  0  0  0  0  0  0  0
    8.8028  -17.6768   23.0401 O   0  0  0  0  0  0  0  0  0  0  0  0
    9.3373  -15.6056   22.2208 N   0  0  0  0  0  0  0  0  0  0  0  0
   10.5444  -16.1288   21.6010 C   0  0  1  0  0  0  0  0  0  0  0  0
   10.9195  -15.2133   20.4588 C   0  0  0  0  0  0  0  0  0  0  0  0
    9.7350  -14.8662   19.6839 C   0  0  0  0  0  0  0  0  0  0  0  0
    9.0099  -15.6688   18.8458 C   0  0  0  0  0  0  0  0  0  0  0  0
    7.9848  -14.9710   18.2983 N   0  0  0  0  0  0  0  0  0  0  0  0
    8.0788  -13.7268   18.8034 C   0  0  0  0  0  0  0  0  0  0  0  0
    9.1365  -13.6546   19.6439 N   0  0  0  0  0  0  0  0  0  0  0  0
   11.6224  -16.3397   22.5853 C   0  0  0  0  0  0  0  0  0  0  0  0
   12.8218  -16.1035   22.2945 O   0  0  0  0  0  0  0  0  0  0  0  0
    9.5207  -14.5423   28.0330 C   0  0  0  0  0  0  0  0  0  0  0  0
   11.3134  -14.5313   27.9377 S   0  0  0  0  0  0  0  0  0  0  0  0
   11.9083  -15.0572   26.2906 C   0  0  0  0  0  0  0  0  0  0  0  0
   12.0317  -16.5568   26.2416 C   0  0  0  0  0  0  0  0  0  0  0  0
   12.4830  -16.9842   24.8875 C   0  0  2  0  0  0  0  0  0  0  0  0
   11.3860  -16.8141   23.9046 N   0  0  0  0  0  0  0  0  0  0  0  0
   13.0044  -18.3414   24.7682 C   0  0  0  0  0  0  0  0  0  0  0  0
   12.3130  -19.2468   24.1793 O   0  0  0  0  0  0  0  0  0  0  0  0
   14.2247  -18.7752   25.2441 O   0  0  0  0  0  0  0  0  0  0  0  0
  2  1  1  1
  2 13  1  0
  2  3  1  0
  4  5  2  0
  4  3  1  0
  6  5  1  0
  7 12  2  0
  7  6  1  0
  8  7  1  0
  9 10  1  0
  9  8  2  0
 10 11  2  0
 11 12  1  0
 12  4  1  0
 13 14  2  0
 15 13  1  0
 15 16  1  0
 16 17  1  6
 18 17  1  0
 19 18  2  0
 20 21  1  0
 20 19  1  0
 21 22  2  0
 22 18  1  0
 23 24  2  0
 23 16  1  0
 25 26  1  0
 26 27  1  0
 27 28  1  0
 29 28  1  1
 29 30  1  0
 30 23  1  0
 31 29  1  0
 31 33  1  0
 32 31  2  0
M  END
$$$$
