WHM.pdb
     RDKit          3D

 33 35  0  0  1  0  0  0  0  0999 V2000
    6.5825  -18.6101   25.0904 N   0  0  0  0  0  0  0  0  0  0  0  0
    7.2441  -17.3778   24.6691 C   0  0  1  0  0  0  0  0  0  0  0  0
    7.6003  -16.5817   25.9331 C   0  0  0  0  0  0  0  0  0  0  0  0
    6.7166  -15.3900   25.9873 C   0  0  0  0  0  0  0  0  0  0  0  0
    5.3762  -15.3532   26.3711 C   0  0  0  0  0  0  0  0  0  0  0  0
    4.9260  -14.0902   26.2870 N   0  0  0  0  0  0  0  0  0  0  0  0
    5.9065  -13.2828   25.8644 C   0  0  0  0  0  0  0  0  0  0  0  0
    5.9499  -11.9270   25.6212 C   0  0  0  0  0  0  0  0  0  0  0  0
    7.1319  -11.3687   25.1821 C   0  0  0  0  0  0  0  0  0  0  0  0
    8.2637  -12.1459   24.9849 C   0  0  0  0  0  0  0  0  0  0  0  0
    8.1888  -13.5016   25.2374 C   0  0  0  0  0  0  0  0  0  0  0  0
    7.0335  -14.0823   25.6726 C   0  0  0  0  0  0  0  0  0  0  0  0
    8.4336  -17.6413   23.8527 C   0  0  0  0  0  0  0  0  0  0  0  0
    9.2194  -18.5584   24.2443 O   0  0  0  0  0  0  0  0  0  0  0  0
    8.7846  -16.9610   22.6613 N   0  0  0  0  0  0  0  0  0  0  0  0
   10.1678  -16.9113   22.2150 C   0  0  1  0  0  0  0  0  0  0  0  0
   10.1924  -16.3038   20.8316 C   0  0  0  0  0  0  0  0  0  0  0  0
   11.5499  -16.3175   20.3013 C   0  0  0  0  0  0  0  0  0  0  0  0
   12.4987  -15.3352   20.3858 C   0  0  0  0  0  0  0  0  0  0  0  0
   13.6330  -15.7228   19.7530 N   0  0  0  0  0  0  0  0  0  0  0  0
   13.3812  -16.9552   19.2738 C   0  0  0  0  0  0  0  0  0  0  0  0
   12.1214  -17.3234   19.6016 N   0  0  0  0  0  0  0  0  0  0  0  0
   11.0375  -16.2277   23.1906 C   0  0  0  0  0  0  0  0  0  0  0  0
   10.7892  -15.0564   23.5720 O   0  0  0  0  0  0  0  0  0  0  0  0
   10.1244  -14.2784   28.5523 C   0  0  0  0  0  0  0  0  0  0  0  0
   11.1347  -15.7546   28.7047 S   0  0  0  0  0  0  0  0  0  0  0  0
   12.4008  -15.8490   27.3888 C   0  0  0  0  0  0  0  0  0  0  0  0
   11.7763  -16.3297   26.1061 C   0  0  0  0  0  0  0  0  0  0  0  0
   12.7966  -16.3449   25.0203 C   0  0  2  0  0  0  0  0  0  0  0  0
   12.1928  -16.8326   23.7569 N   0  0  0  0  0  0  0  0  0  0  0  0
   14.0142  -17.1068   25.2753 C   0  0  0  0  0  0  0  0  0  0  0  0
   14.1634  -18.2722   24.7613 O   0  0  0  0  0  0  0  0  0  0  0  0
   15.0762  -16.6843   26.0482 O   0  0  0  0  0  0  0  0  0  0  0  0
  2  1  1  1
  2 13  1  0
  2  3  1  0
  4  5  2  0
  4  3  1  0
  6  5  1  0
  7 12  2  0
  7  6  1  0
  8  7  1  0
  9 10  1  0
  9  8  2  0
 10 11  2  0
 11 12  1  0
 12  4  1  0
 13 14  2  0
 15 13  1  0
 15 16  1  0
 16 17  1  6
 18 17  1  0
 19 18  2  0
 20 21  1  0
 20 19  1  0
 21 22  2  0
 22 18  1  0
 23 24  2  0
 23 16  1  0
 25 26  1  0
 26 27  1  0
 27 28  1  0
 29 28  1  1
 29 30  1  0
 30 23  1  0
 31 29  1  0
 31 33  1  0
 32 31  2  0
M  END
$$$$
