WHM.pdb
     RDKit          3D

 33 35  0  0  1  0  0  0  0  0999 V2000
    6.4230  -17.0124   23.6571 N   0  0  0  0  0  0  0  0  0  0  0  0
    7.4050  -15.9310   23.6561 C   0  0  1  0  0  0  0  0  0  0  0  0
    7.8311  -15.6838   25.1107 C   0  0  0  0  0  0  0  0  0  0  0  0
    6.7703  -14.8795   25.7677 C   0  0  0  0  0  0  0  0  0  0  0  0
    5.7130  -15.3546   26.5434 C   0  0  0  0  0  0  0  0  0  0  0  0
    4.9681  -14.3170   26.9599 N   0  0  0  0  0  0  0  0  0  0  0  0
    5.4815  -13.1708   26.4967 C   0  0  0  0  0  0  0  0  0  0  0  0
    5.0930  -11.8565   26.6410 C   0  0  0  0  0  0  0  0  0  0  0  0
    5.8413  -10.8721   26.0306 C   0  0  0  0  0  0  0  0  0  0  0  0
    6.9664  -11.1852   25.2823 C   0  0  0  0  0  0  0  0  0  0  0  0
    7.3304  -12.5114   25.1562 C   0  0  0  0  0  0  0  0  0  0  0  0
    6.6100  -13.5071   25.7485 C   0  0  0  0  0  0  0  0  0  0  0  0
    8.5612  -16.2361   22.8069 C   0  0  0  0  0  0  0  0  0  0  0  0
    8.8840  -17.4570   22.6763 O   0  0  0  0  0  0  0  0  0  0  0  0
    9.3522  -15.2858   22.1166 N   0  0  0  0  0  0  0  0  0  0  0  0
   10.5004  -15.7072   21.3297 C   0  0  1  0  0  0  0  0  0  0  0  0
   10.7656  -14.6493   20.2838 C   0  0  0  0  0  0  0  0  0  0  0  0
    9.6221  -14.5314   19.3879 C   0  0  0  0  0  0  0  0  0  0  0  0
    8.5107  -15.3274   19.3291 C   0  0  0  0  0  0  0  0  0  0  0  0
    7.6780  -14.8990   18.3490 N   0  0  0  0  0  0  0  0  0  0  0  0
    8.2816  -13.8292   17.7984 C   0  0  0  0  0  0  0  0  0  0  0  0
    9.4601  -13.5994   18.4220 N   0  0  0  0  0  0  0  0  0  0  0  0
   11.6645  -16.0227   22.1787 C   0  0  0  0  0  0  0  0  0  0  0  0
   12.5655  -15.1718   22.3864 O   0  0  0  0  0  0  0  0  0  0  0  0
   13.1749  -13.7178   27.4233 C   0  0  0  0  0  0  0  0  0  0  0  0
   12.0289  -15.0981   27.4900 S   0  0  0  0  0  0  0  0  0  0  0  0
   12.5671  -16.4790   26.4189 C   0  0  0  0  0  0  0  0  0  0  0  0
   11.9098  -16.3707   25.0689 C   0  0  0  0  0  0  0  0  0  0  0  0
   12.4581  -17.4106   24.1535 C   0  0  2  0  0  0  0  0  0  0  0  0
   11.8454  -17.2841   22.8092 N   0  0  0  0  0  0  0  0  0  0  0  0
   12.3358  -18.7977   24.5887 C   0  0  0  0  0  0  0  0  0  0  0  0
   11.3527  -19.5147   24.1839 O   0  0  0  0  0  0  0  0  0  0  0  0
   13.2109  -19.4529   25.4305 O   0  0  0  0  0  0  0  0  0  0  0  0
  2  1  1  1
  2 13  1  0
  2  3  1  0
  4  5  2  0
  4  3  1  0
  6  5  1  0
  7 12  2  0
  7  6  1  0
  8  7  1  0
  9 10  1  0
  9  8  2  0
 10 11  2  0
 11 12  1  0
 12  4  1  0
 13 14  2  0
 15 13  1  0
 15 16  1  0
 16 17  1  6
 18 17  1  0
 19 18  2  0
 20 21  1  0
 20 19  1  0
 21 22  2  0
 22 18  1  0
 23 24  2  0
 23 16  1  0
 25 26  1  0
 26 27  1  0
 27 28  1  0
 29 28  1  1
 29 30  1  0
 30 23  1  0
 31 29  1  0
 31 33  1  0
 32 31  2  0
M  END
$$$$
