WHM.pdb
     RDKit          3D

 33 35  0  0  1  0  0  0  0  0999 V2000
    6.9006  -17.6687   23.7543 N   0  0  0  0  0  0  0  0  0  0  0  0
    8.0335  -16.7695   23.9577 C   0  0  1  0  0  0  0  0  0  0  0  0
    8.0986  -16.4292   25.4538 C   0  0  0  0  0  0  0  0  0  0  0  0
    7.1862  -15.2849   25.7029 C   0  0  0  0  0  0  0  0  0  0  0  0
    5.9779  -15.3083   26.3991 C   0  0  0  0  0  0  0  0  0  0  0  0
    5.4480  -14.0738   26.4079 N   0  0  0  0  0  0  0  0  0  0  0  0
    6.2490  -13.2278   25.7487 C   0  0  0  0  0  0  0  0  0  0  0  0
    6.1536  -11.8791   25.4824 C   0  0  0  0  0  0  0  0  0  0  0  0
    7.1605  -11.2716   24.7621 C   0  0  0  0  0  0  0  0  0  0  0  0
    8.2547  -11.9932   24.3083 C   0  0  0  0  0  0  0  0  0  0  0  0
    8.3220  -13.3432   24.5912 C   0  0  0  0  0  0  0  0  0  0  0  0
    7.3413  -13.9718   25.3016 C   0  0  0  0  0  0  0  0  0  0  0  0
    9.2940  -17.3548   23.4892 C   0  0  0  0  0  0  0  0  0  0  0  0
    9.4914  -18.5857   23.7299 O   0  0  0  0  0  0  0  0  0  0  0  0
   10.3142  -16.6662   22.7890 N   0  0  0  0  0  0  0  0  0  0  0  0
   11.6739  -17.1815   22.7623 C   0  0  1  0  0  0  0  0  0  0  0  0
   12.4011  -16.5259   21.6113 C   0  0  0  0  0  0  0  0  0  0  0  0
   11.9359  -17.0765   20.3447 C   0  0  0  0  0  0  0  0  0  0  0  0
   11.7838  -18.3924   20.0017 C   0  0  0  0  0  0  0  0  0  0  0  0
   11.3406  -18.4963   18.7249 N   0  0  0  0  0  0  0  0  0  0  0  0
   11.2184  -17.2330   18.2766 C   0  0  0  0  0  0  0  0  0  0  0  0
   11.5769  -16.3664   19.2516 N   0  0  0  0  0  0  0  0  0  0  0  0
   12.3462  -17.0304   24.0664 C   0  0  0  0  0  0  0  0  0  0  0  0
   13.0078  -15.9976   24.3394 O   0  0  0  0  0  0  0  0  0  0  0  0
    8.6707  -14.5637   27.7562 C   0  0  0  0  0  0  0  0  0  0  0  0
   10.2812  -14.7919   28.5161 S   0  0  0  0  0  0  0  0  0  0  0  0
   10.9290  -16.4792   28.2392 C   0  0  0  0  0  0  0  0  0  0  0  0
   11.0746  -16.7398   26.7636 C   0  0  0  0  0  0  0  0  0  0  0  0
   12.2162  -17.6666   26.5229 C   0  0  2  0  0  0  0  0  0  0  0  0
   12.2940  -18.0208   25.0852 N   0  0  0  0  0  0  0  0  0  0  0  0
   12.2368  -18.8984   27.3043 C   0  0  0  0  0  0  0  0  0  0  0  0
   12.4278  -18.8531   28.5716 O   0  0  0  0  0  0  0  0  0  0  0  0
   12.0620  -20.1703   26.7990 O   0  0  0  0  0  0  0  0  0  0  0  0
  2  1  1  1
  2 13  1  0
  2  3  1  0
  4  5  2  0
  4  3  1  0
  6  5  1  0
  7 12  2  0
  7  6  1  0
  8  7  1  0
  9 10  1  0
  9  8  2  0
 10 11  2  0
 11 12  1  0
 12  4  1  0
 13 14  2  0
 15 13  1  0
 15 16  1  0
 16 17  1  6
 18 17  1  0
 19 18  2  0
 20 21  1  0
 20 19  1  0
 21 22  2  0
 22 18  1  0
 23 24  2  0
 23 16  1  0
 25 26  1  0
 26 27  1  0
 27 28  1  0
 29 28  1  6
 29 30  1  0
 30 23  1  0
 31 29  1  0
 31 33  1  0
 32 31  2  0
M  END
$$$$
