HRP.pdb
     RDKit          3D

 29 30  0  0  1  0  0  0  0  0999 V2000
    9.7533  -16.1858   19.3203 N   0  0  0  0  0  0  0  0  0  0  0  0
   10.2272  -15.5829   20.5507 C   0  0  1  0  0  0  0  0  0  0  0  0
   10.9805  -14.3231   20.1743 C   0  0  0  0  0  0  0  0  0  0  0  0
   12.3688  -14.5790   19.7824 C   0  0  0  0  0  0  0  0  0  0  0  0
   13.3264  -15.1688   20.5546 C   0  0  0  0  0  0  0  0  0  0  0  0
   14.4461  -15.2089   19.8185 N   0  0  0  0  0  0  0  0  0  0  0  0
   14.2019  -14.6635   18.6247 C   0  0  0  0  0  0  0  0  0  0  0  0
   12.9173  -14.2768   18.6096 N   0  0  0  0  0  0  0  0  0  0  0  0
    9.0982  -15.1597   21.4206 C   0  0  0  0  0  0  0  0  0  0  0  0
    8.3552  -14.2020   21.0865 O   0  0  0  0  0  0  0  0  0  0  0  0
    7.3064  -20.5993   26.4480 N   0  0  0  0  0  0  0  0  0  0  0  0
    7.3877  -20.9331   25.0886 C   0  0  0  0  0  0  0  0  0  0  0  0
    7.5295  -22.1903   24.7896 N   0  0  0  0  0  0  0  0  0  0  0  0
    7.3167  -19.9277   24.0861 N   0  0  0  0  0  0  0  0  0  0  0  0
    7.0095  -18.5813   24.5101 C   0  0  0  0  0  0  0  0  0  0  0  0
    6.9931  -17.6177   23.3434 C   0  0  0  0  0  0  0  0  0  0  0  0
    6.7270  -16.2467   23.8868 C   0  0  0  0  0  0  0  0  0  0  0  0
    7.8664  -15.2846   23.6141 C   0  0  2  0  0  0  0  0  0  0  0  0
    8.7910  -15.7968   22.6615 N   0  0  0  0  0  0  0  0  0  0  0  0
    8.4257  -14.7349   24.8631 C   0  0  0  0  0  0  0  0  0  0  0  0
    9.7121  -14.9554   24.9467 O   0  0  0  0  0  0  0  0  0  0  0  0
    7.6216  -22.4678   23.7928 N   0  0  0  0  0  0  0  0  0  0  0  0
    7.7686  -14.0587   25.8832 C   0  0  0  0  0  0  0  0  0  0  0  0
    6.4023  -13.7146   26.0519 C   0  0  0  0  0  0  0  0  0  0  0  0
    6.4778  -12.3393   26.7282 C   0  0  0  0  0  0  0  0  0  0  0  0
    7.8965  -12.1572   27.1626 C   0  0  1  0  0  0  0  0  0  0  0  0
    8.4542  -13.5438   27.0771 C   0  0  0  0  0  0  0  0  0  0  0  0
    8.1602  -14.3756   28.2626 O   0  0  0  0  0  0  0  0  0  0  0  0
    7.3541  -15.3174   28.2879 O   0  0  0  0  0  0  0  0  0  0  0  0
  2  1  1  6
  2  3  1  0
  4  3  1  0
  4  8  1  0
  5  6  1  0
  5  4  2  0
  6  7  1  0
  7  8  2  0
  9  2  1  0
 10  9  2  0
 12 11  1  0
 12 14  1  0
 13 12  2  0
 15 14  1  0
 16 15  1  0
 17 16  1  0
 18 17  1  1
 18 19  1  0
 19  9  1  0
 20 21  2  0
 20 18  1  0
 22 20  1  0
 23 22  1  0
 24 23  1  0
 25 24  1  0
 25 26  1  0
 26 22  1  0
 26 27  1  1
 28 27  2  0
 29 27  1  0
M  END
$$$$
