HRP.pdb
     RDKit          3D

 29 30  0  0  1  0  0  0  0  0999 V2000
    8.8453  -15.8124   20.4368 N   0  0  0  0  0  0  0  0  0  0  0  0
    8.5749  -14.5369   21.0707 C   0  0  1  0  0  0  0  0  0  0  0  0
    7.4568  -13.8744   20.2914 C   0  0  0  0  0  0  0  0  0  0  0  0
    7.6650  -13.9138   18.8417 C   0  0  0  0  0  0  0  0  0  0  0  0
    8.0031  -12.8562   18.0491 C   0  0  0  0  0  0  0  0  0  0  0  0
    8.0929  -13.3250   16.7964 N   0  0  0  0  0  0  0  0  0  0  0  0
    7.8208  -14.6320   16.8003 C   0  0  0  0  0  0  0  0  0  0  0  0
    7.5576  -14.9886   18.0665 N   0  0  0  0  0  0  0  0  0  0  0  0
    8.0780  -14.7134   22.4608 C   0  0  0  0  0  0  0  0  0  0  0  0
    7.2755  -13.8870   22.9649 O   0  0  0  0  0  0  0  0  0  0  0  0
    5.8654  -21.2995   22.5260 N   0  0  0  0  0  0  0  0  0  0  0  0
    6.1443  -21.0922   23.8844 C   0  0  0  0  0  0  0  0  0  0  0  0
    6.3914  -22.1419   24.6104 N   0  0  0  0  0  0  0  0  0  0  0  0
    6.1534  -19.7814   24.4345 N   0  0  0  0  0  0  0  0  0  0  0  0
    6.1127  -18.6695   23.5130 C   0  0  0  0  0  0  0  0  0  0  0  0
    6.1075  -17.3417   24.2390 C   0  0  0  0  0  0  0  0  0  0  0  0
    7.4060  -17.2197   24.9773 C   0  0  0  0  0  0  0  0  0  0  0  0
    8.1268  -15.9218   24.6702 C   0  0  2  0  0  0  0  0  0  0  0  0
    8.4693  -15.8054   23.2941 N   0  0  0  0  0  0  0  0  0  0  0  0
    9.1918  -15.6450   25.6521 C   0  0  0  0  0  0  0  0  0  0  0  0
   10.3691  -15.9655   25.1812 O   0  0  0  0  0  0  0  0  0  0  0  0
    6.5833  -22.0240   25.6245 N   0  0  0  0  0  0  0  0  0  0  0  0
    9.0750  -15.1187   26.9324 C   0  0  0  0  0  0  0  0  0  0  0  0
    7.9453  -14.6591   27.6577 C   0  0  0  0  0  0  0  0  0  0  0  0
    8.5074  -13.4687   28.4462 C   0  0  0  0  0  0  0  0  0  0  0  0
    9.9955  -13.5457   28.3279 C   0  0  1  0  0  0  0  0  0  0  0  0
   10.2211  -14.9413   27.8354 C   0  0  0  0  0  0  0  0  0  0  0  0
   10.2179  -15.9569   28.9088 O   0  0  0  0  0  0  0  0  0  0  0  0
    9.3677  -16.8500   29.0399 O   0  0  0  0  0  0  0  0  0  0  0  0
  2  1  1  6
  2  3  1  0
  4  3  1  0
  4  8  1  0
  5  6  1  0
  5  4  2  0
  6  7  1  0
  7  8  2  0
  9  2  1  0
 10  9  2  0
 12 11  1  0
 12 14  1  0
 13 12  2  0
 15 14  1  0
 16 15  1  0
 17 16  1  0
 18 17  1  6
 18 19  1  0
 19  9  1  0
 20 21  2  0
 20 18  1  0
 22 20  1  0
 23 22  1  0
 24 23  1  0
 25 24  1  0
 25 26  1  0
 26 22  1  0
 26 27  1  1
 28 27  2  0
 29 27  1  0
M  END
$$$$
