HRP.pdb
     RDKit          3D

 29 30  0  0  1  0  0  0  0  0999 V2000
    7.3137  -16.6486   19.2599 N   0  0  0  0  0  0  0  0  0  0  0  0
    7.6738  -15.4118   19.9251 C   0  0  1  0  0  0  0  0  0  0  0  0
    7.1522  -14.2729   19.0723 C   0  0  0  0  0  0  0  0  0  0  0  0
    7.8068  -14.1881   17.7643 C   0  0  0  0  0  0  0  0  0  0  0  0
    8.7443  -15.0511   17.2770 C   0  0  0  0  0  0  0  0  0  0  0  0
    9.0763  -14.6115   16.0549 N   0  0  0  0  0  0  0  0  0  0  0  0
    8.3725  -13.5103   15.7823 C   0  0  0  0  0  0  0  0  0  0  0  0
    7.5908  -13.2549   16.8423 N   0  0  0  0  0  0  0  0  0  0  0  0
    7.0083  -15.2910   21.2492 C   0  0  0  0  0  0  0  0  0  0  0  0
    5.7744  -15.5010   21.3683 O   0  0  0  0  0  0  0  0  0  0  0  0
    9.0631  -19.7832   26.6415 N   0  0  0  0  0  0  0  0  0  0  0  0
    7.7576  -20.0343   27.0873 C   0  0  0  0  0  0  0  0  0  0  0  0
    7.6223  -20.7205   28.1831 N   0  0  0  0  0  0  0  0  0  0  0  0
    6.6345  -19.5525   26.3612 N   0  0  0  0  0  0  0  0  0  0  0  0
    6.8796  -18.9593   25.0669 C   0  0  0  0  0  0  0  0  0  0  0  0
    6.9543  -17.4501   25.1487 C   0  0  0  0  0  0  0  0  0  0  0  0
    7.2348  -16.9312   23.7710 C   0  0  0  0  0  0  0  0  0  0  0  0
    7.3736  -15.4220   23.7379 C   0  0  2  0  0  0  0  0  0  0  0  0
    7.7089  -14.9376   22.4427 N   0  0  0  0  0  0  0  0  0  0  0  0
    8.1785  -14.9242   24.8690 C   0  0  0  0  0  0  0  0  0  0  0  0
    9.4287  -15.2933   24.7631 O   0  0  0  0  0  0  0  0  0  0  0  0
    6.6687  -20.9102   28.5487 N   0  0  0  0  0  0  0  0  0  0  0  0
    7.7686  -14.1611   25.9550 C   0  0  0  0  0  0  0  0  0  0  0  0
    6.4778  -13.8979   26.4823 C   0  0  0  0  0  0  0  0  0  0  0  0
    6.5892  -12.4392   26.9452 C   0  0  0  0  0  0  0  0  0  0  0  0
    8.0433  -12.0939   26.9144 C   0  0  2  0  0  0  0  0  0  0  0  0
    8.7044  -13.4340   26.8245 C   0  0  0  0  0  0  0  0  0  0  0  0
    8.8557  -14.1096   28.1300 O   0  0  0  0  0  0  0  0  0  0  0  0
    9.5223  -13.6764   29.0816 O   0  0  0  0  0  0  0  0  0  0  0  0
  2  1  1  6
  2  3  1  0
  4  3  1  0
  4  8  1  0
  5  6  1  0
  5  4  2  0
  6  7  1  0
  7  8  2  0
  9  2  1  0
 10  9  2  0
 12 11  1  0
 12 14  1  0
 13 12  2  0
 15 14  1  0
 16 15  1  0
 17 16  1  0
 18 17  1  6
 18 19  1  0
 19  9  1  0
 20 21  2  0
 20 18  1  0
 22 20  1  0
 23 22  1  0
 24 23  1  0
 25 24  1  0
 25 26  1  0
 26 22  1  0
 26 27  1  1
 28 27  2  0
 29 27  1  0
M  END
$$$$
