HRP.pdb
     RDKit          3D

 29 30  0  0  1  0  0  0  0  0999 V2000
    9.6295  -20.2260   26.2493 N   0  0  0  0  0  0  0  0  0  0  0  0
    8.3507  -19.5435   26.2817 C   0  0  1  0  0  0  0  0  0  0  0  0
    7.8871  -19.5233   27.7242 C   0  0  0  0  0  0  0  0  0  0  0  0
    7.5549  -20.8539   28.2397 C   0  0  0  0  0  0  0  0  0  0  0  0
    6.6040  -21.6951   27.7403 C   0  0  0  0  0  0  0  0  0  0  0  0
    6.6270  -22.7992   28.5003 N   0  0  0  0  0  0  0  0  0  0  0  0
    7.5596  -22.6580   29.4450 C   0  0  0  0  0  0  0  0  0  0  0  0
    8.1284  -21.4545   29.2779 N   0  0  0  0  0  0  0  0  0  0  0  0
    8.4791  -18.1246   25.8563 C   0  0  0  0  0  0  0  0  0  0  0  0
    9.0175  -17.2750   26.6108 O   0  0  0  0  0  0  0  0  0  0  0  0
    8.9107  -11.0381   19.7706 N   0  0  0  0  0  0  0  0  0  0  0  0
    8.6843  -12.4084   19.9630 C   0  0  0  0  0  0  0  0  0  0  0  0
    9.2299  -13.2288   19.1149 N   0  0  0  0  0  0  0  0  0  0  0  0
    7.8879  -12.8702   21.0462 N   0  0  0  0  0  0  0  0  0  0  0  0
    7.9843  -14.2680   21.3985 C   0  0  0  0  0  0  0  0  0  0  0  0
    7.0734  -14.6170   22.5554 C   0  0  0  0  0  0  0  0  0  0  0  0
    7.2833  -16.0645   22.8816 C   0  0  0  0  0  0  0  0  0  0  0  0
    7.8013  -16.2711   24.2913 C   0  0  2  0  0  0  0  0  0  0  0  0
    8.0114  -17.6453   24.5947 N   0  0  0  0  0  0  0  0  0  0  0  0
    7.0399  -15.4764   25.2730 C   0  0  0  0  0  0  0  0  0  0  0  0
    6.0531  -16.1671   25.7827 O   0  0  0  0  0  0  0  0  0  0  0  0
    9.1133  -14.2519   19.2516 N   0  0  0  0  0  0  0  0  0  0  0  0
    7.2514  -14.1643   25.6771 C   0  0  0  0  0  0  0  0  0  0  0  0
    8.1315  -13.1634   25.1898 C   0  0  0  0  0  0  0  0  0  0  0  0
    8.5544  -12.4288   26.4689 C   0  0  0  0  0  0  0  0  0  0  0  0
    7.6307  -12.8914   27.5493 C   0  0  1  0  0  0  0  0  0  0  0  0
    6.5170  -13.5368   26.7849 C   0  0  0  0  0  0  0  0  0  0  0  0
    5.5091  -12.5796   26.2835 O   0  0  0  0  0  0  0  0  0  0  0  0
    5.3812  -12.2376   25.0985 O   0  0  0  0  0  0  0  0  0  0  0  0
  2  1  1  1
  2  3  1  0
  4  3  1  0
  4  8  1  0
  5  6  1  0
  5  4  2  0
  6  7  1  0
  7  8  2  0
  9  2  1  0
 10  9  2  0
 12 11  1  0
 12 14  1  0
 13 12  2  0
 15 14  1  0
 16 15  1  0
 17 16  1  0
 18 17  1  6
 18 19  1  0
 19  9  1  0
 20 21  2  0
 20 18  1  0
 22 20  1  0
 23 22  1  0
 24 23  1  0
 25 24  1  0
 25 26  1  0
 26 22  1  0
 26 27  1  6
 28 27  2  0
 29 27  1  0
M  END
$$$$
