HRP.pdb
     RDKit          3D

 29 30  0  0  1  0  0  0  0  0999 V2000
    7.6946  -18.4712   15.7218 N   0  0  0  0  0  0  0  0  0  0  0  0
    8.5630  -18.6256   16.8725 C   0  0  1  0  0  0  0  0  0  0  0  0
    9.9085  -18.0338   16.5043 C   0  0  0  0  0  0  0  0  0  0  0  0
   10.7442  -18.9488   15.7226 C   0  0  0  0  0  0  0  0  0  0  0  0
   11.6019  -19.8827   16.2260 C   0  0  0  0  0  0  0  0  0  0  0  0
   12.1624  -20.4988   15.1756 N   0  0  0  0  0  0  0  0  0  0  0  0
   11.6747  -19.9713   14.0504 C   0  0  0  0  0  0  0  0  0  0  0  0
   10.7996  -19.0149   14.3959 N   0  0  0  0  0  0  0  0  0  0  0  0
    8.0634  -17.8526   18.0402 C   0  0  0  0  0  0  0  0  0  0  0  0
    7.7497  -16.6409   17.9204 O   0  0  0  0  0  0  0  0  0  0  0  0
    8.3730  -20.7816   26.2245 N   0  0  0  0  0  0  0  0  0  0  0  0
    7.4522  -20.4631   25.2161 C   0  0  0  0  0  0  0  0  0  0  0  0
    6.8361  -21.4501   24.6363 N   0  0  0  0  0  0  0  0  0  0  0  0
    7.2105  -19.1107   24.8510 N   0  0  0  0  0  0  0  0  0  0  0  0
    6.1762  -18.8564   23.8749 C   0  0  0  0  0  0  0  0  0  0  0  0
    6.6227  -17.8502   22.8365 C   0  0  0  0  0  0  0  0  0  0  0  0
    6.9907  -18.6065   21.5962 C   0  0  0  0  0  0  0  0  0  0  0  0
    7.4666  -17.6951   20.4821 C   0  0  2  0  0  0  0  0  0  0  0  0
    7.9108  -18.4208   19.3417 N   0  0  0  0  0  0  0  0  0  0  0  0
    8.3556  -16.6334   20.9895 C   0  0  0  0  0  0  0  0  0  0  0  0
    9.6145  -16.9603   20.8528 O   0  0  0  0  0  0  0  0  0  0  0  0
    6.2354  -21.2588   23.8107 N   0  0  0  0  0  0  0  0  0  0  0  0
    8.0121  -15.4131   21.5574 C   0  0  0  0  0  0  0  0  0  0  0  0
    6.7484  -14.8194   21.8108 C   0  0  0  0  0  0  0  0  0  0  0  0
    7.0092  -13.3321   21.5378 C   0  0  0  0  0  0  0  0  0  0  0  0
    8.4924  -13.1712   21.4451 C   0  0  1  0  0  0  0  0  0  0  0  0
    9.0059  -14.4445   22.0418 C   0  0  0  0  0  0  0  0  0  0  0  0
    9.0603  -14.4280   23.5184 O   0  0  0  0  0  0  0  0  0  0  0  0
    8.2641  -15.0155   24.2657 O   0  0  0  0  0  0  0  0  0  0  0  0
  2  1  1  6
  2  3  1  0
  4  3  1  0
  4  8  1  0
  5  6  1  0
  5  4  2  0
  6  7  1  0
  7  8  2  0
  9  2  1  0
 10  9  2  0
 12 11  1  0
 12 14  1  0
 13 12  2  0
 15 14  1  0
 16 15  1  0
 17 16  1  0
 18 17  1  1
 18 19  1  0
 19  9  1  0
 20 21  2  0
 20 18  1  0
 22 20  1  0
 23 22  1  0
 24 23  1  0
 25 24  1  0
 25 26  1  0
 26 22  1  0
 26 27  1  1
 28 27  2  0
 29 27  1  0
M  END
$$$$
