HRP.pdb
     RDKit          3D

 29 30  0  0  1  0  0  0  0  0999 V2000
    7.5065  -16.5261   19.4875 N   0  0  0  0  0  0  0  0  0  0  0  0
    7.8256  -15.3080   20.2061 C   0  0  1  0  0  0  0  0  0  0  0  0
    7.3601  -14.1459   19.3523 C   0  0  0  0  0  0  0  0  0  0  0  0
    8.0608  -14.0592   18.0685 C   0  0  0  0  0  0  0  0  0  0  0  0
    7.5229  -13.6443   16.8854 C   0  0  0  0  0  0  0  0  0  0  0  0
    8.4995  -13.7172   15.9700 N   0  0  0  0  0  0  0  0  0  0  0  0
    9.6132  -14.1625   16.5562 C   0  0  0  0  0  0  0  0  0  0  0  0
    9.3348  -14.3714   17.8519 N   0  0  0  0  0  0  0  0  0  0  0  0
    7.0782  -15.2199   21.4884 C   0  0  0  0  0  0  0  0  0  0  0  0
    5.8328  -15.3904   21.5179 O   0  0  0  0  0  0  0  0  0  0  0  0
    9.1510  -19.5276   25.1618 N   0  0  0  0  0  0  0  0  0  0  0  0
    8.4016  -19.7909   26.3172 C   0  0  0  0  0  0  0  0  0  0  0  0
    9.0027  -20.4070   27.2915 N   0  0  0  0  0  0  0  0  0  0  0  0
    7.0394  -19.3950   26.4080 N   0  0  0  0  0  0  0  0  0  0  0  0
    6.4984  -18.6075   25.3243 C   0  0  0  0  0  0  0  0  0  0  0  0
    7.2262  -17.2893   25.1737 C   0  0  0  0  0  0  0  0  0  0  0  0
    6.4589  -16.4530   24.1950 C   0  0  0  0  0  0  0  0  0  0  0  0
    7.0702  -15.0791   24.0032 C   0  0  2  0  0  0  0  0  0  0  0  0
    7.7094  -14.9427   22.7394 N   0  0  0  0  0  0  0  0  0  0  0  0
    7.8340  -14.6524   25.1905 C   0  0  0  0  0  0  0  0  0  0  0  0
    9.0692  -15.0794   25.1412 O   0  0  0  0  0  0  0  0  0  0  0  0
    8.5286  -20.4841   28.2125 N   0  0  0  0  0  0  0  0  0  0  0  0
    7.4015  -13.8998   26.2750 C   0  0  0  0  0  0  0  0  0  0  0  0
    6.1014  -13.6587   26.7902 C   0  0  0  0  0  0  0  0  0  0  0  0
    6.1855  -12.2002   27.2595 C   0  0  0  0  0  0  0  0  0  0  0  0
    7.6343  -11.8323   27.2447 C   0  0  2  0  0  0  0  0  0  0  0  0
    8.3170  -13.1617   27.1566 C   0  0  0  0  0  0  0  0  0  0  0  0
    8.4656  -13.8398   28.4611 O   0  0  0  0  0  0  0  0  0  0  0  0
    9.1601  -13.4271   29.4018 O   0  0  0  0  0  0  0  0  0  0  0  0
  2  1  1  6
  2  3  1  0
  4  3  1  0
  4  8  1  0
  5  6  1  0
  5  4  2  0
  6  7  1  0
  7  8  2  0
  9  2  1  0
 10  9  2  0
 12 11  1  0
 12 14  1  0
 13 12  2  0
 15 14  1  0
 16 15  1  0
 17 16  1  0
 18 17  1  1
 18 19  1  0
 19  9  1  0
 20 21  2  0
 20 18  1  0
 22 20  1  0
 23 22  1  0
 24 23  1  0
 25 24  1  0
 25 26  1  0
 26 22  1  0
 26 27  1  1
 28 27  2  0
 29 27  1  0
M  END
$$$$
