HRP.pdb
     RDKit          3D

 29 30  0  0  1  0  0  0  0  0999 V2000
    9.0966  -15.7106   20.3108 N   0  0  0  0  0  0  0  0  0  0  0  0
    8.4479  -14.4655   20.6728 C   0  0  1  0  0  0  0  0  0  0  0  0
    7.3298  -14.2336   19.6766 C   0  0  0  0  0  0  0  0  0  0  0  0
    7.7836  -14.2731   18.2840 C   0  0  0  0  0  0  0  0  0  0  0  0
    8.3204  -13.2327   17.5836 C   0  0  0  0  0  0  0  0  0  0  0  0
    8.5963  -13.6947   16.3558 N   0  0  0  0  0  0  0  0  0  0  0  0
    8.2456  -14.9809   16.2857 C   0  0  0  0  0  0  0  0  0  0  0  0
    7.7445  -15.3312   17.4800 N   0  0  0  0  0  0  0  0  0  0  0  0
    7.8116  -14.5520   22.0138 C   0  0  0  0  0  0  0  0  0  0  0  0
    7.0823  -13.6202   22.4389 O   0  0  0  0  0  0  0  0  0  0  0  0
    7.6140  -21.5000   23.0305 N   0  0  0  0  0  0  0  0  0  0  0  0
    6.2440  -21.2434   22.8778 C   0  0  0  0  0  0  0  0  0  0  0  0
    5.5848  -21.9938   22.0457 N   0  0  0  0  0  0  0  0  0  0  0  0
    5.6121  -20.2012   23.6094 N   0  0  0  0  0  0  0  0  0  0  0  0
    6.4535  -19.3383   24.4060 C   0  0  0  0  0  0  0  0  0  0  0  0
    6.4945  -17.9307   23.8518 C   0  0  0  0  0  0  0  0  0  0  0  0
    7.3586  -17.1078   24.7585 C   0  0  0  0  0  0  0  0  0  0  0  0
    7.5589  -15.6962   24.2434 C   0  0  2  0  0  0  0  0  0  0  0  0
    7.9826  -15.6706   22.8853 N   0  0  0  0  0  0  0  0  0  0  0  0
    8.3206  -14.8707   25.1991 C   0  0  0  0  0  0  0  0  0  0  0  0
    9.5978  -14.8726   24.9180 O   0  0  0  0  0  0  0  0  0  0  0  0
    4.5701  -21.8237   21.9032 N   0  0  0  0  0  0  0  0  0  0  0  0
    7.8495  -14.1478   26.2877 C   0  0  0  0  0  0  0  0  0  0  0  0
    6.5554  -14.0547   26.8624 C   0  0  0  0  0  0  0  0  0  0  0  0
    6.4794  -12.5846   27.2956 C   0  0  0  0  0  0  0  0  0  0  0  0
    7.8688  -12.0415   27.2002 C   0  0  1  0  0  0  0  0  0  0  0  0
    8.7067  -13.2785   27.1062 C   0  0  0  0  0  0  0  0  0  0  0  0
    9.0000  -13.8972   28.4157 O   0  0  0  0  0  0  0  0  0  0  0  0
    8.5357  -14.9765   28.8119 O   0  0  0  0  0  0  0  0  0  0  0  0
  2  1  1  6
  2  3  1  0
  4  3  1  0
  4  8  1  0
  5  6  1  0
  5  4  2  0
  6  7  1  0
  7  8  2  0
  9  2  1  0
 10  9  2  0
 12 11  1  0
 12 14  1  0
 13 12  2  0
 15 14  1  0
 16 15  1  0
 17 16  1  0
 18 17  1  1
 18 19  1  0
 19  9  1  0
 20 21  2  0
 20 18  1  0
 22 20  1  0
 23 22  1  0
 24 23  1  0
 25 24  1  0
 25 26  1  0
 26 22  1  0
 26 27  1  1
 28 27  2  0
 29 27  1  0
M  END
$$$$
