HRP.pdb
     RDKit          3D

 29 30  0  0  1  0  0  0  0  0999 V2000
   12.5094  -17.2550   20.5070 N   0  0  0  0  0  0  0  0  0  0  0  0
   11.2827  -17.5703   21.2126 C   0  0  1  0  0  0  0  0  0  0  0  0
   11.4498  -18.9522   21.8116 C   0  0  0  0  0  0  0  0  0  0  0  0
   11.2550  -20.0284   20.8367 C   0  0  0  0  0  0  0  0  0  0  0  0
   10.3730  -20.0206   19.7960 C   0  0  0  0  0  0  0  0  0  0  0  0
   10.5173  -21.1907   19.1581 N   0  0  0  0  0  0  0  0  0  0  0  0
   11.4573  -21.9101   19.7755 C   0  0  0  0  0  0  0  0  0  0  0  0
   11.9083  -21.1861   20.8110 N   0  0  0  0  0  0  0  0  0  0  0  0
   11.0524  -16.6392   22.3486 C   0  0  0  0  0  0  0  0  0  0  0  0
   12.0185  -16.1949   23.0197 O   0  0  0  0  0  0  0  0  0  0  0  0
    7.0699  -11.1402   26.6418 N   0  0  0  0  0  0  0  0  0  0  0  0
    5.9202  -11.9142   26.8541 C   0  0  0  0  0  0  0  0  0  0  0  0
    4.9175  -11.3428   27.4525 N   0  0  0  0  0  0  0  0  0  0  0  0
    5.8650  -13.2691   26.4273 N   0  0  0  0  0  0  0  0  0  0  0  0
    6.3992  -13.5810   25.1217 C   0  0  0  0  0  0  0  0  0  0  0  0
    7.8151  -14.1082   25.2084 C   0  0  0  0  0  0  0  0  0  0  0  0
    8.0794  -14.9131   23.9723 C   0  0  0  0  0  0  0  0  0  0  0  0
    9.4792  -15.4946   23.9483 C   0  0  2  0  0  0  0  0  0  0  0  0
    9.7519  -16.1993   22.7426 N   0  0  0  0  0  0  0  0  0  0  0  0
    9.8065  -16.1783   25.2133 C   0  0  0  0  0  0  0  0  0  0  0  0
    9.9445  -17.4667   25.0368 O   0  0  0  0  0  0  0  0  0  0  0  0
    4.0475  -11.8862   27.6164 N   0  0  0  0  0  0  0  0  0  0  0  0
    9.9683  -15.6289   26.4789 C   0  0  0  0  0  0  0  0  0  0  0  0
    9.6002  -14.3638   27.0060 C   0  0  0  0  0  0  0  0  0  0  0  0
   10.7592  -14.0406   27.9583 C   0  0  0  0  0  0  0  0  0  0  0  0
   11.5427  -15.3036   28.1174 C   0  0  2  0  0  0  0  0  0  0  0  0
   10.6075  -16.3471   27.5906 C   0  0  0  0  0  0  0  0  0  0  0  0
    9.6073  -16.8008   28.5792 O   0  0  0  0  0  0  0  0  0  0  0  0
    8.3823  -16.6381   28.4769 O   0  0  0  0  0  0  0  0  0  0  0  0
  2  1  1  1
  2  3  1  0
  4  3  1  0
  4  8  1  0
  5  6  1  0
  5  4  2  0
  6  7  1  0
  7  8  2  0
  9  2  1  0
 10  9  2  0
 12 11  1  0
 12 14  1  0
 13 12  2  0
 15 14  1  0
 16 15  1  0
 17 16  1  0
 18 17  1  1
 18 19  1  0
 19  9  1  0
 20 21  2  0
 20 18  1  0
 22 20  1  0
 23 22  1  0
 24 23  1  0
 25 24  1  0
 25 26  1  0
 26 22  1  0
 26 27  1  1
 28 27  2  0
 29 27  1  0
M  END
$$$$
