HRP.pdb
     RDKit          3D

 29 30  0  0  1  0  0  0  0  0999 V2000
    9.6728  -15.1117   19.2889 N   0  0  0  0  0  0  0  0  0  0  0  0
   10.1868  -15.3546   20.6226 C   0  0  1  0  0  0  0  0  0  0  0  0
   11.2805  -14.3369   20.8765 C   0  0  0  0  0  0  0  0  0  0  0  0
   12.5297  -14.6495   20.1777 C   0  0  0  0  0  0  0  0  0  0  0  0
   13.0072  -14.0215   19.0648 C   0  0  0  0  0  0  0  0  0  0  0  0
   14.1696  -14.6134   18.7556 N   0  0  0  0  0  0  0  0  0  0  0  0
   14.4153  -15.5803   19.6428 C   0  0  0  0  0  0  0  0  0  0  0  0
   13.3985  -15.5967   20.5179 N   0  0  0  0  0  0  0  0  0  0  0  0
    9.1447  -15.1264   21.6583 C   0  0  0  0  0  0  0  0  0  0  0  0
    8.4132  -14.1045   21.6179 O   0  0  0  0  0  0  0  0  0  0  0  0
    9.1415  -21.3942   22.4705 N   0  0  0  0  0  0  0  0  0  0  0  0
    8.0561  -20.9524   21.7006 C   0  0  0  0  0  0  0  0  0  0  0  0
    7.9773  -21.3834   20.4767 N   0  0  0  0  0  0  0  0  0  0  0  0
    7.0867  -20.0683   22.2478 N   0  0  0  0  0  0  0  0  0  0  0  0
    7.5005  -19.2136   23.3366 C   0  0  0  0  0  0  0  0  0  0  0  0
    6.8052  -17.8704   23.2881 C   0  0  0  0  0  0  0  0  0  0  0  0
    7.3869  -17.0155   24.3728 C   0  0  0  0  0  0  0  0  0  0  0  0
    8.0409  -15.7593   23.8320 C   0  0  2  0  0  0  0  0  0  0  0  0
    8.9118  -16.0298   22.7399 N   0  0  0  0  0  0  0  0  0  0  0  0
    8.5687  -14.9103   24.9163 C   0  0  0  0  0  0  0  0  0  0  0  0
    9.8764  -14.8909   24.9127 O   0  0  0  0  0  0  0  0  0  0  0  0
    7.1866  -21.0726   19.8790 N   0  0  0  0  0  0  0  0  0  0  0  0
    7.8655  -14.1855   25.8701 C   0  0  0  0  0  0  0  0  0  0  0  0
    6.4772  -13.9335   26.0206 C   0  0  0  0  0  0  0  0  0  0  0  0
    6.4472  -12.4939   26.5509 C   0  0  0  0  0  0  0  0  0  0  0  0
    7.8492  -12.1575   26.9455 C   0  0  1  0  0  0  0  0  0  0  0  0
    8.5143  -13.4978   26.9955 C   0  0  0  0  0  0  0  0  0  0  0  0
    8.2930  -14.2228   28.2640 O   0  0  0  0  0  0  0  0  0  0  0  0
    7.5562  -15.2110   28.3988 O   0  0  0  0  0  0  0  0  0  0  0  0
  2  1  1  6
  2  3  1  0
  4  3  1  0
  4  8  1  0
  5  6  1  0
  5  4  2  0
  6  7  1  0
  7  8  2  0
  9  2  1  0
 10  9  2  0
 12 11  1  0
 12 14  1  0
 13 12  2  0
 15 14  1  0
 16 15  1  0
 17 16  1  0
 18 17  1  1
 18 19  1  0
 19  9  1  0
 20 21  2  0
 20 18  1  0
 22 20  1  0
 23 22  1  0
 24 23  1  0
 25 24  1  0
 25 26  1  0
 26 22  1  0
 26 27  1  1
 28 27  2  0
 29 27  1  0
M  END
$$$$
