HRP.pdb
     RDKit          3D

 29 30  0  0  1  0  0  0  0  0999 V2000
    7.3439  -16.3705   19.9405 N   0  0  0  0  0  0  0  0  0  0  0  0
    7.8290  -15.2264   20.6874 C   0  0  1  0  0  0  0  0  0  0  0  0
    7.1928  -13.9910   20.0830 C   0  0  0  0  0  0  0  0  0  0  0  0
    7.5985  -13.7564   18.6949 C   0  0  0  0  0  0  0  0  0  0  0  0
    8.4199  -12.7600   18.2549 C   0  0  0  0  0  0  0  0  0  0  0  0
    8.5291  -12.9071   16.9269 N   0  0  0  0  0  0  0  0  0  0  0  0
    7.8019  -13.9592   16.5443 C   0  0  0  0  0  0  0  0  0  0  0  0
    7.2302  -14.4787   17.6412 N   0  0  0  0  0  0  0  0  0  0  0  0
    7.3927  -15.2779   22.1079 C   0  0  0  0  0  0  0  0  0  0  0  0
    6.2145  -14.9775   22.4282 O   0  0  0  0  0  0  0  0  0  0  0  0
    5.0019  -22.4726   23.1294 N   0  0  0  0  0  0  0  0  0  0  0  0
    5.7006  -21.5968   23.9725 C   0  0  0  0  0  0  0  0  0  0  0  0
    6.1585  -22.0805   25.0889 N   0  0  0  0  0  0  0  0  0  0  0  0
    5.8942  -20.2360   23.6100 N   0  0  0  0  0  0  0  0  0  0  0  0
    6.6907  -19.4158   24.4931 C   0  0  0  0  0  0  0  0  0  0  0  0
    6.7676  -17.9842   24.0086 C   0  0  0  0  0  0  0  0  0  0  0  0
    7.6612  -17.2316   24.9472 C   0  0  0  0  0  0  0  0  0  0  0  0
    7.8510  -15.7861   24.5318 C   0  0  2  0  0  0  0  0  0  0  0  0
    8.2609  -15.6622   23.1749 N   0  0  0  0  0  0  0  0  0  0  0  0
    8.6193  -15.0273   25.5364 C   0  0  0  0  0  0  0  0  0  0  0  0
    9.8945  -15.0090   25.2468 O   0  0  0  0  0  0  0  0  0  0  0  0
    6.6673  -21.4540   25.7427 N   0  0  0  0  0  0  0  0  0  0  0  0
    8.1558  -14.3808   26.6752 C   0  0  0  0  0  0  0  0  0  0  0  0
    6.8502  -14.2564   27.2169 C   0  0  0  0  0  0  0  0  0  0  0  0
    6.8520  -12.8322   27.7879 C   0  0  0  0  0  0  0  0  0  0  0  0
    8.2756  -12.3763   27.7873 C   0  0  1  0  0  0  0  0  0  0  0  0
    9.0362  -13.6519   27.5993 C   0  0  0  0  0  0  0  0  0  0  0  0
    9.2419  -14.4098   28.8511 O   0  0  0  0  0  0  0  0  0  0  0  0
    8.7178  -15.5022   29.1149 O   0  0  0  0  0  0  0  0  0  0  0  0
  2  1  1  6
  2  3  1  0
  4  3  1  0
  4  8  1  0
  5  6  1  0
  5  4  2  0
  6  7  1  0
  7  8  2  0
  9  2  1  0
 10  9  2  0
 12 11  1  0
 12 14  1  0
 13 12  2  0
 15 14  1  0
 16 15  1  0
 17 16  1  0
 18 17  1  1
 18 19  1  0
 19  9  1  0
 20 21  2  0
 20 18  1  0
 22 20  1  0
 23 22  1  0
 24 23  1  0
 25 24  1  0
 25 26  1  0
 26 22  1  0
 26 27  1  1
 28 27  2  0
 29 27  1  0
M  END
$$$$
