HRP.pdb
     RDKit          3D

 29 30  0  0  1  0  0  0  0  0999 V2000
    6.3568  -16.2476   19.7862 N   0  0  0  0  0  0  0  0  0  0  0  0
    7.3346  -15.5283   20.5790 C   0  0  1  0  0  0  0  0  0  0  0  0
    7.3151  -14.0850   20.1177 C   0  0  0  0  0  0  0  0  0  0  0  0
    7.9232  -13.8951   18.7983 C   0  0  0  0  0  0  0  0  0  0  0  0
    8.0598  -12.7084   18.1394 C   0  0  0  0  0  0  0  0  0  0  0  0
    8.6643  -12.9805   16.9742 N   0  0  0  0  0  0  0  0  0  0  0  0
    8.8999  -14.2926   16.9021 C   0  0  0  0  0  0  0  0  0  0  0  0
    8.4397  -14.8509   18.0319 N   0  0  0  0  0  0  0  0  0  0  0  0
    6.9681  -15.5194   22.0199 C   0  0  0  0  0  0  0  0  0  0  0  0
    5.8990  -14.9821   22.4064 O   0  0  0  0  0  0  0  0  0  0  0  0
    9.7204  -18.7881   29.8964 N   0  0  0  0  0  0  0  0  0  0  0  0
    9.3187  -18.9733   28.5659 C   0  0  0  0  0  0  0  0  0  0  0  0
   10.2418  -18.9286   27.6515 N   0  0  0  0  0  0  0  0  0  0  0  0
    7.9534  -19.2002   28.2419 N   0  0  0  0  0  0  0  0  0  0  0  0
    7.5530  -19.0149   26.8662 C   0  0  0  0  0  0  0  0  0  0  0  0
    7.7175  -17.5767   26.4250 C   0  0  0  0  0  0  0  0  0  0  0  0
    7.3030  -17.4896   24.9875 C   0  0  0  0  0  0  0  0  0  0  0  0
    7.4676  -16.0931   24.4210 C   0  0  2  0  0  0  0  0  0  0  0  0
    7.7853  -16.1055   23.0341 N   0  0  0  0  0  0  0  0  0  0  0  0
    8.3035  -15.2469   25.2929 C   0  0  0  0  0  0  0  0  0  0  0  0
    9.5758  -15.4106   25.0379 O   0  0  0  0  0  0  0  0  0  0  0  0
    9.9904  -19.1383   26.6657 N   0  0  0  0  0  0  0  0  0  0  0  0
    7.9018  -14.3615   26.2851 C   0  0  0  0  0  0  0  0  0  0  0  0
    6.6137  -14.0261   26.7769 C   0  0  0  0  0  0  0  0  0  0  0  0
    6.7413  -12.5258   27.0724 C   0  0  0  0  0  0  0  0  0  0  0  0
    8.1992  -12.2024   27.0055 C   0  0  1  0  0  0  0  0  0  0  0  0
    8.8452  -13.5514   27.0686 C   0  0  0  0  0  0  0  0  0  0  0  0
    8.9882  -14.0770   28.4423 O   0  0  0  0  0  0  0  0  0  0  0  0
    8.3457  -15.0291   28.9095 O   0  0  0  0  0  0  0  0  0  0  0  0
  2  1  1  6
  2  3  1  0
  4  3  1  0
  4  8  1  0
  5  6  1  0
  5  4  2  0
  6  7  1  0
  7  8  2  0
  9  2  1  0
 10  9  2  0
 12 11  1  0
 12 14  1  0
 13 12  2  0
 15 14  1  0
 16 15  1  0
 17 16  1  0
 18 17  1  1
 18 19  1  0
 19  9  1  0
 20 21  2  0
 20 18  1  0
 22 20  1  0
 23 22  1  0
 24 23  1  0
 25 24  1  0
 25 26  1  0
 26 22  1  0
 26 27  1  1
 28 27  2  0
 29 27  1  0
M  END
$$$$
