HRP.pdb
     RDKit          3D

 29 30  0  0  1  0  0  0  0  0999 V2000
    8.1787  -16.6495   19.8417 N   0  0  0  0  0  0  0  0  0  0  0  0
    8.1416  -15.3866   20.5529 C   0  0  1  0  0  0  0  0  0  0  0  0
    7.3362  -14.4183   19.7102 C   0  0  0  0  0  0  0  0  0  0  0  0
    7.9379  -14.1590   18.3997 C   0  0  0  0  0  0  0  0  0  0  0  0
    8.9371  -13.2685   18.1359 C   0  0  0  0  0  0  0  0  0  0  0  0
    9.1872  -13.3462   16.8212 N   0  0  0  0  0  0  0  0  0  0  0  0
    8.3739  -14.2540   16.2764 C   0  0  0  0  0  0  0  0  0  0  0  0
    7.6054  -14.7517   17.2570 N   0  0  0  0  0  0  0  0  0  0  0  0
    7.4300  -15.5134   21.8522 C   0  0  0  0  0  0  0  0  0  0  0  0
    6.1756  -15.4472   21.9056 O   0  0  0  0  0  0  0  0  0  0  0  0
    9.8997  -19.1078   28.8196 N   0  0  0  0  0  0  0  0  0  0  0  0
   10.5029  -19.4908   27.6132 C   0  0  0  0  0  0  0  0  0  0  0  0
   11.5760  -20.2209   27.6873 N   0  0  0  0  0  0  0  0  0  0  0  0
    9.9536  -19.0905   26.3648 N   0  0  0  0  0  0  0  0  0  0  0  0
    8.8268  -18.1866   26.3892 C   0  0  0  0  0  0  0  0  0  0  0  0
    8.4374  -17.7409   24.9965 C   0  0  0  0  0  0  0  0  0  0  0  0
    7.2863  -16.7901   25.1262 C   0  0  0  0  0  0  0  0  0  0  0  0
    7.5156  -15.4967   24.3694 C   0  0  2  0  0  0  0  0  0  0  0  0
    8.1072  -15.7135   23.0938 N   0  0  0  0  0  0  0  0  0  0  0  0
    8.1295  -14.4657   25.2269 C   0  0  0  0  0  0  0  0  0  0  0  0
    9.3999  -14.3146   24.9552 O   0  0  0  0  0  0  0  0  0  0  0  0
   12.0467  -20.5219   26.8116 N   0  0  0  0  0  0  0  0  0  0  0  0
    7.5354  -13.6989   26.2212 C   0  0  0  0  0  0  0  0  0  0  0  0
    6.1828  -13.5844   26.6347 C   0  0  0  0  0  0  0  0  0  0  0  0
    6.0606  -12.0978   26.9943 C   0  0  0  0  0  0  0  0  0  0  0  0
    7.4531  -11.5563   27.0410 C   0  0  1  0  0  0  0  0  0  0  0  0
    8.2926  -12.7945   27.0982 C   0  0  0  0  0  0  0  0  0  0  0  0
    8.4275  -13.3574   28.4578 O   0  0  0  0  0  0  0  0  0  0  0  0
    7.8978  -14.4086   28.8477 O   0  0  0  0  0  0  0  0  0  0  0  0
  2  1  1  6
  2  3  1  0
  4  3  1  0
  4  8  1  0
  5  6  1  0
  5  4  2  0
  6  7  1  0
  7  8  2  0
  9  2  1  0
 10  9  2  0
 12 11  1  0
 12 14  1  0
 13 12  2  0
 15 14  1  0
 16 15  1  0
 17 16  1  0
 18 17  1  1
 18 19  1  0
 19  9  1  0
 20 21  2  0
 20 18  1  0
 22 20  1  0
 23 22  1  0
 24 23  1  0
 25 24  1  0
 25 26  1  0
 26 22  1  0
 26 27  1  1
 28 27  2  0
 29 27  1  0
M  END
$$$$
