MTY.pdb
     RDKit          3D

 28 28  0  0  1  0  0  0  0  0999 V2000
   16.3057  -18.2595  -14.1710 C   0  0  0  0  0  0  0  0  0  0  0  0
   15.9614  -17.6741  -15.8115 S   0  0  0  0  0  0  0  0  0  0  0  0
   15.9140  -15.9352  -16.0760 C   0  0  0  0  0  0  0  0  0  0  0  0
   17.0277  -15.0872  -15.6117 C   0  0  0  0  0  0  0  0  0  0  0  0
   17.1125  -13.6919  -16.1357 C   0  0  2  0  0  0  0  0  0  0  0  0
   16.8761  -13.6094  -17.5516 N   0  0  0  0  0  0  0  0  0  0  0  0
   18.4355  -13.0762  -15.7541 C   0  0  0  0  0  0  0  0  0  0  0  0
   18.9083  -13.1663  -14.5861 O   0  0  0  0  0  0  0  0  0  0  0  0
   21.8367  -13.5750  -17.5772 C   0  0  0  0  0  0  0  0  0  0  0  0
   21.4388  -12.1094  -17.6246 C   0  0  1  0  0  0  0  0  0  0  0  0
   20.9635  -11.8240  -18.8791 O   0  0  0  0  0  0  0  0  0  0  0  0
   20.4435  -11.7992  -16.5216 C   0  0  2  0  0  0  0  0  0  0  0  0
   19.1583  -12.3748  -16.7618 N   0  0  0  0  0  0  0  0  0  0  0  0
   20.3862  -10.3129  -16.3955 C   0  0  0  0  0  0  0  0  0  0  0  0
   19.4732   -9.6394  -16.9464 O   0  0  0  0  0  0  0  0  0  0  0  0
   22.8112   -2.0674  -13.8169 O   0  0  0  0  0  0  0  0  0  0  0  0
   22.7200   -3.4425  -14.0321 C   0  0  0  0  0  0  0  0  0  0  0  0
   23.5779   -4.1027  -14.8856 C   0  0  0  0  0  0  0  0  0  0  0  0
   23.4290   -5.4747  -15.0518 C   0  0  0  0  0  0  0  0  0  0  0  0
   22.4582   -6.2004  -14.3980 C   0  0  0  0  0  0  0  0  0  0  0  0
   22.3252   -7.6204  -14.5941 C   0  0  0  0  0  0  0  0  0  0  0  0
   21.3542   -8.0976  -15.6199 C   0  0  2  0  0  0  0  0  0  0  0  0
   21.3456   -9.5691  -15.6550 N   0  0  0  0  0  0  0  0  0  0  0  0
   21.6894   -7.5509  -16.9544 C   0  0  0  0  0  0  0  0  0  0  0  0
   22.5871   -8.1329  -17.6371 O   0  0  0  0  0  0  0  0  0  0  0  0
   21.6161   -5.5043  -13.5501 C   0  0  0  0  0  0  0  0  0  0  0  0
   21.7423   -4.1535  -13.3692 C   0  0  0  0  0  0  0  0  0  0  0  0
   21.0620   -6.4351  -17.4820 O   0  0  0  0  0  0  0  0  0  0  0  0
  1  2  1  0
  2  3  1  0
  3  4  1  0
  4  5  1  0
  5  6  1  6
  7  5  1  0
  8  7  2  0
 10  9  1  6
 10 12  1  0
 11 10  1  0
 12 14  1  0
 12 13  1  6
 13  7  1  0
 14 23  1  0
 15 14  2  0
 16 17  1  0
 17 18  2  0
 17 27  1  0
 18 19  1  0
 19 20  2  0
 20 21  1  0
 22 21  1  1
 22 24  1  0
 23 22  1  0
 24 25  2  0
 24 28  1  0
 26 20  1  0
 27 26  2  0
M  END
$$$$
