MTY.pdb
     RDKit          3D

 28 28  0  0  1  0  0  0  0  0999 V2000
   21.4982  -17.7234  -20.3855 C   0  0  0  0  0  0  0  0  0  0  0  0
   23.0297  -17.0606  -20.9918 S   0  0  0  0  0  0  0  0  0  0  0  0
   24.5093  -17.9479  -20.6462 C   0  0  0  0  0  0  0  0  0  0  0  0
   24.5597  -18.8844  -19.5079 C   0  0  0  0  0  0  0  0  0  0  0  0
   25.3269  -18.4735  -18.2951 C   0  0  2  0  0  0  0  0  0  0  0  0
   26.6742  -18.0698  -18.5941 N   0  0  0  0  0  0  0  0  0  0  0  0
   25.2898  -19.5728  -17.2632 C   0  0  0  0  0  0  0  0  0  0  0  0
   24.2555  -20.2679  -17.0565 O   0  0  0  0  0  0  0  0  0  0  0  0
   27.6494  -22.4860  -17.0820 C   0  0  0  0  0  0  0  0  0  0  0  0
   27.7641  -21.7607  -15.7519 C   0  0  1  0  0  0  0  0  0  0  0  0
   28.9571  -21.0846  -15.7221 O   0  0  0  0  0  0  0  0  0  0  0  0
   26.5602  -20.8618  -15.5378 C   0  0  2  0  0  0  0  0  0  0  0  0
   26.4734  -19.8174  -16.5086 N   0  0  0  0  0  0  0  0  0  0  0  0
   26.6546  -20.3360  -14.1440 C   0  0  0  0  0  0  0  0  0  0  0  0
   27.0836  -19.1742  -13.9055 O   0  0  0  0  0  0  0  0  0  0  0  0
   19.9567  -20.2971  -12.4355 O   0  0  0  0  0  0  0  0  0  0  0  0
   21.3182  -20.0739  -12.2309 C   0  0  0  0  0  0  0  0  0  0  0  0
   22.1632  -19.7387  -13.2673 C   0  0  0  0  0  0  0  0  0  0  0  0
   23.5093  -19.5304  -12.9901 C   0  0  0  0  0  0  0  0  0  0  0  0
   24.0322  -19.6461  -11.7213 C   0  0  0  0  0  0  0  0  0  0  0  0
   25.4323  -19.4290  -11.4657 C   0  0  0  0  0  0  0  0  0  0  0  0
   26.3618  -20.5825  -11.6341 C   0  0  2  0  0  0  0  0  0  0  0  0
   26.2718  -21.1016  -13.0085 N   0  0  0  0  0  0  0  0  0  0  0  0
   26.0541  -21.6513  -10.6569 C   0  0  0  0  0  0  0  0  0  0  0  0
   25.7644  -22.8061  -11.0964 O   0  0  0  0  0  0  0  0  0  0  0  0
   23.1546  -19.9838  -10.7073 C   0  0  0  0  0  0  0  0  0  0  0  0
   21.8249  -20.1938  -10.9544 C   0  0  0  0  0  0  0  0  0  0  0  0
   26.0721  -21.4384   -9.2889 O   0  0  0  0  0  0  0  0  0  0  0  0
  1  2  1  0
  2  3  1  0
  3  4  1  0
  4  5  1  0
  5  6  1  6
  7  5  1  0
  8  7  2  0
 10  9  1  6
 10 12  1  0
 11 10  1  0
 12 14  1  0
 12 13  1  6
 13  7  1  0
 14 23  1  0
 15 14  2  0
 16 17  1  0
 17 18  2  0
 17 27  1  0
 18 19  1  0
 19 20  2  0
 20 21  1  0
 22 21  1  6
 22 24  1  0
 23 22  1  0
 24 25  2  0
 24 28  1  0
 26 20  1  0
 27 26  2  0
M  END
$$$$
