MTY.pdb
     RDKit          3D

 28 28  0  0  1  0  0  0  0  0999 V2000
   30.8768  -22.3420  -10.8575 C   0  0  0  0  0  0  0  0  0  0  0  0
   30.1765  -22.0392   -9.2543 S   0  0  0  0  0  0  0  0  0  0  0  0
   28.5369  -21.4059   -9.1743 C   0  0  0  0  0  0  0  0  0  0  0  0
   27.8226  -21.0473  -10.4138 C   0  0  0  0  0  0  0  0  0  0  0  0
   26.4258  -20.5340  -10.2950 C   0  0  2  0  0  0  0  0  0  0  0  0
   25.5787  -21.3906   -9.5101 N   0  0  0  0  0  0  0  0  0  0  0  0
   25.8492  -20.2833  -11.6660 C   0  0  0  0  0  0  0  0  0  0  0  0
   26.3880  -19.4905  -12.4886 O   0  0  0  0  0  0  0  0  0  0  0  0
   25.1764  -22.5646  -14.4715 C   0  0  0  0  0  0  0  0  0  0  0  0
   23.8159  -22.0123  -14.0806 C   0  0  1  0  0  0  0  0  0  0  0  0
   23.1145  -22.9944  -13.4289 O   0  0  0  0  0  0  0  0  0  0  0  0
   23.9787  -20.7465  -13.2594 C   0  0  2  0  0  0  0  0  0  0  0  0
   24.6562  -20.9757  -12.0228 N   0  0  0  0  0  0  0  0  0  0  0  0
   22.6121  -20.1793  -13.0624 C   0  0  0  0  0  0  0  0  0  0  0  0
   21.8603  -20.5794  -12.1322 O   0  0  0  0  0  0  0  0  0  0  0  0
   15.6694  -14.6040  -14.1150 O   0  0  0  0  0  0  0  0  0  0  0  0
   16.9044  -15.2519  -14.1286 C   0  0  0  0  0  0  0  0  0  0  0  0
   17.7603  -15.2070  -13.0489 C   0  0  0  0  0  0  0  0  0  0  0  0
   18.9755  -15.8766  -13.1322 C   0  0  0  0  0  0  0  0  0  0  0  0
   19.3585  -16.5827  -14.2509 C   0  0  0  0  0  0  0  0  0  0  0  0
   20.6262  -17.2624  -14.3098 C   0  0  0  0  0  0  0  0  0  0  0  0
   20.7120  -18.6352  -13.7343 C   0  0  2  0  0  0  0  0  0  0  0  0
   22.0758  -19.1634  -13.9005 N   0  0  0  0  0  0  0  0  0  0  0  0
   19.7274  -19.5356  -14.3760 C   0  0  0  0  0  0  0  0  0  0  0  0
   18.5896  -19.6729  -13.8306 O   0  0  0  0  0  0  0  0  0  0  0  0
   18.4744  -16.6053  -15.3141 C   0  0  0  0  0  0  0  0  0  0  0  0
   17.2719  -15.9544  -15.2566 C   0  0  0  0  0  0  0  0  0  0  0  0
   20.0006  -20.2283  -15.5432 O   0  0  0  0  0  0  0  0  0  0  0  0
  1  2  1  0
  2  3  1  0
  3  4  1  0
  4  5  1  0
  5  6  1  6
  7  5  1  0
  8  7  2  0
 10  9  1  1
 10 12  1  0
 11 10  1  0
 12 14  1  0
 12 13  1  1
 13  7  1  0
 14 23  1  0
 15 14  2  0
 16 17  1  0
 17 18  2  0
 17 27  1  0
 18 19  1  0
 19 20  2  0
 20 21  1  0
 22 21  1  6
 22 24  1  0
 23 22  1  0
 24 25  2  0
 24 28  1  0
 26 20  1  0
 27 26  2  0
M  END
$$$$
