MTY.pdb
     RDKit          3D

 28 28  0  0  1  0  0  0  0  0999 V2000
   32.6631  -23.5703  -14.7290 C   0  0  0  0  0  0  0  0  0  0  0  0
   31.7982  -24.6059  -15.8830 S   0  0  0  0  0  0  0  0  0  0  0  0
   30.3772  -23.9452  -16.6832 C   0  0  0  0  0  0  0  0  0  0  0  0
   29.6970  -22.7628  -16.1223 C   0  0  0  0  0  0  0  0  0  0  0  0
   28.6460  -22.1000  -16.9498 C   0  0  2  0  0  0  0  0  0  0  0  0
   29.1506  -21.5958  -18.1983 N   0  0  0  0  0  0  0  0  0  0  0  0
   27.9613  -21.0214  -16.1483 C   0  0  0  0  0  0  0  0  0  0  0  0
   28.4430  -19.8593  -16.0333 O   0  0  0  0  0  0  0  0  0  0  0  0
   25.7334  -18.7328  -16.5534 C   0  0  0  0  0  0  0  0  0  0  0  0
   25.0055  -19.6046  -15.5441 C   0  0  1  0  0  0  0  0  0  0  0  0
   24.1027  -20.3907  -16.2136 O   0  0  0  0  0  0  0  0  0  0  0  0
   26.0020  -20.4024  -14.7234 C   0  0  2  0  0  0  0  0  0  0  0  0
   26.7306  -21.3475  -15.5086 N   0  0  0  0  0  0  0  0  0  0  0  0
   25.2336  -21.0517  -13.6206 C   0  0  0  0  0  0  0  0  0  0  0  0
   24.9707  -22.2851  -13.6378 O   0  0  0  0  0  0  0  0  0  0  0  0
   29.3412  -20.9215   -7.8278 O   0  0  0  0  0  0  0  0  0  0  0  0
   28.0799  -20.7987   -8.4104 C   0  0  0  0  0  0  0  0  0  0  0  0
   27.5322  -21.8058   -9.1760 C   0  0  0  0  0  0  0  0  0  0  0  0
   26.2699  -21.6148   -9.7257 C   0  0  0  0  0  0  0  0  0  0  0  0
   25.5450  -20.4593   -9.5361 C   0  0  0  0  0  0  0  0  0  0  0  0
   24.2413  -20.2884  -10.1226 C   0  0  0  0  0  0  0  0  0  0  0  0
   23.9648  -20.9628  -11.4232 C   0  0  2  0  0  0  0  0  0  0  0  0
   24.7539  -20.3305  -12.4928 N   0  0  0  0  0  0  0  0  0  0  0  0
   22.5208  -20.9090  -11.7457 C   0  0  0  0  0  0  0  0  0  0  0  0
   21.7083  -21.5127  -10.9801 O   0  0  0  0  0  0  0  0  0  0  0  0
   26.1265  -19.4714   -8.7626 C   0  0  0  0  0  0  0  0  0  0  0  0
   27.3679  -19.6352   -8.2101 C   0  0  0  0  0  0  0  0  0  0  0  0
   22.0274  -20.2269  -12.8449 O   0  0  0  0  0  0  0  0  0  0  0  0
  1  2  1  0
  2  3  1  0
  3  4  1  0
  4  5  1  0
  5  6  1  6
  7  5  1  0
  8  7  2  0
 10  9  1  6
 10 12  1  0
 11 10  1  0
 12 14  1  0
 12 13  1  6
 13  7  1  0
 14 23  1  0
 15 14  2  0
 16 17  1  0
 17 18  2  0
 17 27  1  0
 18 19  1  0
 19 20  2  0
 20 21  1  0
 22 21  1  1
 22 24  1  0
 23 22  1  0
 24 25  2  0
 24 28  1  0
 26 20  1  0
 27 26  2  0
M  END
$$$$
