MTY.pdb
     RDKit          3D

 28 28  0  0  1  0  0  0  0  0999 V2000
   28.1376  -18.2422   -6.8771 C   0  0  0  0  0  0  0  0  0  0  0  0
   27.8948  -19.9678   -6.5369 S   0  0  0  0  0  0  0  0  0  0  0  0
   27.7187  -21.0631   -7.9026 C   0  0  0  0  0  0  0  0  0  0  0  0
   27.2925  -20.5436   -9.2155 C   0  0  0  0  0  0  0  0  0  0  0  0
   25.8478  -20.6495   -9.5763 C   0  0  2  0  0  0  0  0  0  0  0  0
   25.3210  -21.9754   -9.3974 N   0  0  0  0  0  0  0  0  0  0  0  0
   25.6279  -20.1466  -10.9812 C   0  0  0  0  0  0  0  0  0  0  0  0
   26.0301  -19.0108  -11.3606 O   0  0  0  0  0  0  0  0  0  0  0  0
   26.0987  -22.0451  -14.4096 C   0  0  0  0  0  0  0  0  0  0  0  0
   24.6444  -21.6382  -14.2425 C   0  0  1  0  0  0  0  0  0  0  0  0
   23.9047  -22.7587  -13.9621 O   0  0  0  0  0  0  0  0  0  0  0  0
   24.5194  -20.5573  -13.1845 C   0  0  2  0  0  0  0  0  0  0  0  0
   24.9414  -20.9992  -11.8933 N   0  0  0  0  0  0  0  0  0  0  0  0
   23.0970  -20.1047  -13.1937 C   0  0  0  0  0  0  0  0  0  0  0  0
   22.2344  -20.6267  -12.4359 O   0  0  0  0  0  0  0  0  0  0  0  0
   16.2407  -14.4821  -14.2555 O   0  0  0  0  0  0  0  0  0  0  0  0
   17.4752  -15.1311  -14.2353 C   0  0  0  0  0  0  0  0  0  0  0  0
   18.1890  -15.2983  -13.0679 C   0  0  0  0  0  0  0  0  0  0  0  0
   19.4127  -15.9553  -13.1222 C   0  0  0  0  0  0  0  0  0  0  0  0
   19.9403  -16.4455  -14.2961 C   0  0  0  0  0  0  0  0  0  0  0  0
   21.2131  -17.1178  -14.3219 C   0  0  0  0  0  0  0  0  0  0  0  0
   21.2416  -18.5752  -14.0087 C   0  0  2  0  0  0  0  0  0  0  0  0
   22.6279  -19.0685  -14.0471 N   0  0  0  0  0  0  0  0  0  0  0  0
   20.3971  -19.3329  -14.9598 C   0  0  0  0  0  0  0  0  0  0  0  0
   20.9202  -19.7347  -16.0441 O   0  0  0  0  0  0  0  0  0  0  0  0
   19.1961  -16.2592  -15.4467 C   0  0  0  0  0  0  0  0  0  0  0  0
   17.9884  -15.6157  -15.4195 C   0  0  0  0  0  0  0  0  0  0  0  0
   19.0655  -19.6186  -14.7103 O   0  0  0  0  0  0  0  0  0  0  0  0
  1  2  1  0
  2  3  1  0
  3  4  1  0
  4  5  1  0
  5  6  1  6
  7  5  1  0
  8  7  2  0
 10  9  1  1
 10 12  1  0
 11 10  1  0
 12 14  1  0
 12 13  1  1
 13  7  1  0
 14 23  1  0
 15 14  2  0
 16 17  1  0
 17 18  2  0
 17 27  1  0
 18 19  1  0
 19 20  2  0
 20 21  1  0
 22 21  1  6
 22 24  1  0
 23 22  1  0
 24 25  2  0
 24 28  1  0
 26 20  1  0
 27 26  2  0
M  END
$$$$
