MTY.pdb
     RDKit          3D

 28 28  0  0  1  0  0  0  0  0999 V2000
   18.1366  -26.0710   -6.4780 C   0  0  0  0  0  0  0  0  0  0  0  0
   18.0599  -24.8564   -7.7707 S   0  0  0  0  0  0  0  0  0  0  0  0
   19.5358  -24.5015   -8.6606 C   0  0  0  0  0  0  0  0  0  0  0  0
   19.6167  -24.7959  -10.1035 C   0  0  0  0  0  0  0  0  0  0  0  0
   18.4462  -25.4588  -10.7508 C   0  0  2  0  0  0  0  0  0  0  0  0
   18.2652  -26.8196  -10.3228 N   0  0  0  0  0  0  0  0  0  0  0  0
   18.5589  -25.3561  -12.2513 C   0  0  0  0  0  0  0  0  0  0  0  0
   19.0887  -26.2649  -12.9507 O   0  0  0  0  0  0  0  0  0  0  0  0
   16.0830  -25.4026  -14.9636 C   0  0  0  0  0  0  0  0  0  0  0  0
   16.6420  -23.9921  -14.8826 C   0  0  1  0  0  0  0  0  0  0  0  0
   15.7680  -23.2140  -14.1672 O   0  0  0  0  0  0  0  0  0  0  0  0
   18.0420  -24.0145  -14.2970 C   0  0  2  0  0  0  0  0  0  0  0  0
   18.0429  -24.1856  -12.8788 N   0  0  0  0  0  0  0  0  0  0  0  0
   18.7075  -22.7460  -14.7171 C   0  0  0  0  0  0  0  0  0  0  0  0
   18.7505  -21.7411  -13.9562 O   0  0  0  0  0  0  0  0  0  0  0  0
   25.0207  -24.9358  -14.2938 O   0  0  0  0  0  0  0  0  0  0  0  0
   24.0941  -24.1690  -15.0000 C   0  0  0  0  0  0  0  0  0  0  0  0
   23.3339  -24.7039  -16.0180 C   0  0  0  0  0  0  0  0  0  0  0  0
   22.4294  -23.8808  -16.6788 C   0  0  0  0  0  0  0  0  0  0  0  0
   22.2631  -22.5521  -16.3570 C   0  0  0  0  0  0  0  0  0  0  0  0
   21.3214  -21.7228  -17.0628 C   0  0  0  0  0  0  0  0  0  0  0  0
   20.0484  -21.3661  -16.3735 C   0  0  2  0  0  0  0  0  0  0  0  0
   19.3284  -22.5903  -15.9868 N   0  0  0  0  0  0  0  0  0  0  0  0
   19.1998  -20.5205  -17.2434 C   0  0  0  0  0  0  0  0  0  0  0  0
   19.5910  -19.3424  -17.5074 O   0  0  0  0  0  0  0  0  0  0  0  0
   23.0428  -22.0507  -15.3307 C   0  0  0  0  0  0  0  0  0  0  0  0
   23.9403  -22.8406  -14.6646 C   0  0  0  0  0  0  0  0  0  0  0  0
   18.0025  -20.9661  -17.7772 O   0  0  0  0  0  0  0  0  0  0  0  0
  1  2  1  0
  2  3  1  0
  3  4  1  0
  4  5  1  0
  5  6  1  6
  7  5  1  0
  8  7  2  0
 10  9  1  1
 10 12  1  0
 11 10  1  0
 12 14  1  0
 12 13  1  1
 13  7  1  0
 14 23  1  0
 15 14  2  0
 16 17  1  0
 17 18  2  0
 17 27  1  0
 18 19  1  0
 19 20  2  0
 20 21  1  0
 22 21  1  6
 22 24  1  0
 23 22  1  0
 24 25  2  0
 24 28  1  0
 26 20  1  0
 27 26  2  0
M  END
$$$$
