MTY.pdb
     RDKit          3D

 28 28  0  0  1  0  0  0  0  0999 V2000
   26.2508  -24.3902  -16.5746 C   0  0  0  0  0  0  0  0  0  0  0  0
   27.6046  -23.2477  -16.4548 S   0  0  0  0  0  0  0  0  0  0  0  0
   29.1552  -23.7289  -17.1331 C   0  0  0  0  0  0  0  0  0  0  0  0
   29.3219  -25.0750  -17.7122 C   0  0  0  0  0  0  0  0  0  0  0  0
   30.6563  -25.4357  -18.2761 C   0  0  2  0  0  0  0  0  0  0  0  0
   31.0907  -24.5342  -19.3086 N   0  0  0  0  0  0  0  0  0  0  0  0
   30.6462  -26.8666  -18.7525 C   0  0  0  0  0  0  0  0  0  0  0  0
   29.9938  -27.2330  -19.7703 O   0  0  0  0  0  0  0  0  0  0  0  0
   33.6045  -28.8926  -19.6660 C   0  0  0  0  0  0  0  0  0  0  0  0
   32.9145  -29.6741  -18.5607 C   0  0  1  0  0  0  0  0  0  0  0  0
   33.6609  -29.5659  -17.4151 O   0  0  0  0  0  0  0  0  0  0  0  0
   31.4845  -29.1946  -18.3919 C   0  0  2  0  0  0  0  0  0  0  0  0
   31.4060  -27.8192  -18.0140 N   0  0  0  0  0  0  0  0  0  0  0  0
   30.8405  -30.0967  -17.3920 C   0  0  0  0  0  0  0  0  0  0  0  0
   30.5458  -29.6933  -16.2339 O   0  0  0  0  0  0  0  0  0  0  0  0
   24.9704  -35.1043  -13.4885 O   0  0  0  0  0  0  0  0  0  0  0  0
   25.8282  -34.3222  -14.2617 C   0  0  0  0  0  0  0  0  0  0  0  0
   26.2266  -34.7106  -15.5229 C   0  0  0  0  0  0  0  0  0  0  0  0
   27.0831  -33.8809  -16.2373 C   0  0  0  0  0  0  0  0  0  0  0  0
   27.5496  -32.6865  -15.7348 C   0  0  0  0  0  0  0  0  0  0  0  0
   28.4400  -31.8503  -16.4966 C   0  0  0  0  0  0  0  0  0  0  0  0
   29.8364  -32.3269  -16.7107 C   0  0  2  0  0  0  0  0  0  0  0  0
   30.5212  -31.4527  -17.6770 N   0  0  0  0  0  0  0  0  0  0  0  0
   29.8453  -33.7291  -17.1859 C   0  0  0  0  0  0  0  0  0  0  0  0
   29.6899  -33.9472  -18.4264 O   0  0  0  0  0  0  0  0  0  0  0  0
   27.1286  -32.3300  -14.4666 C   0  0  0  0  0  0  0  0  0  0  0  0
   26.2855  -33.1294  -13.7432 C   0  0  0  0  0  0  0  0  0  0  0  0
   30.0173  -34.8047  -16.3312 O   0  0  0  0  0  0  0  0  0  0  0  0
  1  2  1  0
  2  3  1  0
  3  4  1  0
  4  5  1  0
  5  6  1  6
  7  5  1  0
  8  7  2  0
 10  9  1  6
 10 12  1  0
 11 10  1  0
 12 14  1  0
 12 13  1  1
 13  7  1  0
 14 23  1  0
 15 14  2  0
 16 17  1  0
 17 18  2  0
 17 27  1  0
 18 19  1  0
 19 20  2  0
 20 21  1  0
 22 21  1  6
 22 24  1  0
 23 22  1  0
 24 25  2  0
 24 28  1  0
 26 20  1  0
 27 26  2  0
M  END
$$$$
