MTY.pdb
     RDKit          3D

 28 28  0  0  1  0  0  0  0  0999 V2000
   21.2308  -19.4620  -17.6266 C   0  0  0  0  0  0  0  0  0  0  0  0
   19.7854  -18.9367  -18.5138 S   0  0  0  0  0  0  0  0  0  0  0  0
   20.0131  -17.9850  -19.9761 C   0  0  0  0  0  0  0  0  0  0  0  0
   20.7034  -16.6833  -19.9098 C   0  0  0  0  0  0  0  0  0  0  0  0
   20.1965  -15.6693  -18.9385 C   0  0  2  0  0  0  0  0  0  0  0  0
   18.7932  -15.3970  -19.0935 N   0  0  0  0  0  0  0  0  0  0  0  0
   21.0224  -14.4104  -19.0276 C   0  0  0  0  0  0  0  0  0  0  0  0
   22.2842  -14.4273  -18.9715 O   0  0  0  0  0  0  0  0  0  0  0  0
   20.9267  -11.9667  -21.8003 C   0  0  0  0  0  0  0  0  0  0  0  0
   20.6081  -11.1588  -20.5536 C   0  0  1  0  0  0  0  0  0  0  0  0
   19.2764  -10.8310  -20.5716 O   0  0  0  0  0  0  0  0  0  0  0  0
   21.0197  -11.9260  -19.3106 C   0  0  2  0  0  0  0  0  0  0  0  0
   20.3339  -13.1724  -19.1805 N   0  0  0  0  0  0  0  0  0  0  0  0
   20.7833  -11.0227  -18.1459 C   0  0  0  0  0  0  0  0  0  0  0  0
   19.7229  -11.0875  -17.4663 O   0  0  0  0  0  0  0  0  0  0  0  0
   22.2948   -3.8095  -13.0147 O   0  0  0  0  0  0  0  0  0  0  0  0
   22.4039   -4.9253  -13.8444 C   0  0  0  0  0  0  0  0  0  0  0  0
   22.6093   -4.8038  -15.2021 C   0  0  0  0  0  0  0  0  0  0  0  0
   22.7086   -5.9594  -15.9682 C   0  0  0  0  0  0  0  0  0  0  0  0
   22.6096   -7.2208  -15.4245 C   0  0  0  0  0  0  0  0  0  0  0  0
   22.7118   -8.3998  -16.2444 C   0  0  0  0  0  0  0  0  0  0  0  0
   21.4494   -9.0783  -16.6553 C   0  0  2  0  0  0  0  0  0  0  0  0
   21.7269  -10.0426  -17.7323 N   0  0  0  0  0  0  0  0  0  0  0  0
   20.4406   -8.0881  -17.0956 C   0  0  0  0  0  0  0  0  0  0  0  0
   20.4425   -7.7240  -18.3114 O   0  0  0  0  0  0  0  0  0  0  0  0
   22.4037   -7.3035  -14.0595 C   0  0  0  0  0  0  0  0  0  0  0  0
   22.3027   -6.1806  -13.2835 C   0  0  0  0  0  0  0  0  0  0  0  0
   19.4999   -7.5490  -16.2346 O   0  0  0  0  0  0  0  0  0  0  0  0
  1  2  1  0
  2  3  1  0
  3  4  1  0
  4  5  1  0
  5  6  1  6
  7  5  1  0
  8  7  2  0
 10  9  1  6
 10 12  1  0
 11 10  1  0
 12 14  1  0
 12 13  1  1
 13  7  1  0
 14 23  1  0
 15 14  2  0
 16 17  1  0
 17 18  2  0
 17 27  1  0
 18 19  1  0
 19 20  2  0
 20 21  1  0
 22 21  1  6
 22 24  1  0
 23 22  1  0
 24 25  2  0
 24 28  1  0
 26 20  1  0
 27 26  2  0
M  END
$$$$
