MTY.pdb
     RDKit          3D

 28 28  0  0  1  0  0  0  0  0999 V2000
   28.4208  -14.9992  -17.0314 C   0  0  0  0  0  0  0  0  0  0  0  0
   27.2395  -15.2619  -15.7323 S   0  0  0  0  0  0  0  0  0  0  0  0
   26.6233  -13.8528  -14.8775 C   0  0  0  0  0  0  0  0  0  0  0  0
   25.7208  -12.9094  -15.5635 C   0  0  0  0  0  0  0  0  0  0  0  0
   24.3143  -13.3415  -15.8153 C   0  0  2  0  0  0  0  0  0  0  0  0
   24.2295  -14.5658  -16.5647 N   0  0  0  0  0  0  0  0  0  0  0  0
   23.5421  -12.2277  -16.4770 C   0  0  0  0  0  0  0  0  0  0  0  0
   23.6032  -12.0119  -17.7201 O   0  0  0  0  0  0  0  0  0  0  0  0
   19.7838  -11.6826  -16.4323 C   0  0  0  0  0  0  0  0  0  0  0  0
   20.4440  -10.5015  -15.7413 C   0  0  1  0  0  0  0  0  0  0  0  0
   20.3052  -10.6528  -14.3852 O   0  0  0  0  0  0  0  0  0  0  0  0
   21.8897  -10.3739  -16.1853 C   0  0  2  0  0  0  0  0  0  0  0  0
   22.7226  -11.4046  -15.6518 N   0  0  0  0  0  0  0  0  0  0  0  0
   22.3465   -9.0100  -15.7860 C   0  0  0  0  0  0  0  0  0  0  0  0
   22.9532   -8.8103  -14.6985 O   0  0  0  0  0  0  0  0  0  0  0  0
   23.4145   -0.1109  -16.2960 O   0  0  0  0  0  0  0  0  0  0  0  0
   23.0902   -1.4486  -16.5212 C   0  0  0  0  0  0  0  0  0  0  0  0
   21.8563   -1.9635  -16.1853 C   0  0  0  0  0  0  0  0  0  0  0  0
   21.6020   -3.3063  -16.4389 C   0  0  0  0  0  0  0  0  0  0  0  0
   22.5339   -4.1427  -17.0120 C   0  0  0  0  0  0  0  0  0  0  0  0
   22.2431   -5.5310  -17.2582 C   0  0  0  0  0  0  0  0  0  0  0  0
   22.4530   -6.4986  -16.1435 C   0  0  2  0  0  0  0  0  0  0  0  0
   22.1300   -7.8615  -16.5960 N   0  0  0  0  0  0  0  0  0  0  0  0
   21.6270   -6.1345  -14.9700 C   0  0  0  0  0  0  0  0  0  0  0  0
   22.1482   -5.4131  -14.0652 O   0  0  0  0  0  0  0  0  0  0  0  0
   23.7601   -3.5911  -17.3354 C   0  0  0  0  0  0  0  0  0  0  0  0
   24.0350   -2.2719  -17.0960 C   0  0  0  0  0  0  0  0  0  0  0  0
   20.3139   -6.5489  -14.8252 O   0  0  0  0  0  0  0  0  0  0  0  0
  1  2  1  0
  2  3  1  0
  3  4  1  0
  4  5  1  0
  5  6  1  6
  7  5  1  0
  8  7  2  0
 10  9  1  6
 10 12  1  0
 11 10  1  0
 12 14  1  0
 12 13  1  1
 13  7  1  0
 14 23  1  0
 15 14  2  0
 16 17  1  0
 17 18  2  0
 17 27  1  0
 18 19  1  0
 19 20  2  0
 20 21  1  0
 22 21  1  6
 22 24  1  0
 23 22  1  0
 24 25  2  0
 24 28  1  0
 26 20  1  0
 27 26  2  0
M  END
$$$$
