MTY.pdb
     RDKit          3D

 28 28  0  0  1  0  0  0  0  0999 V2000
   14.9770  -14.2716  -17.3463 C   0  0  0  0  0  0  0  0  0  0  0  0
   16.0445  -14.3086  -18.7645 S   0  0  0  0  0  0  0  0  0  0  0  0
   17.7741  -14.1180  -18.5029 C   0  0  0  0  0  0  0  0  0  0  0  0
   18.2675  -13.1513  -17.5043 C   0  0  0  0  0  0  0  0  0  0  0  0
   19.7418  -13.0549  -17.2902 C   0  0  2  0  0  0  0  0  0  0  0  0
   20.3673  -14.3372  -17.1112 N   0  0  0  0  0  0  0  0  0  0  0  0
   20.0372  -12.1247  -16.1403 C   0  0  0  0  0  0  0  0  0  0  0  0
   19.8604  -12.4645  -14.9366 O   0  0  0  0  0  0  0  0  0  0  0  0
   23.2814  -10.1054  -15.5926 C   0  0  0  0  0  0  0  0  0  0  0  0
   22.1210   -9.1273  -15.6654 C   0  0  1  0  0  0  0  0  0  0  0  0
   22.1751   -8.4709  -16.8685 O   0  0  0  0  0  0  0  0  0  0  0  0
   20.8075   -9.8523  -15.4367 C   0  0  2  0  0  0  0  0  0  0  0  0
   20.5319  -10.8241  -16.4468 N   0  0  0  0  0  0  0  0  0  0  0  0
   19.7455   -8.8070  -15.3486 C   0  0  0  0  0  0  0  0  0  0  0  0
   18.9483   -8.5952  -16.3027 O   0  0  0  0  0  0  0  0  0  0  0  0
   14.7341  -11.4123  -11.2483 O   0  0  0  0  0  0  0  0  0  0  0  0
   15.4968  -10.3117  -11.6386 C   0  0  0  0  0  0  0  0  0  0  0  0
   15.1044   -9.4847  -12.6694 C   0  0  0  0  0  0  0  0  0  0  0  0
   15.9140   -8.4056  -13.0044 C   0  0  0  0  0  0  0  0  0  0  0  0
   17.0927   -8.1301  -12.3475 C   0  0  0  0  0  0  0  0  0  0  0  0
   17.9130   -7.0074  -12.7204 C   0  0  0  0  0  0  0  0  0  0  0  0
   18.4931   -6.9895  -14.0937 C   0  0  2  0  0  0  0  0  0  0  0  0
   19.5659   -7.9921  -14.1972 N   0  0  0  0  0  0  0  0  0  0  0  0
   19.0103   -5.6430  -14.4275 C   0  0  0  0  0  0  0  0  0  0  0  0
   18.1853   -4.6819  -14.5065 O   0  0  0  0  0  0  0  0  0  0  0  0
   17.4538   -8.9814  -11.3192 C   0  0  0  0  0  0  0  0  0  0  0  0
   16.6739  -10.0505  -10.9701 C   0  0  0  0  0  0  0  0  0  0  0  0
   20.3536   -5.3955  -14.6539 O   0  0  0  0  0  0  0  0  0  0  0  0
  1  2  1  0
  2  3  1  0
  3  4  1  0
  4  5  1  0
  5  6  1  1
  7  5  1  0
  8  7  2  0
 10  9  1  6
 10 12  1  0
 11 10  1  0
 12 14  1  0
 12 13  1  6
 13  7  1  0
 14 23  1  0
 15 14  2  0
 16 17  1  0
 17 18  2  0
 17 27  1  0
 18 19  1  0
 19 20  2  0
 20 21  1  0
 22 21  1  1
 22 24  1  0
 23 22  1  0
 24 25  2  0
 24 28  1  0
 26 20  1  0
 27 26  2  0
M  END
$$$$
