MTY.pdb
     RDKit          3D

 28 28  0  0  1  0  0  0  0  0999 V2000
   21.3849  -27.0992  -14.5367 C   0  0  0  0  0  0  0  0  0  0  0  0
   22.0076  -25.5103  -15.0265 S   0  0  0  0  0  0  0  0  0  0  0  0
   20.9780  -24.1055  -14.7759 C   0  0  0  0  0  0  0  0  0  0  0  0
   19.6109  -24.2767  -14.2498 C   0  0  0  0  0  0  0  0  0  0  0  0
   18.7545  -23.0615  -14.1136 C   0  0  2  0  0  0  0  0  0  0  0  0
   19.2653  -21.9313  -14.8413 N   0  0  0  0  0  0  0  0  0  0  0  0
   18.5449  -22.7378  -12.6555 C   0  0  0  0  0  0  0  0  0  0  0  0
   18.8483  -21.6141  -12.1647 O   0  0  0  0  0  0  0  0  0  0  0  0
   15.6471  -22.0216  -11.0008 C   0  0  0  0  0  0  0  0  0  0  0  0
   16.0850  -23.3145  -10.3336 C   0  0  1  0  0  0  0  0  0  0  0  0
   15.3606  -24.3504  -10.8660 O   0  0  0  0  0  0  0  0  0  0  0  0
   17.5850  -23.4971  -10.4751 C   0  0  2  0  0  0  0  0  0  0  0  0
   17.9841  -23.7493  -11.8233 N   0  0  0  0  0  0  0  0  0  0  0  0
   17.9760  -24.6016   -9.5503 C   0  0  0  0  0  0  0  0  0  0  0  0
   18.3711  -25.7173   -9.9861 O   0  0  0  0  0  0  0  0  0  0  0  0
   13.6512  -23.9772   -3.1444 O   0  0  0  0  0  0  0  0  0  0  0  0
   14.8567  -24.2549   -3.7885 C   0  0  0  0  0  0  0  0  0  0  0  0
   15.6662  -25.2996   -3.3962 C   0  0  0  0  0  0  0  0  0  0  0  0
   16.8540  -25.5183   -4.0842 C   0  0  0  0  0  0  0  0  0  0  0  0
   17.2543  -24.7325   -5.1420 C   0  0  0  0  0  0  0  0  0  0  0  0
   18.4930  -24.9806   -5.8325 C   0  0  0  0  0  0  0  0  0  0  0  0
   18.4247  -25.5130   -7.2235 C   0  0  2  0  0  0  0  0  0  0  0  0
   17.9289  -24.4693   -8.1353 N   0  0  0  0  0  0  0  0  0  0  0  0
   17.5546  -26.7092   -7.2854 C   0  0  0  0  0  0  0  0  0  0  0  0
   16.3635  -26.5686   -7.7005 O   0  0  0  0  0  0  0  0  0  0  0  0
   16.4169  -23.6943   -5.5071 C   0  0  0  0  0  0  0  0  0  0  0  0
   15.2421  -23.4584   -4.8457 C   0  0  0  0  0  0  0  0  0  0  0  0
   17.9908  -27.9686   -6.9105 O   0  0  0  0  0  0  0  0  0  0  0  0
  1  2  1  0
  2  3  1  0
  3  4  1  0
  4  5  1  0
  5  6  1  6
  7  5  1  0
  8  7  2  0
 10  9  1  6
 10 12  1  0
 11 10  1  0
 12 14  1  0
 12 13  1  6
 13  7  1  0
 14 23  1  0
 15 14  2  0
 16 17  1  0
 17 18  2  0
 17 27  1  0
 18 19  1  0
 19 20  2  0
 20 21  1  0
 22 21  1  1
 22 24  1  0
 23 22  1  0
 24 25  2  0
 24 28  1  0
 26 20  1  0
 27 26  2  0
M  END
$$$$
