MTY.pdb
     RDKit          3D

 28 28  0  0  1  0  0  0  0  0999 V2000
   27.3081  -26.9607  -19.7890 C   0  0  0  0  0  0  0  0  0  0  0  0
   26.9300  -25.8011  -18.4988 S   0  0  0  0  0  0  0  0  0  0  0  0
   28.2180  -25.3514  -17.3875 C   0  0  0  0  0  0  0  0  0  0  0  0
   28.0203  -24.2389  -16.4397 C   0  0  0  0  0  0  0  0  0  0  0  0
   28.2002  -22.8460  -16.9457 C   0  0  2  0  0  0  0  0  0  0  0  0
   29.5707  -22.5313  -17.2462 N   0  0  0  0  0  0  0  0  0  0  0  0
   27.6021  -21.8614  -15.9722 C   0  0  0  0  0  0  0  0  0  0  0  0
   28.1333  -21.6133  -14.8533 O   0  0  0  0  0  0  0  0  0  0  0  0
   27.2597  -18.3732  -15.8003 C   0  0  0  0  0  0  0  0  0  0  0  0
   25.8240  -18.8542  -15.9258 C   0  0  1  0  0  0  0  0  0  0  0  0
   25.4052  -18.6535  -17.2164 O   0  0  0  0  0  0  0  0  0  0  0  0
   25.7129  -20.2999  -15.4776 C   0  0  2  0  0  0  0  0  0  0  0  0
   26.3974  -21.2008  -16.3496 N   0  0  0  0  0  0  0  0  0  0  0  0
   24.2565  -20.6092  -15.3697 C   0  0  0  0  0  0  0  0  0  0  0  0
   23.6419  -21.2162  -16.2887 O   0  0  0  0  0  0  0  0  0  0  0  0
   16.0400  -21.0541  -11.8077 O   0  0  0  0  0  0  0  0  0  0  0  0
   17.3963  -20.8709  -12.0763 C   0  0  0  0  0  0  0  0  0  0  0  0
   17.8304  -20.0671  -13.1086 C   0  0  0  0  0  0  0  0  0  0  0  0
   19.1977  -19.9302  -13.3183 C   0  0  0  0  0  0  0  0  0  0  0  0
   20.1357  -20.5660  -12.5357 C   0  0  0  0  0  0  0  0  0  0  0  0
   21.5457  -20.4087  -12.7802 C   0  0  0  0  0  0  0  0  0  0  0  0
   22.0148  -20.4053  -14.1954 C   0  0  2  0  0  0  0  0  0  0  0  0
   23.4773  -20.2440  -14.2377 N   0  0  0  0  0  0  0  0  0  0  0  0
   21.3536  -19.3269  -14.9648 C   0  0  0  0  0  0  0  0  0  0  0  0
   21.8573  -18.1626  -14.9277 O   0  0  0  0  0  0  0  0  0  0  0  0
   19.6630  -21.3639  -11.5098 C   0  0  0  0  0  0  0  0  0  0  0  0
   18.3218  -21.5148  -11.2828 C   0  0  0  0  0  0  0  0  0  0  0  0
   20.2132  -19.5416  -15.7200 O   0  0  0  0  0  0  0  0  0  0  0  0
  1  2  1  0
  2  3  1  0
  3  4  1  0
  4  5  1  0
  5  6  1  1
  7  5  1  0
  8  7  2  0
 10  9  1  6
 10 12  1  0
 11 10  1  0
 12 14  1  0
 12 13  1  6
 13  7  1  0
 14 23  1  0
 15 14  2  0
 16 17  1  0
 17 18  2  0
 17 27  1  0
 18 19  1  0
 19 20  2  0
 20 21  1  0
 22 21  1  1
 22 24  1  0
 23 22  1  0
 24 25  2  0
 24 28  1  0
 26 20  1  0
 27 26  2  0
M  END
$$$$
