MTY.pdb
     RDKit          3D

 28 28  0  0  1  0  0  0  0  0999 V2000
   16.3165  -10.8965  -22.4368 C   0  0  0  0  0  0  0  0  0  0  0  0
   16.4990  -10.8277  -20.6721 S   0  0  0  0  0  0  0  0  0  0  0  0
   18.0248  -10.2414  -20.0207 C   0  0  0  0  0  0  0  0  0  0  0  0
   18.2152  -10.1426  -18.5615 C   0  0  0  0  0  0  0  0  0  0  0  0
   19.1631  -11.0955  -17.9118 C   0  0  2  0  0  0  0  0  0  0  0  0
   18.5987  -12.4038  -17.7190 N   0  0  0  0  0  0  0  0  0  0  0  0
   19.6760  -10.5130  -16.6185 C   0  0  0  0  0  0  0  0  0  0  0  0
   19.0939  -10.7079  -15.5144 O   0  0  0  0  0  0  0  0  0  0  0  0
   22.7535  -11.1405  -14.8566 C   0  0  0  0  0  0  0  0  0  0  0  0
   22.8216   -9.6619  -15.1995 C   0  0  1  0  0  0  0  0  0  0  0  0
   23.7052   -9.4917  -16.2346 O   0  0  0  0  0  0  0  0  0  0  0  0
   21.4335   -9.1282  -15.5025 C   0  0  2  0  0  0  0  0  0  0  0  0
   20.8586   -9.7199  -16.6687 N   0  0  0  0  0  0  0  0  0  0  0  0
   21.5556   -7.6451  -15.6187 C   0  0  0  0  0  0  0  0  0  0  0  0
   21.7740   -7.0867  -16.7283 O   0  0  0  0  0  0  0  0  0  0  0  0
   17.4649   -4.7728  -19.4664 O   0  0  0  0  0  0  0  0  0  0  0  0
   18.2061   -4.7045  -18.2869 C   0  0  0  0  0  0  0  0  0  0  0  0
   19.2915   -3.8645  -18.1586 C   0  0  0  0  0  0  0  0  0  0  0  0
   19.9840   -3.8481  -16.9534 C   0  0  0  0  0  0  0  0  0  0  0  0
   19.6288   -4.6381  -15.8827 C   0  0  0  0  0  0  0  0  0  0  0  0
   20.3685   -4.6029  -14.6481 C   0  0  0  0  0  0  0  0  0  0  0  0
   21.6711   -5.3261  -14.5915 C   0  0  2  0  0  0  0  0  0  0  0  0
   21.4351   -6.7761  -14.4996 N   0  0  0  0  0  0  0  0  0  0  0  0
   22.4803   -4.8605  -13.4425 C   0  0  0  0  0  0  0  0  0  0  0  0
   22.6778   -5.6622  -12.4787 O   0  0  0  0  0  0  0  0  0  0  0  0
   18.5350   -5.4679  -16.0483 C   0  0  0  0  0  0  0  0  0  0  0  0
   17.8365   -5.5022  -17.2249 C   0  0  0  0  0  0  0  0  0  0  0  0
   23.0275   -3.5900  -13.3821 O   0  0  0  0  0  0  0  0  0  0  0  0
  1  2  1  0
  2  3  1  0
  3  4  1  0
  4  5  1  0
  5  6  1  1
  7  5  1  0
  8  7  2  0
 10  9  1  6
 10 12  1  0
 11 10  1  0
 12 14  1  0
 12 13  1  6
 13  7  1  0
 14 23  1  0
 15 14  2  0
 16 17  1  0
 17 18  2  0
 17 27  1  0
 18 19  1  0
 19 20  2  0
 20 21  1  0
 22 21  1  1
 22 24  1  0
 23 22  1  0
 24 25  2  0
 24 28  1  0
 26 20  1  0
 27 26  2  0
M  END
$$$$
