MTY.pdb
     RDKit          3D

 28 28  0  0  1  0  0  0  0  0999 V2000
   17.8099  -16.0411  -16.3114 C   0  0  0  0  0  0  0  0  0  0  0  0
   18.2413  -15.7336  -18.0060 S   0  0  0  0  0  0  0  0  0  0  0  0
   19.0912  -14.2402  -18.3851 C   0  0  0  0  0  0  0  0  0  0  0  0
   18.8661  -13.0344  -17.5661 C   0  0  0  0  0  0  0  0  0  0  0  0
   19.6770  -11.8185  -17.8704 C   0  0  2  0  0  0  0  0  0  0  0  0
   20.9378  -12.1260  -18.4895 N   0  0  0  0  0  0  0  0  0  0  0  0
   19.8554  -10.9908  -16.6223 C   0  0  0  0  0  0  0  0  0  0  0  0
   18.8974  -10.7393  -15.8383 O   0  0  0  0  0  0  0  0  0  0  0  0
   23.7443  -10.6354  -15.0832 C   0  0  0  0  0  0  0  0  0  0  0  0
   22.4888  -10.3271  -14.2850 C   0  0  1  0  0  0  0  0  0  0  0  0
   22.8309   -9.5393  -13.2157 O   0  0  0  0  0  0  0  0  0  0  0  0
   21.4377   -9.6980  -15.1810 C   0  0  2  0  0  0  0  0  0  0  0  0
   21.1575  -10.4866  -16.3387 N   0  0  0  0  0  0  0  0  0  0  0  0
   21.9269   -8.3313  -15.5288 C   0  0  0  0  0  0  0  0  0  0  0  0
   22.8495   -8.1560  -16.3707 O   0  0  0  0  0  0  0  0  0  0  0  0
   18.8963   -6.4105  -20.9562 O   0  0  0  0  0  0  0  0  0  0  0  0
   19.3895   -6.0331  -19.7073 C   0  0  0  0  0  0  0  0  0  0  0  0
   20.3876   -5.0914  -19.5747 C   0  0  0  0  0  0  0  0  0  0  0  0
   20.8305   -4.7636  -18.2986 C   0  0  0  0  0  0  0  0  0  0  0  0
   20.3120   -5.3425  -17.1616 C   0  0  0  0  0  0  0  0  0  0  0  0
   20.7946   -4.9860  -15.8529 C   0  0  0  0  0  0  0  0  0  0  0  0
   21.8910   -5.8065  -15.2636 C   0  0  2  0  0  0  0  0  0  0  0  0
   21.3909   -7.1527  -14.9408 N   0  0  0  0  0  0  0  0  0  0  0  0
   22.4409   -5.1556  -14.0528 C   0  0  0  0  0  0  0  0  0  0  0  0
   22.3077   -5.7453  -12.9369 O   0  0  0  0  0  0  0  0  0  0  0  0
   19.3124   -6.2826  -17.3338 C   0  0  0  0  0  0  0  0  0  0  0  0
   18.8590   -6.6225  -18.5796 C   0  0  0  0  0  0  0  0  0  0  0  0
   23.0927   -3.9347  -14.0936 O   0  0  0  0  0  0  0  0  0  0  0  0
  1  2  1  0
  2  3  1  0
  3  4  1  0
  4  5  1  0
  5  6  1  1
  7  5  1  0
  8  7  2  0
 10  9  1  6
 10 12  1  0
 11 10  1  0
 12 14  1  0
 12 13  1  6
 13  7  1  0
 14 23  1  0
 15 14  2  0
 16 17  1  0
 17 18  2  0
 17 27  1  0
 18 19  1  0
 19 20  2  0
 20 21  1  0
 22 21  1  1
 22 24  1  0
 23 22  1  0
 24 25  2  0
 24 28  1  0
 26 20  1  0
 27 26  2  0
M  END
$$$$
