WSN.pdb
     RDKit          3D

 29 30  0  0  1  0  0  0  0  0999 V2000
   28.5242  -21.2372  -10.4829 N   0  0  0  0  0  0  0  0  0  0  0  0
   27.1237  -21.2336  -10.1050 C   0  0  1  0  0  0  0  0  0  0  0  0
   26.9105  -20.4271   -8.8439 C   0  0  0  0  0  0  0  0  0  0  0  0
   28.0365  -20.4586   -7.9108 C   0  0  0  0  0  0  0  0  0  0  0  0
   29.2924  -20.9583   -8.1829 C   0  0  0  0  0  0  0  0  0  0  0  0
   30.0672  -20.8238   -7.1068 N   0  0  0  0  0  0  0  0  0  0  0  0
   29.3981  -20.2526   -6.1046 C   0  0  0  0  0  0  0  0  0  0  0  0
   29.7665  -19.9120   -4.8176 C   0  0  0  0  0  0  0  0  0  0  0  0
   28.8040  -19.3215   -4.0271 C   0  0  0  0  0  0  0  0  0  0  0  0
   27.5142  -19.0805   -4.5121 C   0  0  0  0  0  0  0  0  0  0  0  0
   27.1704  -19.4299   -5.8021 C   0  0  0  0  0  0  0  0  0  0  0  0
   28.1189  -20.0151   -6.5902 C   0  0  0  0  0  0  0  0  0  0  0  0
   26.2858  -20.7265  -11.2177 C   0  0  0  0  0  0  0  0  0  0  0  0
   26.8358  -20.0411  -12.1074 O   0  0  0  0  0  0  0  0  0  0  0  0
   24.8611  -22.6701  -13.3000 O   0  0  0  0  0  0  0  0  0  0  0  0
   24.5490  -21.3749  -13.6209 C   0  0  0  0  0  0  0  0  0  0  0  0
   24.0552  -20.5781  -12.4130 C   0  0  2  0  0  0  0  0  0  0  0  0
   24.9058  -20.9827  -11.3117 N   0  0  0  0  0  0  0  0  0  0  0  0
   22.6540  -20.9581  -12.1769 C   0  0  0  0  0  0  0  0  0  0  0  0
   22.3138  -21.2878  -10.9897 O   0  0  0  0  0  0  0  0  0  0  0  0
   18.1965  -18.6838  -12.9514 N   0  0  0  0  0  0  0  0  0  0  0  0
   19.4363  -17.9736  -12.9306 C   0  0  0  0  0  0  0  0  0  0  0  0
   19.4895  -16.7383  -12.8160 O   0  0  0  0  0  0  0  0  0  0  0  0
   20.6957  -18.7441  -13.0509 C   0  0  0  0  0  0  0  0  0  0  0  0
   20.4073  -20.2350  -13.0516 C   0  0  2  0  0  0  0  0  0  0  0  0
   21.6394  -20.9917  -13.1546 N   0  0  0  0  0  0  0  0  0  0  0  0
   19.5820  -20.5270  -14.2439 C   0  0  0  0  0  0  0  0  0  0  0  0
   20.1362  -20.4296  -15.5255 O   0  0  0  0  0  0  0  0  0  0  0  0
   18.3597  -20.8713  -14.1504 O   0  0  0  0  0  0  0  0  0  0  0  0
  2  1  1  6
  2  3  1  0
  2 13  1  0
  3  4  1  0
  4 12  1  0
  5  4  2  0
  5  6  1  0
  6  7  1  0
  7  8  1  0
  8  9  2  0
 10  9  1  0
 11 10  2  0
 12  7  2  0
 12 11  1  0
 13 18  1  0
 13 14  2  0
 15 16  1  0
 17 16  1  6
 18 17  1  0
 19 17  1  0
 19 26  1  0
 20 19  2  0
 22 23  2  0
 22 21  1  0
 24 22  1  0
 25 27  1  0
 25 24  1  6
 25 26  1  0
 27 28  1  0
 29 27  2  0
M  END
$$$$
