WSN.pdb
     RDKit          3D

 29 30  0  0  1  0  0  0  0  0999 V2000
   28.7096  -22.2132  -10.4632 N   0  0  0  0  0  0  0  0  0  0  0  0
   27.5158  -21.4131  -10.2660 C   0  0  1  0  0  0  0  0  0  0  0  0
   27.8191  -20.1962   -9.4213 C   0  0  0  0  0  0  0  0  0  0  0  0
   27.2308  -20.2301   -8.0825 C   0  0  0  0  0  0  0  0  0  0  0  0
   25.9460  -20.6275   -7.7787 C   0  0  0  0  0  0  0  0  0  0  0  0
   25.7507  -20.5337   -6.4636 N   0  0  0  0  0  0  0  0  0  0  0  0
   26.8468  -20.0884   -5.8484 C   0  0  0  0  0  0  0  0  0  0  0  0
   27.1268  -19.8331   -4.5200 C   0  0  0  0  0  0  0  0  0  0  0  0
   28.3912  -19.3702   -4.2252 C   0  0  0  0  0  0  0  0  0  0  0  0
   29.3436  -19.1703   -5.2301 C   0  0  0  0  0  0  0  0  0  0  0  0
   29.0396  -19.4329   -6.5504 C   0  0  0  0  0  0  0  0  0  0  0  0
   27.7892  -19.8914   -6.8492 C   0  0  0  0  0  0  0  0  0  0  0  0
   26.9245  -21.0305  -11.5703 C   0  0  0  0  0  0  0  0  0  0  0  0
   27.6524  -20.4428  -12.4000 O   0  0  0  0  0  0  0  0  0  0  0  0
   23.9452  -23.1808  -13.0415 O   0  0  0  0  0  0  0  0  0  0  0  0
   24.7106  -22.3668  -13.8349 C   0  0  0  0  0  0  0  0  0  0  0  0
   24.9747  -21.0058  -13.1902 C   0  0  2  0  0  0  0  0  0  0  0  0
   25.5860  -21.2992  -11.9094 N   0  0  0  0  0  0  0  0  0  0  0  0
   23.6753  -20.3369  -13.0243 C   0  0  0  0  0  0  0  0  0  0  0  0
   23.0110  -20.5726  -11.9580 O   0  0  0  0  0  0  0  0  0  0  0  0
   19.5585  -16.4741  -15.6774 N   0  0  0  0  0  0  0  0  0  0  0  0
   20.2273  -17.1335  -14.6005 C   0  0  0  0  0  0  0  0  0  0  0  0
   19.8058  -17.0888  -13.4333 O   0  0  0  0  0  0  0  0  0  0  0  0
   21.4646  -17.8930  -14.8945 C   0  0  0  0  0  0  0  0  0  0  0  0
   21.7818  -18.8502  -13.7592 C   0  0  2  0  0  0  0  0  0  0  0  0
   23.0891  -19.4475  -13.9473 N   0  0  0  0  0  0  0  0  0  0  0  0
   20.7696  -19.9285  -13.7917 C   0  0  0  0  0  0  0  0  0  0  0  0
   20.9472  -21.0366  -14.6281 O   0  0  0  0  0  0  0  0  0  0  0  0
   19.7190  -19.8892  -13.0734 O   0  0  0  0  0  0  0  0  0  0  0  0
  2  1  1  6
  2  3  1  0
  2 13  1  0
  3  4  1  0
  4 12  1  0
  5  4  2  0
  5  6  1  0
  6  7  1  0
  7  8  1  0
  8  9  2  0
 10  9  1  0
 11 10  2  0
 12  7  2  0
 12 11  1  0
 13 18  1  0
 13 14  2  0
 15 16  1  0
 17 16  1  1
 18 17  1  0
 19 17  1  0
 19 26  1  0
 20 19  2  0
 22 23  2  0
 22 21  1  0
 24 22  1  0
 25 27  1  0
 25 24  1  6
 25 26  1  0
 27 28  1  0
 29 27  2  0
M  END
$$$$
