WSN.pdb
     RDKit          3D

 29 30  0  0  1  0  0  0  0  0999 V2000
   21.4421  -18.7021  -15.1269 N   0  0  0  0  0  0  0  0  0  0  0  0
   21.4162  -20.1083  -14.7716 C   0  0  1  0  0  0  0  0  0  0  0  0
   22.6844  -20.7985  -15.2206 C   0  0  0  0  0  0  0  0  0  0  0  0
   22.8438  -20.8816  -16.6722 C   0  0  0  0  0  0  0  0  0  0  0  0
   23.3831  -19.9024  -17.4792 C   0  0  0  0  0  0  0  0  0  0  0  0
   23.3749  -20.3159  -18.7463 N   0  0  0  0  0  0  0  0  0  0  0  0
   22.8525  -21.5388  -18.8463 C   0  0  0  0  0  0  0  0  0  0  0  0
   22.6365  -22.3703  -19.9280 C   0  0  0  0  0  0  0  0  0  0  0  0
   22.0640  -23.5971  -19.6694 C   0  0  0  0  0  0  0  0  0  0  0  0
   21.7196  -23.9773  -18.3679 C   0  0  0  0  0  0  0  0  0  0  0  0
   21.9456  -23.1287  -17.3035 C   0  0  0  0  0  0  0  0  0  0  0  0
   22.5122  -21.9122  -17.5528 C   0  0  0  0  0  0  0  0  0  0  0  0
   21.1995  -20.2728  -13.3144 C   0  0  0  0  0  0  0  0  0  0  0  0
   21.8836  -19.5768  -12.5325 O   0  0  0  0  0  0  0  0  0  0  0  0
   18.2891  -19.6919  -11.6500 O   0  0  0  0  0  0  0  0  0  0  0  0
   19.3696  -20.0578  -10.8907 C   0  0  0  0  0  0  0  0  0  0  0  0
   20.0003  -21.3665  -11.3672 C   0  0  2  0  0  0  0  0  0  0  0  0
   20.2623  -21.1752  -12.7796 N   0  0  0  0  0  0  0  0  0  0  0  0
   19.0166  -22.4370  -11.1438 C   0  0  0  0  0  0  0  0  0  0  0  0
   18.4540  -22.9577  -12.1667 O   0  0  0  0  0  0  0  0  0  0  0  0
   19.3875  -24.6392   -6.5623 N   0  0  0  0  0  0  0  0  0  0  0  0
   18.8635  -25.0068   -7.8398 C   0  0  0  0  0  0  0  0  0  0  0  0
   19.4572  -25.7908   -8.5980 O   0  0  0  0  0  0  0  0  0  0  0  0
   17.5685  -24.4283   -8.2670 C   0  0  0  0  0  0  0  0  0  0  0  0
   17.6377  -23.9869   -9.7182 C   0  0  2  0  0  0  0  0  0  0  0  0
   18.6337  -22.9472   -9.8871 N   0  0  0  0  0  0  0  0  0  0  0  0
   16.3162  -23.4262  -10.0752 C   0  0  0  0  0  0  0  0  0  0  0  0
   16.1547  -22.0441  -10.2265 O   0  0  0  0  0  0  0  0  0  0  0  0
   15.2958  -24.1662  -10.2548 O   0  0  0  0  0  0  0  0  0  0  0  0
  2  1  1  1
  2  3  1  0
  2 13  1  0
  3  4  1  0
  4 12  1  0
  5  4  2  0
  5  6  1  0
  6  7  1  0
  7  8  1  0
  8  9  2  0
 10  9  1  0
 11 10  2  0
 12  7  2  0
 12 11  1  0
 13 18  1  0
 13 14  2  0
 15 16  1  0
 17 16  1  6
 18 17  1  0
 19 17  1  0
 19 26  1  0
 20 19  2  0
 22 23  2  0
 22 21  1  0
 24 22  1  0
 25 27  1  0
 25 24  1  1
 25 26  1  0
 27 28  1  0
 29 27  2  0
M  END
$$$$
