WSN.pdb
     RDKit          3D

 29 30  0  0  1  0  0  0  0  0999 V2000
   15.1123  -14.5154    5.2398 N   0  0  0  0  0  0  0  0  0  0  0  0
   16.3106  -15.3242    5.3585 C   0  0  1  0  0  0  0  0  0  0  0  0
   17.4515  -14.5122    5.9288 C   0  0  0  0  0  0  0  0  0  0  0  0
   18.2160  -13.7637    4.9314 C   0  0  0  0  0  0  0  0  0  0  0  0
   18.4816  -12.4114    4.9707 C   0  0  0  0  0  0  0  0  0  0  0  0
   19.2039  -12.0688    3.9042 N   0  0  0  0  0  0  0  0  0  0  0  0
   19.4472  -13.1281    3.1316 C   0  0  0  0  0  0  0  0  0  0  0  0
   20.1392  -13.2722    1.9448 C   0  0  0  0  0  0  0  0  0  0  0  0
   20.1972  -14.5389    1.4045 C   0  0  0  0  0  0  0  0  0  0  0  0
   19.5813  -15.6255    2.0344 C   0  0  0  0  0  0  0  0  0  0  0  0
   18.8956  -15.4560    3.2199 C   0  0  0  0  0  0  0  0  0  0  0  0
   18.8342  -14.2041    3.7603 C   0  0  0  0  0  0  0  0  0  0  0  0
   16.0449  -16.5307    6.1777 C   0  0  0  0  0  0  0  0  0  0  0  0
   14.8634  -16.7730    6.5078 O   0  0  0  0  0  0  0  0  0  0  0  0
   15.8601  -20.8031    6.8328 O   0  0  0  0  0  0  0  0  0  0  0  0
   16.1250  -19.5645    6.3095 C   0  0  0  0  0  0  0  0  0  0  0  0
   16.8496  -18.6552    7.3024 C   0  0  2  0  0  0  0  0  0  0  0  0
   17.0620  -17.4074    6.5968 N   0  0  0  0  0  0  0  0  0  0  0  0
   18.1253  -19.3030    7.6437 C   0  0  0  0  0  0  0  0  0  0  0  0
   18.9346  -19.5727    6.6918 O   0  0  0  0  0  0  0  0  0  0  0  0
   23.0884  -18.2937   10.2875 N   0  0  0  0  0  0  0  0  0  0  0  0
   22.1374  -19.2914    9.9106 C   0  0  0  0  0  0  0  0  0  0  0  0
   22.4502  -20.4852    9.7726 O   0  0  0  0  0  0  0  0  0  0  0  0
   20.7337  -18.8796    9.6780 C   0  0  0  0  0  0  0  0  0  0  0  0
   19.8927  -20.0734    9.2619 C   0  0  2  0  0  0  0  0  0  0  0  0
   18.5412  -19.6575    8.9429 N   0  0  0  0  0  0  0  0  0  0  0  0
   19.8339  -20.9985   10.4146 C   0  0  0  0  0  0  0  0  0  0  0  0
   20.6234  -22.1541   10.4317 O   0  0  0  0  0  0  0  0  0  0  0  0
   19.0771  -20.7817   11.4155 O   0  0  0  0  0  0  0  0  0  0  0  0
  2  1  1  1
  2  3  1  0
  2 13  1  0
  3  4  1  0
  4 12  1  0
  5  4  2  0
  5  6  1  0
  6  7  1  0
  7  8  1  0
  8  9  2  0
 10  9  1  0
 11 10  2  0
 12  7  2  0
 12 11  1  0
 13 18  1  0
 13 14  2  0
 15 16  1  0
 17 16  1  6
 18 17  1  0
 19 17  1  0
 19 26  1  0
 20 19  2  0
 22 23  2  0
 22 21  1  0
 24 22  1  0
 25 27  1  0
 25 24  1  1
 25 26  1  0
 27 28  1  0
 29 27  2  0
M  END
$$$$
