WSN.pdb
     RDKit          3D

 29 30  0  0  1  0  0  0  0  0999 V2000
   26.4637  -22.4953  -13.0970 N   0  0  0  0  0  0  0  0  0  0  0  0
   25.6454  -21.6259  -12.2732 C   0  0  1  0  0  0  0  0  0  0  0  0
   26.3536  -20.3167  -12.0070 C   0  0  0  0  0  0  0  0  0  0  0  0
   27.4589  -20.4124  -11.0537 C   0  0  0  0  0  0  0  0  0  0  0  0
   28.7931  -20.5334  -11.3793 C   0  0  0  0  0  0  0  0  0  0  0  0
   29.5197  -20.5921  -10.2634 N   0  0  0  0  0  0  0  0  0  0  0  0
   28.7422  -20.5168   -9.1826 C   0  0  0  0  0  0  0  0  0  0  0  0
   29.0271  -20.5342   -7.8311 C   0  0  0  0  0  0  0  0  0  0  0  0
   27.9593  -20.4337   -6.9655 C   0  0  0  0  0  0  0  0  0  0  0  0
   26.6484  -20.3193   -7.4402 C   0  0  0  0  0  0  0  0  0  0  0  0
   26.3894  -20.3041   -8.7956 C   0  0  0  0  0  0  0  0  0  0  0  0
   27.4424  -20.4034   -9.6583 C   0  0  0  0  0  0  0  0  0  0  0  0
   24.3224  -21.4049  -12.9043 C   0  0  0  0  0  0  0  0  0  0  0  0
   24.2679  -21.3253  -14.1511 O   0  0  0  0  0  0  0  0  0  0  0  0
   21.0776  -20.1586  -10.6585 O   0  0  0  0  0  0  0  0  0  0  0  0
   20.8515  -21.1888  -11.5334 C   0  0  0  0  0  0  0  0  0  0  0  0
   21.8056  -21.1589  -12.7278 C   0  0  2  0  0  0  0  0  0  0  0  0
   23.1341  -21.2808  -12.1619 N   0  0  0  0  0  0  0  0  0  0  0  0
   21.6264  -19.8644  -13.4030 C   0  0  0  0  0  0  0  0  0  0  0  0
   22.0363  -18.8130  -12.8028 O   0  0  0  0  0  0  0  0  0  0  0  0
   23.5258  -19.3445  -17.1429 N   0  0  0  0  0  0  0  0  0  0  0  0
   22.7666  -18.2133  -16.7117 C   0  0  0  0  0  0  0  0  0  0  0  0
   23.3041  -17.1496  -16.3631 O   0  0  0  0  0  0  0  0  0  0  0  0
   21.2896  -18.3215  -16.6818 C   0  0  0  0  0  0  0  0  0  0  0  0
   20.7904  -18.3709  -15.2486 C   0  0  2  0  0  0  0  0  0  0  0  0
   21.0358  -19.6767  -14.6689 N   0  0  0  0  0  0  0  0  0  0  0  0
   19.3290  -18.1440  -15.2795 C   0  0  0  0  0  0  0  0  0  0  0  0
   18.4525  -19.1319  -14.8161 O   0  0  0  0  0  0  0  0  0  0  0  0
   18.8237  -17.0616  -15.7206 O   0  0  0  0  0  0  0  0  0  0  0  0
  2  1  1  6
  2  3  1  0
  2 13  1  0
  3  4  1  0
  4 12  1  0
  5  4  2  0
  5  6  1  0
  6  7  1  0
  7  8  1  0
  8  9  2  0
 10  9  1  0
 11 10  2  0
 12  7  2  0
 12 11  1  0
 13 18  1  0
 13 14  2  0
 15 16  1  0
 17 16  1  1
 18 17  1  0
 19 17  1  0
 19 26  1  0
 20 19  2  0
 22 23  2  0
 22 21  1  0
 24 22  1  0
 25 27  1  0
 25 24  1  6
 25 26  1  0
 27 28  1  0
 29 27  2  0
M  END
$$$$
