WSN.pdb
     RDKit          3D

 29 30  0  0  1  0  0  0  0  0999 V2000
   29.0824  -20.1924  -15.6229 N   0  0  0  0  0  0  0  0  0  0  0  0
   27.9390  -19.6663  -14.9017 C   0  0  1  0  0  0  0  0  0  0  0  0
   26.9255  -19.0792  -15.8580 C   0  0  0  0  0  0  0  0  0  0  0  0
   27.3801  -17.8757  -16.5539 C   0  0  0  0  0  0  0  0  0  0  0  0
   27.7383  -17.8025  -17.8833 C   0  0  0  0  0  0  0  0  0  0  0  0
   28.0980  -16.5536  -18.1789 N   0  0  0  0  0  0  0  0  0  0  0  0
   28.0029  -15.7631  -17.1091 C   0  0  0  0  0  0  0  0  0  0  0  0
   28.2597  -14.4188  -16.9225 C   0  0  0  0  0  0  0  0  0  0  0  0
   28.0497  -13.9115  -15.6583 C   0  0  0  0  0  0  0  0  0  0  0  0
   27.5967  -14.7264  -14.6153 C   0  0  0  0  0  0  0  0  0  0  0  0
   27.3470  -16.0670  -14.8270 C   0  0  0  0  0  0  0  0  0  0  0  0
   27.5530  -16.5757  -16.0767 C   0  0  0  0  0  0  0  0  0  0  0  0
   27.3320  -20.7173  -14.0507 C   0  0  0  0  0  0  0  0  0  0  0  0
   27.2924  -21.8864  -14.4926 O   0  0  0  0  0  0  0  0  0  0  0  0
   25.4189  -19.4682  -10.5887 O   0  0  0  0  0  0  0  0  0  0  0  0
   25.8496  -20.7686  -10.6281 C   0  0  0  0  0  0  0  0  0  0  0  0
   25.8960  -21.3241  -12.0518 C   0  0  2  0  0  0  0  0  0  0  0  0
   26.8012  -20.4537  -12.7749 N   0  0  0  0  0  0  0  0  0  0  0  0
   24.5320  -21.2529  -12.5976 C   0  0  0  0  0  0  0  0  0  0  0  0
   24.2036  -20.2084  -13.2572 O   0  0  0  0  0  0  0  0  0  0  0  0
   23.3133  -25.3776  -14.3103 N   0  0  0  0  0  0  0  0  0  0  0  0
   22.6472  -24.1383  -14.5598 C   0  0  0  0  0  0  0  0  0  0  0  0
   22.7726  -23.5235  -15.6313 O   0  0  0  0  0  0  0  0  0  0  0  0
   21.7804  -23.5744  -13.4992 C   0  0  0  0  0  0  0  0  0  0  0  0
   22.2507  -22.1830  -13.1138 C   0  0  2  0  0  0  0  0  0  0  0  0
   23.5415  -22.2458  -12.4572 N   0  0  0  0  0  0  0  0  0  0  0  0
   21.2683  -21.6321  -12.1548 C   0  0  0  0  0  0  0  0  0  0  0  0
   19.9391  -21.4318  -12.5447 O   0  0  0  0  0  0  0  0  0  0  0  0
   21.5895  -21.3256  -10.9614 O   0  0  0  0  0  0  0  0  0  0  0  0
  2  1  1  6
  2  3  1  0
  2 13  1  0
  3  4  1  0
  4 12  1  0
  5  4  2  0
  5  6  1  0
  6  7  1  0
  7  8  1  0
  8  9  2  0
 10  9  1  0
 11 10  2  0
 12  7  2  0
 12 11  1  0
 13 18  1  0
 13 14  2  0
 15 16  1  0
 17 16  1  1
 18 17  1  0
 19 17  1  0
 19 26  1  0
 20 19  2  0
 22 23  2  0
 22 21  1  0
 24 22  1  0
 25 27  1  0
 25 24  1  1
 25 26  1  0
 27 28  1  0
 29 27  2  0
M  END
$$$$
