WSN.pdb
     RDKit          3D

 29 30  0  0  1  0  0  0  0  0999 V2000
   28.0393  -20.7681  -15.7037 N   0  0  0  0  0  0  0  0  0  0  0  0
   27.7065  -20.1845  -14.4180 C   0  0  1  0  0  0  0  0  0  0  0  0
   26.9999  -18.8598  -14.5970 C   0  0  0  0  0  0  0  0  0  0  0  0
   27.5696  -18.0092  -15.6417 C   0  0  0  0  0  0  0  0  0  0  0  0
   28.1995  -18.4528  -16.7851 C   0  0  0  0  0  0  0  0  0  0  0  0
   28.5910  -17.4063  -17.5118 N   0  0  0  0  0  0  0  0  0  0  0  0
   28.2575  -16.2602  -16.9172 C   0  0  0  0  0  0  0  0  0  0  0  0
   28.4448  -14.9395  -17.2760 C   0  0  0  0  0  0  0  0  0  0  0  0
   27.9632  -13.9818  -16.4098 C   0  0  0  0  0  0  0  0  0  0  0  0
   27.3146  -14.3374  -15.2224 C   0  0  0  0  0  0  0  0  0  0  0  0
   27.1395  -15.6643  -14.8861 C   0  0  0  0  0  0  0  0  0  0  0  0
   27.6142  -16.6178  -15.7395 C   0  0  0  0  0  0  0  0  0  0  0  0
   26.8914  -21.1264  -13.6144 C   0  0  0  0  0  0  0  0  0  0  0  0
   26.4085  -22.1278  -14.1870 O   0  0  0  0  0  0  0  0  0  0  0  0
   25.6777  -19.7159   -9.8460 O   0  0  0  0  0  0  0  0  0  0  0  0
   25.7101  -21.0679  -10.0677 C   0  0  0  0  0  0  0  0  0  0  0  0
   25.4717  -21.4236  -11.5355 C   0  0  2  0  0  0  0  0  0  0  0  0
   26.6400  -20.9395  -12.2431 N   0  0  0  0  0  0  0  0  0  0  0  0
   24.2533  -20.7215  -11.9671 C   0  0  0  0  0  0  0  0  0  0  0  0
   24.3889  -19.6490  -12.6492 O   0  0  0  0  0  0  0  0  0  0  0  0
   19.5647  -19.5242  -13.5006 N   0  0  0  0  0  0  0  0  0  0  0  0
   20.5415  -20.0894  -14.3772 C   0  0  0  0  0  0  0  0  0  0  0  0
   20.3919  -20.1092  -15.6098 O   0  0  0  0  0  0  0  0  0  0  0  0
   21.7704  -20.6696  -13.7879 C   0  0  0  0  0  0  0  0  0  0  0  0
   21.7654  -20.5016  -12.2788 C   0  0  2  0  0  0  0  0  0  0  0  0
   22.9327  -21.1302  -11.6928 N   0  0  0  0  0  0  0  0  0  0  0  0
   20.5604  -21.1849  -11.7600 C   0  0  0  0  0  0  0  0  0  0  0  0
   19.4292  -20.4430  -11.4010 O   0  0  0  0  0  0  0  0  0  0  0  0
   20.5085  -22.4499  -11.6236 O   0  0  0  0  0  0  0  0  0  0  0  0
  2  1  1  6
  2  3  1  0
  2 13  1  0
  3  4  1  0
  4 12  1  0
  5  4  2  0
  5  6  1  0
  6  7  1  0
  7  8  1  0
  8  9  2  0
 10  9  1  0
 11 10  2  0
 12  7  2  0
 12 11  1  0
 13 18  1  0
 13 14  2  0
 15 16  1  0
 17 16  1  1
 18 17  1  0
 19 17  1  0
 19 26  1  0
 20 19  2  0
 22 23  2  0
 22 21  1  0
 24 22  1  0
 25 27  1  0
 25 24  1  6
 25 26  1  0
 27 28  1  0
 29 27  2  0
M  END
$$$$
