WSN.pdb
     RDKit          3D

 29 30  0  0  1  0  0  0  0  0999 V2000
   26.4377  -19.1268  -11.1792 N   0  0  0  0  0  0  0  0  0  0  0  0
   26.5318  -20.4955  -11.6505 C   0  0  1  0  0  0  0  0  0  0  0  0
   26.3362  -21.4698  -10.5109 C   0  0  0  0  0  0  0  0  0  0  0  0
   26.6590  -20.9268   -9.1917 C   0  0  0  0  0  0  0  0  0  0  0  0
   25.7562  -20.3808   -8.3041 C   0  0  0  0  0  0  0  0  0  0  0  0
   26.3965  -19.9898   -7.2024 N   0  0  0  0  0  0  0  0  0  0  0  0
   27.7026  -20.2433   -7.2936 C   0  0  0  0  0  0  0  0  0  0  0  0
   28.7535  -20.0243   -6.4243 C   0  0  0  0  0  0  0  0  0  0  0  0
   30.0056  -20.4177   -6.8452 C   0  0  0  0  0  0  0  0  0  0  0  0
   30.1971  -21.0117   -8.0972 C   0  0  0  0  0  0  0  0  0  0  0  0
   29.1307  -21.2200   -8.9480 C   0  0  0  0  0  0  0  0  0  0  0  0
   27.8881  -20.8326   -8.5373 C   0  0  0  0  0  0  0  0  0  0  0  0
   25.5576  -20.7384  -12.7411 C   0  0  0  0  0  0  0  0  0  0  0  0
   24.3768  -20.3622  -12.5739 O   0  0  0  0  0  0  0  0  0  0  0  0
   26.8253  -23.1505  -15.4755 O   0  0  0  0  0  0  0  0  0  0  0  0
   25.8076  -22.4424  -16.0592 C   0  0  0  0  0  0  0  0  0  0  0  0
   24.9931  -21.6452  -15.0400 C   0  0  2  0  0  0  0  0  0  0  0  0
   25.9056  -21.3719  -13.9478 N   0  0  0  0  0  0  0  0  0  0  0  0
   23.8754  -22.4969  -14.6056 C   0  0  0  0  0  0  0  0  0  0  0  0
   24.0389  -23.2141  -13.5602 O   0  0  0  0  0  0  0  0  0  0  0  0
   18.8895  -20.3048  -13.8550 N   0  0  0  0  0  0  0  0  0  0  0  0
   19.9907  -20.9174  -13.1811 C   0  0  0  0  0  0  0  0  0  0  0  0
   19.9063  -21.3258  -12.0114 O   0  0  0  0  0  0  0  0  0  0  0  0
   21.2723  -21.0659  -13.9087 C   0  0  0  0  0  0  0  0  0  0  0  0
   21.3595  -22.4372  -14.5550 C   0  0  2  0  0  0  0  0  0  0  0  0
   22.6239  -22.5945  -15.2463 N   0  0  0  0  0  0  0  0  0  0  0  0
   20.2707  -22.5282  -15.5520 C   0  0  0  0  0  0  0  0  0  0  0  0
   19.1727  -23.3652  -15.3220 O   0  0  0  0  0  0  0  0  0  0  0  0
   20.2914  -21.8608  -16.6362 O   0  0  0  0  0  0  0  0  0  0  0  0
  2  1  1  1
  2  3  1  0
  2 13  1  0
  3  4  1  0
  4 12  1  0
  5  4  2  0
  5  6  1  0
  6  7  1  0
  7  8  1  0
  8  9  2  0
 10  9  1  0
 11 10  2  0
 12  7  2  0
 12 11  1  0
 13 18  1  0
 13 14  2  0
 15 16  1  0
 17 16  1  6
 18 17  1  0
 19 17  1  0
 19 26  1  0
 20 19  2  0
 22 23  2  0
 22 21  1  0
 24 22  1  0
 25 27  1  0
 25 24  1  6
 25 26  1  0
 27 28  1  0
 29 27  2  0
M  END
$$$$
