WSN.pdb
     RDKit          3D

 29 30  0  0  1  0  0  0  0  0999 V2000
   27.7476  -21.5848  -13.7634 N   0  0  0  0  0  0  0  0  0  0  0  0
   26.6386  -21.9060  -12.8854 C   0  0  1  0  0  0  0  0  0  0  0  0
   26.4595  -20.8346  -11.8335 C   0  0  0  0  0  0  0  0  0  0  0  0
   27.5613  -20.7399  -10.8762 C   0  0  0  0  0  0  0  0  0  0  0  0
   28.9030  -20.7261  -11.1933 C   0  0  0  0  0  0  0  0  0  0  0  0
   29.6231  -20.6280  -10.0760 N   0  0  0  0  0  0  0  0  0  0  0  0
   28.8341  -20.5738   -9.0023 C   0  0  0  0  0  0  0  0  0  0  0  0
   29.1091  -20.4707   -7.6526 C   0  0  0  0  0  0  0  0  0  0  0  0
   28.0304  -20.4390   -6.7952 C   0  0  0  0  0  0  0  0  0  0  0  0
   26.7186  -20.5082   -7.2763 C   0  0  0  0  0  0  0  0  0  0  0  0
   26.4697  -20.6107   -8.6298 C   0  0  0  0  0  0  0  0  0  0  0  0
   27.5335  -20.6427   -9.4843 C   0  0  0  0  0  0  0  0  0  0  0  0
   25.3959  -22.1061  -13.6685 C   0  0  0  0  0  0  0  0  0  0  0  0
   24.9540  -21.1432  -14.3327 O   0  0  0  0  0  0  0  0  0  0  0  0
   22.3079  -25.5583  -15.2229 O   0  0  0  0  0  0  0  0  0  0  0  0
   23.3753  -25.1294  -14.4782 C   0  0  0  0  0  0  0  0  0  0  0  0
   23.5401  -23.6098  -14.5174 C   0  0  2  0  0  0  0  0  0  0  0  0
   24.6980  -23.3272  -13.6932 N   0  0  0  0  0  0  0  0  0  0  0  0
   22.3191  -23.0190  -13.9486 C   0  0  0  0  0  0  0  0  0  0  0  0
   22.1353  -23.1194  -12.6876 O   0  0  0  0  0  0  0  0  0  0  0  0
   21.3804  -18.6883  -15.3644 N   0  0  0  0  0  0  0  0  0  0  0  0
   20.6559  -19.3875  -14.3504 C   0  0  0  0  0  0  0  0  0  0  0  0
   20.7667  -19.1075  -13.1457 O   0  0  0  0  0  0  0  0  0  0  0  0
   19.7449  -20.4819  -14.7581 C   0  0  0  0  0  0  0  0  0  0  0  0
   20.1321  -21.7787  -14.0695 C   0  0  2  0  0  0  0  0  0  0  0  0
   21.3204  -22.3431  -14.6783 N   0  0  0  0  0  0  0  0  0  0  0  0
   19.0166  -22.7317  -14.2578 C   0  0  0  0  0  0  0  0  0  0  0  0
   19.1801  -23.8549  -15.0768 O   0  0  0  0  0  0  0  0  0  0  0  0
   17.8875  -22.5686  -13.6924 O   0  0  0  0  0  0  0  0  0  0  0  0
  2  1  1  6
  2  3  1  0
  2 13  1  0
  3  4  1  0
  4 12  1  0
  5  4  2  0
  5  6  1  0
  6  7  1  0
  7  8  1  0
  8  9  2  0
 10  9  1  0
 11 10  2  0
 12  7  2  0
 12 11  1  0
 13 18  1  0
 13 14  2  0
 15 16  1  0
 17 16  1  1
 18 17  1  0
 19 17  1  0
 19 26  1  0
 20 19  2  0
 22 23  2  0
 22 21  1  0
 24 22  1  0
 25 27  1  0
 25 24  1  6
 25 26  1  0
 27 28  1  0
 29 27  2  0
M  END
$$$$
