WSN.pdb
     RDKit          3D

 29 30  0  0  1  0  0  0  0  0999 V2000
   -6.6021    5.8323  -60.4758 N   0  0  0  0  0  0  0  0  0  0  0  0
   -7.6055    6.2669  -59.5228 C   0  0  1  0  0  0  0  0  0  0  0  0
   -6.9781    7.0926  -58.4223 C   0  0  0  0  0  0  0  0  0  0  0  0
   -6.3594    6.3051  -57.3562 C   0  0  0  0  0  0  0  0  0  0  0  0
   -5.3217    6.7201  -56.5489 C   0  0  0  0  0  0  0  0  0  0  0  0
   -5.0131    5.7507  -55.6877 N   0  0  0  0  0  0  0  0  0  0  0  0
   -5.7945    4.6852  -55.8677 C   0  0  0  0  0  0  0  0  0  0  0  0
   -5.8553    3.4606  -55.2316 C   0  0  0  0  0  0  0  0  0  0  0  0
   -6.8062    2.5693  -55.6802 C   0  0  0  0  0  0  0  0  0  0  0  0
   -7.6681    2.8961  -56.7325 C   0  0  0  0  0  0  0  0  0  0  0  0
   -7.5878    4.1266  -57.3520 C   0  0  0  0  0  0  0  0  0  0  0  0
   -6.6482    5.0139  -56.9126 C   0  0  0  0  0  0  0  0  0  0  0  0
   -8.6857    7.0148  -60.2093 C   0  0  0  0  0  0  0  0  0  0  0  0
   -8.3786    8.0470  -60.8449 O   0  0  0  0  0  0  0  0  0  0  0  0
  -11.8730    4.2275  -58.8865 O   0  0  0  0  0  0  0  0  0  0  0  0
  -10.5864    4.4905  -59.2784 C   0  0  0  0  0  0  0  0  0  0  0  0
  -10.5260    5.3089  -60.5684 C   0  0  2  0  0  0  0  0  0  0  0  0
  -10.0334    6.6133  -60.1736 N   0  0  0  0  0  0  0  0  0  0  0  0
  -11.8938    5.3908  -61.1031 C   0  0  0  0  0  0  0  0  0  0  0  0
  -12.4637    4.3043  -61.4618 O   0  0  0  0  0  0  0  0  0  0  0  0
  -11.5532    8.0776  -64.8442 N   0  0  0  0  0  0  0  0  0  0  0  0
  -12.1566    7.6698  -63.6147 C   0  0  0  0  0  0  0  0  0  0  0  0
  -12.6517    6.5412  -63.4629 O   0  0  0  0  0  0  0  0  0  0  0  0
  -12.1894    8.6318  -62.4888 C   0  0  0  0  0  0  0  0  0  0  0  0
  -12.0655    7.9013  -61.1634 C   0  0  2  0  0  0  0  0  0  0  0  0
  -12.6426    6.5749  -61.2573 N   0  0  0  0  0  0  0  0  0  0  0  0
  -12.8317    8.6710  -60.1591 C   0  0  0  0  0  0  0  0  0  0  0  0
  -13.9075    8.0784  -59.4878 O   0  0  0  0  0  0  0  0  0  0  0  0
  -12.5463    9.8785  -59.8733 O   0  0  0  0  0  0  0  0  0  0  0  0
  2  1  1  6
  2  3  1  0
  2 13  1  0
  3  4  1  0
  4 12  1  0
  5  4  2  0
  5  6  1  0
  6  7  1  0
  7  8  1  0
  8  9  2  0
 10  9  1  0
 11 10  2  0
 12  7  2  0
 12 11  1  0
 13 18  1  0
 13 14  2  0
 15 16  1  0
 17 16  1  1
 18 17  1  0
 19 17  1  0
 19 26  1  0
 20 19  2  0
 22 23  2  0
 22 21  1  0
 24 22  1  0
 25 27  1  0
 25 24  1  6
 25 26  1  0
 27 28  1  0
 29 27  2  0
M  END
$$$$
