WSN.pdb
     RDKit          3D

 29 30  0  0  1  0  0  0  0  0999 V2000
   28.4728  -21.5954  -11.2156 N   0  0  0  0  0  0  0  0  0  0  0  0
   27.1411  -21.2976  -10.7236 C   0  0  1  0  0  0  0  0  0  0  0  0
   27.1760  -20.1453   -9.7453 C   0  0  0  0  0  0  0  0  0  0  0  0
   28.0882  -20.3388   -8.6184 C   0  0  0  0  0  0  0  0  0  0  0  0
   29.4157  -20.6996   -8.7115 C   0  0  0  0  0  0  0  0  0  0  0  0
   29.9408  -20.7823   -7.4892 N   0  0  0  0  0  0  0  0  0  0  0  0
   29.0310  -20.4939   -6.5578 C   0  0  0  0  0  0  0  0  0  0  0  0
   29.0974  -20.4454   -5.1790 C   0  0  0  0  0  0  0  0  0  0  0  0
   27.9425  -20.1032   -4.5089 C   0  0  0  0  0  0  0  0  0  0  0  0
   26.7598  -19.8187   -5.1997 C   0  0  0  0  0  0  0  0  0  0  0  0
   26.7189  -19.8738   -6.5780 C   0  0  0  0  0  0  0  0  0  0  0  0
   27.8591  -20.2122   -7.2476 C   0  0  0  0  0  0  0  0  0  0  0  0
   26.2198  -21.0202  -11.8513 C   0  0  0  0  0  0  0  0  0  0  0  0
   26.4796  -20.0557  -12.6036 O   0  0  0  0  0  0  0  0  0  0  0  0
   23.9699  -23.9887  -13.1637 O   0  0  0  0  0  0  0  0  0  0  0  0
   24.1470  -22.9045  -13.9828 C   0  0  0  0  0  0  0  0  0  0  0  0
   24.1556  -21.5854  -13.2098 C   0  0  2  0  0  0  0  0  0  0  0  0
   25.0721  -21.7923  -12.1064 N   0  0  0  0  0  0  0  0  0  0  0  0
   22.7854  -21.3454  -12.7319 C   0  0  0  0  0  0  0  0  0  0  0  0
   22.4334  -21.8809  -11.6259 O   0  0  0  0  0  0  0  0  0  0  0  0
   18.9469  -23.8528  -15.2080 N   0  0  0  0  0  0  0  0  0  0  0  0
   19.1912  -22.5298  -14.7265 C   0  0  0  0  0  0  0  0  0  0  0  0
   18.6213  -21.5357  -15.2049 O   0  0  0  0  0  0  0  0  0  0  0  0
   20.1586  -22.3466  -13.6198 C   0  0  0  0  0  0  0  0  0  0  0  0
   20.3953  -20.8691  -13.3615 C   0  0  2  0  0  0  0  0  0  0  0  0
   21.8129  -20.5678  -13.3922 N   0  0  0  0  0  0  0  0  0  0  0  0
   19.8860  -20.5684  -12.0057 C   0  0  0  0  0  0  0  0  0  0  0  0
   20.7775  -20.3907  -10.9414 O   0  0  0  0  0  0  0  0  0  0  0  0
   18.6410  -20.4618  -11.7611 O   0  0  0  0  0  0  0  0  0  0  0  0
  2  1  1  6
  2  3  1  0
  2 13  1  0
  3  4  1  0
  4 12  1  0
  5  4  2  0
  5  6  1  0
  6  7  1  0
  7  8  1  0
  8  9  2  0
 10  9  1  0
 11 10  2  0
 12  7  2  0
 12 11  1  0
 13 18  1  0
 13 14  2  0
 15 16  1  0
 17 16  1  6
 18 17  1  0
 19 17  1  0
 19 26  1  0
 20 19  2  0
 22 23  2  0
 22 21  1  0
 24 22  1  0
 25 27  1  0
 25 24  1  1
 25 26  1  0
 27 28  1  0
 29 27  2  0
M  END
$$$$
