WSN.pdb
     RDKit          3D

 29 30  0  0  1  0  0  0  0  0999 V2000
   24.1395  -11.0197  -17.4117 N   0  0  0  0  0  0  0  0  0  0  0  0
   23.3658   -9.9494  -18.0117 C   0  0  1  0  0  0  0  0  0  0  0  0
   21.9089  -10.3384  -18.1239 C   0  0  0  0  0  0  0  0  0  0  0  0
   21.6637  -11.5267  -18.9408 C   0  0  0  0  0  0  0  0  0  0  0  0
   21.3322  -12.7767  -18.4627 C   0  0  0  0  0  0  0  0  0  0  0  0
   21.1805  -13.6181  -19.4853 N   0  0  0  0  0  0  0  0  0  0  0  0
   21.3936  -13.0005  -20.6478 C   0  0  0  0  0  0  0  0  0  0  0  0
   21.3538  -13.4439  -21.9554 C   0  0  0  0  0  0  0  0  0  0  0  0
   21.6322  -12.5187  -22.9383 C   0  0  0  0  0  0  0  0  0  0  0  0
   21.9402  -11.1918  -22.6197 C   0  0  0  0  0  0  0  0  0  0  0  0
   21.9735  -10.7729  -21.3053 C   0  0  0  0  0  0  0  0  0  0  0  0
   21.6989  -11.6843  -20.3270 C   0  0  0  0  0  0  0  0  0  0  0  0
   23.5309   -8.6933  -17.2421 C   0  0  0  0  0  0  0  0  0  0  0  0
   23.4640   -8.7508  -15.9948 O   0  0  0  0  0  0  0  0  0  0  0  0
   24.0429   -5.1439  -19.3187 O   0  0  0  0  0  0  0  0  0  0  0  0
   24.7149   -5.2984  -18.1344 C   0  0  0  0  0  0  0  0  0  0  0  0
   23.9641   -6.1973  -17.1515 C   0  0  2  0  0  0  0  0  0  0  0  0
   23.7573   -7.4474  -17.8546 N   0  0  0  0  0  0  0  0  0  0  0  0
   22.6864   -5.5389  -16.8394 C   0  0  0  0  0  0  0  0  0  0  0  0
   21.7648   -5.5677  -17.7247 O   0  0  0  0  0  0  0  0  0  0  0  0
   19.4954   -6.2751  -16.0269 N   0  0  0  0  0  0  0  0  0  0  0  0
   19.5844   -5.9852  -14.6304 C   0  0  0  0  0  0  0  0  0  0  0  0
   18.9918   -6.6626  -13.7749 O   0  0  0  0  0  0  0  0  0  0  0  0
   20.4126   -4.8361  -14.1973 C   0  0  0  0  0  0  0  0  0  0  0  0
   21.1161   -4.2104  -15.3886 C   0  0  2  0  0  0  0  0  0  0  0  0
   22.3826   -4.8707  -15.6362 N   0  0  0  0  0  0  0  0  0  0  0  0
   21.3881   -2.7961  -15.0510 C   0  0  0  0  0  0  0  0  0  0  0  0
   20.3292   -1.8993  -14.8674 O   0  0  0  0  0  0  0  0  0  0  0  0
   22.5733   -2.3505  -14.9173 O   0  0  0  0  0  0  0  0  0  0  0  0
  2  1  1  1
  2  3  1  0
  2 13  1  0
  3  4  1  0
  4 12  1  0
  5  4  2  0
  5  6  1  0
  6  7  1  0
  7  8  1  0
  8  9  2  0
 10  9  1  0
 11 10  2  0
 12  7  2  0
 12 11  1  0
 13 18  1  0
 13 14  2  0
 15 16  1  0
 17 16  1  6
 18 17  1  0
 19 17  1  0
 19 26  1  0
 20 19  2  0
 22 23  2  0
 22 21  1  0
 24 22  1  0
 25 27  1  0
 25 24  1  1
 25 26  1  0
 27 28  1  0
 29 27  2  0
M  END
$$$$
