WSN.pdb
     RDKit          3D

 29 30  0  0  1  0  0  0  0  0999 V2000
   24.4074  -19.3906   -9.1242 N   0  0  0  0  0  0  0  0  0  0  0  0
   25.7147  -19.8112   -9.5912 C   0  0  1  0  0  0  0  0  0  0  0  0
   26.1988  -21.0163   -8.8168 C   0  0  0  0  0  0  0  0  0  0  0  0
   26.3634  -20.7844   -7.3820 C   0  0  0  0  0  0  0  0  0  0  0  0
   25.4405  -21.0958   -6.4062 C   0  0  0  0  0  0  0  0  0  0  0  0
   25.9215  -20.7494   -5.2124 N   0  0  0  0  0  0  0  0  0  0  0  0
   27.1370  -20.2124   -5.3246 C   0  0  0  0  0  0  0  0  0  0  0  0
   28.0210  -19.7126   -4.3882 C   0  0  0  0  0  0  0  0  0  0  0  0
   29.2200  -19.2223   -4.8592 C   0  0  0  0  0  0  0  0  0  0  0  0
   29.5222  -19.2334   -6.2250 C   0  0  0  0  0  0  0  0  0  0  0  0
   28.6223  -19.7384   -7.1412 C   0  0  0  0  0  0  0  0  0  0  0  0
   27.4330  -20.2254   -6.6813 C   0  0  0  0  0  0  0  0  0  0  0  0
   25.6843  -20.0828  -11.0482 C   0  0  0  0  0  0  0  0  0  0  0  0
   24.5933  -20.4059  -11.5668 O   0  0  0  0  0  0  0  0  0  0  0  0
   29.1141  -20.8322  -13.5409 O   0  0  0  0  0  0  0  0  0  0  0  0
   28.2605  -19.7784  -13.7383 C   0  0  0  0  0  0  0  0  0  0  0  0
   26.8285  -20.1003  -13.3101 C   0  0  2  0  0  0  0  0  0  0  0  0
   26.8261  -19.9935  -11.8649 N   0  0  0  0  0  0  0  0  0  0  0  0
   26.5358  -21.4739  -13.7474 C   0  0  0  0  0  0  0  0  0  0  0  0
   26.8616  -22.4337  -12.9687 O   0  0  0  0  0  0  0  0  0  0  0  0
   24.1469  -25.9617  -14.4756 N   0  0  0  0  0  0  0  0  0  0  0  0
   23.8347  -24.9106  -15.3920 C   0  0  0  0  0  0  0  0  0  0  0  0
   23.3062  -25.1290  -16.4943 O   0  0  0  0  0  0  0  0  0  0  0  0
   24.1563  -23.5169  -15.0071 C   0  0  0  0  0  0  0  0  0  0  0  0
   25.6064  -23.1995  -15.3267 C   0  0  2  0  0  0  0  0  0  0  0  0
   25.9200  -21.8316  -14.9637 N   0  0  0  0  0  0  0  0  0  0  0  0
   25.7806  -23.3435  -16.7886 C   0  0  0  0  0  0  0  0  0  0  0  0
   26.1652  -24.5736  -17.3346 O   0  0  0  0  0  0  0  0  0  0  0  0
   25.5905  -22.3721  -17.5894 O   0  0  0  0  0  0  0  0  0  0  0  0
  2  1  1  1
  2  3  1  0
  2 13  1  0
  3  4  1  0
  4 12  1  0
  5  4  2  0
  5  6  1  0
  6  7  1  0
  7  8  1  0
  8  9  2  0
 10  9  1  0
 11 10  2  0
 12  7  2  0
 12 11  1  0
 13 18  1  0
 13 14  2  0
 15 16  1  0
 17 16  1  1
 18 17  1  0
 19 17  1  0
 19 26  1  0
 20 19  2  0
 22 23  2  0
 22 21  1  0
 24 22  1  0
 25 27  1  0
 25 24  1  6
 25 26  1  0
 27 28  1  0
 29 27  2  0
M  END
$$$$
