WFD.pdb
     RDKit          3D

 34 36  0  0  1  0  0  0  0  0999 V2000
    7.0297  -18.7401   20.4929 N   0  0  0  0  0  0  0  0  0  0  0  0
    6.9108  -18.8991   21.8989 C   0  0  1  0  0  0  0  0  0  0  0  0
    7.5415  -20.0943   22.5030 C   0  0  0  0  0  0  0  0  0  0  0  0
    6.8454  -21.3737   22.3232 C   0  0  0  0  0  0  0  0  0  0  0  0
    7.0151  -22.2747   21.2665 C   0  0  0  0  0  0  0  0  0  0  0  0
    6.2001  -23.3067   21.5035 N   0  0  0  0  0  0  0  0  0  0  0  0
    5.5165  -23.1139   22.6574 C   0  0  0  0  0  0  0  0  0  0  0  0
    4.5743  -23.8755   23.3134 C   0  0  0  0  0  0  0  0  0  0  0  0
    4.0018  -23.4699   24.4915 C   0  0  0  0  0  0  0  0  0  0  0  0
    4.4027  -22.2544   25.0124 C   0  0  0  0  0  0  0  0  0  0  0  0
    5.3349  -21.4747   24.3862 C   0  0  0  0  0  0  0  0  0  0  0  0
    5.9128  -21.8826   23.2000 C   0  0  0  0  0  0  0  0  0  0  0  0
    7.4892  -17.7027   22.5768 C   0  0  0  0  0  0  0  0  0  0  0  0
    8.5201  -17.1938   22.0816 O   0  0  0  0  0  0  0  0  0  0  0  0
    6.9314  -17.1328   23.7301 N   0  0  0  0  0  0  0  0  0  0  0  0
    7.4961  -16.0196   24.4346 C   0  0  1  0  0  0  0  0  0  0  0  0
    6.4658  -15.2223   25.1924 C   0  0  0  0  0  0  0  0  0  0  0  0
    6.9961  -14.0753   25.9173 C   0  0  0  0  0  0  0  0  0  0  0  0
    7.1071  -14.1058   27.2875 C   0  0  0  0  0  0  0  0  0  0  0  0
    7.6140  -13.0118   27.9955 C   0  0  0  0  0  0  0  0  0  0  0  0
    8.0207  -11.8647   27.3516 C   0  0  0  0  0  0  0  0  0  0  0  0
    7.9085  -11.8345   25.9699 C   0  0  0  0  0  0  0  0  0  0  0  0
    7.4138  -12.9079   25.3061 C   0  0  0  0  0  0  0  0  0  0  0  0
    8.6008  -16.3849   25.3172 C   0  0  0  0  0  0  0  0  0  0  0  0
    8.3810  -17.2433   26.2203 O   0  0  0  0  0  0  0  0  0  0  0  0
    9.9249  -15.8629   25.2647 N   0  0  0  0  0  0  0  0  0  0  0  0
   10.9920  -16.3742   26.1008 C   0  0  1  0  0  0  0  0  0  0  0  0
   12.3659  -15.9510   25.6022 C   0  0  0  0  0  0  0  0  0  0  0  0
   12.6256  -16.4760   24.2470 C   0  0  0  0  0  0  0  0  0  0  0  0
   12.2327  -17.6347   23.9606 O   0  0  0  0  0  0  0  0  0  0  0  0
   10.8256  -15.7393   27.4543 C   0  0  0  0  0  0  0  0  0  0  0  0
    9.8879  -14.9184   27.6530 O   0  0  0  0  0  0  0  0  0  0  0  0
   13.2850  -15.7638   23.2528 O   0  0  0  0  0  0  0  0  0  0  0  0
   11.7008  -16.0586   28.4738 O   0  0  0  0  0  0  0  0  0  0  0  0
  2  1  1  6
  2  3  1  0
  4  5  2  0
  4  3  1  0
  6  5  1  0
  7 12  2  0
  7  6  1  0
  8  7  1  0
  9  8  2  0
  9 10  1  0
 10 11  2  0
 11 12  1  0
 12  4  1  0
 13 14  2  0
 13  2  1  0
 15 13  1  0
 16 24  1  0
 16 15  1  0
 16 17  1  1
 18 17  1  0
 19 18  2  0
 20 19  1  0
 21 22  1  0
 21 20  2  0
 22 23  2  0
 23 18  1  0
 24 26  1  0
 25 24  2  0
 26 27  1  0
 27 31  1  0
 27 28  1  6
 29 28  1  0
 30 29  2  0
 31 32  2  0
 31 34  1  0
 33 29  1  0
M  END
$$$$
