WFD.pdb
     RDKit          3D

 34 36  0  0  1  0  0  0  0  0999 V2000
   10.7366  -16.5591   21.3899 N   0  0  0  0  0  0  0  0  0  0  0  0
    9.5474  -16.1713   22.0619 C   0  0  1  0  0  0  0  0  0  0  0  0
    8.2651  -16.6690   21.5150 C   0  0  0  0  0  0  0  0  0  0  0  0
    7.4630  -15.7184   20.7358 C   0  0  0  0  0  0  0  0  0  0  0  0
    6.2272  -15.9695   20.1300 C   0  0  0  0  0  0  0  0  0  0  0  0
    5.8483  -14.8327   19.5388 N   0  0  0  0  0  0  0  0  0  0  0  0
    6.7772  -13.8659   19.7341 C   0  0  0  0  0  0  0  0  0  0  0  0
    6.8444  -12.5511   19.3278 C   0  0  0  0  0  0  0  0  0  0  0  0
    7.9064  -11.7440   19.6456 C   0  0  0  0  0  0  0  0  0  0  0  0
    8.9261  -12.2951   20.3979 C   0  0  0  0  0  0  0  0  0  0  0  0
    8.8902  -13.5961   20.8164 C   0  0  0  0  0  0  0  0  0  0  0  0
    7.8207  -14.4097   20.4977 C   0  0  0  0  0  0  0  0  0  0  0  0
    9.6234  -16.6135   23.4847 C   0  0  0  0  0  0  0  0  0  0  0  0
   10.6901  -17.1392   23.8753 O   0  0  0  0  0  0  0  0  0  0  0  0
    8.5627  -16.4648   24.3895 N   0  0  0  0  0  0  0  0  0  0  0  0
    8.7140  -16.4458   25.8146 C   0  0  1  0  0  0  0  0  0  0  0  0
    7.5514  -15.7943   26.5186 C   0  0  0  0  0  0  0  0  0  0  0  0
    7.4887  -14.3456   26.3778 C   0  0  0  0  0  0  0  0  0  0  0  0
    6.4221  -13.7512   25.7456 C   0  0  0  0  0  0  0  0  0  0  0  0
    6.3497  -12.3621   25.6034 C   0  0  0  0  0  0  0  0  0  0  0  0
    7.3394  -11.5371   26.0887 C   0  0  0  0  0  0  0  0  0  0  0  0
    8.4146  -12.1371   26.7262 C   0  0  0  0  0  0  0  0  0  0  0  0
    8.4622  -13.4861   26.8515 C   0  0  0  0  0  0  0  0  0  0  0  0
    8.9814  -17.7600   26.3925 C   0  0  0  0  0  0  0  0  0  0  0  0
    7.9957  -18.5171   26.6290 O   0  0  0  0  0  0  0  0  0  0  0  0
   10.2628  -18.2861   26.7243 N   0  0  0  0  0  0  0  0  0  0  0  0
   10.4444  -19.6465   27.1881 C   0  0  1  0  0  0  0  0  0  0  0  0
   11.6770  -20.3010   26.5817 C   0  0  0  0  0  0  0  0  0  0  0  0
   12.7668  -19.3211   26.4031 C   0  0  0  0  0  0  0  0  0  0  0  0
   12.8313  -18.6766   25.3263 O   0  0  0  0  0  0  0  0  0  0  0  0
   10.6982  -19.5706   28.6689 C   0  0  0  0  0  0  0  0  0  0  0  0
   10.9117  -20.6269   29.3255 O   0  0  0  0  0  0  0  0  0  0  0  0
   13.7396  -19.0605   27.3602 O   0  0  0  0  0  0  0  0  0  0  0  0
   10.6963  -18.3437   29.3029 O   0  0  0  0  0  0  0  0  0  0  0  0
  2  1  1  6
  2  3  1  0
  4  5  2  0
  4  3  1  0
  6  5  1  0
  7 12  2  0
  7  6  1  0
  8  7  1  0
  9  8  2  0
  9 10  1  0
 10 11  2  0
 11 12  1  0
 12  4  1  0
 13 14  2  0
 13  2  1  0
 15 13  1  0
 16 24  1  0
 16 15  1  0
 16 17  1  1
 18 17  1  0
 19 18  2  0
 20 19  1  0
 21 22  1  0
 21 20  2  0
 22 23  2  0
 23 18  1  0
 24 26  1  0
 25 24  2  0
 26 27  1  0
 27 31  1  0
 27 28  1  6
 29 28  1  0
 30 29  2  0
 31 32  2  0
 31 34  1  0
 33 29  1  0
M  END
$$$$
