WFD.pdb
     RDKit          3D

 34 36  0  0  1  0  0  0  0  0999 V2000
    7.0554  -15.5888   21.3046 N   0  0  0  0  0  0  0  0  0  0  0  0
    8.4436  -15.2943   21.3514 C   0  0  1  0  0  0  0  0  0  0  0  0
    8.8965  -14.0497   20.6902 C   0  0  0  0  0  0  0  0  0  0  0  0
    8.2833  -13.7250   19.3970 C   0  0  0  0  0  0  0  0  0  0  0  0
    7.4454  -12.6394   19.1200 C   0  0  0  0  0  0  0  0  0  0  0  0
    7.1273  -12.7170   17.8246 N   0  0  0  0  0  0  0  0  0  0  0  0
    7.7177  -13.7963   17.2568 C   0  0  0  0  0  0  0  0  0  0  0  0
    7.6932  -14.2965   15.9732 C   0  0  0  0  0  0  0  0  0  0  0  0
    8.3782  -15.4307   15.6204 C   0  0  0  0  0  0  0  0  0  0  0  0
    9.1070  -16.0702   16.6049 C   0  0  0  0  0  0  0  0  0  0  0  0
    9.1517  -15.6002   17.8879 C   0  0  0  0  0  0  0  0  0  0  0  0
    8.4628  -14.4574   18.2443 C   0  0  0  0  0  0  0  0  0  0  0  0
    8.8805  -15.2233   22.7760 C   0  0  0  0  0  0  0  0  0  0  0  0
    9.6953  -14.3269   23.0917 O   0  0  0  0  0  0  0  0  0  0  0  0
    8.4206  -16.1077   23.7620 N   0  0  0  0  0  0  0  0  0  0  0  0
    8.8281  -16.0680   25.1356 C   0  0  1  0  0  0  0  0  0  0  0  0
    7.6767  -15.8450   26.0821 C   0  0  0  0  0  0  0  0  0  0  0  0
    7.3221  -14.4475   26.2910 C   0  0  0  0  0  0  0  0  0  0  0  0
    8.1785  -13.6018   26.9558 C   0  0  0  0  0  0  0  0  0  0  0  0
    7.8503  -12.2585   27.1633 C   0  0  0  0  0  0  0  0  0  0  0  0
    6.6613  -11.7309   26.7121 C   0  0  0  0  0  0  0  0  0  0  0  0
    5.7981  -12.5842   26.0418 C   0  0  0  0  0  0  0  0  0  0  0  0
    6.1388  -13.8827   25.8532 C   0  0  0  0  0  0  0  0  0  0  0  0
    9.6034  -17.2342   25.5501 C   0  0  0  0  0  0  0  0  0  0  0  0
    9.0983  -18.3795   25.3663 O   0  0  0  0  0  0  0  0  0  0  0  0
   10.8939  -17.2133   26.1525 N   0  0  0  0  0  0  0  0  0  0  0  0
   11.5709  -18.4229   26.5738 C   0  0  1  0  0  0  0  0  0  0  0  0
   13.0851  -18.2789   26.5308 C   0  0  0  0  0  0  0  0  0  0  0  0
   13.5613  -18.0723   25.1487 C   0  0  0  0  0  0  0  0  0  0  0  0
   12.7305  -18.1247   24.2074 O   0  0  0  0  0  0  0  0  0  0  0  0
   11.2133  -18.6403   28.0187 C   0  0  0  0  0  0  0  0  0  0  0  0
   10.5413  -17.7700   28.6381 O   0  0  0  0  0  0  0  0  0  0  0  0
   14.8863  -17.8200   24.8148 O   0  0  0  0  0  0  0  0  0  0  0  0
   11.6227  -19.7925   28.6606 O   0  0  0  0  0  0  0  0  0  0  0  0
  2  1  1  1
  2  3  1  0
  4  5  2  0
  4  3  1  0
  6  5  1  0
  7 12  2  0
  7  6  1  0
  8  7  1  0
  9  8  2  0
  9 10  1  0
 10 11  2  0
 11 12  1  0
 12  4  1  0
 13 14  2  0
 13  2  1  0
 15 13  1  0
 16 24  1  0
 16 15  1  0
 16 17  1  1
 18 17  1  0
 19 18  2  0
 20 19  1  0
 21 22  1  0
 21 20  2  0
 22 23  2  0
 23 18  1  0
 24 26  1  0
 25 24  2  0
 26 27  1  0
 27 31  1  0
 27 28  1  1
 29 28  1  0
 30 29  2  0
 31 32  2  0
 31 34  1  0
 33 29  1  0
M  END
$$$$
