WFD.pdb
     RDKit          3D

 34 36  0  0  1  0  0  0  0  0999 V2000
    9.3561  -19.3405   21.4644 N   0  0  0  0  0  0  0  0  0  0  0  0
    9.3595  -17.9478   21.1878 C   0  0  1  0  0  0  0  0  0  0  0  0
    8.4518  -17.4647   20.1230 C   0  0  0  0  0  0  0  0  0  0  0  0
    8.6844  -16.1058   19.6195 C   0  0  0  0  0  0  0  0  0  0  0  0
    9.5586  -15.7350   18.5921 C   0  0  0  0  0  0  0  0  0  0  0  0
    9.4497  -14.4108   18.4508 N   0  0  0  0  0  0  0  0  0  0  0  0
    8.5512  -13.9134   19.3346 C   0  0  0  0  0  0  0  0  0  0  0  0
    8.1032  -12.6334   19.5780 C   0  0  0  0  0  0  0  0  0  0  0  0
    7.1726  -12.3595   20.5471 C   0  0  0  0  0  0  0  0  0  0  0  0
    6.6875  -13.4212   21.2865 C   0  0  0  0  0  0  0  0  0  0  0  0
    7.1114  -14.7028   21.0703 C   0  0  0  0  0  0  0  0  0  0  0  0
    8.0481  -14.9801   20.0940 C   0  0  0  0  0  0  0  0  0  0  0  0
    9.0179  -17.2012   22.4334 C   0  0  0  0  0  0  0  0  0  0  0  0
    8.0583  -17.6200   23.1193 O   0  0  0  0  0  0  0  0  0  0  0  0
    9.7199  -16.0652   22.8610 N   0  0  0  0  0  0  0  0  0  0  0  0
    9.4310  -15.3435   24.0651 C   0  0  1  0  0  0  0  0  0  0  0  0
    8.0978  -14.6420   24.0221 C   0  0  0  0  0  0  0  0  0  0  0  0
    7.8427  -13.7499   25.1453 C   0  0  0  0  0  0  0  0  0  0  0  0
    6.5840  -13.6567   25.6909 C   0  0  0  0  0  0  0  0  0  0  0  0
    6.3255  -12.8043   26.7686 C   0  0  0  0  0  0  0  0  0  0  0  0
    7.3169  -12.0272   27.3246 C   0  0  0  0  0  0  0  0  0  0  0  0
    8.5859  -12.1217   26.7740 C   0  0  0  0  0  0  0  0  0  0  0  0
    8.8115  -12.9553   25.7291 C   0  0  0  0  0  0  0  0  0  0  0  0
    9.5346  -16.1565   25.2739 C   0  0  0  0  0  0  0  0  0  0  0  0
    9.6694  -15.5601   26.3815 O   0  0  0  0  0  0  0  0  0  0  0  0
    9.4997  -17.5791   25.3342 N   0  0  0  0  0  0  0  0  0  0  0  0
    9.6041  -18.3035   26.5845 C   0  0  1  0  0  0  0  0  0  0  0  0
    9.0451  -19.7148   26.4797 C   0  0  0  0  0  0  0  0  0  0  0  0
    7.5688  -19.7049   26.4878 C   0  0  0  0  0  0  0  0  0  0  0  0
    6.9725  -18.7555   27.0553 O   0  0  0  0  0  0  0  0  0  0  0  0
   11.0718  -18.4567   26.8767 C   0  0  0  0  0  0  0  0  0  0  0  0
   11.9247  -17.9549   26.0935 O   0  0  0  0  0  0  0  0  0  0  0  0
    6.7837  -20.6896   25.9010 O   0  0  0  0  0  0  0  0  0  0  0  0
   11.4787  -19.1463   28.0019 O   0  0  0  0  0  0  0  0  0  0  0  0
  2  1  1  1
  2  3  1  0
  4  5  2  0
  4  3  1  0
  6  5  1  0
  7 12  2  0
  7  6  1  0
  8  7  1  0
  9  8  2  0
  9 10  1  0
 10 11  2  0
 11 12  1  0
 12  4  1  0
 13 14  2  0
 13  2  1  0
 15 13  1  0
 16 24  1  0
 16 15  1  0
 16 17  1  6
 18 17  1  0
 19 18  2  0
 20 19  1  0
 21 22  1  0
 21 20  2  0
 22 23  2  0
 23 18  1  0
 24 26  1  0
 25 24  2  0
 26 27  1  0
 27 31  1  0
 27 28  1  6
 29 28  1  0
 30 29  2  0
 31 32  2  0
 31 34  1  0
 33 29  1  0
M  END
$$$$
