WFD.pdb
     RDKit          3D

 34 36  0  0  1  0  0  0  0  0999 V2000
   10.9826  -17.0853   21.7369 N   0  0  0  0  0  0  0  0  0  0  0  0
    9.9556  -16.3328   22.3655 C   0  0  1  0  0  0  0  0  0  0  0  0
    8.5682  -16.8306   22.2289 C   0  0  0  0  0  0  0  0  0  0  0  0
    7.6128  -15.9519   21.5441 C   0  0  0  0  0  0  0  0  0  0  0  0
    6.2581  -16.2125   21.3115 C   0  0  0  0  0  0  0  0  0  0  0  0
    5.7637  -15.1481   20.6729 N   0  0  0  0  0  0  0  0  0  0  0  0
    6.7312  -14.2187   20.4837 C   0  0  0  0  0  0  0  0  0  0  0  0
    6.7189  -12.9785   19.8837 C   0  0  0  0  0  0  0  0  0  0  0  0
    7.8432  -12.1978   19.8020 C   0  0  0  0  0  0  0  0  0  0  0  0
    9.0102  -12.6977   20.3475 C   0  0  0  0  0  0  0  0  0  0  0  0
    9.0562  -13.9244   20.9494 C   0  0  0  0  0  0  0  0  0  0  0  0
    7.9242  -14.7113   21.0330 C   0  0  0  0  0  0  0  0  0  0  0  0
   10.2477  -16.2306   23.8248 C   0  0  0  0  0  0  0  0  0  0  0  0
   11.4372  -16.3630   24.1917 O   0  0  0  0  0  0  0  0  0  0  0  0
    9.2570  -15.9944   24.7885 N   0  0  0  0  0  0  0  0  0  0  0  0
    9.5074  -15.8955   26.1963 C   0  0  1  0  0  0  0  0  0  0  0  0
    8.3116  -15.4042   26.9710 C   0  0  0  0  0  0  0  0  0  0  0  0
    7.7812  -14.1230   26.5242 C   0  0  0  0  0  0  0  0  0  0  0  0
    8.4396  -12.9530   26.8212 C   0  0  0  0  0  0  0  0  0  0  0  0
    7.9413  -11.7168   26.3989 C   0  0  0  0  0  0  0  0  0  0  0  0
    6.7761  -11.6217   25.6717 C   0  0  0  0  0  0  0  0  0  0  0  0
    6.1125  -12.8019   25.3725 C   0  0  0  0  0  0  0  0  0  0  0  0
    6.6157  -13.9883   25.7934 C   0  0  0  0  0  0  0  0  0  0  0  0
   10.0198  -17.1286   26.7877 C   0  0  0  0  0  0  0  0  0  0  0  0
   10.1059  -17.1921   28.0483 O   0  0  0  0  0  0  0  0  0  0  0  0
   10.4415  -18.2884   26.0766 N   0  0  0  0  0  0  0  0  0  0  0  0
   11.0231  -19.4358   26.7431 C   0  0  1  0  0  0  0  0  0  0  0  0
   11.2915  -20.5842   25.7815 C   0  0  0  0  0  0  0  0  0  0  0  0
   10.0329  -21.1152   25.2217 C   0  0  0  0  0  0  0  0  0  0  0  0
    8.9761  -21.0009   25.8917 O   0  0  0  0  0  0  0  0  0  0  0  0
   12.3673  -19.0024   27.2609 C   0  0  0  0  0  0  0  0  0  0  0  0
   13.1136  -18.2790   26.5451 O   0  0  0  0  0  0  0  0  0  0  0  0
    9.9380  -21.7419   23.9852 O   0  0  0  0  0  0  0  0  0  0  0  0
   12.7782  -19.3987   28.5184 O   0  0  0  0  0  0  0  0  0  0  0  0
  2  1  1  6
  2  3  1  0
  4  5  2  0
  4  3  1  0
  6  5  1  0
  7 12  2  0
  7  6  1  0
  8  7  1  0
  9  8  2  0
  9 10  1  0
 10 11  2  0
 11 12  1  0
 12  4  1  0
 13 14  2  0
 13  2  1  0
 15 13  1  0
 16 24  1  0
 16 15  1  0
 16 17  1  1
 18 17  1  0
 19 18  2  0
 20 19  1  0
 21 22  1  0
 21 20  2  0
 22 23  2  0
 23 18  1  0
 24 26  1  0
 25 24  2  0
 26 27  1  0
 27 31  1  0
 27 28  1  6
 29 28  1  0
 30 29  2  0
 31 32  2  0
 31 34  1  0
 33 29  1  0
M  END
$$$$
