WFD.pdb
     RDKit          3D

 34 36  0  0  1  0  0  0  0  0999 V2000
    7.4297  -17.9231   21.7942 N   0  0  0  0  0  0  0  0  0  0  0  0
    7.7277  -16.5386   21.6920 C   0  0  1  0  0  0  0  0  0  0  0  0
    6.5845  -15.6026   21.6027 C   0  0  0  0  0  0  0  0  0  0  0  0
    6.8931  -14.1698   21.6794 C   0  0  0  0  0  0  0  0  0  0  0  0
    7.2657  -13.3385   20.6176 C   0  0  0  0  0  0  0  0  0  0  0  0
    7.4384  -12.1152   21.1265 N   0  0  0  0  0  0  0  0  0  0  0  0
    7.1961  -12.1191   22.4596 C   0  0  0  0  0  0  0  0  0  0  0  0
    7.2429  -11.1246   23.4119 C   0  0  0  0  0  0  0  0  0  0  0  0
    6.9563  -11.3653   24.7310 C   0  0  0  0  0  0  0  0  0  0  0  0
    6.6131  -12.6560   25.0859 C   0  0  0  0  0  0  0  0  0  0  0  0
    6.5578  -13.6654   24.1656 C   0  0  0  0  0  0  0  0  0  0  0  0
    6.8455  -13.4240   22.8365 C   0  0  0  0  0  0  0  0  0  0  0  0
    8.5465  -16.1266   22.8691 C   0  0  0  0  0  0  0  0  0  0  0  0
    9.1270  -15.0189   22.8162 O   0  0  0  0  0  0  0  0  0  0  0  0
    8.6889  -16.9194   24.0168 N   0  0  0  0  0  0  0  0  0  0  0  0
    9.5473  -16.5977   25.1186 C   0  0  1  0  0  0  0  0  0  0  0  0
    8.8031  -16.4686   26.4229 C   0  0  0  0  0  0  0  0  0  0  0  0
    9.4784  -15.6637   27.4321 C   0  0  0  0  0  0  0  0  0  0  0  0
    9.5569  -14.2975   27.2977 C   0  0  0  0  0  0  0  0  0  0  0  0
   10.2023  -13.5133   28.2587 C   0  0  0  0  0  0  0  0  0  0  0  0
   10.7829  -14.0754   29.3735 C   0  0  0  0  0  0  0  0  0  0  0  0
   10.7034  -15.4531   29.5084 C   0  0  0  0  0  0  0  0  0  0  0  0
   10.0724  -16.1918   28.5630 C   0  0  0  0  0  0  0  0  0  0  0  0
   10.6744  -17.5141   25.2695 C   0  0  0  0  0  0  0  0  0  0  0  0
   10.4239  -18.7460   25.4117 O   0  0  0  0  0  0  0  0  0  0  0  0
   12.0529  -17.1556   25.2740 N   0  0  0  0  0  0  0  0  0  0  0  0
   13.1096  -18.1450   25.3305 C   0  0  1  0  0  0  0  0  0  0  0  0
   14.4406  -17.5932   24.8412 C   0  0  0  0  0  0  0  0  0  0  0  0
   14.3188  -17.0396   23.4781 C   0  0  0  0  0  0  0  0  0  0  0  0
   13.7100  -17.7077   22.6051 O   0  0  0  0  0  0  0  0  0  0  0  0
   13.3078  -18.4866   26.7820 C   0  0  0  0  0  0  0  0  0  0  0  0
   14.1621  -19.3545   27.1130 O   0  0  0  0  0  0  0  0  0  0  0  0
   14.8400  -15.8113   23.0907 O   0  0  0  0  0  0  0  0  0  0  0  0
   12.5530  -17.8477   27.7461 O   0  0  0  0  0  0  0  0  0  0  0  0
  2  1  1  1
  2  3  1  0
  4  5  2  0
  4  3  1  0
  6  5  1  0
  7 12  2  0
  7  6  1  0
  8  7  1  0
  9  8  2  0
  9 10  1  0
 10 11  2  0
 11 12  1  0
 12  4  1  0
 13 14  2  0
 13  2  1  0
 15 13  1  0
 16 24  1  0
 16 15  1  0
 16 17  1  1
 18 17  1  0
 19 18  2  0
 20 19  1  0
 21 22  1  0
 21 20  2  0
 22 23  2  0
 23 18  1  0
 24 26  1  0
 25 24  2  0
 26 27  1  0
 27 31  1  0
 27 28  1  1
 29 28  1  0
 30 29  2  0
 31 32  2  0
 31 34  1  0
 33 29  1  0
M  END
$$$$
