WFD.pdb
     RDKit          3D

 34 36  0  0  1  0  0  0  0  0999 V2000
    7.8198  -17.7705   22.4516 N   0  0  0  0  0  0  0  0  0  0  0  0
    8.1792  -16.4122   22.2475 C   0  0  1  0  0  0  0  0  0  0  0  0
    7.1102  -15.4845   21.8140 C   0  0  0  0  0  0  0  0  0  0  0  0
    7.1290  -15.0614   20.4088 C   0  0  0  0  0  0  0  0  0  0  0  0
    6.6588  -15.7907   19.3115 C   0  0  0  0  0  0  0  0  0  0  0  0
    6.8572  -15.0323   18.2294 N   0  0  0  0  0  0  0  0  0  0  0  0
    7.4305  -13.8546   18.5762 C   0  0  0  0  0  0  0  0  0  0  0  0
    7.8265  -12.7637   17.8336 C   0  0  0  0  0  0  0  0  0  0  0  0
    8.4013  -11.6603   18.4100 C   0  0  0  0  0  0  0  0  0  0  0  0
    8.5760  -11.6723   19.7807 C   0  0  0  0  0  0  0  0  0  0  0  0
    8.1943  -12.7388   20.5461 C   0  0  0  0  0  0  0  0  0  0  0  0
    7.6145  -13.8505   19.9668 C   0  0  0  0  0  0  0  0  0  0  0  0
    8.7562  -15.8642   23.5094 C   0  0  0  0  0  0  0  0  0  0  0  0
    9.3623  -14.7708   23.4464 O   0  0  0  0  0  0  0  0  0  0  0  0
    8.6475  -16.5157   24.7462 N   0  0  0  0  0  0  0  0  0  0  0  0
    9.3524  -16.1224   25.9305 C   0  0  1  0  0  0  0  0  0  0  0  0
    8.4328  -15.6844   27.0414 C   0  0  0  0  0  0  0  0  0  0  0  0
    7.7786  -14.4016   26.8202 C   0  0  0  0  0  0  0  0  0  0  0  0
    8.4638  -13.2256   27.0156 C   0  0  0  0  0  0  0  0  0  0  0  0
    7.8478  -11.9878   26.8072 C   0  0  0  0  0  0  0  0  0  0  0  0
    6.5357  -11.8972   26.3997 C   0  0  0  0  0  0  0  0  0  0  0  0
    5.8454  -13.0834   26.2028 C   0  0  0  0  0  0  0  0  0  0  0  0
    6.4645  -14.2712   26.4116 C   0  0  0  0  0  0  0  0  0  0  0  0
   10.2871  -17.1329   26.4182 C   0  0  0  0  0  0  0  0  0  0  0  0
    9.9128  -17.8793   27.3687 O   0  0  0  0  0  0  0  0  0  0  0  0
   11.6023  -17.3677   25.9244 N   0  0  0  0  0  0  0  0  0  0  0  0
   12.3449  -18.5704   26.2421 C   0  0  1  0  0  0  0  0  0  0  0  0
   11.6966  -19.8174   25.6588 C   0  0  0  0  0  0  0  0  0  0  0  0
   11.6888  -19.7729   24.1832 C   0  0  0  0  0  0  0  0  0  0  0  0
   12.1644  -18.7638   23.6050 O   0  0  0  0  0  0  0  0  0  0  0  0
   13.6850  -18.4439   25.5704 C   0  0  0  0  0  0  0  0  0  0  0  0
   14.5672  -19.3271   25.7555 O   0  0  0  0  0  0  0  0  0  0  0  0
   11.1833  -20.7875   23.3797 O   0  0  0  0  0  0  0  0  0  0  0  0
   13.9431  -17.3606   24.7536 O   0  0  0  0  0  0  0  0  0  0  0  0
  2  1  1  1
  2  3  1  0
  4  5  2  0
  4  3  1  0
  6  5  1  0
  7 12  2  0
  7  6  1  0
  8  7  1  0
  9  8  2  0
  9 10  1  0
 10 11  2  0
 11 12  1  0
 12  4  1  0
 13 14  2  0
 13  2  1  0
 15 13  1  0
 16 24  1  0
 16 15  1  0
 16 17  1  1
 18 17  1  0
 19 18  2  0
 20 19  1  0
 21 22  1  0
 21 20  2  0
 22 23  2  0
 23 18  1  0
 24 26  1  0
 25 24  2  0
 26 27  1  0
 27 31  1  0
 27 28  1  6
 29 28  1  0
 30 29  2  0
 31 32  2  0
 31 34  1  0
 33 29  1  0
M  END
$$$$
