WFD.pdb
     RDKit          3D

 34 36  0  0  1  0  0  0  0  0999 V2000
    8.3901  -17.0004   22.7101 N   0  0  0  0  0  0  0  0  0  0  0  0
    9.0811  -15.7625   22.7878 C   0  0  1  0  0  0  0  0  0  0  0  0
    8.3212  -14.5380   22.4495 C   0  0  0  0  0  0  0  0  0  0  0  0
    7.7083  -14.4849   21.1169 C   0  0  0  0  0  0  0  0  0  0  0  0
    6.6210  -15.2421   20.6679 C   0  0  0  0  0  0  0  0  0  0  0  0
    6.3857  -14.8705   19.4062 N   0  0  0  0  0  0  0  0  0  0  0  0
    7.2660  -13.9144   19.0230 C   0  0  0  0  0  0  0  0  0  0  0  0
    7.4313  -13.2292   17.8392 C   0  0  0  0  0  0  0  0  0  0  0  0
    8.4147  -12.2880   17.6738 C   0  0  0  0  0  0  0  0  0  0  0  0
    9.2508  -12.0410   18.7458 C   0  0  0  0  0  0  0  0  0  0  0  0
    9.1138  -12.7038   19.9337 C   0  0  0  0  0  0  0  0  0  0  0  0
    8.1231  -13.6514   20.1018 C   0  0  0  0  0  0  0  0  0  0  0  0
    9.6134  -15.5856   24.1701 C   0  0  0  0  0  0  0  0  0  0  0  0
   10.6538  -14.9040   24.3112 O   0  0  0  0  0  0  0  0  0  0  0  0
    9.0027  -16.1438   25.3021 N   0  0  0  0  0  0  0  0  0  0  0  0
    9.5202  -16.0361   26.6343 C   0  0  1  0  0  0  0  0  0  0  0  0
    8.4721  -15.6318   27.6391 C   0  0  0  0  0  0  0  0  0  0  0  0
    7.7445  -14.4150   27.3038 C   0  0  0  0  0  0  0  0  0  0  0  0
    6.4934  -14.4834   26.7375 C   0  0  0  0  0  0  0  0  0  0  0  0
    5.7845  -13.3234   26.4105 C   0  0  0  0  0  0  0  0  0  0  0  0
    6.3086  -12.0714   26.6414 C   0  0  0  0  0  0  0  0  0  0  0  0
    7.5702  -12.0031   27.2124 C   0  0  0  0  0  0  0  0  0  0  0  0
    8.2378  -13.1420   27.5204 C   0  0  0  0  0  0  0  0  0  0  0  0
   10.2195  -17.2348   27.0893 C   0  0  0  0  0  0  0  0  0  0  0  0
   10.5546  -17.3010   28.3075 O   0  0  0  0  0  0  0  0  0  0  0  0
   10.5702  -18.3577   26.2862 N   0  0  0  0  0  0  0  0  0  0  0  0
   11.2754  -19.5034   26.8237 C   0  0  1  0  0  0  0  0  0  0  0  0
   10.6464  -20.8200   26.3922 C   0  0  0  0  0  0  0  0  0  0  0  0
   11.6797  -21.8310   26.0927 C   0  0  0  0  0  0  0  0  0  0  0  0
   11.9340  -22.1000   24.8919 O   0  0  0  0  0  0  0  0  0  0  0  0
   12.6554  -19.4843   26.2251 C   0  0  0  0  0  0  0  0  0  0  0  0
   12.8919  -18.7691   25.2126 O   0  0  0  0  0  0  0  0  0  0  0  0
   12.4001  -22.5146   27.0644 O   0  0  0  0  0  0  0  0  0  0  0  0
   13.6574  -20.2504   26.7874 O   0  0  0  0  0  0  0  0  0  0  0  0
  2  1  1  1
  2  3  1  0
  4  5  2  0
  4  3  1  0
  6  5  1  0
  7 12  2  0
  7  6  1  0
  8  7  1  0
  9  8  2  0
  9 10  1  0
 10 11  2  0
 11 12  1  0
 12  4  1  0
 13 14  2  0
 13  2  1  0
 15 13  1  0
 16 24  1  0
 16 15  1  0
 16 17  1  1
 18 17  1  0
 19 18  2  0
 20 19  1  0
 21 22  1  0
 21 20  2  0
 22 23  2  0
 23 18  1  0
 24 26  1  0
 25 24  2  0
 26 27  1  0
 27 31  1  0
 27 28  1  6
 29 28  1  0
 30 29  2  0
 31 32  2  0
 31 34  1  0
 33 29  1  0
M  END
$$$$
