WFD.pdb
     RDKit          3D

 34 36  0  0  1  0  0  0  0  0999 V2000
   10.7881  -18.3611   20.2647 N   0  0  0  0  0  0  0  0  0  0  0  0
    9.9328  -17.3434   20.7636 C   0  0  1  0  0  0  0  0  0  0  0  0
    8.4739  -17.5592   20.6358 C   0  0  0  0  0  0  0  0  0  0  0  0
    7.6221  -16.3643   20.6612 C   0  0  0  0  0  0  0  0  0  0  0  0
    6.2353  -16.3321   20.8420 C   0  0  0  0  0  0  0  0  0  0  0  0
    5.8708  -15.0470   20.8093 N   0  0  0  0  0  0  0  0  0  0  0  0
    6.9522  -14.2537   20.6166 C   0  0  0  0  0  0  0  0  0  0  0  0
    7.0903  -12.8871   20.5086 C   0  0  0  0  0  0  0  0  0  0  0  0
    8.3089  -12.2921   20.3059 C   0  0  0  0  0  0  0  0  0  0  0  0
    9.4149  -13.1151   20.2111 C   0  0  0  0  0  0  0  0  0  0  0  0
    9.3119  -14.4745   20.3136 C   0  0  0  0  0  0  0  0  0  0  0  0
    8.0851  -15.0749   20.5185 C   0  0  0  0  0  0  0  0  0  0  0  0
   10.2234  -17.1265   22.2107 C   0  0  0  0  0  0  0  0  0  0  0  0
   10.9870  -17.9387   22.7799 O   0  0  0  0  0  0  0  0  0  0  0  0
    9.6834  -16.0632   22.9481 N   0  0  0  0  0  0  0  0  0  0  0  0
    9.9568  -15.8211   24.3341 C   0  0  1  0  0  0  0  0  0  0  0  0
    9.1850  -14.6511   24.8879 C   0  0  0  0  0  0  0  0  0  0  0  0
    9.3414  -14.4420   26.3212 C   0  0  0  0  0  0  0  0  0  0  0  0
   10.5300  -14.7407   26.9446 C   0  0  0  0  0  0  0  0  0  0  0  0
   10.6934  -14.5451   28.3194 C   0  0  0  0  0  0  0  0  0  0  0  0
    9.6747  -14.0477   29.1009 C   0  0  0  0  0  0  0  0  0  0  0  0
    8.4764  -13.7468   28.4717 C   0  0  0  0  0  0  0  0  0  0  0  0
    8.3425  -13.9453   27.1374 C   0  0  0  0  0  0  0  0  0  0  0  0
    9.7695  -16.9957   25.1815 C   0  0  0  0  0  0  0  0  0  0  0  0
    8.6550  -17.5925   25.1321 O   0  0  0  0  0  0  0  0  0  0  0  0
   10.7311  -17.5477   26.0756 N   0  0  0  0  0  0  0  0  0  0  0  0
   10.7689  -18.9601   26.3956 C   0  0  1  0  0  0  0  0  0  0  0  0
   11.6234  -19.7492   25.4145 C   0  0  0  0  0  0  0  0  0  0  0  0
   11.6668  -21.1797   25.7769 C   0  0  0  0  0  0  0  0  0  0  0  0
   12.5672  -21.5800   26.5568 O   0  0  0  0  0  0  0  0  0  0  0  0
   11.4464  -19.0847   27.7329 C   0  0  0  0  0  0  0  0  0  0  0  0
   11.5536  -20.2165   28.2808 O   0  0  0  0  0  0  0  0  0  0  0  0
   10.7653  -22.1264   25.3064 O   0  0  0  0  0  0  0  0  0  0  0  0
   11.9484  -17.9584   28.3549 O   0  0  0  0  0  0  0  0  0  0  0  0
  2  1  1  1
  2  3  1  0
  4  5  2  0
  4  3  1  0
  6  5  1  0
  7 12  2  0
  7  6  1  0
  8  7  1  0
  9  8  2  0
  9 10  1  0
 10 11  2  0
 11 12  1  0
 12  4  1  0
 13 14  2  0
 13  2  1  0
 15 13  1  0
 16 24  1  0
 16 15  1  0
 16 17  1  1
 18 17  1  0
 19 18  2  0
 20 19  1  0
 21 22  1  0
 21 20  2  0
 22 23  2  0
 23 18  1  0
 24 26  1  0
 25 24  2  0
 26 27  1  0
 27 31  1  0
 27 28  1  6
 29 28  1  0
 30 29  2  0
 31 32  2  0
 31 34  1  0
 33 29  1  0
M  END
$$$$
