WFD.pdb
     RDKit          3D

 34 36  0  0  1  0  0  0  0  0999 V2000
    7.5136  -19.5439   26.4873 N   0  0  0  0  0  0  0  0  0  0  0  0
    7.8998  -18.1853   26.3418 C   0  0  1  0  0  0  0  0  0  0  0  0
    9.3027  -17.8398   26.6637 C   0  0  0  0  0  0  0  0  0  0  0  0
    9.5567  -17.2672   27.9910 C   0  0  0  0  0  0  0  0  0  0  0  0
    9.9392  -17.9652   29.1415 C   0  0  0  0  0  0  0  0  0  0  0  0
   10.0732  -17.0608   30.1159 N   0  0  0  0  0  0  0  0  0  0  0  0
    9.7962  -15.8191   29.6497 C   0  0  0  0  0  0  0  0  0  0  0  0
    9.7902  -14.5824   30.2569 C   0  0  0  0  0  0  0  0  0  0  0  0
    9.4659  -13.4379   29.5750 C   0  0  0  0  0  0  0  0  0  0  0  0
    9.1393  -13.5606   28.2379 C   0  0  0  0  0  0  0  0  0  0  0  0
    9.1354  -14.7728   27.6058 C   0  0  0  0  0  0  0  0  0  0  0  0
    9.4626  -15.9262   28.2915 C   0  0  0  0  0  0  0  0  0  0  0  0
    7.6487  -17.7535   24.9361 C   0  0  0  0  0  0  0  0  0  0  0  0
    7.5736  -18.6425   24.0580 O   0  0  0  0  0  0  0  0  0  0  0  0
    7.4947  -16.4103   24.5645 N   0  0  0  0  0  0  0  0  0  0  0  0
    7.4292  -15.9503   23.2086 C   0  0  1  0  0  0  0  0  0  0  0  0
    6.8694  -14.5561   23.0893 C   0  0  0  0  0  0  0  0  0  0  0  0
    7.0982  -13.7067   24.2506 C   0  0  0  0  0  0  0  0  0  0  0  0
    6.3097  -13.8280   25.3705 C   0  0  0  0  0  0  0  0  0  0  0  0
    6.5182  -13.0189   26.4916 C   0  0  0  0  0  0  0  0  0  0  0  0
    7.5175  -12.0721   26.5191 C   0  0  0  0  0  0  0  0  0  0  0  0
    8.3123  -11.9503   25.3895 C   0  0  0  0  0  0  0  0  0  0  0  0
    8.0902  -12.7462   24.3148 C   0  0  0  0  0  0  0  0  0  0  0  0
    8.7003  -16.0462   22.4959 C   0  0  0  0  0  0  0  0  0  0  0  0
    8.6928  -15.8785   21.2419 O   0  0  0  0  0  0  0  0  0  0  0  0
    9.9715  -16.3156   23.0793 N   0  0  0  0  0  0  0  0  0  0  0  0
   11.1463  -16.5962   22.2793 C   0  0  1  0  0  0  0  0  0  0  0  0
   12.2857  -15.6314   22.5730 C   0  0  0  0  0  0  0  0  0  0  0  0
   13.4696  -15.9379   21.7460 C   0  0  0  0  0  0  0  0  0  0  0  0
   14.0248  -17.0578   21.8744 O   0  0  0  0  0  0  0  0  0  0  0  0
   11.6363  -17.9579   22.6897 C   0  0  0  0  0  0  0  0  0  0  0  0
   11.7730  -18.2348   23.9133 O   0  0  0  0  0  0  0  0  0  0  0  0
   14.0185  -15.0577   20.8216 O   0  0  0  0  0  0  0  0  0  0  0  0
   11.9344  -18.8992   21.7240 O   0  0  0  0  0  0  0  0  0  0  0  0
  2  1  1  6
  2  3  1  0
  4  5  2  0
  4  3  1  0
  6  5  1  0
  7 12  2  0
  7  6  1  0
  8  7  1  0
  9  8  2  0
  9 10  1  0
 10 11  2  0
 11 12  1  0
 12  4  1  0
 13 14  2  0
 13  2  1  0
 15 13  1  0
 16 24  1  0
 16 15  1  0
 16 17  1  1
 18 17  1  0
 19 18  2  0
 20 19  1  0
 21 22  1  0
 21 20  2  0
 22 23  2  0
 23 18  1  0
 24 26  1  0
 25 24  2  0
 26 27  1  0
 27 31  1  0
 27 28  1  1
 29 28  1  0
 30 29  2  0
 31 32  2  0
 31 34  1  0
 33 29  1  0
M  END
$$$$
