WFD.pdb
     RDKit          3D

 34 36  0  0  1  0  0  0  0  0999 V2000
    7.6125  -19.2663   26.2714 N   0  0  0  0  0  0  0  0  0  0  0  0
    8.2068  -17.9829   26.1451 C   0  0  1  0  0  0  0  0  0  0  0  0
    9.6452  -17.8652   26.4740 C   0  0  0  0  0  0  0  0  0  0  0  0
    9.9806  -17.4100   27.8284 C   0  0  0  0  0  0  0  0  0  0  0  0
   10.4127  -18.2075   28.8936 C   0  0  0  0  0  0  0  0  0  0  0  0
   10.6148  -17.3905   29.9313 N   0  0  0  0  0  0  0  0  0  0  0  0
   10.3344  -16.1104   29.5867 C   0  0  0  0  0  0  0  0  0  0  0  0
   10.3826  -14.9294   30.2946 C   0  0  0  0  0  0  0  0  0  0  0  0
   10.0417  -13.7273   29.7298 C   0  0  0  0  0  0  0  0  0  0  0  0
    9.6411  -13.7326   28.4073 C   0  0  0  0  0  0  0  0  0  0  0  0
    9.5821  -14.8869   27.6772 C   0  0  0  0  0  0  0  0  0  0  0  0
    9.9259  -16.0982   28.2448 C   0  0  0  0  0  0  0  0  0  0  0  0
    8.0315  -17.4988   24.7450 C   0  0  0  0  0  0  0  0  0  0  0  0
    7.9931  -18.3551   23.8327 O   0  0  0  0  0  0  0  0  0  0  0  0
    7.9090  -16.1416   24.4147 N   0  0  0  0  0  0  0  0  0  0  0  0
    7.9103  -15.6336   23.0745 C   0  0  1  0  0  0  0  0  0  0  0  0
    7.2890  -14.2648   22.9661 C   0  0  0  0  0  0  0  0  0  0  0  0
    7.1053  -13.5772   24.2373 C   0  0  0  0  0  0  0  0  0  0  0  0
    6.3302  -14.1345   25.2269 C   0  0  0  0  0  0  0  0  0  0  0  0
    6.1454  -13.4850   26.4512 C   0  0  0  0  0  0  0  0  0  0  0  0
    6.7298  -12.2663   26.7140 C   0  0  0  0  0  0  0  0  0  0  0  0
    7.5113  -11.7048   25.7158 C   0  0  0  0  0  0  0  0  0  0  0  0
    7.6752  -12.3539   24.5370 C   0  0  0  0  0  0  0  0  0  0  0  0
    9.2292  -15.6402   22.4473 C   0  0  0  0  0  0  0  0  0  0  0  0
   10.2284  -15.3367   23.1615 O   0  0  0  0  0  0  0  0  0  0  0  0
    9.5105  -15.9584   21.0878 N   0  0  0  0  0  0  0  0  0  0  0  0
   10.7908  -16.4897   20.6664 C   0  0  1  0  0  0  0  0  0  0  0  0
   11.0868  -17.8431   21.2956 C   0  0  0  0  0  0  0  0  0  0  0  0
   12.2698  -17.7737   22.1762 C   0  0  0  0  0  0  0  0  0  0  0  0
   12.6823  -18.8284   22.7207 O   0  0  0  0  0  0  0  0  0  0  0  0
   10.6949  -16.7305   19.1846 C   0  0  0  0  0  0  0  0  0  0  0  0
    9.5800  -17.0106   18.6638 O   0  0  0  0  0  0  0  0  0  0  0  0
   12.9674  -16.6030   22.4466 O   0  0  0  0  0  0  0  0  0  0  0  0
   11.8287  -16.6435   18.4009 O   0  0  0  0  0  0  0  0  0  0  0  0
  2  1  1  6
  2  3  1  0
  4  5  2  0
  4  3  1  0
  6  5  1  0
  7 12  2  0
  7  6  1  0
  8  7  1  0
  9  8  2  0
  9 10  1  0
 10 11  2  0
 11 12  1  0
 12  4  1  0
 13 14  2  0
 13  2  1  0
 15 13  1  0
 16 24  1  0
 16 15  1  0
 16 17  1  1
 18 17  1  0
 19 18  2  0
 20 19  1  0
 21 22  1  0
 21 20  2  0
 22 23  2  0
 23 18  1  0
 24 26  1  0
 25 24  2  0
 26 27  1  0
 27 31  1  0
 27 28  1  1
 29 28  1  0
 30 29  2  0
 31 32  2  0
 31 34  1  0
 33 29  1  0
M  END
$$$$
