WFD.pdb
     RDKit          3D

 34 36  0  0  1  0  0  0  0  0999 V2000
    8.0658  -15.7569   23.2650 N   0  0  0  0  0  0  0  0  0  0  0  0
    9.1577  -16.6176   22.9768 C   0  0  1  0  0  0  0  0  0  0  0  0
    9.4376  -16.9058   21.5521 C   0  0  0  0  0  0  0  0  0  0  0  0
    8.9746  -15.9163   20.5721 C   0  0  0  0  0  0  0  0  0  0  0  0
    9.0712  -16.0127   19.1797 C   0  0  0  0  0  0  0  0  0  0  0  0
    8.5182  -14.9054   18.6762 N   0  0  0  0  0  0  0  0  0  0  0  0
    8.0723  -14.1040   19.6736 C   0  0  0  0  0  0  0  0  0  0  0  0
    7.4455  -12.8772   19.6651 C   0  0  0  0  0  0  0  0  0  0  0  0
    7.0821  -12.2370   20.8220 C   0  0  0  0  0  0  0  0  0  0  0  0
    7.3669  -12.8672   22.0184 C   0  0  0  0  0  0  0  0  0  0  0  0
    7.9880  -14.0843   22.0614 C   0  0  0  0  0  0  0  0  0  0  0  0
    8.3538  -14.7303   20.8968 C   0  0  0  0  0  0  0  0  0  0  0  0
   10.4021  -16.0424   23.5651 C   0  0  0  0  0  0  0  0  0  0  0  0
   11.4118  -15.9630   22.8295 O   0  0  0  0  0  0  0  0  0  0  0  0
   10.4844  -15.5924   24.8905 N   0  0  0  0  0  0  0  0  0  0  0  0
    9.5819  -15.9832   25.9332 C   0  0  1  0  0  0  0  0  0  0  0  0
    8.1361  -15.7611   25.5704 C   0  0  0  0  0  0  0  0  0  0  0  0
    7.6429  -14.4152   25.8308 C   0  0  0  0  0  0  0  0  0  0  0  0
    8.4405  -13.4891   26.4607 C   0  0  0  0  0  0  0  0  0  0  0  0
    7.9794  -12.1942   26.7169 C   0  0  0  0  0  0  0  0  0  0  0  0
    6.7134  -11.7961   26.3503 C   0  0  0  0  0  0  0  0  0  0  0  0
    5.9096  -12.7304   25.7151 C   0  0  0  0  0  0  0  0  0  0  0  0
    6.3793  -13.9798   25.4779 C   0  0  0  0  0  0  0  0  0  0  0  0
    9.7810  -17.3538   26.3964 C   0  0  0  0  0  0  0  0  0  0  0  0
    9.0223  -17.7883   27.3108 O   0  0  0  0  0  0  0  0  0  0  0  0
   10.7614  -18.2683   25.9154 N   0  0  0  0  0  0  0  0  0  0  0  0
   10.9477  -19.5810   26.4993 C   0  0  1  0  0  0  0  0  0  0  0  0
   11.8131  -20.4800   25.6285 C   0  0  0  0  0  0  0  0  0  0  0  0
   11.9818  -21.8126   26.2413 C   0  0  0  0  0  0  0  0  0  0  0  0
   11.2660  -22.1211   27.2269 O   0  0  0  0  0  0  0  0  0  0  0  0
   11.7099  -19.3824   27.7809 C   0  0  0  0  0  0  0  0  0  0  0  0
   11.7548  -20.3093   28.6361 O   0  0  0  0  0  0  0  0  0  0  0  0
   12.8924  -22.7619   25.7941 O   0  0  0  0  0  0  0  0  0  0  0  0
   12.3576  -18.1853   28.0150 O   0  0  0  0  0  0  0  0  0  0  0  0
  2  1  1  6
  2  3  1  0
  4  5  2  0
  4  3  1  0
  6  5  1  0
  7 12  2  0
  7  6  1  0
  8  7  1  0
  9  8  2  0
  9 10  1  0
 10 11  2  0
 11 12  1  0
 12  4  1  0
 13 14  2  0
 13  2  1  0
 15 13  1  0
 16 24  1  0
 16 15  1  0
 16 17  1  6
 18 17  1  0
 19 18  2  0
 20 19  1  0
 21 22  1  0
 21 20  2  0
 22 23  2  0
 23 18  1  0
 24 26  1  0
 25 24  2  0
 26 27  1  0
 27 31  1  0
 27 28  1  6
 29 28  1  0
 30 29  2  0
 31 32  2  0
 31 34  1  0
 33 29  1  0
M  END
$$$$
