WFD.pdb
     RDKit          3D

 34 36  0  0  1  0  0  0  0  0999 V2000
    7.4370  -18.0491   26.5182 N   0  0  0  0  0  0  0  0  0  0  0  0
    7.2239  -17.1897   25.4082 C   0  0  1  0  0  0  0  0  0  0  0  0
    8.2257  -16.1262   25.1705 C   0  0  0  0  0  0  0  0  0  0  0  0
    8.4544  -15.1743   26.2639 C   0  0  0  0  0  0  0  0  0  0  0  0
    9.4368  -15.2634   27.2559 C   0  0  0  0  0  0  0  0  0  0  0  0
    9.2973  -14.1876   28.0360 N   0  0  0  0  0  0  0  0  0  0  0  0
    8.2762  -13.4135   27.5956 C   0  0  0  0  0  0  0  0  0  0  0  0
    7.7488  -12.2269   28.0561 C   0  0  0  0  0  0  0  0  0  0  0  0
    6.6880  -11.6138   27.4404 C   0  0  0  0  0  0  0  0  0  0  0  0
    6.1524  -12.2296   26.3254 C   0  0  0  0  0  0  0  0  0  0  0  0
    6.6520  -13.4073   25.8432 C   0  0  0  0  0  0  0  0  0  0  0  0
    7.7210  -14.0253   26.4620 C   0  0  0  0  0  0  0  0  0  0  0  0
    7.1439  -18.0089   24.1640 C   0  0  0  0  0  0  0  0  0  0  0  0
    7.6825  -19.1388   24.1745 O   0  0  0  0  0  0  0  0  0  0  0  0
    6.4976  -17.5701   22.9996 N   0  0  0  0  0  0  0  0  0  0  0  0
    7.0653  -16.6491   22.0595 C   0  0  1  0  0  0  0  0  0  0  0  0
    7.0840  -15.2303   22.5675 C   0  0  0  0  0  0  0  0  0  0  0  0
    7.4249  -14.2292   21.5655 C   0  0  0  0  0  0  0  0  0  0  0  0
    7.2683  -14.5001   20.2265 C   0  0  0  0  0  0  0  0  0  0  0  0
    7.5919  -13.5485   19.2546 C   0  0  0  0  0  0  0  0  0  0  0  0
    8.0785  -12.3071   19.5978 C   0  0  0  0  0  0  0  0  0  0  0  0
    8.2362  -12.0345   20.9481 C   0  0  0  0  0  0  0  0  0  0  0  0
    7.9155  -12.9737   21.8716 C   0  0  0  0  0  0  0  0  0  0  0  0
    8.3937  -17.0349   21.5913 C   0  0  0  0  0  0  0  0  0  0  0  0
    8.4714  -17.7796   20.5715 O   0  0  0  0  0  0  0  0  0  0  0  0
    9.6342  -16.6520   22.1774 N   0  0  0  0  0  0  0  0  0  0  0  0
   10.9079  -16.9384   21.5492 C   0  0  1  0  0  0  0  0  0  0  0  0
   11.2814  -15.8960   20.5055 C   0  0  0  0  0  0  0  0  0  0  0  0
   12.5987  -16.1897   19.9071 C   0  0  0  0  0  0  0  0  0  0  0  0
   13.0764  -17.3453   20.0313 O   0  0  0  0  0  0  0  0  0  0  0  0
   11.9543  -16.8445   22.6258 C   0  0  0  0  0  0  0  0  0  0  0  0
   11.6463  -16.3970   23.7649 O   0  0  0  0  0  0  0  0  0  0  0  0
   13.3563  -15.2599   19.2057 O   0  0  0  0  0  0  0  0  0  0  0  0
   13.2481  -17.2490   22.3618 O   0  0  0  0  0  0  0  0  0  0  0  0
  2  1  1  1
  2  3  1  0
  4  5  2  0
  4  3  1  0
  6  5  1  0
  7 12  2  0
  7  6  1  0
  8  7  1  0
  9  8  2  0
  9 10  1  0
 10 11  2  0
 11 12  1  0
 12  4  1  0
 13 14  2  0
 13  2  1  0
 15 13  1  0
 16 24  1  0
 16 15  1  0
 16 17  1  1
 18 17  1  0
 19 18  2  0
 20 19  1  0
 21 22  1  0
 21 20  2  0
 22 23  2  0
 23 18  1  0
 24 26  1  0
 25 24  2  0
 26 27  1  0
 27 31  1  0
 27 28  1  6
 29 28  1  0
 30 29  2  0
 31 32  2  0
 31 34  1  0
 33 29  1  0
M  END
$$$$
