WFD.pdb
     RDKit          3D

 34 36  0  0  1  0  0  0  0  0999 V2000
   10.7724  -15.0655   21.5926 N   0  0  0  0  0  0  0  0  0  0  0  0
    9.4645  -15.2744   22.1042 C   0  0  1  0  0  0  0  0  0  0  0  0
    8.5696  -16.1691   21.3361 C   0  0  0  0  0  0  0  0  0  0  0  0
    7.8912  -15.5880   20.1716 C   0  0  0  0  0  0  0  0  0  0  0  0
    7.0052  -16.2429   19.3094 C   0  0  0  0  0  0  0  0  0  0  0  0
    6.6158  -15.3448   18.4000 N   0  0  0  0  0  0  0  0  0  0  0  0
    7.2064  -14.1481   18.6343 C   0  0  0  0  0  0  0  0  0  0  0  0
    7.1299  -12.9352   17.9853 C   0  0  0  0  0  0  0  0  0  0  0  0
    7.8358  -11.8378   18.4070 C   0  0  0  0  0  0  0  0  0  0  0  0
    8.6407  -11.9841   19.5206 C   0  0  0  0  0  0  0  0  0  0  0  0
    8.7391  -13.1738   20.1869 C   0  0  0  0  0  0  0  0  0  0  0  0
    8.0280  -14.2795   19.7636 C   0  0  0  0  0  0  0  0  0  0  0  0
    9.5626  -15.8265   23.4866 C   0  0  0  0  0  0  0  0  0  0  0  0
   10.6841  -16.2214   23.8782 O   0  0  0  0  0  0  0  0  0  0  0  0
    8.4641  -15.9187   24.3531 N   0  0  0  0  0  0  0  0  0  0  0  0
    8.5602  -16.2372   25.7473 C   0  0  1  0  0  0  0  0  0  0  0  0
    7.4162  -15.6809   26.5555 C   0  0  0  0  0  0  0  0  0  0  0  0
    7.3621  -14.2262   26.6130 C   0  0  0  0  0  0  0  0  0  0  0  0
    6.3011  -13.5449   26.0646 C   0  0  0  0  0  0  0  0  0  0  0  0
    6.2370  -12.1489   26.1127 C   0  0  0  0  0  0  0  0  0  0  0  0
    7.2295  -11.4037   26.7086 C   0  0  0  0  0  0  0  0  0  0  0  0
    8.2991  -12.0913   27.2615 C   0  0  0  0  0  0  0  0  0  0  0  0
    8.3386  -13.4451   27.2021 C   0  0  0  0  0  0  0  0  0  0  0  0
    8.7179  -17.6647   26.0121 C   0  0  0  0  0  0  0  0  0  0  0  0
    8.0437  -18.4766   25.3143 O   0  0  0  0  0  0  0  0  0  0  0  0
    9.5684  -18.2471   26.9950 N   0  0  0  0  0  0  0  0  0  0  0  0
   10.3818  -19.4143   26.7210 C   0  0  1  0  0  0  0  0  0  0  0  0
   11.3567  -19.1797   25.5765 C   0  0  0  0  0  0  0  0  0  0  0  0
   12.2334  -20.3504   25.3752 C   0  0  0  0  0  0  0  0  0  0  0  0
   13.3329  -20.3953   25.9819 O   0  0  0  0  0  0  0  0  0  0  0  0
   11.2241  -19.6539   27.9441 C   0  0  0  0  0  0  0  0  0  0  0  0
   11.1751  -18.8433   28.9101 O   0  0  0  0  0  0  0  0  0  0  0  0
   11.9188  -21.4214   24.5478 O   0  0  0  0  0  0  0  0  0  0  0  0
   12.0475  -20.7610   28.0036 O   0  0  0  0  0  0  0  0  0  0  0  0
  2  1  1  6
  2  3  1  0
  4  5  2  0
  4  3  1  0
  6  5  1  0
  7 12  2  0
  7  6  1  0
  8  7  1  0
  9  8  2  0
  9 10  1  0
 10 11  2  0
 11 12  1  0
 12  4  1  0
 13 14  2  0
 13  2  1  0
 15 13  1  0
 16 24  1  0
 16 15  1  0
 16 17  1  1
 18 17  1  0
 19 18  2  0
 20 19  1  0
 21 22  1  0
 21 20  2  0
 22 23  2  0
 23 18  1  0
 24 26  1  0
 25 24  2  0
 26 27  1  0
 27 31  1  0
 27 28  1  6
 29 28  1  0
 30 29  2  0
 31 32  2  0
 31 34  1  0
 33 29  1  0
M  END
$$$$
