MQH.pdb
     RDKit          3D

 28 28  0  0  1  0  0  0  0  0999 V2000
    6.6865  -11.1257   26.7771 C   0  0  0  0  0  0  0  0  0  0  0  0
    5.8412  -12.3763   27.7551 S   0  0  0  0  0  0  0  0  0  0  0  0
    5.9823  -14.0204   27.0654 C   0  0  0  0  0  0  0  0  0  0  0  0
    6.0411  -14.0936   25.5824 C   0  0  0  0  0  0  0  0  0  0  0  0
    6.1550  -15.5016   25.0455 C   0  0  2  0  0  0  0  0  0  0  0  0
    6.2373  -16.4114   26.1373 N   0  0  0  0  0  0  0  0  0  0  0  0
    7.2514  -15.6118   24.0468 C   0  0  0  0  0  0  0  0  0  0  0  0
    8.0942  -16.5435   24.3088 O   0  0  0  0  0  0  0  0  0  0  0  0
    8.0329  -13.0759   18.3976 N   0  0  0  0  0  0  0  0  0  0  0  0
    9.1575  -13.9491   18.4524 C   0  0  0  0  0  0  0  0  0  0  0  0
    9.8938  -14.0653   17.4559 O   0  0  0  0  0  0  0  0  0  0  0  0
    9.3803  -14.6826   19.7334 C   0  0  0  0  0  0  0  0  0  0  0  0
    8.3025  -14.2669   20.6799 C   0  0  0  0  0  0  0  0  0  0  0  0
    8.4230  -15.0714   21.9490 C   0  0  2  0  0  0  0  0  0  0  0  0
    7.4019  -14.7970   22.9018 N   0  0  0  0  0  0  0  0  0  0  0  0
    9.8009  -14.9176   22.4632 C   0  0  0  0  0  0  0  0  0  0  0  0
   10.3046  -13.7724   22.4407 O   0  0  0  0  0  0  0  0  0  0  0  0
   10.5750  -15.9883   22.9753 N   0  0  0  0  0  0  0  0  0  0  0  0
   11.1166  -16.0663   24.3153 C   0  0  1  0  0  0  0  0  0  0  0  0
    9.9586  -15.9639   25.2792 C   0  0  0  0  0  0  0  0  0  0  0  0
   10.3453  -15.9207   26.6899 C   0  0  0  0  0  0  0  0  0  0  0  0
   10.5910  -14.7758   27.4162 C   0  0  0  0  0  0  0  0  0  0  0  0
   10.9121  -15.2024   28.6608 N   0  0  0  0  0  0  0  0  0  0  0  0
   10.8698  -16.5459   28.7108 C   0  0  0  0  0  0  0  0  0  0  0  0
   10.5186  -16.9978   27.4907 N   0  0  0  0  0  0  0  0  0  0  0  0
   11.9837  -17.2381   24.5517 C   0  0  0  0  0  0  0  0  0  0  0  0
   13.0665  -17.2230   25.4004 O   0  0  0  0  0  0  0  0  0  0  0  0
   11.7152  -18.3043   23.9458 O   0  0  0  0  0  0  0  0  0  0  0  0
  1  2  1  0
  3  2  1  0
  4  5  1  0
  4  3  1  0
  5  6  1  1
  7  5  1  0
  8  7  2  0
 10  9  1  0
 10 12  1  0
 11 10  2  0
 13 12  1  0
 14 13  1  6
 14 15  1  0
 15  7  1  0
 16 14  1  0
 17 16  2  0
 18 16  1  0
 19 18  1  0
 19 20  1  1
 20 21  1  0
 21 22  2  0
 23 22  1  0
 24 23  1  0
 25 21  1  0
 25 24  2  0
 26 19  1  0
 26 27  1  0
 28 26  2  0
M  END
$$$$
