MQH.pdb
     RDKit          3D

 28 28  0  0  1  0  0  0  0  0999 V2000
   17.4716  -19.2142   14.9189 C   0  0  0  0  0  0  0  0  0  0  0  0
   17.1804  -17.8543   13.7782 S   0  0  0  0  0  0  0  0  0  0  0  0
   15.5336  -17.1690   13.9091 C   0  0  0  0  0  0  0  0  0  0  0  0
   14.4189  -18.1436   13.7842 C   0  0  0  0  0  0  0  0  0  0  0  0
   13.0474  -17.5188   13.8949 C   0  0  2  0  0  0  0  0  0  0  0  0
   13.0005  -16.3507   13.0825 N   0  0  0  0  0  0  0  0  0  0  0  0
   12.6591  -17.3163   15.3161 C   0  0  0  0  0  0  0  0  0  0  0  0
   12.6577  -16.0853   15.6787 O   0  0  0  0  0  0  0  0  0  0  0  0
    9.8824  -20.9682   19.5317 N   0  0  0  0  0  0  0  0  0  0  0  0
    9.9652  -19.7370   20.2443 C   0  0  0  0  0  0  0  0  0  0  0  0
    9.3979  -19.6262   21.3464 O   0  0  0  0  0  0  0  0  0  0  0  0
   10.7461  -18.6379   19.6036 C   0  0  0  0  0  0  0  0  0  0  0  0
   11.1642  -19.1157   18.2518 C   0  0  0  0  0  0  0  0  0  0  0  0
   11.9484  -18.0271   17.5645 C   0  0  2  0  0  0  0  0  0  0  0  0
   12.3156  -18.3419   16.2259 N   0  0  0  0  0  0  0  0  0  0  0  0
   13.0792  -17.6507   18.4397 C   0  0  0  0  0  0  0  0  0  0  0  0
   14.1623  -18.2571   18.2821 O   0  0  0  0  0  0  0  0  0  0  0  0
   13.0028  -16.6489   19.4390 N   0  0  0  0  0  0  0  0  0  0  0  0
   14.1021  -16.2077   20.2706 C   0  0  1  0  0  0  0  0  0  0  0  0
   14.2429  -14.7161   20.0824 C   0  0  0  0  0  0  0  0  0  0  0  0
   14.8876  -14.3205   18.8296 C   0  0  0  0  0  0  0  0  0  0  0  0
   14.8197  -13.0692   18.2566 C   0  0  0  0  0  0  0  0  0  0  0  0
   15.5544  -13.1538   17.1220 N   0  0  0  0  0  0  0  0  0  0  0  0
   16.0563  -14.3949   16.9915 C   0  0  0  0  0  0  0  0  0  0  0  0
   15.6461  -15.1239   18.0482 N   0  0  0  0  0  0  0  0  0  0  0  0
   13.9964  -16.6202   21.6847 C   0  0  0  0  0  0  0  0  0  0  0  0
   15.0413  -16.5489   22.5769 O   0  0  0  0  0  0  0  0  0  0  0  0
   12.8924  -17.0572   22.0923 O   0  0  0  0  0  0  0  0  0  0  0  0
  1  2  1  0
  3  2  1  0
  4  5  1  0
  4  3  1  0
  5  6  1  6
  7  5  1  0
  8  7  2  0
 10  9  1  0
 10 12  1  0
 11 10  2  0
 13 12  1  0
 14 13  1  1
 14 15  1  0
 15  7  1  0
 16 14  1  0
 17 16  2  0
 18 16  1  0
 19 18  1  0
 19 20  1  1
 20 21  1  0
 21 22  2  0
 23 22  1  0
 24 23  1  0
 25 21  1  0
 25 24  2  0
 26 19  1  0
 26 27  1  0
 28 26  2  0
M  END
$$$$
