MQH.pdb
     RDKit          3D

 28 28  0  0  1  0  0  0  0  0999 V2000
    7.6775  -11.4136   26.5557 C   0  0  0  0  0  0  0  0  0  0  0  0
    7.3898  -13.0262   27.2986 S   0  0  0  0  0  0  0  0  0  0  0  0
    6.7321  -14.2234   26.1442 C   0  0  0  0  0  0  0  0  0  0  0  0
    7.4971  -14.3872   24.8809 C   0  0  0  0  0  0  0  0  0  0  0  0
    6.9059  -15.4099   23.9383 C   0  0  2  0  0  0  0  0  0  0  0  0
    6.7357  -16.6406   24.6334 N   0  0  0  0  0  0  0  0  0  0  0  0
    7.6894  -15.4990   22.6775 C   0  0  0  0  0  0  0  0  0  0  0  0
    7.8618  -16.7012   22.2628 O   0  0  0  0  0  0  0  0  0  0  0  0
    8.4960  -13.9860   17.4398 N   0  0  0  0  0  0  0  0  0  0  0  0
    7.4084  -13.3802   18.1329 C   0  0  0  0  0  0  0  0  0  0  0  0
    6.2980  -13.2942   17.5776 O   0  0  0  0  0  0  0  0  0  0  0  0
    7.6830  -12.8779   19.5116 C   0  0  0  0  0  0  0  0  0  0  0  0
    9.0437  -13.3562   19.8990 C   0  0  0  0  0  0  0  0  0  0  0  0
    8.9090  -14.6038   20.7341 C   0  0  2  0  0  0  0  0  0  0  0  0
    8.2183  -14.4009   21.9619 N   0  0  0  0  0  0  0  0  0  0  0  0
   10.2500  -15.2105   20.8762 C   0  0  0  0  0  0  0  0  0  0  0  0
   10.9442  -15.3335   19.8424 O   0  0  0  0  0  0  0  0  0  0  0  0
   10.7864  -15.6568   22.1095 N   0  0  0  0  0  0  0  0  0  0  0  0
   12.1792  -15.9628   22.3570 C   0  0  1  0  0  0  0  0  0  0  0  0
   12.9801  -14.7239   22.0345 C   0  0  0  0  0  0  0  0  0  0  0  0
   13.5608  -14.7093   20.6913 C   0  0  0  0  0  0  0  0  0  0  0  0
   12.9806  -15.2494   19.5642 C   0  0  0  0  0  0  0  0  0  0  0  0
   13.8564  -15.0091   18.5595 N   0  0  0  0  0  0  0  0  0  0  0  0
   14.9302  -14.3522   19.0337 C   0  0  0  0  0  0  0  0  0  0  0  0
   14.7528  -14.1631   20.3563 N   0  0  0  0  0  0  0  0  0  0  0  0
   12.4501  -16.5112   23.7012 C   0  0  0  0  0  0  0  0  0  0  0  0
   13.7034  -16.8793   24.1331 O   0  0  0  0  0  0  0  0  0  0  0  0
   11.4833  -16.6461   24.4907 O   0  0  0  0  0  0  0  0  0  0  0  0
  1  2  1  0
  3  2  1  0
  4  5  1  0
  4  3  1  0
  5  6  1  1
  7  5  1  0
  8  7  2  0
 10  9  1  0
 10 12  1  0
 11 10  2  0
 13 12  1  0
 14 13  1  1
 14 15  1  0
 15  7  1  0
 16 14  1  0
 17 16  2  0
 18 16  1  0
 19 18  1  0
 19 20  1  1
 20 21  1  0
 21 22  2  0
 23 22  1  0
 24 23  1  0
 25 21  1  0
 25 24  2  0
 26 19  1  0
 26 27  1  0
 28 26  2  0
M  END
$$$$
