MQH.pdb
     RDKit          3D

 28 28  0  0  1  0  0  0  0  0999 V2000
    8.7267  -11.5798   19.7843 C   0  0  0  0  0  0  0  0  0  0  0  0
    8.4381  -12.7175   18.4213 S   0  0  0  0  0  0  0  0  0  0  0  0
    7.2968  -14.0312   18.8335 C   0  0  0  0  0  0  0  0  0  0  0  0
    7.5945  -14.7733   20.0860 C   0  0  0  0  0  0  0  0  0  0  0  0
    8.2392  -16.1210   19.8578 C   0  0  2  0  0  0  0  0  0  0  0  0
    7.3615  -16.9323   19.0843 N   0  0  0  0  0  0  0  0  0  0  0  0
    8.6954  -16.7253   21.1376 C   0  0  0  0  0  0  0  0  0  0  0  0
    7.7345  -17.0645   21.9178 O   0  0  0  0  0  0  0  0  0  0  0  0
   10.7309  -19.7968   19.8013 N   0  0  0  0  0  0  0  0  0  0  0  0
   11.6831  -19.5463   20.8314 C   0  0  0  0  0  0  0  0  0  0  0  0
   12.8658  -19.3044   20.5287 O   0  0  0  0  0  0  0  0  0  0  0  0
   11.1838  -19.5928   22.2375 C   0  0  0  0  0  0  0  0  0  0  0  0
   11.5507  -18.2981   22.8852 C   0  0  0  0  0  0  0  0  0  0  0  0
   10.3679  -17.3653   22.8283 C   0  0  2  0  0  0  0  0  0  0  0  0
   10.0425  -16.9305   21.5127 N   0  0  0  0  0  0  0  0  0  0  0  0
   10.5955  -16.2726   23.7982 C   0  0  0  0  0  0  0  0  0  0  0  0
   10.9530  -15.1613   23.3475 O   0  0  0  0  0  0  0  0  0  0  0  0
   10.4323  -16.4150   25.1986 N   0  0  0  0  0  0  0  0  0  0  0  0
    9.7726  -15.4639   26.0674 C   0  0  1  0  0  0  0  0  0  0  0  0
    8.3859  -15.2321   25.5164 C   0  0  0  0  0  0  0  0  0  0  0  0
    7.5680  -14.3062   26.3010 C   0  0  0  0  0  0  0  0  0  0  0  0
    7.9708  -13.6616   27.4503 C   0  0  0  0  0  0  0  0  0  0  0  0
    6.9086  -12.9138   27.8333 N   0  0  0  0  0  0  0  0  0  0  0  0
    5.8927  -13.0821   26.9679 C   0  0  0  0  0  0  0  0  0  0  0  0
    6.2956  -13.9452   26.0145 N   0  0  0  0  0  0  0  0  0  0  0  0
    9.7889  -15.8353   27.4966 C   0  0  0  0  0  0  0  0  0  0  0  0
    9.4247  -17.0775   27.9629 O   0  0  0  0  0  0  0  0  0  0  0  0
   10.1568  -14.9700   28.3284 O   0  0  0  0  0  0  0  0  0  0  0  0
  1  2  1  0
  3  2  1  0
  4  5  1  0
  4  3  1  0
  5  6  1  1
  7  5  1  0
  8  7  2  0
 10  9  1  0
 10 12  1  0
 11 10  2  0
 13 12  1  0
 14 13  1  6
 14 15  1  0
 15  7  1  0
 16 14  1  0
 17 16  2  0
 18 16  1  0
 19 18  1  0
 19 20  1  6
 20 21  1  0
 21 22  2  0
 23 22  1  0
 24 23  1  0
 25 21  1  0
 25 24  2  0
 26 19  1  0
 26 27  1  0
 28 26  2  0
M  END
$$$$
