MQH.pdb
     RDKit          3D

 28 28  0  0  1  0  0  0  0  0999 V2000
    8.3736  -11.9406   20.0428 C   0  0  0  0  0  0  0  0  0  0  0  0
    7.8849  -12.6646   18.4704 S   0  0  0  0  0  0  0  0  0  0  0  0
    7.6988  -14.4418   18.5438 C   0  0  0  0  0  0  0  0  0  0  0  0
    7.2858  -14.9920   19.8610 C   0  0  0  0  0  0  0  0  0  0  0  0
    7.0795  -16.4891   19.8588 C   0  0  2  0  0  0  0  0  0  0  0  0
    6.0527  -16.8166   18.9286 N   0  0  0  0  0  0  0  0  0  0  0  0
    6.8729  -17.0079   21.2370 C   0  0  0  0  0  0  0  0  0  0  0  0
    5.8276  -16.5363   21.8131 O   0  0  0  0  0  0  0  0  0  0  0  0
    6.0682  -22.6412   23.4901 N   0  0  0  0  0  0  0  0  0  0  0  0
    5.9643  -21.3817   24.1485 C   0  0  0  0  0  0  0  0  0  0  0  0
    5.6974  -21.3442   25.3634 O   0  0  0  0  0  0  0  0  0  0  0  0
    6.1883  -20.1640   23.3145 C   0  0  0  0  0  0  0  0  0  0  0  0
    7.5268  -19.6117   23.6801 C   0  0  0  0  0  0  0  0  0  0  0  0
    7.5799  -18.1542   23.2990 C   0  0  2  0  0  0  0  0  0  0  0  0
    7.7132  -17.9313   21.8996 N   0  0  0  0  0  0  0  0  0  0  0  0
    8.6148  -17.4986   24.1272 C   0  0  0  0  0  0  0  0  0  0  0  0
    9.8048  -17.5943   23.7527 O   0  0  0  0  0  0  0  0  0  0  0  0
    8.3336  -16.7741   25.3121 N   0  0  0  0  0  0  0  0  0  0  0  0
    9.3218  -16.1768   26.1847 C   0  0  1  0  0  0  0  0  0  0  0  0
    8.5948  -15.2378   27.1175 C   0  0  0  0  0  0  0  0  0  0  0  0
    9.4530  -14.5713   28.0978 C   0  0  0  0  0  0  0  0  0  0  0  0
   10.8121  -14.7575   28.2273 C   0  0  0  0  0  0  0  0  0  0  0  0
   11.1894  -13.9499   29.2469 N   0  0  0  0  0  0  0  0  0  0  0  0
   10.1208  -13.2919   29.7310 C   0  0  0  0  0  0  0  0  0  0  0  0
    9.0399  -13.6732   29.0221 N   0  0  0  0  0  0  0  0  0  0  0  0
   10.1861  -17.1521   26.8794 C   0  0  0  0  0  0  0  0  0  0  0  0
   11.5430  -16.9878   27.0367 O   0  0  0  0  0  0  0  0  0  0  0  0
    9.6512  -18.1847   27.3524 O   0  0  0  0  0  0  0  0  0  0  0  0
  1  2  1  0
  3  2  1  0
  4  5  1  0
  4  3  1  0
  5  6  1  6
  7  5  1  0
  8  7  2  0
 10  9  1  0
 10 12  1  0
 11 10  2  0
 13 12  1  0
 14 13  1  6
 14 15  1  0
 15  7  1  0
 16 14  1  0
 17 16  2  0
 18 16  1  0
 19 18  1  0
 19 20  1  1
 20 21  1  0
 21 22  2  0
 23 22  1  0
 24 23  1  0
 25 21  1  0
 25 24  2  0
 26 19  1  0
 26 27  1  0
 28 26  2  0
M  END
$$$$
