MQH.pdb
     RDKit          3D

 28 28  0  0  1  0  0  0  0  0999 V2000
    9.1150  -11.1558   20.7950 C   0  0  0  0  0  0  0  0  0  0  0  0
    8.0104  -11.6015   19.4473 S   0  0  0  0  0  0  0  0  0  0  0  0
    7.6548  -13.3530   19.3814 C   0  0  0  0  0  0  0  0  0  0  0  0
    8.1878  -14.1610   20.5089 C   0  0  0  0  0  0  0  0  0  0  0  0
    8.0197  -15.6514   20.3240 C   0  0  2  0  0  0  0  0  0  0  0  0
    6.6468  -15.9387   20.0804 N   0  0  0  0  0  0  0  0  0  0  0  0
    8.6343  -16.4078   21.4471 C   0  0  0  0  0  0  0  0  0  0  0  0
    7.7834  -16.8277   22.3113 O   0  0  0  0  0  0  0  0  0  0  0  0
   14.2517  -18.9819   22.1347 N   0  0  0  0  0  0  0  0  0  0  0  0
   13.6109  -19.4350   23.3240 C   0  0  0  0  0  0  0  0  0  0  0  0
   14.1901  -20.2552   24.0592 O   0  0  0  0  0  0  0  0  0  0  0  0
   12.2553  -18.8807   23.6130 C   0  0  0  0  0  0  0  0  0  0  0  0
   11.9106  -17.9413   22.5042 C   0  0  0  0  0  0  0  0  0  0  0  0
   10.4801  -17.4938   22.6635 C   0  0  2  0  0  0  0  0  0  0  0  0
   10.0147  -16.6694   21.6006 N   0  0  0  0  0  0  0  0  0  0  0  0
   10.3290  -16.9033   24.0107 C   0  0  0  0  0  0  0  0  0  0  0  0
   10.6537  -15.7039   24.1587 O   0  0  0  0  0  0  0  0  0  0  0  0
    9.8409  -17.6165   25.1337 N   0  0  0  0  0  0  0  0  0  0  0  0
    9.6114  -17.0566   26.4484 C   0  0  1  0  0  0  0  0  0  0  0  0
    8.1175  -16.9515   26.6423 C   0  0  0  0  0  0  0  0  0  0  0  0
    7.5190  -15.7324   26.0973 C   0  0  0  0  0  0  0  0  0  0  0  0
    8.2136  -14.6855   25.5313 C   0  0  0  0  0  0  0  0  0  0  0  0
    7.2705  -13.7839   25.1679 N   0  0  0  0  0  0  0  0  0  0  0  0
    6.0480  -14.2431   25.4904 C   0  0  0  0  0  0  0  0  0  0  0  0
    6.1954  -15.4521   26.0675 N   0  0  0  0  0  0  0  0  0  0  0  0
   10.3028  -17.7704   27.5407 C   0  0  0  0  0  0  0  0  0  0  0  0
   10.6333  -17.1851   28.7412 O   0  0  0  0  0  0  0  0  0  0  0  0
   10.6025  -18.9765   27.3624 O   0  0  0  0  0  0  0  0  0  0  0  0
  1  2  1  0
  3  2  1  0
  4  5  1  0
  4  3  1  0
  5  6  1  1
  7  5  1  0
  8  7  2  0
 10  9  1  0
 10 12  1  0
 11 10  2  0
 13 12  1  0
 14 13  1  6
 14 15  1  0
 15  7  1  0
 16 14  1  0
 17 16  2  0
 18 16  1  0
 19 18  1  0
 19 20  1  1
 20 21  1  0
 21 22  2  0
 23 22  1  0
 24 23  1  0
 25 21  1  0
 25 24  2  0
 26 19  1  0
 26 27  1  0
 28 26  2  0
M  END
$$$$
