MQH.pdb
     RDKit          3D

 28 28  0  0  1  0  0  0  0  0999 V2000
    8.6130  -11.0757   20.7735 C   0  0  0  0  0  0  0  0  0  0  0  0
    7.6469  -12.0709   19.6284 S   0  0  0  0  0  0  0  0  0  0  0  0
    7.9905  -13.8212   19.7575 C   0  0  0  0  0  0  0  0  0  0  0  0
    7.7096  -14.4365   21.0806 C   0  0  0  0  0  0  0  0  0  0  0  0
    8.0690  -15.9022   21.1602 C   0  0  2  0  0  0  0  0  0  0  0  0
    7.3627  -16.6108   20.1474 N   0  0  0  0  0  0  0  0  0  0  0  0
    7.8920  -16.4278   22.5399 C   0  0  0  0  0  0  0  0  0  0  0  0
    6.8129  -17.1041   22.6984 O   0  0  0  0  0  0  0  0  0  0  0  0
   10.7164  -20.6057   22.6897 N   0  0  0  0  0  0  0  0  0  0  0  0
   11.6290  -19.5221   22.8422 C   0  0  0  0  0  0  0  0  0  0  0  0
   12.8077  -19.6543   22.4655 O   0  0  0  0  0  0  0  0  0  0  0  0
   11.0947  -18.2719   23.4589 C   0  0  0  0  0  0  0  0  0  0  0  0
    9.6630  -18.5199   23.8037 C   0  0  0  0  0  0  0  0  0  0  0  0
    9.1045  -17.3033   24.4967 C   0  0  2  0  0  0  0  0  0  0  0  0
    8.7910  -16.2326   23.6129 N   0  0  0  0  0  0  0  0  0  0  0  0
   10.0189  -16.9413   25.6009 C   0  0  0  0  0  0  0  0  0  0  0  0
   10.6930  -17.8583   26.1209 O   0  0  0  0  0  0  0  0  0  0  0  0
   10.1714  -15.6230   26.0977 N   0  0  0  0  0  0  0  0  0  0  0  0
    9.9992  -15.2211   27.4774 C   0  0  1  0  0  0  0  0  0  0  0  0
    8.5152  -15.1482   27.7468 C   0  0  0  0  0  0  0  0  0  0  0  0
    7.8037  -14.1425   26.9569 C   0  0  0  0  0  0  0  0  0  0  0  0
    8.3651  -13.3515   25.9782 C   0  0  0  0  0  0  0  0  0  0  0  0
    7.3533  -12.5779   25.5177 N   0  0  0  0  0  0  0  0  0  0  0  0
    6.2165  -12.8698   26.1750 C   0  0  0  0  0  0  0  0  0  0  0  0
    6.4894  -13.8401   27.0696 N   0  0  0  0  0  0  0  0  0  0  0  0
   10.7383  -16.0532   28.4481 C   0  0  0  0  0  0  0  0  0  0  0  0
   11.3816  -17.2220   28.1122 O   0  0  0  0  0  0  0  0  0  0  0  0
   10.7819  -15.6702   29.6429 O   0  0  0  0  0  0  0  0  0  0  0  0
  1  2  1  0
  3  2  1  0
  4  5  1  0
  4  3  1  0
  5  6  1  6
  7  5  1  0
  8  7  2  0
 10  9  1  0
 10 12  1  0
 11 10  2  0
 13 12  1  0
 14 13  1  6
 14 15  1  0
 15  7  1  0
 16 14  1  0
 17 16  2  0
 18 16  1  0
 19 18  1  0
 19 20  1  1
 20 21  1  0
 21 22  2  0
 23 22  1  0
 24 23  1  0
 25 21  1  0
 25 24  2  0
 26 19  1  0
 26 27  1  0
 28 26  2  0
M  END
$$$$
