MQH.pdb
     RDKit          3D

 28 28  0  0  1  0  0  0  0  0999 V2000
    8.4951  -11.3140   20.6905 C   0  0  0  0  0  0  0  0  0  0  0  0
    7.4415  -12.0537   19.4343 S   0  0  0  0  0  0  0  0  0  0  0  0
    7.8492  -13.7613   19.0931 C   0  0  0  0  0  0  0  0  0  0  0  0
    8.2017  -14.5879   20.2765 C   0  0  0  0  0  0  0  0  0  0  0  0
    8.7200  -15.9637   19.9268 C   0  0  2  0  0  0  0  0  0  0  0  0
    7.7611  -16.6297   19.1122 N   0  0  0  0  0  0  0  0  0  0  0  0
    9.1415  -16.7075   21.1435 C   0  0  0  0  0  0  0  0  0  0  0  0
    8.2653  -17.5459   21.5635 O   0  0  0  0  0  0  0  0  0  0  0  0
   13.1999  -20.0004   23.8325 N   0  0  0  0  0  0  0  0  0  0  0  0
   12.9391  -19.9438   22.4328 C   0  0  0  0  0  0  0  0  0  0  0  0
   13.2122  -20.9245   21.7172 O   0  0  0  0  0  0  0  0  0  0  0  0
   12.3413  -18.6803   21.9086 C   0  0  0  0  0  0  0  0  0  0  0  0
   12.0712  -17.7938   23.0798 C   0  0  0  0  0  0  0  0  0  0  0  0
   10.6536  -17.2878   22.9990 C   0  0  2  0  0  0  0  0  0  0  0  0
   10.3747  -16.5479   21.8155 N   0  0  0  0  0  0  0  0  0  0  0  0
   10.3465  -16.5739   24.2569 C   0  0  0  0  0  0  0  0  0  0  0  0
   10.8257  -15.4276   24.4058 O   0  0  0  0  0  0  0  0  0  0  0  0
    9.5460  -17.1135   25.2942 N   0  0  0  0  0  0  0  0  0  0  0  0
    9.2667  -16.4695   26.5599 C   0  0  1  0  0  0  0  0  0  0  0  0
    7.7824  -16.1970   26.6125 C   0  0  0  0  0  0  0  0  0  0  0  0
    7.4176  -14.7893   26.4488 C   0  0  0  0  0  0  0  0  0  0  0  0
    8.3056  -13.7408   26.3445 C   0  0  0  0  0  0  0  0  0  0  0  0
    7.5385  -12.6331   26.2076 N   0  0  0  0  0  0  0  0  0  0  0  0
    6.2366  -12.9711   26.2256 C   0  0  0  0  0  0  0  0  0  0  0  0
    6.1549  -14.3081   26.3751 N   0  0  0  0  0  0  0  0  0  0  0  0
    9.7781  -17.1994   27.7375 C   0  0  0  0  0  0  0  0  0  0  0  0
   10.1637  -18.5197   27.7045 O   0  0  0  0  0  0  0  0  0  0  0  0
    9.8664  -16.5789   28.8253 O   0  0  0  0  0  0  0  0  0  0  0  0
  1  2  1  0
  3  2  1  0
  4  5  1  0
  4  3  1  0
  5  6  1  1
  7  5  1  0
  8  7  2  0
 10  9  1  0
 10 12  1  0
 11 10  2  0
 13 12  1  0
 14 13  1  1
 14 15  1  0
 15  7  1  0
 16 14  1  0
 17 16  2  0
 18 16  1  0
 19 18  1  0
 19 20  1  1
 20 21  1  0
 21 22  2  0
 23 22  1  0
 24 23  1  0
 25 21  1  0
 25 24  2  0
 26 19  1  0
 26 27  1  0
 28 26  2  0
M  END
$$$$
