MQH.pdb
     RDKit          3D

 28 28  0  0  1  0  0  0  0  0999 V2000
    7.8326  -11.3850   20.1227 C   0  0  0  0  0  0  0  0  0  0  0  0
    8.2538  -13.0851   20.5318 S   0  0  0  0  0  0  0  0  0  0  0  0
    6.9487  -14.2445   20.1431 C   0  0  0  0  0  0  0  0  0  0  0  0
    7.1834  -15.6467   20.5753 C   0  0  0  0  0  0  0  0  0  0  0  0
    8.2219  -16.3729   19.7519 C   0  0  2  0  0  0  0  0  0  0  0  0
    7.5800  -17.0217   18.6593 N   0  0  0  0  0  0  0  0  0  0  0  0
    9.0666  -17.2532   20.6021 C   0  0  0  0  0  0  0  0  0  0  0  0
    8.4907  -18.3495   20.9391 O   0  0  0  0  0  0  0  0  0  0  0  0
   14.0973  -20.4021   19.8299 N   0  0  0  0  0  0  0  0  0  0  0  0
   13.6738  -19.0764   19.5238 C   0  0  0  0  0  0  0  0  0  0  0  0
   14.4371  -18.3166   18.9003 O   0  0  0  0  0  0  0  0  0  0  0  0
   12.3098  -18.6809   19.9838 C   0  0  0  0  0  0  0  0  0  0  0  0
   12.4215  -18.2742   21.4165 C   0  0  0  0  0  0  0  0  0  0  0  0
   11.0654  -17.8435   21.9143 C   0  0  2  0  0  0  0  0  0  0  0  0
   10.3821  -16.9627   21.0293 N   0  0  0  0  0  0  0  0  0  0  0  0
   11.2217  -17.3308   23.2924 C   0  0  0  0  0  0  0  0  0  0  0  0
   12.0039  -16.3703   23.4694 O   0  0  0  0  0  0  0  0  0  0  0  0
   10.5393  -17.8643   24.4139 N   0  0  0  0  0  0  0  0  0  0  0  0
   11.1113  -18.0607   25.7287 C   0  0  1  0  0  0  0  0  0  0  0  0
   10.1174  -18.8553   26.5418 C   0  0  0  0  0  0  0  0  0  0  0  0
   10.5820  -19.2197   27.8808 C   0  0  0  0  0  0  0  0  0  0  0  0
   10.8728  -18.3327   28.8944 C   0  0  0  0  0  0  0  0  0  0  0  0
   11.2606  -19.0990   29.9416 N   0  0  0  0  0  0  0  0  0  0  0  0
   11.2151  -20.3994   29.6006 C   0  0  0  0  0  0  0  0  0  0  0  0
   10.7947  -20.4810   28.3228 N   0  0  0  0  0  0  0  0  0  0  0  0
   12.4691  -18.6416   25.7188 C   0  0  0  0  0  0  0  0  0  0  0  0
   12.7547  -19.8972   25.2343 O   0  0  0  0  0  0  0  0  0  0  0  0
   13.4117  -17.9496   26.1759 O   0  0  0  0  0  0  0  0  0  0  0  0
  1  2  1  0
  3  2  1  0
  4  5  1  0
  4  3  1  0
  5  6  1  6
  7  5  1  0
  8  7  2  0
 10  9  1  0
 10 12  1  0
 11 10  2  0
 13 12  1  0
 14 13  1  6
 14 15  1  0
 15  7  1  0
 16 14  1  0
 17 16  2  0
 18 16  1  0
 19 18  1  0
 19 20  1  1
 20 21  1  0
 21 22  2  0
 23 22  1  0
 24 23  1  0
 25 21  1  0
 25 24  2  0
 26 19  1  0
 26 27  1  0
 28 26  2  0
M  END
$$$$
