MQH.pdb
     RDKit          3D

 28 28  0  0  1  0  0  0  0  0999 V2000
    4.8937  -11.0245   27.8996 C   0  0  0  0  0  0  0  0  0  0  0  0
    6.3636  -11.9858   27.5118 S   0  0  0  0  0  0  0  0  0  0  0  0
    5.9921  -13.5547   26.7378 C   0  0  0  0  0  0  0  0  0  0  0  0
    6.9458  -13.9962   25.6872 C   0  0  0  0  0  0  0  0  0  0  0  0
    6.5663  -15.3026   25.0293 C   0  0  2  0  0  0  0  0  0  0  0  0
    6.5313  -16.3283   26.0159 N   0  0  0  0  0  0  0  0  0  0  0  0
    7.4307  -15.5862   23.8529 C   0  0  0  0  0  0  0  0  0  0  0  0
    8.2712  -16.5360   24.0491 O   0  0  0  0  0  0  0  0  0  0  0  0
    7.6279  -13.2190   18.0756 N   0  0  0  0  0  0  0  0  0  0  0  0
    8.6294  -14.2281   17.9801 C   0  0  0  0  0  0  0  0  0  0  0  0
    9.1830  -14.4421   16.8862 O   0  0  0  0  0  0  0  0  0  0  0  0
    8.9533  -14.9776   19.2298 C   0  0  0  0  0  0  0  0  0  0  0  0
    8.1057  -14.4129   20.3222 C   0  0  0  0  0  0  0  0  0  0  0  0
    8.2621  -15.2628   21.5573 C   0  0  2  0  0  0  0  0  0  0  0  0
    7.3772  -14.9079   22.6141 N   0  0  0  0  0  0  0  0  0  0  0  0
    9.6927  -15.2741   21.9312 C   0  0  0  0  0  0  0  0  0  0  0  0
   10.1708  -14.2306   22.4293 O   0  0  0  0  0  0  0  0  0  0  0  0
   10.5440  -16.3933   21.7568 N   0  0  0  0  0  0  0  0  0  0  0  0
   11.9097  -16.4899   22.2261 C   0  0  1  0  0  0  0  0  0  0  0  0
   12.0869  -17.8639   22.8268 C   0  0  0  0  0  0  0  0  0  0  0  0
   11.3198  -18.0944   24.0515 C   0  0  0  0  0  0  0  0  0  0  0  0
   10.9557  -17.1250   24.9605 C   0  0  0  0  0  0  0  0  0  0  0  0
   10.2656  -17.7786   25.9252 N   0  0  0  0  0  0  0  0  0  0  0  0
   10.2013  -19.0905   25.6348 C   0  0  0  0  0  0  0  0  0  0  0  0
   10.8537  -19.2930   24.4730 N   0  0  0  0  0  0  0  0  0  0  0  0
   12.9257  -16.1512   21.2092 C   0  0  0  0  0  0  0  0  0  0  0  0
   12.6251  -15.8912   19.8920 O   0  0  0  0  0  0  0  0  0  0  0  0
   14.1273  -16.0967   21.5690 O   0  0  0  0  0  0  0  0  0  0  0  0
  1  2  1  0
  3  2  1  0
  4  5  1  0
  4  3  1  0
  5  6  1  1
  7  5  1  0
  8  7  2  0
 10  9  1  0
 10 12  1  0
 11 10  2  0
 13 12  1  0
 14 13  1  6
 14 15  1  0
 15  7  1  0
 16 14  1  0
 17 16  2  0
 18 16  1  0
 19 18  1  0
 19 20  1  6
 20 21  1  0
 21 22  2  0
 23 22  1  0
 24 23  1  0
 25 21  1  0
 25 24  2  0
 26 19  1  0
 26 27  1  0
 28 26  2  0
M  END
$$$$
