MQH.pdb
     RDKit          3D

 28 28  0  0  1  0  0  0  0  0999 V2000
    8.0647  -12.7982   17.2783 C   0  0  0  0  0  0  0  0  0  0  0  0
    7.9209  -12.5398   19.0524 S   0  0  0  0  0  0  0  0  0  0  0  0
    6.5377  -13.4104   19.7786 C   0  0  0  0  0  0  0  0  0  0  0  0
    6.8437  -14.7526   20.3379 C   0  0  0  0  0  0  0  0  0  0  0  0
    8.3043  -14.9573   20.6674 C   0  0  2  0  0  0  0  0  0  0  0  0
    9.0031  -15.3202   19.4813 N   0  0  0  0  0  0  0  0  0  0  0  0
    8.4742  -15.8914   21.8119 C   0  0  0  0  0  0  0  0  0  0  0  0
    7.5245  -15.8284   22.6729 O   0  0  0  0  0  0  0  0  0  0  0  0
   12.5015  -20.5845   22.0617 N   0  0  0  0  0  0  0  0  0  0  0  0
   11.5029  -20.0683   21.1860 C   0  0  0  0  0  0  0  0  0  0  0  0
   11.7204  -20.0304   19.9613 O   0  0  0  0  0  0  0  0  0  0  0  0
   10.2332  -19.5970   21.8140 C   0  0  0  0  0  0  0  0  0  0  0  0
   10.6020  -18.7630   22.9967 C   0  0  0  0  0  0  0  0  0  0  0  0
    9.6149  -17.6316   23.1296 C   0  0  2  0  0  0  0  0  0  0  0  0
    9.5558  -16.7841   21.9876 N   0  0  0  0  0  0  0  0  0  0  0  0
    9.8867  -16.9298   24.4025 C   0  0  0  0  0  0  0  0  0  0  0  0
   10.8249  -16.1020   24.4202 O   0  0  0  0  0  0  0  0  0  0  0  0
    9.1483  -17.1426   25.5931 N   0  0  0  0  0  0  0  0  0  0  0  0
    9.4043  -16.5014   26.8650 C   0  0  1  0  0  0  0  0  0  0  0  0
    8.1193  -15.8436   27.3082 C   0  0  0  0  0  0  0  0  0  0  0  0
    7.8159  -14.5842   26.6274 C   0  0  0  0  0  0  0  0  0  0  0  0
    8.6190  -13.9677   25.6927 C   0  0  0  0  0  0  0  0  0  0  0  0
    7.9540  -12.8440   25.3334 N   0  0  0  0  0  0  0  0  0  0  0  0
    6.7938  -12.7613   26.0091 C   0  0  0  0  0  0  0  0  0  0  0  0
    6.7022  -13.8384   26.8139 N   0  0  0  0  0  0  0  0  0  0  0  0
    9.9979  -17.3905   27.8839 C   0  0  0  0  0  0  0  0  0  0  0  0
   10.4659  -16.9472   29.0993 O   0  0  0  0  0  0  0  0  0  0  0  0
   10.0769  -18.6165   27.6251 O   0  0  0  0  0  0  0  0  0  0  0  0
  1  2  1  0
  3  2  1  0
  4  5  1  0
  4  3  1  0
  5  6  1  6
  7  5  1  0
  8  7  2  0
 10  9  1  0
 10 12  1  0
 11 10  2  0
 13 12  1  0
 14 13  1  6
 14 15  1  0
 15  7  1  0
 16 14  1  0
 17 16  2  0
 18 16  1  0
 19 18  1  0
 19 20  1  1
 20 21  1  0
 21 22  2  0
 23 22  1  0
 24 23  1  0
 25 21  1  0
 25 24  2  0
 26 19  1  0
 26 27  1  0
 28 26  2  0
M  END
$$$$
