MQH.pdb
     RDKit          3D

 28 28  0  0  1  0  0  0  0  0999 V2000
    8.8674  -11.2465   20.2626 C   0  0  0  0  0  0  0  0  0  0  0  0
    7.6043  -12.2408   19.4556 S   0  0  0  0  0  0  0  0  0  0  0  0
    7.8975  -13.9991   19.5993 C   0  0  0  0  0  0  0  0  0  0  0  0
    8.0954  -14.5081   20.9813 C   0  0  0  0  0  0  0  0  0  0  0  0
    8.4086  -15.9850   21.0482 C   0  0  2  0  0  0  0  0  0  0  0  0
    7.3797  -16.7100   20.3830 N   0  0  0  0  0  0  0  0  0  0  0  0
    8.6843  -16.4160   22.4445 C   0  0  0  0  0  0  0  0  0  0  0  0
    7.7376  -16.1382   23.2652 O   0  0  0  0  0  0  0  0  0  0  0  0
   12.9374  -20.2271   24.9510 N   0  0  0  0  0  0  0  0  0  0  0  0
   12.1363  -19.9257   26.0903 C   0  0  0  0  0  0  0  0  0  0  0  0
   12.3669  -20.4970   27.1715 O   0  0  0  0  0  0  0  0  0  0  0  0
   11.0486  -18.9205   25.9033 C   0  0  0  0  0  0  0  0  0  0  0  0
   11.0612  -18.5099   24.4674 C   0  0  0  0  0  0  0  0  0  0  0  0
    9.9995  -17.4634   24.2442 C   0  0  2  0  0  0  0  0  0  0  0  0
    9.8572  -17.0712   22.8834 N   0  0  0  0  0  0  0  0  0  0  0  0
   10.2470  -16.3479   25.1827 C   0  0  0  0  0  0  0  0  0  0  0  0
   11.0810  -15.4786   24.8444 O   0  0  0  0  0  0  0  0  0  0  0  0
    9.5964  -16.2117   26.4342 N   0  0  0  0  0  0  0  0  0  0  0  0
    9.8894  -15.1997   27.4265 C   0  0  1  0  0  0  0  0  0  0  0  0
    8.5715  -14.7062   27.9739 C   0  0  0  0  0  0  0  0  0  0  0  0
    7.7711  -13.9326   27.0239 C   0  0  0  0  0  0  0  0  0  0  0  0
    8.1251  -13.6545   25.7215 C   0  0  0  0  0  0  0  0  0  0  0  0
    7.1017  -12.9230   25.2199 N   0  0  0  0  0  0  0  0  0  0  0  0
    6.1555  -12.7517   26.1605 C   0  0  0  0  0  0  0  0  0  0  0  0
    6.5650  -13.3760   27.2825 N   0  0  0  0  0  0  0  0  0  0  0  0
   10.8412  -15.6312   28.4699 C   0  0  0  0  0  0  0  0  0  0  0  0
   11.3459  -14.7884   29.4332 O   0  0  0  0  0  0  0  0  0  0  0  0
   11.2064  -16.8323   28.4771 O   0  0  0  0  0  0  0  0  0  0  0  0
  1  2  1  0
  3  2  1  0
  4  5  1  0
  4  3  1  0
  5  6  1  1
  7  5  1  0
  8  7  2  0
 10  9  1  0
 10 12  1  0
 11 10  2  0
 13 12  1  0
 14 13  1  6
 14 15  1  0
 15  7  1  0
 16 14  1  0
 17 16  2  0
 18 16  1  0
 19 18  1  0
 19 20  1  1
 20 21  1  0
 21 22  2  0
 23 22  1  0
 24 23  1  0
 25 21  1  0
 25 24  2  0
 26 19  1  0
 26 27  1  0
 28 26  2  0
M  END
$$$$
