MQH.pdb
     RDKit          3D

 28 28  0  0  1  0  0  0  0  0999 V2000
    6.4281  -12.6902   25.6660 C   0  0  0  0  0  0  0  0  0  0  0  0
    6.5021  -11.5302   24.2933 S   0  0  0  0  0  0  0  0  0  0  0  0
    6.5494  -12.3346   22.6967 C   0  0  0  0  0  0  0  0  0  0  0  0
    7.7330  -13.1971   22.4452 C   0  0  0  0  0  0  0  0  0  0  0  0
    7.7816  -13.7738   21.0491 C   0  0  2  0  0  0  0  0  0  0  0  0
    6.5414  -14.4125   20.7654 N   0  0  0  0  0  0  0  0  0  0  0  0
    8.9880  -14.6218   20.8566 C   0  0  0  0  0  0  0  0  0  0  0  0
    8.7179  -15.8470   20.5867 O   0  0  0  0  0  0  0  0  0  0  0  0
   13.7305  -14.1229   17.8666 N   0  0  0  0  0  0  0  0  0  0  0  0
   14.1648  -15.2809   18.5742 C   0  0  0  0  0  0  0  0  0  0  0  0
   14.8782  -16.1215   17.9971 O   0  0  0  0  0  0  0  0  0  0  0  0
   13.7228  -15.4088   19.9944 C   0  0  0  0  0  0  0  0  0  0  0  0
   12.6635  -14.3821   20.2273 C   0  0  0  0  0  0  0  0  0  0  0  0
   11.4042  -15.0688   20.6908 C   0  0  2  0  0  0  0  0  0  0  0  0
   10.3261  -14.1765   20.9503 N   0  0  0  0  0  0  0  0  0  0  0  0
   11.7525  -15.9570   21.8205 C   0  0  0  0  0  0  0  0  0  0  0  0
   12.5232  -16.9153   21.5895 O   0  0  0  0  0  0  0  0  0  0  0  0
   11.2644  -15.7830   23.1394 N   0  0  0  0  0  0  0  0  0  0  0  0
   11.5032  -16.6823   24.2479 C   0  0  1  0  0  0  0  0  0  0  0  0
   10.6867  -17.9290   24.0047 C   0  0  0  0  0  0  0  0  0  0  0  0
    9.2385  -17.7271   24.0637 C   0  0  0  0  0  0  0  0  0  0  0  0
    8.6073  -16.5146   24.2377 C   0  0  0  0  0  0  0  0  0  0  0  0
    7.2824  -16.7953   24.2294 N   0  0  0  0  0  0  0  0  0  0  0  0
    7.0940  -18.1163   24.0592 C   0  0  0  0  0  0  0  0  0  0  0  0
    8.3042  -18.7002   23.9556 N   0  0  0  0  0  0  0  0  0  0  0  0
   12.9308  -16.9505   24.5145 C   0  0  0  0  0  0  0  0  0  0  0  0
   13.3769  -17.7054   25.5747 O   0  0  0  0  0  0  0  0  0  0  0  0
   13.7807  -16.4638   23.7290 O   0  0  0  0  0  0  0  0  0  0  0  0
  1  2  1  0
  3  2  1  0
  4  5  1  0
  4  3  1  0
  5  6  1  1
  7  5  1  0
  8  7  2  0
 10  9  1  0
 10 12  1  0
 11 10  2  0
 13 12  1  0
 14 13  1  1
 14 15  1  0
 15  7  1  0
 16 14  1  0
 17 16  2  0
 18 16  1  0
 19 18  1  0
 19 20  1  6
 20 21  1  0
 21 22  2  0
 23 22  1  0
 24 23  1  0
 25 21  1  0
 25 24  2  0
 26 19  1  0
 26 27  1  0
 28 26  2  0
M  END
$$$$
