IHV.pdb
     RDKit          3D

 26 26  0  0  1  0  0  0  0  0999 V2000
    7.7301  -11.8291   18.8221 C   0  0  0  0  0  0  0  0  0  0  0  0
    8.1427  -13.2666   18.9450 C   0  0  0  0  0  0  0  0  0  0  0  0
    7.6359  -13.8834   20.2529 C   0  0  2  0  0  0  0  0  0  0  0  0
    8.2768  -13.1036   21.3811 C   0  0  0  0  0  0  0  0  0  0  0  0
    8.1839  -15.2941   20.3096 C   0  0  2  0  0  0  0  0  0  0  0  0
    7.5273  -16.0642   19.2782 N   0  0  0  0  0  0  0  0  0  0  0  0
    7.9588  -15.8879   21.6759 C   0  0  0  0  0  0  0  0  0  0  0  0
    6.7830  -16.2334   21.9495 O   0  0  0  0  0  0  0  0  0  0  0  0
    9.0630  -16.0091   22.5286 N   0  0  0  0  0  0  0  0  0  0  0  0
    8.9038  -16.5987   23.9044 C   0  0  1  0  0  0  0  0  0  0  0  0
    9.9061  -17.6728   24.0492 C   0  0  0  0  0  0  0  0  0  0  0  0
    9.6030  -18.9555   23.4125 C   0  0  0  0  0  0  0  0  0  0  0  0
    8.5892  -19.3812   22.6062 C   0  0  0  0  0  0  0  0  0  0  0  0
    8.8200  -20.6377   22.1955 N   0  0  0  0  0  0  0  0  0  0  0  0
    9.9787  -21.0326   22.7288 C   0  0  0  0  0  0  0  0  0  0  0  0
   10.4610  -20.0339   23.4617 N   0  0  0  0  0  0  0  0  0  0  0  0
    9.0859  -15.3913   24.7404 C   0  0  0  0  0  0  0  0  0  0  0  0
   10.2781  -14.8692   24.7231 O   0  0  0  0  0  0  0  0  0  0  0  0
    7.1613  -11.9724   25.3964 C   0  0  0  0  0  0  0  0  0  0  0  0
    7.5088  -12.6433   26.7085 C   0  0  1  0  0  0  0  0  0  0  0  0
    6.3096  -13.2826   27.3371 C   0  0  0  0  0  0  0  0  0  0  0  0
    8.6335  -13.5993   26.4396 C   0  0  2  0  0  0  0  0  0  0  0  0
    8.2075  -14.6946   25.5576 N   0  0  0  0  0  0  0  0  0  0  0  0
    9.0363  -14.2261   27.7250 C   0  0  0  0  0  0  0  0  0  0  0  0
    9.6961  -13.4780   28.6994 O   0  0  0  0  0  0  0  0  0  0  0  0
    8.8135  -15.4293   28.0021 O   0  0  0  0  0  0  0  0  0  0  0  0
  2  3  1  0
  2  1  1  0
  3  4  1  1
  5  6  1  6
  5  3  1  0
  7  5  1  0
  8  7  2  0
  9  7  1  0
 10  9  1  0
 11 12  1  0
 10 11  1  1
 12 16  1  0
 13 14  1  0
 13 12  2  0
 14 15  1  0
 15 16  2  0
 17 10  1  0
 17 18  2  0
 20 19  1  6
 20 22  1  0
 20 21  1  0
 22 23  1  6
 23 17  1  0
 24 22  1  0
 25 24  1  0
 26 24  2  0
M  END
$$$$
