IHV.pdb
     RDKit          3D

 26 26  0  0  1  0  0  0  0  0999 V2000
    7.5398  -11.6646   19.3949 C   0  0  0  0  0  0  0  0  0  0  0  0
    7.9746  -13.1002   19.3537 C   0  0  0  0  0  0  0  0  0  0  0  0
    7.5723  -13.8427   20.6323 C   0  0  2  0  0  0  0  0  0  0  0  0
    8.2767  -13.1507   21.7796 C   0  0  0  0  0  0  0  0  0  0  0  0
    8.1483  -15.2391   20.5239 C   0  0  2  0  0  0  0  0  0  0  0  0
    7.3851  -15.9551   19.5275 N   0  0  0  0  0  0  0  0  0  0  0  0
    8.1017  -15.9292   21.8624 C   0  0  0  0  0  0  0  0  0  0  0  0
    6.9850  -16.3750   22.2241 O   0  0  0  0  0  0  0  0  0  0  0  0
    9.2918  -16.0213   22.5949 N   0  0  0  0  0  0  0  0  0  0  0  0
    9.3193  -16.7349   23.9199 C   0  0  1  0  0  0  0  0  0  0  0  0
   10.4284  -17.7083   23.8805 C   0  0  0  0  0  0  0  0  0  0  0  0
   10.2064  -18.9391   23.1200 C   0  0  0  0  0  0  0  0  0  0  0  0
    9.1609  -19.8105   23.0384 C   0  0  0  0  0  0  0  0  0  0  0  0
    9.4078  -20.7450   22.1074 N   0  0  0  0  0  0  0  0  0  0  0  0
   10.6077  -20.4867   21.5815 C   0  0  0  0  0  0  0  0  0  0  0  0
   11.0996  -19.4058   22.1787 N   0  0  0  0  0  0  0  0  0  0  0  0
    9.4630  -15.5879   24.8437 C   0  0  0  0  0  0  0  0  0  0  0  0
   10.4976  -14.8254   24.6375 O   0  0  0  0  0  0  0  0  0  0  0  0
    7.8328  -12.3052   25.5904 C   0  0  0  0  0  0  0  0  0  0  0  0
    7.9424  -13.0457   26.9065 C   0  0  1  0  0  0  0  0  0  0  0  0
    6.6375  -13.6638   27.3033 C   0  0  0  0  0  0  0  0  0  0  0  0
    9.0645  -14.0328   26.7739 C   0  0  2  0  0  0  0  0  0  0  0  0
    8.6873  -15.1613   25.9118 N   0  0  0  0  0  0  0  0  0  0  0  0
    9.3496  -14.6045   28.1153 C   0  0  0  0  0  0  0  0  0  0  0  0
    9.9059  -13.8105   29.1176 O   0  0  0  0  0  0  0  0  0  0  0  0
    9.1142  -15.7993   28.4170 O   0  0  0  0  0  0  0  0  0  0  0  0
  2  3  1  0
  2  1  1  0
  3  4  1  1
  5  6  1  6
  5  3  1  0
  7  5  1  0
  8  7  2  0
  9  7  1  0
 10  9  1  0
 11 12  1  0
 10 11  1  6
 12 16  1  0
 13 14  1  0
 13 12  2  0
 14 15  1  0
 15 16  2  0
 17 10  1  0
 17 18  2  0
 20 19  1  6
 20 22  1  0
 20 21  1  0
 22 23  1  6
 23 17  1  0
 24 22  1  0
 25 24  1  0
 26 24  2  0
M  END
$$$$
