IHV.pdb
     RDKit          3D

 26 26  0  0  1  0  0  0  0  0999 V2000
    7.4672  -11.6633   19.2234 C   0  0  0  0  0  0  0  0  0  0  0  0
    8.0550  -13.0373   19.0885 C   0  0  0  0  0  0  0  0  0  0  0  0
    7.7585  -13.8956   20.3227 C   0  0  2  0  0  0  0  0  0  0  0  0
    8.4506  -13.2312   21.4936 C   0  0  0  0  0  0  0  0  0  0  0  0
    8.4347  -15.2316   20.0962 C   0  0  2  0  0  0  0  0  0  0  0  0
    7.7672  -15.8824   18.9922 N   0  0  0  0  0  0  0  0  0  0  0  0
    8.3784  -16.0652   21.3499 C   0  0  0  0  0  0  0  0  0  0  0  0
    7.2444  -16.4762   21.6987 O   0  0  0  0  0  0  0  0  0  0  0  0
    9.5794  -16.3169   22.0249 N   0  0  0  0  0  0  0  0  0  0  0  0
    9.5824  -17.0969   23.3124 C   0  0  1  0  0  0  0  0  0  0  0  0
   10.7111  -18.0468   23.2569 C   0  0  0  0  0  0  0  0  0  0  0  0
   10.5037  -19.2825   22.5003 C   0  0  0  0  0  0  0  0  0  0  0  0
    9.5969  -20.2960   22.5978 C   0  0  0  0  0  0  0  0  0  0  0  0
    9.7647  -21.1668   21.5906 N   0  0  0  0  0  0  0  0  0  0  0  0
   10.7750  -20.7258   20.8371 C   0  0  0  0  0  0  0  0  0  0  0  0
   11.2289  -19.5958   21.3700 N   0  0  0  0  0  0  0  0  0  0  0  0
    9.6770  -15.9961   24.2969 C   0  0  0  0  0  0  0  0  0  0  0  0
   10.7010  -15.2044   24.1594 O   0  0  0  0  0  0  0  0  0  0  0  0
    6.7249  -14.2125   26.3993 C   0  0  0  0  0  0  0  0  0  0  0  0
    8.0221  -13.4731   26.1484 C   0  0  1  0  0  0  0  0  0  0  0  0
    8.1900  -12.3176   27.0858 C   0  0  0  0  0  0  0  0  0  0  0  0
    9.1332  -14.4786   26.2216 C   0  0  2  0  0  0  0  0  0  0  0  0
    8.8635  -15.6399   25.3626 N   0  0  0  0  0  0  0  0  0  0  0  0
    9.2117  -14.9933   27.6131 C   0  0  0  0  0  0  0  0  0  0  0  0
    9.7383  -14.1991   28.6312 O   0  0  0  0  0  0  0  0  0  0  0  0
    8.8207  -16.1382   27.9452 O   0  0  0  0  0  0  0  0  0  0  0  0
  2  3  1  0
  2  1  1  0
  3  4  1  1
  5  6  1  6
  5  3  1  0
  7  5  1  0
  8  7  2  0
  9  7  1  0
 10  9  1  0
 11 12  1  0
 10 11  1  6
 12 16  1  0
 13 14  1  0
 13 12  2  0
 14 15  1  0
 15 16  2  0
 17 10  1  0
 17 18  2  0
 20 19  1  1
 20 22  1  0
 20 21  1  0
 22 23  1  6
 23 17  1  0
 24 22  1  0
 25 24  1  0
 26 24  2  0
M  END
$$$$
