IHV.pdb
     RDKit          3D

 26 26  0  0  1  0  0  0  0  0999 V2000
    7.6867  -11.8742   19.6440 C   0  0  0  0  0  0  0  0  0  0  0  0
    8.1422  -13.2992   19.5271 C   0  0  0  0  0  0  0  0  0  0  0  0
    8.0196  -14.0365   20.8647 C   0  0  2  0  0  0  0  0  0  0  0  0
    8.9716  -13.3582   21.8266 C   0  0  0  0  0  0  0  0  0  0  0  0
    8.5337  -15.4424   20.6353 C   0  0  2  0  0  0  0  0  0  0  0  0
    7.6460  -16.0890   19.6961 N   0  0  0  0  0  0  0  0  0  0  0  0
    8.6054  -16.1923   21.9400 C   0  0  0  0  0  0  0  0  0  0  0  0
    7.5121  -16.5639   22.4332 O   0  0  0  0  0  0  0  0  0  0  0  0
    9.8696  -16.4166   22.4992 N   0  0  0  0  0  0  0  0  0  0  0  0
   10.0208  -17.2809   23.7223 C   0  0  1  0  0  0  0  0  0  0  0  0
   11.0329  -18.3118   23.4188 C   0  0  0  0  0  0  0  0  0  0  0  0
   10.5744  -19.5040   22.7040 C   0  0  0  0  0  0  0  0  0  0  0  0
    9.3391  -19.9762   22.3722 C   0  0  0  0  0  0  0  0  0  0  0  0
    9.4521  -21.0780   21.6143 N   0  0  0  0  0  0  0  0  0  0  0  0
   10.7539  -21.3255   21.4499 C   0  0  0  0  0  0  0  0  0  0  0  0
   11.4403  -20.3895   22.0977 N   0  0  0  0  0  0  0  0  0  0  0  0
   10.3806  -16.2615   24.7329 C   0  0  0  0  0  0  0  0  0  0  0  0
   11.4666  -15.5865   24.4896 O   0  0  0  0  0  0  0  0  0  0  0  0
    8.1376  -14.4609   27.5987 C   0  0  0  0  0  0  0  0  0  0  0  0
    9.4921  -13.8617   27.2847 C   0  0  1  0  0  0  0  0  0  0  0  0
   10.0065  -13.0325   28.4205 C   0  0  0  0  0  0  0  0  0  0  0  0
   10.4028  -14.9893   26.8971 C   0  0  2  0  0  0  0  0  0  0  0  0
    9.7666  -15.8802   25.9170 N   0  0  0  0  0  0  0  0  0  0  0  0
   10.6712  -15.8138   28.1036 C   0  0  0  0  0  0  0  0  0  0  0  0
   11.5565  -15.3649   29.0830 O   0  0  0  0  0  0  0  0  0  0  0  0
   10.1337  -16.9290   28.3070 O   0  0  0  0  0  0  0  0  0  0  0  0
  2  3  1  0
  2  1  1  0
  3  4  1  1
  5  6  1  6
  5  3  1  0
  7  5  1  0
  8  7  2  0
  9  7  1  0
 10  9  1  0
 11 12  1  0
 10 11  1  6
 12 16  1  0
 13 14  1  0
 13 12  2  0
 14 15  1  0
 15 16  2  0
 17 10  1  0
 17 18  2  0
 20 19  1  1
 20 22  1  0
 20 21  1  0
 22 23  1  6
 23 17  1  0
 24 22  1  0
 25 24  1  0
 26 24  2  0
M  END
$$$$
