IHV.pdb
     RDKit          3D

 26 26  0  0  1  0  0  0  0  0999 V2000
    7.8365  -11.7068   18.8668 C   0  0  0  0  0  0  0  0  0  0  0  0
    8.2674  -13.1433   18.9160 C   0  0  0  0  0  0  0  0  0  0  0  0
    7.7262  -13.8465   20.1652 C   0  0  2  0  0  0  0  0  0  0  0  0
    8.2894  -13.1084   21.3608 C   0  0  0  0  0  0  0  0  0  0  0  0
    8.3204  -15.2394   20.1723 C   0  0  2  0  0  0  0  0  0  0  0  0
    7.6946  -15.9915   19.1089 N   0  0  0  0  0  0  0  0  0  0  0  0
    8.1090  -15.8912   21.5140 C   0  0  0  0  0  0  0  0  0  0  0  0
    6.9463  -16.2940   21.7639 O   0  0  0  0  0  0  0  0  0  0  0  0
    9.2105  -15.9985   22.3722 N   0  0  0  0  0  0  0  0  0  0  0  0
    9.0804  -16.7014   23.6969 C   0  0  1  0  0  0  0  0  0  0  0  0
   10.1331  -17.7343   23.7602 C   0  0  0  0  0  0  0  0  0  0  0  0
    9.8772  -18.9891   23.0512 C   0  0  0  0  0  0  0  0  0  0  0  0
    9.0363  -20.0372   23.2822 C   0  0  0  0  0  0  0  0  0  0  0  0
    9.1018  -20.9159   22.2699 N   0  0  0  0  0  0  0  0  0  0  0  0
    9.9799  -20.4456   21.3806 C   0  0  0  0  0  0  0  0  0  0  0  0
   10.4537  -19.2897   21.8352 N   0  0  0  0  0  0  0  0  0  0  0  0
    9.2045  -15.5561   24.6258 C   0  0  0  0  0  0  0  0  0  0  0  0
   10.3017  -14.8636   24.5219 O   0  0  0  0  0  0  0  0  0  0  0  0
    7.4725  -12.2478   25.2809 C   0  0  0  0  0  0  0  0  0  0  0  0
    7.5860  -12.9653   26.6092 C   0  0  1  0  0  0  0  0  0  0  0  0
    6.2836  -13.5807   27.0182 C   0  0  0  0  0  0  0  0  0  0  0  0
    8.7111  -13.9510   26.4921 C   0  0  2  0  0  0  0  0  0  0  0  0
    8.3547  -15.0696   25.6085 N   0  0  0  0  0  0  0  0  0  0  0  0
    8.9645  -14.5380   27.8332 C   0  0  0  0  0  0  0  0  0  0  0  0
    9.5249  -13.7638   28.8486 O   0  0  0  0  0  0  0  0  0  0  0  0
    8.6975  -15.7290   28.1234 O   0  0  0  0  0  0  0  0  0  0  0  0
  2  3  1  0
  2  1  1  0
  3  4  1  1
  5  6  1  6
  5  3  1  0
  7  5  1  0
  8  7  2  0
  9  7  1  0
 10  9  1  0
 11 12  1  0
 10 11  1  1
 12 16  1  0
 13 14  1  0
 13 12  2  0
 14 15  1  0
 15 16  2  0
 17 10  1  0
 17 18  2  0
 20 19  1  6
 20 22  1  0
 20 21  1  0
 22 23  1  6
 23 17  1  0
 24 22  1  0
 25 24  1  0
 26 24  2  0
M  END
$$$$
