IHV.pdb
     RDKit          3D

 26 26  0  0  1  0  0  0  0  0999 V2000
    7.8434  -12.1206   19.0221 C   0  0  0  0  0  0  0  0  0  0  0  0
    8.1800  -13.5546   19.3081 C   0  0  0  0  0  0  0  0  0  0  0  0
    7.2585  -14.1412   20.3827 C   0  0  2  0  0  0  0  0  0  0  0  0
    7.5264  -13.3692   21.6570 C   0  0  0  0  0  0  0  0  0  0  0  0
    7.7125  -15.5674   20.6138 C   0  0  2  0  0  0  0  0  0  0  0  0
    7.1363  -16.3879   19.5732 N   0  0  0  0  0  0  0  0  0  0  0  0
    7.2956  -16.0331   21.9847 C   0  0  0  0  0  0  0  0  0  0  0  0
    6.0697  -16.2440   22.1557 O   0  0  0  0  0  0  0  0  0  0  0  0
    8.2931  -16.1944   22.9543 N   0  0  0  0  0  0  0  0  0  0  0  0
    7.9337  -16.5970   24.3595 C   0  0  1  0  0  0  0  0  0  0  0  0
    8.4841  -17.9469   24.5923 C   0  0  0  0  0  0  0  0  0  0  0  0
    7.7310  -19.0759   24.0440 C   0  0  0  0  0  0  0  0  0  0  0  0
    6.4008  -19.3067   23.8539 C   0  0  0  0  0  0  0  0  0  0  0  0
    6.2194  -20.4714   23.2123 N   0  0  0  0  0  0  0  0  0  0  0  0
    7.4239  -21.0000   22.9827 C   0  0  0  0  0  0  0  0  0  0  0  0
    8.3414  -20.1741   23.4757 N   0  0  0  0  0  0  0  0  0  0  0  0
    8.5370  -15.4831   25.1244 C   0  0  0  0  0  0  0  0  0  0  0  0
    9.8123  -15.2991   24.9395 O   0  0  0  0  0  0  0  0  0  0  0  0
    7.7693  -11.7043   25.6021 C   0  0  0  0  0  0  0  0  0  0  0  0
    8.0299  -12.3124   26.9639 C   0  0  1  0  0  0  0  0  0  0  0  0
    6.7624  -12.4925   27.7406 C   0  0  0  0  0  0  0  0  0  0  0  0
    8.7938  -13.5856   26.7481 C   0  0  2  0  0  0  0  0  0  0  0  0
    7.9894  -14.5774   26.0212 N   0  0  0  0  0  0  0  0  0  0  0  0
    9.0999  -14.1817   28.0741 C   0  0  0  0  0  0  0  0  0  0  0  0
    9.9899  -13.5516   28.9432 O   0  0  0  0  0  0  0  0  0  0  0  0
    8.5913  -15.2549   28.4787 O   0  0  0  0  0  0  0  0  0  0  0  0
  2  3  1  0
  2  1  1  0
  3  4  1  1
  5  6  1  6
  5  3  1  0
  7  5  1  0
  8  7  2  0
  9  7  1  0
 10  9  1  0
 11 12  1  0
 10 11  1  1
 12 16  1  0
 13 14  1  0
 13 12  2  0
 14 15  1  0
 15 16  2  0
 17 10  1  0
 17 18  2  0
 20 19  1  6
 20 22  1  0
 20 21  1  0
 22 23  1  6
 23 17  1  0
 24 22  1  0
 25 24  1  0
 26 24  2  0
M  END
$$$$
