IHV.pdb
     RDKit          3D

 26 26  0  0  1  0  0  0  0  0999 V2000
    6.6799  -12.4421   25.7547 C   0  0  0  0  0  0  0  0  0  0  0  0
    6.6229  -13.6026   24.8051 C   0  0  0  0  0  0  0  0  0  0  0  0
    7.6574  -13.4586   23.6840 C   0  0  2  0  0  0  0  0  0  0  0  0
    7.2153  -12.2903   22.8288 C   0  0  0  0  0  0  0  0  0  0  0  0
    7.5534  -14.7070   22.8331 C   0  0  2  0  0  0  0  0  0  0  0  0
    6.1563  -15.0651   22.7439 N   0  0  0  0  0  0  0  0  0  0  0  0
    8.3755  -15.8182   23.4325 C   0  0  0  0  0  0  0  0  0  0  0  0
    7.7753  -16.6041   24.2063 O   0  0  0  0  0  0  0  0  0  0  0  0
    9.7306  -15.8917   23.0869 N   0  0  0  0  0  0  0  0  0  0  0  0
   10.6076  -16.9713   23.6622 C   0  0  1  0  0  0  0  0  0  0  0  0
   11.7205  -17.1937   22.7181 C   0  0  0  0  0  0  0  0  0  0  0  0
   12.7321  -18.1792   23.1027 C   0  0  0  0  0  0  0  0  0  0  0  0
   14.0464  -18.0806   23.4516 C   0  0  0  0  0  0  0  0  0  0  0  0
   14.5191  -19.2808   23.8220 N   0  0  0  0  0  0  0  0  0  0  0  0
   13.5199  -20.1603   23.7171 C   0  0  0  0  0  0  0  0  0  0  0  0
   12.4407  -19.5144   23.2868 N   0  0  0  0  0  0  0  0  0  0  0  0
   10.9466  -16.3762   24.9740 C   0  0  0  0  0  0  0  0  0  0  0  0
   11.5274  -15.2121   24.9306 O   0  0  0  0  0  0  0  0  0  0  0  0
    8.9606  -15.2965   27.7585 C   0  0  0  0  0  0  0  0  0  0  0  0
   10.4120  -14.8697   27.6996 C   0  0  1  0  0  0  0  0  0  0  0  0
   10.8152  -14.1105   28.9256 C   0  0  0  0  0  0  0  0  0  0  0  0
   11.2323  -16.1015   27.4530 C   0  0  2  0  0  0  0  0  0  0  0  0
   10.7590  -16.8335   26.2702 N   0  0  0  0  0  0  0  0  0  0  0  0
   11.0651  -17.0181   28.6103 C   0  0  0  0  0  0  0  0  0  0  0  0
   11.6489  -16.7166   29.8402 O   0  0  0  0  0  0  0  0  0  0  0  0
   10.4085  -18.0856   28.5518 O   0  0  0  0  0  0  0  0  0  0  0  0
  2  3  1  0
  2  1  1  0
  3  4  1  6
  5  6  1  1
  5  3  1  0
  7  5  1  0
  8  7  2  0
  9  7  1  0
 10  9  1  0
 11 12  1  0
 10 11  1  6
 12 16  1  0
 13 14  1  0
 13 12  2  0
 14 15  1  0
 15 16  2  0
 17 10  1  0
 17 18  2  0
 20 19  1  1
 20 22  1  0
 20 21  1  0
 22 23  1  6
 23 17  1  0
 24 22  1  0
 25 24  1  0
 26 24  2  0
M  END
$$$$
