IHV.pdb
     RDKit          3D

 26 26  0  0  1  0  0  0  0  0999 V2000
    7.1215  -11.0907   26.7727 C   0  0  0  0  0  0  0  0  0  0  0  0
    6.6041  -12.4658   26.4678 C   0  0  0  0  0  0  0  0  0  0  0  0
    6.6616  -12.7642   24.9660 C   0  0  2  0  0  0  0  0  0  0  0  0
    5.6933  -11.8141   24.2942 C   0  0  0  0  0  0  0  0  0  0  0  0
    6.1216  -14.1668   24.7802 C   0  0  2  0  0  0  0  0  0  0  0  0
    5.0581  -14.3608   25.7390 N   0  0  0  0  0  0  0  0  0  0  0  0
    7.2231  -15.1790   24.9585 C   0  0  0  0  0  0  0  0  0  0  0  0
    7.1973  -15.8542   26.0169 O   0  0  0  0  0  0  0  0  0  0  0  0
    8.1821  -15.2908   23.9440 N   0  0  0  0  0  0  0  0  0  0  0  0
    9.2002  -16.3990   23.9747 C   0  0  1  0  0  0  0  0  0  0  0  0
    9.9152  -16.3852   22.6833 C   0  0  0  0  0  0  0  0  0  0  0  0
   10.9915  -17.3617   22.5085 C   0  0  0  0  0  0  0  0  0  0  0  0
   12.3507  -17.2578   22.4792 C   0  0  0  0  0  0  0  0  0  0  0  0
   12.9070  -18.4760   22.3931 N   0  0  0  0  0  0  0  0  0  0  0  0
   11.9180  -19.3728   22.3671 C   0  0  0  0  0  0  0  0  0  0  0  0
   10.7623  -18.7195   22.4359 N   0  0  0  0  0  0  0  0  0  0  0  0
    9.9758  -16.0225   25.1775 C   0  0  0  0  0  0  0  0  0  0  0  0
   10.7432  -14.9791   25.0484 O   0  0  0  0  0  0  0  0  0  0  0  0
   11.1914  -15.1075   29.6878 C   0  0  0  0  0  0  0  0  0  0  0  0
   10.2467  -15.2876   28.5185 C   0  0  1  0  0  0  0  0  0  0  0  0
    9.7421  -13.9735   28.0079 C   0  0  0  0  0  0  0  0  0  0  0  0
   10.9638  -16.1042   27.4840 C   0  0  2  0  0  0  0  0  0  0  0  0
   10.0420  -16.5830   26.4448 N   0  0  0  0  0  0  0  0  0  0  0  0
   11.5213  -17.3138   28.1422 C   0  0  0  0  0  0  0  0  0  0  0  0
   11.0507  -18.5822   27.8040 O   0  0  0  0  0  0  0  0  0  0  0  0
   12.4214  -17.2678   29.0151 O   0  0  0  0  0  0  0  0  0  0  0  0
  2  3  1  0
  2  1  1  0
  3  4  1  6
  5  6  1  1
  5  3  1  0
  7  5  1  0
  8  7  2  0
  9  7  1  0
 10  9  1  0
 11 12  1  0
 10 11  1  6
 12 16  1  0
 13 14  1  0
 13 12  2  0
 14 15  1  0
 15 16  2  0
 17 10  1  0
 17 18  2  0
 20 19  1  1
 20 22  1  0
 20 21  1  0
 22 23  1  6
 23 17  1  0
 24 22  1  0
 25 24  1  0
 26 24  2  0
M  END
$$$$
