IHV.pdb
     RDKit          3D

 26 26  0  0  1  0  0  0  0  0999 V2000
    8.5551  -12.3465   18.2570 C   0  0  0  0  0  0  0  0  0  0  0  0
    8.7002  -13.7953   18.6198 C   0  0  0  0  0  0  0  0  0  0  0  0
    7.7960  -14.1693   19.7990 C   0  0  2  0  0  0  0  0  0  0  0  0
    8.3494  -13.4598   21.0163 C   0  0  0  0  0  0  0  0  0  0  0  0
    7.9686  -15.6568   20.0249 C   0  0  2  0  0  0  0  0  0  0  0  0
    7.3681  -16.3456   18.9055 N   0  0  0  0  0  0  0  0  0  0  0  0
    7.3387  -16.0637   21.3316 C   0  0  0  0  0  0  0  0  0  0  0  0
    6.0841  -16.1049   21.3597 O   0  0  0  0  0  0  0  0  0  0  0  0
    8.1880  -16.3622   22.4045 N   0  0  0  0  0  0  0  0  0  0  0  0
    7.6192  -16.7384   23.7464 C   0  0  1  0  0  0  0  0  0  0  0  0
    8.2080  -18.0355   24.1338 C   0  0  0  0  0  0  0  0  0  0  0  0
    7.9445  -18.5055   25.4947 C   0  0  0  0  0  0  0  0  0  0  0  0
    7.1102  -18.0783   26.4849 C   0  0  0  0  0  0  0  0  0  0  0  0
    7.1624  -18.9188   27.5298 N   0  0  0  0  0  0  0  0  0  0  0  0
    8.0252  -19.8914   27.2255 C   0  0  0  0  0  0  0  0  0  0  0  0
    8.5029  -19.6575   26.0073 N   0  0  0  0  0  0  0  0  0  0  0  0
    8.0081  -15.5566   24.5476 C   0  0  0  0  0  0  0  0  0  0  0  0
    9.2212  -15.1238   24.3598 O   0  0  0  0  0  0  0  0  0  0  0  0
    5.6354  -13.0524   26.8704 C   0  0  0  0  0  0  0  0  0  0  0  0
    6.8952  -12.5066   26.2322 C   0  0  1  0  0  0  0  0  0  0  0  0
    7.4065  -11.3021   26.9603 C   0  0  0  0  0  0  0  0  0  0  0  0
    7.8836  -13.6327   26.1557 C   0  0  2  0  0  0  0  0  0  0  0  0
    7.3097  -14.8055   25.4818 N   0  0  0  0  0  0  0  0  0  0  0  0
    8.2159  -14.0624   27.5386 C   0  0  0  0  0  0  0  0  0  0  0  0
    7.8546  -15.3313   27.9899 O   0  0  0  0  0  0  0  0  0  0  0  0
    8.8230  -13.3314   28.3579 O   0  0  0  0  0  0  0  0  0  0  0  0
  2  3  1  0
  2  1  1  0
  3  4  1  1
  5  6  1  6
  5  3  1  0
  7  5  1  0
  8  7  2  0
  9  7  1  0
 10  9  1  0
 11 12  1  0
 10 11  1  1
 12 16  1  0
 13 14  1  0
 13 12  2  0
 14 15  1  0
 15 16  2  0
 17 10  1  0
 17 18  2  0
 20 19  1  1
 20 22  1  0
 20 21  1  0
 22 23  1  6
 23 17  1  0
 24 22  1  0
 25 24  1  0
 26 24  2  0
M  END
$$$$
