IHV.pdb
     RDKit          3D

 26 26  0  0  1  0  0  0  0  0999 V2000
    7.6012  -11.7721   18.7833 C   0  0  0  0  0  0  0  0  0  0  0  0
    8.1815  -13.1543   18.8505 C   0  0  0  0  0  0  0  0  0  0  0  0
    7.7843  -13.8645   20.1489 C   0  0  2  0  0  0  0  0  0  0  0  0
    8.4929  -13.1436   21.2757 C   0  0  0  0  0  0  0  0  0  0  0  0
    8.3604  -15.2630   20.0735 C   0  0  2  0  0  0  0  0  0  0  0  0
    7.6513  -15.9771   19.0366 N   0  0  0  0  0  0  0  0  0  0  0  0
    8.2371  -15.9519   21.4077 C   0  0  0  0  0  0  0  0  0  0  0  0
    7.0975  -16.3820   21.7127 O   0  0  0  0  0  0  0  0  0  0  0  0
    9.3874  -16.0603   22.1991 N   0  0  0  0  0  0  0  0  0  0  0  0
    9.3467  -16.8036   23.5073 C   0  0  1  0  0  0  0  0  0  0  0  0
   10.4953  -17.7306   23.5308 C   0  0  0  0  0  0  0  0  0  0  0  0
   10.3399  -19.0004   22.8196 C   0  0  0  0  0  0  0  0  0  0  0  0
    9.3764  -19.9650   22.8310 C   0  0  0  0  0  0  0  0  0  0  0  0
    9.6485  -20.9029   21.9105 N   0  0  0  0  0  0  0  0  0  0  0  0
   10.7832  -20.5543   21.2991 C   0  0  0  0  0  0  0  0  0  0  0  0
   11.2103  -19.4145   21.8335 N   0  0  0  0  0  0  0  0  0  0  0  0
    9.3738  -15.6740   24.4629 C   0  0  0  0  0  0  0  0  0  0  0  0
   10.3716  -14.8486   24.3305 O   0  0  0  0  0  0  0  0  0  0  0  0
    6.3001  -14.1173   26.6684 C   0  0  0  0  0  0  0  0  0  0  0  0
    7.4760  -13.2437   26.2857 C   0  0  1  0  0  0  0  0  0  0  0  0
    7.5743  -12.0338   27.1624 C   0  0  0  0  0  0  0  0  0  0  0  0
    8.7025  -14.1078   26.3066 C   0  0  2  0  0  0  0  0  0  0  0  0
    8.5188  -15.3197   25.4964 N   0  0  0  0  0  0  0  0  0  0  0  0
    8.9330  -14.5646   27.7014 C   0  0  0  0  0  0  0  0  0  0  0  0
    9.4063  -13.6762   28.6664 O   0  0  0  0  0  0  0  0  0  0  0  0
    8.7220  -15.7411   28.0827 O   0  0  0  0  0  0  0  0  0  0  0  0
  2  3  1  0
  2  1  1  0
  3  4  1  1
  5  6  1  6
  5  3  1  0
  7  5  1  0
  8  7  2  0
  9  7  1  0
 10  9  1  0
 11 12  1  0
 10 11  1  1
 12 16  1  0
 13 14  1  0
 13 12  2  0
 14 15  1  0
 15 16  2  0
 17 10  1  0
 17 18  2  0
 20 19  1  1
 20 22  1  0
 20 21  1  0
 22 23  1  6
 23 17  1  0
 24 22  1  0
 25 24  1  0
 26 24  2  0
M  END
$$$$
