IHV.pdb
     RDKit          3D

 26 26  0  0  1  0  0  0  0  0999 V2000
    6.1016  -10.2711   26.4966 C   0  0  0  0  0  0  0  0  0  0  0  0
    5.5903  -11.5558   25.9137 C   0  0  0  0  0  0  0  0  0  0  0  0
    6.6631  -12.6495   25.9449 C   0  0  2  0  0  0  0  0  0  0  0  0
    7.7937  -12.1782   25.0556 C   0  0  0  0  0  0  0  0  0  0  0  0
    6.0551  -13.8739   25.2931 C   0  0  2  0  0  0  0  0  0  0  0  0
    4.8849  -14.2444   26.0555 N   0  0  0  0  0  0  0  0  0  0  0  0
    7.0625  -14.9929   25.2408 C   0  0  0  0  0  0  0  0  0  0  0  0
    7.1498  -15.7161   26.2635 O   0  0  0  0  0  0  0  0  0  0  0  0
    7.8174  -15.1420   24.0706 N   0  0  0  0  0  0  0  0  0  0  0  0
    8.7670  -16.2997   23.9172 C   0  0  1  0  0  0  0  0  0  0  0  0
    9.1761  -16.3577   22.5000 C   0  0  0  0  0  0  0  0  0  0  0  0
   10.1157  -17.4143   22.1216 C   0  0  0  0  0  0  0  0  0  0  0  0
   10.6642  -18.4626   22.7993 C   0  0  0  0  0  0  0  0  0  0  0  0
   11.4012  -19.2167   21.9691 N   0  0  0  0  0  0  0  0  0  0  0  0
   11.3351  -18.6660   20.7544 C   0  0  0  0  0  0  0  0  0  0  0  0
   10.5671  -17.5836   20.8297 N   0  0  0  0  0  0  0  0  0  0  0  0
    9.8070  -15.9308   24.9033 C   0  0  0  0  0  0  0  0  0  0  0  0
   10.5248  -14.8880   24.6008 O   0  0  0  0  0  0  0  0  0  0  0  0
   10.5000  -13.8705   27.4686 C   0  0  0  0  0  0  0  0  0  0  0  0
   10.9666  -15.1944   28.0360 C   0  0  1  0  0  0  0  0  0  0  0  0
    9.9374  -15.8031   28.9373 C   0  0  0  0  0  0  0  0  0  0  0  0
   11.3507  -16.0682   26.8784 C   0  0  2  0  0  0  0  0  0  0  0  0
   10.1705  -16.4982   26.1159 N   0  0  0  0  0  0  0  0  0  0  0  0
   11.9817  -17.3038   27.4101 C   0  0  0  0  0  0  0  0  0  0  0  0
   11.3895  -18.5478   27.1953 O   0  0  0  0  0  0  0  0  0  0  0  0
   13.0523  -17.3016   28.0642 O   0  0  0  0  0  0  0  0  0  0  0  0
  2  3  1  0
  2  1  1  0
  3  4  1  6
  5  6  1  1
  5  3  1  0
  7  5  1  0
  8  7  2  0
  9  7  1  0
 10  9  1  0
 11 12  1  0
 10 11  1  6
 12 16  1  0
 13 14  1  0
 13 12  2  0
 14 15  1  0
 15 16  2  0
 17 10  1  0
 17 18  2  0
 20 19  1  6
 20 22  1  0
 20 21  1  0
 22 23  1  1
 23 17  1  0
 24 22  1  0
 25 24  1  0
 26 24  2  0
M  END
$$$$
