IHV.pdb
     RDKit          3D

 26 26  0  0  1  0  0  0  0  0999 V2000
    9.9896  -20.9317   28.6946 C   0  0  0  0  0  0  0  0  0  0  0  0
    8.8165  -20.4273   27.9065 C   0  0  0  0  0  0  0  0  0  0  0  0
    9.0711  -19.0158   27.3672 C   0  0  2  0  0  0  0  0  0  0  0  0
    7.7345  -18.3053   27.3542 C   0  0  0  0  0  0  0  0  0  0  0  0
    9.5137  -19.1735   25.9275 C   0  0  2  0  0  0  0  0  0  0  0  0
   10.7749  -19.8788   25.9284 N   0  0  0  0  0  0  0  0  0  0  0  0
    9.6307  -17.8250   25.2659 C   0  0  0  0  0  0  0  0  0  0  0  0
   10.6396  -17.1400   25.5652 O   0  0  0  0  0  0  0  0  0  0  0  0
    8.6189  -17.4401   24.3774 N   0  0  0  0  0  0  0  0  0  0  0  0
    8.6105  -16.0572   23.7831 C   0  0  1  0  0  0  0  0  0  0  0  0
    8.0943  -16.1663   22.4043 C   0  0  0  0  0  0  0  0  0  0  0  0
    7.8048  -14.9153   21.7016 C   0  0  0  0  0  0  0  0  0  0  0  0
    8.0764  -13.6072   21.9737 C   0  0  0  0  0  0  0  0  0  0  0  0
    7.6846  -12.8301   20.9521 N   0  0  0  0  0  0  0  0  0  0  0  0
    7.1601  -13.6248   20.0158 C   0  0  0  0  0  0  0  0  0  0  0  0
    7.2253  -14.8792   20.4509 N   0  0  0  0  0  0  0  0  0  0  0  0
    7.7628  -15.3445   24.7646 C   0  0  0  0  0  0  0  0  0  0  0  0
    6.7465  -16.0162   25.2232 O   0  0  0  0  0  0  0  0  0  0  0  0
    8.5530  -12.2889   27.4522 C   0  0  0  0  0  0  0  0  0  0  0  0
    7.2380  -12.1566   26.7136 C   0  0  1  0  0  0  0  0  0  0  0  0
    7.3178  -11.1354   25.6213 C   0  0  0  0  0  0  0  0  0  0  0  0
    6.8520  -13.5254   26.2358 C   0  0  2  0  0  0  0  0  0  0  0  0
    7.8474  -14.0678   25.3008 N   0  0  0  0  0  0  0  0  0  0  0  0
    5.5780  -13.4181   25.4790 C   0  0  0  0  0  0  0  0  0  0  0  0
    4.3864  -13.1227   26.1403 O   0  0  0  0  0  0  0  0  0  0  0  0
    5.5005  -13.5819   24.2375 O   0  0  0  0  0  0  0  0  0  0  0  0
  2  3  1  0
  2  1  1  0
  3  4  1  6
  5  6  1  1
  5  3  1  0
  7  5  1  0
  8  7  2  0
  9  7  1  0
 10  9  1  0
 11 12  1  0
 10 11  1  6
 12 16  1  0
 13 14  1  0
 13 12  2  0
 14 15  1  0
 15 16  2  0
 17 10  1  0
 17 18  2  0
 20 19  1  6
 20 22  1  0
 20 21  1  0
 22 23  1  6
 23 17  1  0
 24 22  1  0
 25 24  1  0
 26 24  2  0
M  END
$$$$
