IHV.pdb
     RDKit          3D

 26 26  0  0  1  0  0  0  0  0999 V2000
    8.3094  -12.0931   20.2964 C   0  0  0  0  0  0  0  0  0  0  0  0
    8.5452  -13.5168   20.7078 C   0  0  0  0  0  0  0  0  0  0  0  0
    7.6967  -14.4860   19.8781 C   0  0  2  0  0  0  0  0  0  0  0  0
    6.2486  -14.1858   20.2012 C   0  0  0  0  0  0  0  0  0  0  0  0
    7.9962  -15.8779   20.3943 C   0  0  2  0  0  0  0  0  0  0  0  0
    7.4404  -16.8256   19.4557 N   0  0  0  0  0  0  0  0  0  0  0  0
    7.4202  -16.0588   21.7747 C   0  0  0  0  0  0  0  0  0  0  0  0
    6.1798  -16.2409   21.8445 O   0  0  0  0  0  0  0  0  0  0  0  0
    8.2993  -16.0111   22.8638 N   0  0  0  0  0  0  0  0  0  0  0  0
    7.8782  -16.5410   24.2083 C   0  0  1  0  0  0  0  0  0  0  0  0
    7.9347  -18.0148   24.1457 C   0  0  0  0  0  0  0  0  0  0  0  0
    7.7113  -18.7427   25.3958 C   0  0  0  0  0  0  0  0  0  0  0  0
    7.4046  -18.3476   26.6642 C   0  0  0  0  0  0  0  0  0  0  0  0
    7.2001  -19.4185   27.4467 N   0  0  0  0  0  0  0  0  0  0  0  0
    7.3711  -20.5088   26.6950 C   0  0  0  0  0  0  0  0  0  0  0  0
    7.6781  -20.1196   25.4615 N   0  0  0  0  0  0  0  0  0  0  0  0
    8.8603  -15.8665   25.0862 C   0  0  0  0  0  0  0  0  0  0  0  0
   10.0851  -15.8423   24.6461 O   0  0  0  0  0  0  0  0  0  0  0  0
    9.3281  -12.3824   26.6404 C   0  0  0  0  0  0  0  0  0  0  0  0
    9.5194  -13.4077   27.7378 C   0  0  1  0  0  0  0  0  0  0  0  0
    8.3271  -13.4798   28.6409 C   0  0  0  0  0  0  0  0  0  0  0  0
    9.8596  -14.7120   27.0790 C   0  0  2  0  0  0  0  0  0  0  0  0
    8.7204  -15.2414   26.3167 N   0  0  0  0  0  0  0  0  0  0  0  0
   10.1582  -15.7106   28.1378 C   0  0  0  0  0  0  0  0  0  0  0  0
   11.2766  -15.5587   28.9567 O   0  0  0  0  0  0  0  0  0  0  0  0
    9.4437  -16.7195   28.3518 O   0  0  0  0  0  0  0  0  0  0  0  0
  2  3  1  0
  2  1  1  0
  3  4  1  1
  5  6  1  6
  5  3  1  0
  7  5  1  0
  8  7  2  0
  9  7  1  0
 10  9  1  0
 11 12  1  0
 10 11  1  6
 12 16  1  0
 13 14  1  0
 13 12  2  0
 14 15  1  0
 15 16  2  0
 17 10  1  0
 17 18  2  0
 20 19  1  6
 20 22  1  0
 20 21  1  0
 22 23  1  1
 23 17  1  0
 24 22  1  0
 25 24  1  0
 26 24  2  0
M  END
$$$$
