GWY.pdb
     RDKit          3D

 31 33  0  0  1  0  0  0  0  0999 V2000
    5.2462  -15.6586   19.6688 N   0  0  0  0  0  0  0  0  0  0  0  0
    5.7722  -16.4941   20.7217 C   0  0  0  0  0  0  0  0  0  0  0  0
    6.9385  -15.9037   21.3952 C   0  0  0  0  0  0  0  0  0  0  0  0
    7.4458  -14.8701   20.8953 O   0  0  0  0  0  0  0  0  0  0  0  0
    7.5306  -16.4162   22.5670 N   0  0  0  0  0  0  0  0  0  0  0  0
    8.6960  -15.8281   23.2242 C   0  0  1  0  0  0  0  0  0  0  0  0
    8.6736  -16.0646   24.6869 C   0  0  0  0  0  0  0  0  0  0  0  0
    7.6524  -15.3329   25.4580 C   0  0  0  0  0  0  0  0  0  0  0  0
    6.5048  -15.8719   26.0331 C   0  0  0  0  0  0  0  0  0  0  0  0
    5.8623  -14.9051   26.6862 N   0  0  0  0  0  0  0  0  0  0  0  0
    6.5216  -13.7407   26.5778 C   0  0  0  0  0  0  0  0  0  0  0  0
    6.2596  -12.4709   27.0587 C   0  0  0  0  0  0  0  0  0  0  0  0
    7.1215  -11.4462   26.7720 C   0  0  0  0  0  0  0  0  0  0  0  0
    8.2547  -11.6491   26.0088 C   0  0  0  0  0  0  0  0  0  0  0  0
    8.4946  -12.9280   25.5401 C   0  0  0  0  0  0  0  0  0  0  0  0
    7.6500  -14.0111   25.8028 C   0  0  0  0  0  0  0  0  0  0  0  0
    9.9174  -16.2496   22.5531 C   0  0  0  0  0  0  0  0  0  0  0  0
   10.1072  -17.4455   22.1469 O   0  0  0  0  0  0  0  0  0  0  0  0
    8.0529  -13.4144   17.0670 O   0  0  0  0  0  0  0  0  0  0  0  0
    9.1293  -13.7218   17.8984 C   0  0  0  0  0  0  0  0  0  0  0  0
    9.9030  -14.8318   17.6757 C   0  0  0  0  0  0  0  0  0  0  0  0
   10.9801  -15.1503   18.4977 C   0  0  0  0  0  0  0  0  0  0  0  0
   11.3125  -14.3510   19.5799 C   0  0  0  0  0  0  0  0  0  0  0  0
   12.4319  -14.6308   20.4912 C   0  0  0  0  0  0  0  0  0  0  0  0
   12.1418  -15.8222   21.4320 C   0  0  2  0  0  0  0  0  0  0  0  0
   11.0304  -15.3687   22.2686 N   0  0  0  0  0  0  0  0  0  0  0  0
   13.3342  -16.0852   22.2420 C   0  0  0  0  0  0  0  0  0  0  0  0
   14.5002  -16.6266   21.7458 O   0  0  0  0  0  0  0  0  0  0  0  0
   10.5244  -13.2361   19.7911 C   0  0  0  0  0  0  0  0  0  0  0  0
    9.4510  -12.9127   18.9774 C   0  0  0  0  0  0  0  0  0  0  0  0
   13.3097  -15.8073   23.4693 O   0  0  0  0  0  0  0  0  0  0  0  0
  2  1  1  0
  3  4  2  0
  3  2  1  0
  5  3  1  0
  6  5  1  0
  6  7  1  1
  8 16  1  0
  8  7  1  0
  9  8  2  0
 10  9  1  0
 10 11  1  0
 11 16  2  0
 12 11  1  0
 12 13  2  0
 13 14  1  0
 14 15  2  0
 16 15  1  0
 17 26  1  0
 17  6  1  0
 18 17  2  0
 19 20  1  0
 20 21  2  0
 21 22  1  0
 23 22  2  0
 23 24  1  0
 25 24  1  6
 25 27  1  0
 25 26  1  0
 27 28  1  0
 29 23  1  0
 30 20  1  0
 30 29  2  0
 31 27  2  0
M  END
$$$$
