GWY.pdb
     RDKit          3D

 31 33  0  0  1  0  0  0  0  0999 V2000
    7.6766  -18.1040   20.4676 N   0  0  0  0  0  0  0  0  0  0  0  0
    7.7060  -18.0783   21.9105 C   0  0  0  0  0  0  0  0  0  0  0  0
    8.4889  -16.9561   22.4494 C   0  0  0  0  0  0  0  0  0  0  0  0
    9.0835  -16.2088   21.6348 O   0  0  0  0  0  0  0  0  0  0  0  0
    8.6203  -16.6571   23.8204 N   0  0  0  0  0  0  0  0  0  0  0  0
    9.4545  -15.5806   24.3508 C   0  0  1  0  0  0  0  0  0  0  0  0
    8.9704  -15.1172   25.6725 C   0  0  0  0  0  0  0  0  0  0  0  0
    7.6349  -14.4943   25.7046 C   0  0  0  0  0  0  0  0  0  0  0  0
    6.4287  -15.1344   25.9764 C   0  0  0  0  0  0  0  0  0  0  0  0
    5.4532  -14.2277   25.9603 N   0  0  0  0  0  0  0  0  0  0  0  0
    5.9443  -13.0079   25.6897 C   0  0  0  0  0  0  0  0  0  0  0  0
    5.3452  -11.7688   25.5549 C   0  0  0  0  0  0  0  0  0  0  0  0
    6.1115  -10.6746   25.2542 C   0  0  0  0  0  0  0  0  0  0  0  0
    7.4780  -10.7766   25.0804 C   0  0  0  0  0  0  0  0  0  0  0  0
    8.0531  -12.0265   25.2209 C   0  0  0  0  0  0  0  0  0  0  0  0
    7.3199  -13.1769   25.5282 C   0  0  0  0  0  0  0  0  0  0  0  0
   10.8578  -15.9668   24.3121 C   0  0  0  0  0  0  0  0  0  0  0  0
   11.7990  -15.1351   24.0801 O   0  0  0  0  0  0  0  0  0  0  0  0
   10.0749  -15.6073   30.4477 O   0  0  0  0  0  0  0  0  0  0  0  0
   10.7181  -16.2741   29.4055 C   0  0  0  0  0  0  0  0  0  0  0  0
   11.6239  -15.6292   28.6031 C   0  0  0  0  0  0  0  0  0  0  0  0
   12.2728  -16.2827   27.5595 C   0  0  0  0  0  0  0  0  0  0  0  0
   12.0253  -17.6196   27.2912 C   0  0  0  0  0  0  0  0  0  0  0  0
   12.6700  -18.3693   26.2031 C   0  0  0  0  0  0  0  0  0  0  0  0
   12.7329  -17.5608   24.8873 C   0  0  2  0  0  0  0  0  0  0  0  0
   11.3332  -17.3153   24.5388 N   0  0  0  0  0  0  0  0  0  0  0  0
   13.3927  -18.3756   23.8637 C   0  0  0  0  0  0  0  0  0  0  0  0
   12.7570  -18.8771   22.7486 O   0  0  0  0  0  0  0  0  0  0  0  0
   11.1110  -18.2559   28.1083 C   0  0  0  0  0  0  0  0  0  0  0  0
   10.4612  -17.6121   29.1488 C   0  0  0  0  0  0  0  0  0  0  0  0
   14.6149  -18.6458   23.9953 O   0  0  0  0  0  0  0  0  0  0  0  0
  2  1  1  0
  3  4  2  0
  3  2  1  0
  5  3  1  0
  6  5  1  0
  6  7  1  1
  8 16  1  0
  8  7  1  0
  9  8  2  0
 10  9  1  0
 10 11  1  0
 11 16  2  0
 12 11  1  0
 12 13  2  0
 13 14  1  0
 14 15  2  0
 16 15  1  0
 17 26  1  0
 17  6  1  0
 18 17  2  0
 19 20  1  0
 20 21  2  0
 21 22  1  0
 23 22  2  0
 23 24  1  0
 25 24  1  1
 25 27  1  0
 25 26  1  0
 27 28  1  0
 29 23  1  0
 30 20  1  0
 30 29  2  0
 31 27  2  0
M  END
$$$$
