GWY.pdb
     RDKit          3D

 31 33  0  0  1  0  0  0  0  0999 V2000
    3.9375  -18.1886   21.5966 N   0  0  0  0  0  0  0  0  0  0  0  0
    4.9668  -18.5293   22.5494 C   0  0  0  0  0  0  0  0  0  0  0  0
    5.9694  -17.4666   22.7169 C   0  0  0  0  0  0  0  0  0  0  0  0
    5.9529  -16.5091   21.9054 O   0  0  0  0  0  0  0  0  0  0  0  0
    6.9517  -17.4447   23.7273 N   0  0  0  0  0  0  0  0  0  0  0  0
    7.9205  -16.3656   23.9088 C   0  0  1  0  0  0  0  0  0  0  0  0
    8.1432  -16.0692   25.3436 C   0  0  0  0  0  0  0  0  0  0  0  0
    7.2143  -15.1123   25.9714 C   0  0  0  0  0  0  0  0  0  0  0  0
    5.9465  -15.3955   26.4722 C   0  0  0  0  0  0  0  0  0  0  0  0
    5.4407  -14.2833   27.0026 N   0  0  0  0  0  0  0  0  0  0  0  0
    6.3067  -13.2646   26.8824 C   0  0  0  0  0  0  0  0  0  0  0  0
    6.2424  -11.9351   27.2575 C   0  0  0  0  0  0  0  0  0  0  0  0
    7.2955  -11.1027   26.9871 C   0  0  0  0  0  0  0  0  0  0  0  0
    8.4295  -11.5597   26.3443 C   0  0  0  0  0  0  0  0  0  0  0  0
    8.4695  -12.8933   25.9799 C   0  0  0  0  0  0  0  0  0  0  0  0
    7.4245  -13.7879   26.2317 C   0  0  0  0  0  0  0  0  0  0  0  0
    9.1286  -16.6410   23.1444 C   0  0  0  0  0  0  0  0  0  0  0  0
    9.6276  -17.8117   23.0353 O   0  0  0  0  0  0  0  0  0  0  0  0
    6.8152  -13.6167   17.3984 O   0  0  0  0  0  0  0  0  0  0  0  0
    7.9153  -13.9154   18.2015 C   0  0  0  0  0  0  0  0  0  0  0  0
    8.6222  -15.0781   18.0322 C   0  0  0  0  0  0  0  0  0  0  0  0
    9.7219  -15.3885   18.8268 C   0  0  0  0  0  0  0  0  0  0  0  0
   10.1460  -14.5271   19.8262 C   0  0  0  0  0  0  0  0  0  0  0  0
   11.2941  -14.7944   20.7048 C   0  0  0  0  0  0  0  0  0  0  0  0
   11.0541  -16.0042   21.6362 C   0  0  2  0  0  0  0  0  0  0  0  0
    9.8802  -15.6331   22.4267 N   0  0  0  0  0  0  0  0  0  0  0  0
   12.2291  -16.1802   22.4936 C   0  0  0  0  0  0  0  0  0  0  0  0
   12.2193  -16.0089   23.8610 O   0  0  0  0  0  0  0  0  0  0  0  0
    9.4243  -13.3597   19.9844 C   0  0  0  0  0  0  0  0  0  0  0  0
    8.3288  -13.0439   19.1974 C   0  0  0  0  0  0  0  0  0  0  0  0
   13.3243  -16.5062   21.9661 O   0  0  0  0  0  0  0  0  0  0  0  0
  2  1  1  0
  3  4  2  0
  3  2  1  0
  5  3  1  0
  6  5  1  0
  6  7  1  1
  8 16  1  0
  8  7  1  0
  9  8  2  0
 10  9  1  0
 10 11  1  0
 11 16  2  0
 12 11  1  0
 12 13  2  0
 13 14  1  0
 14 15  2  0
 16 15  1  0
 17 26  1  0
 17  6  1  0
 18 17  2  0
 19 20  1  0
 20 21  2  0
 21 22  1  0
 23 22  2  0
 23 24  1  0
 25 24  1  6
 25 27  1  0
 25 26  1  0
 27 28  1  0
 29 23  1  0
 30 20  1  0
 30 29  2  0
 31 27  2  0
M  END
$$$$
