GWY.pdb
     RDKit          3D

 31 33  0  0  1  0  0  0  0  0999 V2000
    8.2567  -20.2609   21.1871 N   0  0  0  0  0  0  0  0  0  0  0  0
    8.3409  -19.5557   22.4437 C   0  0  0  0  0  0  0  0  0  0  0  0
    9.1820  -18.3516   22.3716 C   0  0  0  0  0  0  0  0  0  0  0  0
   10.0402  -18.2872   21.4578 O   0  0  0  0  0  0  0  0  0  0  0  0
    9.0937  -17.2592   23.2577 N   0  0  0  0  0  0  0  0  0  0  0  0
    9.9442  -16.0727   23.1875 C   0  0  1  0  0  0  0  0  0  0  0  0
    9.1476  -14.8259   23.2688 C   0  0  0  0  0  0  0  0  0  0  0  0
    8.0999  -14.6446   22.2479 C   0  0  0  0  0  0  0  0  0  0  0  0
    6.7654  -15.0274   22.3536 C   0  0  0  0  0  0  0  0  0  0  0  0
    6.1261  -14.6499   21.2478 N   0  0  0  0  0  0  0  0  0  0  0  0
    6.9660  -14.0321   20.4022 C   0  0  0  0  0  0  0  0  0  0  0  0
    6.7887  -13.4803   19.1466 C   0  0  0  0  0  0  0  0  0  0  0  0
    7.8542  -12.9164   18.4973 C   0  0  0  0  0  0  0  0  0  0  0  0
    9.1117  -12.8840   19.0679 C   0  0  0  0  0  0  0  0  0  0  0  0
    9.2629  -13.4420   20.3243 C   0  0  0  0  0  0  0  0  0  0  0  0
    8.2104  -14.0296   21.0332 C   0  0  0  0  0  0  0  0  0  0  0  0
   11.0275  -16.1730   24.1551 C   0  0  0  0  0  0  0  0  0  0  0  0
   11.8473  -15.2193   24.3785 O   0  0  0  0  0  0  0  0  0  0  0  0
    8.7943  -12.3397   28.1040 O   0  0  0  0  0  0  0  0  0  0  0  0
    9.4809  -13.5380   27.9118 C   0  0  0  0  0  0  0  0  0  0  0  0
   10.7787  -13.5486   27.4693 C   0  0  0  0  0  0  0  0  0  0  0  0
   11.4755  -14.7374   27.2732 C   0  0  0  0  0  0  0  0  0  0  0  0
   10.8784  -15.9634   27.5197 C   0  0  0  0  0  0  0  0  0  0  0  0
   11.5529  -17.2558   27.3288 C   0  0  0  0  0  0  0  0  0  0  0  0
   12.3259  -17.3251   25.9921 C   0  0  2  0  0  0  0  0  0  0  0  0
   11.2840  -17.3452   24.9650 N   0  0  0  0  0  0  0  0  0  0  0  0
   13.1124  -18.5610   25.9652 C   0  0  0  0  0  0  0  0  0  0  0  0
   14.2639  -18.7590   26.6957 O   0  0  0  0  0  0  0  0  0  0  0  0
    9.5710  -15.9366   27.9655 C   0  0  0  0  0  0  0  0  0  0  0  0
    8.8711  -14.7575   28.1631 C   0  0  0  0  0  0  0  0  0  0  0  0
   12.7286  -19.5109   25.2340 O   0  0  0  0  0  0  0  0  0  0  0  0
  2  1  1  0
  3  4  2  0
  3  2  1  0
  5  3  1  0
  6  5  1  0
  6  7  1  1
  8 16  1  0
  8  7  1  0
  9  8  2  0
 10  9  1  0
 10 11  1  0
 11 16  2  0
 12 11  1  0
 12 13  2  0
 13 14  1  0
 14 15  2  0
 16 15  1  0
 17 26  1  0
 17  6  1  0
 18 17  2  0
 19 20  1  0
 20 21  2  0
 21 22  1  0
 23 22  2  0
 23 24  1  0
 25 24  1  1
 25 27  1  0
 25 26  1  0
 27 28  1  0
 29 23  1  0
 30 20  1  0
 30 29  2  0
 31 27  2  0
M  END
$$$$
