GWY.pdb
     RDKit          3D

 31 33  0  0  1  0  0  0  0  0999 V2000
   10.3650  -16.9798   17.7144 N   0  0  0  0  0  0  0  0  0  0  0  0
    9.8666  -17.6584   18.8869 C   0  0  0  0  0  0  0  0  0  0  0  0
    9.5761  -16.7431   20.0006 C   0  0  0  0  0  0  0  0  0  0  0  0
   10.1136  -15.6089   19.9855 O   0  0  0  0  0  0  0  0  0  0  0  0
    8.7337  -17.0481   21.0885 N   0  0  0  0  0  0  0  0  0  0  0  0
    8.5444  -16.1814   22.2500 C   0  0  1  0  0  0  0  0  0  0  0  0
    7.1617  -16.2692   22.7755 C   0  0  0  0  0  0  0  0  0  0  0  0
    6.8685  -15.4936   23.9942 C   0  0  0  0  0  0  0  0  0  0  0  0
    6.6306  -16.0076   25.2661 C   0  0  0  0  0  0  0  0  0  0  0  0
    6.4545  -14.9916   26.1091 N   0  0  0  0  0  0  0  0  0  0  0  0
    6.5615  -13.8181   25.4660 C   0  0  0  0  0  0  0  0  0  0  0  0
    6.4501  -12.5068   25.8909 C   0  0  0  0  0  0  0  0  0  0  0  0
    6.5959  -11.4872   24.9886 C   0  0  0  0  0  0  0  0  0  0  0  0
    6.8532  -11.7359   23.6545 C   0  0  0  0  0  0  0  0  0  0  0  0
    6.9605  -13.0555   23.2548 C   0  0  0  0  0  0  0  0  0  0  0  0
    6.8220  -14.1354   24.1324 C   0  0  0  0  0  0  0  0  0  0  0  0
    9.5910  -16.4226   23.2330 C   0  0  0  0  0  0  0  0  0  0  0  0
    9.8314  -17.5788   23.7194 O   0  0  0  0  0  0  0  0  0  0  0  0
   10.8180  -16.7694   31.2594 O   0  0  0  0  0  0  0  0  0  0  0  0
   10.7745  -16.2380   29.9710 C   0  0  0  0  0  0  0  0  0  0  0  0
    9.6320  -15.6598   29.4805 C   0  0  0  0  0  0  0  0  0  0  0  0
    9.5750  -15.1258   28.1965 C   0  0  0  0  0  0  0  0  0  0  0  0
   10.6796  -15.1592   27.3601 C   0  0  0  0  0  0  0  0  0  0  0  0
   10.6876  -14.6198   25.9924 C   0  0  0  0  0  0  0  0  0  0  0  0
   11.2511  -15.6276   24.9650 C   0  0  2  0  0  0  0  0  0  0  0  0
   10.4674  -15.3937   23.7518 N   0  0  0  0  0  0  0  0  0  0  0  0
   11.0398  -16.9861   25.4716 C   0  0  0  0  0  0  0  0  0  0  0  0
   12.0434  -17.7893   25.9684 O   0  0  0  0  0  0  0  0  0  0  0  0
   11.8232  -15.7443   27.8684 C   0  0  0  0  0  0  0  0  0  0  0  0
   11.8876  -16.2778   29.1452 C   0  0  0  0  0  0  0  0  0  0  0  0
    9.8766  -17.4666   25.4585 O   0  0  0  0  0  0  0  0  0  0  0  0
  2  1  1  0
  3  4  2  0
  3  2  1  0
  5  3  1  0
  6  5  1  0
  6  7  1  1
  8 16  1  0
  8  7  1  0
  9  8  2  0
 10  9  1  0
 10 11  1  0
 11 16  2  0
 12 11  1  0
 12 13  2  0
 13 14  1  0
 14 15  2  0
 16 15  1  0
 17 26  1  0
 17  6  1  0
 18 17  2  0
 19 20  1  0
 20 21  2  0
 21 22  1  0
 23 22  2  0
 23 24  1  0
 25 24  1  1
 25 27  1  0
 25 26  1  0
 27 28  1  0
 29 23  1  0
 30 20  1  0
 30 29  2  0
 31 27  2  0
M  END
$$$$
