GWY.pdb
     RDKit          3D

 31 33  0  0  1  0  0  0  0  0999 V2000
    7.1722  -15.6852   18.2872 N   0  0  0  0  0  0  0  0  0  0  0  0
    7.0674  -16.3855   19.5450 C   0  0  0  0  0  0  0  0  0  0  0  0
    8.0068  -15.8867   20.5605 C   0  0  0  0  0  0  0  0  0  0  0  0
    8.8434  -15.0182   20.2120 O   0  0  0  0  0  0  0  0  0  0  0  0
    8.0359  -16.3146   21.9030 N   0  0  0  0  0  0  0  0  0  0  0  0
    8.9534  -15.7911   22.9131 C   0  0  1  0  0  0  0  0  0  0  0  0
    8.5077  -16.1345   24.2840 C   0  0  0  0  0  0  0  0  0  0  0  0
    7.3872  -15.3477   24.8300 C   0  0  0  0  0  0  0  0  0  0  0  0
    6.1797  -15.8481   25.3093 C   0  0  0  0  0  0  0  0  0  0  0  0
    5.4476  -14.8314   25.7615 N   0  0  0  0  0  0  0  0  0  0  0  0
    6.1038  -13.6702   25.6088 C   0  0  0  0  0  0  0  0  0  0  0  0
    5.7685  -12.3620   25.9063 C   0  0  0  0  0  0  0  0  0  0  0  0
    6.6501  -11.3543   25.6198 C   0  0  0  0  0  0  0  0  0  0  0  0
    7.8754  -11.6120   25.0365 C   0  0  0  0  0  0  0  0  0  0  0  0
    8.1872  -12.9284   24.7493 C   0  0  0  0  0  0  0  0  0  0  0  0
    7.3265  -13.9964   25.0210 C   0  0  0  0  0  0  0  0  0  0  0  0
   10.3213  -16.1771   22.5978 C   0  0  0  0  0  0  0  0  0  0  0  0
   10.6049  -17.1321   21.7984 O   0  0  0  0  0  0  0  0  0  0  0  0
   11.2560  -15.6667   30.9601 O   0  0  0  0  0  0  0  0  0  0  0  0
   11.0763  -15.6441   29.5776 C   0  0  0  0  0  0  0  0  0  0  0  0
   10.9659  -16.8058   28.8576 C   0  0  0  0  0  0  0  0  0  0  0  0
   10.7864  -16.7974   27.4774 C   0  0  0  0  0  0  0  0  0  0  0  0
   10.7122  -15.6052   26.7748 C   0  0  0  0  0  0  0  0  0  0  0  0
   10.5296  -15.5233   25.3182 C   0  0  0  0  0  0  0  0  0  0  0  0
   11.8574  -15.6997   24.5472 C   0  0  2  0  0  0  0  0  0  0  0  0
   11.4930  -15.5232   23.1412 N   0  0  0  0  0  0  0  0  0  0  0  0
   12.3685  -17.0512   24.7904 C   0  0  0  0  0  0  0  0  0  0  0  0
   11.7834  -18.1977   24.2981 O   0  0  0  0  0  0  0  0  0  0  0  0
   10.8245  -14.4433   27.5137 C   0  0  0  0  0  0  0  0  0  0  0  0
   11.0032  -14.4438   28.8875 C   0  0  0  0  0  0  0  0  0  0  0  0
   13.4040  -17.1934   25.4916 O   0  0  0  0  0  0  0  0  0  0  0  0
  2  1  1  0
  3  4  2  0
  3  2  1  0
  5  3  1  0
  6  5  1  0
  6  7  1  1
  8 16  1  0
  8  7  1  0
  9  8  2  0
 10  9  1  0
 10 11  1  0
 11 16  2  0
 12 11  1  0
 12 13  2  0
 13 14  1  0
 14 15  2  0
 16 15  1  0
 17 26  1  0
 17  6  1  0
 18 17  2  0
 19 20  1  0
 20 21  2  0
 21 22  1  0
 23 22  2  0
 23 24  1  0
 25 24  1  1
 25 27  1  0
 25 26  1  0
 27 28  1  0
 29 23  1  0
 30 20  1  0
 30 29  2  0
 31 27  2  0
M  END
$$$$
