GWY.pdb
     RDKit          3D

 31 33  0  0  1  0  0  0  0  0999 V2000
    5.6664  -19.2310   23.4481 N   0  0  0  0  0  0  0  0  0  0  0  0
    6.9744  -19.3319   24.0501 C   0  0  0  0  0  0  0  0  0  0  0  0
    7.7761  -18.1095   23.8908 C   0  0  0  0  0  0  0  0  0  0  0  0
    8.0727  -17.7481   22.7258 O   0  0  0  0  0  0  0  0  0  0  0  0
    8.2375  -17.3102   24.9559 N   0  0  0  0  0  0  0  0  0  0  0  0
    9.1652  -16.1914   24.8024 C   0  0  1  0  0  0  0  0  0  0  0  0
    8.9946  -15.1903   25.8815 C   0  0  0  0  0  0  0  0  0  0  0  0
    7.6642  -14.5664   25.9984 C   0  0  0  0  0  0  0  0  0  0  0  0
    6.4754  -15.2077   26.3358 C   0  0  0  0  0  0  0  0  0  0  0  0
    5.5020  -14.3000   26.3855 N   0  0  0  0  0  0  0  0  0  0  0  0
    5.9779  -13.0783   26.0970 C   0  0  0  0  0  0  0  0  0  0  0  0
    5.3738  -11.8375   26.0089 C   0  0  0  0  0  0  0  0  0  0  0  0
    6.1224  -10.7414   25.6728 C   0  0  0  0  0  0  0  0  0  0  0  0
    7.4760  -10.8431   25.4172 C   0  0  0  0  0  0  0  0  0  0  0  0
    8.0566  -12.0948   25.5124 C   0  0  0  0  0  0  0  0  0  0  0  0
    7.3413  -13.2472   25.8525 C   0  0  0  0  0  0  0  0  0  0  0  0
   10.5243  -16.6852   24.6327 C   0  0  0  0  0  0  0  0  0  0  0  0
   11.2462  -17.0769   25.6108 O   0  0  0  0  0  0  0  0  0  0  0  0
   10.8765  -22.6226   26.1510 O   0  0  0  0  0  0  0  0  0  0  0  0
   11.3256  -21.6194   25.2931 C   0  0  0  0  0  0  0  0  0  0  0  0
   12.6101  -21.1452   25.3673 C   0  0  0  0  0  0  0  0  0  0  0  0
   13.0712  -20.1442   24.5172 C   0  0  0  0  0  0  0  0  0  0  0  0
   12.2423  -19.5856   23.5572 C   0  0  0  0  0  0  0  0  0  0  0  0
   12.6614  -18.5227   22.6318 C   0  0  0  0  0  0  0  0  0  0  0  0
   12.6168  -17.1223   23.2843 C   0  0  2  0  0  0  0  0  0  0  0  0
   11.1928  -16.7933   23.3531 N   0  0  0  0  0  0  0  0  0  0  0  0
   13.3320  -16.1772   22.4227 C   0  0  0  0  0  0  0  0  0  0  0  0
   14.7041  -16.1259   22.3056 O   0  0  0  0  0  0  0  0  0  0  0  0
   10.9515  -20.0738   23.4942 C   0  0  0  0  0  0  0  0  0  0  0  0
   10.4855  -21.0699   24.3367 C   0  0  0  0  0  0  0  0  0  0  0  0
   12.6687  -15.3526   21.7415 O   0  0  0  0  0  0  0  0  0  0  0  0
  2  1  1  0
  3  4  2  0
  3  2  1  0
  5  3  1  0
  6  5  1  0
  6  7  1  1
  8 16  1  0
  8  7  1  0
  9  8  2  0
 10  9  1  0
 10 11  1  0
 11 16  2  0
 12 11  1  0
 12 13  2  0
 13 14  1  0
 14 15  2  0
 16 15  1  0
 17 26  1  0
 17  6  1  0
 18 17  2  0
 19 20  1  0
 20 21  2  0
 21 22  1  0
 23 22  2  0
 23 24  1  0
 25 24  1  6
 25 27  1  0
 25 26  1  0
 27 28  1  0
 29 23  1  0
 30 20  1  0
 30 29  2  0
 31 27  2  0
M  END
$$$$
