GWY.pdb
     RDKit          3D

 31 33  0  0  1  0  0  0  0  0999 V2000
    8.9529  -16.3093   17.3274 N   0  0  0  0  0  0  0  0  0  0  0  0
    9.4450  -17.0857   18.4403 C   0  0  0  0  0  0  0  0  0  0  0  0
    9.4275  -16.3446   19.7103 C   0  0  0  0  0  0  0  0  0  0  0  0
    9.9079  -15.1850   19.7215 O   0  0  0  0  0  0  0  0  0  0  0  0
    8.9077  -16.8438   20.9214 N   0  0  0  0  0  0  0  0  0  0  0  0
    9.0801  -16.1950   22.2197 C   0  0  1  0  0  0  0  0  0  0  0  0
    7.8285  -16.2219   23.0125 C   0  0  0  0  0  0  0  0  0  0  0  0
    7.1885  -14.9211   23.2794 C   0  0  0  0  0  0  0  0  0  0  0  0
    6.3730  -14.2048   22.4075 C   0  0  0  0  0  0  0  0  0  0  0  0
    5.9492  -13.1053   23.0283 N   0  0  0  0  0  0  0  0  0  0  0  0
    6.4409  -13.0462   24.2761 C   0  0  0  0  0  0  0  0  0  0  0  0
    6.3041  -12.1166   25.2908 C   0  0  0  0  0  0  0  0  0  0  0  0
    6.9484  -12.3143   26.4827 C   0  0  0  0  0  0  0  0  0  0  0  0
    7.7380  -13.4266   26.7000 C   0  0  0  0  0  0  0  0  0  0  0  0
    7.8584  -14.3416   25.6699 C   0  0  0  0  0  0  0  0  0  0  0  0
    7.2226  -14.1912   24.4335 C   0  0  0  0  0  0  0  0  0  0  0  0
   10.2491  -16.7344   22.8997 C   0  0  0  0  0  0  0  0  0  0  0  0
   10.4339  -17.9863   23.0723 O   0  0  0  0  0  0  0  0  0  0  0  0
   10.7182  -15.6865   31.2372 O   0  0  0  0  0  0  0  0  0  0  0  0
   10.6141  -15.6661   29.8469 C   0  0  0  0  0  0  0  0  0  0  0  0
   10.3240  -16.8051   29.1407 C   0  0  0  0  0  0  0  0  0  0  0  0
   10.2173  -16.7988   27.7530 C   0  0  0  0  0  0  0  0  0  0  0  0
   10.4019  -15.6319   27.0285 C   0  0  0  0  0  0  0  0  0  0  0  0
   10.3097  -15.5546   25.5631 C   0  0  0  0  0  0  0  0  0  0  0  0
   11.6305  -15.9558   24.8678 C   0  0  2  0  0  0  0  0  0  0  0  0
   11.3192  -15.9218   23.4386 N   0  0  0  0  0  0  0  0  0  0  0  0
   11.9952  -17.3098   25.2927 C   0  0  0  0  0  0  0  0  0  0  0  0
   11.1839  -18.4126   25.1357 O   0  0  0  0  0  0  0  0  0  0  0  0
   10.6930  -14.4926   27.7538 C   0  0  0  0  0  0  0  0  0  0  0  0
   10.8007  -14.4912   29.1349 C   0  0  0  0  0  0  0  0  0  0  0  0
   13.1140  -17.4959   25.8382 O   0  0  0  0  0  0  0  0  0  0  0  0
  2  1  1  0
  3  4  2  0
  3  2  1  0
  5  3  1  0
  6  5  1  0
  6  7  1  1
  8 16  1  0
  8  7  1  0
  9  8  2  0
 10  9  1  0
 10 11  1  0
 11 16  2  0
 12 11  1  0
 12 13  2  0
 13 14  1  0
 14 15  2  0
 16 15  1  0
 17 26  1  0
 17  6  1  0
 18 17  2  0
 19 20  1  0
 20 21  2  0
 21 22  1  0
 23 22  2  0
 23 24  1  0
 25 24  1  1
 25 27  1  0
 25 26  1  0
 27 28  1  0
 29 23  1  0
 30 20  1  0
 30 29  2  0
 31 27  2  0
M  END
$$$$
