GWY.pdb
     RDKit          3D

 31 33  0  0  1  0  0  0  0  0999 V2000
    8.2051  -13.6816   17.5931 N   0  0  0  0  0  0  0  0  0  0  0  0
    8.7200  -14.8234   18.3104 C   0  0  0  0  0  0  0  0  0  0  0  0
    8.7322  -14.6288   19.7679 C   0  0  0  0  0  0  0  0  0  0  0  0
    9.3874  -13.6614   20.2268 O   0  0  0  0  0  0  0  0  0  0  0  0
    8.0582  -15.4530   20.6913 N   0  0  0  0  0  0  0  0  0  0  0  0
    8.1210  -15.2851   22.1418 C   0  0  1  0  0  0  0  0  0  0  0  0
    6.8755  -15.7478   22.7981 C   0  0  0  0  0  0  0  0  0  0  0  0
    6.6662  -15.3193   24.1928 C   0  0  0  0  0  0  0  0  0  0  0  0
    6.4699  -16.1488   25.2936 C   0  0  0  0  0  0  0  0  0  0  0  0
    6.3683  -15.3910   26.3842 N   0  0  0  0  0  0  0  0  0  0  0  0
    6.4859  -14.0910   26.0707 C   0  0  0  0  0  0  0  0  0  0  0  0
    6.4399  -12.9384   26.8336 C   0  0  0  0  0  0  0  0  0  0  0  0
    6.5790  -11.7184   26.2277 C   0  0  0  0  0  0  0  0  0  0  0  0
    6.7654  -11.6076   24.8635 C   0  0  0  0  0  0  0  0  0  0  0  0
    6.8083  -12.7748   24.1229 C   0  0  0  0  0  0  0  0  0  0  0  0
    6.6733  -14.0465   24.6887 C   0  0  0  0  0  0  0  0  0  0  0  0
    9.3453  -15.8754   22.6636 C   0  0  0  0  0  0  0  0  0  0  0  0
    9.9378  -16.8553   22.0977 O   0  0  0  0  0  0  0  0  0  0  0  0
    9.4491  -16.4753   30.2514 O   0  0  0  0  0  0  0  0  0  0  0  0
   10.0438  -16.0952   29.0489 C   0  0  0  0  0  0  0  0  0  0  0  0
   10.9775  -15.0919   29.0054 C   0  0  0  0  0  0  0  0  0  0  0  0
   11.5786  -14.7026   27.8120 C   0  0  0  0  0  0  0  0  0  0  0  0
   11.2530  -15.3196   26.6145 C   0  0  0  0  0  0  0  0  0  0  0  0
   11.8440  -14.9553   25.3185 C   0  0  0  0  0  0  0  0  0  0  0  0
   11.3713  -15.8810   24.1745 C   0  0  2  0  0  0  0  0  0  0  0  0
   10.0204  -15.4160   23.8590 N   0  0  0  0  0  0  0  0  0  0  0  0
   11.3494  -17.2621   24.6634 C   0  0  0  0  0  0  0  0  0  0  0  0
   10.1973  -17.9896   24.8691 O   0  0  0  0  0  0  0  0  0  0  0  0
   10.3113  -16.3287   26.6743 C   0  0  0  0  0  0  0  0  0  0  0  0
    9.7088  -16.7217   27.8583 C   0  0  0  0  0  0  0  0  0  0  0  0
   12.4407  -17.8350   24.9181 O   0  0  0  0  0  0  0  0  0  0  0  0
  2  1  1  0
  3  4  2  0
  3  2  1  0
  5  3  1  0
  6  5  1  0
  6  7  1  1
  8 16  1  0
  8  7  1  0
  9  8  2  0
 10  9  1  0
 10 11  1  0
 11 16  2  0
 12 11  1  0
 12 13  2  0
 13 14  1  0
 14 15  2  0
 16 15  1  0
 17 26  1  0
 17  6  1  0
 18 17  2  0
 19 20  1  0
 20 21  2  0
 21 22  1  0
 23 22  2  0
 23 24  1  0
 25 24  1  1
 25 27  1  0
 25 26  1  0
 27 28  1  0
 29 23  1  0
 30 20  1  0
 30 29  2  0
 31 27  2  0
M  END
$$$$
