GWY.pdb
     RDKit          3D

 31 33  0  0  1  0  0  0  0  0999 V2000
    5.8852  -20.1285   21.9863 N   0  0  0  0  0  0  0  0  0  0  0  0
    5.6500  -18.8721   22.6568 C   0  0  0  0  0  0  0  0  0  0  0  0
    6.8216  -17.9835   22.6396 C   0  0  0  0  0  0  0  0  0  0  0  0
    7.9159  -18.4601   22.2512 O   0  0  0  0  0  0  0  0  0  0  0  0
    6.8048  -16.6290   23.0288 N   0  0  0  0  0  0  0  0  0  0  0  0
    7.9885  -15.7733   23.0793 C   0  0  1  0  0  0  0  0  0  0  0  0
    7.6550  -14.3633   22.7684 C   0  0  0  0  0  0  0  0  0  0  0  0
    7.2959  -14.0630   21.3707 C   0  0  0  0  0  0  0  0  0  0  0  0
    6.0461  -14.2344   20.7814 C   0  0  0  0  0  0  0  0  0  0  0  0
    6.1075  -13.8054   19.5220 N   0  0  0  0  0  0  0  0  0  0  0  0
    7.3388  -13.3542   19.2345 C   0  0  0  0  0  0  0  0  0  0  0  0
    7.8956  -12.8288   18.0828 C   0  0  0  0  0  0  0  0  0  0  0  0
    9.2136  -12.4578   18.0753 C   0  0  0  0  0  0  0  0  0  0  0  0
   10.0082  -12.5957   19.1966 C   0  0  0  0  0  0  0  0  0  0  0  0
    9.4277  -13.1232   20.3358 C   0  0  0  0  0  0  0  0  0  0  0  0
    8.0876  -13.5174   20.4005 C   0  0  0  0  0  0  0  0  0  0  0  0
    8.7003  -15.9734   24.3335 C   0  0  0  0  0  0  0  0  0  0  0  0
    8.1125  -15.9985   25.4671 O   0  0  0  0  0  0  0  0  0  0  0  0
   12.0140  -21.3188   30.0095 O   0  0  0  0  0  0  0  0  0  0  0  0
   11.5411  -20.5620   28.9381 C   0  0  0  0  0  0  0  0  0  0  0  0
   12.0795  -20.6944   27.6840 C   0  0  0  0  0  0  0  0  0  0  0  0
   11.6170  -19.9452   26.6060 C   0  0  0  0  0  0  0  0  0  0  0  0
   10.5874  -19.0307   26.7620 C   0  0  0  0  0  0  0  0  0  0  0  0
   10.0545  -18.2035   25.6695 C   0  0  0  0  0  0  0  0  0  0  0  0
   10.7148  -16.8073   25.6119 C   0  0  2  0  0  0  0  0  0  0  0  0
   10.1310  -16.1725   24.4299 N   0  0  0  0  0  0  0  0  0  0  0  0
   12.1619  -16.9755   25.4556 C   0  0  0  0  0  0  0  0  0  0  0  0
   13.0516  -17.0196   26.5069 O   0  0  0  0  0  0  0  0  0  0  0  0
   10.0549  -18.9089   28.0309 C   0  0  0  0  0  0  0  0  0  0  0  0
   10.5098  -19.6511   29.1085 C   0  0  0  0  0  0  0  0  0  0  0  0
   12.6401  -17.0866   24.2967 O   0  0  0  0  0  0  0  0  0  0  0  0
  2  1  1  0
  3  4  2  0
  3  2  1  0
  5  3  1  0
  6  5  1  0
  6  7  1  1
  8 16  1  0
  8  7  1  0
  9  8  2  0
 10  9  1  0
 10 11  1  0
 11 16  2  0
 12 11  1  0
 12 13  2  0
 13 14  1  0
 14 15  2  0
 16 15  1  0
 17 26  1  0
 17  6  1  0
 18 17  2  0
 19 20  1  0
 20 21  2  0
 21 22  1  0
 23 22  2  0
 23 24  1  0
 25 24  1  6
 25 27  1  0
 25 26  1  0
 27 28  1  0
 29 23  1  0
 30 20  1  0
 30 29  2  0
 31 27  2  0
M  END
$$$$
