GWY.pdb
     RDKit          3D

 31 33  0  0  1  0  0  0  0  0999 V2000
   11.6220  -16.1232   19.1261 N   0  0  0  0  0  0  0  0  0  0  0  0
   11.0103  -17.0246   20.0730 C   0  0  0  0  0  0  0  0  0  0  0  0
   10.6442  -16.3685   21.3371 C   0  0  0  0  0  0  0  0  0  0  0  0
   11.4969  -15.6269   21.8836 O   0  0  0  0  0  0  0  0  0  0  0  0
    9.3995  -16.5120   21.9824 N   0  0  0  0  0  0  0  0  0  0  0  0
    9.0561  -15.8822   23.2557 C   0  0  1  0  0  0  0  0  0  0  0  0
    7.5994  -15.6333   23.3649 C   0  0  0  0  0  0  0  0  0  0  0  0
    7.1249  -15.0348   24.6257 C   0  0  0  0  0  0  0  0  0  0  0  0
    6.4975  -15.7017   25.6746 C   0  0  0  0  0  0  0  0  0  0  0  0
    6.2663  -14.8300   26.6547 N   0  0  0  0  0  0  0  0  0  0  0  0
    6.7070  -13.6080   26.3160 C   0  0  0  0  0  0  0  0  0  0  0  0
    6.6880  -12.3925   26.9752 C   0  0  0  0  0  0  0  0  0  0  0  0
    7.2088  -11.2825   26.3656 C   0  0  0  0  0  0  0  0  0  0  0  0
    7.7569  -11.3453   25.0993 C   0  0  0  0  0  0  0  0  0  0  0  0
    7.7643  -12.5724   24.4614 C   0  0  0  0  0  0  0  0  0  0  0  0
    7.2478  -13.7378   25.0363 C   0  0  0  0  0  0  0  0  0  0  0  0
    9.6347  -16.6337   24.3603 C   0  0  0  0  0  0  0  0  0  0  0  0
    9.6123  -17.9094   24.4172 O   0  0  0  0  0  0  0  0  0  0  0  0
   15.9547  -17.4723   22.5496 O   0  0  0  0  0  0  0  0  0  0  0  0
   15.0604  -17.1537   23.5709 C   0  0  0  0  0  0  0  0  0  0  0  0
   14.4450  -15.9293   23.6183 C   0  0  0  0  0  0  0  0  0  0  0  0
   13.5505  -15.5983   24.6320 C   0  0  0  0  0  0  0  0  0  0  0  0
   13.2468  -16.5013   25.6385 C   0  0  0  0  0  0  0  0  0  0  0  0
   12.3170  -16.2162   26.7411 C   0  0  0  0  0  0  0  0  0  0  0  0
   10.9276  -16.8565   26.5206 C   0  0  2  0  0  0  0  0  0  0  0  0
   10.2979  -16.0252   25.4943 N   0  0  0  0  0  0  0  0  0  0  0  0
   10.1759  -16.7975   27.7769 C   0  0  0  0  0  0  0  0  0  0  0  0
    9.0045  -16.0909   27.9428 O   0  0  0  0  0  0  0  0  0  0  0  0
   13.8741  -17.7307   25.5770 C   0  0  0  0  0  0  0  0  0  0  0  0
   14.7654  -18.0673   24.5713 C   0  0  0  0  0  0  0  0  0  0  0  0
   10.6128  -17.4233   28.7776 O   0  0  0  0  0  0  0  0  0  0  0  0
  2  1  1  0
  3  4  2  0
  3  2  1  0
  5  3  1  0
  6  5  1  0
  6  7  1  1
  8 16  1  0
  8  7  1  0
  9  8  2  0
 10  9  1  0
 10 11  1  0
 11 16  2  0
 12 11  1  0
 12 13  2  0
 13 14  1  0
 14 15  2  0
 16 15  1  0
 17 26  1  0
 17  6  1  0
 18 17  2  0
 19 20  1  0
 20 21  2  0
 21 22  1  0
 23 22  2  0
 23 24  1  0
 25 24  1  1
 25 27  1  0
 25 26  1  0
 27 28  1  0
 29 23  1  0
 30 20  1  0
 30 29  2  0
 31 27  2  0
M  END
$$$$
