GWY.pdb
     RDKit          3D

 31 33  0  0  1  0  0  0  0  0999 V2000
    3.5257  -18.8148   22.1878 N   0  0  0  0  0  0  0  0  0  0  0  0
    4.9475  -19.0633   22.1775 C   0  0  0  0  0  0  0  0  0  0  0  0
    5.7406  -17.8782   22.5369 C   0  0  0  0  0  0  0  0  0  0  0  0
    5.5142  -16.8092   21.9192 O   0  0  0  0  0  0  0  0  0  0  0  0
    6.7407  -17.8553   23.5296 N   0  0  0  0  0  0  0  0  0  0  0  0
    7.5793  -16.6953   23.8253 C   0  0  1  0  0  0  0  0  0  0  0  0
    7.6588  -16.4380   25.2825 C   0  0  0  0  0  0  0  0  0  0  0  0
    6.8203  -15.3446   25.8061 C   0  0  0  0  0  0  0  0  0  0  0  0
    5.4565  -15.4048   26.0795 C   0  0  0  0  0  0  0  0  0  0  0  0
    5.0720  -14.2336   26.5840 N   0  0  0  0  0  0  0  0  0  0  0  0
    6.1111  -13.3873   26.6626 C   0  0  0  0  0  0  0  0  0  0  0  0
    6.2192  -12.0790   27.0974 C   0  0  0  0  0  0  0  0  0  0  0  0
    7.4324  -11.4461   27.0476 C   0  0  0  0  0  0  0  0  0  0  0  0
    8.5602  -12.0851   26.5706 C   0  0  0  0  0  0  0  0  0  0  0  0
    8.4261  -13.3933   26.1423 C   0  0  0  0  0  0  0  0  0  0  0  0
    7.2130  -14.0883   26.1715 C   0  0  0  0  0  0  0  0  0  0  0  0
    8.8647  -16.8199   23.1530 C   0  0  0  0  0  0  0  0  0  0  0  0
    9.4557  -17.9404   22.9906 O   0  0  0  0  0  0  0  0  0  0  0  0
    6.6168  -13.9543   17.3843 O   0  0  0  0  0  0  0  0  0  0  0  0
    7.6822  -14.1163   18.2692 C   0  0  0  0  0  0  0  0  0  0  0  0
    7.8996  -13.2248   19.2882 C   0  0  0  0  0  0  0  0  0  0  0  0
    8.9592  -13.3746   20.1781 C   0  0  0  0  0  0  0  0  0  0  0  0
    9.8402  -14.4385   20.0661 C   0  0  0  0  0  0  0  0  0  0  0  0
   10.9823  -14.6543   20.9666 C   0  0  0  0  0  0  0  0  0  0  0  0
   10.8223  -15.9291   21.8258 C   0  0  2  0  0  0  0  0  0  0  0  0
    9.5981  -15.7036   22.5947 N   0  0  0  0  0  0  0  0  0  0  0  0
   11.9831  -16.0498   22.7118 C   0  0  0  0  0  0  0  0  0  0  0  0
   11.9182  -15.9590   24.0853 O   0  0  0  0  0  0  0  0  0  0  0  0
    9.6080  -15.3284   19.0351 C   0  0  0  0  0  0  0  0  0  0  0  0
    8.5556  -15.1859   18.1455 C   0  0  0  0  0  0  0  0  0  0  0  0
   13.1180  -16.2470   22.2047 O   0  0  0  0  0  0  0  0  0  0  0  0
  2  1  1  0
  3  4  2  0
  3  2  1  0
  5  3  1  0
  6  5  1  0
  6  7  1  1
  8 16  1  0
  8  7  1  0
  9  8  2  0
 10  9  1  0
 10 11  1  0
 11 16  2  0
 12 11  1  0
 12 13  2  0
 13 14  1  0
 14 15  2  0
 16 15  1  0
 17 26  1  0
 17  6  1  0
 18 17  2  0
 19 20  1  0
 20 21  2  0
 21 22  1  0
 23 22  2  0
 23 24  1  0
 25 24  1  6
 25 27  1  0
 25 26  1  0
 27 28  1  0
 29 23  1  0
 30 20  1  0
 30 29  2  0
 31 27  2  0
M  END
$$$$
