GWY.pdb
     RDKit          3D

 31 33  0  0  1  0  0  0  0  0999 V2000
    8.5159  -14.6602   18.5729 N   0  0  0  0  0  0  0  0  0  0  0  0
    7.9574  -15.6057   19.5096 C   0  0  0  0  0  0  0  0  0  0  0  0
    8.4515  -15.4156   20.8816 C   0  0  0  0  0  0  0  0  0  0  0  0
    9.3367  -14.5465   21.0729 O   0  0  0  0  0  0  0  0  0  0  0  0
    8.0008  -16.1413   22.0025 N   0  0  0  0  0  0  0  0  0  0  0  0
    8.5693  -16.0198   23.3435 C   0  0  1  0  0  0  0  0  0  0  0  0
    7.5828  -16.3821   24.3882 C   0  0  0  0  0  0  0  0  0  0  0  0
    7.0362  -15.2741   25.1921 C   0  0  0  0  0  0  0  0  0  0  0  0
    6.0054  -15.3570   26.1243 C   0  0  0  0  0  0  0  0  0  0  0  0
    5.8335  -14.1569   26.6758 N   0  0  0  0  0  0  0  0  0  0  0  0
    6.6983  -13.2696   26.1592 C   0  0  0  0  0  0  0  0  0  0  0  0
    6.9038  -11.9219   26.3913 C   0  0  0  0  0  0  0  0  0  0  0  0
    7.8711  -11.2530   25.6900 C   0  0  0  0  0  0  0  0  0  0  0  0
    8.6532  -11.8940   24.7491 C   0  0  0  0  0  0  0  0  0  0  0  0
    8.4284  -13.2418   24.5357 C   0  0  0  0  0  0  0  0  0  0  0  0
    7.4560  -13.9746   25.2234 C   0  0  0  0  0  0  0  0  0  0  0  0
    9.8347  -16.7358   23.4196 C   0  0  0  0  0  0  0  0  0  0  0  0
   10.0620  -17.8118   22.7701 O   0  0  0  0  0  0  0  0  0  0  0  0
   13.2119  -13.8612   18.7143 O   0  0  0  0  0  0  0  0  0  0  0  0
   13.2275  -14.3773   20.0095 C   0  0  0  0  0  0  0  0  0  0  0  0
   12.5500  -13.7576   21.0280 C   0  0  0  0  0  0  0  0  0  0  0  0
   12.5574  -14.2619   22.3253 C   0  0  0  0  0  0  0  0  0  0  0  0
   13.2552  -15.4179   22.6375 C   0  0  0  0  0  0  0  0  0  0  0  0
   13.3104  -16.0021   23.9855 C   0  0  0  0  0  0  0  0  0  0  0  0
   12.2119  -17.0656   24.2121 C   0  0  2  0  0  0  0  0  0  0  0  0
   10.9610  -16.3066   24.2215 N   0  0  0  0  0  0  0  0  0  0  0  0
   12.4417  -17.7133   25.5061 C   0  0  0  0  0  0  0  0  0  0  0  0
   11.5648  -17.6500   26.5673 O   0  0  0  0  0  0  0  0  0  0  0  0
   13.9322  -16.0311   21.6010 C   0  0  0  0  0  0  0  0  0  0  0  0
   13.9295  -15.5351   20.3075 C   0  0  0  0  0  0  0  0  0  0  0  0
   13.5009  -18.3711   25.6780 O   0  0  0  0  0  0  0  0  0  0  0  0
  2  1  1  0
  3  4  2  0
  3  2  1  0
  5  3  1  0
  6  5  1  0
  6  7  1  1
  8 16  1  0
  8  7  1  0
  9  8  2  0
 10  9  1  0
 10 11  1  0
 11 16  2  0
 12 11  1  0
 12 13  2  0
 13 14  1  0
 14 15  2  0
 16 15  1  0
 17 26  1  0
 17  6  1  0
 18 17  2  0
 19 20  1  0
 20 21  2  0
 21 22  1  0
 23 22  2  0
 23 24  1  0
 25 24  1  1
 25 27  1  0
 25 26  1  0
 27 28  1  0
 29 23  1  0
 30 20  1  0
 30 29  2  0
 31 27  2  0
M  END
$$$$
