YNA.pdb
     RDKit          3D

 26 26  0  0  1  0  0  0  0  0999 V2000
    5.8785  -10.5621   27.6513 O   0  0  0  0  0  0  0  0  0  0  0  0
    6.4169  -11.6669   26.9748 C   0  0  0  0  0  0  0  0  0  0  0  0
    7.3436  -12.5092   27.5478 C   0  0  0  0  0  0  0  0  0  0  0  0
    7.8454  -13.5832   26.8433 C   0  0  0  0  0  0  0  0  0  0  0  0
    7.4628  -13.8767   25.5545 C   0  0  0  0  0  0  0  0  0  0  0  0
    8.0147  -15.0401   24.8116 C   0  0  0  0  0  0  0  0  0  0  0  0
    6.9406  -15.7602   23.9943 C   0  0  2  0  0  0  0  0  0  0  0  0
    6.2215  -16.6004   24.9023 N   0  0  0  0  0  0  0  0  0  0  0  0
    7.6730  -16.5320   22.9567 C   0  0  0  0  0  0  0  0  0  0  0  0
    7.7938  -17.7741   23.1073 O   0  0  0  0  0  0  0  0  0  0  0  0
    6.5300  -13.0339   24.9675 C   0  0  0  0  0  0  0  0  0  0  0  0
    6.0293  -11.9602   25.6739 C   0  0  0  0  0  0  0  0  0  0  0  0
    8.0494  -18.0545   18.5515 N   0  0  0  0  0  0  0  0  0  0  0  0
    8.4089  -16.7092   18.4039 C   0  0  0  0  0  0  0  0  0  0  0  0
    8.3213  -16.1686   17.2627 O   0  0  0  0  0  0  0  0  0  0  0  0
    8.8899  -15.8850   19.5183 C   0  0  0  0  0  0  0  0  0  0  0  0
    8.9555  -16.7261   20.7805 C   0  0  2  0  0  0  0  0  0  0  0  0
    8.2404  -15.9475   21.8113 N   0  0  0  0  0  0  0  0  0  0  0  0
   10.3354  -16.9925   21.2480 C   0  0  0  0  0  0  0  0  0  0  0  0
   11.0769  -17.7060   20.4989 O   0  0  0  0  0  0  0  0  0  0  0  0
   12.9129  -15.7882   23.6169 C   0  0  0  0  0  0  0  0  0  0  0  0
   12.3078  -16.8735   22.7953 C   0  0  2  0  0  0  0  0  0  0  0  0
   10.9102  -16.5273   22.4476 N   0  0  0  0  0  0  0  0  0  0  0  0
   12.3907  -18.1420   23.5267 C   0  0  0  0  0  0  0  0  0  0  0  0
   13.5882  -18.7197   23.8862 O   0  0  0  0  0  0  0  0  0  0  0  0
   11.3249  -18.7208   23.8345 O   0  0  0  0  0  0  0  0  0  0  0  0
  2 12  2  0
  2  1  1  0
  3  2  1  0
  4  5  1  0
  4  3  2  0
  5 11  2  0
  6  5  1  0
  7  6  1  0
  7  9  1  0
  7  8  1  1
  9 18  1  0
  9 10  2  0
 11 12  1  0
 14 13  1  0
 14 15  2  0
 16 14  1  0
 17 16  1  6
 18 17  1  0
 19 23  1  0
 19 17  1  0
 20 19  2  0
 22 21  1  1
 22 24  1  0
 22 23  1  0
 24 25  1  0
 26 24  2  0
M  END
$$$$
