YNA.pdb
     RDKit          3D

 26 26  0  0  1  0  0  0  0  0999 V2000
    9.4696  -12.1516   18.0903 O   0  0  0  0  0  0  0  0  0  0  0  0
    8.6785  -12.9270   18.9511 C   0  0  0  0  0  0  0  0  0  0  0  0
    9.0854  -13.2782   20.2190 C   0  0  0  0  0  0  0  0  0  0  0  0
    8.2732  -14.0427   21.0298 C   0  0  0  0  0  0  0  0  0  0  0  0
    7.0342  -14.4934   20.6355 C   0  0  0  0  0  0  0  0  0  0  0  0
    6.1725  -15.3161   21.5246 C   0  0  0  0  0  0  0  0  0  0  0  0
    6.6774  -16.7556   21.6404 C   0  0  2  0  0  0  0  0  0  0  0  0
    5.6303  -17.6030   21.1576 N   0  0  0  0  0  0  0  0  0  0  0  0
    6.9669  -16.9668   23.0827 C   0  0  0  0  0  0  0  0  0  0  0  0
    6.0000  -17.0922   23.8760 O   0  0  0  0  0  0  0  0  0  0  0  0
    6.6148  -14.1457   19.3595 C   0  0  0  0  0  0  0  0  0  0  0  0
    7.4288  -13.3808   18.5501 C   0  0  0  0  0  0  0  0  0  0  0  0
   11.4460  -18.2512   27.0295 N   0  0  0  0  0  0  0  0  0  0  0  0
   10.1153  -18.1714   26.6010 C   0  0  0  0  0  0  0  0  0  0  0  0
    9.1870  -18.2049   27.4608 O   0  0  0  0  0  0  0  0  0  0  0  0
    9.7378  -18.0516   25.1883 C   0  0  0  0  0  0  0  0  0  0  0  0
    8.5449  -17.1216   25.0587 C   0  0  2  0  0  0  0  0  0  0  0  0
    8.2676  -17.0346   23.6110 N   0  0  0  0  0  0  0  0  0  0  0  0
    8.7912  -15.7594   25.5853 C   0  0  0  0  0  0  0  0  0  0  0  0
    9.9194  -15.2299   25.3265 O   0  0  0  0  0  0  0  0  0  0  0  0
    7.1212  -12.8262   27.1583 C   0  0  0  0  0  0  0  0  0  0  0  0
    8.3121  -13.6885   26.9197 C   0  0  2  0  0  0  0  0  0  0  0  0
    7.8910  -14.9881   26.3472 N   0  0  0  0  0  0  0  0  0  0  0  0
    9.0502  -13.8581   28.1756 C   0  0  0  0  0  0  0  0  0  0  0  0
    9.3031  -15.0922   28.7322 O   0  0  0  0  0  0  0  0  0  0  0  0
    9.4655  -12.8344   28.7632 O   0  0  0  0  0  0  0  0  0  0  0  0
  2 12  2  0
  2  1  1  0
  3  2  1  0
  4  5  1  0
  4  3  2  0
  5 11  2  0
  6  5  1  0
  7  6  1  0
  7  9  1  0
  7  8  1  1
  9 18  1  0
  9 10  2  0
 11 12  1  0
 14 13  1  0
 14 15  2  0
 16 14  1  0
 17 16  1  6
 18 17  1  0
 19 23  1  0
 19 17  1  0
 20 19  2  0
 22 21  1  1
 22 24  1  0
 22 23  1  0
 24 25  1  0
 26 24  2  0
M  END
$$$$
