YNA.pdb
     RDKit          3D

 26 26  0  0  1  0  0  0  0  0999 V2000
    7.7427  -11.9648   17.5616 O   0  0  0  0  0  0  0  0  0  0  0  0
    7.8330  -12.7249   18.7373 C   0  0  0  0  0  0  0  0  0  0  0  0
    8.9309  -12.6810   19.5675 C   0  0  0  0  0  0  0  0  0  0  0  0
    8.9749  -13.4469   20.7134 C   0  0  0  0  0  0  0  0  0  0  0  0
    7.9508  -14.2838   21.0932 C   0  0  0  0  0  0  0  0  0  0  0  0
    8.0164  -15.1013   22.3331 C   0  0  0  0  0  0  0  0  0  0  0  0
    8.9053  -16.3343   22.1605 C   0  0  2  0  0  0  0  0  0  0  0  0
    8.3290  -17.1180   21.1110 N   0  0  0  0  0  0  0  0  0  0  0  0
    8.8873  -17.0316   23.4727 C   0  0  0  0  0  0  0  0  0  0  0  0
    8.3894  -18.1843   23.5323 O   0  0  0  0  0  0  0  0  0  0  0  0
    6.8400  -14.3360   20.2634 C   0  0  0  0  0  0  0  0  0  0  0  0
    6.7980  -13.5691   19.1177 C   0  0  0  0  0  0  0  0  0  0  0  0
   11.1656  -19.2912   23.9561 N   0  0  0  0  0  0  0  0  0  0  0  0
   11.9640  -18.1789   23.6625 C   0  0  0  0  0  0  0  0  0  0  0  0
   12.9510  -18.3164   22.8821 O   0  0  0  0  0  0  0  0  0  0  0  0
   11.7126  -16.8462   24.2223 C   0  0  0  0  0  0  0  0  0  0  0  0
   10.6437  -16.9401   25.2963 C   0  0  2  0  0  0  0  0  0  0  0  0
    9.3985  -16.4712   24.6560 N   0  0  0  0  0  0  0  0  0  0  0  0
   10.9192  -16.1023   26.4862 C   0  0  0  0  0  0  0  0  0  0  0  0
   12.0246  -16.2910   27.0884 O   0  0  0  0  0  0  0  0  0  0  0  0
    9.3741  -13.4220   28.6265 C   0  0  0  0  0  0  0  0  0  0  0  0
   10.3726  -14.4859   28.3266 C   0  0  2  0  0  0  0  0  0  0  0  0
   10.0720  -15.1092   27.0170 N   0  0  0  0  0  0  0  0  0  0  0  0
   10.3755  -15.4713   29.4128 C   0  0  0  0  0  0  0  0  0  0  0  0
   11.0078  -15.2535   30.6169 O   0  0  0  0  0  0  0  0  0  0  0  0
    9.7769  -16.5553   29.2329 O   0  0  0  0  0  0  0  0  0  0  0  0
  2 12  2  0
  2  1  1  0
  3  2  1  0
  4  5  1  0
  4  3  2  0
  5 11  2  0
  6  5  1  0
  7  6  1  0
  7  9  1  0
  7  8  1  6
  9 18  1  0
  9 10  2  0
 11 12  1  0
 14 13  1  0
 14 15  2  0
 16 14  1  0
 17 16  1  6
 18 17  1  0
 19 23  1  0
 19 17  1  0
 20 19  2  0
 22 21  1  1
 22 24  1  0
 22 23  1  0
 24 25  1  0
 26 24  2  0
M  END
$$$$
