YNA.pdb
     RDKit          3D

 26 26  0  0  1  0  0  0  0  0999 V2000
    7.9295  -12.7867   18.1802 O   0  0  0  0  0  0  0  0  0  0  0  0
    7.7626  -13.3875   19.4369 C   0  0  0  0  0  0  0  0  0  0  0  0
    8.0109  -12.7225   20.6169 C   0  0  0  0  0  0  0  0  0  0  0  0
    7.8329  -13.3548   21.8294 C   0  0  0  0  0  0  0  0  0  0  0  0
    7.4061  -14.6585   21.9372 C   0  0  0  0  0  0  0  0  0  0  0  0
    7.2192  -15.3228   23.2540 C   0  0  0  0  0  0  0  0  0  0  0  0
    6.6609  -16.7395   23.1073 C   0  0  2  0  0  0  0  0  0  0  0  0
    5.2644  -16.6691   23.4114 N   0  0  0  0  0  0  0  0  0  0  0  0
    7.4175  -17.5738   24.0770 C   0  0  0  0  0  0  0  0  0  0  0  0
    7.1881  -17.4236   25.3037 O   0  0  0  0  0  0  0  0  0  0  0  0
    7.1536  -15.3381   20.7542 C   0  0  0  0  0  0  0  0  0  0  0  0
    7.3323  -14.7037   19.5425 C   0  0  0  0  0  0  0  0  0  0  0  0
    7.1453  -21.6695   25.9310 N   0  0  0  0  0  0  0  0  0  0  0  0
    7.4998  -21.0795   24.7116 C   0  0  0  0  0  0  0  0  0  0  0  0
    6.5933  -20.8058   23.8717 O   0  0  0  0  0  0  0  0  0  0  0  0
    8.8862  -20.7607   24.3527 C   0  0  0  0  0  0  0  0  0  0  0  0
    9.1707  -19.3036   24.6706 C   0  0  2  0  0  0  0  0  0  0  0  0
    8.3793  -18.5254   23.6967 N   0  0  0  0  0  0  0  0  0  0  0  0
   10.5984  -18.9325   24.5383 C   0  0  0  0  0  0  0  0  0  0  0  0
   11.4421  -19.6166   25.2018 O   0  0  0  0  0  0  0  0  0  0  0  0
   12.8651  -16.5480   22.7130 C   0  0  0  0  0  0  0  0  0  0  0  0
   12.5778  -17.6797   23.6380 C   0  0  2  0  0  0  0  0  0  0  0  0
   11.1156  -17.8911   23.7423 N   0  0  0  0  0  0  0  0  0  0  0  0
   13.1850  -17.4067   24.9448 C   0  0  0  0  0  0  0  0  0  0  0  0
   12.4426  -17.2372   26.0924 O   0  0  0  0  0  0  0  0  0  0  0  0
   14.4317  -17.3248   25.0149 O   0  0  0  0  0  0  0  0  0  0  0  0
  2 12  2  0
  2  1  1  0
  3  2  1  0
  4  5  1  0
  4  3  2  0
  5 11  2  0
  6  5  1  0
  7  6  1  0
  7  9  1  0
  7  8  1  1
  9 18  1  0
  9 10  2  0
 11 12  1  0
 14 13  1  0
 14 15  2  0
 16 14  1  0
 17 16  1  6
 18 17  1  0
 19 23  1  0
 19 17  1  0
 20 19  2  0
 22 21  1  6
 22 24  1  0
 22 23  1  0
 24 25  1  0
 26 24  2  0
M  END
$$$$
