YNA.pdb
     RDKit          3D

 26 26  0  0  1  0  0  0  0  0999 V2000
    8.5732  -13.2919   16.5691 O   0  0  0  0  0  0  0  0  0  0  0  0
    8.2820  -13.6015   17.9060 C   0  0  0  0  0  0  0  0  0  0  0  0
    7.4465  -12.8295   18.6821 C   0  0  0  0  0  0  0  0  0  0  0  0
    7.1898  -13.1734   19.9927 C   0  0  0  0  0  0  0  0  0  0  0  0
    7.7375  -14.2825   20.5957 C   0  0  0  0  0  0  0  0  0  0  0  0
    7.4480  -14.6373   22.0100 C   0  0  0  0  0  0  0  0  0  0  0  0
    6.9942  -16.0910   22.1550 C   0  0  2  0  0  0  0  0  0  0  0  0
    5.6398  -16.1509   21.6971 N   0  0  0  0  0  0  0  0  0  0  0  0
    7.1256  -16.4125   23.5999 C   0  0  0  0  0  0  0  0  0  0  0  0
    6.2351  -16.0051   24.3881 O   0  0  0  0  0  0  0  0  0  0  0  0
    8.5814  -15.0669   19.8227 C   0  0  0  0  0  0  0  0  0  0  0  0
    8.8367  -14.7212   18.5121 C   0  0  0  0  0  0  0  0  0  0  0  0
    8.8136  -20.5152   27.5113 N   0  0  0  0  0  0  0  0  0  0  0  0
    9.1000  -19.2216   27.0581 C   0  0  0  0  0  0  0  0  0  0  0  0
    9.4915  -18.3495   27.8879 O   0  0  0  0  0  0  0  0  0  0  0  0
    8.9654  -18.8202   25.6534 C   0  0  0  0  0  0  0  0  0  0  0  0
    8.3267  -17.4450   25.5772 C   0  0  2  0  0  0  0  0  0  0  0  0
    8.1949  -17.1501   24.1364 N   0  0  0  0  0  0  0  0  0  0  0  0
    9.1312  -16.3781   26.2163 C   0  0  0  0  0  0  0  0  0  0  0  0
   10.2788  -16.1379   25.7208 O   0  0  0  0  0  0  0  0  0  0  0  0
    8.8996  -13.3305   28.1962 C   0  0  0  0  0  0  0  0  0  0  0  0
    9.6594  -14.5710   27.8757 C   0  0  2  0  0  0  0  0  0  0  0  0
    8.7452  -15.5977   27.3242 N   0  0  0  0  0  0  0  0  0  0  0  0
   10.3498  -15.0442   29.0800 C   0  0  0  0  0  0  0  0  0  0  0  0
   10.1777  -16.3121   29.5897 O   0  0  0  0  0  0  0  0  0  0  0  0
   11.1272  -14.2583   29.6663 O   0  0  0  0  0  0  0  0  0  0  0  0
  2 12  2  0
  2  1  1  0
  3  2  1  0
  4  5  1  0
  4  3  2  0
  5 11  2  0
  6  5  1  0
  7  6  1  0
  7  9  1  0
  7  8  1  1
  9 18  1  0
  9 10  2  0
 11 12  1  0
 14 13  1  0
 14 15  2  0
 16 14  1  0
 17 16  1  6
 18 17  1  0
 19 23  1  0
 19 17  1  0
 20 19  2  0
 22 21  1  1
 22 24  1  0
 22 23  1  0
 24 25  1  0
 26 24  2  0
M  END
$$$$
