YNA.pdb
     RDKit          3D

 26 26  0  0  1  0  0  0  0  0999 V2000
    7.8185  -12.7894   15.9879 O   0  0  0  0  0  0  0  0  0  0  0  0
    7.6092  -13.1766   17.3200 C   0  0  0  0  0  0  0  0  0  0  0  0
    6.9241  -14.3212   17.6618 C   0  0  0  0  0  0  0  0  0  0  0  0
    6.7428  -14.6612   18.9858 C   0  0  0  0  0  0  0  0  0  0  0  0
    7.2224  -13.8988   20.0261 C   0  0  0  0  0  0  0  0  0  0  0  0
    7.0174  -14.2826   21.4476 C   0  0  0  0  0  0  0  0  0  0  0  0
    8.3021  -14.8085   22.0904 C   0  0  2  0  0  0  0  0  0  0  0  0
    8.7578  -15.8952   21.2786 N   0  0  0  0  0  0  0  0  0  0  0  0
    7.9209  -15.2375   23.4613 C   0  0  0  0  0  0  0  0  0  0  0  0
    7.2985  -14.4258   24.1920 O   0  0  0  0  0  0  0  0  0  0  0  0
    7.9137  -12.7429   19.6927 C   0  0  0  0  0  0  0  0  0  0  0  0
    8.0940  -12.4047   18.3677 C   0  0  0  0  0  0  0  0  0  0  0  0
    7.0331  -19.8570   23.6235 N   0  0  0  0  0  0  0  0  0  0  0  0
    6.8676  -18.8972   24.6295 C   0  0  0  0  0  0  0  0  0  0  0  0
    5.7101  -18.4410   24.8629 O   0  0  0  0  0  0  0  0  0  0  0  0
    7.9818  -18.3856   25.4353 C   0  0  0  0  0  0  0  0  0  0  0  0
    7.9793  -16.8678   25.3996 C   0  0  2  0  0  0  0  0  0  0  0  0
    8.2192  -16.5058   23.9883 N   0  0  0  0  0  0  0  0  0  0  0  0
    9.0299  -16.2502   26.2412 C   0  0  0  0  0  0  0  0  0  0  0  0
   10.2408  -16.4737   25.9191 O   0  0  0  0  0  0  0  0  0  0  0  0
    9.5776  -13.5430   28.7013 C   0  0  0  0  0  0  0  0  0  0  0  0
    9.9638  -14.8520   28.1044 C   0  0  2  0  0  0  0  0  0  0  0  0
    8.8166  -15.4324   27.3689 N   0  0  0  0  0  0  0  0  0  0  0  0
   10.4438  -15.7471   29.1624 C   0  0  0  0  0  0  0  0  0  0  0  0
    9.9112  -16.9984   29.3805 O   0  0  0  0  0  0  0  0  0  0  0  0
   11.3773  -15.3522   29.8961 O   0  0  0  0  0  0  0  0  0  0  0  0
  2 12  2  0
  2  1  1  0
  3  2  1  0
  4  5  1  0
  4  3  2  0
  5 11  2  0
  6  5  1  0
  7  6  1  0
  7  9  1  0
  7  8  1  6
  9 18  1  0
  9 10  2  0
 11 12  1  0
 14 13  1  0
 14 15  2  0
 16 14  1  0
 17 16  1  6
 18 17  1  0
 19 23  1  0
 19 17  1  0
 20 19  2  0
 22 21  1  1
 22 24  1  0
 22 23  1  0
 24 25  1  0
 26 24  2  0
M  END
$$$$
