YNA.pdb
     RDKit          3D

 26 26  0  0  1  0  0  0  0  0999 V2000
    7.7229  -11.8971   17.7680 O   0  0  0  0  0  0  0  0  0  0  0  0
    7.8240  -12.7017   18.9128 C   0  0  0  0  0  0  0  0  0  0  0  0
    6.7402  -13.3478   19.4645 C   0  0  0  0  0  0  0  0  0  0  0  0
    6.8879  -14.1285   20.5915 C   0  0  0  0  0  0  0  0  0  0  0  0
    8.0972  -14.3090   21.2228 C   0  0  0  0  0  0  0  0  0  0  0  0
    8.2366  -15.1556   22.4369 C   0  0  0  0  0  0  0  0  0  0  0  0
    8.8330  -16.5268   22.1141 C   0  0  2  0  0  0  0  0  0  0  0  0
    7.9296  -17.1703   21.2100 N   0  0  0  0  0  0  0  0  0  0  0  0
    8.9431  -17.2354   23.4158 C   0  0  0  0  0  0  0  0  0  0  0  0
    8.5832  -18.4384   23.4757 O   0  0  0  0  0  0  0  0  0  0  0  0
    9.1957  -13.6619   20.6755 C   0  0  0  0  0  0  0  0  0  0  0  0
    9.0457  -12.8815   19.5481 C   0  0  0  0  0  0  0  0  0  0  0  0
   11.1623  -19.6222   24.3206 N   0  0  0  0  0  0  0  0  0  0  0  0
   11.9403  -18.5622   23.8390 C   0  0  0  0  0  0  0  0  0  0  0  0
   12.8741  -18.8046   23.0196 O   0  0  0  0  0  0  0  0  0  0  0  0
   11.7267  -17.1680   24.2428 C   0  0  0  0  0  0  0  0  0  0  0  0
   10.6355  -17.1061   25.2966 C   0  0  2  0  0  0  0  0  0  0  0  0
    9.4294  -16.6325   24.5885 N   0  0  0  0  0  0  0  0  0  0  0  0
   10.9357  -16.1784   26.4115 C   0  0  0  0  0  0  0  0  0  0  0  0
   11.9799  -16.4138   27.1002 O   0  0  0  0  0  0  0  0  0  0  0  0
    9.6282  -13.1032   28.1345 C   0  0  0  0  0  0  0  0  0  0  0  0
   10.4589  -14.3366   28.0482 C   0  0  2  0  0  0  0  0  0  0  0  0
   10.1738  -15.0529   26.7835 N   0  0  0  0  0  0  0  0  0  0  0  0
   10.2048  -15.1782   29.2221 C   0  0  0  0  0  0  0  0  0  0  0  0
    9.5721  -16.3990   29.1427 O   0  0  0  0  0  0  0  0  0  0  0  0
   10.5806  -14.7647   30.3417 O   0  0  0  0  0  0  0  0  0  0  0  0
  2 12  2  0
  2  1  1  0
  3  2  1  0
  4  5  1  0
  4  3  2  0
  5 11  2  0
  6  5  1  0
  7  6  1  0
  7  9  1  0
  7  8  1  6
  9 18  1  0
  9 10  2  0
 11 12  1  0
 14 13  1  0
 14 15  2  0
 16 14  1  0
 17 16  1  6
 18 17  1  0
 19 23  1  0
 19 17  1  0
 20 19  2  0
 22 21  1  1
 22 24  1  0
 22 23  1  0
 24 25  1  0
 26 24  2  0
M  END
$$$$
