YNA.pdb
     RDKit          3D

 26 26  0  0  1  0  0  0  0  0999 V2000
   10.1687  -13.5166   30.0296 O   0  0  0  0  0  0  0  0  0  0  0  0
    9.8312  -14.0181   28.7636 C   0  0  0  0  0  0  0  0  0  0  0  0
   10.7554  -14.6004   27.9249 C   0  0  0  0  0  0  0  0  0  0  0  0
   10.3768  -15.0792   26.6884 C   0  0  0  0  0  0  0  0  0  0  0  0
    9.0838  -15.0088   26.2231 C   0  0  0  0  0  0  0  0  0  0  0  0
    8.6949  -15.5315   24.8868 C   0  0  0  0  0  0  0  0  0  0  0  0
    8.1231  -16.9480   24.9697 C   0  0  2  0  0  0  0  0  0  0  0  0
    9.1917  -17.8035   25.3865 N   0  0  0  0  0  0  0  0  0  0  0  0
    7.6338  -17.2662   23.6029 C   0  0  0  0  0  0  0  0  0  0  0  0
    8.4423  -17.7599   22.7767 O   0  0  0  0  0  0  0  0  0  0  0  0
    8.1447  -14.4233   27.0600 C   0  0  0  0  0  0  0  0  0  0  0  0
    8.5255  -13.9451   28.2965 C   0  0  0  0  0  0  0  0  0  0  0  0
    4.5882  -19.5492   20.6478 N   0  0  0  0  0  0  0  0  0  0  0  0
    3.7745  -18.5609   21.2152 C   0  0  0  0  0  0  0  0  0  0  0  0
    2.5170  -18.6616   21.1105 O   0  0  0  0  0  0  0  0  0  0  0  0
    4.3122  -17.3991   21.9317 C   0  0  0  0  0  0  0  0  0  0  0  0
    5.8271  -17.3975   21.8317 C   0  0  2  0  0  0  0  0  0  0  0  0
    6.3115  -17.0446   23.1812 N   0  0  0  0  0  0  0  0  0  0  0  0
    6.3589  -16.4175   20.8568 C   0  0  0  0  0  0  0  0  0  0  0  0
    6.2518  -16.7071   19.6220 O   0  0  0  0  0  0  0  0  0  0  0  0
    7.4699  -12.8857   20.5508 C   0  0  0  0  0  0  0  0  0  0  0  0
    7.4674  -14.3014   20.0874 C   0  0  2  0  0  0  0  0  0  0  0  0
    6.9731  -15.1876   21.1664 N   0  0  0  0  0  0  0  0  0  0  0  0
    8.8170  -14.6733   19.6503 C   0  0  0  0  0  0  0  0  0  0  0  0
    9.4303  -14.1055   18.5556 O   0  0  0  0  0  0  0  0  0  0  0  0
    9.4336  -15.5448   20.3030 O   0  0  0  0  0  0  0  0  0  0  0  0
  2 12  2  0
  2  1  1  0
  3  2  1  0
  4  5  1  0
  4  3  2  0
  5 11  2  0
  6  5  1  0
  7  6  1  0
  7  9  1  0
  7  8  1  6
  9 18  1  0
  9 10  2  0
 11 12  1  0
 14 13  1  0
 14 15  2  0
 16 14  1  0
 17 16  1  1
 18 17  1  0
 19 23  1  0
 19 17  1  0
 20 19  2  0
 22 21  1  1
 22 24  1  0
 22 23  1  0
 24 25  1  0
 26 24  2  0
M  END
$$$$
