YNA.pdb
     RDKit          3D

 26 26  0  0  1  0  0  0  0  0999 V2000
    8.8316  -12.9291   16.7225 O   0  0  0  0  0  0  0  0  0  0  0  0
    8.4059  -13.3542   17.9898 C   0  0  0  0  0  0  0  0  0  0  0  0
    8.9975  -14.4023   18.6591 C   0  0  0  0  0  0  0  0  0  0  0  0
    8.5443  -14.7849   19.9040 C   0  0  0  0  0  0  0  0  0  0  0  0
    7.4979  -14.1604   20.5432 C   0  0  0  0  0  0  0  0  0  0  0  0
    7.0241  -14.5870   21.8862 C   0  0  0  0  0  0  0  0  0  0  0  0
    6.8853  -16.1071   21.9889 C   0  0  2  0  0  0  0  0  0  0  0  0
    5.6402  -16.4529   21.3743 N   0  0  0  0  0  0  0  0  0  0  0  0
    6.9132  -16.4174   23.4420 C   0  0  0  0  0  0  0  0  0  0  0  0
    5.8916  -16.1630   24.1289 O   0  0  0  0  0  0  0  0  0  0  0  0
    6.8942  -13.1034   19.8773 C   0  0  0  0  0  0  0  0  0  0  0  0
    7.3492  -12.7223   18.6322 C   0  0  0  0  0  0  0  0  0  0  0  0
    7.7038  -20.4334   24.0037 N   0  0  0  0  0  0  0  0  0  0  0  0
    7.4759  -19.6009   25.1064 C   0  0  0  0  0  0  0  0  0  0  0  0
    6.3361  -19.6039   25.6569 O   0  0  0  0  0  0  0  0  0  0  0  0
    8.5034  -18.7128   25.6614 C   0  0  0  0  0  0  0  0  0  0  0  0
    8.0460  -17.2701   25.5416 C   0  0  2  0  0  0  0  0  0  0  0  0
    8.0231  -16.9822   24.0935 N   0  0  0  0  0  0  0  0  0  0  0  0
    8.9450  -16.3023   26.2116 C   0  0  0  0  0  0  0  0  0  0  0  0
   10.1036  -16.1399   25.7103 O   0  0  0  0  0  0  0  0  0  0  0  0
    8.9669  -13.3985   28.4679 C   0  0  0  0  0  0  0  0  0  0  0  0
    9.6414  -14.6141   27.9330 C   0  0  2  0  0  0  0  0  0  0  0  0
    8.6384  -15.5381   27.3551 N   0  0  0  0  0  0  0  0  0  0  0  0
   10.4184  -15.2503   29.0019 C   0  0  0  0  0  0  0  0  0  0  0  0
   11.4917  -14.6383   29.6105 O   0  0  0  0  0  0  0  0  0  0  0  0
   10.0883  -16.3988   29.3731 O   0  0  0  0  0  0  0  0  0  0  0  0
  2 12  2  0
  2  1  1  0
  3  2  1  0
  4  5  1  0
  4  3  2  0
  5 11  2  0
  6  5  1  0
  7  6  1  0
  7  9  1  0
  7  8  1  1
  9 18  1  0
  9 10  2  0
 11 12  1  0
 14 13  1  0
 14 15  2  0
 16 14  1  0
 17 16  1  6
 18 17  1  0
 19 23  1  0
 19 17  1  0
 20 19  2  0
 22 21  1  1
 22 24  1  0
 22 23  1  0
 24 25  1  0
 26 24  2  0
M  END
$$$$
