YNA.pdb
     RDKit          3D

 26 26  0  0  1  0  0  0  0  0999 V2000
    9.2372  -12.2963   19.0418 O   0  0  0  0  0  0  0  0  0  0  0  0
    8.6068  -13.1952   19.9152 C   0  0  0  0  0  0  0  0  0  0  0  0
    9.1773  -13.6026   21.1005 C   0  0  0  0  0  0  0  0  0  0  0  0
    8.5196  -14.4888   21.9274 C   0  0  0  0  0  0  0  0  0  0  0  0
    7.2815  -15.0107   21.6303 C   0  0  0  0  0  0  0  0  0  0  0  0
    6.5878  -15.9646   22.5353 C   0  0  0  0  0  0  0  0  0  0  0  0
    6.5283  -17.3747   21.9451 C   0  0  2  0  0  0  0  0  0  0  0  0
    5.7962  -18.1823   22.8721 N   0  0  0  0  0  0  0  0  0  0  0  0
    7.9415  -17.8100   21.7969 C   0  0  0  0  0  0  0  0  0  0  0  0
    8.3605  -18.7442   22.5261 O   0  0  0  0  0  0  0  0  0  0  0  0
    6.6980  -14.6072   20.4379 C   0  0  0  0  0  0  0  0  0  0  0  0
    7.3575  -13.7207   19.6123 C   0  0  0  0  0  0  0  0  0  0  0  0
    9.5145  -20.7634   20.1534 N   0  0  0  0  0  0  0  0  0  0  0  0
    8.8814  -20.0908   19.1010 C   0  0  0  0  0  0  0  0  0  0  0  0
    8.2523  -20.7604   18.2302 O   0  0  0  0  0  0  0  0  0  0  0  0
    8.9124  -18.6314   18.9534 C   0  0  0  0  0  0  0  0  0  0  0  0
    9.7669  -18.0280   20.0537 C   0  0  2  0  0  0  0  0  0  0  0  0
    8.8393  -17.2325   20.8826 N   0  0  0  0  0  0  0  0  0  0  0  0
   10.8454  -17.1445   19.5537 C   0  0  0  0  0  0  0  0  0  0  0  0
   11.7568  -17.6811   18.8455 O   0  0  0  0  0  0  0  0  0  0  0  0
   11.6725  -13.5521   19.0485 C   0  0  0  0  0  0  0  0  0  0  0  0
   12.0647  -14.9833   19.1785 C   0  0  2  0  0  0  0  0  0  0  0  0
   10.9589  -15.7592   19.7859 N   0  0  0  0  0  0  0  0  0  0  0  0
   13.2978  -15.0808   19.9665 C   0  0  0  0  0  0  0  0  0  0  0  0
   14.4963  -14.5475   19.5468 O   0  0  0  0  0  0  0  0  0  0  0  0
   13.2540  -15.6755   21.0666 O   0  0  0  0  0  0  0  0  0  0  0  0
  2 12  2  0
  2  1  1  0
  3  2  1  0
  4  5  1  0
  4  3  2  0
  5 11  2  0
  6  5  1  0
  7  6  1  0
  7  9  1  0
  7  8  1  1
  9 18  1  0
  9 10  2  0
 11 12  1  0
 14 13  1  0
 14 15  2  0
 16 14  1  0
 17 16  1  6
 18 17  1  0
 19 23  1  0
 19 17  1  0
 20 19  2  0
 22 21  1  1
 22 24  1  0
 22 23  1  0
 24 25  1  0
 26 24  2  0
M  END
$$$$
