YNA.pdb
     RDKit          3D

 26 26  0  0  1  0  0  0  0  0999 V2000
    9.8974  -13.6947   30.8297 O   0  0  0  0  0  0  0  0  0  0  0  0
   10.1955  -14.3840   29.6448 C   0  0  0  0  0  0  0  0  0  0  0  0
   10.8251  -15.6088   29.6363 C   0  0  0  0  0  0  0  0  0  0  0  0
   11.0981  -16.2490   28.4459 C   0  0  0  0  0  0  0  0  0  0  0  0
   10.7675  -15.7199   27.2194 C   0  0  0  0  0  0  0  0  0  0  0  0
   11.0695  -16.4260   25.9465 C   0  0  0  0  0  0  0  0  0  0  0  0
    9.8240  -17.0782   25.3433 C   0  0  2  0  0  0  0  0  0  0  0  0
    9.3261  -18.0016   26.3165 N   0  0  0  0  0  0  0  0  0  0  0  0
   10.2822  -17.7485   24.0986 C   0  0  0  0  0  0  0  0  0  0  0  0
   10.4477  -18.9945   24.1149 O   0  0  0  0  0  0  0  0  0  0  0  0
   10.1333  -14.4859   27.2165 C   0  0  0  0  0  0  0  0  0  0  0  0
    9.8611  -13.8472   28.4084 C   0  0  0  0  0  0  0  0  0  0  0  0
   11.8868  -17.8769   18.8602 N   0  0  0  0  0  0  0  0  0  0  0  0
   10.5898  -17.5016   19.2312 C   0  0  0  0  0  0  0  0  0  0  0  0
    9.6394  -17.6746   18.4133 O   0  0  0  0  0  0  0  0  0  0  0  0
   10.2731  -16.9086   20.5353 C   0  0  0  0  0  0  0  0  0  0  0  0
   10.8885  -17.7504   21.6387 C   0  0  2  0  0  0  0  0  0  0  0  0
   10.5419  -17.0636   22.8991 N   0  0  0  0  0  0  0  0  0  0  0  0
   12.3616  -17.8714   21.5447 C   0  0  0  0  0  0  0  0  0  0  0  0
   13.0523  -16.8565   21.8809 O   0  0  0  0  0  0  0  0  0  0  0  0
   15.0120  -20.4720   21.3090 C   0  0  0  0  0  0  0  0  0  0  0  0
   14.5518  -19.0571   21.2357 C   0  0  2  0  0  0  0  0  0  0  0  0
   13.0760  -19.0090   21.1191 N   0  0  0  0  0  0  0  0  0  0  0  0
   15.2110  -18.3883   20.1092 C   0  0  0  0  0  0  0  0  0  0  0  0
   16.5645  -18.1354   20.0792 O   0  0  0  0  0  0  0  0  0  0  0  0
   14.5090  -18.0336   19.1359 O   0  0  0  0  0  0  0  0  0  0  0  0
  2 12  2  0
  2  1  1  0
  3  2  1  0
  4  5  1  0
  4  3  2  0
  5 11  2  0
  6  5  1  0
  7  6  1  0
  7  9  1  0
  7  8  1  1
  9 18  1  0
  9 10  2  0
 11 12  1  0
 14 13  1  0
 14 15  2  0
 16 14  1  0
 17 16  1  6
 18 17  1  0
 19 23  1  0
 19 17  1  0
 20 19  2  0
 22 21  1  6
 22 24  1  0
 22 23  1  0
 24 25  1  0
 26 24  2  0
M  END
$$$$
