YNA.pdb
     RDKit          3D

 26 26  0  0  1  0  0  0  0  0999 V2000
    8.8502  -19.6037   30.1164 O   0  0  0  0  0  0  0  0  0  0  0  0
    8.7080  -19.1354   28.8016 C   0  0  0  0  0  0  0  0  0  0  0  0
    7.4790  -18.9179   28.2196 C   0  0  0  0  0  0  0  0  0  0  0  0
    7.3886  -18.4569   26.9231 C   0  0  0  0  0  0  0  0  0  0  0  0
    8.4922  -18.1903   26.1456 C   0  0  0  0  0  0  0  0  0  0  0  0
    8.3742  -17.6928   24.7497 C   0  0  0  0  0  0  0  0  0  0  0  0
    7.8796  -18.7797   23.7936 C   0  0  2  0  0  0  0  0  0  0  0  0
    8.1261  -20.0370   24.4308 N   0  0  0  0  0  0  0  0  0  0  0  0
    8.6655  -18.6062   22.5442 C   0  0  0  0  0  0  0  0  0  0  0  0
    9.6808  -19.3266   22.3699 O   0  0  0  0  0  0  0  0  0  0  0  0
    9.7355  -18.4066   26.7222 C   0  0  0  0  0  0  0  0  0  0  0  0
    9.8237  -18.8678   28.0192 C   0  0  0  0  0  0  0  0  0  0  0  0
   10.0561  -17.3685   17.7125 N   0  0  0  0  0  0  0  0  0  0  0  0
    8.7084  -17.0522   17.9232 C   0  0  0  0  0  0  0  0  0  0  0  0
    7.9889  -16.7266   16.9341 O   0  0  0  0  0  0  0  0  0  0  0  0
    8.0809  -17.0773   19.2492 C   0  0  0  0  0  0  0  0  0  0  0  0
    9.0895  -17.5533   20.2792 C   0  0  2  0  0  0  0  0  0  0  0  0
    8.3350  -17.6775   21.5425 N   0  0  0  0  0  0  0  0  0  0  0  0
   10.2201  -16.6184   20.4826 C   0  0  0  0  0  0  0  0  0  0  0  0
    9.9919  -15.3797   20.2997 O   0  0  0  0  0  0  0  0  0  0  0  0
   11.4612  -15.9744   23.0835 C   0  0  0  0  0  0  0  0  0  0  0  0
   12.2734  -16.1488   21.8471 C   0  0  2  0  0  0  0  0  0  0  0  0
   11.5304  -16.9701   20.8636 N   0  0  0  0  0  0  0  0  0  0  0  0
   13.5662  -16.7482   22.1939 C   0  0  0  0  0  0  0  0  0  0  0  0
   14.7547  -16.0567   22.1162 O   0  0  0  0  0  0  0  0  0  0  0  0
   13.5849  -17.9397   22.5758 O   0  0  0  0  0  0  0  0  0  0  0  0
  2 12  2  0
  2  1  1  0
  3  2  1  0
  4  5  1  0
  4  3  2  0
  5 11  2  0
  6  5  1  0
  7  6  1  0
  7  9  1  0
  7  8  1  1
  9 18  1  0
  9 10  2  0
 11 12  1  0
 14 13  1  0
 14 15  2  0
 16 14  1  0
 17 16  1  6
 18 17  1  0
 19 23  1  0
 19 17  1  0
 20 19  2  0
 22 21  1  1
 22 24  1  0
 22 23  1  0
 24 25  1  0
 26 24  2  0
M  END
$$$$
