YNA.pdb
     RDKit          3D

 26 26  0  0  1  0  0  0  0  0999 V2000
    8.2884  -12.3171   19.9572 O   0  0  0  0  0  0  0  0  0  0  0  0
    7.7020  -13.3890   20.6466 C   0  0  0  0  0  0  0  0  0  0  0  0
    6.9772  -14.3729   20.0117 C   0  0  0  0  0  0  0  0  0  0  0  0
    6.4186  -15.4079   20.7316 C   0  0  0  0  0  0  0  0  0  0  0  0
    6.5455  -15.5229   22.0970 C   0  0  0  0  0  0  0  0  0  0  0  0
    5.9364  -16.6469   22.8556 C   0  0  0  0  0  0  0  0  0  0  0  0
    6.2605  -18.0040   22.2284 C   0  0  2  0  0  0  0  0  0  0  0  0
    5.4232  -18.9696   22.8720 N   0  0  0  0  0  0  0  0  0  0  0  0
    7.7055  -18.2339   22.4887 C   0  0  0  0  0  0  0  0  0  0  0  0
    8.0337  -18.8895   23.5098 O   0  0  0  0  0  0  0  0  0  0  0  0
    7.2733  -14.5364   22.7467 C   0  0  0  0  0  0  0  0  0  0  0  0
    7.8313  -13.5020   22.0247 C   0  0  0  0  0  0  0  0  0  0  0  0
   10.1567  -17.1414   18.3698 N   0  0  0  0  0  0  0  0  0  0  0  0
   10.4701  -17.9183   19.4919 C   0  0  0  0  0  0  0  0  0  0  0  0
   10.3775  -19.1784   19.4156 O   0  0  0  0  0  0  0  0  0  0  0  0
   10.9037  -17.3384   20.7680 C   0  0  0  0  0  0  0  0  0  0  0  0
   10.1617  -18.0106   21.9092 C   0  0  2  0  0  0  0  0  0  0  0  0
    8.7298  -17.7570   21.6529 N   0  0  0  0  0  0  0  0  0  0  0  0
   10.5143  -17.4774   23.2453 C   0  0  0  0  0  0  0  0  0  0  0  0
   11.7346  -17.5528   23.5992 O   0  0  0  0  0  0  0  0  0  0  0  0
    9.2516  -15.2713   25.9459 C   0  0  0  0  0  0  0  0  0  0  0  0
   10.1151  -16.3882   25.4707 C   0  0  2  0  0  0  0  0  0  0  0  0
    9.6245  -16.8892   24.1661 N   0  0  0  0  0  0  0  0  0  0  0  0
   10.1456  -17.4462   26.4859 C   0  0  0  0  0  0  0  0  0  0  0  0
   10.6852  -17.2627   27.7397 O   0  0  0  0  0  0  0  0  0  0  0  0
    9.6596  -18.5621   26.1953 O   0  0  0  0  0  0  0  0  0  0  0  0
  2 12  2  0
  2  1  1  0
  3  2  1  0
  4  5  1  0
  4  3  2  0
  5 11  2  0
  6  5  1  0
  7  6  1  0
  7  9  1  0
  7  8  1  1
  9 18  1  0
  9 10  2  0
 11 12  1  0
 14 13  1  0
 14 15  2  0
 16 14  1  0
 17 16  1  6
 18 17  1  0
 19 23  1  0
 19 17  1  0
 20 19  2  0
 22 21  1  1
 22 24  1  0
 22 23  1  0
 24 25  1  0
 26 24  2  0
M  END
$$$$
