ELF.pdb
     RDKit          3D

 29 29  0  0  1  0  0  0  0  0999 V2000
   28.1027  -20.3798  -16.2241 N   0  0  0  0  0  0  0  0  0  0  0  0
   27.1430  -21.4271  -16.5752 C   0  0  1  0  0  0  0  0  0  0  0  0
   27.8111  -22.5973  -17.1981 C   0  0  0  0  0  0  0  0  0  0  0  0
   28.6389  -22.2140  -18.3935 C   0  0  0  0  0  0  0  0  0  0  0  0
   30.0679  -22.6331  -18.1893 C   0  0  0  0  0  0  0  0  0  0  0  0
   30.9712  -21.8084  -18.4551 O   0  0  0  0  0  0  0  0  0  0  0  0
   26.3048  -21.6925  -15.4015 C   0  0  0  0  0  0  0  0  0  0  0  0
   25.3857  -22.5537  -15.4063 O   0  0  0  0  0  0  0  0  0  0  0  0
   30.4234  -23.8788  -17.7248 O   0  0  0  0  0  0  0  0  0  0  0  0
   25.6599  -19.8294   -9.4407 C   0  0  0  0  0  0  0  0  0  0  0  0
   25.0965  -20.6255  -10.6319 C   0  0  2  0  0  0  0  0  0  0  0  0
   24.8695  -22.0471  -10.1955 C   0  0  0  0  0  0  0  0  0  0  0  0
   26.0988  -20.5257  -11.7473 C   0  0  0  0  0  0  0  0  0  0  0  0
   25.6238  -21.0262  -13.0446 C   0  0  2  0  0  0  0  0  0  0  0  0
   26.4935  -20.9695  -14.1635 N   0  0  0  0  0  0  0  0  0  0  0  0
   24.2975  -20.4241  -13.3834 C   0  0  0  0  0  0  0  0  0  0  0  0
   24.2115  -19.1543  -13.4258 O   0  0  0  0  0  0  0  0  0  0  0  0
   23.1694  -21.2201  -13.6510 N   0  0  0  0  0  0  0  0  0  0  0  0
   21.9023  -20.5611  -13.9614 C   0  0  1  0  0  0  0  0  0  0  0  0
   21.5298  -20.7707  -15.3993 C   0  0  0  0  0  0  0  0  0  0  0  0
   20.2610  -20.1327  -15.7211 C   0  0  0  0  0  0  0  0  0  0  0  0
   19.0898  -20.9020  -15.7069 C   0  0  0  0  0  0  0  0  0  0  0  0
   17.8637  -20.3376  -15.9833 C   0  0  0  0  0  0  0  0  0  0  0  0
   17.7475  -19.0018  -16.2822 C   0  0  0  0  0  0  0  0  0  0  0  0
   18.9008  -18.2107  -16.3030 C   0  0  0  0  0  0  0  0  0  0  0  0
   20.1266  -18.7768  -16.0261 C   0  0  0  0  0  0  0  0  0  0  0  0
   20.8787  -21.1673  -13.0787 C   0  0  0  0  0  0  0  0  0  0  0  0
   19.8724  -20.4347  -12.4579 O   0  0  0  0  0  0  0  0  0  0  0  0
   20.8749  -22.4069  -12.8424 O   0  0  0  0  0  0  0  0  0  0  0  0
  2  1  1  1
  2  3  1  0
  3  4  1  0
  4  5  1  0
  5  6  2  0
  5  9  1  0
  7  2  1  0
  8  7  2  0
 11 10  1  1
 11 13  1  0
 12 11  1  0
 14 13  1  1
 14 15  1  0
 15  7  1  0
 16 14  1  0
 16 17  2  0
 18 16  1  0
 19 18  1  0
 20 21  1  0
 19 20  1  6
 21 26  2  0
 22 21  1  0
 22 23  2  0
 23 24  1  0
 24 25  2  0
 26 25  1  0
 27 19  1  0
 28 27  1  0
 29 27  2  0
M  END
$$$$
