ELF.pdb
     RDKit          3D

 29 29  0  0  1  0  0  0  0  0999 V2000
   26.0804  -21.1674  -13.6148 N   0  0  0  0  0  0  0  0  0  0  0  0
   25.2501  -20.3296  -12.7489 C   0  0  1  0  0  0  0  0  0  0  0  0
   23.8715  -20.1874  -13.2809 C   0  0  0  0  0  0  0  0  0  0  0  0
   23.8491  -19.5816  -14.6571 C   0  0  0  0  0  0  0  0  0  0  0  0
   23.3348  -20.5818  -15.6543 C   0  0  0  0  0  0  0  0  0  0  0  0
   22.8913  -21.6712  -15.2263 O   0  0  0  0  0  0  0  0  0  0  0  0
   25.3799  -20.8222  -11.3738 C   0  0  0  0  0  0  0  0  0  0  0  0
   25.2308  -22.0360  -11.0722 O   0  0  0  0  0  0  0  0  0  0  0  0
   23.3308  -20.3516  -17.0111 O   0  0  0  0  0  0  0  0  0  0  0  0
   27.2283  -18.9127   -5.7169 C   0  0  0  0  0  0  0  0  0  0  0  0
   26.8076  -20.0706   -6.6401 C   0  0  2  0  0  0  0  0  0  0  0  0
   27.8705  -21.1341   -6.5918 C   0  0  0  0  0  0  0  0  0  0  0  0
   26.6361  -19.4996   -8.0197 C   0  0  0  0  0  0  0  0  0  0  0  0
   25.8060  -20.3115   -8.9202 C   0  0  2  0  0  0  0  0  0  0  0  0
   25.6896  -19.9279  -10.2805 N   0  0  0  0  0  0  0  0  0  0  0  0
   24.4532  -20.5362   -8.3236 C   0  0  0  0  0  0  0  0  0  0  0  0
   23.6398  -19.5566   -8.3026 O   0  0  0  0  0  0  0  0  0  0  0  0
   24.0733  -21.7841   -7.7983 N   0  0  0  0  0  0  0  0  0  0  0  0
   22.7332  -21.9302   -7.2336 C   0  0  1  0  0  0  0  0  0  0  0  0
   22.1886  -23.3024   -7.4990 C   0  0  0  0  0  0  0  0  0  0  0  0
   20.8588  -23.4691   -6.9296 C   0  0  0  0  0  0  0  0  0  0  0  0
   20.7287  -24.0643   -5.6676 C   0  0  0  0  0  0  0  0  0  0  0  0
   19.4931  -24.2233   -5.0792 C   0  0  0  0  0  0  0  0  0  0  0  0
   18.3468  -23.8038   -5.7093 C   0  0  0  0  0  0  0  0  0  0  0  0
   18.4479  -23.2061   -6.9699 C   0  0  0  0  0  0  0  0  0  0  0  0
   19.6848  -23.0476   -7.5571 C   0  0  0  0  0  0  0  0  0  0  0  0
   22.8584  -21.7075   -5.7745 C   0  0  0  0  0  0  0  0  0  0  0  0
   21.8167  -21.2421   -4.9789 O   0  0  0  0  0  0  0  0  0  0  0  0
   23.9443  -21.9339   -5.1725 O   0  0  0  0  0  0  0  0  0  0  0  0
  2  1  1  6
  2  3  1  0
  3  4  1  0
  4  5  1  0
  5  6  2  0
  5  9  1  0
  7  2  1  0
  8  7  2  0
 11 10  1  1
 11 13  1  0
 12 11  1  0
 14 13  1  1
 14 15  1  0
 15  7  1  0
 16 14  1  0
 16 17  2  0
 18 16  1  0
 19 18  1  0
 20 21  1  0
 19 20  1  1
 21 26  2  0
 22 21  1  0
 22 23  2  0
 23 24  1  0
 24 25  2  0
 26 25  1  0
 27 19  1  0
 28 27  1  0
 29 27  2  0
M  END
$$$$
