ELF.pdb
     RDKit          3D

 29 29  0  0  1  0  0  0  0  0999 V2000
   27.1718  -21.4208  -13.6905 N   0  0  0  0  0  0  0  0  0  0  0  0
   26.1700  -20.5200  -13.1196 C   0  0  1  0  0  0  0  0  0  0  0  0
   25.1324  -20.1516  -14.1154 C   0  0  0  0  0  0  0  0  0  0  0  0
   25.7108  -19.4419  -15.3083 C   0  0  0  0  0  0  0  0  0  0  0  0
   24.7569  -18.3874  -15.7957 C   0  0  0  0  0  0  0  0  0  0  0  0
   25.0871  -17.1864  -15.6710 O   0  0  0  0  0  0  0  0  0  0  0  0
   25.6984  -21.0998  -11.8580 C   0  0  0  0  0  0  0  0  0  0  0  0
   25.2772  -22.2838  -11.7723 O   0  0  0  0  0  0  0  0  0  0  0  0
   23.5424  -18.6847  -16.3702 O   0  0  0  0  0  0  0  0  0  0  0  0
   27.8846  -21.2414   -8.0770 C   0  0  0  0  0  0  0  0  0  0  0  0
   27.1263  -19.9054   -8.1790 C   0  0  2  0  0  0  0  0  0  0  0  0
   27.5436  -19.0272   -7.0312 C   0  0  0  0  0  0  0  0  0  0  0  0
   25.6579  -20.2242   -8.1473 C   0  0  0  0  0  0  0  0  0  0  0  0
   25.1186  -20.7548   -9.4070 C   0  0  2  0  0  0  0  0  0  0  0  0
   25.6929  -20.3318  -10.6328 N   0  0  0  0  0  0  0  0  0  0  0  0
   23.6318  -20.5992   -9.4459 C   0  0  0  0  0  0  0  0  0  0  0  0
   23.1584  -19.4324   -9.6359 O   0  0  0  0  0  0  0  0  0  0  0  0
   22.7677  -21.6963   -9.2806 N   0  0  0  0  0  0  0  0  0  0  0  0
   21.3250  -21.4682   -9.3315 C   0  0  1  0  0  0  0  0  0  0  0  0
   20.7334  -22.0657  -10.5738 C   0  0  0  0  0  0  0  0  0  0  0  0
   20.9404  -21.2065  -11.7311 C   0  0  0  0  0  0  0  0  0  0  0  0
   21.9253  -21.5507  -12.6666 C   0  0  0  0  0  0  0  0  0  0  0  0
   22.1425  -20.7804  -13.7880 C   0  0  0  0  0  0  0  0  0  0  0  0
   21.4012  -19.6489  -14.0274 C   0  0  0  0  0  0  0  0  0  0  0  0
   20.4112  -19.2824  -13.1097 C   0  0  0  0  0  0  0  0  0  0  0  0
   20.1950  -20.0542  -11.9884 C   0  0  0  0  0  0  0  0  0  0  0  0
   20.7477  -22.1176   -8.1317 C   0  0  0  0  0  0  0  0  0  0  0  0
   19.3858  -22.1319   -7.8496 O   0  0  0  0  0  0  0  0  0  0  0  0
   21.4847  -22.6999   -7.2889 O   0  0  0  0  0  0  0  0  0  0  0  0
  2  1  1  6
  2  3  1  0
  3  4  1  0
  4  5  1  0
  5  6  2  0
  5  9  1  0
  7  2  1  0
  8  7  2  0
 11 10  1  1
 11 13  1  0
 12 11  1  0
 14 13  1  1
 14 15  1  0
 15  7  1  0
 16 14  1  0
 16 17  2  0
 18 16  1  0
 19 18  1  0
 20 21  1  0
 19 20  1  6
 21 26  2  0
 22 21  1  0
 22 23  2  0
 23 24  1  0
 24 25  2  0
 26 25  1  0
 27 19  1  0
 28 27  1  0
 29 27  2  0
M  END
$$$$
