ELF.pdb
     RDKit          3D

 29 29  0  0  1  0  0  0  0  0999 V2000
   27.7681  -21.2317  -15.9388 N   0  0  0  0  0  0  0  0  0  0  0  0
   26.8953  -20.1630  -15.4520 C   0  0  1  0  0  0  0  0  0  0  0  0
   26.4728  -19.2568  -16.5493 C   0  0  0  0  0  0  0  0  0  0  0  0
   27.5859  -18.3555  -17.0075 C   0  0  0  0  0  0  0  0  0  0  0  0
   28.3681  -19.0173  -18.1073 C   0  0  0  0  0  0  0  0  0  0  0  0
   27.7674  -19.3181  -19.1635 O   0  0  0  0  0  0  0  0  0  0  0  0
   25.8288  -20.7718  -14.6505 C   0  0  0  0  0  0  0  0  0  0  0  0
   25.1519  -21.7530  -15.0573 O   0  0  0  0  0  0  0  0  0  0  0  0
   29.7097  -19.3051  -18.0028 O   0  0  0  0  0  0  0  0  0  0  0  0
   26.3773  -22.1928  -10.6332 C   0  0  0  0  0  0  0  0  0  0  0  0
   25.9685  -20.7172  -10.4740 C   0  0  2  0  0  0  0  0  0  0  0  0
   26.0256  -20.3575   -9.0144 C   0  0  0  0  0  0  0  0  0  0  0  0
   24.5839  -20.5757  -11.0412 C   0  0  0  0  0  0  0  0  0  0  0  0
   24.4892  -20.8013  -12.4901 C   0  0  2  0  0  0  0  0  0  0  0  0
   25.4961  -20.2700  -13.3358 N   0  0  0  0  0  0  0  0  0  0  0  0
   23.1326  -20.4207  -12.9910 C   0  0  0  0  0  0  0  0  0  0  0  0
   22.8603  -19.1810  -13.0941 O   0  0  0  0  0  0  0  0  0  0  0  0
   22.1746  -21.3883  -13.3430 N   0  0  0  0  0  0  0  0  0  0  0  0
   20.8926  -20.9429  -13.8852 C   0  0  1  0  0  0  0  0  0  0  0  0
   20.9088  -20.9700  -15.3850 C   0  0  0  0  0  0  0  0  0  0  0  0
   19.6229  -20.5726  -15.9407 C   0  0  0  0  0  0  0  0  0  0  0  0
   19.3750  -19.2139  -16.1783 C   0  0  0  0  0  0  0  0  0  0  0  0
   18.1817  -18.7924  -16.7230 C   0  0  0  0  0  0  0  0  0  0  0  0
   17.1945  -19.6893  -17.0516 C   0  0  0  0  0  0  0  0  0  0  0  0
   17.4158  -21.0517  -16.8251 C   0  0  0  0  0  0  0  0  0  0  0  0
   18.6102  -21.4719  -16.2803 C   0  0  0  0  0  0  0  0  0  0  0  0
   19.8643  -21.8776  -13.3721 C   0  0  0  0  0  0  0  0  0  0  0  0
   18.5925  -21.4753  -12.9779 O   0  0  0  0  0  0  0  0  0  0  0  0
   20.1028  -23.1122  -13.2648 O   0  0  0  0  0  0  0  0  0  0  0  0
  2  1  1  6
  2  3  1  0
  3  4  1  0
  4  5  1  0
  5  6  2  0
  5  9  1  0
  7  2  1  0
  8  7  2  0
 11 10  1  1
 11 13  1  0
 12 11  1  0
 14 13  1  1
 14 15  1  0
 15  7  1  0
 16 14  1  0
 16 17  2  0
 18 16  1  0
 19 18  1  0
 20 21  1  0
 19 20  1  6
 21 26  2  0
 22 21  1  0
 22 23  2  0
 23 24  1  0
 24 25  2  0
 26 25  1  0
 27 19  1  0
 28 27  1  0
 29 27  2  0
M  END
$$$$
