ELF.pdb
     RDKit          3D

 29 29  0  0  1  0  0  0  0  0999 V2000
   26.4661  -22.1086  -19.2288 N   0  0  0  0  0  0  0  0  0  0  0  0
   26.1410  -20.7922  -18.6789 C   0  0  1  0  0  0  0  0  0  0  0  0
   25.2802  -20.0096  -19.6011 C   0  0  0  0  0  0  0  0  0  0  0  0
   26.0406  -19.4877  -20.7888 C   0  0  0  0  0  0  0  0  0  0  0  0
   26.9093  -18.3313  -20.3796 C   0  0  0  0  0  0  0  0  0  0  0  0
   26.4563  -17.1725  -20.5158 O   0  0  0  0  0  0  0  0  0  0  0  0
   25.6466  -20.9767  -17.3107 C   0  0  0  0  0  0  0  0  0  0  0  0
   24.7546  -21.8173  -17.0203 O   0  0  0  0  0  0  0  0  0  0  0  0
   28.1751  -18.4919  -19.8642 O   0  0  0  0  0  0  0  0  0  0  0  0
   27.9712  -21.7020  -13.5488 C   0  0  0  0  0  0  0  0  0  0  0  0
   27.9824  -20.1883  -13.8290 C   0  0  2  0  0  0  0  0  0  0  0  0
   28.8249  -19.5120  -12.7822 C   0  0  0  0  0  0  0  0  0  0  0  0
   26.5545  -19.7202  -13.8001 C   0  0  0  0  0  0  0  0  0  0  0  0
   25.7089  -20.2661  -14.8706 C   0  0  2  0  0  0  0  0  0  0  0  0
   26.1647  -20.1928  -16.2116 N   0  0  0  0  0  0  0  0  0  0  0  0
   24.3171  -19.7299  -14.7624 C   0  0  0  0  0  0  0  0  0  0  0  0
   24.1396  -18.4851  -14.9638 O   0  0  0  0  0  0  0  0  0  0  0  0
   23.2257  -20.5599  -14.4498 N   0  0  0  0  0  0  0  0  0  0  0  0
   21.8731  -20.0240  -14.5887 C   0  0  1  0  0  0  0  0  0  0  0  0
   21.4931  -19.9020  -16.0347 C   0  0  0  0  0  0  0  0  0  0  0  0
   20.1243  -19.4299  -16.1896 C   0  0  0  0  0  0  0  0  0  0  0  0
   19.8843  -18.0512  -16.2623 C   0  0  0  0  0  0  0  0  0  0  0  0
   18.6087  -17.5583  -16.4305 C   0  0  0  0  0  0  0  0  0  0  0  0
   17.5290  -18.4014  -16.5326 C   0  0  0  0  0  0  0  0  0  0  0  0
   17.7402  -19.7824  -16.4634 C   0  0  0  0  0  0  0  0  0  0  0  0
   19.0170  -20.2738  -16.2954 C   0  0  0  0  0  0  0  0  0  0  0  0
   20.9655  -20.9736  -13.9040 C   0  0  0  0  0  0  0  0  0  0  0  0
   19.8313  -20.5781  -13.2028 O   0  0  0  0  0  0  0  0  0  0  0  0
   21.1875  -22.2158  -13.9248 O   0  0  0  0  0  0  0  0  0  0  0  0
  2  1  1  6
  2  3  1  0
  3  4  1  0
  4  5  1  0
  5  6  2  0
  5  9  1  0
  7  2  1  0
  8  7  2  0
 11 10  1  1
 11 13  1  0
 12 11  1  0
 14 13  1  1
 14 15  1  0
 15  7  1  0
 16 14  1  0
 16 17  2  0
 18 16  1  0
 19 18  1  0
 20 21  1  0
 19 20  1  6
 21 26  2  0
 22 21  1  0
 22 23  2  0
 23 24  1  0
 24 25  2  0
 26 25  1  0
 27 19  1  0
 28 27  1  0
 29 27  2  0
M  END
$$$$
