ELF.pdb
     RDKit          3D

 29 29  0  0  1  0  0  0  0  0999 V2000
   28.9459  -23.2286  -16.5093 N   0  0  0  0  0  0  0  0  0  0  0  0
   27.5925  -22.9100  -16.9652 C   0  0  1  0  0  0  0  0  0  0  0  0
   26.8064  -24.1367  -17.2501 C   0  0  0  0  0  0  0  0  0  0  0  0
   27.3067  -24.8674  -18.4654 C   0  0  0  0  0  0  0  0  0  0  0  0
   26.9389  -24.1115  -19.7115 C   0  0  0  0  0  0  0  0  0  0  0  0
   26.1221  -23.1681  -19.6130 O   0  0  0  0  0  0  0  0  0  0  0  0
   27.0048  -21.9530  -16.0222 C   0  0  0  0  0  0  0  0  0  0  0  0
   27.1752  -22.0374  -14.7770 O   0  0  0  0  0  0  0  0  0  0  0  0
   27.4593  -24.4112  -20.9496 O   0  0  0  0  0  0  0  0  0  0  0  0
   27.6742  -17.7839  -14.9249 C   0  0  0  0  0  0  0  0  0  0  0  0
   26.9995  -17.8801  -16.3053 C   0  0  2  0  0  0  0  0  0  0  0  0
   26.9498  -16.5048  -16.9128 C   0  0  0  0  0  0  0  0  0  0  0  0
   25.6285  -18.4574  -16.0909 C   0  0  0  0  0  0  0  0  0  0  0  0
   25.6160  -19.8574  -15.6449 C   0  0  2  0  0  0  0  0  0  0  0  0
   26.1896  -20.8499  -16.4799 N   0  0  0  0  0  0  0  0  0  0  0  0
   24.2383  -20.2604  -15.2258 C   0  0  0  0  0  0  0  0  0  0  0  0
   23.4909  -20.8208  -16.0913 O   0  0  0  0  0  0  0  0  0  0  0  0
   23.7659  -20.0363  -13.9203 N   0  0  0  0  0  0  0  0  0  0  0  0
   22.3785  -20.3733  -13.6077 C   0  0  1  0  0  0  0  0  0  0  0  0
   22.1576  -20.4034  -12.1243 C   0  0  0  0  0  0  0  0  0  0  0  0
   20.7722  -20.7095  -11.7964 C   0  0  0  0  0  0  0  0  0  0  0  0
   19.9070  -19.6621  -11.4528 C   0  0  0  0  0  0  0  0  0  0  0  0
   18.5828  -19.9006  -11.1560 C   0  0  0  0  0  0  0  0  0  0  0  0
   18.0658  -21.1729  -11.1867 C   0  0  0  0  0  0  0  0  0  0  0  0
   18.9075  -22.2370  -11.5269 C   0  0  0  0  0  0  0  0  0  0  0  0
   20.2319  -21.9967  -11.8237 C   0  0  0  0  0  0  0  0  0  0  0  0
   21.5350  -19.3235  -14.2249 C   0  0  0  0  0  0  0  0  0  0  0  0
   20.2819  -19.5733  -14.7745 O   0  0  0  0  0  0  0  0  0  0  0  0
   21.9264  -18.1252  -14.2834 O   0  0  0  0  0  0  0  0  0  0  0  0
  2  1  1  1
  2  3  1  0
  3  4  1  0
  4  5  1  0
  5  6  2  0
  5  9  1  0
  7  2  1  0
  8  7  2  0
 11 10  1  1
 11 13  1  0
 12 11  1  0
 14 13  1  6
 14 15  1  0
 15  7  1  0
 16 14  1  0
 16 17  2  0
 18 16  1  0
 19 18  1  0
 20 21  1  0
 19 20  1  1
 21 26  2  0
 22 21  1  0
 22 23  2  0
 23 24  1  0
 24 25  2  0
 26 25  1  0
 27 19  1  0
 28 27  1  0
 29 27  2  0
M  END
$$$$
