ELF.pdb
     RDKit          3D

 29 29  0  0  1  0  0  0  0  0999 V2000
   26.4184  -18.3797  -13.6807 N   0  0  0  0  0  0  0  0  0  0  0  0
   25.3455  -19.3741  -13.7139 C   0  0  1  0  0  0  0  0  0  0  0  0
   24.8099  -19.5578  -15.0863 C   0  0  0  0  0  0  0  0  0  0  0  0
   25.4328  -18.6113  -16.0749 C   0  0  0  0  0  0  0  0  0  0  0  0
   24.3835  -17.7050  -16.6554 C   0  0  0  0  0  0  0  0  0  0  0  0
   23.4097  -18.2266  -17.2439 O   0  0  0  0  0  0  0  0  0  0  0  0
   25.8153  -20.5784  -13.0215 C   0  0  0  0  0  0  0  0  0  0  0  0
   25.1301  -21.6333  -12.9568 O   0  0  0  0  0  0  0  0  0  0  0  0
   24.4478  -16.3332  -16.5676 O   0  0  0  0  0  0  0  0  0  0  0  0
   30.9934  -20.4437  -11.5515 C   0  0  0  0  0  0  0  0  0  0  0  0
   29.8852  -21.1474  -10.7472 C   0  0  2  0  0  0  0  0  0  0  0  0
   30.5276  -21.9886   -9.6783 C   0  0  0  0  0  0  0  0  0  0  0  0
   29.0870  -21.9722  -11.7175 C   0  0  0  0  0  0  0  0  0  0  0  0
   27.6377  -21.7336  -11.6772 C   0  0  2  0  0  0  0  0  0  0  0  0
   27.1055  -20.6161  -12.3696 N   0  0  0  0  0  0  0  0  0  0  0  0
   27.1429  -21.7573  -10.2662 C   0  0  0  0  0  0  0  0  0  0  0  0
   27.4195  -22.7758   -9.5536 O   0  0  0  0  0  0  0  0  0  0  0  0
   26.3948  -20.6963   -9.7256 N   0  0  0  0  0  0  0  0  0  0  0  0
   25.8418  -20.8404   -8.3804 C   0  0  1  0  0  0  0  0  0  0  0  0
   26.0715  -19.5973   -7.5728 C   0  0  0  0  0  0  0  0  0  0  0  0
   27.1430  -19.7800   -6.6037 C   0  0  0  0  0  0  0  0  0  0  0  0
   28.1580  -18.8172   -6.5221 C   0  0  0  0  0  0  0  0  0  0  0  0
   29.1803  -18.9362   -5.6062 C   0  0  0  0  0  0  0  0  0  0  0  0
   29.2396  -20.0023   -4.7420 C   0  0  0  0  0  0  0  0  0  0  0  0
   28.2390  -20.9778   -4.8018 C   0  0  0  0  0  0  0  0  0  0  0  0
   27.2168  -20.8573   -5.7185 C   0  0  0  0  0  0  0  0  0  0  0  0
   24.3888  -21.0804   -8.5399 C   0  0  0  0  0  0  0  0  0  0  0  0
   23.5725  -21.5451   -7.5140 O   0  0  0  0  0  0  0  0  0  0  0  0
   23.8118  -20.8708   -9.6426 O   0  0  0  0  0  0  0  0  0  0  0  0
  2  1  1  6
  2  3  1  0
  3  4  1  0
  4  5  1  0
  5  6  2  0
  5  9  1  0
  7  2  1  0
  8  7  2  0
 11 10  1  6
 11 13  1  0
 12 11  1  0
 14 13  1  1
 14 15  1  0
 15  7  1  0
 16 14  1  0
 16 17  2  0
 18 16  1  0
 19 18  1  0
 20 21  1  0
 19 20  1  1
 21 26  2  0
 22 21  1  0
 22 23  2  0
 23 24  1  0
 24 25  2  0
 26 25  1  0
 27 19  1  0
 28 27  1  0
 29 27  2  0
M  END
$$$$
