ELF.pdb
     RDKit          3D

 29 29  0  0  1  0  0  0  0  0999 V2000
   27.5172  -22.5805  -16.7436 N   0  0  0  0  0  0  0  0  0  0  0  0
   26.7925  -21.3928  -16.2908 C   0  0  1  0  0  0  0  0  0  0  0  0
   25.7378  -20.9924  -17.2557 C   0  0  0  0  0  0  0  0  0  0  0  0
   26.3093  -20.5070  -18.5591 C   0  0  0  0  0  0  0  0  0  0  0  0
   25.6424  -21.2078  -19.7095 C   0  0  0  0  0  0  0  0  0  0  0  0
   25.9961  -20.9073  -20.8719 O   0  0  0  0  0  0  0  0  0  0  0  0
   26.3695  -21.6151  -14.9043 C   0  0  0  0  0  0  0  0  0  0  0  0
   25.6817  -22.6117  -14.5575 O   0  0  0  0  0  0  0  0  0  0  0  0
   24.6643  -22.1609  -19.5397 O   0  0  0  0  0  0  0  0  0  0  0  0
   28.4065  -22.3571  -10.9773 C   0  0  0  0  0  0  0  0  0  0  0  0
   28.5312  -20.8988  -11.4547 C   0  0  2  0  0  0  0  0  0  0  0  0
   29.4801  -20.1733  -10.5403 C   0  0  0  0  0  0  0  0  0  0  0  0
   27.1512  -20.3038  -11.4311 C   0  0  0  0  0  0  0  0  0  0  0  0
   26.2674  -20.7627  -12.5115 C   0  0  2  0  0  0  0  0  0  0  0  0
   26.7251  -20.6895  -13.8518 N   0  0  0  0  0  0  0  0  0  0  0  0
   24.9172  -20.1324  -12.3858 C   0  0  0  0  0  0  0  0  0  0  0  0
   24.8419  -18.8631  -12.4567 O   0  0  0  0  0  0  0  0  0  0  0  0
   23.7553  -20.9017  -12.1959 N   0  0  0  0  0  0  0  0  0  0  0  0
   22.4920  -20.4135  -12.7451 C   0  0  1  0  0  0  0  0  0  0  0  0
   22.5877  -20.2401  -14.2321 C   0  0  0  0  0  0  0  0  0  0  0  0
   21.3359  -19.7540  -14.7952 C   0  0  0  0  0  0  0  0  0  0  0  0
   20.4972  -20.6536  -15.4667 C   0  0  0  0  0  0  0  0  0  0  0  0
   19.2931  -20.2445  -15.9969 C   0  0  0  0  0  0  0  0  0  0  0  0
   18.8738  -18.9411  -15.8855 C   0  0  0  0  0  0  0  0  0  0  0  0
   19.6917  -18.0221  -15.2198 C   0  0  0  0  0  0  0  0  0  0  0  0
   20.8958  -18.4330  -14.6897 C   0  0  0  0  0  0  0  0  0  0  0  0
   21.4639  -21.4286  -12.4180 C   0  0  0  0  0  0  0  0  0  0  0  0
   20.1967  -21.1089  -11.9419 O   0  0  0  0  0  0  0  0  0  0  0  0
   21.6984  -22.6607  -12.5579 O   0  0  0  0  0  0  0  0  0  0  0  0
  2  1  1  6
  2  3  1  0
  3  4  1  0
  4  5  1  0
  5  6  2  0
  5  9  1  0
  7  2  1  0
  8  7  2  0
 11 10  1  1
 11 13  1  0
 12 11  1  0
 14 13  1  1
 14 15  1  0
 15  7  1  0
 16 14  1  0
 16 17  2  0
 18 16  1  0
 19 18  1  0
 20 21  1  0
 19 20  1  6
 21 26  2  0
 22 21  1  0
 22 23  2  0
 23 24  1  0
 24 25  2  0
 26 25  1  0
 27 19  1  0
 28 27  1  0
 29 27  2  0
M  END
$$$$
