WKW.pdb
     RDKit          3D

 38 41  0  0  1  0  0  0  0  0999 V2000
   27.5994  -21.5799  -15.5722 N   0  0  0  0  0  0  0  0  0  0  0  0
   26.5360  -21.8522  -14.6222 C   0  0  1  0  0  0  0  0  0  0  0  0
   26.1867  -20.5142  -13.9870 C   0  0  0  0  0  0  0  0  0  0  0  0
   27.3047  -20.1338  -13.0885 C   0  0  0  0  0  0  0  0  0  0  0  0
   28.4492  -19.4279  -13.3856 C   0  0  0  0  0  0  0  0  0  0  0  0
   29.2126  -19.2964  -12.2676 N   0  0  0  0  0  0  0  0  0  0  0  0
   28.5916  -19.9011  -11.2470 C   0  0  0  0  0  0  0  0  0  0  0  0
   28.9426  -20.0492   -9.9288 C   0  0  0  0  0  0  0  0  0  0  0  0
   28.0828  -20.7455   -9.0734 C   0  0  0  0  0  0  0  0  0  0  0  0
   26.9030  -21.2782   -9.5253 C   0  0  0  0  0  0  0  0  0  0  0  0
   26.5813  -21.1096  -10.8565 C   0  0  0  0  0  0  0  0  0  0  0  0
   27.4135  -20.4255  -11.7278 C   0  0  0  0  0  0  0  0  0  0  0  0
   25.4060  -22.4613  -15.3332 C   0  0  0  0  0  0  0  0  0  0  0  0
   24.7781  -21.7999  -16.1872 O   0  0  0  0  0  0  0  0  0  0  0  0
   25.0205  -23.7878  -15.0639 N   0  0  0  0  0  0  0  0  0  0  0  0
   23.8556  -24.3895  -15.7846 C   0  0  1  0  0  0  0  0  0  0  0  0
   24.2191  -25.8457  -16.0368 C   0  0  0  0  0  0  0  0  0  0  0  0
   25.5388  -25.9924  -16.7134 C   0  0  0  0  0  0  0  0  0  0  0  0
   25.9671  -27.4132  -16.9371 C   0  0  0  0  0  0  0  0  0  0  0  0
   27.3201  -27.3901  -17.6470 C   0  0  0  0  0  0  0  0  0  0  0  0
   27.8581  -28.7212  -17.6982 N   0  0  0  0  0  0  0  0  0  0  0  0
   22.6911  -24.2048  -14.9152 C   0  0  0  0  0  0  0  0  0  0  0  0
   22.6908  -24.7336  -13.7364 O   0  0  0  0  0  0  0  0  0  0  0  0
   21.5328  -23.4837  -15.2392 N   0  0  0  0  0  0  0  0  0  0  0  0
   20.9911  -22.4405  -14.3479 C   0  0  1  0  0  0  0  0  0  0  0  0
   22.0747  -21.5369  -13.8816 C   0  0  0  0  0  0  0  0  0  0  0  0
   21.5612  -20.4797  -13.0041 C   0  0  0  0  0  0  0  0  0  0  0  0
   21.0776  -20.6755  -11.7014 C   0  0  0  0  0  0  0  0  0  0  0  0
   20.6376  -19.5185  -11.2151 N   0  0  0  0  0  0  0  0  0  0  0  0
   20.8044  -18.5535  -12.1302 C   0  0  0  0  0  0  0  0  0  0  0  0
   20.5372  -17.2017  -12.1187 C   0  0  0  0  0  0  0  0  0  0  0  0
   20.8275  -16.3963  -13.1961 C   0  0  0  0  0  0  0  0  0  0  0  0
   21.4023  -16.9848  -14.3076 C   0  0  0  0  0  0  0  0  0  0  0  0
   21.6778  -18.3293  -14.3464 C   0  0  0  0  0  0  0  0  0  0  0  0
   21.3818  -19.1419  -13.2548 C   0  0  0  0  0  0  0  0  0  0  0  0
   19.9444  -21.7277  -15.0560 C   0  0  0  0  0  0  0  0  0  0  0  0
   20.1455  -21.0945  -16.1172 O   0  0  0  0  0  0  0  0  0  0  0  0
   18.6525  -21.7236  -14.5677 O   0  0  0  0  0  0  0  0  0  0  0  0
  2  1  1  6
  3  2  1  0
  4  3  1  0
  4  5  2  0
  6  5  1  0
  7  6  1  0
  8  7  2  0
  9  8  1  0
 10  9  2  0
 10 11  1  0
 11 12  2  0
 12  7  1  0
 12  4  1  0
 13  2  1  0
 13 15  1  0
 14 13  2  0
 16 15  1  0
 16 17  1  1
 18 17  1  0
 19 20  1  0
 19 18  1  0
 21 20  1  0
 22 23  2  0
 22 16  1  0
 24 22  1  0
 25 24  1  0
 25 36  1  0
 25 26  1  6
 27 26  1  0
 28 27  2  0
 29 28  1  0
 30 29  1  0
 30 35  2  0
 31 32  2  0
 31 30  1  0
 32 33  1  0
 33 34  2  0
 35 34  1  0
 35 27  1  0
 36 38  1  0
 37 36  2  0
M  END
$$$$
