WKW.pdb
     RDKit          3D

 38 41  0  0  1  0  0  0  0  0999 V2000
   21.7757  -21.6186  -15.3676 N   0  0  0  0  0  0  0  0  0  0  0  0
   21.5278  -22.2978  -16.6265 C   0  0  1  0  0  0  0  0  0  0  0  0
   20.4284  -21.5076  -17.3213 C   0  0  0  0  0  0  0  0  0  0  0  0
   19.1713  -21.7155  -16.5606 C   0  0  0  0  0  0  0  0  0  0  0  0
   18.5871  -20.8983  -15.6186 C   0  0  0  0  0  0  0  0  0  0  0  0
   17.4358  -21.4650  -15.1677 N   0  0  0  0  0  0  0  0  0  0  0  0
   17.2556  -22.6343  -15.7946 C   0  0  0  0  0  0  0  0  0  0  0  0
   16.2616  -23.5751  -15.6954 C   0  0  0  0  0  0  0  0  0  0  0  0
   16.3364  -24.7252  -16.4875 C   0  0  0  0  0  0  0  0  0  0  0  0
   17.3778  -24.9275  -17.3562 C   0  0  0  0  0  0  0  0  0  0  0  0
   18.3593  -23.9605  -17.4309 C   0  0  0  0  0  0  0  0  0  0  0  0
   18.3125  -22.8114  -16.6581 C   0  0  0  0  0  0  0  0  0  0  0  0
   22.7755  -22.3431  -17.3976 C   0  0  0  0  0  0  0  0  0  0  0  0
   23.6160  -21.4266  -17.2767 O   0  0  0  0  0  0  0  0  0  0  0  0
   23.0379  -23.4122  -18.2745 N   0  0  0  0  0  0  0  0  0  0  0  0
   24.2915  -23.4197  -19.0912 C   0  0  1  0  0  0  0  0  0  0  0  0
   24.7709  -24.8639  -19.1191 C   0  0  0  0  0  0  0  0  0  0  0  0
   25.5986  -25.2104  -17.9291 C   0  0  0  0  0  0  0  0  0  0  0  0
   27.0520  -24.8612  -18.0610 C   0  0  0  0  0  0  0  0  0  0  0  0
   27.7447  -25.2289  -16.7495 C   0  0  0  0  0  0  0  0  0  0  0  0
   29.1456  -24.9249  -16.8449 N   0  0  0  0  0  0  0  0  0  0  0  0
   23.9318  -22.8826  -20.4057 C   0  0  0  0  0  0  0  0  0  0  0  0
   22.9091  -23.3667  -21.0293 O   0  0  0  0  0  0  0  0  0  0  0  0
   24.6051  -21.8561  -21.0837 N   0  0  0  0  0  0  0  0  0  0  0  0
   24.2313  -21.4519  -22.4522 C   0  0  1  0  0  0  0  0  0  0  0  0
   23.9172  -20.0003  -22.5012 C   0  0  0  0  0  0  0  0  0  0  0  0
   23.4778  -19.5839  -23.8372 C   0  0  0  0  0  0  0  0  0  0  0  0
   22.1791  -19.7404  -24.3454 C   0  0  0  0  0  0  0  0  0  0  0  0
   22.1423  -19.3102  -25.6032 N   0  0  0  0  0  0  0  0  0  0  0  0
   23.3559  -18.8702  -25.9638 C   0  0  0  0  0  0  0  0  0  0  0  0
   23.8381  -18.3161  -27.1297 C   0  0  0  0  0  0  0  0  0  0  0  0
   25.1475  -17.9104  -27.2521 C   0  0  0  0  0  0  0  0  0  0  0  0
   25.9804  -18.0747  -26.1606 C   0  0  0  0  0  0  0  0  0  0  0  0
   25.5265  -18.6252  -24.9875 C   0  0  0  0  0  0  0  0  0  0  0  0
   24.2012  -19.0358  -24.8673 C   0  0  0  0  0  0  0  0  0  0  0  0
   25.3115  -21.8136  -23.3506 C   0  0  0  0  0  0  0  0  0  0  0  0
   26.5124  -21.8467  -22.9978 O   0  0  0  0  0  0  0  0  0  0  0  0
   25.0428  -22.1430  -24.6647 O   0  0  0  0  0  0  0  0  0  0  0  0
  2  1  1  1
  3  2  1  0
  4  3  1  0
  4  5  2  0
  6  5  1  0
  7  6  1  0
  8  7  2  0
  9  8  1  0
 10  9  2  0
 10 11  1  0
 11 12  2  0
 12  7  1  0
 12  4  1  0
 13  2  1  0
 13 15  1  0
 14 13  2  0
 16 15  1  0
 16 17  1  6
 18 17  1  0
 19 20  1  0
 19 18  1  0
 21 20  1  0
 22 23  2  0
 22 16  1  0
 24 22  1  0
 25 24  1  0
 25 36  1  0
 25 26  1  1
 27 26  1  0
 28 27  2  0
 29 28  1  0
 30 29  1  0
 30 35  2  0
 31 32  2  0
 31 30  1  0
 32 33  1  0
 33 34  2  0
 35 34  1  0
 35 27  1  0
 36 38  1  0
 37 36  2  0
M  END
$$$$
