WKW.pdb
     RDKit          3D

 38 41  0  0  1  0  0  0  0  0999 V2000
   26.0283  -19.8397  -12.2388 N   0  0  0  0  0  0  0  0  0  0  0  0
   26.0136  -21.2885  -12.1474 C   0  0  1  0  0  0  0  0  0  0  0  0
   25.3201  -21.6201  -10.8341 C   0  0  0  0  0  0  0  0  0  0  0  0
   26.1228  -21.0273   -9.7358 C   0  0  0  0  0  0  0  0  0  0  0  0
   25.7035  -20.2340   -8.6910 C   0  0  0  0  0  0  0  0  0  0  0  0
   26.7649  -19.9076   -7.9057 N   0  0  0  0  0  0  0  0  0  0  0  0
   27.8681  -20.4702   -8.4149 C   0  0  0  0  0  0  0  0  0  0  0  0
   29.1761  -20.4435   -8.0007 C   0  0  0  0  0  0  0  0  0  0  0  0
   30.1363  -21.1355   -8.7456 C   0  0  0  0  0  0  0  0  0  0  0  0
   29.7961  -21.8361   -9.8740 C   0  0  0  0  0  0  0  0  0  0  0  0
   28.4717  -21.8423  -10.2608 C   0  0  0  0  0  0  0  0  0  0  0  0
   27.4984  -21.1654   -9.5437 C   0  0  0  0  0  0  0  0  0  0  0  0
   25.3151  -21.8329  -13.3176 C   0  0  0  0  0  0  0  0  0  0  0  0
   24.5052  -21.1195  -13.9471 O   0  0  0  0  0  0  0  0  0  0  0  0
   25.5488  -23.1544  -13.7413 N   0  0  0  0  0  0  0  0  0  0  0  0
   24.7833  -23.7160  -14.8977 C   0  0  1  0  0  0  0  0  0  0  0  0
   25.5734  -24.9225  -15.3837 C   0  0  0  0  0  0  0  0  0  0  0  0
   24.9594  -25.5571  -16.5842 C   0  0  0  0  0  0  0  0  0  0  0  0
   25.7178  -26.7364  -17.1192 C   0  0  0  0  0  0  0  0  0  0  0  0
   25.0155  -27.2090  -18.3915 C   0  0  0  0  0  0  0  0  0  0  0  0
   25.7232  -28.3318  -18.9415 N   0  0  0  0  0  0  0  0  0  0  0  0
   23.4473  -24.0394  -14.3912 C   0  0  0  0  0  0  0  0  0  0  0  0
   23.3310  -24.7905  -13.3464 O   0  0  0  0  0  0  0  0  0  0  0  0
   22.2341  -23.6000  -14.9405 N   0  0  0  0  0  0  0  0  0  0  0  0
   20.9352  -23.9394  -14.3293 C   0  0  1  0  0  0  0  0  0  0  0  0
   20.2389  -22.7114  -13.8652 C   0  0  0  0  0  0  0  0  0  0  0  0
   20.4705  -21.5803  -14.7699 C   0  0  0  0  0  0  0  0  0  0  0  0
   20.0507  -21.5170  -16.1074 C   0  0  0  0  0  0  0  0  0  0  0  0
   20.4760  -20.3799  -16.6504 N   0  0  0  0  0  0  0  0  0  0  0  0
   21.1611  -19.6751  -15.7393 C   0  0  0  0  0  0  0  0  0  0  0  0
   21.7805  -18.4450  -15.7854 C   0  0  0  0  0  0  0  0  0  0  0  0
   22.4122  -17.9098  -14.6860 C   0  0  0  0  0  0  0  0  0  0  0  0
   22.4106  -18.6472  -13.5162 C   0  0  0  0  0  0  0  0  0  0  0  0
   21.8025  -19.8760  -13.4430 C   0  0  0  0  0  0  0  0  0  0  0  0
   21.1650  -20.4153  -14.5576 C   0  0  0  0  0  0  0  0  0  0  0  0
   20.1523  -24.6859  -15.2962 C   0  0  0  0  0  0  0  0  0  0  0  0
   19.0584  -25.2279  -15.0182 O   0  0  0  0  0  0  0  0  0  0  0  0
   20.6015  -24.8279  -16.5945 O   0  0  0  0  0  0  0  0  0  0  0  0
  2  1  1  6
  3  2  1  0
  4  3  1  0
  4  5  2  0
  6  5  1  0
  7  6  1  0
  8  7  2  0
  9  8  1  0
 10  9  2  0
 10 11  1  0
 11 12  2  0
 12  7  1  0
 12  4  1  0
 13  2  1  0
 13 15  1  0
 14 13  2  0
 16 15  1  0
 16 17  1  1
 18 17  1  0
 19 20  1  0
 19 18  1  0
 21 20  1  0
 22 23  2  0
 22 16  1  0
 24 22  1  0
 25 24  1  0
 25 36  1  0
 25 26  1  6
 27 26  1  0
 28 27  2  0
 29 28  1  0
 30 29  1  0
 30 35  2  0
 31 32  2  0
 31 30  1  0
 32 33  1  0
 33 34  2  0
 35 34  1  0
 35 27  1  0
 36 38  1  0
 37 36  2  0
M  END
$$$$
