WKW.pdb
     RDKit          3D

 38 41  0  0  1  0  0  0  0  0999 V2000
   24.9805  -19.7500  -11.5400 N   0  0  0  0  0  0  0  0  0  0  0  0
   25.7320  -20.9690  -11.7786 C   0  0  1  0  0  0  0  0  0  0  0  0
   25.4751  -21.8639  -10.5749 C   0  0  0  0  0  0  0  0  0  0  0  0
   25.9951  -21.1664   -9.3727 C   0  0  0  0  0  0  0  0  0  0  0  0
   25.2944  -20.5196   -8.3791 C   0  0  0  0  0  0  0  0  0  0  0  0
   26.1595  -20.0168   -7.4578 N   0  0  0  0  0  0  0  0  0  0  0  0
   27.4098  -20.3210   -7.8282 C   0  0  0  0  0  0  0  0  0  0  0  0
   28.6222  -20.0457   -7.2476 C   0  0  0  0  0  0  0  0  0  0  0  0
   29.7897  -20.4958   -7.8721 C   0  0  0  0  0  0  0  0  0  0  0  0
   29.7446  -21.2032   -9.0458 C   0  0  0  0  0  0  0  0  0  0  0  0
   28.5085  -21.4629   -9.6012 C   0  0  0  0  0  0  0  0  0  0  0  0
   27.3348  -21.0292   -9.0060 C   0  0  0  0  0  0  0  0  0  0  0  0
   25.2838  -21.5658  -13.0421 C   0  0  0  0  0  0  0  0  0  0  0  0
   24.1747  -21.2484  -13.5219 O   0  0  0  0  0  0  0  0  0  0  0  0
   26.0928  -22.4944  -13.7231 N   0  0  0  0  0  0  0  0  0  0  0  0
   25.7079  -22.9600  -15.0919 C   0  0  1  0  0  0  0  0  0  0  0  0
   27.0111  -23.2311  -15.8298 C   0  0  0  0  0  0  0  0  0  0  0  0
   26.7867  -23.6650  -17.2378 C   0  0  0  0  0  0  0  0  0  0  0  0
   28.0437  -23.9283  -18.0140 C   0  0  0  0  0  0  0  0  0  0  0  0
   27.6489  -24.2355  -19.4579 C   0  0  0  0  0  0  0  0  0  0  0  0
   28.8280  -24.5201  -20.2277 N   0  0  0  0  0  0  0  0  0  0  0  0
   24.8680  -24.1455  -14.9045 C   0  0  0  0  0  0  0  0  0  0  0  0
   25.3158  -25.1344  -14.2039 O   0  0  0  0  0  0  0  0  0  0  0  0
   23.5776  -24.3258  -15.4230 N   0  0  0  0  0  0  0  0  0  0  0  0
   22.8055  -25.5585  -15.1771 C   0  0  1  0  0  0  0  0  0  0  0  0
   22.3488  -25.6161  -13.7642 C   0  0  0  0  0  0  0  0  0  0  0  0
   21.5286  -24.4529  -13.4100 C   0  0  0  0  0  0  0  0  0  0  0  0
   21.4763  -23.2514  -14.1331 C   0  0  0  0  0  0  0  0  0  0  0  0
   20.6811  -22.3912  -13.5035 N   0  0  0  0  0  0  0  0  0  0  0  0
   20.1951  -22.9594  -12.3911 C   0  0  0  0  0  0  0  0  0  0  0  0
   19.3285  -22.5116  -11.4178 C   0  0  0  0  0  0  0  0  0  0  0  0
   18.9514  -23.3082  -10.3608 C   0  0  0  0  0  0  0  0  0  0  0  0
   19.4709  -24.5882  -10.2977 C   0  0  0  0  0  0  0  0  0  0  0  0
   20.3373  -25.0592  -11.2530 C   0  0  0  0  0  0  0  0  0  0  0  0
   20.7178  -24.2502  -12.3208 C   0  0  0  0  0  0  0  0  0  0  0  0
   21.7010  -25.6054  -16.1166 C   0  0  0  0  0  0  0  0  0  0  0  0
   21.4327  -24.6696  -16.9040 O   0  0  0  0  0  0  0  0  0  0  0  0
   20.8840  -26.7174  -16.1751 O   0  0  0  0  0  0  0  0  0  0  0  0
  2  1  1  1
  3  2  1  0
  4  3  1  0
  4  5  2  0
  6  5  1  0
  7  6  1  0
  8  7  2  0
  9  8  1  0
 10  9  2  0
 10 11  1  0
 11 12  2  0
 12  7  1  0
 12  4  1  0
 13  2  1  0
 13 15  1  0
 14 13  2  0
 16 15  1  0
 16 17  1  6
 18 17  1  0
 19 20  1  0
 19 18  1  0
 21 20  1  0
 22 23  2  0
 22 16  1  0
 24 22  1  0
 25 24  1  0
 25 36  1  0
 25 26  1  1
 27 26  1  0
 28 27  2  0
 29 28  1  0
 30 29  1  0
 30 35  2  0
 31 32  2  0
 31 30  1  0
 32 33  1  0
 33 34  2  0
 35 34  1  0
 35 27  1  0
 36 38  1  0
 37 36  2  0
M  END
$$$$
