WKW.pdb
     RDKit          3D

 38 41  0  0  1  0  0  0  0  0999 V2000
   26.1190  -22.9744  -11.8811 N   0  0  0  0  0  0  0  0  0  0  0  0
   25.4864  -22.0664  -12.8207 C   0  0  1  0  0  0  0  0  0  0  0  0
   25.4766  -20.7025  -12.1459 C   0  0  0  0  0  0  0  0  0  0  0  0
   24.5501  -20.7761  -10.9891 C   0  0  0  0  0  0  0  0  0  0  0  0
   24.8377  -21.0375   -9.6679 C   0  0  0  0  0  0  0  0  0  0  0  0
   23.6936  -21.0087   -8.9330 N   0  0  0  0  0  0  0  0  0  0  0  0
   22.6652  -20.7343   -9.7454 C   0  0  0  0  0  0  0  0  0  0  0  0
   21.3225  -20.5978   -9.4976 C   0  0  0  0  0  0  0  0  0  0  0  0
   20.4639  -20.3060  -10.5623 C   0  0  0  0  0  0  0  0  0  0  0  0
   20.9369  -20.1541  -11.8402 C   0  0  0  0  0  0  0  0  0  0  0  0
   22.2927  -20.2973  -12.0529 C   0  0  0  0  0  0  0  0  0  0  0  0
   23.1675  -20.5871  -11.0183 C   0  0  0  0  0  0  0  0  0  0  0  0
   26.2431  -22.0781  -14.0780 C   0  0  0  0  0  0  0  0  0  0  0  0
   27.4648  -21.8162  -14.0721 O   0  0  0  0  0  0  0  0  0  0  0  0
   25.6061  -22.3832  -15.2953 N   0  0  0  0  0  0  0  0  0  0  0  0
   26.3990  -22.4323  -16.5631 C   0  0  1  0  0  0  0  0  0  0  0  0
   25.9318  -23.6747  -17.3078 C   0  0  0  0  0  0  0  0  0  0  0  0
   26.6586  -24.9022  -16.8762 C   0  0  0  0  0  0  0  0  0  0  0  0
   26.2462  -26.1529  -17.5957 C   0  0  0  0  0  0  0  0  0  0  0  0
   27.0296  -27.3200  -16.9963 C   0  0  0  0  0  0  0  0  0  0  0  0
   27.8890  -27.8864  -17.9985 N   0  0  0  0  0  0  0  0  0  0  0  0
   26.1314  -21.1759  -17.2672 C   0  0  0  0  0  0  0  0  0  0  0  0
   24.9211  -20.7274  -17.3240 O   0  0  0  0  0  0  0  0  0  0  0  0
   27.0883  -20.3760  -17.9084 N   0  0  0  0  0  0  0  0  0  0  0  0
   26.7573  -19.0385  -18.4352 C   0  0  1  0  0  0  0  0  0  0  0  0
   27.5560  -17.9924  -17.7454 C   0  0  0  0  0  0  0  0  0  0  0  0
   27.1324  -17.8152  -16.3524 C   0  0  0  0  0  0  0  0  0  0  0  0
   26.1272  -16.9369  -15.9195 C   0  0  0  0  0  0  0  0  0  0  0  0
   26.0407  -16.9839  -14.5933 N   0  0  0  0  0  0  0  0  0  0  0  0
   26.9404  -17.8543  -14.1145 C   0  0  0  0  0  0  0  0  0  0  0  0
   27.2401  -18.2777  -12.8378 C   0  0  0  0  0  0  0  0  0  0  0  0
   28.2119  -19.2218  -12.5966 C   0  0  0  0  0  0  0  0  0  0  0  0
   28.8910  -19.7433  -13.6824 C   0  0  0  0  0  0  0  0  0  0  0  0
   28.6136  -19.3383  -14.9647 C   0  0  0  0  0  0  0  0  0  0  0  0
   27.6303  -18.3819  -15.2054 C   0  0  0  0  0  0  0  0  0  0  0  0
   26.9739  -19.0420  -19.8698 C   0  0  0  0  0  0  0  0  0  0  0  0
   26.8017  -18.0325  -20.5900 O   0  0  0  0  0  0  0  0  0  0  0  0
   27.3895  -20.1943  -20.5079 O   0  0  0  0  0  0  0  0  0  0  0  0
  2  1  1  1
  3  2  1  0
  4  3  1  0
  4  5  2  0
  6  5  1  0
  7  6  1  0
  8  7  2  0
  9  8  1  0
 10  9  2  0
 10 11  1  0
 11 12  2  0
 12  7  1  0
 12  4  1  0
 13  2  1  0
 13 15  1  0
 14 13  2  0
 16 15  1  0
 16 17  1  6
 18 17  1  0
 19 20  1  0
 19 18  1  0
 21 20  1  0
 22 23  2  0
 22 16  1  0
 24 22  1  0
 25 24  1  0
 25 36  1  0
 25 26  1  1
 27 26  1  0
 28 27  2  0
 29 28  1  0
 30 29  1  0
 30 35  2  0
 31 32  2  0
 31 30  1  0
 32 33  1  0
 33 34  2  0
 35 34  1  0
 35 27  1  0
 36 38  1  0
 37 36  2  0
M  END
$$$$
