WKW.pdb
     RDKit          3D

 38 41  0  0  1  0  0  0  0  0999 V2000
   26.3352  -19.6745  -12.1203 N   0  0  0  0  0  0  0  0  0  0  0  0
   25.9325  -21.0651  -12.0114 C   0  0  1  0  0  0  0  0  0  0  0  0
   25.2256  -21.1945  -10.6701 C   0  0  0  0  0  0  0  0  0  0  0  0
   26.1024  -20.5910   -9.6360 C   0  0  0  0  0  0  0  0  0  0  0  0
   25.7646  -19.7406   -8.6069 C   0  0  0  0  0  0  0  0  0  0  0  0
   26.8743  -19.4260   -7.8861 N   0  0  0  0  0  0  0  0  0  0  0  0
   27.9294  -20.0524   -8.4222 C   0  0  0  0  0  0  0  0  0  0  0  0
   29.2558  -20.0618   -8.0709 C   0  0  0  0  0  0  0  0  0  0  0  0
   30.1519  -20.8211   -8.8301 C   0  0  0  0  0  0  0  0  0  0  0  0
   29.7311  -21.5519   -9.9113 C   0  0  0  0  0  0  0  0  0  0  0  0
   28.3903  -21.5202  -10.2354 C   0  0  0  0  0  0  0  0  0  0  0  0
   27.4793  -20.7766   -9.5026 C   0  0  0  0  0  0  0  0  0  0  0  0
   25.0687  -21.4017  -13.1490 C   0  0  0  0  0  0  0  0  0  0  0  0
   24.3859  -20.5107  -13.6976 O   0  0  0  0  0  0  0  0  0  0  0  0
   25.0013  -22.7219  -13.6320 N   0  0  0  0  0  0  0  0  0  0  0  0
   24.2760  -23.0161  -14.9071 C   0  0  1  0  0  0  0  0  0  0  0  0
   24.9202  -24.2693  -15.4821 C   0  0  0  0  0  0  0  0  0  0  0  0
   26.3515  -24.0586  -15.8403 C   0  0  0  0  0  0  0  0  0  0  0  0
   27.0356  -25.2704  -16.4020 C   0  0  0  0  0  0  0  0  0  0  0  0
   28.4534  -24.8660  -16.8035 C   0  0  0  0  0  0  0  0  0  0  0  0
   29.2008  -26.0368  -17.1705 N   0  0  0  0  0  0  0  0  0  0  0  0
   22.8640  -23.1775  -14.5518 C   0  0  0  0  0  0  0  0  0  0  0  0
   22.5525  -23.7883  -13.4568 O   0  0  0  0  0  0  0  0  0  0  0  0
   21.7724  -22.7184  -15.3029 N   0  0  0  0  0  0  0  0  0  0  0  0
   20.3813  -22.9113  -14.8516 C   0  0  1  0  0  0  0  0  0  0  0  0
   19.6606  -21.6125  -14.8087 C   0  0  0  0  0  0  0  0  0  0  0  0
   19.9097  -20.8125  -16.0125 C   0  0  0  0  0  0  0  0  0  0  0  0
   19.2104  -20.9356  -17.2229 C   0  0  0  0  0  0  0  0  0  0  0  0
   19.7296  -20.1021  -18.1197 N   0  0  0  0  0  0  0  0  0  0  0  0
   20.7449  -19.4231  -17.5678 C   0  0  0  0  0  0  0  0  0  0  0  0
   21.5851  -18.4447  -18.0533 C   0  0  0  0  0  0  0  0  0  0  0  0
   22.5576  -17.8692  -17.2678 C   0  0  0  0  0  0  0  0  0  0  0  0
   22.6735  -18.3029  -15.9599 C   0  0  0  0  0  0  0  0  0  0  0  0
   21.8506  -19.2771  -15.4510 C   0  0  0  0  0  0  0  0  0  0  0  0
   20.8681  -19.8583  -16.2488 C   0  0  0  0  0  0  0  0  0  0  0  0
   19.7401  -23.8696  -15.7322 C   0  0  0  0  0  0  0  0  0  0  0  0
   20.2558  -24.2676  -16.8014 O   0  0  0  0  0  0  0  0  0  0  0  0
   18.5018  -24.3900  -15.4106 O   0  0  0  0  0  0  0  0  0  0  0  0
  2  1  1  6
  3  2  1  0
  4  3  1  0
  4  5  2  0
  6  5  1  0
  7  6  1  0
  8  7  2  0
  9  8  1  0
 10  9  2  0
 10 11  1  0
 11 12  2  0
 12  7  1  0
 12  4  1  0
 13  2  1  0
 13 15  1  0
 14 13  2  0
 16 15  1  0
 16 17  1  1
 18 17  1  0
 19 20  1  0
 19 18  1  0
 21 20  1  0
 22 23  2  0
 22 16  1  0
 24 22  1  0
 25 24  1  0
 25 36  1  0
 25 26  1  6
 27 26  1  0
 28 27  2  0
 29 28  1  0
 30 29  1  0
 30 35  2  0
 31 32  2  0
 31 30  1  0
 32 33  1  0
 33 34  2  0
 35 34  1  0
 35 27  1  0
 36 38  1  0
 37 36  2  0
M  END
$$$$
