WKW.pdb
     RDKit          3D

 38 41  0  0  1  0  0  0  0  0999 V2000
   27.6693  -18.9765   -9.7099 N   0  0  0  0  0  0  0  0  0  0  0  0
   27.0644  -20.2937   -9.6287 C   0  0  1  0  0  0  0  0  0  0  0  0
   26.5248  -20.4221   -8.2116 C   0  0  0  0  0  0  0  0  0  0  0  0
   27.5292  -19.8361   -7.2897 C   0  0  0  0  0  0  0  0  0  0  0  0
   28.0532  -18.5626   -7.2803 C   0  0  0  0  0  0  0  0  0  0  0  0
   28.9466  -18.4396   -6.2622 N   0  0  0  0  0  0  0  0  0  0  0  0
   29.0176  -19.6050   -5.6067 C   0  0  0  0  0  0  0  0  0  0  0  0
   29.7613  -19.9932   -4.5208 C   0  0  0  0  0  0  0  0  0  0  0  0
   29.6304  -21.3011   -4.0432 C   0  0  0  0  0  0  0  0  0  0  0  0
   28.7772  -22.1958   -4.6361 C   0  0  0  0  0  0  0  0  0  0  0  0
   28.0441  -21.7712   -5.7253 C   0  0  0  0  0  0  0  0  0  0  0  0
   28.1534  -20.4821   -6.2214 C   0  0  0  0  0  0  0  0  0  0  0  0
   26.0182  -20.4018  -10.6520 C   0  0  0  0  0  0  0  0  0  0  0  0
   25.1306  -19.5260  -10.7302 O   0  0  0  0  0  0  0  0  0  0  0  0
   26.0039  -21.4845  -11.5511 N   0  0  0  0  0  0  0  0  0  0  0  0
   25.2086  -21.3969  -12.8153 C   0  0  1  0  0  0  0  0  0  0  0  0
   25.8350  -22.3932  -13.7804 C   0  0  0  0  0  0  0  0  0  0  0  0
   26.9471  -21.7947  -14.5718 C   0  0  0  0  0  0  0  0  0  0  0  0
   27.6424  -22.7561  -15.4906 C   0  0  0  0  0  0  0  0  0  0  0  0
   28.7271  -21.9863  -16.2429 C   0  0  0  0  0  0  0  0  0  0  0  0
   29.5649  -22.9105  -16.9556 N   0  0  0  0  0  0  0  0  0  0  0  0
   23.8225  -21.7035  -12.4540 C   0  0  0  0  0  0  0  0  0  0  0  0
   23.5450  -22.0413  -11.2382 O   0  0  0  0  0  0  0  0  0  0  0  0
   22.7216  -21.6644  -13.3218 N   0  0  0  0  0  0  0  0  0  0  0  0
   21.3369  -21.5882  -12.8190 C   0  0  1  0  0  0  0  0  0  0  0  0
   21.1628  -20.3993  -11.9447 C   0  0  0  0  0  0  0  0  0  0  0  0
   19.8581  -19.7610  -12.1484 C   0  0  0  0  0  0  0  0  0  0  0  0
   18.6836  -20.0839  -11.4516 C   0  0  0  0  0  0  0  0  0  0  0  0
   17.6754  -19.3569  -11.9245 N   0  0  0  0  0  0  0  0  0  0  0  0
   18.1181  -18.5589  -12.9062 C   0  0  0  0  0  0  0  0  0  0  0  0
   17.4941  -17.6161  -13.6940 C   0  0  0  0  0  0  0  0  0  0  0  0
   18.1828  -16.8905  -14.6391 C   0  0  0  0  0  0  0  0  0  0  0  0
   19.5365  -17.1340  -14.7817 C   0  0  0  0  0  0  0  0  0  0  0  0
   20.1829  -18.0686  -14.0111 C   0  0  0  0  0  0  0  0  0  0  0  0
   19.4829  -18.8020  -13.0563 C   0  0  0  0  0  0  0  0  0  0  0  0
   20.4344  -21.5751  -13.9549 C   0  0  0  0  0  0  0  0  0  0  0  0
   20.7808  -21.2038  -15.0993 O   0  0  0  0  0  0  0  0  0  0  0  0
   19.1235  -21.9838  -13.8068 O   0  0  0  0  0  0  0  0  0  0  0  0
  2  1  1  1
  3  2  1  0
  4  3  1  0
  4  5  2  0
  6  5  1  0
  7  6  1  0
  8  7  2  0
  9  8  1  0
 10  9  2  0
 10 11  1  0
 11 12  2  0
 12  7  1  0
 12  4  1  0
 13  2  1  0
 13 15  1  0
 14 13  2  0
 16 15  1  0
 16 17  1  6
 18 17  1  0
 19 20  1  0
 19 18  1  0
 21 20  1  0
 22 23  2  0
 22 16  1  0
 24 22  1  0
 25 24  1  0
 25 36  1  0
 25 26  1  6
 27 26  1  0
 28 27  2  0
 29 28  1  0
 30 29  1  0
 30 35  2  0
 31 32  2  0
 31 30  1  0
 32 33  1  0
 33 34  2  0
 35 34  1  0
 35 27  1  0
 36 38  1  0
 37 36  2  0
M  END
$$$$
