WKW.pdb
     RDKit          3D

 38 41  0  0  1  0  0  0  0  0999 V2000
   23.2750  -19.7114  -18.5806 N   0  0  0  0  0  0  0  0  0  0  0  0
   23.4461  -20.0270  -17.1739 C   0  0  1  0  0  0  0  0  0  0  0  0
   22.1827  -20.7624  -16.7511 C   0  0  0  0  0  0  0  0  0  0  0  0
   21.0654  -19.7858  -16.7613 C   0  0  0  0  0  0  0  0  0  0  0  0
   20.7722  -18.8191  -17.6973 C   0  0  0  0  0  0  0  0  0  0  0  0
   19.6552  -18.1392  -17.3229 N   0  0  0  0  0  0  0  0  0  0  0  0
   19.2128  -18.6407  -16.1629 C   0  0  0  0  0  0  0  0  0  0  0  0
   18.1369  -18.3063  -15.3796 C   0  0  0  0  0  0  0  0  0  0  0  0
   17.9162  -19.0150  -14.1943 C   0  0  0  0  0  0  0  0  0  0  0  0
   18.7496  -20.0316  -13.8043 C   0  0  0  0  0  0  0  0  0  0  0  0
   19.8211  -20.3416  -14.6166 C   0  0  0  0  0  0  0  0  0  0  0  0
   20.0656  -19.6566  -15.7959 C   0  0  0  0  0  0  0  0  0  0  0  0
   24.6606  -20.8345  -17.0108 C   0  0  0  0  0  0  0  0  0  0  0  0
   24.5691  -22.0673  -16.8290 O   0  0  0  0  0  0  0  0  0  0  0  0
   25.9325  -20.2339  -17.0582 N   0  0  0  0  0  0  0  0  0  0  0  0
   27.1585  -21.0583  -16.8221 C   0  0  1  0  0  0  0  0  0  0  0  0
   28.2624  -20.4256  -17.6573 C   0  0  0  0  0  0  0  0  0  0  0  0
   28.1166  -20.7236  -19.1102 C   0  0  0  0  0  0  0  0  0  0  0  0
   29.1818  -20.1194  -19.9777 C   0  0  0  0  0  0  0  0  0  0  0  0
   28.7911  -20.3566  -21.4358 C   0  0  0  0  0  0  0  0  0  0  0  0
   29.7980  -19.8037  -22.2986 N   0  0  0  0  0  0  0  0  0  0  0  0
   27.4066  -21.0265  -15.3787 C   0  0  0  0  0  0  0  0  0  0  0  0
   28.3692  -21.7336  -14.8860 O   0  0  0  0  0  0  0  0  0  0  0  0
   26.6830  -20.2780  -14.4392 N   0  0  0  0  0  0  0  0  0  0  0  0
   27.0150  -20.3033  -13.0021 C   0  0  1  0  0  0  0  0  0  0  0  0
   26.3127  -19.2083  -12.2839 C   0  0  0  0  0  0  0  0  0  0  0  0
   25.3819  -19.7282  -11.2766 C   0  0  0  0  0  0  0  0  0  0  0  0
   25.7353  -20.1198   -9.9762 C   0  0  0  0  0  0  0  0  0  0  0  0
   24.6623  -20.5958   -9.3513 N   0  0  0  0  0  0  0  0  0  0  0  0
   23.6033  -20.5411  -10.1710 C   0  0  0  0  0  0  0  0  0  0  0  0
   22.2790  -20.8852  -10.0072 C   0  0  0  0  0  0  0  0  0  0  0  0
   21.3545  -20.7079  -11.0112 C   0  0  0  0  0  0  0  0  0  0  0  0
   21.7930  -20.1683  -12.2066 C   0  0  0  0  0  0  0  0  0  0  0  0
   23.1069  -19.8182  -12.3971 C   0  0  0  0  0  0  0  0  0  0  0  0
   24.0401  -19.9998  -11.3795 C   0  0  0  0  0  0  0  0  0  0  0  0
   26.6803  -21.6129  -12.4751 C   0  0  0  0  0  0  0  0  0  0  0  0
   27.1308  -22.0498  -11.3917 O   0  0  0  0  0  0  0  0  0  0  0  0
   25.8278  -22.4464  -13.1724 O   0  0  0  0  0  0  0  0  0  0  0  0
  2  1  1  6
  3  2  1  0
  4  3  1  0
  4  5  2  0
  6  5  1  0
  7  6  1  0
  8  7  2  0
  9  8  1  0
 10  9  2  0
 10 11  1  0
 11 12  2  0
 12  7  1  0
 12  4  1  0
 13  2  1  0
 13 15  1  0
 14 13  2  0
 16 15  1  0
 16 17  1  6
 18 17  1  0
 19 20  1  0
 19 18  1  0
 21 20  1  0
 22 23  2  0
 22 16  1  0
 24 22  1  0
 25 24  1  0
 25 36  1  0
 25 26  1  1
 27 26  1  0
 28 27  2  0
 29 28  1  0
 30 29  1  0
 30 35  2  0
 31 32  2  0
 31 30  1  0
 32 33  1  0
 33 34  2  0
 35 34  1  0
 35 27  1  0
 36 38  1  0
 37 36  2  0
M  END
$$$$
