WKW.pdb
     RDKit          3D

 38 41  0  0  1  0  0  0  0  0999 V2000
   23.2518  -19.4234  -20.4287 N   0  0  0  0  0  0  0  0  0  0  0  0
   23.3417  -19.0296  -19.0342 C   0  0  1  0  0  0  0  0  0  0  0  0
   21.9360  -19.1650  -18.4674 C   0  0  0  0  0  0  0  0  0  0  0  0
   21.1623  -17.9694  -18.8846 C   0  0  0  0  0  0  0  0  0  0  0  0
   20.8881  -17.5192  -20.1569 C   0  0  0  0  0  0  0  0  0  0  0  0
   20.1431  -16.3831  -20.0929 N   0  0  0  0  0  0  0  0  0  0  0  0
   19.9250  -16.0815  -18.8067 C   0  0  0  0  0  0  0  0  0  0  0  0
   19.2398  -15.0480  -18.2190 C   0  0  0  0  0  0  0  0  0  0  0  0
   19.1782  -14.9836  -16.8234 C   0  0  0  0  0  0  0  0  0  0  0  0
   19.7852  -15.9289  -16.0374 C   0  0  0  0  0  0  0  0  0  0  0  0
   20.4646  -16.9548  -16.6618 C   0  0  0  0  0  0  0  0  0  0  0  0
   20.5436  -17.0443  -18.0423 C   0  0  0  0  0  0  0  0  0  0  0  0
   24.3177  -19.8916  -18.3574 C   0  0  0  0  0  0  0  0  0  0  0  0
   24.1365  -21.1272  -18.3193 O   0  0  0  0  0  0  0  0  0  0  0  0
   25.4609  -19.3402  -17.7493 N   0  0  0  0  0  0  0  0  0  0  0  0
   26.4369  -20.2296  -17.0458 C   0  0  1  0  0  0  0  0  0  0  0  0
   27.8213  -19.7196  -17.4197 C   0  0  0  0  0  0  0  0  0  0  0  0
   28.4993  -20.5963  -18.4161 C   0  0  0  0  0  0  0  0  0  0  0  0
   28.9544  -21.9185  -17.8714 C   0  0  0  0  0  0  0  0  0  0  0  0
   29.7502  -22.6289  -18.9655 C   0  0  0  0  0  0  0  0  0  0  0  0
   30.1955  -23.9065  -18.4825 N   0  0  0  0  0  0  0  0  0  0  0  0
   26.1288  -20.1332  -15.6170 C   0  0  0  0  0  0  0  0  0  0  0  0
   26.4056  -19.0427  -14.9817 O   0  0  0  0  0  0  0  0  0  0  0  0
   25.5393  -21.1379  -14.8362 N   0  0  0  0  0  0  0  0  0  0  0  0
   25.5993  -21.1137  -13.3625 C   0  0  1  0  0  0  0  0  0  0  0  0
   24.6414  -20.1174  -12.8165 C   0  0  0  0  0  0  0  0  0  0  0  0
   24.5661  -20.1809  -11.3531 C   0  0  0  0  0  0  0  0  0  0  0  0
   25.5952  -19.8089  -10.4746 C   0  0  0  0  0  0  0  0  0  0  0  0
   25.2152  -20.0478   -9.2228 N   0  0  0  0  0  0  0  0  0  0  0  0
   23.9774  -20.5619   -9.2189 C   0  0  0  0  0  0  0  0  0  0  0  0
   23.1349  -20.9560   -8.2021 C   0  0  0  0  0  0  0  0  0  0  0  0
   21.8715  -21.4400   -8.4542 C   0  0  0  0  0  0  0  0  0  0  0  0
   21.4615  -21.5230   -9.7722 C   0  0  0  0  0  0  0  0  0  0  0  0
   22.2811  -21.1387  -10.8045 C   0  0  0  0  0  0  0  0  0  0  0  0
   23.5595  -20.6503  -10.5462 C   0  0  0  0  0  0  0  0  0  0  0  0
   25.3431  -22.4538  -12.8690 C   0  0  0  0  0  0  0  0  0  0  0  0
   24.6192  -23.2781  -13.4724 O   0  0  0  0  0  0  0  0  0  0  0  0
   25.9060  -22.8772  -11.6810 O   0  0  0  0  0  0  0  0  0  0  0  0
  2  1  1  6
  3  2  1  0
  4  3  1  0
  4  5  2  0
  6  5  1  0
  7  6  1  0
  8  7  2  0
  9  8  1  0
 10  9  2  0
 10 11  1  0
 11 12  2  0
 12  7  1  0
 12  4  1  0
 13  2  1  0
 13 15  1  0
 14 13  2  0
 16 15  1  0
 16 17  1  1
 18 17  1  0
 19 20  1  0
 19 18  1  0
 21 20  1  0
 22 23  2  0
 22 16  1  0
 24 22  1  0
 25 24  1  0
 25 36  1  0
 25 26  1  1
 27 26  1  0
 28 27  2  0
 29 28  1  0
 30 29  1  0
 30 35  2  0
 31 32  2  0
 31 30  1  0
 32 33  1  0
 33 34  2  0
 35 34  1  0
 35 27  1  0
 36 38  1  0
 37 36  2  0
M  END
$$$$
