WKW.pdb
     RDKit          3D

 38 41  0  0  1  0  0  0  0  0999 V2000
   19.6843  -18.0020  -21.6858 N   0  0  0  0  0  0  0  0  0  0  0  0
   19.9688  -17.7557  -20.2837 C   0  0  1  0  0  0  0  0  0  0  0  0
   18.8684  -16.8289  -19.7877 C   0  0  0  0  0  0  0  0  0  0  0  0
   19.1137  -15.4845  -20.3660 C   0  0  0  0  0  0  0  0  0  0  0  0
   18.5142  -14.8902  -21.4542 C   0  0  0  0  0  0  0  0  0  0  0  0
   19.0318  -13.6467  -21.6432 N   0  0  0  0  0  0  0  0  0  0  0  0
   19.9563  -13.4161  -20.7024 C   0  0  0  0  0  0  0  0  0  0  0  0
   20.7559  -12.3273  -20.4614 C   0  0  0  0  0  0  0  0  0  0  0  0
   21.6496  -12.3683  -19.3865 C   0  0  0  0  0  0  0  0  0  0  0  0
   21.7395  -13.4693  -18.5742 C   0  0  0  0  0  0  0  0  0  0  0  0
   20.9199  -14.5457  -18.8450 C   0  0  0  0  0  0  0  0  0  0  0  0
   20.0255  -14.5344  -19.9032 C   0  0  0  0  0  0  0  0  0  0  0  0
   20.0017  -19.0384  -19.5715 C   0  0  0  0  0  0  0  0  0  0  0  0
   19.1248  -19.8991  -19.7979 O   0  0  0  0  0  0  0  0  0  0  0  0
   21.0146  -19.3117  -18.6334 N   0  0  0  0  0  0  0  0  0  0  0  0
   21.0748  -20.6491  -17.9654 C   0  0  1  0  0  0  0  0  0  0  0  0
   22.3637  -20.6614  -17.1561 C   0  0  0  0  0  0  0  0  0  0  0  0
   22.5975  -21.9692  -16.4807 C   0  0  0  0  0  0  0  0  0  0  0  0
   23.2161  -23.0185  -17.3572 C   0  0  0  0  0  0  0  0  0  0  0  0
   23.4030  -24.2817  -16.5179 C   0  0  0  0  0  0  0  0  0  0  0  0
   23.9394  -25.3300  -17.3409 N   0  0  0  0  0  0  0  0  0  0  0  0
   19.8587  -20.7625  -17.1566 C   0  0  0  0  0  0  0  0  0  0  0  0
   19.5483  -19.8082  -16.3428 O   0  0  0  0  0  0  0  0  0  0  0  0
   18.9592  -21.8382  -17.1757 N   0  0  0  0  0  0  0  0  0  0  0  0
   17.8329  -21.9274  -16.2273 C   0  0  1  0  0  0  0  0  0  0  0  0
   16.6753  -22.6172  -16.8537 C   0  0  0  0  0  0  0  0  0  0  0  0
   15.6908  -23.0443  -15.8538 C   0  0  0  0  0  0  0  0  0  0  0  0
   14.9931  -22.1865  -14.9897 C   0  0  0  0  0  0  0  0  0  0  0  0
   14.2273  -22.9070  -14.1756 N   0  0  0  0  0  0  0  0  0  0  0  0
   14.3766  -24.2097  -14.4533 C   0  0  0  0  0  0  0  0  0  0  0  0
   13.8049  -25.3469  -13.9253 C   0  0  0  0  0  0  0  0  0  0  0  0
   14.1067  -26.6004  -14.4067 C   0  0  0  0  0  0  0  0  0  0  0  0
   15.0112  -26.6929  -15.4485 C   0  0  0  0  0  0  0  0  0  0  0  0
   15.5967  -25.5764  -15.9922 C   0  0  0  0  0  0  0  0  0  0  0  0
   15.2900  -24.3094  -15.5021 C   0  0  0  0  0  0  0  0  0  0  0  0
   18.2933  -22.6005  -15.0274 C   0  0  0  0  0  0  0  0  0  0  0  0
   17.7490  -22.4541  -13.9094 O   0  0  0  0  0  0  0  0  0  0  0  0
   19.3806  -23.4505  -15.0802 O   0  0  0  0  0  0  0  0  0  0  0  0
  2  1  1  6
  3  2  1  0
  4  3  1  0
  4  5  2  0
  6  5  1  0
  7  6  1  0
  8  7  2  0
  9  8  1  0
 10  9  2  0
 10 11  1  0
 11 12  2  0
 12  7  1  0
 12  4  1  0
 13  2  1  0
 13 15  1  0
 14 13  2  0
 16 15  1  0
 16 17  1  1
 18 17  1  0
 19 20  1  0
 19 18  1  0
 21 20  1  0
 22 23  2  0
 22 16  1  0
 24 22  1  0
 25 24  1  0
 25 36  1  0
 25 26  1  6
 27 26  1  0
 28 27  2  0
 29 28  1  0
 30 29  1  0
 30 35  2  0
 31 32  2  0
 31 30  1  0
 32 33  1  0
 33 34  2  0
 35 34  1  0
 35 27  1  0
 36 38  1  0
 37 36  2  0
M  END
$$$$
