WKW.pdb
     RDKit          3D

 38 41  0  0  1  0  0  0  0  0999 V2000
   22.8289  -20.4239  -18.2626 N   0  0  0  0  0  0  0  0  0  0  0  0
   23.7658  -19.6293  -17.4890 C   0  0  1  0  0  0  0  0  0  0  0  0
   22.9254  -18.6254  -16.7133 C   0  0  0  0  0  0  0  0  0  0  0  0
   22.2480  -17.7453  -17.6975 C   0  0  0  0  0  0  0  0  0  0  0  0
   20.9234  -17.7302  -18.0739 C   0  0  0  0  0  0  0  0  0  0  0  0
   20.7205  -16.7607  -19.0060 N   0  0  0  0  0  0  0  0  0  0  0  0
   21.8837  -16.1426  -19.2466 C   0  0  0  0  0  0  0  0  0  0  0  0
   22.2071  -15.1113  -20.0920 C   0  0  0  0  0  0  0  0  0  0  0  0
   23.5311  -14.6634  -20.1380 C   0  0  0  0  0  0  0  0  0  0  0  0
   24.5049  -15.2321  -19.3579 C   0  0  0  0  0  0  0  0  0  0  0  0
   24.1441  -16.2663  -18.5188 C   0  0  0  0  0  0  0  0  0  0  0  0
   22.8408  -16.7319  -18.4524 C   0  0  0  0  0  0  0  0  0  0  0  0
   24.5418  -20.5204  -16.6189 C   0  0  0  0  0  0  0  0  0  0  0  0
   23.9631  -21.4211  -15.9748 O   0  0  0  0  0  0  0  0  0  0  0  0
   25.9365  -20.3723  -16.5021 N   0  0  0  0  0  0  0  0  0  0  0  0
   26.7001  -21.2176  -15.5320 C   0  0  1  0  0  0  0  0  0  0  0  0
   28.1215  -21.3013  -16.0697 C   0  0  0  0  0  0  0  0  0  0  0  0
   28.2108  -22.1169  -17.3138 C   0  0  0  0  0  0  0  0  0  0  0  0
   29.5953  -22.2352  -17.8805 C   0  0  0  0  0  0  0  0  0  0  0  0
   29.4935  -22.9578  -19.2230 C   0  0  0  0  0  0  0  0  0  0  0  0
   30.7954  -23.0367  -19.8256 N   0  0  0  0  0  0  0  0  0  0  0  0
   26.5902  -20.5548  -14.2303 C   0  0  0  0  0  0  0  0  0  0  0  0
   26.6831  -19.2677  -14.1652 O   0  0  0  0  0  0  0  0  0  0  0  0
   26.3837  -21.1948  -12.9997 N   0  0  0  0  0  0  0  0  0  0  0  0
   26.3405  -20.4447  -11.7303 C   0  0  1  0  0  0  0  0  0  0  0  0
   25.2578  -19.4274  -11.7607 C   0  0  0  0  0  0  0  0  0  0  0  0
   23.9287  -20.0469  -11.7310 C   0  0  0  0  0  0  0  0  0  0  0  0
   23.3686  -20.7041  -10.6248 C   0  0  0  0  0  0  0  0  0  0  0  0
   22.1796  -21.1969  -10.9593 N   0  0  0  0  0  0  0  0  0  0  0  0
   21.9136  -20.9001  -12.2389 C   0  0  0  0  0  0  0  0  0  0  0  0
   20.8285  -21.1558  -13.0491 C   0  0  0  0  0  0  0  0  0  0  0  0
   20.7771  -20.7158  -14.3520 C   0  0  0  0  0  0  0  0  0  0  0  0
   21.8567  -20.0002  -14.8364 C   0  0  0  0  0  0  0  0  0  0  0  0
   22.9510  -19.7326  -14.0515 C   0  0  0  0  0  0  0  0  0  0  0  0
   23.0005  -20.1802  -12.7337 C   0  0  0  0  0  0  0  0  0  0  0  0
   26.1791  -21.3903  -10.6418 C   0  0  0  0  0  0  0  0  0  0  0  0
   26.0969  -22.6273  -10.8169 O   0  0  0  0  0  0  0  0  0  0  0  0
   26.1082  -20.9436   -9.3368 O   0  0  0  0  0  0  0  0  0  0  0  0
  2  1  1  1
  3  2  1  0
  4  3  1  0
  4  5  2  0
  6  5  1  0
  7  6  1  0
  8  7  2  0
  9  8  1  0
 10  9  2  0
 10 11  1  0
 11 12  2  0
 12  7  1  0
 12  4  1  0
 13  2  1  0
 13 15  1  0
 14 13  2  0
 16 15  1  0
 16 17  1  6
 18 17  1  0
 19 20  1  0
 19 18  1  0
 21 20  1  0
 22 23  2  0
 22 16  1  0
 24 22  1  0
 25 24  1  0
 25 36  1  0
 25 26  1  6
 27 26  1  0
 28 27  2  0
 29 28  1  0
 30 29  1  0
 30 35  2  0
 31 32  2  0
 31 30  1  0
 32 33  1  0
 33 34  2  0
 35 34  1  0
 35 27  1  0
 36 38  1  0
 37 36  2  0
M  END
$$$$
