WKW.pdb
     RDKit          3D

 38 41  0  0  1  0  0  0  0  0999 V2000
   25.0039  -17.4708  -17.1540 N   0  0  0  0  0  0  0  0  0  0  0  0
   25.9071  -18.3279  -16.4076 C   0  0  1  0  0  0  0  0  0  0  0  0
   26.3507  -17.5191  -15.1974 C   0  0  0  0  0  0  0  0  0  0  0  0
   27.2340  -16.4288  -15.6803 C   0  0  0  0  0  0  0  0  0  0  0  0
   27.0153  -15.0693  -15.6639 C   0  0  0  0  0  0  0  0  0  0  0  0
   28.0845  -14.4242  -16.2030 N   0  0  0  0  0  0  0  0  0  0  0  0
   28.9965  -15.3329  -16.5712 C   0  0  0  0  0  0  0  0  0  0  0  0
   30.2303  -15.1969  -17.1561 C   0  0  0  0  0  0  0  0  0  0  0  0
   30.9776  -16.3456  -17.4350 C   0  0  0  0  0  0  0  0  0  0  0  0
   30.5029  -17.5966  -17.1355 C   0  0  0  0  0  0  0  0  0  0  0  0
   29.2588  -17.6961  -16.5469 C   0  0  0  0  0  0  0  0  0  0  0  0
   28.4953  -16.5762  -16.2597 C   0  0  0  0  0  0  0  0  0  0  0  0
   25.2017  -19.5624  -16.0443 C   0  0  0  0  0  0  0  0  0  0  0  0
   23.9878  -19.5227  -15.7509 O   0  0  0  0  0  0  0  0  0  0  0  0
   25.8792  -20.7958  -16.0238 N   0  0  0  0  0  0  0  0  0  0  0  0
   25.2189  -22.0026  -15.4354 C   0  0  1  0  0  0  0  0  0  0  0  0
   25.9967  -23.2051  -15.9506 C   0  0  0  0  0  0  0  0  0  0  0  0
   25.2751  -24.4887  -15.7209 C   0  0  0  0  0  0  0  0  0  0  0  0
   26.0362  -25.7122  -16.1400 C   0  0  0  0  0  0  0  0  0  0  0  0
   25.0285  -26.8389  -16.3639 C   0  0  0  0  0  0  0  0  0  0  0  0
   25.7198  -28.0230  -16.7927 N   0  0  0  0  0  0  0  0  0  0  0  0
   25.2702  -21.8343  -13.9811 C   0  0  0  0  0  0  0  0  0  0  0  0
   26.1037  -22.5403  -13.2911 O   0  0  0  0  0  0  0  0  0  0  0  0
   24.4814  -20.9510  -13.2301 N   0  0  0  0  0  0  0  0  0  0  0  0
   24.3040  -21.1119  -11.7745 C   0  0  1  0  0  0  0  0  0  0  0  0
   24.9436  -19.9880  -11.0424 C   0  0  0  0  0  0  0  0  0  0  0  0
   26.3716  -20.2316  -10.8125 C   0  0  0  0  0  0  0  0  0  0  0  0
   27.3317  -20.4161  -11.8192 C   0  0  0  0  0  0  0  0  0  0  0  0
   28.5120  -20.6717  -11.2623 N   0  0  0  0  0  0  0  0  0  0  0  0
   28.3902  -20.6662   -9.9276 C   0  0  0  0  0  0  0  0  0  0  0  0
   29.2984  -20.8514   -8.9079 C   0  0  0  0  0  0  0  0  0  0  0  0
   28.9288  -20.7712   -7.5846 C   0  0  0  0  0  0  0  0  0  0  0  0
   27.6042  -20.4963   -7.2983 C   0  0  0  0  0  0  0  0  0  0  0  0
   26.6783  -20.3089   -8.2947 C   0  0  0  0  0  0  0  0  0  0  0  0
   27.0552  -20.3918   -9.6328 C   0  0  0  0  0  0  0  0  0  0  0  0
   22.8848  -21.2179  -11.4924 C   0  0  0  0  0  0  0  0  0  0  0  0
   22.0045  -21.1564  -12.3805 O   0  0  0  0  0  0  0  0  0  0  0  0
   22.4446  -21.3951  -10.1953 O   0  0  0  0  0  0  0  0  0  0  0  0
  2  1  1  6
  3  2  1  0
  4  3  1  0
  4  5  2  0
  6  5  1  0
  7  6  1  0
  8  7  2  0
  9  8  1  0
 10  9  2  0
 10 11  1  0
 11 12  2  0
 12  7  1  0
 12  4  1  0
 13  2  1  0
 13 15  1  0
 14 13  2  0
 16 15  1  0
 16 17  1  1
 18 17  1  0
 19 20  1  0
 19 18  1  0
 21 20  1  0
 22 23  2  0
 22 16  1  0
 24 22  1  0
 25 24  1  0
 25 36  1  0
 25 26  1  1
 27 26  1  0
 28 27  2  0
 29 28  1  0
 30 29  1  0
 30 35  2  0
 31 32  2  0
 31 30  1  0
 32 33  1  0
 33 34  2  0
 35 34  1  0
 35 27  1  0
 36 38  1  0
 37 36  2  0
M  END
$$$$
