WKW.pdb
     RDKit          3D

 38 41  0  0  1  0  0  0  0  0999 V2000
   24.5315  -19.0875  -18.2074 N   0  0  0  0  0  0  0  0  0  0  0  0
   25.4909  -19.7249  -17.3236 C   0  0  1  0  0  0  0  0  0  0  0  0
   25.3241  -19.0541  -15.9679 C   0  0  0  0  0  0  0  0  0  0  0  0
   26.1697  -17.8346  -15.9590 C   0  0  0  0  0  0  0  0  0  0  0  0
   25.8212  -16.5448  -15.6251 C   0  0  0  0  0  0  0  0  0  0  0  0
   26.9018  -15.7284  -15.7509 N   0  0  0  0  0  0  0  0  0  0  0  0
   27.9482  -16.4570  -16.1598 C   0  0  0  0  0  0  0  0  0  0  0  0
   29.2473  -16.1088  -16.4317 C   0  0  0  0  0  0  0  0  0  0  0  0
   30.1398  -17.0998  -16.8528 C   0  0  0  0  0  0  0  0  0  0  0  0
   29.7425  -18.4042  -16.9968 C   0  0  0  0  0  0  0  0  0  0  0  0
   28.4292  -18.7188  -16.7138 C   0  0  0  0  0  0  0  0  0  0  0  0
   27.5221  -17.7585  -16.2957 C   0  0  0  0  0  0  0  0  0  0  0  0
   25.2201  -21.1667  -17.2865 C   0  0  0  0  0  0  0  0  0  0  0  0
   24.0987  -21.5989  -17.6283 O   0  0  0  0  0  0  0  0  0  0  0  0
   26.2136  -22.0722  -16.8697 N   0  0  0  0  0  0  0  0  0  0  0  0
   25.8937  -23.5284  -16.7438 C   0  0  1  0  0  0  0  0  0  0  0  0
   27.2307  -24.2542  -16.7014 C   0  0  0  0  0  0  0  0  0  0  0  0
   27.9187  -24.2546  -18.0234 C   0  0  0  0  0  0  0  0  0  0  0  0
   29.2881  -24.8683  -18.0104 C   0  0  0  0  0  0  0  0  0  0  0  0
   29.8382  -24.8206  -19.4352 C   0  0  0  0  0  0  0  0  0  0  0  0
   31.1845  -25.3218  -19.4470 N   0  0  0  0  0  0  0  0  0  0  0  0
   25.0950  -23.6724  -15.5243 C   0  0  0  0  0  0  0  0  0  0  0  0
   24.5761  -24.8207  -15.2392 O   0  0  0  0  0  0  0  0  0  0  0  0
   24.8264  -22.6562  -14.5959 N   0  0  0  0  0  0  0  0  0  0  0  0
   24.0726  -22.9158  -13.3548 C   0  0  1  0  0  0  0  0  0  0  0  0
   24.9651  -22.8177  -12.1707 C   0  0  0  0  0  0  0  0  0  0  0  0
   25.3978  -21.4373  -11.9289 C   0  0  0  0  0  0  0  0  0  0  0  0
   24.7131  -20.5034  -11.1362 C   0  0  0  0  0  0  0  0  0  0  0  0
   25.3489  -19.3362  -11.1802 N   0  0  0  0  0  0  0  0  0  0  0  0
   26.4304  -19.4425  -11.9648 C   0  0  0  0  0  0  0  0  0  0  0  0
   27.4168  -18.5477  -12.3187 C   0  0  0  0  0  0  0  0  0  0  0  0
   28.4629  -18.9084  -13.1370 C   0  0  0  0  0  0  0  0  0  0  0  0
   28.5010  -20.2098  -13.6029 C   0  0  0  0  0  0  0  0  0  0  0  0
   27.5306  -21.1212  -13.2671 C   0  0  0  0  0  0  0  0  0  0  0  0
   26.4727  -20.7528  -12.4397 C   0  0  0  0  0  0  0  0  0  0  0  0
   22.9618  -21.9849  -13.2874 C   0  0  0  0  0  0  0  0  0  0  0  0
   22.8701  -20.9751  -14.0219 O   0  0  0  0  0  0  0  0  0  0  0  0
   21.9378  -22.1878  -12.3830 O   0  0  0  0  0  0  0  0  0  0  0  0
  2  1  1  6
  3  2  1  0
  4  3  1  0
  4  5  2  0
  6  5  1  0
  7  6  1  0
  8  7  2  0
  9  8  1  0
 10  9  2  0
 10 11  1  0
 11 12  2  0
 12  7  1  0
 12  4  1  0
 13  2  1  0
 13 15  1  0
 14 13  2  0
 16 15  1  0
 16 17  1  1
 18 17  1  0
 19 20  1  0
 19 18  1  0
 21 20  1  0
 22 23  2  0
 22 16  1  0
 24 22  1  0
 25 24  1  0
 25 36  1  0
 25 26  1  1
 27 26  1  0
 28 27  2  0
 29 28  1  0
 30 29  1  0
 30 35  2  0
 31 32  2  0
 31 30  1  0
 32 33  1  0
 33 34  2  0
 35 34  1  0
 35 27  1  0
 36 38  1  0
 37 36  2  0
M  END
$$$$
