WKW.pdb
     RDKit          3D

 38 41  0  0  1  0  0  0  0  0999 V2000
   26.1459  -19.5149  -11.6827 N   0  0  0  0  0  0  0  0  0  0  0  0
   26.1362  -20.9435  -11.9407 C   0  0  1  0  0  0  0  0  0  0  0  0
   25.5417  -21.5911  -10.6986 C   0  0  0  0  0  0  0  0  0  0  0  0
   26.2952  -21.0907   -9.5222 C   0  0  0  0  0  0  0  0  0  0  0  0
   25.8342  -20.3640   -8.4469 C   0  0  0  0  0  0  0  0  0  0  0  0
   26.8583  -20.1125   -7.5879 N   0  0  0  0  0  0  0  0  0  0  0  0
   27.9779  -20.6588   -8.0788 C   0  0  0  0  0  0  0  0  0  0  0  0
   29.2629  -20.6851   -7.5982 C   0  0  0  0  0  0  0  0  0  0  0  0
   30.2500  -21.3415   -8.3401 C   0  0  0  0  0  0  0  0  0  0  0  0
   29.9583  -21.9560   -9.5307 C   0  0  0  0  0  0  0  0  0  0  0  0
   28.6556  -21.9108   -9.9835 C   0  0  0  0  0  0  0  0  0  0  0  0
   27.6568  -21.2672   -9.2708 C   0  0  0  0  0  0  0  0  0  0  0  0
   25.3519  -21.2036  -13.1535 C   0  0  0  0  0  0  0  0  0  0  0  0
   24.4071  -20.4451  -13.4588 O   0  0  0  0  0  0  0  0  0  0  0  0
   25.6538  -22.3014  -13.9807 N   0  0  0  0  0  0  0  0  0  0  0  0
   24.9157  -22.4938  -15.2678 C   0  0  1  0  0  0  0  0  0  0  0  0
   25.7703  -23.4291  -16.1112 C   0  0  0  0  0  0  0  0  0  0  0  0
   26.9572  -22.7421  -16.6948 C   0  0  0  0  0  0  0  0  0  0  0  0
   27.9012  -23.6495  -17.4280 C   0  0  0  0  0  0  0  0  0  0  0  0
   29.0113  -22.7874  -18.0277 C   0  0  0  0  0  0  0  0  0  0  0  0
   30.0165  -22.5383  -17.0319 N   0  0  0  0  0  0  0  0  0  0  0  0
   23.6025  -23.0381  -14.9141 C   0  0  0  0  0  0  0  0  0  0  0  0
   23.5169  -23.9314  -13.9846 O   0  0  0  0  0  0  0  0  0  0  0  0
   22.3805  -22.6754  -15.4987 N   0  0  0  0  0  0  0  0  0  0  0  0
   21.1003  -23.2527  -15.0473 C   0  0  1  0  0  0  0  0  0  0  0  0
   20.8472  -22.9133  -13.6229 C   0  0  0  0  0  0  0  0  0  0  0  0
   20.8586  -21.4638  -13.3990 C   0  0  0  0  0  0  0  0  0  0  0  0
   20.7769  -20.4904  -14.4066 C   0  0  0  0  0  0  0  0  0  0  0  0
   20.8742  -19.2813  -13.8615 N   0  0  0  0  0  0  0  0  0  0  0  0
   21.0161  -19.3966  -12.5337 C   0  0  0  0  0  0  0  0  0  0  0  0
   21.1356  -18.4658  -11.5246 C   0  0  0  0  0  0  0  0  0  0  0  0
   21.2464  -18.8382  -10.2044 C   0  0  0  0  0  0  0  0  0  0  0  0
   21.2351  -20.1893   -9.9101 C   0  0  0  0  0  0  0  0  0  0  0  0
   21.1187  -21.1378  -10.8959 C   0  0  0  0  0  0  0  0  0  0  0  0
   21.0079  -20.7578  -12.2311 C   0  0  0  0  0  0  0  0  0  0  0  0
   20.0463  -22.7776  -15.9237 C   0  0  0  0  0  0  0  0  0  0  0  0
   18.8437  -23.0959  -15.7822 O   0  0  0  0  0  0  0  0  0  0  0  0
   20.3437  -21.9332  -16.9754 O   0  0  0  0  0  0  0  0  0  0  0  0
  2  1  1  1
  3  2  1  0
  4  3  1  0
  4  5  2  0
  6  5  1  0
  7  6  1  0
  8  7  2  0
  9  8  1  0
 10  9  2  0
 10 11  1  0
 11 12  2  0
 12  7  1  0
 12  4  1  0
 13  2  1  0
 13 15  1  0
 14 13  2  0
 16 15  1  0
 16 17  1  6
 18 17  1  0
 19 20  1  0
 19 18  1  0
 21 20  1  0
 22 23  2  0
 22 16  1  0
 24 22  1  0
 25 24  1  0
 25 36  1  0
 25 26  1  1
 27 26  1  0
 28 27  2  0
 29 28  1  0
 30 29  1  0
 30 35  2  0
 31 32  2  0
 31 30  1  0
 32 33  1  0
 33 34  2  0
 35 34  1  0
 35 27  1  0
 36 38  1  0
 37 36  2  0
M  END
$$$$
