WKW.pdb
     RDKit          3D

 38 41  0  0  1  0  0  0  0  0999 V2000
   22.8853  -19.2436  -18.5851 N   0  0  0  0  0  0  0  0  0  0  0  0
   24.1237  -18.7332  -18.0253 C   0  0  1  0  0  0  0  0  0  0  0  0
   23.7329  -17.5573  -17.1420 C   0  0  0  0  0  0  0  0  0  0  0  0
   23.2061  -16.4850  -18.0223 C   0  0  0  0  0  0  0  0  0  0  0  0
   21.9182  -16.0088  -18.1270 C   0  0  0  0  0  0  0  0  0  0  0  0
   21.8678  -15.0171  -19.0565 N   0  0  0  0  0  0  0  0  0  0  0  0
   23.0947  -14.8354  -19.5611 C   0  0  0  0  0  0  0  0  0  0  0  0
   23.5662  -13.9683  -20.5144 C   0  0  0  0  0  0  0  0  0  0  0  0
   24.9232  -14.0044  -20.8505 C   0  0  0  0  0  0  0  0  0  0  0  0
   25.7851  -14.8841  -20.2478 C   0  0  0  0  0  0  0  0  0  0  0  0
   25.2771  -15.7408  -19.2929 C   0  0  0  0  0  0  0  0  0  0  0  0
   23.9373  -15.7289  -18.9399 C   0  0  0  0  0  0  0  0  0  0  0  0
   24.7911  -19.8095  -17.2840 C   0  0  0  0  0  0  0  0  0  0  0  0
   24.1204  -20.5766  -16.5610 O   0  0  0  0  0  0  0  0  0  0  0  0
   26.1837  -19.9891  -17.3794 N   0  0  0  0  0  0  0  0  0  0  0  0
   26.8560  -21.0630  -16.5835 C   0  0  1  0  0  0  0  0  0  0  0  0
   28.0204  -21.5537  -17.4318 C   0  0  0  0  0  0  0  0  0  0  0  0
   28.8150  -22.6125  -16.7472 C   0  0  0  0  0  0  0  0  0  0  0  0
   30.0649  -23.0171  -17.4724 C   0  0  0  0  0  0  0  0  0  0  0  0
   30.8141  -24.0189  -16.5949 C   0  0  0  0  0  0  0  0  0  0  0  0
   32.1165  -24.2634  -17.1501 N   0  0  0  0  0  0  0  0  0  0  0  0
   27.2560  -20.4487  -15.3152 C   0  0  0  0  0  0  0  0  0  0  0  0
   27.5692  -19.1955  -15.2897 O   0  0  0  0  0  0  0  0  0  0  0  0
   27.3348  -21.1024  -14.0770 N   0  0  0  0  0  0  0  0  0  0  0  0
   27.7920  -20.4080  -12.8585 C   0  0  1  0  0  0  0  0  0  0  0  0
   26.9281  -19.2337  -12.5706 C   0  0  0  0  0  0  0  0  0  0  0  0
   25.6142  -19.6378  -12.0592 C   0  0  0  0  0  0  0  0  0  0  0  0
   25.3622  -20.1066  -10.7607 C   0  0  0  0  0  0  0  0  0  0  0  0
   24.0789  -20.4379  -10.6520 N   0  0  0  0  0  0  0  0  0  0  0  0
   23.4558  -20.2120  -11.8170 C   0  0  0  0  0  0  0  0  0  0  0  0
   22.1468  -20.3656  -12.2192 C   0  0  0  0  0  0  0  0  0  0  0  0
   21.7352  -20.0335  -13.4898 C   0  0  0  0  0  0  0  0  0  0  0  0
   22.6809  -19.5347  -14.3667 C   0  0  0  0  0  0  0  0  0  0  0  0
   23.9920  -19.3730  -13.9926 C   0  0  0  0  0  0  0  0  0  0  0  0
   24.4057  -19.7110  -12.7065 C   0  0  0  0  0  0  0  0  0  0  0  0
   27.8106  -21.3611  -11.7648 C   0  0  0  0  0  0  0  0  0  0  0  0
   27.4108  -22.5420  -11.8798 O   0  0  0  0  0  0  0  0  0  0  0  0
   28.2840  -20.9858  -10.5228 O   0  0  0  0  0  0  0  0  0  0  0  0
  2  1  1  1
  3  2  1  0
  4  3  1  0
  4  5  2  0
  6  5  1  0
  7  6  1  0
  8  7  2  0
  9  8  1  0
 10  9  2  0
 10 11  1  0
 11 12  2  0
 12  7  1  0
 12  4  1  0
 13  2  1  0
 13 15  1  0
 14 13  2  0
 16 15  1  0
 16 17  1  6
 18 17  1  0
 19 20  1  0
 19 18  1  0
 21 20  1  0
 22 23  2  0
 22 16  1  0
 24 22  1  0
 25 24  1  0
 25 36  1  0
 25 26  1  1
 27 26  1  0
 28 27  2  0
 29 28  1  0
 30 29  1  0
 30 35  2  0
 31 32  2  0
 31 30  1  0
 32 33  1  0
 33 34  2  0
 35 34  1  0
 35 27  1  0
 36 38  1  0
 37 36  2  0
M  END
$$$$
