ERV.pdb
     RDKit          3D

 28 27  0  0  1  0  0  0  0  0999 V2000
   14.8759  -11.3234  -13.6858 N   0  0  0  0  0  0  0  0  0  0  0  0
   15.1022  -10.7651  -15.0358 C   0  0  1  0  0  0  0  0  0  0  0  0
   14.2784   -9.5196  -15.0842 C   0  0  0  0  0  0  0  0  0  0  0  0
   14.4074   -8.6207  -13.8964 C   0  0  0  0  0  0  0  0  0  0  0  0
   13.7025   -7.3096  -14.1342 C   0  0  0  0  0  0  0  0  0  0  0  0
   13.7845   -6.4221  -13.2724 O   0  0  0  0  0  0  0  0  0  0  0  0
   16.5451  -10.5733  -15.2353 C   0  0  0  0  0  0  0  0  0  0  0  0
   17.3494  -10.7993  -14.2920 O   0  0  0  0  0  0  0  0  0  0  0  0
   12.9905   -7.1230  -15.2866 O   0  0  0  0  0  0  0  0  0  0  0  0
   20.7655  -12.7626  -21.9684 N   0  0  0  0  0  0  0  0  0  0  0  0
   21.7792  -11.9817  -21.3627 C   0  0  0  0  0  0  0  0  0  0  0  0
   23.0371  -12.1383  -21.6952 N   0  0  0  0  0  0  0  0  0  0  0  0
   21.4177  -11.0109  -20.3757 N   0  0  0  0  0  0  0  0  0  0  0  0
   20.0759  -10.9245  -19.8898 C   0  0  0  0  0  0  0  0  0  0  0  0
   19.9510   -9.8170  -18.8246 C   0  0  0  0  0  0  0  0  0  0  0  0
   18.6091   -9.8723  -18.2163 C   0  0  0  0  0  0  0  0  0  0  0  0
   18.5332  -10.1109  -16.7309 C   0  0  2  0  0  0  0  0  0  0  0  0
   17.0871  -10.1446  -16.4473 N   0  0  0  0  0  0  0  0  0  0  0  0
   19.2378   -9.1797  -15.8803 C   0  0  0  0  0  0  0  0  0  0  0  0
   18.7546   -8.0733  -15.4585 O   0  0  0  0  0  0  0  0  0  0  0  0
   23.7477  -11.5291  -21.2385 C   0  0  0  0  0  0  0  0  0  0  0  0
   21.7176  -10.4873  -13.0282 C   0  0  2  0  0  0  0  0  0  0  0  0
   22.3602   -9.4296  -13.8746 C   0  0  0  0  0  0  0  0  0  0  0  0
   23.2933  -10.0935  -14.8487 C   0  0  2  0  0  0  0  0  0  0  0  0
   21.3080   -8.5932  -14.5669 N   0  0  0  0  0  0  0  0  0  0  0  0
   20.5574   -9.4586  -15.4469 C   0  0  0  0  0  0  0  0  0  0  0  0
   21.8410   -7.4033  -15.2139 O   0  0  0  0  0  0  0  0  0  0  0  0
   21.9512   -7.2737  -16.4591 O   0  0  0  0  0  0  0  0  0  0  0  0
  2  7  1  0
  2  1  1  1
  3  2  1  0
  4  5  1  0
  4  3  1  0
  5  6  2  0
  7  8  2  0
  9  5  1  0
 11 10  1  0
 11 12  2  0
 13 11  1  0
 14 15  1  0
 14 13  1  0
 17 16  1  6
 16 15  1  0
 18  7  1  0
 18 17  1  0
 19 17  1  0
 19 20  2  0
 22 21  1  1
 22 24  1  0
 23 22  1  0
 24 26  1  0
 24 25  1  1
 25 19  1  0
 26 28  1  0
 27 26  2  0
M  END
$$$$
