ERV.pdb
     RDKit          3D

 28 27  0  0  1  0  0  0  0  0999 V2000
   17.9683  -12.1658  -15.2897 N   0  0  0  0  0  0  0  0  0  0  0  0
   18.2625  -10.9471  -16.0732 C   0  0  1  0  0  0  0  0  0  0  0  0
   17.0623  -10.0744  -15.8992 C   0  0  0  0  0  0  0  0  0  0  0  0
   15.9532  -10.3100  -16.8740 C   0  0  0  0  0  0  0  0  0  0  0  0
   14.6118  -10.2455  -16.1894 C   0  0  0  0  0  0  0  0  0  0  0  0
   14.5753  -10.0996  -14.9587 O   0  0  0  0  0  0  0  0  0  0  0  0
   19.5308  -10.3740  -15.6027 C   0  0  0  0  0  0  0  0  0  0  0  0
   19.8274  -10.4145  -14.3787 O   0  0  0  0  0  0  0  0  0  0  0  0
   13.4675  -10.3483  -16.9310 O   0  0  0  0  0  0  0  0  0  0  0  0
   26.9707  -11.2166  -16.0299 N   0  0  0  0  0  0  0  0  0  0  0  0
   25.9382  -11.9940  -16.6077 C   0  0  0  0  0  0  0  0  0  0  0  0
   25.8309  -13.2728  -16.3421 N   0  0  0  0  0  0  0  0  0  0  0  0
   25.0035  -11.3681  -17.4920 N   0  0  0  0  0  0  0  0  0  0  0  0
   25.0562   -9.9605  -17.7371 C   0  0  0  0  0  0  0  0  0  0  0  0
   24.1245   -9.2027  -16.7703 C   0  0  0  0  0  0  0  0  0  0  0  0
   22.7673   -9.7732  -16.8508 C   0  0  0  0  0  0  0  0  0  0  0  0
   21.6967   -9.1301  -16.0087 C   0  0  2  0  0  0  0  0  0  0  0  0
   20.4502   -9.7728  -16.4627 N   0  0  0  0  0  0  0  0  0  0  0  0
   21.6143   -7.6882  -16.0416 C   0  0  0  0  0  0  0  0  0  0  0  0
   21.1787   -7.0085  -17.0334 O   0  0  0  0  0  0  0  0  0  0  0  0
   25.0449  -13.8022  -16.7741 C   0  0  0  0  0  0  0  0  0  0  0  0
   21.5052   -3.5906  -13.3328 C   0  0  2  0  0  0  0  0  0  0  0  0
   21.6615   -5.0778  -13.4419 C   0  0  0  0  0  0  0  0  0  0  0  0
   20.4238   -5.7333  -12.8953 C   0  0  1  0  0  0  0  0  0  0  0  0
   21.9383   -5.4779  -14.8734 N   0  0  0  0  0  0  0  0  0  0  0  0
   22.0260   -6.9188  -14.9255 C   0  0  0  0  0  0  0  0  0  0  0  0
   23.0785   -4.7902  -15.4614 O   0  0  0  0  0  0  0  0  0  0  0  0
   24.2584   -5.2195  -15.4079 O   0  0  0  0  0  0  0  0  0  0  0  0
  2  7  1  0
  2  1  1  1
  3  2  1  0
  4  5  1  0
  4  3  1  0
  5  6  2  0
  7  8  2  0
  9  5  1  0
 11 10  1  0
 11 12  2  0
 13 11  1  0
 14 15  1  0
 14 13  1  0
 17 16  1  6
 16 15  1  0
 18  7  1  0
 18 17  1  0
 19 17  1  0
 19 20  2  0
 22 21  1  1
 22 24  1  0
 23 22  1  0
 24 26  1  0
 24 25  1  1
 25 19  1  0
 26 28  1  0
 27 26  2  0
M  END
$$$$
