ERV.pdb
     RDKit          3D

 28 27  0  0  1  0  0  0  0  0999 V2000
   17.3564  -12.6619  -15.3158 N   0  0  0  0  0  0  0  0  0  0  0  0
   18.5999  -12.4790  -16.0943 C   0  0  1  0  0  0  0  0  0  0  0  0
   18.2892  -13.0147  -17.4540 C   0  0  0  0  0  0  0  0  0  0  0  0
   17.0442  -12.4775  -18.0841 C   0  0  0  0  0  0  0  0  0  0  0  0
   16.8562  -13.0399  -19.4700 C   0  0  0  0  0  0  0  0  0  0  0  0
   17.6809  -13.8603  -19.8990 O   0  0  0  0  0  0  0  0  0  0  0  0
   18.9850  -11.0619  -16.0492 C   0  0  0  0  0  0  0  0  0  0  0  0
   20.0788  -10.6877  -16.5506 O   0  0  0  0  0  0  0  0  0  0  0  0
   15.7884  -12.6391  -20.2244 O   0  0  0  0  0  0  0  0  0  0  0  0
   13.1651   -4.6667  -14.9341 N   0  0  0  0  0  0  0  0  0  0  0  0
   14.3565   -3.9085  -15.0347 C   0  0  0  0  0  0  0  0  0  0  0  0
   14.3219   -2.5985  -15.0295 N   0  0  0  0  0  0  0  0  0  0  0  0
   15.6107   -4.5887  -15.1431 N   0  0  0  0  0  0  0  0  0  0  0  0
   15.6707   -6.0171  -15.1593 C   0  0  0  0  0  0  0  0  0  0  0  0
   17.1235   -6.5006  -15.3393 C   0  0  0  0  0  0  0  0  0  0  0  0
   17.1457   -7.9739  -15.3923 C   0  0  0  0  0  0  0  0  0  0  0  0
   18.4918   -8.6410  -15.5024 C   0  0  2  0  0  0  0  0  0  0  0  0
   18.1812  -10.0815  -15.4667 N   0  0  0  0  0  0  0  0  0  0  0  0
   19.4892   -8.2702  -14.5252 C   0  0  0  0  0  0  0  0  0  0  0  0
   19.3352   -8.3641  -13.2592 O   0  0  0  0  0  0  0  0  0  0  0  0
   15.2225   -2.0808  -15.1055 C   0  0  0  0  0  0  0  0  0  0  0  0
   22.6312   -9.7616  -14.0613 C   0  0  2  0  0  0  0  0  0  0  0  0
   22.9881   -8.3282  -14.3188 C   0  0  0  0  0  0  0  0  0  0  0  0
   23.4612   -8.1978  -15.7399 C   0  0  2  0  0  0  0  0  0  0  0  0
   21.8109   -7.4274  -14.0209 N   0  0  0  0  0  0  0  0  0  0  0  0
   20.7469   -7.7649  -14.9377 C   0  0  0  0  0  0  0  0  0  0  0  0
   22.1504   -6.0122  -13.9976 O   0  0  0  0  0  0  0  0  0  0  0  0
   21.7362   -5.1791  -14.8425 O   0  0  0  0  0  0  0  0  0  0  0  0
  2  7  1  0
  2  1  1  1
  3  2  1  0
  4  5  1  0
  4  3  1  0
  5  6  2  0
  7  8  2  0
  9  5  1  0
 11 10  1  0
 11 12  2  0
 13 11  1  0
 14 15  1  0
 14 13  1  0
 17 16  1  1
 16 15  1  0
 18  7  1  0
 18 17  1  0
 19 17  1  0
 19 20  2  0
 22 21  1  1
 22 24  1  0
 23 22  1  0
 24 26  1  0
 24 25  1  1
 25 19  1  0
 26 28  1  0
 27 26  2  0
M  END
$$$$
