ERV.pdb
     RDKit          3D

 28 27  0  0  1  0  0  0  0  0999 V2000
   16.3485  -13.7809  -17.1688 N   0  0  0  0  0  0  0  0  0  0  0  0
   17.0863  -13.3224  -15.9725 C   0  0  1  0  0  0  0  0  0  0  0  0
   18.2001  -14.3037  -15.8034 C   0  0  0  0  0  0  0  0  0  0  0  0
   17.7820  -15.6845  -15.4102 C   0  0  0  0  0  0  0  0  0  0  0  0
   18.9733  -16.6043  -15.3259 C   0  0  0  0  0  0  0  0  0  0  0  0
   20.0877  -16.1705  -15.6530 O   0  0  0  0  0  0  0  0  0  0  0  0
   17.5018  -11.9279  -16.1757 C   0  0  0  0  0  0  0  0  0  0  0  0
   17.8922  -11.5433  -17.3104 O   0  0  0  0  0  0  0  0  0  0  0  0
   18.8060  -17.8909  -14.8936 O   0  0  0  0  0  0  0  0  0  0  0  0
   11.9228   -6.5172  -14.6258 N   0  0  0  0  0  0  0  0  0  0  0  0
   11.9697   -7.2560  -15.8327 C   0  0  0  0  0  0  0  0  0  0  0  0
   10.9355   -7.2964  -16.6365 N   0  0  0  0  0  0  0  0  0  0  0  0
   13.1653   -7.9649  -16.1721 N   0  0  0  0  0  0  0  0  0  0  0  0
   14.2940   -7.9604  -15.2946 C   0  0  0  0  0  0  0  0  0  0  0  0
   15.4456   -8.8006  -15.8818 C   0  0  0  0  0  0  0  0  0  0  0  0
   16.5673   -8.8294  -14.9253 C   0  0  0  0  0  0  0  0  0  0  0  0
   17.8166   -9.5576  -15.3475 C   0  0  2  0  0  0  0  0  0  0  0  0
   17.4846  -10.9804  -15.1517 N   0  0  0  0  0  0  0  0  0  0  0  0
   19.0470   -9.1853  -14.6883 C   0  0  0  0  0  0  0  0  0  0  0  0
   19.2571   -9.2889  -13.4311 O   0  0  0  0  0  0  0  0  0  0  0  0
   11.0276   -7.8181  -17.5332 C   0  0  0  0  0  0  0  0  0  0  0  0
   22.5755  -10.2181  -15.4636 C   0  0  2  0  0  0  0  0  0  0  0  0
   22.5197   -8.7264  -15.6051 C   0  0  0  0  0  0  0  0  0  0  0  0
   22.4568   -8.3836  -17.0675 C   0  0  2  0  0  0  0  0  0  0  0  0
   21.3474   -8.1646  -14.8329 N   0  0  0  0  0  0  0  0  0  0  0  0
   20.1342   -8.6673  -15.4345 C   0  0  0  0  0  0  0  0  0  0  0  0
   21.3845   -6.7168  -14.6877 O   0  0  0  0  0  0  0  0  0  0  0  0
   20.5916   -5.9345  -15.2696 O   0  0  0  0  0  0  0  0  0  0  0  0
  2  7  1  0
  2  1  1  6
  3  2  1  0
  4  5  1  0
  4  3  1  0
  5  6  2  0
  7  8  2  0
  9  5  1  0
 11 10  1  0
 11 12  2  0
 13 11  1  0
 14 15  1  0
 14 13  1  0
 17 16  1  1
 16 15  1  0
 18  7  1  0
 18 17  1  0
 19 17  1  0
 19 20  2  0
 22 21  1  6
 22 24  1  0
 23 22  1  0
 24 26  1  0
 24 25  1  1
 25 19  1  0
 26 28  1  0
 27 26  2  0
M  END
$$$$
