ERV.pdb
     RDKit          3D

 28 27  0  0  1  0  0  0  0  0999 V2000
   15.9964  -11.0535  -14.6723 N   0  0  0  0  0  0  0  0  0  0  0  0
   17.3003  -10.8224  -14.0149 C   0  0  1  0  0  0  0  0  0  0  0  0
   18.3175  -11.3498  -14.9737 C   0  0  0  0  0  0  0  0  0  0  0  0
   18.2368  -12.8172  -15.2492 C   0  0  0  0  0  0  0  0  0  0  0  0
   19.3372  -13.2510  -16.1835 C   0  0  0  0  0  0  0  0  0  0  0  0
   19.4685  -12.6621  -17.2666 O   0  0  0  0  0  0  0  0  0  0  0  0
   17.4225   -9.3949  -13.6898 C   0  0  0  0  0  0  0  0  0  0  0  0
   17.0377   -8.5234  -14.5146 O   0  0  0  0  0  0  0  0  0  0  0  0
   20.1653  -14.2782  -15.8238 O   0  0  0  0  0  0  0  0  0  0  0  0
   14.4778   -6.1741   -6.8270 N   0  0  0  0  0  0  0  0  0  0  0  0
   13.6746   -6.6563   -7.8884 C   0  0  0  0  0  0  0  0  0  0  0  0
   12.3714   -6.7231   -7.7682 N   0  0  0  0  0  0  0  0  0  0  0  0
   14.3012   -7.0742   -9.1049 N   0  0  0  0  0  0  0  0  0  0  0  0
   15.7229   -7.0301   -9.2497 C   0  0  0  0  0  0  0  0  0  0  0  0
   16.1361   -7.3827  -10.6926 C   0  0  0  0  0  0  0  0  0  0  0  0
   17.6051   -7.3310  -10.8073 C   0  0  0  0  0  0  0  0  0  0  0  0
   18.1979   -7.5187  -12.1793 C   0  0  2  0  0  0  0  0  0  0  0  0
   17.9544   -8.9405  -12.4827 N   0  0  0  0  0  0  0  0  0  0  0  0
   19.5844   -7.1506  -12.3505 C   0  0  0  0  0  0  0  0  0  0  0  0
   20.5613   -7.6915  -11.7272 O   0  0  0  0  0  0  0  0  0  0  0  0
   11.8113   -6.9854   -8.6062 C   0  0  0  0  0  0  0  0  0  0  0  0
   21.7471   -7.5713  -14.9453 C   0  0  2  0  0  0  0  0  0  0  0  0
   21.7711   -6.0781  -14.8118 C   0  0  0  0  0  0  0  0  0  0  0  0
   20.9259   -5.4835  -15.9037 C   0  0  2  0  0  0  0  0  0  0  0  0
   21.3057   -5.6618  -13.4347 N   0  0  0  0  0  0  0  0  0  0  0  0
   19.9498   -6.1289  -13.2614 C   0  0  0  0  0  0  0  0  0  0  0  0
   21.4865   -4.2435  -13.1617 O   0  0  0  0  0  0  0  0  0  0  0  0
   22.6086   -3.6822  -13.0898 O   0  0  0  0  0  0  0  0  0  0  0  0
  2  7  1  0
  2  1  1  6
  3  2  1  0
  4  5  1  0
  4  3  1  0
  5  6  2  0
  7  8  2  0
  9  5  1  0
 11 10  1  0
 11 12  2  0
 13 11  1  0
 14 15  1  0
 14 13  1  0
 17 16  1  1
 16 15  1  0
 18  7  1  0
 18 17  1  0
 19 17  1  0
 19 20  2  0
 22 21  1  6
 22 24  1  0
 23 22  1  0
 24 26  1  0
 24 25  1  1
 25 19  1  0
 26 28  1  0
 27 26  2  0
M  END
$$$$
