ERV.pdb
     RDKit          3D

 28 27  0  0  1  0  0  0  0  0999 V2000
   18.0414  -21.2608  -11.3487 N   0  0  0  0  0  0  0  0  0  0  0  0
   19.0785  -22.0975  -11.9890 C   0  0  1  0  0  0  0  0  0  0  0  0
   18.3233  -23.1489  -12.7350 C   0  0  0  0  0  0  0  0  0  0  0  0
   17.8023  -24.2754  -11.9012 C   0  0  0  0  0  0  0  0  0  0  0  0
   18.9317  -25.0223  -11.2390 C   0  0  0  0  0  0  0  0  0  0  0  0
   19.8624  -25.4440  -11.9413 O   0  0  0  0  0  0  0  0  0  0  0  0
   19.9409  -21.2388  -12.8120 C   0  0  0  0  0  0  0  0  0  0  0  0
   19.4553  -20.2400  -13.4076 O   0  0  0  0  0  0  0  0  0  0  0  0
   18.9110  -25.2207   -9.8861 O   0  0  0  0  0  0  0  0  0  0  0  0
   27.8646  -19.9512  -15.2413 N   0  0  0  0  0  0  0  0  0  0  0  0
   27.6156  -21.3270  -15.0186 C   0  0  0  0  0  0  0  0  0  0  0  0
   28.2462  -22.2446  -15.7097 N   0  0  0  0  0  0  0  0  0  0  0  0
   26.6616  -21.7125  -14.0244 N   0  0  0  0  0  0  0  0  0  0  0  0
   26.0322  -20.7335  -13.1941 C   0  0  0  0  0  0  0  0  0  0  0  0
   24.7228  -20.2332  -13.8361 C   0  0  0  0  0  0  0  0  0  0  0  0
   23.5799  -20.9437  -13.2338 C   0  0  0  0  0  0  0  0  0  0  0  0
   22.2050  -20.5961  -13.7415 C   0  0  2  0  0  0  0  0  0  0  0  0
   21.3065  -21.4755  -12.9720 N   0  0  0  0  0  0  0  0  0  0  0  0
   21.9865  -20.6992  -15.1658 C   0  0  0  0  0  0  0  0  0  0  0  0
   21.9091  -21.8011  -15.8104 O   0  0  0  0  0  0  0  0  0  0  0  0
   28.0273  -23.2445  -15.5175 C   0  0  0  0  0  0  0  0  0  0  0  0
   19.4315  -18.4939  -17.0509 C   0  0  2  0  0  0  0  0  0  0  0  0
   20.7498  -18.3944  -17.7583 C   0  0  0  0  0  0  0  0  0  0  0  0
   21.3762  -17.0691  -17.4248 C   0  0  2  0  0  0  0  0  0  0  0  0
   21.6394  -19.5593  -17.3873 N   0  0  0  0  0  0  0  0  0  0  0  0
   21.8358  -19.5333  -15.9564 C   0  0  0  0  0  0  0  0  0  0  0  0
   22.8735  -19.6192  -18.1567 O   0  0  0  0  0  0  0  0  0  0  0  0
   24.0081  -19.3630  -17.6809 O   0  0  0  0  0  0  0  0  0  0  0  0
  2  7  1  0
  2  1  1  6
  3  2  1  0
  4  5  1  0
  4  3  1  0
  5  6  2  0
  7  8  2  0
  9  5  1  0
 11 10  1  0
 11 12  2  0
 13 11  1  0
 14 15  1  0
 14 13  1  0
 17 16  1  6
 16 15  1  0
 18  7  1  0
 18 17  1  0
 19 17  1  0
 19 20  2  0
 22 21  1  6
 22 24  1  0
 23 22  1  0
 24 26  1  0
 24 25  1  6
 25 19  1  0
 26 28  1  0
 27 26  2  0
M  END
$$$$
