ERV.pdb
     RDKit          3D

 28 27  0  0  1  0  0  0  0  0999 V2000
   20.4501  -11.8063  -19.8327 N   0  0  0  0  0  0  0  0  0  0  0  0
   21.6130  -10.9526  -19.5095 C   0  0  1  0  0  0  0  0  0  0  0  0
   21.6255   -9.8967  -20.5664 C   0  0  0  0  0  0  0  0  0  0  0  0
   20.4421   -8.9827  -20.5715 C   0  0  0  0  0  0  0  0  0  0  0  0
   20.2419   -8.3686  -21.9336 C   0  0  0  0  0  0  0  0  0  0  0  0
   19.3361   -7.5360  -22.0865 O   0  0  0  0  0  0  0  0  0  0  0  0
   21.4744  -10.4621  -18.1316 C   0  0  0  0  0  0  0  0  0  0  0  0
   20.3323  -10.3569  -17.6098 O   0  0  0  0  0  0  0  0  0  0  0  0
   21.0558   -8.7372  -22.9688 O   0  0  0  0  0  0  0  0  0  0  0  0
   24.0590  -15.7547  -16.0303 N   0  0  0  0  0  0  0  0  0  0  0  0
   22.9657  -15.5671  -15.1506 C   0  0  0  0  0  0  0  0  0  0  0  0
   22.2204  -16.5791  -14.7793 N   0  0  0  0  0  0  0  0  0  0  0  0
   22.6771  -14.2525  -14.6648 N   0  0  0  0  0  0  0  0  0  0  0  0
   23.2907  -13.1029  -15.2529 C   0  0  0  0  0  0  0  0  0  0  0  0
   22.8259  -11.8140  -14.5460 C   0  0  0  0  0  0  0  0  0  0  0  0
   23.4140  -10.6445  -15.2245 C   0  0  0  0  0  0  0  0  0  0  0  0
   22.4688   -9.7078  -15.9303 C   0  0  2  0  0  0  0  0  0  0  0  0
   22.5701  -10.0987  -17.3480 N   0  0  0  0  0  0  0  0  0  0  0  0
   22.6807   -8.2922  -15.7348 C   0  0  0  0  0  0  0  0  0  0  0  0
   23.6490   -7.6266  -16.2397 O   0  0  0  0  0  0  0  0  0  0  0  0
   21.4350  -16.3977  -14.1198 C   0  0  0  0  0  0  0  0  0  0  0  0
   19.5306   -5.8478  -14.9020 C   0  0  2  0  0  0  0  0  0  0  0  0
   20.8795   -5.3539  -15.3318 C   0  0  0  0  0  0  0  0  0  0  0  0
   20.9644   -3.8795  -15.0505 C   0  0  1  0  0  0  0  0  0  0  0  0
   21.9744   -6.1341  -14.6401 N   0  0  0  0  0  0  0  0  0  0  0  0
   21.7844   -7.5339  -14.9419 C   0  0  0  0  0  0  0  0  0  0  0  0
   22.0907   -5.8417  -13.2189 O   0  0  0  0  0  0  0  0  0  0  0  0
   21.6853   -6.6102  -12.3109 O   0  0  0  0  0  0  0  0  0  0  0  0
  2  7  1  0
  2  1  1  6
  3  2  1  0
  4  5  1  0
  4  3  1  0
  5  6  2  0
  7  8  2  0
  9  5  1  0
 11 10  1  0
 11 12  2  0
 13 11  1  0
 14 15  1  0
 14 13  1  0
 17 16  1  1
 16 15  1  0
 18  7  1  0
 18 17  1  0
 19 17  1  0
 19 20  2  0
 22 21  1  6
 22 24  1  0
 23 22  1  0
 24 26  1  0
 24 25  1  6
 25 19  1  0
 26 28  1  0
 27 26  2  0
M  END
$$$$
