ERV.pdb
     RDKit          3D

 28 27  0  0  1  0  0  0  0  0999 V2000
   26.2619  -19.9972  -15.6890 N   0  0  0  0  0  0  0  0  0  0  0  0
   26.4567  -20.9939  -14.6148 C   0  0  1  0  0  0  0  0  0  0  0  0
   27.8776  -21.4363  -14.7484 C   0  0  0  0  0  0  0  0  0  0  0  0
   28.6761  -20.7181  -15.7887 C   0  0  0  0  0  0  0  0  0  0  0  0
   28.8889  -21.5889  -17.0005 C   0  0  0  0  0  0  0  0  0  0  0  0
   29.3807  -22.7167  -16.8472 O   0  0  0  0  0  0  0  0  0  0  0  0
   26.1075  -20.3793  -13.3268 C   0  0  0  0  0  0  0  0  0  0  0  0
   26.4291  -19.1845  -13.0885 O   0  0  0  0  0  0  0  0  0  0  0  0
   28.5389  -21.1243  -18.2381 O   0  0  0  0  0  0  0  0  0  0  0  0
   21.0660  -18.4715  -13.7417 N   0  0  0  0  0  0  0  0  0  0  0  0
   20.4822  -19.7129  -14.0915 C   0  0  0  0  0  0  0  0  0  0  0  0
   19.9010  -19.8783  -15.2544 N   0  0  0  0  0  0  0  0  0  0  0  0
   20.5315  -20.7962  -13.1581 N   0  0  0  0  0  0  0  0  0  0  0  0
   21.2565  -20.6744  -11.9318 C   0  0  0  0  0  0  0  0  0  0  0  0
   22.7502  -20.4076  -12.2046 C   0  0  0  0  0  0  0  0  0  0  0  0
   23.5282  -20.6877  -10.9839 C   0  0  0  0  0  0  0  0  0  0  0  0
   25.0159  -20.4597  -11.0453 C   0  0  2  0  0  0  0  0  0  0  0  0
   25.4182  -21.0663  -12.3271 N   0  0  0  0  0  0  0  0  0  0  0  0
   25.8008  -20.9497   -9.9359 C   0  0  0  0  0  0  0  0  0  0  0  0
   26.1852  -22.1616   -9.7980 O   0  0  0  0  0  0  0  0  0  0  0  0
   19.4894  -20.8099  -15.4722 C   0  0  0  0  0  0  0  0  0  0  0  0
   29.0285  -19.9692   -8.5457 C   0  0  2  0  0  0  0  0  0  0  0  0
   28.0602  -19.7407   -7.4240 C   0  0  0  0  0  0  0  0  0  0  0  0
   27.8080  -18.2639   -7.2991 C   0  0  2  0  0  0  0  0  0  0  0  0
   26.7871  -20.5228   -7.6556 N   0  0  0  0  0  0  0  0  0  0  0  0
   26.2067  -20.0731   -8.8996 C   0  0  0  0  0  0  0  0  0  0  0  0
   25.8702  -20.4928   -6.5255 O   0  0  0  0  0  0  0  0  0  0  0  0
   24.6832  -20.0865   -6.5979 O   0  0  0  0  0  0  0  0  0  0  0  0
  2  7  1  0
  2  1  1  6
  3  2  1  0
  4  5  1  0
  4  3  1  0
  5  6  2  0
  7  8  2  0
  9  5  1  0
 11 10  1  0
 11 12  2  0
 13 11  1  0
 14 15  1  0
 14 13  1  0
 17 16  1  1
 16 15  1  0
 18  7  1  0
 18 17  1  0
 19 17  1  0
 19 20  2  0
 22 21  1  1
 22 24  1  0
 23 22  1  0
 24 26  1  0
 24 25  1  1
 25 19  1  0
 26 28  1  0
 27 26  2  0
M  END
$$$$
