ERV.pdb
     RDKit          3D

 28 27  0  0  1  0  0  0  0  0999 V2000
   24.0648  -15.9106  -20.7712 N   0  0  0  0  0  0  0  0  0  0  0  0
   24.3585  -14.6395  -21.4666 C   0  0  1  0  0  0  0  0  0  0  0  0
   23.0738  -13.8772  -21.4417 C   0  0  0  0  0  0  0  0  0  0  0  0
   22.4470  -13.7237  -20.0929 C   0  0  0  0  0  0  0  0  0  0  0  0
   21.8036  -12.3682  -19.9492 C   0  0  0  0  0  0  0  0  0  0  0  0
   21.8055  -11.5995  -20.9220 O   0  0  0  0  0  0  0  0  0  0  0  0
   25.4921  -13.9840  -20.8006 C   0  0  0  0  0  0  0  0  0  0  0  0
   25.6941  -14.1663  -19.5702 O   0  0  0  0  0  0  0  0  0  0  0  0
   21.2335  -12.0121  -18.7583 O   0  0  0  0  0  0  0  0  0  0  0  0
   32.4839  -11.2250  -25.0481 N   0  0  0  0  0  0  0  0  0  0  0  0
   32.9359  -11.1837  -23.7071 C   0  0  0  0  0  0  0  0  0  0  0  0
   34.1903  -10.9265  -23.4282 N   0  0  0  0  0  0  0  0  0  0  0  0
   32.0050  -11.4268  -22.6480 N   0  0  0  0  0  0  0  0  0  0  0  0
   30.6042  -11.5334  -22.9137 C   0  0  0  0  0  0  0  0  0  0  0  0
   29.8336  -11.9189  -21.6352 C   0  0  0  0  0  0  0  0  0  0  0  0
   28.3972  -12.0357  -21.9462 C   0  0  0  0  0  0  0  0  0  0  0  0
   27.4740  -12.4108  -20.8165 C   0  0  2  0  0  0  0  0  0  0  0  0
   26.3825  -13.1494  -21.4768 N   0  0  0  0  0  0  0  0  0  0  0  0
   26.9847  -11.3355  -19.9850 C   0  0  0  0  0  0  0  0  0  0  0  0
   26.0763  -10.5051  -20.3323 O   0  0  0  0  0  0  0  0  0  0  0  0
   34.4747  -10.8847  -22.4272 C   0  0  0  0  0  0  0  0  0  0  0  0
   26.7512   -9.7303  -15.3479 C   0  0  2  0  0  0  0  0  0  0  0  0
   26.7953  -10.7690  -16.4284 C   0  0  0  0  0  0  0  0  0  0  0  0
   25.5180  -11.5609  -16.3874 C   0  0  1  0  0  0  0  0  0  0  0  0
   27.0267  -10.1226  -17.7755 N   0  0  0  0  0  0  0  0  0  0  0  0
   27.5062  -11.1395  -18.6824 C   0  0  0  0  0  0  0  0  0  0  0  0
   27.8652   -8.9343  -17.7161 O   0  0  0  0  0  0  0  0  0  0  0  0
   29.0898   -8.9270  -17.9986 O   0  0  0  0  0  0  0  0  0  0  0  0
  2  7  1  0
  2  1  1  1
  3  2  1  0
  4  5  1  0
  4  3  1  0
  5  6  2  0
  7  8  2  0
  9  5  1  0
 11 10  1  0
 11 12  2  0
 13 11  1  0
 14 15  1  0
 14 13  1  0
 17 16  1  6
 16 15  1  0
 18  7  1  0
 18 17  1  0
 19 17  1  0
 19 20  2  0
 22 21  1  1
 22 24  1  0
 23 22  1  0
 24 26  1  0
 24 25  1  1
 25 19  1  0
 26 28  1  0
 27 26  2  0
M  END
$$$$
