ERV.pdb
     RDKit          3D

 28 27  0  0  1  0  0  0  0  0999 V2000
   14.5596  -12.0888  -15.0920 N   0  0  0  0  0  0  0  0  0  0  0  0
   15.3999  -11.9092  -13.8890 C   0  0  1  0  0  0  0  0  0  0  0  0
   16.6498  -12.6780  -14.1699 C   0  0  0  0  0  0  0  0  0  0  0  0
   17.6060  -12.0218  -15.1137 C   0  0  0  0  0  0  0  0  0  0  0  0
   18.8544  -12.8504  -15.2782 C   0  0  0  0  0  0  0  0  0  0  0  0
   19.7481  -12.4413  -16.0339 O   0  0  0  0  0  0  0  0  0  0  0  0
   15.5858  -10.4717  -13.6491 C   0  0  0  0  0  0  0  0  0  0  0  0
   15.7097   -9.6793  -14.6210 O   0  0  0  0  0  0  0  0  0  0  0  0
   18.9791  -14.0295  -14.5968 O   0  0  0  0  0  0  0  0  0  0  0  0
    9.9776   -7.3526   -9.0406 N   0  0  0  0  0  0  0  0  0  0  0  0
   10.6056   -8.5129   -8.5269 C   0  0  0  0  0  0  0  0  0  0  0  0
   10.0357   -9.2246   -7.5856 N   0  0  0  0  0  0  0  0  0  0  0  0
   11.8788   -8.9070   -9.0474 N   0  0  0  0  0  0  0  0  0  0  0  0
   12.5098   -8.1557  -10.0874 C   0  0  0  0  0  0  0  0  0  0  0  0
   13.8570   -8.7934  -10.4813 C   0  0  0  0  0  0  0  0  0  0  0  0
   14.4422   -8.0437  -11.6080 C   0  0  0  0  0  0  0  0  0  0  0  0
   15.7968   -8.4819  -12.1001 C   0  0  2  0  0  0  0  0  0  0  0  0
   15.6315   -9.9221  -12.3675 N   0  0  0  0  0  0  0  0  0  0  0  0
   16.9261   -8.2092  -11.2414 C   0  0  0  0  0  0  0  0  0  0  0  0
   17.2130   -8.8730  -10.1866 O   0  0  0  0  0  0  0  0  0  0  0  0
   10.5310  -10.0733   -7.2406 C   0  0  0  0  0  0  0  0  0  0  0  0
   21.3207   -6.0589  -10.8919 C   0  0  2  0  0  0  0  0  0  0  0  0
   20.0877   -6.4091  -11.6698 C   0  0  0  0  0  0  0  0  0  0  0  0
   20.4342   -7.4826  -12.6637 C   0  0  1  0  0  0  0  0  0  0  0  0
   18.9741   -6.8285  -10.7370 N   0  0  0  0  0  0  0  0  0  0  0  0
   17.8160   -7.1478  -11.5392 C   0  0  0  0  0  0  0  0  0  0  0  0
   18.7147   -5.8721   -9.6709 O   0  0  0  0  0  0  0  0  0  0  0  0
   17.8797   -4.9370   -9.7574 O   0  0  0  0  0  0  0  0  0  0  0  0
  2  7  1  0
  2  1  1  6
  3  2  1  0
  4  5  1  0
  4  3  1  0
  5  6  2  0
  7  8  2  0
  9  5  1  0
 11 10  1  0
 11 12  2  0
 13 11  1  0
 14 15  1  0
 14 13  1  0
 17 16  1  1
 16 15  1  0
 18  7  1  0
 18 17  1  0
 19 17  1  0
 19 20  2  0
 22 21  1  6
 22 24  1  0
 23 22  1  0
 24 26  1  0
 24 25  1  6
 25 19  1  0
 26 28  1  0
 27 26  2  0
M  END
$$$$
