ERV.pdb
     RDKit          3D

 28 27  0  0  1  0  0  0  0  0999 V2000
   16.0619  -12.3166  -13.3102 N   0  0  0  0  0  0  0  0  0  0  0  0
   15.3427  -11.0808  -12.9346 C   0  0  1  0  0  0  0  0  0  0  0  0
   14.0023  -11.5403  -12.4607 C   0  0  0  0  0  0  0  0  0  0  0  0
   13.1280  -12.1510  -13.5087 C   0  0  0  0  0  0  0  0  0  0  0  0
   11.8283  -12.6297  -12.9137 C   0  0  0  0  0  0  0  0  0  0  0  0
   11.6311  -12.4682  -11.7004 O   0  0  0  0  0  0  0  0  0  0  0  0
   16.1427  -10.3473  -11.9445 C   0  0  0  0  0  0  0  0  0  0  0  0
   17.1673  -10.8797  -11.4398 O   0  0  0  0  0  0  0  0  0  0  0  0
   10.8966  -13.2289  -13.7156 O   0  0  0  0  0  0  0  0  0  0  0  0
   21.9560   -8.2537  -14.5785 N   0  0  0  0  0  0  0  0  0  0  0  0
   20.8025   -9.0329  -14.8367 C   0  0  0  0  0  0  0  0  0  0  0  0
   20.8336  -10.0112  -15.7081 N   0  0  0  0  0  0  0  0  0  0  0  0
   19.5910   -8.7424  -14.1332 N   0  0  0  0  0  0  0  0  0  0  0  0
   19.4271   -7.5049  -13.4360 C   0  0  0  0  0  0  0  0  0  0  0  0
   18.0264   -7.4191  -12.7976 C   0  0  0  0  0  0  0  0  0  0  0  0
   18.0093   -8.2023  -11.5486 C   0  0  0  0  0  0  0  0  0  0  0  0
   16.7335   -8.1975  -10.7477 C   0  0  2  0  0  0  0  0  0  0  0  0
   15.8209   -9.0568  -11.5233 N   0  0  0  0  0  0  0  0  0  0  0  0
   16.1523   -6.9093  -10.4479 C   0  0  0  0  0  0  0  0  0  0  0  0
   15.6198   -6.1339  -11.3144 O   0  0  0  0  0  0  0  0  0  0  0  0
   19.9585  -10.5506  -15.8759 C   0  0  0  0  0  0  0  0  0  0  0  0
   13.4388   -6.5529   -8.2659 C   0  0  2  0  0  0  0  0  0  0  0  0
   14.4136   -5.5660   -7.6966 C   0  0  0  0  0  0  0  0  0  0  0  0
   15.0147   -6.1487   -6.4479 C   0  0  2  0  0  0  0  0  0  0  0  0
   15.4625   -5.2045   -8.7238 N   0  0  0  0  0  0  0  0  0  0  0  0
   16.1378   -6.4187   -9.1189 C   0  0  0  0  0  0  0  0  0  0  0  0
   16.3561   -4.1385   -8.2950 O   0  0  0  0  0  0  0  0  0  0  0  0
   17.5605   -4.3176   -7.9842 O   0  0  0  0  0  0  0  0  0  0  0  0
  2  7  1  0
  2  1  1  1
  3  2  1  0
  4  5  1  0
  4  3  1  0
  5  6  2  0
  7  8  2  0
  9  5  1  0
 11 10  1  0
 11 12  2  0
 13 11  1  0
 14 15  1  0
 14 13  1  0
 17 16  1  6
 16 15  1  0
 18  7  1  0
 18 17  1  0
 19 17  1  0
 19 20  2  0
 22 21  1  1
 22 24  1  0
 23 22  1  0
 24 26  1  0
 24 25  1  6
 25 19  1  0
 26 28  1  0
 27 26  2  0
M  END
$$$$
