ERV.pdb
     RDKit          3D

 28 27  0  0  1  0  0  0  0  0999 V2000
   36.4422   -4.0941  -14.8299 N   0  0  0  0  0  0  0  0  0  0  0  0
   35.1111   -4.6870  -14.5806 C   0  0  1  0  0  0  0  0  0  0  0  0
   34.1561   -3.5400  -14.6488 C   0  0  0  0  0  0  0  0  0  0  0  0
   34.2211   -2.5842  -13.5009 C   0  0  0  0  0  0  0  0  0  0  0  0
   33.0884   -1.5915  -13.5618 C   0  0  0  0  0  0  0  0  0  0  0  0
   32.9966   -0.7340  -12.6711 O   0  0  0  0  0  0  0  0  0  0  0  0
   34.8777   -5.7592  -15.5575 C   0  0  0  0  0  0  0  0  0  0  0  0
   35.2966   -5.6395  -16.7399 O   0  0  0  0  0  0  0  0  0  0  0  0
   32.1888   -1.6529  -14.5899 O   0  0  0  0  0  0  0  0  0  0  0  0
   32.7400  -13.0170  -18.8770 N   0  0  0  0  0  0  0  0  0  0  0  0
   34.1172  -12.7694  -19.0925 C   0  0  0  0  0  0  0  0  0  0  0  0
   34.7470  -13.3120  -20.1056 N   0  0  0  0  0  0  0  0  0  0  0  0
   34.8235  -11.9146  -18.1883 N   0  0  0  0  0  0  0  0  0  0  0  0
   34.1272  -10.9452  -17.4012 C   0  0  0  0  0  0  0  0  0  0  0  0
   35.1113  -10.1429  -16.5268 C   0  0  0  0  0  0  0  0  0  0  0  0
   34.3539   -9.2462  -15.6345 C   0  0  0  0  0  0  0  0  0  0  0  0
   33.8305   -7.9636  -16.2263 C   0  0  2  0  0  0  0  0  0  0  0  0
   34.2002   -6.9358  -15.2364 N   0  0  0  0  0  0  0  0  0  0  0  0
   32.4262   -7.9217  -16.5627 C   0  0  0  0  0  0  0  0  0  0  0  0
   31.4754   -7.8967  -15.7077 O   0  0  0  0  0  0  0  0  0  0  0  0
   35.7547  -13.0851  -20.2389 C   0  0  0  0  0  0  0  0  0  0  0  0
   29.1784   -6.8077  -20.0742 C   0  0  1  0  0  0  0  0  0  0  0  0
   30.5739   -6.8732  -19.5297 C   0  0  0  0  0  0  0  0  0  0  0  0
   31.0306   -5.4778  -19.2068 C   0  0  1  0  0  0  0  0  0  0  0  0
   30.6311   -7.7885  -18.3276 N   0  0  0  0  0  0  0  0  0  0  0  0
   32.0116   -7.9009  -17.9172 C   0  0  0  0  0  0  0  0  0  0  0  0
   29.9655   -9.0662  -18.5349 O   0  0  0  0  0  0  0  0  0  0  0  0
   28.7538   -9.2746  -18.2746 O   0  0  0  0  0  0  0  0  0  0  0  0
  2  7  1  0
  2  1  1  6
  3  2  1  0
  4  5  1  0
  4  3  1  0
  5  6  2  0
  7  8  2  0
  9  5  1  0
 11 10  1  0
 11 12  2  0
 13 11  1  0
 14 15  1  0
 14 13  1  0
 17 16  1  1
 16 15  1  0
 18  7  1  0
 18 17  1  0
 19 17  1  0
 19 20  2  0
 22 21  1  6
 22 24  1  0
 23 22  1  0
 24 26  1  0
 24 25  1  6
 25 19  1  0
 26 28  1  0
 27 26  2  0
M  END
$$$$
