ERV.pdb
     RDKit          3D

 28 27  0  0  1  0  0  0  0  0999 V2000
   24.8149  -17.0212  -18.3533 N   0  0  0  0  0  0  0  0  0  0  0  0
   25.2251  -18.3884  -17.9687 C   0  0  1  0  0  0  0  0  0  0  0  0
   26.6864  -18.4555  -18.2727 C   0  0  0  0  0  0  0  0  0  0  0  0
   27.0382  -19.0684  -19.5904 C   0  0  0  0  0  0  0  0  0  0  0  0
   26.3336  -18.3600  -20.7191 C   0  0  0  0  0  0  0  0  0  0  0  0
   25.2171  -18.7652  -21.0747 O   0  0  0  0  0  0  0  0  0  0  0  0
   24.8638  -18.6155  -16.5629 C   0  0  0  0  0  0  0  0  0  0  0  0
   25.5297  -18.0697  -15.6428 O   0  0  0  0  0  0  0  0  0  0  0  0
   26.9328  -17.2914  -21.3267 O   0  0  0  0  0  0  0  0  0  0  0  0
   20.1006  -21.7982  -11.1715 N   0  0  0  0  0  0  0  0  0  0  0  0
   19.1491  -20.8053  -11.5075 C   0  0  0  0  0  0  0  0  0  0  0  0
   18.4335  -20.2188  -10.5794 N   0  0  0  0  0  0  0  0  0  0  0  0
   18.9722  -20.4429  -12.8803 N   0  0  0  0  0  0  0  0  0  0  0  0
   19.8716  -20.9175  -13.8852 C   0  0  0  0  0  0  0  0  0  0  0  0
   21.3137  -20.4608  -13.5872 C   0  0  0  0  0  0  0  0  0  0  0  0
   21.9638  -20.0426  -14.8427 C   0  0  0  0  0  0  0  0  0  0  0  0
   23.4274  -19.6920  -14.7793 C   0  0  2  0  0  0  0  0  0  0  0  0
   23.7921  -19.4236  -16.1820 N   0  0  0  0  0  0  0  0  0  0  0  0
   24.3063  -20.6559  -14.1584 C   0  0  0  0  0  0  0  0  0  0  0  0
   24.2557  -21.9181  -14.3575 O   0  0  0  0  0  0  0  0  0  0  0  0
   17.8143  -19.4293  -10.8590 C   0  0  0  0  0  0  0  0  0  0  0  0
   28.0562  -20.3560  -13.6465 C   0  0  2  0  0  0  0  0  0  0  0  0
   27.4711  -20.6097  -12.2895 C   0  0  0  0  0  0  0  0  0  0  0  0
   27.5387  -19.3379  -11.4907 C   0  0  2  0  0  0  0  0  0  0  0  0
   26.0591  -21.1364  -12.4115 N   0  0  0  0  0  0  0  0  0  0  0  0
   25.3172  -20.2332  -13.2603 C   0  0  0  0  0  0  0  0  0  0  0  0
   25.4241  -21.4058  -11.1298 O   0  0  0  0  0  0  0  0  0  0  0  0
   25.7970  -22.3097  -10.3402 O   0  0  0  0  0  0  0  0  0  0  0  0
  2  7  1  0
  2  1  1  1
  3  2  1  0
  4  5  1  0
  4  3  1  0
  5  6  2  0
  7  8  2  0
  9  5  1  0
 11 10  1  0
 11 12  2  0
 13 11  1  0
 14 15  1  0
 14 13  1  0
 17 16  1  6
 16 15  1  0
 18  7  1  0
 18 17  1  0
 19 17  1  0
 19 20  2  0
 22 21  1  1
 22 24  1  0
 23 22  1  0
 24 26  1  0
 24 25  1  1
 25 19  1  0
 26 28  1  0
 27 26  2  0
M  END
$$$$
