ERV.pdb
     RDKit          3D

 28 27  0  0  1  0  0  0  0  0999 V2000
   26.7436  -19.2307  -16.4397 N   0  0  0  0  0  0  0  0  0  0  0  0
   26.9895  -20.2458  -15.3934 C   0  0  1  0  0  0  0  0  0  0  0  0
   28.4721  -20.2623  -15.2091 C   0  0  0  0  0  0  0  0  0  0  0  0
   29.0808  -21.6175  -15.0406 C   0  0  0  0  0  0  0  0  0  0  0  0
   29.4595  -22.2076  -16.3750 C   0  0  0  0  0  0  0  0  0  0  0  0
   29.2656  -21.5388  -17.4008 O   0  0  0  0  0  0  0  0  0  0  0  0
   26.2108  -19.8948  -14.1981 C   0  0  0  0  0  0  0  0  0  0  0  0
   26.2478  -18.7210  -13.7414 O   0  0  0  0  0  0  0  0  0  0  0  0
   30.0058  -23.4600  -16.4311 O   0  0  0  0  0  0  0  0  0  0  0  0
   18.5348  -22.2853  -13.1820 N   0  0  0  0  0  0  0  0  0  0  0  0
   19.3946  -21.3884  -13.8608 C   0  0  0  0  0  0  0  0  0  0  0  0
   19.1033  -20.9592  -15.0642 N   0  0  0  0  0  0  0  0  0  0  0  0
   20.5952  -20.9496  -13.2179 N   0  0  0  0  0  0  0  0  0  0  0  0
   20.9418  -21.4200  -11.9130 C   0  0  0  0  0  0  0  0  0  0  0  0
   22.2937  -20.8321  -11.4618 C   0  0  0  0  0  0  0  0  0  0  0  0
   23.2730  -20.9610  -12.5565 C   0  0  0  0  0  0  0  0  0  0  0  0
   24.6841  -20.5137  -12.2773 C   0  0  2  0  0  0  0  0  0  0  0  0
   25.4089  -20.8167  -13.5245 N   0  0  0  0  0  0  0  0  0  0  0  0
   25.3324  -21.0760  -11.1152 C   0  0  0  0  0  0  0  0  0  0  0  0
   25.7023  -22.2957  -11.0094 O   0  0  0  0  0  0  0  0  0  0  0  0
   19.7719  -20.3124  -15.5326 C   0  0  0  0  0  0  0  0  0  0  0  0
   26.3070  -18.5073   -7.8129 C   0  0  2  0  0  0  0  0  0  0  0  0
   27.0075  -19.8013   -8.1011 C   0  0  0  0  0  0  0  0  0  0  0  0
   27.6215  -20.3105   -6.8267 C   0  0  1  0  0  0  0  0  0  0  0  0
   26.0495  -20.7972   -8.7146 N   0  0  0  0  0  0  0  0  0  0  0  0
   25.6080  -20.2684   -9.9843 C   0  0  0  0  0  0  0  0  0  0  0  0
   24.9670  -21.1901   -7.8243 O   0  0  0  0  0  0  0  0  0  0  0  0
   23.7609  -20.8932   -8.0156 O   0  0  0  0  0  0  0  0  0  0  0  0
  2  7  1  0
  2  1  1  6
  3  2  1  0
  4  5  1  0
  4  3  1  0
  5  6  2  0
  7  8  2  0
  9  5  1  0
 11 10  1  0
 11 12  2  0
 13 11  1  0
 14 15  1  0
 14 13  1  0
 17 16  1  6
 16 15  1  0
 18  7  1  0
 18 17  1  0
 19 17  1  0
 19 20  2  0
 22 21  1  6
 22 24  1  0
 23 22  1  0
 24 26  1  0
 24 25  1  6
 25 19  1  0
 26 28  1  0
 27 26  2  0
M  END
$$$$
