ERV.pdb
     RDKit          3D

 28 27  0  0  1  0  0  0  0  0999 V2000
   27.4997  -20.9398  -17.4182 N   0  0  0  0  0  0  0  0  0  0  0  0
   26.3449  -21.6731  -17.9789 C   0  0  1  0  0  0  0  0  0  0  0  0
   26.9137  -22.9520  -18.5017 C   0  0  0  0  0  0  0  0  0  0  0  0
   27.3094  -23.9492  -17.4603 C   0  0  0  0  0  0  0  0  0  0  0  0
   28.8097  -24.0466  -17.3504 C   0  0  0  0  0  0  0  0  0  0  0  0
   29.2989  -24.8530  -16.5457 O   0  0  0  0  0  0  0  0  0  0  0  0
   25.3222  -21.8199  -16.9344 C   0  0  0  0  0  0  0  0  0  0  0  0
   24.2559  -22.4459  -17.1771 O   0  0  0  0  0  0  0  0  0  0  0  0
   29.5990  -23.2506  -18.1336 O   0  0  0  0  0  0  0  0  0  0  0  0
   23.0573  -19.9510   -9.8354 N   0  0  0  0  0  0  0  0  0  0  0  0
   23.7134  -20.9676   -9.1003 C   0  0  0  0  0  0  0  0  0  0  0  0
   23.2713  -21.3379   -7.9235 N   0  0  0  0  0  0  0  0  0  0  0  0
   24.8735  -21.5941   -9.6561 N   0  0  0  0  0  0  0  0  0  0  0  0
   25.4564  -21.1120  -10.8693 C   0  0  0  0  0  0  0  0  0  0  0  0
   24.4823  -21.2890  -12.0512 C   0  0  0  0  0  0  0  0  0  0  0  0
   25.2423  -21.2963  -13.3146 C   0  0  0  0  0  0  0  0  0  0  0  0
   24.4545  -21.4045  -14.5940 C   0  0  2  0  0  0  0  0  0  0  0  0
   25.4739  -21.2903  -15.6526 N   0  0  0  0  0  0  0  0  0  0  0  0
   23.3675  -20.4703  -14.7757 C   0  0  0  0  0  0  0  0  0  0  0  0
   23.4971  -19.1981  -14.7813 O   0  0  0  0  0  0  0  0  0  0  0  0
   23.7356  -22.1426   -7.4528 C   0  0  0  0  0  0  0  0  0  0  0  0
   21.3143  -19.8997  -17.5030 C   0  0  2  0  0  0  0  0  0  0  0  0
   20.3008  -20.2309  -16.4488 C   0  0  0  0  0  0  0  0  0  0  0  0
   19.7968  -21.6271  -16.6873 C   0  0  2  0  0  0  0  0  0  0  0  0
   20.8970  -20.0637  -15.0695 N   0  0  0  0  0  0  0  0  0  0  0  0
   22.0438  -20.9364  -14.9699 C   0  0  0  0  0  0  0  0  0  0  0  0
   19.9309  -20.2246  -13.9928 O   0  0  0  0  0  0  0  0  0  0  0  0
   19.9620  -21.1646  -13.1592 O   0  0  0  0  0  0  0  0  0  0  0  0
  2  7  1  0
  2  1  1  1
  3  2  1  0
  4  5  1  0
  4  3  1  0
  5  6  2  0
  7  8  2  0
  9  5  1  0
 11 10  1  0
 11 12  2  0
 13 11  1  0
 14 15  1  0
 14 13  1  0
 17 16  1  1
 16 15  1  0
 18  7  1  0
 18 17  1  0
 19 17  1  0
 19 20  2  0
 22 21  1  6
 22 24  1  0
 23 22  1  0
 24 26  1  0
 24 25  1  1
 25 19  1  0
 26 28  1  0
 27 26  2  0
M  END
$$$$
