YEE.pdb
     RDKit          3D

 31 31  0  0  1  0  0  0  0  0999 V2000
   19.4045  -19.8720  -15.4663 O   0  0  0  0  0  0  0  0  0  0  0  0
   19.7324  -18.5096  -15.4955 C   0  0  0  0  0  0  0  0  0  0  0  0
   20.7903  -18.0246  -14.7701 C   0  0  0  0  0  0  0  0  0  0  0  0
   21.1277  -16.6835  -14.7875 C   0  0  0  0  0  0  0  0  0  0  0  0
   20.3898  -15.8202  -15.5455 C   0  0  0  0  0  0  0  0  0  0  0  0
   20.7270  -14.3700  -15.5863 C   0  0  0  0  0  0  0  0  0  0  0  0
   21.3474  -14.1036  -16.9570 C   0  0  2  0  0  0  0  0  0  0  0  0
   22.6597  -14.6792  -16.9597 N   0  0  0  0  0  0  0  0  0  0  0  0
   21.3833  -12.6200  -17.1069 C   0  0  0  0  0  0  0  0  0  0  0  0
   22.3594  -11.9535  -16.6783 O   0  0  0  0  0  0  0  0  0  0  0  0
   19.3060  -16.2897  -16.2945 C   0  0  0  0  0  0  0  0  0  0  0  0
   18.9971  -17.6357  -16.2537 C   0  0  0  0  0  0  0  0  0  0  0  0
   20.3262  -11.9301  -17.7313 N   0  0  0  0  0  0  0  0  0  0  0  0
   20.4216  -10.4955  -18.0122 C   0  0  1  0  0  0  0  0  0  0  0  0
   19.4552  -10.1622  -19.1033 C   0  0  0  0  0  0  0  0  0  0  0  0
   19.4298   -8.7334  -19.5169 C   0  0  0  0  0  0  0  0  0  0  0  0
   18.4883   -8.4987  -20.6173 C   0  0  0  0  0  0  0  0  0  0  0  0
   18.3328   -7.3651  -21.0956 O   0  0  0  0  0  0  0  0  0  0  0  0
   20.0785   -9.7430  -16.7594 C   0  0  0  0  0  0  0  0  0  0  0  0
   19.2445  -10.1330  -15.9169 O   0  0  0  0  0  0  0  0  0  0  0  0
   17.7648   -9.5587  -21.1274 O   0  0  0  0  0  0  0  0  0  0  0  0
   20.7286   -8.4970  -16.4814 N   0  0  0  0  0  0  0  0  0  0  0  0
   20.4725   -7.7591  -15.2340 C   0  0  1  0  0  0  0  0  0  0  0  0
   21.4937   -6.6721  -15.1295 C   0  0  0  0  0  0  0  0  0  0  0  0
   21.4121   -5.7876  -13.9504 C   0  0  0  0  0  0  0  0  0  0  0  0
   22.4707   -4.7694  -13.9298 C   0  0  0  0  0  0  0  0  0  0  0  0
   23.4087   -4.7117  -14.7272 O   0  0  0  0  0  0  0  0  0  0  0  0
   19.0909   -7.2976  -15.2537 C   0  0  0  0  0  0  0  0  0  0  0  0
   18.3744   -7.2411  -14.0781 O   0  0  0  0  0  0  0  0  0  0  0  0
   22.3822   -3.8006  -12.9134 O   0  0  0  0  0  0  0  0  0  0  0  0
   18.5381   -6.9508  -16.3122 O   0  0  0  0  0  0  0  0  0  0  0  0
  2  1  1  0
  3  2  2  0
  4  3  1  0
  5 11  1  0
  5  4  2  0
  6  5  1  0
  7  6  1  0
  7  8  1  1
  9 10  2  0
  9  7  1  0
 11 12  2  0
 12  2  1  0
 13  9  1  0
 14 13  1  0
 14 15  1  6
 15 16  1  0
 16 17  1  0
 17 21  1  0
 18 17  2  0
 19 14  1  0
 20 19  2  0
 22 19  1  0
 23 22  1  0
 23 24  1  6
 24 25  1  0
 26 30  1  0
 26 25  1  0
 27 26  2  0
 28 23  1  0
 28 29  1  0
 31 28  2  0
M  END
$$$$
