YEE.pdb
     RDKit          3D

 31 31  0  0  1  0  0  0  0  0999 V2000
   16.7698  -16.4177  -20.7089 O   0  0  0  0  0  0  0  0  0  0  0  0
   17.0370  -15.3091  -19.8940 C   0  0  0  0  0  0  0  0  0  0  0  0
   17.7860  -14.2584  -20.3584 C   0  0  0  0  0  0  0  0  0  0  0  0
   18.0590  -13.1569  -19.5678 C   0  0  0  0  0  0  0  0  0  0  0  0
   17.5712  -13.1136  -18.2934 C   0  0  0  0  0  0  0  0  0  0  0  0
   17.8470  -11.9418  -17.4162 C   0  0  0  0  0  0  0  0  0  0  0  0
   19.1921  -12.2072  -16.7417 C   0  0  2  0  0  0  0  0  0  0  0  0
   18.9913  -13.2304  -15.7588 N   0  0  0  0  0  0  0  0  0  0  0  0
   19.6037  -10.9111  -16.1289 C   0  0  0  0  0  0  0  0  0  0  0  0
   19.1042  -10.5264  -15.0412 O   0  0  0  0  0  0  0  0  0  0  0  0
   16.8046  -14.1723  -17.7959 C   0  0  0  0  0  0  0  0  0  0  0  0
   16.5513  -15.2571  -18.6131 C   0  0  0  0  0  0  0  0  0  0  0  0
   20.5607  -10.0875  -16.7527 N   0  0  0  0  0  0  0  0  0  0  0  0
   21.0385   -8.8620  -16.1077 C   0  0  1  0  0  0  0  0  0  0  0  0
   22.5102   -8.7461  -16.3447 C   0  0  0  0  0  0  0  0  0  0  0  0
   23.1405   -7.4978  -15.8369 C   0  0  0  0  0  0  0  0  0  0  0  0
   24.5876   -7.4782  -16.0778 C   0  0  0  0  0  0  0  0  0  0  0  0
   25.1789   -6.4191  -16.3362 O   0  0  0  0  0  0  0  0  0  0  0  0
   20.3158   -7.6942  -16.7139 C   0  0  0  0  0  0  0  0  0  0  0  0
   20.2027   -7.5042  -17.9421 O   0  0  0  0  0  0  0  0  0  0  0  0
   25.3008   -8.6591  -16.0153 O   0  0  0  0  0  0  0  0  0  0  0  0
   19.7065   -6.7182  -15.8603 N   0  0  0  0  0  0  0  0  0  0  0  0
   19.0371   -5.5284  -16.4102 C   0  0  1  0  0  0  0  0  0  0  0  0
   18.0081   -5.0857  -15.4200 C   0  0  0  0  0  0  0  0  0  0  0  0
   17.2848   -3.8343  -15.7199 C   0  0  0  0  0  0  0  0  0  0  0  0
   16.3158   -3.4743  -14.6762 C   0  0  0  0  0  0  0  0  0  0  0  0
   16.1251   -4.1144  -13.6404 O   0  0  0  0  0  0  0  0  0  0  0  0
   20.0563   -4.5334  -16.7162 C   0  0  0  0  0  0  0  0  0  0  0  0
   19.9278   -3.7504  -17.8427 O   0  0  0  0  0  0  0  0  0  0  0  0
   15.5632   -2.3071  -14.9021 O   0  0  0  0  0  0  0  0  0  0  0  0
   21.0462   -4.3719  -15.9811 O   0  0  0  0  0  0  0  0  0  0  0  0
  2  1  1  0
  3  2  2  0
  4  3  1  0
  5 11  1  0
  5  4  2  0
  6  5  1  0
  7  6  1  0
  7  8  1  1
  9 10  2  0
  9  7  1  0
 11 12  2  0
 12  2  1  0
 13  9  1  0
 14 13  1  0
 14 15  1  6
 15 16  1  0
 16 17  1  0
 17 21  1  0
 18 17  2  0
 19 14  1  0
 20 19  2  0
 22 19  1  0
 23 22  1  0
 23 24  1  1
 24 25  1  0
 26 30  1  0
 26 25  1  0
 27 26  2  0
 28 23  1  0
 28 29  1  0
 31 28  2  0
M  END
$$$$
