YEE.pdb
     RDKit          3D

 31 31  0  0  1  0  0  0  0  0999 V2000
   28.7997  -14.7681  -17.6527 O   0  0  0  0  0  0  0  0  0  0  0  0
   28.0427  -13.7775  -17.0121 C   0  0  0  0  0  0  0  0  0  0  0  0
   28.5535  -13.0796  -15.9478 C   0  0  0  0  0  0  0  0  0  0  0  0
   27.8204  -12.0992  -15.3043 C   0  0  0  0  0  0  0  0  0  0  0  0
   26.5569  -11.8184  -15.7387 C   0  0  0  0  0  0  0  0  0  0  0  0
   25.7411  -10.7682  -15.0677 C   0  0  0  0  0  0  0  0  0  0  0  0
   25.6883   -9.5778  -16.0242 C   0  0  2  0  0  0  0  0  0  0  0  0
   27.0082   -9.0258  -16.1047 N   0  0  0  0  0  0  0  0  0  0  0  0
   24.7129   -8.6193  -15.4287 C   0  0  0  0  0  0  0  0  0  0  0  0
   24.9532   -8.0557  -14.3308 O   0  0  0  0  0  0  0  0  0  0  0  0
   26.0129  -12.5159  -16.8221 C   0  0  0  0  0  0  0  0  0  0  0  0
   26.7733  -13.4890  -17.4414 C   0  0  0  0  0  0  0  0  0  0  0  0
   23.5004   -8.3224  -16.0806 N   0  0  0  0  0  0  0  0  0  0  0  0
   22.5330   -7.3936  -15.4908 C   0  0  1  0  0  0  0  0  0  0  0  0
   22.8120   -6.0227  -16.0179 C   0  0  0  0  0  0  0  0  0  0  0  0
   21.9186   -4.9492  -15.5051 C   0  0  0  0  0  0  0  0  0  0  0  0
   22.2450   -3.6418  -16.0853 C   0  0  0  0  0  0  0  0  0  0  0  0
   21.7549   -3.2810  -17.1658 O   0  0  0  0  0  0  0  0  0  0  0  0
   21.1524   -7.8352  -15.8816 C   0  0  0  0  0  0  0  0  0  0  0  0
   20.8738   -8.3709  -16.9738 O   0  0  0  0  0  0  0  0  0  0  0  0
   23.1120   -2.8009  -15.4155 O   0  0  0  0  0  0  0  0  0  0  0  0
   20.0639   -7.6456  -14.9698 N   0  0  0  0  0  0  0  0  0  0  0  0
   18.7121   -8.1416  -15.2745 C   0  0  1  0  0  0  0  0  0  0  0  0
   18.6356   -9.5643  -14.8215 C   0  0  0  0  0  0  0  0  0  0  0  0
   17.3282  -10.2381  -14.9476 C   0  0  0  0  0  0  0  0  0  0  0  0
   17.4423  -11.7026  -14.9552 C   0  0  0  0  0  0  0  0  0  0  0  0
   18.3927  -12.3331  -15.4222 O   0  0  0  0  0  0  0  0  0  0  0  0
   17.7474   -7.2491  -14.6459 C   0  0  0  0  0  0  0  0  0  0  0  0
   18.1846   -6.2855  -13.7634 O   0  0  0  0  0  0  0  0  0  0  0  0
   16.3725  -12.4128  -14.3799 O   0  0  0  0  0  0  0  0  0  0  0  0
   16.5306   -7.3358  -14.8875 O   0  0  0  0  0  0  0  0  0  0  0  0
  2  1  1  0
  3  2  2  0
  4  3  1  0
  5 11  1  0
  5  4  2  0
  6  5  1  0
  7  6  1  0
  7  8  1  1
  9 10  2  0
  9  7  1  0
 11 12  2  0
 12  2  1  0
 13  9  1  0
 14 13  1  0
 14 15  1  6
 15 16  1  0
 16 17  1  0
 17 21  1  0
 18 17  2  0
 19 14  1  0
 20 19  2  0
 22 19  1  0
 23 22  1  0
 23 24  1  1
 24 25  1  0
 26 30  1  0
 26 25  1  0
 27 26  2  0
 28 23  1  0
 28 29  1  0
 31 28  2  0
M  END
$$$$
