YEE.pdb
     RDKit          3D

 31 31  0  0  1  0  0  0  0  0999 V2000
   30.9978  -12.9247  -16.7970 O   0  0  0  0  0  0  0  0  0  0  0  0
   29.8469  -12.1257  -16.7562 C   0  0  0  0  0  0  0  0  0  0  0  0
   28.8271  -12.4045  -15.8827 C   0  0  0  0  0  0  0  0  0  0  0  0
   27.6848  -11.6267  -15.8293 C   0  0  0  0  0  0  0  0  0  0  0  0
   27.5686  -10.5545  -16.6665 C   0  0  0  0  0  0  0  0  0  0  0  0
   26.3514   -9.6966  -16.6340 C   0  0  0  0  0  0  0  0  0  0  0  0
   25.1878  -10.5704  -17.1004 C   0  0  2  0  0  0  0  0  0  0  0  0
   25.5269  -11.0936  -18.3906 N   0  0  0  0  0  0  0  0  0  0  0  0
   23.9985   -9.6718  -17.1523 C   0  0  0  0  0  0  0  0  0  0  0  0
   23.7331   -9.0151  -18.1911 O   0  0  0  0  0  0  0  0  0  0  0  0
   28.5944  -10.2488  -17.5667 C   0  0  0  0  0  0  0  0  0  0  0  0
   29.7216  -11.0474  -17.5932 C   0  0  0  0  0  0  0  0  0  0  0  0
   23.1444   -9.5370  -16.0407 N   0  0  0  0  0  0  0  0  0  0  0  0
   21.9469   -8.6956  -16.1053 C   0  0  1  0  0  0  0  0  0  0  0  0
   20.8684   -9.3458  -15.2994 C   0  0  0  0  0  0  0  0  0  0  0  0
   19.5781   -8.6069  -15.2487 C   0  0  0  0  0  0  0  0  0  0  0  0
   18.5545   -9.3438  -14.4994 C   0  0  0  0  0  0  0  0  0  0  0  0
   18.0371   -8.8625  -13.4802 O   0  0  0  0  0  0  0  0  0  0  0  0
   22.2839   -7.3466  -15.5395 C   0  0  0  0  0  0  0  0  0  0  0  0
   23.0440   -7.1678  -14.5660 O   0  0  0  0  0  0  0  0  0  0  0  0
   18.1621  -10.5933  -14.9378 O   0  0  0  0  0  0  0  0  0  0  0  0
   21.7163   -6.1702  -16.1280 N   0  0  0  0  0  0  0  0  0  0  0  0
   22.0436   -4.8262  -15.6255 C   0  0  1  0  0  0  0  0  0  0  0  0
   21.5595   -3.8326  -16.6323 C   0  0  0  0  0  0  0  0  0  0  0  0
   21.7511   -2.4048  -16.3102 C   0  0  0  0  0  0  0  0  0  0  0  0
   21.2031   -1.5117  -17.3396 C   0  0  0  0  0  0  0  0  0  0  0  0
   20.7612   -0.3806  -17.1288 O   0  0  0  0  0  0  0  0  0  0  0  0
   21.4610   -4.6821  -14.2981 C   0  0  0  0  0  0  0  0  0  0  0  0
   20.2144   -5.2093  -14.0400 O   0  0  0  0  0  0  0  0  0  0  0  0
   21.1945   -2.0104  -18.6553 O   0  0  0  0  0  0  0  0  0  0  0  0
   22.0647   -4.0910  -13.3857 O   0  0  0  0  0  0  0  0  0  0  0  0
  2  1  1  0
  3  2  2  0
  4  3  1  0
  5 11  1  0
  5  4  2  0
  6  5  1  0
  7  6  1  0
  7  8  1  6
  9 10  2  0
  9  7  1  0
 11 12  2  0
 12  2  1  0
 13  9  1  0
 14 13  1  0
 14 15  1  1
 15 16  1  0
 16 17  1  0
 17 21  1  0
 18 17  2  0
 19 14  1  0
 20 19  2  0
 22 19  1  0
 23 22  1  0
 23 24  1  6
 24 25  1  0
 26 30  1  0
 26 25  1  0
 27 26  2  0
 28 23  1  0
 28 29  1  0
 31 28  2  0
M  END
$$$$
