YEE.pdb
     RDKit          3D

 31 31  0  0  1  0  0  0  0  0999 V2000
   28.4219  -21.0564   -5.9493 O   0  0  0  0  0  0  0  0  0  0  0  0
   28.0980  -20.8382   -7.2955 C   0  0  0  0  0  0  0  0  0  0  0  0
   26.8009  -20.6135   -7.6798 C   0  0  0  0  0  0  0  0  0  0  0  0
   26.4639  -20.3964   -9.0034 C   0  0  0  0  0  0  0  0  0  0  0  0
   27.4461  -20.4057   -9.9516 C   0  0  0  0  0  0  0  0  0  0  0  0
   27.1166  -20.1749  -11.3858 C   0  0  0  0  0  0  0  0  0  0  0  0
   26.7995  -21.5434  -11.9873 C   0  0  2  0  0  0  0  0  0  0  0  0
   27.9916  -22.0283  -12.6173 N   0  0  0  0  0  0  0  0  0  0  0  0
   25.6990  -21.3127  -12.9674 C   0  0  0  0  0  0  0  0  0  0  0  0
   25.9103  -20.6850  -14.0360 O   0  0  0  0  0  0  0  0  0  0  0  0
   28.7768  -20.6324   -9.5857 C   0  0  0  0  0  0  0  0  0  0  0  0
   29.0777  -20.8458   -8.2542 C   0  0  0  0  0  0  0  0  0  0  0  0
   24.3979  -21.7917  -12.7203 N   0  0  0  0  0  0  0  0  0  0  0  0
   23.3542  -21.7072  -13.7448 C   0  0  1  0  0  0  0  0  0  0  0  0
   22.9917  -23.0951  -14.1659 C   0  0  0  0  0  0  0  0  0  0  0  0
   23.6817  -23.5907  -15.3873 C   0  0  0  0  0  0  0  0  0  0  0  0
   25.0980  -23.8800  -15.1366 C   0  0  0  0  0  0  0  0  0  0  0  0
   25.4384  -24.7777  -14.3516 O   0  0  0  0  0  0  0  0  0  0  0  0
   22.1635  -21.0106  -13.1526 C   0  0  0  0  0  0  0  0  0  0  0  0
   21.7613  -21.1866  -11.9844 O   0  0  0  0  0  0  0  0  0  0  0  0
   26.0659  -23.1396  -15.7864 O   0  0  0  0  0  0  0  0  0  0  0  0
   21.4195  -20.0802  -13.9483 N   0  0  0  0  0  0  0  0  0  0  0  0
   20.2040  -19.4297  -13.4332 C   0  0  1  0  0  0  0  0  0  0  0  0
   19.7586  -18.4265  -14.4482 C   0  0  0  0  0  0  0  0  0  0  0  0
   18.5327  -17.6631  -14.1425 C   0  0  0  0  0  0  0  0  0  0  0  0
   18.1425  -16.7558  -15.2298 C   0  0  0  0  0  0  0  0  0  0  0  0
   17.8646  -17.1093  -16.3773 O   0  0  0  0  0  0  0  0  0  0  0  0
   19.2261  -20.4664  -13.1310 C   0  0  0  0  0  0  0  0  0  0  0  0
   18.3549  -20.2953  -12.0772 O   0  0  0  0  0  0  0  0  0  0  0  0
   18.0903  -15.3868  -14.9090 O   0  0  0  0  0  0  0  0  0  0  0  0
   19.1573  -21.5092  -13.8049 O   0  0  0  0  0  0  0  0  0  0  0  0
  2  1  1  0
  3  2  2  0
  4  3  1  0
  5 11  1  0
  5  4  2  0
  6  5  1  0
  7  6  1  0
  7  8  1  6
  9 10  2  0
  9  7  1  0
 11 12  2  0
 12  2  1  0
 13  9  1  0
 14 13  1  0
 14 15  1  1
 15 16  1  0
 16 17  1  0
 17 21  1  0
 18 17  2  0
 19 14  1  0
 20 19  2  0
 22 19  1  0
 23 22  1  0
 23 24  1  6
 24 25  1  0
 26 30  1  0
 26 25  1  0
 27 26  2  0
 28 23  1  0
 28 29  1  0
 31 28  2  0
M  END
$$$$
