YEE.pdb
     RDKit          3D

 31 31  0  0  1  0  0  0  0  0999 V2000
   31.3844  -21.7939  -10.1171 O   0  0  0  0  0  0  0  0  0  0  0  0
   30.4851  -21.2719  -11.0569 C   0  0  0  0  0  0  0  0  0  0  0  0
   30.6169  -19.9876  -11.5194 C   0  0  0  0  0  0  0  0  0  0  0  0
   29.7385  -19.4568  -12.4465 C   0  0  0  0  0  0  0  0  0  0  0  0
   28.7145  -20.2298  -12.9134 C   0  0  0  0  0  0  0  0  0  0  0  0
   27.7514  -19.6883  -13.9123 C   0  0  0  0  0  0  0  0  0  0  0  0
   28.0603  -20.3820  -15.2383 C   0  0  2  0  0  0  0  0  0  0  0  0
   29.2870  -19.8363  -15.7392 N   0  0  0  0  0  0  0  0  0  0  0  0
   26.9049  -20.0839  -16.1332 C   0  0  0  0  0  0  0  0  0  0  0  0
   26.7844  -18.9553  -16.6740 O   0  0  0  0  0  0  0  0  0  0  0  0
   28.5582  -21.5427  -12.4576 C   0  0  0  0  0  0  0  0  0  0  0  0
   29.4540  -22.0407  -11.5311 C   0  0  0  0  0  0  0  0  0  0  0  0
   25.9218  -21.0579  -16.3942 N   0  0  0  0  0  0  0  0  0  0  0  0
   24.8320  -20.7978  -17.3380 C   0  0  1  0  0  0  0  0  0  0  0  0
   24.6959  -21.9817  -18.2409 C   0  0  0  0  0  0  0  0  0  0  0  0
   23.6429  -21.8680  -19.2857 C   0  0  0  0  0  0  0  0  0  0  0  0
   23.5859  -23.0612  -20.1374 C   0  0  0  0  0  0  0  0  0  0  0  0
   22.6393  -23.8586  -20.0590 O   0  0  0  0  0  0  0  0  0  0  0  0
   23.5680  -20.5858  -16.5564 C   0  0  0  0  0  0  0  0  0  0  0  0
   23.3072  -21.1625  -15.4808 O   0  0  0  0  0  0  0  0  0  0  0  0
   24.6036  -23.2983  -21.0403 O   0  0  0  0  0  0  0  0  0  0  0  0
   22.5780  -19.6729  -17.0452 N   0  0  0  0  0  0  0  0  0  0  0  0
   21.3430  -19.4040  -16.2913 C   0  0  1  0  0  0  0  0  0  0  0  0
   20.8235  -18.0716  -16.7274 C   0  0  0  0  0  0  0  0  0  0  0  0
   19.5203  -17.6484  -16.1783 C   0  0  0  0  0  0  0  0  0  0  0  0
   19.0109  -16.4218  -16.8059 C   0  0  0  0  0  0  0  0  0  0  0  0
   17.8681  -16.2764  -17.2441 O   0  0  0  0  0  0  0  0  0  0  0  0
   20.4266  -20.5157  -16.5073 C   0  0  0  0  0  0  0  0  0  0  0  0
   19.5963  -20.9230  -15.4859 O   0  0  0  0  0  0  0  0  0  0  0  0
   19.9165  -15.3491  -16.9005 O   0  0  0  0  0  0  0  0  0  0  0  0
   20.3747  -21.1107  -17.5981 O   0  0  0  0  0  0  0  0  0  0  0  0
  2  1  1  0
  3  2  2  0
  4  3  1  0
  5 11  1  0
  5  4  2  0
  6  5  1  0
  7  6  1  0
  7  8  1  6
  9 10  2  0
  9  7  1  0
 11 12  2  0
 12  2  1  0
 13  9  1  0
 14 13  1  0
 14 15  1  6
 15 16  1  0
 16 17  1  0
 17 21  1  0
 18 17  2  0
 19 14  1  0
 20 19  2  0
 22 19  1  0
 23 22  1  0
 23 24  1  6
 24 25  1  0
 26 30  1  0
 26 25  1  0
 27 26  2  0
 28 23  1  0
 28 29  1  0
 31 28  2  0
M  END
$$$$
