YEE.pdb
     RDKit          3D

 31 31  0  0  1  0  0  0  0  0999 V2000
   28.1581  -29.1375  -17.9571 O   0  0  0  0  0  0  0  0  0  0  0  0
   27.7510  -27.8966  -17.4483 C   0  0  0  0  0  0  0  0  0  0  0  0
   28.5673  -27.1753  -16.6151 C   0  0  0  0  0  0  0  0  0  0  0  0
   28.1814  -25.9495  -16.1042 C   0  0  0  0  0  0  0  0  0  0  0  0
   26.9575  -25.4440  -16.4370 C   0  0  0  0  0  0  0  0  0  0  0  0
   26.5118  -24.1265  -15.9039 C   0  0  0  0  0  0  0  0  0  0  0  0
   26.2917  -23.2175  -17.1124 C   0  0  2  0  0  0  0  0  0  0  0  0
   27.4389  -22.3670  -17.2313 N   0  0  0  0  0  0  0  0  0  0  0  0
   25.0478  -22.4474  -16.8220 C   0  0  0  0  0  0  0  0  0  0  0  0
   25.0609  -21.4852  -16.0129 O   0  0  0  0  0  0  0  0  0  0  0  0
   26.1062  -26.1598  -17.2849 C   0  0  0  0  0  0  0  0  0  0  0  0
   26.5240  -27.3814  -17.7770 C   0  0  0  0  0  0  0  0  0  0  0  0
   23.8297  -22.7785  -17.4463 N   0  0  0  0  0  0  0  0  0  0  0  0
   22.6159  -21.9967  -17.1975 C   0  0  1  0  0  0  0  0  0  0  0  0
   22.3623  -21.1264  -18.3864 C   0  0  0  0  0  0  0  0  0  0  0  0
   22.5191  -19.6657  -18.1514 C   0  0  0  0  0  0  0  0  0  0  0  0
   22.2411  -18.8837  -19.3612 C   0  0  0  0  0  0  0  0  0  0  0  0
   21.3061  -18.0696  -19.3960 O   0  0  0  0  0  0  0  0  0  0  0  0
   21.4732  -22.9479  -16.9900 C   0  0  0  0  0  0  0  0  0  0  0  0
   21.3810  -24.0605  -17.5475 O   0  0  0  0  0  0  0  0  0  0  0  0
   23.0346  -19.0584  -20.4779 O   0  0  0  0  0  0  0  0  0  0  0  0
   20.4055  -22.5892  -16.1047 N   0  0  0  0  0  0  0  0  0  0  0  0
   19.2806  -23.5032  -15.8491 C   0  0  1  0  0  0  0  0  0  0  0  0
   18.5087  -22.9628  -14.6884 C   0  0  0  0  0  0  0  0  0  0  0  0
   17.3715  -23.7708  -14.2057 C   0  0  0  0  0  0  0  0  0  0  0  0
   16.2416  -22.9482  -13.7534 C   0  0  0  0  0  0  0  0  0  0  0  0
   15.2482  -22.6809  -14.4321 O   0  0  0  0  0  0  0  0  0  0  0  0
   18.5145  -23.6377  -17.0809 C   0  0  0  0  0  0  0  0  0  0  0  0
   17.9697  -24.8585  -17.4149 O   0  0  0  0  0  0  0  0  0  0  0  0
   16.3265  -22.4407  -12.4438 O   0  0  0  0  0  0  0  0  0  0  0  0
   18.3386  -22.6717  -17.8439 O   0  0  0  0  0  0  0  0  0  0  0  0
  2  1  1  0
  3  2  2  0
  4  3  1  0
  5 11  1  0
  5  4  2  0
  6  5  1  0
  7  6  1  0
  7  8  1  1
  9 10  2  0
  9  7  1  0
 11 12  2  0
 12  2  1  0
 13  9  1  0
 14 13  1  0
 14 15  1  6
 15 16  1  0
 16 17  1  0
 17 21  1  0
 18 17  2  0
 19 14  1  0
 20 19  2  0
 22 19  1  0
 23 22  1  0
 23 24  1  1
 24 25  1  0
 26 30  1  0
 26 25  1  0
 27 26  2  0
 28 23  1  0
 28 29  1  0
 31 28  2  0
M  END
$$$$
