YEE.pdb
     RDKit          3D

 31 31  0  0  1  0  0  0  0  0999 V2000
   17.2702  -24.7698   -3.3433 O   0  0  0  0  0  0  0  0  0  0  0  0
   17.9323  -25.8428   -2.7310 C   0  0  0  0  0  0  0  0  0  0  0  0
   19.2243  -26.1567   -3.0671 C   0  0  0  0  0  0  0  0  0  0  0  0
   19.8924  -27.2118   -2.4729 C   0  0  0  0  0  0  0  0  0  0  0  0
   19.2507  -27.9600   -1.5282 C   0  0  0  0  0  0  0  0  0  0  0  0
   19.9420  -29.1029   -0.8691 C   0  0  0  0  0  0  0  0  0  0  0  0
   19.8818  -30.2742   -1.8486 C   0  0  2  0  0  0  0  0  0  0  0  0
   18.5152  -30.6955   -1.9392 N   0  0  0  0  0  0  0  0  0  0  0  0
   20.7602  -31.3330   -1.2723 C   0  0  0  0  0  0  0  0  0  0  0  0
   20.3186  -32.1384   -0.4138 O   0  0  0  0  0  0  0  0  0  0  0  0
   17.9329  -27.6605   -1.1676 C   0  0  0  0  0  0  0  0  0  0  0  0
   17.2958  -26.5994   -1.7816 C   0  0  0  0  0  0  0  0  0  0  0  0
   22.1039  -31.4567   -1.6752 N   0  0  0  0  0  0  0  0  0  0  0  0
   22.9565  -32.5240   -1.1458 C   0  0  1  0  0  0  0  0  0  0  0  0
   24.3157  -32.3886   -1.7536 C   0  0  0  0  0  0  0  0  0  0  0  0
   24.4265  -32.8294   -3.1702 C   0  0  0  0  0  0  0  0  0  0  0  0
   25.7694  -32.5954   -3.7128 C   0  0  0  0  0  0  0  0  0  0  0  0
   26.6813  -32.1559   -2.9965 O   0  0  0  0  0  0  0  0  0  0  0  0
   23.0316  -32.3751    0.3461 C   0  0  0  0  0  0  0  0  0  0  0  0
   23.0549  -31.2766    0.9378 O   0  0  0  0  0  0  0  0  0  0  0  0
   26.0197  -32.8698   -5.0430 O   0  0  0  0  0  0  0  0  0  0  0  0
   23.0811  -33.5442    1.1727 N   0  0  0  0  0  0  0  0  0  0  0  0
   23.1688  -33.4448    2.6384 C   0  0  1  0  0  0  0  0  0  0  0  0
   21.8710  -33.9229    3.2063 C   0  0  0  0  0  0  0  0  0  0  0  0
   21.7727  -34.0038    4.6770 C   0  0  0  0  0  0  0  0  0  0  0  0
   20.4885  -34.5538    5.1310 C   0  0  0  0  0  0  0  0  0  0  0  0
   19.5793  -34.9273    4.3874 O   0  0  0  0  0  0  0  0  0  0  0  0
   24.3387  -34.1944    3.0763 C   0  0  0  0  0  0  0  0  0  0  0  0
   24.8782  -33.9502    4.3205 O   0  0  0  0  0  0  0  0  0  0  0  0
   20.3104  -34.6499    6.5234 O   0  0  0  0  0  0  0  0  0  0  0  0
   24.8664  -35.0552    2.3504 O   0  0  0  0  0  0  0  0  0  0  0  0
  2  1  1  0
  3  2  2  0
  4  3  1  0
  5 11  1  0
  5  4  2  0
  6  5  1  0
  7  6  1  0
  7  8  1  1
  9 10  2  0
  9  7  1  0
 11 12  2  0
 12  2  1  0
 13  9  1  0
 14 13  1  0
 14 15  1  6
 15 16  1  0
 16 17  1  0
 17 21  1  0
 18 17  2  0
 19 14  1  0
 20 19  2  0
 22 19  1  0
 23 22  1  0
 23 24  1  1
 24 25  1  0
 26 30  1  0
 26 25  1  0
 27 26  2  0
 28 23  1  0
 28 29  1  0
 31 28  2  0
M  END
$$$$
