YEE.pdb
     RDKit          3D

 31 31  0  0  1  0  0  0  0  0999 V2000
   31.6820  -21.0789  -10.6773 O   0  0  0  0  0  0  0  0  0  0  0  0
   30.3620  -20.8453  -11.0869 C   0  0  0  0  0  0  0  0  0  0  0  0
   29.3054  -21.1693  -10.2750 C   0  0  0  0  0  0  0  0  0  0  0  0
   27.9970  -20.9455  -10.6635 C   0  0  0  0  0  0  0  0  0  0  0  0
   27.7503  -20.3883  -11.8852 C   0  0  0  0  0  0  0  0  0  0  0  0
   26.3528  -20.1341  -12.3335 C   0  0  0  0  0  0  0  0  0  0  0  0
   25.6246  -21.4763  -12.2777 C   0  0  2  0  0  0  0  0  0  0  0  0
   26.2199  -22.3351  -13.2582 N   0  0  0  0  0  0  0  0  0  0  0  0
   24.1957  -21.1779  -12.5841 C   0  0  0  0  0  0  0  0  0  0  0  0
   23.7449  -21.3174  -13.7495 O   0  0  0  0  0  0  0  0  0  0  0  0
   28.8104  -20.0488  -12.7319 C   0  0  0  0  0  0  0  0  0  0  0  0
   30.1050  -20.2863  -12.3118 C   0  0  0  0  0  0  0  0  0  0  0  0
   23.3174  -20.7334  -11.5770 N   0  0  0  0  0  0  0  0  0  0  0  0
   21.8779  -20.6213  -11.8251 C   0  0  1  0  0  0  0  0  0  0  0  0
   21.2225  -20.1099  -10.5825 C   0  0  0  0  0  0  0  0  0  0  0  0
   19.7359  -20.0644  -10.6190 C   0  0  0  0  0  0  0  0  0  0  0  0
   19.2418  -18.8786  -11.3277 C   0  0  0  0  0  0  0  0  0  0  0  0
   18.4409  -18.9831  -12.2688 O   0  0  0  0  0  0  0  0  0  0  0  0
   21.6656  -19.6645  -12.9623 C   0  0  0  0  0  0  0  0  0  0  0  0
   22.1219  -18.5034  -12.9922 O   0  0  0  0  0  0  0  0  0  0  0  0
   19.6767  -17.6269  -10.9388 O   0  0  0  0  0  0  0  0  0  0  0  0
   20.8969  -20.0756  -14.0992 N   0  0  0  0  0  0  0  0  0  0  0  0
   20.6777  -19.1762  -15.2433 C   0  0  1  0  0  0  0  0  0  0  0  0
   21.4758  -19.6995  -16.3942 C   0  0  0  0  0  0  0  0  0  0  0  0
   20.7458  -20.4692  -17.4207 C   0  0  0  0  0  0  0  0  0  0  0  0
   21.4173  -20.4531  -18.7271 C   0  0  0  0  0  0  0  0  0  0  0  0
   22.4494  -19.8294  -18.9814 O   0  0  0  0  0  0  0  0  0  0  0  0
   19.2438  -19.0892  -15.4856 C   0  0  0  0  0  0  0  0  0  0  0  0
   18.7454  -18.0708  -16.2686 O   0  0  0  0  0  0  0  0  0  0  0  0
   20.8155  -21.2152  -19.7453 O   0  0  0  0  0  0  0  0  0  0  0  0
   18.4527  -19.9167  -15.0001 O   0  0  0  0  0  0  0  0  0  0  0  0
  2  1  1  0
  3  2  2  0
  4  3  1  0
  5 11  1  0
  5  4  2  0
  6  5  1  0
  7  6  1  0
  7  8  1  6
  9 10  2  0
  9  7  1  0
 11 12  2  0
 12  2  1  0
 13  9  1  0
 14 13  1  0
 14 15  1  1
 15 16  1  0
 16 17  1  0
 17 21  1  0
 18 17  2  0
 19 14  1  0
 20 19  2  0
 22 19  1  0
 23 22  1  0
 23 24  1  6
 24 25  1  0
 26 30  1  0
 26 25  1  0
 27 26  2  0
 28 23  1  0
 28 29  1  0
 31 28  2  0
M  END
$$$$
