YEE.pdb
     RDKit          3D

 31 31  0  0  1  0  0  0  0  0999 V2000
   28.7378  -20.3823   -3.5477 O   0  0  0  0  0  0  0  0  0  0  0  0
   28.2815  -20.1845   -4.8581 C   0  0  0  0  0  0  0  0  0  0  0  0
   28.8406  -19.2231   -5.6605 C   0  0  0  0  0  0  0  0  0  0  0  0
   28.4025  -19.0147   -6.9556 C   0  0  0  0  0  0  0  0  0  0  0  0
   27.3884  -19.7846   -7.4484 C   0  0  0  0  0  0  0  0  0  0  0  0
   26.8935  -19.5857   -8.8391 C   0  0  0  0  0  0  0  0  0  0  0  0
   26.8353  -20.9695   -9.4848 C   0  0  2  0  0  0  0  0  0  0  0  0
   28.1783  -21.4588   -9.5861 N   0  0  0  0  0  0  0  0  0  0  0  0
   26.2070  -20.7690  -10.8226 C   0  0  0  0  0  0  0  0  0  0  0  0
   26.7780  -20.0786  -11.7047 O   0  0  0  0  0  0  0  0  0  0  0  0
   26.8013  -20.7719   -6.6504 C   0  0  0  0  0  0  0  0  0  0  0  0
   27.2638  -20.9528   -5.3611 C   0  0  0  0  0  0  0  0  0  0  0  0
   24.9604  -21.3473  -11.1304 N   0  0  0  0  0  0  0  0  0  0  0  0
   24.3345  -21.1421  -12.4390 C   0  0  1  0  0  0  0  0  0  0  0  0
   24.2917  -22.4546  -13.1535 C   0  0  0  0  0  0  0  0  0  0  0  0
   25.5969  -22.9347  -13.6821 C   0  0  0  0  0  0  0  0  0  0  0  0
   26.0558  -22.1303  -14.8200 C   0  0  0  0  0  0  0  0  0  0  0  0
   27.2511  -21.8252  -14.9472 O   0  0  0  0  0  0  0  0  0  0  0  0
   22.9449  -20.6166  -12.2230 C   0  0  0  0  0  0  0  0  0  0  0  0
   22.3288  -20.6962  -11.1406 O   0  0  0  0  0  0  0  0  0  0  0  0
   25.1404  -21.7073  -15.7636 O   0  0  0  0  0  0  0  0  0  0  0  0
   22.2534  -19.9789  -13.3034 N   0  0  0  0  0  0  0  0  0  0  0  0
   20.9332  -19.3578  -13.1096 C   0  0  1  0  0  0  0  0  0  0  0  0
   20.5780  -18.6386  -14.3713 C   0  0  0  0  0  0  0  0  0  0  0  0
   21.4548  -17.5219  -14.7754 C   0  0  0  0  0  0  0  0  0  0  0  0
   21.0186  -16.8798  -16.0224 C   0  0  0  0  0  0  0  0  0  0  0  0
   21.0063  -15.6636  -16.2222 O   0  0  0  0  0  0  0  0  0  0  0  0
   19.9935  -20.3993  -12.7165 C   0  0  0  0  0  0  0  0  0  0  0  0
   18.9541  -20.0935  -11.8652 O   0  0  0  0  0  0  0  0  0  0  0  0
   20.5880  -17.7413  -17.0481 O   0  0  0  0  0  0  0  0  0  0  0  0
   20.1066  -21.5656  -13.1329 O   0  0  0  0  0  0  0  0  0  0  0  0
  2  1  1  0
  3  2  2  0
  4  3  1  0
  5 11  1  0
  5  4  2  0
  6  5  1  0
  7  6  1  0
  7  8  1  6
  9 10  2  0
  9  7  1  0
 11 12  2  0
 12  2  1  0
 13  9  1  0
 14 13  1  0
 14 15  1  1
 15 16  1  0
 16 17  1  0
 17 21  1  0
 18 17  2  0
 19 14  1  0
 20 19  2  0
 22 19  1  0
 23 22  1  0
 23 24  1  6
 24 25  1  0
 26 30  1  0
 26 25  1  0
 27 26  2  0
 28 23  1  0
 28 29  1  0
 31 28  2  0
M  END
$$$$
