YEE.pdb
     RDKit          3D

 31 31  0  0  1  0  0  0  0  0999 V2000
   27.6376  -16.5778  -15.6992 O   0  0  0  0  0  0  0  0  0  0  0  0
   26.9014  -15.4065  -15.9245 C   0  0  0  0  0  0  0  0  0  0  0  0
   26.2029  -14.8077  -14.9076 C   0  0  0  0  0  0  0  0  0  0  0  0
   25.4715  -13.6519  -15.1125 C   0  0  0  0  0  0  0  0  0  0  0  0
   25.4437  -13.0925  -16.3576 C   0  0  0  0  0  0  0  0  0  0  0  0
   24.6659  -11.8478  -16.6115 C   0  0  0  0  0  0  0  0  0  0  0  0
   23.1997  -12.2635  -16.7233 C   0  0  2  0  0  0  0  0  0  0  0  0
   23.0752  -13.1148  -17.8692 N   0  0  0  0  0  0  0  0  0  0  0  0
   22.4274  -10.9967  -16.8767 C   0  0  0  0  0  0  0  0  0  0  0  0
   22.3831  -10.4002  -17.9826 O   0  0  0  0  0  0  0  0  0  0  0  0
   26.1476  -13.6837  -17.4117 C   0  0  0  0  0  0  0  0  0  0  0  0
   26.8678  -14.8380  -17.1714 C   0  0  0  0  0  0  0  0  0  0  0  0
   21.7297  -10.4384  -15.7883 N   0  0  0  0  0  0  0  0  0  0  0  0
   20.9049   -9.2391  -15.9544 C   0  0  1  0  0  0  0  0  0  0  0  0
   19.5494   -9.5153  -15.3872 C   0  0  0  0  0  0  0  0  0  0  0  0
   18.5725   -8.3989  -15.4996 C   0  0  0  0  0  0  0  0  0  0  0  0
   17.2953   -8.7221  -14.8540 C   0  0  0  0  0  0  0  0  0  0  0  0
   16.3682   -7.8990  -14.8221 O   0  0  0  0  0  0  0  0  0  0  0  0
   21.5608   -8.1067  -15.2187 C   0  0  0  0  0  0  0  0  0  0  0  0
   22.2773   -8.2531  -14.2074 O   0  0  0  0  0  0  0  0  0  0  0  0
   17.1249   -9.9634  -14.2732 O   0  0  0  0  0  0  0  0  0  0  0  0
   21.3745   -6.7624  -15.6773 N   0  0  0  0  0  0  0  0  0  0  0  0
   21.9719   -5.6196  -14.9679 C   0  0  1  0  0  0  0  0  0  0  0  0
   21.8467   -4.4192  -15.8502 C   0  0  0  0  0  0  0  0  0  0  0  0
   22.3660   -3.1424  -15.3217 C   0  0  0  0  0  0  0  0  0  0  0  0
   22.2416   -2.0377  -16.2819 C   0  0  0  0  0  0  0  0  0  0  0  0
   21.8753   -2.1591  -17.4524 O   0  0  0  0  0  0  0  0  0  0  0  0
   21.3169   -5.4951  -13.6727 C   0  0  0  0  0  0  0  0  0  0  0  0
   20.0023   -5.8838  -13.5335 O   0  0  0  0  0  0  0  0  0  0  0  0
   22.5715   -0.7566  -15.8025 O   0  0  0  0  0  0  0  0  0  0  0  0
   21.9185   -5.0436  -12.6824 O   0  0  0  0  0  0  0  0  0  0  0  0
  2  1  1  0
  3  2  2  0
  4  3  1  0
  5 11  1  0
  5  4  2  0
  6  5  1  0
  7  6  1  0
  7  8  1  6
  9 10  2  0
  9  7  1  0
 11 12  2  0
 12  2  1  0
 13  9  1  0
 14 13  1  0
 14 15  1  1
 15 16  1  0
 16 17  1  0
 17 21  1  0
 18 17  2  0
 19 14  1  0
 20 19  2  0
 22 19  1  0
 23 22  1  0
 23 24  1  6
 24 25  1  0
 26 30  1  0
 26 25  1  0
 27 26  2  0
 28 23  1  0
 28 29  1  0
 31 28  2  0
M  END
$$$$
