YEE.pdb
     RDKit          3D

 31 31  0  0  1  0  0  0  0  0999 V2000
   11.1437   -5.7420   -7.0272 O   0  0  0  0  0  0  0  0  0  0  0  0
   12.2646   -6.4634   -7.4604 C   0  0  0  0  0  0  0  0  0  0  0  0
   13.4774   -5.8456   -7.6281 C   0  0  0  0  0  0  0  0  0  0  0  0
   14.5934   -6.5422   -8.0548 C   0  0  0  0  0  0  0  0  0  0  0  0
   14.4860   -7.8780   -8.3157 C   0  0  0  0  0  0  0  0  0  0  0  0
   15.6689   -8.6573   -8.7764 C   0  0  0  0  0  0  0  0  0  0  0  0
   15.3985   -9.0444  -10.2297 C   0  0  2  0  0  0  0  0  0  0  0  0
   15.7467  -10.4259  -10.3837 N   0  0  0  0  0  0  0  0  0  0  0  0
   16.2605   -8.1512  -11.0566 C   0  0  0  0  0  0  0  0  0  0  0  0
   17.5061   -8.3173  -11.0980 O   0  0  0  0  0  0  0  0  0  0  0  0
   13.2604   -8.5317   -8.1524 C   0  0  0  0  0  0  0  0  0  0  0  0
   12.1660   -7.8048   -7.7247 C   0  0  0  0  0  0  0  0  0  0  0  0
   15.7013   -7.1014  -11.8105 N   0  0  0  0  0  0  0  0  0  0  0  0
   16.5433   -6.2318  -12.6359 C   0  0  1  0  0  0  0  0  0  0  0  0
   16.6733   -6.8484  -13.9917 C   0  0  0  0  0  0  0  0  0  0  0  0
   17.4241   -6.0398  -14.9896 C   0  0  0  0  0  0  0  0  0  0  0  0
   18.8751   -6.1456  -14.7998 C   0  0  0  0  0  0  0  0  0  0  0  0
   19.6012   -5.1413  -14.8455 O   0  0  0  0  0  0  0  0  0  0  0  0
   15.8846   -4.8863  -12.7323 C   0  0  0  0  0  0  0  0  0  0  0  0
   14.7016   -4.7121  -13.0894 O   0  0  0  0  0  0  0  0  0  0  0  0
   19.4392   -7.3843  -14.5663 O   0  0  0  0  0  0  0  0  0  0  0  0
   16.6296   -3.7081  -12.4018 N   0  0  0  0  0  0  0  0  0  0  0  0
   16.0103   -2.3734  -12.4365 C   0  0  1  0  0  0  0  0  0  0  0  0
   16.2559   -1.7223  -11.1133 C   0  0  0  0  0  0  0  0  0  0  0  0
   15.8104   -0.3230  -10.9623 C   0  0  0  0  0  0  0  0  0  0  0  0
   16.1253    0.2338   -9.6400 C   0  0  0  0  0  0  0  0  0  0  0  0
   16.7374   -0.3623   -8.7518 O   0  0  0  0  0  0  0  0  0  0  0  0
   16.5496   -1.6510  -13.5808 C   0  0  0  0  0  0  0  0  0  0  0  0
   15.7690   -0.7172  -14.2270 O   0  0  0  0  0  0  0  0  0  0  0  0
   15.6831    1.5472   -9.3968 O   0  0  0  0  0  0  0  0  0  0  0  0
   17.7049   -1.8573  -13.9921 O   0  0  0  0  0  0  0  0  0  0  0  0
  2  1  1  0
  3  2  2  0
  4  3  1  0
  5 11  1  0
  5  4  2  0
  6  5  1  0
  7  6  1  0
  7  8  1  1
  9 10  2  0
  9  7  1  0
 11 12  2  0
 12  2  1  0
 13  9  1  0
 14 13  1  0
 14 15  1  6
 15 16  1  0
 16 17  1  0
 17 21  1  0
 18 17  2  0
 19 14  1  0
 20 19  2  0
 22 19  1  0
 23 22  1  0
 23 24  1  1
 24 25  1  0
 26 30  1  0
 26 25  1  0
 27 26  2  0
 28 23  1  0
 28 29  1  0
 31 28  2  0
M  END
$$$$
