YEE.pdb
     RDKit          3D

 31 31  0  0  1  0  0  0  0  0999 V2000
   14.2315  -14.9894  -18.3288 O   0  0  0  0  0  0  0  0  0  0  0  0
   14.9443  -13.8840  -17.8444 C   0  0  0  0  0  0  0  0  0  0  0  0
   16.1840  -13.5732  -18.3413 C   0  0  0  0  0  0  0  0  0  0  0  0
   16.9008  -12.4863  -17.8748 C   0  0  0  0  0  0  0  0  0  0  0  0
   16.3616  -11.7028  -16.8953 C   0  0  0  0  0  0  0  0  0  0  0  0
   17.1075  -10.5249  -16.3711 C   0  0  0  0  0  0  0  0  0  0  0  0
   18.2502  -11.0748  -15.5186 C   0  0  2  0  0  0  0  0  0  0  0  0
   17.6752  -11.6465  -14.3371 N   0  0  0  0  0  0  0  0  0  0  0  0
   19.1266   -9.9079  -15.2101 C   0  0  0  0  0  0  0  0  0  0  0  0
   18.9661   -9.2440  -14.1546 O   0  0  0  0  0  0  0  0  0  0  0  0
   15.0988  -11.9985  -16.3717 C   0  0  0  0  0  0  0  0  0  0  0  0
   14.4106  -13.0920  -16.8610 C   0  0  0  0  0  0  0  0  0  0  0  0
   20.1542   -9.5216  -16.0922 N   0  0  0  0  0  0  0  0  0  0  0  0
   21.0220   -8.3811  -15.7885 C   0  0  1  0  0  0  0  0  0  0  0  0
   22.4217   -8.7357  -16.1761 C   0  0  0  0  0  0  0  0  0  0  0  0
   23.4369   -7.6750  -15.9367 C   0  0  0  0  0  0  0  0  0  0  0  0
   24.7933   -8.1329  -16.2577 C   0  0  0  0  0  0  0  0  0  0  0  0
   25.7024   -8.0803  -15.4158 O   0  0  0  0  0  0  0  0  0  0  0  0
   20.5429   -7.1971  -16.5774 C   0  0  0  0  0  0  0  0  0  0  0  0
   20.3626   -7.2076  -17.8122 O   0  0  0  0  0  0  0  0  0  0  0  0
   25.0598   -8.6304  -17.5182 O   0  0  0  0  0  0  0  0  0  0  0  0
   20.2659   -5.9632  -15.9044 N   0  0  0  0  0  0  0  0  0  0  0  0
   19.7929   -4.7781  -16.6379 C   0  0  1  0  0  0  0  0  0  0  0  0
   18.4407   -4.4235  -16.1079 C   0  0  0  0  0  0  0  0  0  0  0  0
   17.8325   -3.1740  -16.6060 C   0  0  0  0  0  0  0  0  0  0  0  0
   16.4657   -2.9697  -16.1081 C   0  0  0  0  0  0  0  0  0  0  0  0
   15.8975   -1.8784  -16.0366 O   0  0  0  0  0  0  0  0  0  0  0  0
   20.7948   -3.7293  -16.5027 C   0  0  0  0  0  0  0  0  0  0  0  0
   21.6151   -3.7088  -15.3957 O   0  0  0  0  0  0  0  0  0  0  0  0
   15.7777   -4.1230  -15.6883 O   0  0  0  0  0  0  0  0  0  0  0  0
   20.9294   -2.8457  -17.3673 O   0  0  0  0  0  0  0  0  0  0  0  0
  2  1  1  0
  3  2  2  0
  4  3  1  0
  5 11  1  0
  5  4  2  0
  6  5  1  0
  7  6  1  0
  7  8  1  1
  9 10  2  0
  9  7  1  0
 11 12  2  0
 12  2  1  0
 13  9  1  0
 14 13  1  0
 14 15  1  6
 15 16  1  0
 16 17  1  0
 17 21  1  0
 18 17  2  0
 19 14  1  0
 20 19  2  0
 22 19  1  0
 23 22  1  0
 23 24  1  1
 24 25  1  0
 26 30  1  0
 26 25  1  0
 27 26  2  0
 28 23  1  0
 28 29  1  0
 31 28  2  0
M  END
$$$$
