CIT.pdb
     RDKit          3D

 22 21  0  0  1  0  0  0  0  0999 V2000
    6.7932  -15.4412   20.1345 N   0  0  0  0  0  0  0  0  0  0  0  0
    6.3746  -15.6355   21.4919 C   0  0  1  0  0  0  0  0  0  0  0  0
    5.9073  -17.0559   21.6651 C   0  0  0  0  0  0  0  0  0  0  0  0
    4.4010  -17.2735   20.6755 S   0  0  0  0  0  0  0  0  0  0  0  0
    7.4903  -15.3257   22.4140 C   0  0  0  0  0  0  0  0  0  0  0  0
    8.6722  -15.4814   22.0522 O   0  0  0  0  0  0  0  0  0  0  0  0
    6.2738  -12.5401   27.1679 C   0  0  0  0  0  0  0  0  0  0  0  0
    6.5687  -13.6066   26.1624 C   0  0  0  0  0  0  0  0  0  0  0  0
    7.8991  -13.3160   25.4727 C   0  0  2  0  0  0  0  0  0  0  0  0
    7.6619  -12.1523   24.5360 C   0  0  0  0  0  0  0  0  0  0  0  0
    8.2576  -14.5706   24.6980 C   0  0  2  0  0  0  0  0  0  0  0  0
    7.2416  -14.8492   23.7179 N   0  0  0  0  0  0  0  0  0  0  0  0
    8.5307  -15.7221   25.5806 C   0  0  0  0  0  0  0  0  0  0  0  0
    7.5642  -16.2928   26.1480 O   0  0  0  0  0  0  0  0  0  0  0  0
   10.2061  -18.7995   24.3171 C   0  0  0  0  0  0  0  0  0  0  0  0
   10.9256  -18.4099   25.5883 C   0  0  1  0  0  0  0  0  0  0  0  0
   12.0913  -17.7517   25.2332 O   0  0  0  0  0  0  0  0  0  0  0  0
   10.0856  -17.4979   26.4611 C   0  0  2  0  0  0  0  0  0  0  0  0
    9.8295  -16.2292   25.8302 N   0  0  0  0  0  0  0  0  0  0  0  0
   10.8118  -17.3159   27.7336 C   0  0  0  0  0  0  0  0  0  0  0  0
   11.3221  -16.2061   27.9924 O   0  0  0  0  0  0  0  0  0  0  0  0
   10.9412  -18.3416   28.6454 O   0  0  0  0  0  0  0  0  0  0  0  0
  2  1  1  6
  2  5  1  0
  3  2  1  0
  4  3  1  0
  5 12  1  0
  5  6  2  0
  7  8  1  0
  8  9  1  0
  9 11  1  0
  9 10  1  6
 11 13  1  0
 11 12  1  6
 13 14  2  0
 16 18  1  0
 16 15  1  6
 17 16  1  0
 18 20  1  0
 19 13  1  0
 18 19  1  6
 20 22  1  0
 21 20  2  0
M  END
$$$$
