CIT.pdb
     RDKit          3D

 22 21  0  0  1  0  0  0  0  0999 V2000
    7.3851  -14.9123   20.1586 N   0  0  0  0  0  0  0  0  0  0  0  0
    6.7748  -15.2666   21.4065 C   0  0  1  0  0  0  0  0  0  0  0  0
    6.3796  -16.7185   21.3672 C   0  0  0  0  0  0  0  0  0  0  0  0
    5.4793  -17.0111   19.8183 S   0  0  0  0  0  0  0  0  0  0  0  0
    7.7117  -14.9997   22.5210 C   0  0  0  0  0  0  0  0  0  0  0  0
    8.9429  -15.0270   22.3332 O   0  0  0  0  0  0  0  0  0  0  0  0
    6.1147  -11.6443   26.3553 C   0  0  0  0  0  0  0  0  0  0  0  0
    6.9579  -12.4424   25.4132 C   0  0  0  0  0  0  0  0  0  0  0  0
    7.3230  -13.7807   26.0499 C   0  0  2  0  0  0  0  0  0  0  0  0
    8.2300  -13.4754   27.2213 C   0  0  0  0  0  0  0  0  0  0  0  0
    8.0613  -14.5695   24.9844 C   0  0  2  0  0  0  0  0  0  0  0  0
    7.2337  -14.7095   23.8158 N   0  0  0  0  0  0  0  0  0  0  0  0
    8.5653  -15.8635   25.4856 C   0  0  0  0  0  0  0  0  0  0  0  0
    7.7656  -16.6406   26.0673 O   0  0  0  0  0  0  0  0  0  0  0  0
   10.6367  -18.3768   23.3106 C   0  0  0  0  0  0  0  0  0  0  0  0
   11.3182  -18.1677   24.6438 C   0  0  1  0  0  0  0  0  0  0  0  0
   12.3600  -17.2751   24.4542 O   0  0  0  0  0  0  0  0  0  0  0  0
   10.3693  -17.6104   25.6869 C   0  0  2  0  0  0  0  0  0  0  0  0
    9.9097  -16.2880   25.3498 N   0  0  0  0  0  0  0  0  0  0  0  0
   11.0875  -17.6051   26.9767 C   0  0  0  0  0  0  0  0  0  0  0  0
   11.3718  -16.5140   27.5132 O   0  0  0  0  0  0  0  0  0  0  0  0
   11.4533  -18.7761   27.6054 O   0  0  0  0  0  0  0  0  0  0  0  0
  2  1  1  6
  2  5  1  0
  3  2  1  0
  4  3  1  0
  5 12  1  0
  5  6  2  0
  7  8  1  0
  8  9  1  0
  9 11  1  0
  9 10  1  1
 11 13  1  0
 11 12  1  6
 13 14  2  0
 16 18  1  0
 16 15  1  6
 17 16  1  0
 18 20  1  0
 19 13  1  0
 18 19  1  6
 20 22  1  0
 21 20  2  0
M  END
$$$$
