CIT.pdb
     RDKit          3D

 22 21  0  0  1  0  0  0  0  0999 V2000
    7.4116  -15.3077   20.4014 N   0  0  0  0  0  0  0  0  0  0  0  0
    6.7055  -15.6403   21.6039 C   0  0  1  0  0  0  0  0  0  0  0  0
    6.2550  -17.0747   21.5303 C   0  0  0  0  0  0  0  0  0  0  0  0
    5.3250  -17.4470   23.0442 S   0  0  0  0  0  0  0  0  0  0  0  0
    7.5760  -15.4151   22.7797 C   0  0  0  0  0  0  0  0  0  0  0  0
    8.8068  -15.5902   22.6988 O   0  0  0  0  0  0  0  0  0  0  0  0
    5.9687  -11.5747   26.0412 C   0  0  0  0  0  0  0  0  0  0  0  0
    6.7966  -12.5485   25.2654 C   0  0  0  0  0  0  0  0  0  0  0  0
    7.0658  -13.7903   26.1112 C   0  0  2  0  0  0  0  0  0  0  0  0
    7.9446  -13.3539   27.2624 C   0  0  0  0  0  0  0  0  0  0  0  0
    7.7991  -14.7661   25.2097 C   0  0  2  0  0  0  0  0  0  0  0  0
    7.0341  -14.9989   24.0135 N   0  0  0  0  0  0  0  0  0  0  0  0
    8.1641  -16.0155   25.9064 C   0  0  0  0  0  0  0  0  0  0  0  0
    7.2665  -16.6561   26.5111 O   0  0  0  0  0  0  0  0  0  0  0  0
   10.1312  -18.9225   24.2566 C   0  0  0  0  0  0  0  0  0  0  0  0
   10.7534  -18.6107   25.5987 C   0  0  1  0  0  0  0  0  0  0  0  0
   11.8965  -17.8617   25.3744 O   0  0  0  0  0  0  0  0  0  0  0  0
    9.8130  -17.8273   26.4937 C   0  0  2  0  0  0  0  0  0  0  0  0
    9.4783  -16.5428   25.9356 N   0  0  0  0  0  0  0  0  0  0  0  0
   10.4773  -17.6752   27.8034 C   0  0  0  0  0  0  0  0  0  0  0  0
   10.8981  -16.5513   28.1481 O   0  0  0  0  0  0  0  0  0  0  0  0
   10.6454  -18.7442   28.6573 O   0  0  0  0  0  0  0  0  0  0  0  0
  2  1  1  6
  2  5  1  0
  3  2  1  0
  4  3  1  0
  5 12  1  0
  5  6  2  0
  7  8  1  0
  8  9  1  0
  9 11  1  0
  9 10  1  1
 11 13  1  0
 11 12  1  6
 13 14  2  0
 16 18  1  0
 16 15  1  6
 17 16  1  0
 18 20  1  0
 19 13  1  0
 18 19  1  6
 20 22  1  0
 21 20  2  0
M  END
$$$$
