CIT.pdb
     RDKit          3D

 22 21  0  0  1  0  0  0  0  0999 V2000
    6.5827  -14.8272   21.1843 N   0  0  0  0  0  0  0  0  0  0  0  0
    8.0051  -14.6748   21.0890 C   0  0  1  0  0  0  0  0  0  0  0  0
    8.3158  -13.4426   20.2822 C   0  0  0  0  0  0  0  0  0  0  0  0
    7.5002  -13.6102   18.6691 S   0  0  0  0  0  0  0  0  0  0  0  0
    8.5957  -14.5874   22.4435 C   0  0  0  0  0  0  0  0  0  0  0  0
    9.8305  -14.5147   22.5921 O   0  0  0  0  0  0  0  0  0  0  0  0
    6.1940  -11.5815   25.9031 C   0  0  0  0  0  0  0  0  0  0  0  0
    7.2199  -12.3981   25.1847 C   0  0  0  0  0  0  0  0  0  0  0  0
    7.3312  -13.7767   25.8305 C   0  0  2  0  0  0  0  0  0  0  0  0
    7.9329  -13.5702   27.2028 C   0  0  0  0  0  0  0  0  0  0  0  0
    8.2629  -14.5847   24.9465 C   0  0  2  0  0  0  0  0  0  0  0  0
    7.7772  -14.5845   23.5921 N   0  0  0  0  0  0  0  0  0  0  0  0
    8.4994  -15.9455   25.4681 C   0  0  0  0  0  0  0  0  0  0  0  0
    7.5098  -16.6883   25.6931 O   0  0  0  0  0  0  0  0  0  0  0  0
   10.3474  -18.6151   23.7047 C   0  0  0  0  0  0  0  0  0  0  0  0
   10.9609  -18.5246   25.0834 C   0  0  1  0  0  0  0  0  0  0  0  0
   12.1312  -17.7911   24.9813 O   0  0  0  0  0  0  0  0  0  0  0  0
   10.0348  -17.8483   26.0753 C   0  0  2  0  0  0  0  0  0  0  0  0
    9.7874  -16.4714   25.7337 N   0  0  0  0  0  0  0  0  0  0  0  0
   10.6629  -17.9555   27.4070 C   0  0  0  0  0  0  0  0  0  0  0  0
   11.1993  -16.9475   27.9125 O   0  0  0  0  0  0  0  0  0  0  0  0
   10.6726  -19.1421   28.1084 O   0  0  0  0  0  0  0  0  0  0  0  0
  2  1  1  1
  2  5  1  0
  3  2  1  0
  4  3  1  0
  5 12  1  0
  5  6  2  0
  7  8  1  0
  8  9  1  0
  9 11  1  0
  9 10  1  1
 11 13  1  0
 11 12  1  6
 13 14  2  0
 16 18  1  0
 16 15  1  6
 17 16  1  0
 18 20  1  0
 19 13  1  0
 18 19  1  6
 20 22  1  0
 21 20  2  0
M  END
$$$$
