CIT.pdb
     RDKit          3D

 22 21  0  0  1  0  0  0  0  0999 V2000
    7.7579  -14.5268   20.0073 N   0  0  0  0  0  0  0  0  0  0  0  0
    7.0851  -15.0496   21.1603 C   0  0  1  0  0  0  0  0  0  0  0  0
    6.8451  -16.5228   20.9651 C   0  0  0  0  0  0  0  0  0  0  0  0
    5.2234  -16.7251   20.1751 S   0  0  0  0  0  0  0  0  0  0  0  0
    7.8936  -14.7980   22.3744 C   0  0  0  0  0  0  0  0  0  0  0  0
    9.1373  -14.7627   22.3106 O   0  0  0  0  0  0  0  0  0  0  0  0
    5.9165  -11.5386   26.0193 C   0  0  0  0  0  0  0  0  0  0  0  0
    6.8221  -12.3608   25.1594 C   0  0  0  0  0  0  0  0  0  0  0  0
    7.1546  -13.6741   25.8627 C   0  0  2  0  0  0  0  0  0  0  0  0
    7.9709  -13.3212   27.0863 C   0  0  0  0  0  0  0  0  0  0  0  0
    7.9768  -14.4854   24.8786 C   0  0  2  0  0  0  0  0  0  0  0  0
    7.2768  -14.5932   23.6261 N   0  0  0  0  0  0  0  0  0  0  0  0
    8.3784  -15.7975   25.4232 C   0  0  0  0  0  0  0  0  0  0  0  0
    7.4852  -16.5816   25.8345 O   0  0  0  0  0  0  0  0  0  0  0  0
   10.4524  -18.2837   23.4656 C   0  0  0  0  0  0  0  0  0  0  0  0
   11.0728  -18.1668   24.8393 C   0  0  1  0  0  0  0  0  0  0  0  0
   12.1827  -17.3448   24.7368 O   0  0  0  0  0  0  0  0  0  0  0  0
   10.1091  -17.5775   25.8508 C   0  0  2  0  0  0  0  0  0  0  0  0
    9.7236  -16.2322   25.5118 N   0  0  0  0  0  0  0  0  0  0  0  0
   10.7748  -17.6182   27.1679 C   0  0  0  0  0  0  0  0  0  0  0  0
   11.0208  -18.7235   27.6942 O   0  0  0  0  0  0  0  0  0  0  0  0
   11.1326  -16.4651   27.8332 O   0  0  0  0  0  0  0  0  0  0  0  0
  2  1  1  6
  2  5  1  0
  3  2  1  0
  4  3  1  0
  5 12  1  0
  5  6  2  0
  7  8  1  0
  8  9  1  0
  9 11  1  0
  9 10  1  1
 11 13  1  0
 11 12  1  6
 13 14  2  0
 16 18  1  0
 16 15  1  6
 17 16  1  0
 18 20  1  0
 19 13  1  0
 18 19  1  6
 20 22  1  0
 21 20  2  0
M  END
$$$$
