CIT.pdb
     RDKit          3D

 22 21  0  0  1  0  0  0  0  0999 V2000
    7.8764  -14.0505   19.4854 N   0  0  0  0  0  0  0  0  0  0  0  0
    7.2778  -14.7751   20.5680 C   0  0  1  0  0  0  0  0  0  0  0  0
    7.2784  -16.2438   20.2380 C   0  0  0  0  0  0  0  0  0  0  0  0
    5.7223  -16.9540   20.8460 S   0  0  0  0  0  0  0  0  0  0  0  0
    8.0171  -14.5108   21.8228 C   0  0  0  0  0  0  0  0  0  0  0  0
    9.2600  -14.5904   21.8539 O   0  0  0  0  0  0  0  0  0  0  0  0
    7.3133  -11.7079   27.2263 C   0  0  0  0  0  0  0  0  0  0  0  0
    7.9530  -12.7832   26.4078 C   0  0  0  0  0  0  0  0  0  0  0  0
    7.1596  -12.9977   25.1215 C   0  0  2  0  0  0  0  0  0  0  0  0
    5.8235  -13.5819   25.5233 C   0  0  0  0  0  0  0  0  0  0  0  0
    7.9564  -13.9878   24.2923 C   0  0  2  0  0  0  0  0  0  0  0  0
    7.3340  -14.1643   23.0071 N   0  0  0  0  0  0  0  0  0  0  0  0
    8.1816  -15.2649   24.9980 C   0  0  0  0  0  0  0  0  0  0  0  0
    7.1856  -15.9128   25.4104 O   0  0  0  0  0  0  0  0  0  0  0  0
   10.2807  -18.1302   23.5333 C   0  0  0  0  0  0  0  0  0  0  0  0
   10.7238  -17.8976   24.9598 C   0  0  1  0  0  0  0  0  0  0  0  0
   11.8991  -17.1657   24.9267 O   0  0  0  0  0  0  0  0  0  0  0  0
    9.6860  -17.1360   25.7611 C   0  0  2  0  0  0  0  0  0  0  0  0
    9.4655  -15.8112   25.2416 N   0  0  0  0  0  0  0  0  0  0  0  0
   10.1620  -17.0813   27.1576 C   0  0  0  0  0  0  0  0  0  0  0  0
   10.2518  -18.1395   27.8143 O   0  0  0  0  0  0  0  0  0  0  0  0
   10.5105  -15.8896   27.7565 O   0  0  0  0  0  0  0  0  0  0  0  0
  2  1  1  6
  2  5  1  0
  3  2  1  0
  4  3  1  0
  5 12  1  0
  5  6  2  0
  7  8  1  0
  8  9  1  0
  9 11  1  0
  9 10  1  1
 11 13  1  0
 11 12  1  6
 13 14  2  0
 16 18  1  0
 16 15  1  6
 17 16  1  0
 18 20  1  0
 19 13  1  0
 18 19  1  6
 20 22  1  0
 21 20  2  0
M  END
$$$$
