CIT.pdb
     RDKit          3D

 22 21  0  0  1  0  0  0  0  0999 V2000
    7.9248  -14.0059   20.0198 N   0  0  0  0  0  0  0  0  0  0  0  0
    7.1970  -14.6593   21.0680 C   0  0  1  0  0  0  0  0  0  0  0  0
    6.9271  -16.0847   20.6662 C   0  0  0  0  0  0  0  0  0  0  0  0
    5.8282  -16.8180   21.9111 S   0  0  0  0  0  0  0  0  0  0  0  0
    7.9664  -14.5986   22.3311 C   0  0  0  0  0  0  0  0  0  0  0  0
    9.2120  -14.6100   22.3146 O   0  0  0  0  0  0  0  0  0  0  0  0
    5.9422  -11.5157   26.0372 C   0  0  0  0  0  0  0  0  0  0  0  0
    6.8983  -12.3077   25.2041 C   0  0  0  0  0  0  0  0  0  0  0  0
    7.1264  -13.6779   25.8370 C   0  0  2  0  0  0  0  0  0  0  0  0
    7.8783  -13.4440   27.1285 C   0  0  0  0  0  0  0  0  0  0  0  0
    7.9722  -14.4639   24.8525 C   0  0  2  0  0  0  0  0  0  0  0  0
    7.3093  -14.5269   23.5770 N   0  0  0  0  0  0  0  0  0  0  0  0
    8.3487  -15.7956   25.3668 C   0  0  0  0  0  0  0  0  0  0  0  0
    7.4380  -16.5896   25.7159 O   0  0  0  0  0  0  0  0  0  0  0  0
   10.5009  -18.4033   23.5805 C   0  0  0  0  0  0  0  0  0  0  0  0
   11.0659  -18.1986   24.9677 C   0  0  1  0  0  0  0  0  0  0  0  0
   12.1678  -17.3665   24.8602 O   0  0  0  0  0  0  0  0  0  0  0  0
   10.0559  -17.5678   25.9063 C   0  0  2  0  0  0  0  0  0  0  0  0
    9.6882  -16.2385   25.4925 N   0  0  0  0  0  0  0  0  0  0  0  0
   10.6584  -17.5517   27.2540 C   0  0  0  0  0  0  0  0  0  0  0  0
   10.9976  -16.4610   27.7587 O   0  0  0  0  0  0  0  0  0  0  0  0
   10.8565  -18.7120   27.9714 O   0  0  0  0  0  0  0  0  0  0  0  0
  2  1  1  6
  2  5  1  0
  3  2  1  0
  4  3  1  0
  5 12  1  0
  5  6  2  0
  7  8  1  0
  8  9  1  0
  9 11  1  0
  9 10  1  1
 11 13  1  0
 11 12  1  6
 13 14  2  0
 16 18  1  0
 16 15  1  6
 17 16  1  0
 18 20  1  0
 19 13  1  0
 18 19  1  6
 20 22  1  0
 21 20  2  0
M  END
$$$$
