WEF.pdb
     RDKit          3D

 35 37  0  0  1  0  0  0  0  0999 V2000
    7.9465  -17.6803   21.6938 N   0  0  0  0  0  0  0  0  0  0  0  0
    8.7876  -16.5945   22.1225 C   0  0  1  0  0  0  0  0  0  0  0  0
    7.9862  -15.4468   22.6394 C   0  0  0  0  0  0  0  0  0  0  0  0
    7.3667  -14.6774   21.5385 C   0  0  0  0  0  0  0  0  0  0  0  0
    6.0196  -14.7631   21.1568 C   0  0  0  0  0  0  0  0  0  0  0  0
    5.7714  -13.9260   20.1600 N   0  0  0  0  0  0  0  0  0  0  0  0
    6.9119  -13.2899   19.8701 C   0  0  0  0  0  0  0  0  0  0  0  0
    7.2197  -12.3261   18.9214 C   0  0  0  0  0  0  0  0  0  0  0  0
    8.4713  -11.8007   18.7796 C   0  0  0  0  0  0  0  0  0  0  0  0
    9.4505  -12.2602   19.6214 C   0  0  0  0  0  0  0  0  0  0  0  0
    9.1800  -13.2269   20.5867 C   0  0  0  0  0  0  0  0  0  0  0  0
    7.9200  -13.7355   20.7088 C   0  0  0  0  0  0  0  0  0  0  0  0
    9.7374  -17.1269   23.1452 C   0  0  0  0  0  0  0  0  0  0  0  0
    9.3312  -17.9599   23.9923 O   0  0  0  0  0  0  0  0  0  0  0  0
   11.0836  -16.7464   23.2207 N   0  0  0  0  0  0  0  0  0  0  0  0
   12.0112  -17.1827   24.2784 C   0  0  1  0  0  0  0  0  0  0  0  0
   13.3826  -16.8605   23.7329 C   0  0  0  0  0  0  0  0  0  0  0  0
   14.5110  -17.1759   24.6588 C   0  0  0  0  0  0  0  0  0  0  0  0
   15.7778  -16.8448   23.9126 C   0  0  0  0  0  0  0  0  0  0  0  0
   16.0126  -15.6985   23.4568 O   0  0  0  0  0  0  0  0  0  0  0  0
   11.7271  -16.4487   25.5369 C   0  0  0  0  0  0  0  0  0  0  0  0
   12.0035  -15.2341   25.6459 O   0  0  0  0  0  0  0  0  0  0  0  0
   16.7330  -17.8435   23.7153 O   0  0  0  0  0  0  0  0  0  0  0  0
   11.1411  -17.1047   26.6342 N   0  0  0  0  0  0  0  0  0  0  0  0
   10.9244  -16.4943   27.9393 C   0  0  1  0  0  0  0  0  0  0  0  0
    9.4698  -16.2759   28.2057 C   0  0  0  0  0  0  0  0  0  0  0  0
    8.8388  -15.2042   27.4155 C   0  0  0  0  0  0  0  0  0  0  0  0
    7.8346  -15.5210   26.5251 C   0  0  0  0  0  0  0  0  0  0  0  0
    7.1864  -14.5848   25.7617 C   0  0  0  0  0  0  0  0  0  0  0  0
    7.5301  -13.2549   25.8641 C   0  0  0  0  0  0  0  0  0  0  0  0
    8.5269  -12.9084   26.7424 C   0  0  0  0  0  0  0  0  0  0  0  0
    9.1808  -13.8765   27.5167 C   0  0  0  0  0  0  0  0  0  0  0  0
   11.5490  -17.2715   29.0163 C   0  0  0  0  0  0  0  0  0  0  0  0
   12.0063  -18.4180   28.7749 O   0  0  0  0  0  0  0  0  0  0  0  0
   11.6595  -16.7885   30.3049 O   0  0  0  0  0  0  0  0  0  0  0  0
  2  1  1  1
  2 13  1  0
  3  4  1  0
  3  2  1  0
  4  5  2  0
  5  6  1  0
  7  6  1  0
  8  7  2  0
  9  8  1  0
 10 11  1  0
 10  9  2  0
 11 12  2  0
 12  4  1  0
 12  7  1  0
 13 14  2  0
 15 16  1  0
 15 13  1  0
 16 17  1  6
 18 17  1  0
 19 18  1  0
 20 19  2  0
 21 22  2  0
 21 16  1  0
 23 19  1  0
 24 21  1  0
 25 24  1  0
 25 26  1  1
 27 26  1  0
 28 27  2  0
 29 28  1  0
 30 31  1  0
 30 29  2  0
 31 32  2  0
 32 27  1  0
 33 25  1  0
 33 35  1  0
 34 33  2  0
M  END
$$$$
