WEF.pdb
     RDKit          3D

 35 37  0  0  1  0  0  0  0  0999 V2000
    5.5475  -16.5463   21.3103 N   0  0  0  0  0  0  0  0  0  0  0  0
    6.4567  -17.6494   21.4726 C   0  0  1  0  0  0  0  0  0  0  0  0
    7.5998  -17.5675   20.5170 C   0  0  0  0  0  0  0  0  0  0  0  0
    8.2972  -16.2667   20.6148 C   0  0  0  0  0  0  0  0  0  0  0  0
    9.6545  -16.1041   20.9293 C   0  0  0  0  0  0  0  0  0  0  0  0
    9.9797  -14.8197   20.9068 N   0  0  0  0  0  0  0  0  0  0  0  0
    8.8801  -14.1278   20.5879 C   0  0  0  0  0  0  0  0  0  0  0  0
    8.6534  -12.7682   20.4333 C   0  0  0  0  0  0  0  0  0  0  0  0
    7.4321  -12.2542   20.1066 C   0  0  0  0  0  0  0  0  0  0  0  0
    6.3996  -13.1380   19.9287 C   0  0  0  0  0  0  0  0  0  0  0  0
    6.5883  -14.5100   20.0749 C   0  0  0  0  0  0  0  0  0  0  0  0
    7.8195  -14.9987   20.4010 C   0  0  0  0  0  0  0  0  0  0  0  0
    6.9098  -17.6641   22.8961 C   0  0  0  0  0  0  0  0  0  0  0  0
    6.7198  -16.6532   23.6161 O   0  0  0  0  0  0  0  0  0  0  0  0
    7.5483  -18.7597   23.4917 N   0  0  0  0  0  0  0  0  0  0  0  0
    7.9769  -18.8052   24.9002 C   0  0  1  0  0  0  0  0  0  0  0  0
    7.9831  -20.2761   25.2444 C   0  0  0  0  0  0  0  0  0  0  0  0
    8.4552  -20.5905   26.6258 C   0  0  0  0  0  0  0  0  0  0  0  0
    7.3384  -20.1941   27.5568 C   0  0  0  0  0  0  0  0  0  0  0  0
    6.1323  -20.2067   27.2077 O   0  0  0  0  0  0  0  0  0  0  0  0
    9.3229  -18.1957   25.0411 C   0  0  0  0  0  0  0  0  0  0  0  0
   10.2857  -18.6048   24.3562 O   0  0  0  0  0  0  0  0  0  0  0  0
    7.6460  -19.7962   28.8590 O   0  0  0  0  0  0  0  0  0  0  0  0
    9.5438  -17.1446   25.9489 N   0  0  0  0  0  0  0  0  0  0  0  0
   10.8432  -16.5382   26.2069 C   0  0  1  0  0  0  0  0  0  0  0  0
   10.8076  -15.0588   25.9960 C   0  0  0  0  0  0  0  0  0  0  0  0
    9.6642  -14.3623   26.6114 C   0  0  0  0  0  0  0  0  0  0  0  0
    8.4829  -14.2486   25.9091 C   0  0  0  0  0  0  0  0  0  0  0  0
    7.3682  -13.6290   26.4120 C   0  0  0  0  0  0  0  0  0  0  0  0
    7.3952  -13.0827   27.6762 C   0  0  0  0  0  0  0  0  0  0  0  0
    8.5579  -13.1801   28.4000 C   0  0  0  0  0  0  0  0  0  0  0  0
    9.6898  -13.8168   27.8731 C   0  0  0  0  0  0  0  0  0  0  0  0
   11.3448  -16.8702   27.5457 C   0  0  0  0  0  0  0  0  0  0  0  0
   10.5908  -17.4492   28.3693 O   0  0  0  0  0  0  0  0  0  0  0  0
   12.6317  -16.5705   27.9458 O   0  0  0  0  0  0  0  0  0  0  0  0
  2  1  1  1
  2 13  1  0
  3  4  1  0
  3  2  1  0
  4  5  2  0
  5  6  1  0
  7  6  1  0
  8  7  2  0
  9  8  1  0
 10 11  1  0
 10  9  2  0
 11 12  2  0
 12  4  1  0
 12  7  1  0
 13 14  2  0
 15 16  1  0
 15 13  1  0
 16 17  1  6
 18 17  1  0
 19 18  1  0
 20 19  2  0
 21 22  2  0
 21 16  1  0
 23 19  1  0
 24 21  1  0
 25 24  1  0
 25 26  1  1
 27 26  1  0
 28 27  2  0
 29 28  1  0
 30 31  1  0
 30 29  2  0
 31 32  2  0
 32 27  1  0
 33 25  1  0
 33 35  1  0
 34 33  2  0
M  END
$$$$
