WEF.pdb
     RDKit          3D

 35 37  0  0  1  0  0  0  0  0999 V2000
    7.8075  -17.7854   21.6224 N   0  0  0  0  0  0  0  0  0  0  0  0
    8.6074  -16.6814   22.0822 C   0  0  1  0  0  0  0  0  0  0  0  0
    7.7617  -15.5443   22.5495 C   0  0  0  0  0  0  0  0  0  0  0  0
    7.1453  -14.8235   21.4145 C   0  0  0  0  0  0  0  0  0  0  0  0
    5.8065  -14.9480   21.0150 C   0  0  0  0  0  0  0  0  0  0  0  0
    5.5584  -14.1490   19.9875 N   0  0  0  0  0  0  0  0  0  0  0  0
    6.6910  -13.5004   19.6944 C   0  0  0  0  0  0  0  0  0  0  0  0
    6.9956  -12.5621   18.7195 C   0  0  0  0  0  0  0  0  0  0  0  0
    8.2390  -12.0171   18.5798 C   0  0  0  0  0  0  0  0  0  0  0  0
    9.2132  -12.4295   19.4514 C   0  0  0  0  0  0  0  0  0  0  0  0
    8.9456  -13.3694   20.4435 C   0  0  0  0  0  0  0  0  0  0  0  0
    7.6939  -13.8985   20.5628 C   0  0  0  0  0  0  0  0  0  0  0  0
    9.5153  -17.1888   23.1546 C   0  0  0  0  0  0  0  0  0  0  0  0
    9.0383  -17.8600   24.1025 O   0  0  0  0  0  0  0  0  0  0  0  0
   10.8969  -16.9572   23.1699 N   0  0  0  0  0  0  0  0  0  0  0  0
   11.7705  -17.2254   24.3251 C   0  0  1  0  0  0  0  0  0  0  0  0
   13.1452  -16.8013   23.8640 C   0  0  0  0  0  0  0  0  0  0  0  0
   14.2277  -16.9932   24.8746 C   0  0  0  0  0  0  0  0  0  0  0  0
   15.5071  -16.5441   24.2169 C   0  0  0  0  0  0  0  0  0  0  0  0
   16.5443  -16.2755   24.8716 O   0  0  0  0  0  0  0  0  0  0  0  0
   11.3124  -16.4429   25.5003 C   0  0  0  0  0  0  0  0  0  0  0  0
   11.5901  -15.2285   25.6083 O   0  0  0  0  0  0  0  0  0  0  0  0
   15.5511  -16.4188   22.8272 O   0  0  0  0  0  0  0  0  0  0  0  0
   10.5562  -17.0515   26.5178 N   0  0  0  0  0  0  0  0  0  0  0  0
   10.4299  -16.5322   27.8732 C   0  0  1  0  0  0  0  0  0  0  0  0
    9.0596  -15.9909   28.1257 C   0  0  0  0  0  0  0  0  0  0  0  0
    8.7236  -14.7592   27.3899 C   0  0  0  0  0  0  0  0  0  0  0  0
    9.3816  -13.5866   27.6963 C   0  0  0  0  0  0  0  0  0  0  0  0
    9.1396  -12.4008   27.0523 C   0  0  0  0  0  0  0  0  0  0  0  0
    8.2006  -12.3425   26.0463 C   0  0  0  0  0  0  0  0  0  0  0  0
    7.5288  -13.4943   25.7187 C   0  0  0  0  0  0  0  0  0  0  0  0
    7.7867  -14.6997   26.3856 C   0  0  0  0  0  0  0  0  0  0  0  0
   10.7962  -17.5362   28.8792 C   0  0  0  0  0  0  0  0  0  0  0  0
   10.8371  -17.2162   30.0950 O   0  0  0  0  0  0  0  0  0  0  0  0
   11.1013  -18.8397   28.5423 O   0  0  0  0  0  0  0  0  0  0  0  0
  2  1  1  1
  2 13  1  0
  3  4  1  0
  3  2  1  0
  4  5  2  0
  5  6  1  0
  7  6  1  0
  8  7  2  0
  9  8  1  0
 10 11  1  0
 10  9  2  0
 11 12  2  0
 12  4  1  0
 12  7  1  0
 13 14  2  0
 15 16  1  0
 15 13  1  0
 16 17  1  6
 18 17  1  0
 19 18  1  0
 20 19  2  0
 21 22  2  0
 21 16  1  0
 23 19  1  0
 24 21  1  0
 25 24  1  0
 25 26  1  1
 27 26  1  0
 28 27  2  0
 29 28  1  0
 30 31  1  0
 30 29  2  0
 31 32  2  0
 32 27  1  0
 33 25  1  0
 33 35  1  0
 34 33  2  0
M  END
$$$$
