WEF.pdb
     RDKit          3D

 35 37  0  0  1  0  0  0  0  0999 V2000
    6.7611  -16.2715   23.2694 N   0  0  0  0  0  0  0  0  0  0  0  0
    7.9433  -16.3634   22.4546 C   0  0  1  0  0  0  0  0  0  0  0  0
    8.1910  -15.1016   21.6974 C   0  0  0  0  0  0  0  0  0  0  0  0
    7.7683  -13.9130   22.4696 C   0  0  0  0  0  0  0  0  0  0  0  0
    7.8545  -12.5881   22.0170 C   0  0  0  0  0  0  0  0  0  0  0  0
    7.3669  -11.7594   22.9287 N   0  0  0  0  0  0  0  0  0  0  0  0
    6.9614  -12.4944   23.9703 C   0  0  0  0  0  0  0  0  0  0  0  0
    6.3874  -12.1446   25.1835 C   0  0  0  0  0  0  0  0  0  0  0  0
    6.0480  -13.0635   26.1338 C   0  0  0  0  0  0  0  0  0  0  0  0
    6.2942  -14.3829   25.8559 C   0  0  0  0  0  0  0  0  0  0  0  0
    6.8688  -14.7731   24.6488 C   0  0  0  0  0  0  0  0  0  0  0  0
    7.1980  -13.8349   23.7148 C   0  0  0  0  0  0  0  0  0  0  0  0
    9.0874  -16.7215   23.3461 C   0  0  0  0  0  0  0  0  0  0  0  0
    9.1833  -16.1826   24.4761 O   0  0  0  0  0  0  0  0  0  0  0  0
   10.0829  -17.6416   22.9925 N   0  0  0  0  0  0  0  0  0  0  0  0
   10.5533  -18.7313   23.8648 C   0  0  1  0  0  0  0  0  0  0  0  0
   11.1214  -19.7572   22.9125 C   0  0  0  0  0  0  0  0  0  0  0  0
   11.6249  -21.0020   23.5659 C   0  0  0  0  0  0  0  0  0  0  0  0
   12.1625  -21.8741   22.4608 C   0  0  0  0  0  0  0  0  0  0  0  0
   13.3747  -22.1918   22.3809 O   0  0  0  0  0  0  0  0  0  0  0  0
   11.5794  -18.2197   24.8075 C   0  0  0  0  0  0  0  0  0  0  0  0
   12.5995  -17.6320   24.3861 O   0  0  0  0  0  0  0  0  0  0  0  0
   11.2877  -22.3523   21.4836 O   0  0  0  0  0  0  0  0  0  0  0  0
   11.4258  -18.3858   26.1955 N   0  0  0  0  0  0  0  0  0  0  0  0
   12.4727  -18.1319   27.1764 C   0  0  1  0  0  0  0  0  0  0  0  0
   12.7876  -16.6740   27.2748 C   0  0  0  0  0  0  0  0  0  0  0  0
   11.6660  -15.8141   27.6915 C   0  0  0  0  0  0  0  0  0  0  0  0
   10.8641  -15.2343   26.7311 C   0  0  0  0  0  0  0  0  0  0  0  0
    9.7934  -14.4329   27.0322 C   0  0  0  0  0  0  0  0  0  0  0  0
    9.4755  -14.1736   28.3472 C   0  0  0  0  0  0  0  0  0  0  0  0
   10.2560  -14.7369   29.3262 C   0  0  0  0  0  0  0  0  0  0  0  0
   11.3475  -15.5546   29.0035 C   0  0  0  0  0  0  0  0  0  0  0  0
   12.1365  -18.6908   28.4913 C   0  0  0  0  0  0  0  0  0  0  0  0
   10.9949  -19.1806   28.6883 O   0  0  0  0  0  0  0  0  0  0  0  0
   13.0359  -18.7035   29.5385 O   0  0  0  0  0  0  0  0  0  0  0  0
  2  1  1  1
  2 13  1  0
  3  4  1  0
  3  2  1  0
  4  5  2  0
  5  6  1  0
  7  6  1  0
  8  7  2  0
  9  8  1  0
 10 11  1  0
 10  9  2  0
 11 12  2  0
 12  4  1  0
 12  7  1  0
 13 14  2  0
 15 16  1  0
 15 13  1  0
 16 17  1  6
 18 17  1  0
 19 18  1  0
 20 19  2  0
 21 22  2  0
 21 16  1  0
 23 19  1  0
 24 21  1  0
 25 24  1  0
 25 26  1  1
 27 26  1  0
 28 27  2  0
 29 28  1  0
 30 31  1  0
 30 29  2  0
 31 32  2  0
 32 27  1  0
 33 25  1  0
 33 35  1  0
 34 33  2  0
M  END
$$$$
