WEF.pdb
     RDKit          3D

 35 37  0  0  1  0  0  0  0  0999 V2000
    6.6548  -17.6448   24.0059 N   0  0  0  0  0  0  0  0  0  0  0  0
    7.8828  -16.8952   23.9928 C   0  0  1  0  0  0  0  0  0  0  0  0
    8.1303  -16.2187   25.2996 C   0  0  0  0  0  0  0  0  0  0  0  0
    7.2197  -15.0701   25.4976 C   0  0  0  0  0  0  0  0  0  0  0  0
    5.9986  -15.1217   26.1860 C   0  0  0  0  0  0  0  0  0  0  0  0
    5.4372  -13.9218   26.2145 N   0  0  0  0  0  0  0  0  0  0  0  0
    6.2481  -13.0784   25.5662 C   0  0  0  0  0  0  0  0  0  0  0  0
    6.1482  -11.7220   25.2944 C   0  0  0  0  0  0  0  0  0  0  0  0
    7.0992  -11.0351   24.5968 C   0  0  0  0  0  0  0  0  0  0  0  0
    8.1910  -11.7361   24.1552 C   0  0  0  0  0  0  0  0  0  0  0  0
    8.3270  -13.0987   24.4087 C   0  0  0  0  0  0  0  0  0  0  0  0
    7.3626  -13.7622   25.1094 C   0  0  0  0  0  0  0  0  0  0  0  0
    8.9869  -17.8310   23.6227 C   0  0  0  0  0  0  0  0  0  0  0  0
    8.9567  -19.0169   24.0343 O   0  0  0  0  0  0  0  0  0  0  0  0
   10.0790  -17.4604   22.8274 N   0  0  0  0  0  0  0  0  0  0  0  0
   11.4177  -18.0677   22.9208 C   0  0  1  0  0  0  0  0  0  0  0  0
   12.1088  -17.6542   21.6427 C   0  0  0  0  0  0  0  0  0  0  0  0
   11.4859  -18.1909   20.3961 C   0  0  0  0  0  0  0  0  0  0  0  0
   12.0289  -17.3633   19.2598 C   0  0  0  0  0  0  0  0  0  0  0  0
   11.2911  -16.8697   18.3717 O   0  0  0  0  0  0  0  0  0  0  0  0
   12.1229  -17.5590   24.1237 C   0  0  0  0  0  0  0  0  0  0  0  0
   12.9592  -16.6339   24.0320 O   0  0  0  0  0  0  0  0  0  0  0  0
   13.4032  -17.1308   19.1825 O   0  0  0  0  0  0  0  0  0  0  0  0
   11.8655  -18.1076   25.3928 N   0  0  0  0  0  0  0  0  0  0  0  0
   12.5858  -17.7483   26.6072 C   0  0  1  0  0  0  0  0  0  0  0  0
   12.6256  -16.2667   26.8010 C   0  0  0  0  0  0  0  0  0  0  0  0
   11.3368  -15.6420   27.1470 C   0  0  0  0  0  0  0  0  0  0  0  0
   10.9540  -15.5673   28.4698 C   0  0  0  0  0  0  0  0  0  0  0  0
    9.7792  -14.9914   28.8790 C   0  0  0  0  0  0  0  0  0  0  0  0
    8.9165  -14.4520   27.9505 C   0  0  0  0  0  0  0  0  0  0  0  0
    9.2703  -14.5115   26.6252 C   0  0  0  0  0  0  0  0  0  0  0  0
   10.4749  -15.1032   26.2213 C   0  0  0  0  0  0  0  0  0  0  0  0
   12.0346  -18.4222   27.7888 C   0  0  0  0  0  0  0  0  0  0  0  0
   10.9471  -19.0480   27.7005 O   0  0  0  0  0  0  0  0  0  0  0  0
   12.6708  -18.3996   29.0138 O   0  0  0  0  0  0  0  0  0  0  0  0
  2  1  1  1
  2 13  1  0
  3  4  1  0
  3  2  1  0
  4  5  2  0
  5  6  1  0
  7  6  1  0
  8  7  2  0
  9  8  1  0
 10 11  1  0
 10  9  2  0
 11 12  2  0
 12  4  1  0
 12  7  1  0
 13 14  2  0
 15 16  1  0
 15 13  1  0
 16 17  1  6
 18 17  1  0
 19 18  1  0
 20 19  2  0
 21 22  2  0
 21 16  1  0
 23 19  1  0
 24 21  1  0
 25 24  1  0
 25 26  1  1
 27 26  1  0
 28 27  2  0
 29 28  1  0
 30 31  1  0
 30 29  2  0
 31 32  2  0
 32 27  1  0
 33 25  1  0
 33 35  1  0
 34 33  2  0
M  END
$$$$
