WEF.pdb
     RDKit          3D

 35 37  0  0  1  0  0  0  0  0999 V2000
    7.8167  -17.8490   21.5103 N   0  0  0  0  0  0  0  0  0  0  0  0
    8.6213  -16.8355   22.1390 C   0  0  1  0  0  0  0  0  0  0  0  0
    7.7879  -15.7097   22.6534 C   0  0  0  0  0  0  0  0  0  0  0  0
    7.2172  -14.9078   21.5492 C   0  0  0  0  0  0  0  0  0  0  0  0
    5.8992  -15.0093   21.0800 C   0  0  0  0  0  0  0  0  0  0  0  0
    5.6907  -14.1354   20.1059 N   0  0  0  0  0  0  0  0  0  0  0  0
    6.8293  -13.4596   19.9158 C   0  0  0  0  0  0  0  0  0  0  0  0
    7.1692  -12.4477   19.0303 C   0  0  0  0  0  0  0  0  0  0  0  0
    8.4126  -11.8863   18.9902 C   0  0  0  0  0  0  0  0  0  0  0  0
    9.3498  -12.3584   19.8719 C   0  0  0  0  0  0  0  0  0  0  0  0
    9.0461  -13.3730   20.7762 C   0  0  0  0  0  0  0  0  0  0  0  0
    7.7952  -13.9171   20.7968 C   0  0  0  0  0  0  0  0  0  0  0  0
    9.4184  -17.4887   23.2205 C   0  0  0  0  0  0  0  0  0  0  0  0
    8.8646  -18.3206   23.9806 O   0  0  0  0  0  0  0  0  0  0  0  0
   10.7759  -17.2255   23.4454 N   0  0  0  0  0  0  0  0  0  0  0  0
   11.5395  -17.7323   24.5985 C   0  0  1  0  0  0  0  0  0  0  0  0
   12.9691  -17.7783   24.1125 C   0  0  0  0  0  0  0  0  0  0  0  0
   13.9424  -18.3449   25.0931 C   0  0  0  0  0  0  0  0  0  0  0  0
   15.2200  -18.5876   24.3316 C   0  0  0  0  0  0  0  0  0  0  0  0
   16.2658  -19.0086   24.8847 O   0  0  0  0  0  0  0  0  0  0  0  0
   11.3755  -16.8189   25.7569 C   0  0  0  0  0  0  0  0  0  0  0  0
   12.0377  -15.7613   25.8369 O   0  0  0  0  0  0  0  0  0  0  0  0
   15.2525  -18.3380   22.9585 O   0  0  0  0  0  0  0  0  0  0  0  0
   10.4713  -17.1243   26.7898 N   0  0  0  0  0  0  0  0  0  0  0  0
   10.4901  -16.5084   28.1101 C   0  0  1  0  0  0  0  0  0  0  0  0
    9.2714  -15.6744   28.3416 C   0  0  0  0  0  0  0  0  0  0  0  0
    9.0258  -14.6255   27.3363 C   0  0  0  0  0  0  0  0  0  0  0  0
    9.7302  -13.4421   27.4065 C   0  0  0  0  0  0  0  0  0  0  0  0
    9.5727  -12.4212   26.5052 C   0  0  0  0  0  0  0  0  0  0  0  0
    8.6761  -12.5506   25.4676 C   0  0  0  0  0  0  0  0  0  0  0  0
    7.9597  -13.7180   25.3715 C   0  0  0  0  0  0  0  0  0  0  0  0
    8.1313  -14.7535   26.3002 C   0  0  0  0  0  0  0  0  0  0  0  0
   10.6604  -17.5041   29.1749 C   0  0  0  0  0  0  0  0  0  0  0  0
   10.7833  -17.1271   30.3686 O   0  0  0  0  0  0  0  0  0  0  0  0
   10.6902  -18.8601   28.9180 O   0  0  0  0  0  0  0  0  0  0  0  0
  2  1  1  1
  2 13  1  0
  3  4  1  0
  3  2  1  0
  4  5  2  0
  5  6  1  0
  7  6  1  0
  8  7  2  0
  9  8  1  0
 10 11  1  0
 10  9  2  0
 11 12  2  0
 12  4  1  0
 12  7  1  0
 13 14  2  0
 15 16  1  0
 15 13  1  0
 16 17  1  6
 18 17  1  0
 19 18  1  0
 20 19  2  0
 21 22  2  0
 21 16  1  0
 23 19  1  0
 24 21  1  0
 25 24  1  0
 25 26  1  1
 27 26  1  0
 28 27  2  0
 29 28  1  0
 30 31  1  0
 30 29  2  0
 31 32  2  0
 32 27  1  0
 33 25  1  0
 33 35  1  0
 34 33  2  0
M  END
$$$$
