WEF.pdb
     RDKit          3D

 35 37  0  0  1  0  0  0  0  0999 V2000
    9.9584  -15.8914   21.1592 N   0  0  0  0  0  0  0  0  0  0  0  0
    9.1068  -15.7371   22.3085 C   0  0  1  0  0  0  0  0  0  0  0  0
    7.6824  -16.0420   21.9847 C   0  0  0  0  0  0  0  0  0  0  0  0
    7.1679  -15.1598   20.9148 C   0  0  0  0  0  0  0  0  0  0  0  0
    5.9191  -15.2972   20.2908 C   0  0  0  0  0  0  0  0  0  0  0  0
    5.7440  -14.3336   19.3982 N   0  0  0  0  0  0  0  0  0  0  0  0
    6.8378  -13.5636   19.4118 C   0  0  0  0  0  0  0  0  0  0  0  0
    7.1858  -12.4357   18.6836 C   0  0  0  0  0  0  0  0  0  0  0  0
    8.3768  -11.7891   18.8450 C   0  0  0  0  0  0  0  0  0  0  0  0
    9.2513  -12.2937   19.7719 C   0  0  0  0  0  0  0  0  0  0  0  0
    8.9375  -13.4240   20.5225 C   0  0  0  0  0  0  0  0  0  0  0  0
    7.7396  -14.0517   20.3429 C   0  0  0  0  0  0  0  0  0  0  0  0
    9.6397  -16.6137   23.3945 C   0  0  0  0  0  0  0  0  0  0  0  0
    8.8882  -16.9502   24.3425 O   0  0  0  0  0  0  0  0  0  0  0  0
   10.9552  -17.0947   23.4228 N   0  0  0  0  0  0  0  0  0  0  0  0
   11.5592  -17.7921   24.5710 C   0  0  1  0  0  0  0  0  0  0  0  0
   12.8700  -18.3243   24.0411 C   0  0  0  0  0  0  0  0  0  0  0  0
   12.7475  -19.1855   22.8273 C   0  0  0  0  0  0  0  0  0  0  0  0
   14.1507  -19.4246   22.3328 C   0  0  0  0  0  0  0  0  0  0  0  0
   14.3979  -19.8068   21.1625 O   0  0  0  0  0  0  0  0  0  0  0  0
   11.7583  -16.8424   25.6942 C   0  0  0  0  0  0  0  0  0  0  0  0
   12.7914  -16.1415   25.7643 O   0  0  0  0  0  0  0  0  0  0  0  0
   15.2238  -19.2161   23.2010 O   0  0  0  0  0  0  0  0  0  0  0  0
   10.7885  -16.7113   26.7041 N   0  0  0  0  0  0  0  0  0  0  0  0
   11.0302  -16.0989   28.0039 C   0  0  1  0  0  0  0  0  0  0  0  0
   10.8273  -14.6187   27.9570 C   0  0  0  0  0  0  0  0  0  0  0  0
    9.5248  -14.1781   27.4271 C   0  0  0  0  0  0  0  0  0  0  0  0
    8.9673  -13.0050   27.8902 C   0  0  0  0  0  0  0  0  0  0  0  0
    7.7675  -12.5167   27.4415 C   0  0  0  0  0  0  0  0  0  0  0  0
    7.0586  -13.2061   26.4825 C   0  0  0  0  0  0  0  0  0  0  0  0
    7.5884  -14.3781   26.0021 C   0  0  0  0  0  0  0  0  0  0  0  0
    8.8164  -14.8652   26.4700 C   0  0  0  0  0  0  0  0  0  0  0  0
   10.2126  -16.7123   29.0572 C   0  0  0  0  0  0  0  0  0  0  0  0
   10.3987  -16.3910   30.2590 O   0  0  0  0  0  0  0  0  0  0  0  0
    9.2300  -17.6415   28.7803 O   0  0  0  0  0  0  0  0  0  0  0  0
  2  1  1  6
  2 13  1  0
  3  4  1  0
  3  2  1  0
  4  5  2  0
  5  6  1  0
  7  6  1  0
  8  7  2  0
  9  8  1  0
 10 11  1  0
 10  9  2  0
 11 12  2  0
 12  4  1  0
 12  7  1  0
 13 14  2  0
 15 16  1  0
 15 13  1  0
 16 17  1  6
 18 17  1  0
 19 18  1  0
 20 19  2  0
 21 22  2  0
 21 16  1  0
 23 19  1  0
 24 21  1  0
 25 24  1  0
 25 26  1  6
 27 26  1  0
 28 27  2  0
 29 28  1  0
 30 31  1  0
 30 29  2  0
 31 32  2  0
 32 27  1  0
 33 25  1  0
 33 35  1  0
 34 33  2  0
M  END
$$$$
