WEF.pdb
     RDKit          3D

 35 37  0  0  1  0  0  0  0  0999 V2000
    6.5725  -17.6258   24.4137 N   0  0  0  0  0  0  0  0  0  0  0  0
    7.6882  -16.7392   24.2156 C   0  0  1  0  0  0  0  0  0  0  0  0
    8.0477  -16.0159   25.4702 C   0  0  0  0  0  0  0  0  0  0  0  0
    7.0819  -14.9367   25.7707 C   0  0  0  0  0  0  0  0  0  0  0  0
    5.9671  -15.0669   26.6120 C   0  0  0  0  0  0  0  0  0  0  0  0
    5.3207  -13.9134   26.6986 N   0  0  0  0  0  0  0  0  0  0  0  0
    5.9726  -13.0246   25.9407 C   0  0  0  0  0  0  0  0  0  0  0  0
    5.7316  -11.6862   25.6680 C   0  0  0  0  0  0  0  0  0  0  0  0
    6.5279  -10.9438   24.8449 C   0  0  0  0  0  0  0  0  0  0  0  0
    7.6063  -11.5683   24.2741 C   0  0  0  0  0  0  0  0  0  0  0  0
    7.8810  -12.9104   24.5241 C   0  0  0  0  0  0  0  0  0  0  0  0
    7.0700  -13.6305   25.3517 C   0  0  0  0  0  0  0  0  0  0  0  0
    8.8264  -17.5470   23.6828 C   0  0  0  0  0  0  0  0  0  0  0  0
    8.9491  -18.7473   24.0303 O   0  0  0  0  0  0  0  0  0  0  0  0
    9.7876  -17.0380   22.7999 N   0  0  0  0  0  0  0  0  0  0  0  0
   11.2222  -17.3673   22.8552 C   0  0  1  0  0  0  0  0  0  0  0  0
   11.8580  -16.4531   21.8344 C   0  0  0  0  0  0  0  0  0  0  0  0
   13.3122  -16.6978   21.5993 C   0  0  0  0  0  0  0  0  0  0  0  0
   13.4659  -16.9577   20.1229 C   0  0  0  0  0  0  0  0  0  0  0  0
   14.4929  -16.6236   19.4821 O   0  0  0  0  0  0  0  0  0  0  0  0
   11.7465  -17.1239   24.2223 C   0  0  0  0  0  0  0  0  0  0  0  0
   12.3928  -16.0862   24.4847 O   0  0  0  0  0  0  0  0  0  0  0  0
   12.4329  -17.5936   19.4320 O   0  0  0  0  0  0  0  0  0  0  0  0
   11.5273  -18.0564   25.2520 N   0  0  0  0  0  0  0  0  0  0  0  0
   12.1863  -18.0194   26.5510 C   0  0  1  0  0  0  0  0  0  0  0  0
   11.2088  -17.7632   27.6525 C   0  0  0  0  0  0  0  0  0  0  0  0
   10.5744  -16.4334   27.6349 C   0  0  0  0  0  0  0  0  0  0  0  0
   11.1817  -15.3847   28.2931 C   0  0  0  0  0  0  0  0  0  0  0  0
   10.6666  -14.1145   28.3155 C   0  0  0  0  0  0  0  0  0  0  0  0
    9.4874  -13.8378   27.6595 C   0  0  0  0  0  0  0  0  0  0  0  0
    8.8592  -14.8620   26.9951 C   0  0  0  0  0  0  0  0  0  0  0  0
    9.3977  -16.1559   26.9806 C   0  0  0  0  0  0  0  0  0  0  0  0
   12.9623  -19.2390   26.8048 C   0  0  0  0  0  0  0  0  0  0  0  0
   12.9140  -20.1919   25.9851 O   0  0  0  0  0  0  0  0  0  0  0  0
   13.7581  -19.3868   27.9231 O   0  0  0  0  0  0  0  0  0  0  0  0
  2  1  1  1
  2 13  1  0
  3  4  1  0
  3  2  1  0
  4  5  2  0
  5  6  1  0
  7  6  1  0
  8  7  2  0
  9  8  1  0
 10 11  1  0
 10  9  2  0
 11 12  2  0
 12  4  1  0
 12  7  1  0
 13 14  2  0
 15 16  1  0
 15 13  1  0
 16 17  1  6
 18 17  1  0
 19 18  1  0
 20 19  2  0
 21 22  2  0
 21 16  1  0
 23 19  1  0
 24 21  1  0
 25 24  1  0
 25 26  1  1
 27 26  1  0
 28 27  2  0
 29 28  1  0
 30 31  1  0
 30 29  2  0
 31 32  2  0
 32 27  1  0
 33 25  1  0
 33 35  1  0
 34 33  2  0
M  END
$$$$
