WEF.pdb
     RDKit          3D

 35 37  0  0  1  0  0  0  0  0999 V2000
    8.2580  -18.3470   21.0604 N   0  0  0  0  0  0  0  0  0  0  0  0
    9.3362  -17.4225   21.2906 C   0  0  1  0  0  0  0  0  0  0  0  0
    8.9357  -16.3292   22.2239 C   0  0  0  0  0  0  0  0  0  0  0  0
    7.9577  -15.4125   21.5986 C   0  0  0  0  0  0  0  0  0  0  0  0
    6.5761  -15.4242   21.8410 C   0  0  0  0  0  0  0  0  0  0  0  0
    5.9817  -14.4605   21.1527 N   0  0  0  0  0  0  0  0  0  0  0  0
    6.9264  -13.8123   20.4623 C   0  0  0  0  0  0  0  0  0  0  0  0
    6.8614  -12.7389   19.5863 C   0  0  0  0  0  0  0  0  0  0  0  0
    7.9621  -12.2216   18.9670 C   0  0  0  0  0  0  0  0  0  0  0  0
    9.1733  -12.8037   19.2370 C   0  0  0  0  0  0  0  0  0  0  0  0
    9.2787  -13.8827   20.1110 C   0  0  0  0  0  0  0  0  0  0  0  0
    8.1632  -14.3807   20.7183 C   0  0  0  0  0  0  0  0  0  0  0  0
   10.5057  -18.2002   21.7998 C   0  0  0  0  0  0  0  0  0  0  0  0
   10.3100  -19.2322   22.4877 O   0  0  0  0  0  0  0  0  0  0  0  0
   11.8374  -17.8423   21.5527 N   0  0  0  0  0  0  0  0  0  0  0  0
   12.9785  -18.2679   22.3812 C   0  0  1  0  0  0  0  0  0  0  0  0
   14.1880  -17.7004   21.6762 C   0  0  0  0  0  0  0  0  0  0  0  0
   14.1874  -17.8825   20.1941 C   0  0  0  0  0  0  0  0  0  0  0  0
   15.4574  -17.2485   19.6878 C   0  0  0  0  0  0  0  0  0  0  0  0
   15.6763  -16.0149   19.7727 O   0  0  0  0  0  0  0  0  0  0  0  0
   12.8345  -17.7310   23.7575 C   0  0  0  0  0  0  0  0  0  0  0  0
   13.8310  -17.6019   24.5017 O   0  0  0  0  0  0  0  0  0  0  0  0
   16.4340  -18.0547   19.1004 O   0  0  0  0  0  0  0  0  0  0  0  0
   11.5732  -17.3562   24.2539 N   0  0  0  0  0  0  0  0  0  0  0  0
   11.3476  -16.7572   25.5627 C   0  0  1  0  0  0  0  0  0  0  0  0
   10.4614  -15.5571   25.4692 C   0  0  0  0  0  0  0  0  0  0  0  0
   10.1279  -14.9188   26.7546 C   0  0  0  0  0  0  0  0  0  0  0  0
   11.1445  -14.4801   27.5767 C   0  0  0  0  0  0  0  0  0  0  0  0
   10.9219  -13.8647   28.7813 C   0  0  0  0  0  0  0  0  0  0  0  0
    9.6332  -13.6593   29.2221 C   0  0  0  0  0  0  0  0  0  0  0  0
    8.5996  -14.0856   28.4252 C   0  0  0  0  0  0  0  0  0  0  0  0
    8.8421  -14.7131   27.1957 C   0  0  0  0  0  0  0  0  0  0  0  0
   10.8201  -17.7312   26.5256 C   0  0  0  0  0  0  0  0  0  0  0  0
    9.8427  -18.4566   26.2084 O   0  0  0  0  0  0  0  0  0  0  0  0
   11.3613  -17.8890   27.7858 O   0  0  0  0  0  0  0  0  0  0  0  0
  2  1  1  1
  2 13  1  0
  3  4  1  0
  3  2  1  0
  4  5  2  0
  5  6  1  0
  7  6  1  0
  8  7  2  0
  9  8  1  0
 10 11  1  0
 10  9  2  0
 11 12  2  0
 12  4  1  0
 12  7  1  0
 13 14  2  0
 15 16  1  0
 15 13  1  0
 16 17  1  6
 18 17  1  0
 19 18  1  0
 20 19  2  0
 21 22  2  0
 21 16  1  0
 23 19  1  0
 24 21  1  0
 25 24  1  0
 25 26  1  6
 27 26  1  0
 28 27  2  0
 29 28  1  0
 30 31  1  0
 30 29  2  0
 31 32  2  0
 32 27  1  0
 33 25  1  0
 33 35  1  0
 34 33  2  0
M  END
$$$$
