WEF.pdb
     RDKit          3D

 35 37  0  0  1  0  0  0  0  0999 V2000
    6.7564  -17.4778   23.8397 N   0  0  0  0  0  0  0  0  0  0  0  0
    7.8973  -16.6022   23.8001 C   0  0  1  0  0  0  0  0  0  0  0  0
    8.1863  -16.0116   25.1396 C   0  0  0  0  0  0  0  0  0  0  0  0
    7.1412  -15.0463   25.5445 C   0  0  0  0  0  0  0  0  0  0  0  0
    5.9602  -15.3785   26.2245 C   0  0  0  0  0  0  0  0  0  0  0  0
    5.2490  -14.2873   26.4682 N   0  0  0  0  0  0  0  0  0  0  0  0
    5.9221  -13.2441   25.9703 C   0  0  0  0  0  0  0  0  0  0  0  0
    5.6383  -11.8868   25.9416 C   0  0  0  0  0  0  0  0  0  0  0  0
    6.4688  -10.9691   25.3663 C   0  0  0  0  0  0  0  0  0  0  0  0
    7.6275  -11.4314   24.7985 C   0  0  0  0  0  0  0  0  0  0  0  0
    7.9473  -12.7867   24.8078 C   0  0  0  0  0  0  0  0  0  0  0  0
    7.1005  -13.6838   25.3903 C   0  0  0  0  0  0  0  0  0  0  0  0
    9.0542  -17.3808   23.2642 C   0  0  0  0  0  0  0  0  0  0  0  0
    9.1458  -18.6068   23.5192 O   0  0  0  0  0  0  0  0  0  0  0  0
   10.0665  -16.8163   22.4773 N   0  0  0  0  0  0  0  0  0  0  0  0
   11.4689  -17.2668   22.4809 C   0  0  1  0  0  0  0  0  0  0  0  0
   12.1097  -16.5120   21.3399 C   0  0  0  0  0  0  0  0  0  0  0  0
   13.5700  -16.7703   21.1647 C   0  0  0  0  0  0  0  0  0  0  0  0
   13.8537  -16.6221   19.6921 C   0  0  0  0  0  0  0  0  0  0  0  0
   13.9599  -17.6087   18.9226 O   0  0  0  0  0  0  0  0  0  0  0  0
   12.1016  -16.9457   23.7846 C   0  0  0  0  0  0  0  0  0  0  0  0
   12.8741  -15.9690   23.8979 O   0  0  0  0  0  0  0  0  0  0  0  0
   14.0062  -15.3434   19.1530 O   0  0  0  0  0  0  0  0  0  0  0  0
   11.8457  -17.7341   24.9207 N   0  0  0  0  0  0  0  0  0  0  0  0
   12.6255  -17.6850   26.1504 C   0  0  1  0  0  0  0  0  0  0  0  0
   12.8497  -16.2769   26.5995 C   0  0  0  0  0  0  0  0  0  0  0  0
   11.6626  -15.5920   27.1405 C   0  0  0  0  0  0  0  0  0  0  0  0
   11.7999  -14.7584   28.2305 C   0  0  0  0  0  0  0  0  0  0  0  0
   10.7511  -14.0734   28.7874 C   0  0  0  0  0  0  0  0  0  0  0  0
    9.4860  -14.2014   28.2578 C   0  0  0  0  0  0  0  0  0  0  0  0
    9.3178  -15.0248   27.1720 C   0  0  0  0  0  0  0  0  0  0  0  0
   10.3994  -15.7187   26.6129 C   0  0  0  0  0  0  0  0  0  0  0  0
   12.0166  -18.4900   27.2159 C   0  0  0  0  0  0  0  0  0  0  0  0
   12.6229  -18.6427   28.3073 O   0  0  0  0  0  0  0  0  0  0  0  0
   10.7848  -19.0957   27.0695 O   0  0  0  0  0  0  0  0  0  0  0  0
  2  1  1  1
  2 13  1  0
  3  4  1  0
  3  2  1  0
  4  5  2  0
  5  6  1  0
  7  6  1  0
  8  7  2  0
  9  8  1  0
 10 11  1  0
 10  9  2  0
 11 12  2  0
 12  4  1  0
 12  7  1  0
 13 14  2  0
 15 16  1  0
 15 13  1  0
 16 17  1  6
 18 17  1  0
 19 18  1  0
 20 19  2  0
 21 22  2  0
 21 16  1  0
 23 19  1  0
 24 21  1  0
 25 24  1  0
 25 26  1  1
 27 26  1  0
 28 27  2  0
 29 28  1  0
 30 31  1  0
 30 29  2  0
 31 32  2  0
 32 27  1  0
 33 25  1  0
 33 35  1  0
 34 33  2  0
M  END
$$$$
