WEF.pdb
     RDKit          3D

 35 37  0  0  1  0  0  0  0  0999 V2000
    5.9309  -17.4898   22.4097 N   0  0  0  0  0  0  0  0  0  0  0  0
    7.0656  -16.6054   22.3884 C   0  0  1  0  0  0  0  0  0  0  0  0
    6.6843  -15.2099   22.7543 C   0  0  0  0  0  0  0  0  0  0  0  0
    7.1107  -14.2416   21.7206 C   0  0  0  0  0  0  0  0  0  0  0  0
    6.8602  -12.8620   21.7594 C   0  0  0  0  0  0  0  0  0  0  0  0
    7.3980  -12.2685   20.7037 N   0  0  0  0  0  0  0  0  0  0  0  0
    7.9957  -13.2121   19.9677 C   0  0  0  0  0  0  0  0  0  0  0  0
    8.6968  -13.1492   18.7726 C   0  0  0  0  0  0  0  0  0  0  0  0
    9.2316  -14.2506   18.1697 C   0  0  0  0  0  0  0  0  0  0  0  0
    9.0559  -15.4604   18.7895 C   0  0  0  0  0  0  0  0  0  0  0  0
    8.3582  -15.5637   19.9903 C   0  0  0  0  0  0  0  0  0  0  0  0
    7.8340  -14.4473   20.5733 C   0  0  0  0  0  0  0  0  0  0  0  0
    8.1018  -17.1673   23.3061 C   0  0  0  0  0  0  0  0  0  0  0  0
    7.7586  -17.6080   24.4306 O   0  0  0  0  0  0  0  0  0  0  0  0
    9.4635  -17.2349   22.9839 N   0  0  0  0  0  0  0  0  0  0  0  0
   10.5196  -17.6451   23.9251 C   0  0  1  0  0  0  0  0  0  0  0  0
   11.7933  -17.5743   23.1159 C   0  0  0  0  0  0  0  0  0  0  0  0
   11.7726  -16.5732   22.0081 C   0  0  0  0  0  0  0  0  0  0  0  0
   13.1421  -16.6063   21.3802 C   0  0  0  0  0  0  0  0  0  0  0  0
   13.4708  -17.4626   20.5225 O   0  0  0  0  0  0  0  0  0  0  0  0
   10.5483  -16.7239   25.0886 C   0  0  0  0  0  0  0  0  0  0  0  0
   10.9411  -15.5437   24.9610 O   0  0  0  0  0  0  0  0  0  0  0  0
   14.0887  -15.6529   21.7595 O   0  0  0  0  0  0  0  0  0  0  0  0
   10.1344  -17.1598   26.3600 N   0  0  0  0  0  0  0  0  0  0  0  0
   10.2654  -16.3774   27.5821 C   0  0  1  0  0  0  0  0  0  0  0  0
    8.9435  -15.8473   28.0360 C   0  0  0  0  0  0  0  0  0  0  0  0
    8.4662  -14.6501   27.3217 C   0  0  0  0  0  0  0  0  0  0  0  0
    7.3036  -14.7208   26.5835 C   0  0  0  0  0  0  0  0  0  0  0  0
    6.7830  -13.6522   25.9005 C   0  0  0  0  0  0  0  0  0  0  0  0
    7.4270  -12.4349   25.9316 C   0  0  0  0  0  0  0  0  0  0  0  0
    8.5874  -12.3337   26.6584 C   0  0  0  0  0  0  0  0  0  0  0  0
    9.1079  -13.4347   27.3520 C   0  0  0  0  0  0  0  0  0  0  0  0
   10.9255  -17.1382   28.6496 C   0  0  0  0  0  0  0  0  0  0  0  0
   11.1280  -18.3711   28.5045 O   0  0  0  0  0  0  0  0  0  0  0  0
   11.3424  -16.5477   29.8258 O   0  0  0  0  0  0  0  0  0  0  0  0
  2  1  1  1
  2 13  1  0
  3  4  1  0
  3  2  1  0
  4  5  2  0
  5  6  1  0
  7  6  1  0
  8  7  2  0
  9  8  1  0
 10 11  1  0
 10  9  2  0
 11 12  2  0
 12  4  1  0
 12  7  1  0
 13 14  2  0
 15 16  1  0
 15 13  1  0
 16 17  1  6
 18 17  1  0
 19 18  1  0
 20 19  2  0
 21 22  2  0
 21 16  1  0
 23 19  1  0
 24 21  1  0
 25 24  1  0
 25 26  1  1
 27 26  1  0
 28 27  2  0
 29 28  1  0
 30 31  1  0
 30 29  2  0
 31 32  2  0
 32 27  1  0
 33 25  1  0
 33 35  1  0
 34 33  2  0
M  END
$$$$
