WEF.pdb
     RDKit          3D

 35 37  0  0  1  0  0  0  0  0999 V2000
    7.3988  -18.1438   21.0793 N   0  0  0  0  0  0  0  0  0  0  0  0
    8.6270  -17.4227   21.2833 C   0  0  1  0  0  0  0  0  0  0  0  0
    8.4210  -16.2101   22.1281 C   0  0  0  0  0  0  0  0  0  0  0  0
    7.6785  -15.1594   21.3984 C   0  0  0  0  0  0  0  0  0  0  0  0
    6.2909  -14.9643   21.4621 C   0  0  0  0  0  0  0  0  0  0  0  0
    5.9395  -13.9245   20.7196 N   0  0  0  0  0  0  0  0  0  0  0  0
    7.0509  -13.4262   20.1665 C   0  0  0  0  0  0  0  0  0  0  0  0
    7.2592  -12.3574   19.3074 C   0  0  0  0  0  0  0  0  0  0  0  0
    8.4949  -12.0116   18.8425 C   0  0  0  0  0  0  0  0  0  0  0  0
    9.5614  -12.7671   19.2554 C   0  0  0  0  0  0  0  0  0  0  0  0
    9.3922  -13.8476   20.1176 C   0  0  0  0  0  0  0  0  0  0  0  0
    8.1464  -14.1720   20.5689 C   0  0  0  0  0  0  0  0  0  0  0  0
    9.6186  -18.3665   21.8813 C   0  0  0  0  0  0  0  0  0  0  0  0
    9.2295  -19.2358   22.6996 O   0  0  0  0  0  0  0  0  0  0  0  0
   10.9866  -18.3422   21.5801 N   0  0  0  0  0  0  0  0  0  0  0  0
   12.0577  -18.5573   22.5680 C   0  0  1  0  0  0  0  0  0  0  0  0
   13.3357  -18.3924   21.7795 C   0  0  0  0  0  0  0  0  0  0  0  0
   14.5855  -18.4977   22.5899 C   0  0  0  0  0  0  0  0  0  0  0  0
   15.7312  -18.2971   21.6317 C   0  0  0  0  0  0  0  0  0  0  0  0
   16.3263  -19.2560   21.0811 O   0  0  0  0  0  0  0  0  0  0  0  0
   11.9470  -17.5601   23.6618 C   0  0  0  0  0  0  0  0  0  0  0  0
   12.2081  -16.3544   23.4577 O   0  0  0  0  0  0  0  0  0  0  0  0
   16.1546  -16.9996   21.3382 O   0  0  0  0  0  0  0  0  0  0  0  0
   11.5461  -17.9508   24.9519 N   0  0  0  0  0  0  0  0  0  0  0  0
   11.4997  -17.0614   26.1050 C   0  0  1  0  0  0  0  0  0  0  0  0
   10.1099  -16.5772   26.3662 C   0  0  0  0  0  0  0  0  0  0  0  0
    9.9909  -15.5302   27.3961 C   0  0  0  0  0  0  0  0  0  0  0  0
    9.7478  -14.2280   27.0128 C   0  0  0  0  0  0  0  0  0  0  0  0
    9.6101  -13.1968   27.9056 C   0  0  0  0  0  0  0  0  0  0  0  0
    9.7141  -13.4381   29.2578 C   0  0  0  0  0  0  0  0  0  0  0  0
    9.9561  -14.7251   29.6701 C   0  0  0  0  0  0  0  0  0  0  0  0
   10.0943  -15.7696   28.7459 C   0  0  0  0  0  0  0  0  0  0  0  0
   12.0759  -17.6872   27.3011 C   0  0  0  0  0  0  0  0  0  0  0  0
   12.3279  -16.9848   28.3136 O   0  0  0  0  0  0  0  0  0  0  0  0
   12.3564  -19.0374   27.3639 O   0  0  0  0  0  0  0  0  0  0  0  0
  2  1  1  1
  2 13  1  0
  3  4  1  0
  3  2  1  0
  4  5  2  0
  5  6  1  0
  7  6  1  0
  8  7  2  0
  9  8  1  0
 10 11  1  0
 10  9  2  0
 11 12  2  0
 12  4  1  0
 12  7  1  0
 13 14  2  0
 15 16  1  0
 15 13  1  0
 16 17  1  6
 18 17  1  0
 19 18  1  0
 20 19  2  0
 21 22  2  0
 21 16  1  0
 23 19  1  0
 24 21  1  0
 25 24  1  0
 25 26  1  1
 27 26  1  0
 28 27  2  0
 29 28  1  0
 30 31  1  0
 30 29  2  0
 31 32  2  0
 32 27  1  0
 33 25  1  0
 33 35  1  0
 34 33  2  0
M  END
$$$$
