WEF.pdb
     RDKit          3D

 35 37  0  0  1  0  0  0  0  0999 V2000
    7.5346  -18.5716   22.2925 N   0  0  0  0  0  0  0  0  0  0  0  0
    8.1096  -17.2777   22.5474 C   0  0  1  0  0  0  0  0  0  0  0  0
    7.0667  -16.2701   22.8992 C   0  0  0  0  0  0  0  0  0  0  0  0
    6.7172  -15.4223   21.7386 C   0  0  0  0  0  0  0  0  0  0  0  0
    5.5213  -15.5093   21.0107 C   0  0  0  0  0  0  0  0  0  0  0  0
    5.4997  -14.5936   20.0532 N   0  0  0  0  0  0  0  0  0  0  0  0
    6.6438  -13.9041   20.1245 C   0  0  0  0  0  0  0  0  0  0  0  0
    7.1397  -12.8517   19.3695 C   0  0  0  0  0  0  0  0  0  0  0  0
    8.3580  -12.2826   19.6036 C   0  0  0  0  0  0  0  0  0  0  0  0
    9.1064  -12.7892   20.6341 C   0  0  0  0  0  0  0  0  0  0  0  0
    8.6422  -13.8450   21.4147 C   0  0  0  0  0  0  0  0  0  0  0  0
    7.4202  -14.3958   21.1607 C   0  0  0  0  0  0  0  0  0  0  0  0
    9.1308  -17.4346   23.6265 C   0  0  0  0  0  0  0  0  0  0  0  0
    8.8389  -18.0759   24.6657 O   0  0  0  0  0  0  0  0  0  0  0  0
   10.4230  -16.8988   23.5504 N   0  0  0  0  0  0  0  0  0  0  0  0
   11.4546  -17.0699   24.5876 C   0  0  1  0  0  0  0  0  0  0  0  0
   12.7572  -16.8014   23.8711 C   0  0  0  0  0  0  0  0  0  0  0  0
   12.9146  -17.5238   22.5737 C   0  0  0  0  0  0  0  0  0  0  0  0
   14.2590  -17.1217   22.0242 C   0  0  0  0  0  0  0  0  0  0  0  0
   15.0343  -17.9402   21.4711 O   0  0  0  0  0  0  0  0  0  0  0  0
   11.2227  -16.1114   25.6970 C   0  0  0  0  0  0  0  0  0  0  0  0
   11.7331  -14.9701   25.6740 O   0  0  0  0  0  0  0  0  0  0  0  0
   14.6675  -15.7910   22.1291 O   0  0  0  0  0  0  0  0  0  0  0  0
   10.4237  -16.4672   26.7982 N   0  0  0  0  0  0  0  0  0  0  0  0
   10.7352  -16.1376   28.1828 C   0  0  1  0  0  0  0  0  0  0  0  0
    9.9503  -14.9555   28.6531 C   0  0  0  0  0  0  0  0  0  0  0  0
    8.8850  -14.5036   27.7410 C   0  0  0  0  0  0  0  0  0  0  0  0
    8.8970  -13.2052   27.2765 C   0  0  0  0  0  0  0  0  0  0  0  0
    7.9529  -12.7080   26.4159 C   0  0  0  0  0  0  0  0  0  0  0  0
    6.9292  -13.5171   25.9744 C   0  0  0  0  0  0  0  0  0  0  0  0
    6.8905  -14.8152   26.4199 C   0  0  0  0  0  0  0  0  0  0  0  0
    7.8629  -15.3100   27.2995 C   0  0  0  0  0  0  0  0  0  0  0  0
   10.5452  -17.2880   29.0743 C   0  0  0  0  0  0  0  0  0  0  0  0
   10.9255  -17.2201   30.2713 O   0  0  0  0  0  0  0  0  0  0  0  0
    9.9550  -18.4609   28.6481 O   0  0  0  0  0  0  0  0  0  0  0  0
  2  1  1  1
  2 13  1  0
  3  4  1  0
  3  2  1  0
  4  5  2  0
  5  6  1  0
  7  6  1  0
  8  7  2  0
  9  8  1  0
 10 11  1  0
 10  9  2  0
 11 12  2  0
 12  4  1  0
 12  7  1  0
 13 14  2  0
 15 16  1  0
 15 13  1  0
 16 17  1  6
 18 17  1  0
 19 18  1  0
 20 19  2  0
 21 22  2  0
 21 16  1  0
 23 19  1  0
 24 21  1  0
 25 24  1  0
 25 26  1  1
 27 26  1  0
 28 27  2  0
 29 28  1  0
 30 31  1  0
 30 29  2  0
 31 32  2  0
 32 27  1  0
 33 25  1  0
 33 35  1  0
 34 33  2  0
M  END
$$$$
