WEF.pdb
     RDKit          3D

 35 37  0  0  1  0  0  0  0  0999 V2000
    6.5169  -14.6057   22.6948 N   0  0  0  0  0  0  0  0  0  0  0  0
    7.3578  -15.7715   22.6335 C   0  0  1  0  0  0  0  0  0  0  0  0
    8.7922  -15.4077   22.4413 C   0  0  0  0  0  0  0  0  0  0  0  0
    8.9848  -14.5785   21.2317 C   0  0  0  0  0  0  0  0  0  0  0  0
   10.2247  -14.1281   20.7549 C   0  0  0  0  0  0  0  0  0  0  0  0
   10.0621  -13.4360   19.6367 N   0  0  0  0  0  0  0  0  0  0  0  0
    8.7537  -13.4139   19.3593 C   0  0  0  0  0  0  0  0  0  0  0  0
    8.0359  -12.8328   18.3246 C   0  0  0  0  0  0  0  0  0  0  0  0
    6.6775  -12.9212   18.2254 C   0  0  0  0  0  0  0  0  0  0  0  0
    6.0151  -13.6190   19.2016 C   0  0  0  0  0  0  0  0  0  0  0  0
    6.7011  -14.2166   20.2560 C   0  0  0  0  0  0  0  0  0  0  0  0
    8.0594  -14.1144   20.3316 C   0  0  0  0  0  0  0  0  0  0  0  0
    7.1375  -16.5615   23.8821 C   0  0  0  0  0  0  0  0  0  0  0  0
    6.5559  -16.0267   24.8579 O   0  0  0  0  0  0  0  0  0  0  0  0
    7.5486  -17.8919   24.0365 N   0  0  0  0  0  0  0  0  0  0  0  0
    7.5854  -18.6048   25.3249 C   0  0  1  0  0  0  0  0  0  0  0  0
    6.9289  -19.9348   25.0382 C   0  0  0  0  0  0  0  0  0  0  0  0
    6.8745  -20.8666   26.2038 C   0  0  0  0  0  0  0  0  0  0  0  0
    6.2649  -22.1476   25.6954 C   0  0  0  0  0  0  0  0  0  0  0  0
    5.9161  -23.0795   26.4614 O   0  0  0  0  0  0  0  0  0  0  0  0
    8.9903  -18.7643   25.7766 C   0  0  0  0  0  0  0  0  0  0  0  0
    9.8583  -19.2397   25.0124 O   0  0  0  0  0  0  0  0  0  0  0  0
    6.0766  -22.3144   24.3223 O   0  0  0  0  0  0  0  0  0  0  0  0
    9.3748  -18.3841   27.0748 N   0  0  0  0  0  0  0  0  0  0  0  0
   10.6892  -17.8622   27.4252 C   0  0  1  0  0  0  0  0  0  0  0  0
   10.9579  -16.5577   26.7466 C   0  0  0  0  0  0  0  0  0  0  0  0
   10.1701  -15.4157   27.2428 C   0  0  0  0  0  0  0  0  0  0  0  0
    9.3969  -14.6918   26.3598 C   0  0  0  0  0  0  0  0  0  0  0  0
    8.6245  -13.6248   26.7398 C   0  0  0  0  0  0  0  0  0  0  0  0
    8.5965  -13.2301   28.0592 C   0  0  0  0  0  0  0  0  0  0  0  0
    9.3565  -13.9316   28.9622 C   0  0  0  0  0  0  0  0  0  0  0  0
   10.1412  -15.0207   28.5593 C   0  0  0  0  0  0  0  0  0  0  0  0
   10.8623  -17.7487   28.8782 C   0  0  0  0  0  0  0  0  0  0  0  0
   11.9895  -17.4533   29.3517 O   0  0  0  0  0  0  0  0  0  0  0  0
    9.8223  -17.9541   29.7626 O   0  0  0  0  0  0  0  0  0  0  0  0
  2  1  1  1
  2 13  1  0
  3  4  1  0
  3  2  1  0
  4  5  2  0
  5  6  1  0
  7  6  1  0
  8  7  2  0
  9  8  1  0
 10 11  1  0
 10  9  2  0
 11 12  2  0
 12  4  1  0
 12  7  1  0
 13 14  2  0
 15 16  1  0
 15 13  1  0
 16 17  1  6
 18 17  1  0
 19 18  1  0
 20 19  2  0
 21 22  2  0
 21 16  1  0
 23 19  1  0
 24 21  1  0
 25 24  1  0
 25 26  1  6
 27 26  1  0
 28 27  2  0
 29 28  1  0
 30 31  1  0
 30 29  2  0
 31 32  2  0
 32 27  1  0
 33 25  1  0
 33 35  1  0
 34 33  2  0
M  END
$$$$
