WEF.pdb
     RDKit          3D

 35 37  0  0  1  0  0  0  0  0999 V2000
    7.6195  -17.9732   22.0084 N   0  0  0  0  0  0  0  0  0  0  0  0
    8.3802  -16.8294   22.4364 C   0  0  1  0  0  0  0  0  0  0  0  0
    7.5021  -15.7613   22.9974 C   0  0  0  0  0  0  0  0  0  0  0  0
    6.8998  -14.9360   21.9280 C   0  0  0  0  0  0  0  0  0  0  0  0
    5.5617  -15.0090   21.5135 C   0  0  0  0  0  0  0  0  0  0  0  0
    5.3279  -14.1195   20.5596 N   0  0  0  0  0  0  0  0  0  0  0  0
    6.4693  -13.4609   20.3296 C   0  0  0  0  0  0  0  0  0  0  0  0
    6.7895  -12.4439   19.4426 C   0  0  0  0  0  0  0  0  0  0  0  0
    8.0398  -11.9034   19.3568 C   0  0  0  0  0  0  0  0  0  0  0  0
    9.0047  -12.4026   20.1924 C   0  0  0  0  0  0  0  0  0  0  0  0
    8.7214  -13.4232   21.0966 C   0  0  0  0  0  0  0  0  0  0  0  0
    7.4631  -13.9459   21.1636 C   0  0  0  0  0  0  0  0  0  0  0  0
    9.3989  -17.2998   23.4227 C   0  0  0  0  0  0  0  0  0  0  0  0
    9.0426  -18.0322   24.3783 O   0  0  0  0  0  0  0  0  0  0  0  0
   10.7577  -16.9672   23.3472 N   0  0  0  0  0  0  0  0  0  0  0  0
   11.7423  -17.2545   24.4043 C   0  0  1  0  0  0  0  0  0  0  0  0
   13.0717  -16.8796   23.7925 C   0  0  0  0  0  0  0  0  0  0  0  0
   14.2532  -17.1229   24.6728 C   0  0  0  0  0  0  0  0  0  0  0  0
   15.4563  -16.6202   23.9174 C   0  0  0  0  0  0  0  0  0  0  0  0
   15.8337  -17.1294   22.8334 O   0  0  0  0  0  0  0  0  0  0  0  0
   11.4393  -16.4478   25.6128 C   0  0  0  0  0  0  0  0  0  0  0  0
   11.8192  -15.2598   25.7012 O   0  0  0  0  0  0  0  0  0  0  0  0
   16.1860  -15.5481   24.4340 O   0  0  0  0  0  0  0  0  0  0  0  0
   10.7185  -17.0034   26.6849 N   0  0  0  0  0  0  0  0  0  0  0  0
   10.6869  -16.4487   28.0318 C   0  0  1  0  0  0  0  0  0  0  0  0
    9.3334  -15.9120   28.3703 C   0  0  0  0  0  0  0  0  0  0  0  0
    8.8679  -14.7988   27.5246 C   0  0  0  0  0  0  0  0  0  0  0  0
    9.3710  -13.5322   27.7351 C   0  0  0  0  0  0  0  0  0  0  0  0
    9.0022  -12.4449   26.9861 C   0  0  0  0  0  0  0  0  0  0  0  0
    8.0872  -12.5891   25.9667 C   0  0  0  0  0  0  0  0  0  0  0  0
    7.5682  -13.8386   25.7331 C   0  0  0  0  0  0  0  0  0  0  0  0
    7.9548  -14.9414   26.5068 C   0  0  0  0  0  0  0  0  0  0  0  0
   11.1362  -17.4221   29.0342 C   0  0  0  0  0  0  0  0  0  0  0  0
   11.2604  -17.0698   30.2352 O   0  0  0  0  0  0  0  0  0  0  0  0
   11.4319  -18.7310   28.7096 O   0  0  0  0  0  0  0  0  0  0  0  0
  2  1  1  1
  2 13  1  0
  3  4  1  0
  3  2  1  0
  4  5  2  0
  5  6  1  0
  7  6  1  0
  8  7  2  0
  9  8  1  0
 10 11  1  0
 10  9  2  0
 11 12  2  0
 12  4  1  0
 12  7  1  0
 13 14  2  0
 15 16  1  0
 15 13  1  0
 16 17  1  6
 18 17  1  0
 19 18  1  0
 20 19  2  0
 21 22  2  0
 21 16  1  0
 23 19  1  0
 24 21  1  0
 25 24  1  0
 25 26  1  1
 27 26  1  0
 28 27  2  0
 29 28  1  0
 30 31  1  0
 30 29  2  0
 31 32  2  0
 32 27  1  0
 33 25  1  0
 33 35  1  0
 34 33  2  0
M  END
$$$$
