WEF.pdb
     RDKit          3D

 35 37  0  0  1  0  0  0  0  0999 V2000
    7.0412  -17.1720   23.3949 N   0  0  0  0  0  0  0  0  0  0  0  0
    8.1680  -16.4185   23.8771 C   0  0  1  0  0  0  0  0  0  0  0  0
    8.0459  -16.1139   25.3328 C   0  0  0  0  0  0  0  0  0  0  0  0
    7.0899  -15.0124   25.5789 C   0  0  0  0  0  0  0  0  0  0  0  0
    5.8450  -15.1544   26.2094 C   0  0  0  0  0  0  0  0  0  0  0  0
    5.2427  -13.9780   26.3052 N   0  0  0  0  0  0  0  0  0  0  0  0
    6.0498  -13.0626   25.7573 C   0  0  0  0  0  0  0  0  0  0  0  0
    5.9150  -11.6930   25.5853 C   0  0  0  0  0  0  0  0  0  0  0  0
    6.8690  -10.9255   24.9823 C   0  0  0  0  0  0  0  0  0  0  0  0
    8.0005  -11.5567   24.5351 C   0  0  0  0  0  0  0  0  0  0  0  0
    8.1723  -12.9299   24.6900 C   0  0  0  0  0  0  0  0  0  0  0  0
    7.2039  -13.6747   25.2973 C   0  0  0  0  0  0  0  0  0  0  0  0
    9.4058  -17.1940   23.5638 C   0  0  0  0  0  0  0  0  0  0  0  0
    9.3757  -18.4487   23.6011 O   0  0  0  0  0  0  0  0  0  0  0  0
   10.6261  -16.5959   23.2234 N   0  0  0  0  0  0  0  0  0  0  0  0
   11.9123  -17.3111   23.1626 C   0  0  1  0  0  0  0  0  0  0  0  0
   12.7454  -16.5058   22.1933 C   0  0  0  0  0  0  0  0  0  0  0  0
   14.1428  -17.0004   22.0127 C   0  0  0  0  0  0  0  0  0  0  0  0
   14.7377  -16.1915   20.8890 C   0  0  0  0  0  0  0  0  0  0  0  0
   14.1011  -15.2828   20.3010 O   0  0  0  0  0  0  0  0  0  0  0  0
   12.5273  -17.3653   24.5124 C   0  0  0  0  0  0  0  0  0  0  0  0
   13.7604  -17.5217   24.6482 O   0  0  0  0  0  0  0  0  0  0  0  0
   16.0458  -16.4545   20.4787 O   0  0  0  0  0  0  0  0  0  0  0  0
   11.7351  -17.2422   25.6679 N   0  0  0  0  0  0  0  0  0  0  0  0
   12.1709  -17.6102   27.0086 C   0  0  1  0  0  0  0  0  0  0  0  0
   11.1956  -17.1530   28.0450 C   0  0  0  0  0  0  0  0  0  0  0  0
   10.2373  -16.1266   27.5987 C   0  0  0  0  0  0  0  0  0  0  0  0
    9.0401  -16.5168   27.0364 C   0  0  0  0  0  0  0  0  0  0  0  0
    8.0883  -15.6284   26.6074 C   0  0  0  0  0  0  0  0  0  0  0  0
    8.3060  -14.2737   26.7289 C   0  0  0  0  0  0  0  0  0  0  0  0
    9.4892  -13.8544   27.2851 C   0  0  0  0  0  0  0  0  0  0  0  0
   10.4533  -14.7743   27.7195 C   0  0  0  0  0  0  0  0  0  0  0  0
   12.4288  -19.0505   27.1231 C   0  0  0  0  0  0  0  0  0  0  0  0
   12.9228  -19.5142   28.1828 O   0  0  0  0  0  0  0  0  0  0  0  0
   12.1459  -19.9334   26.1002 O   0  0  0  0  0  0  0  0  0  0  0  0
  2  1  1  1
  2 13  1  0
  3  4  1  0
  3  2  1  0
  4  5  2  0
  5  6  1  0
  7  6  1  0
  8  7  2  0
  9  8  1  0
 10 11  1  0
 10  9  2  0
 11 12  2  0
 12  4  1  0
 12  7  1  0
 13 14  2  0
 15 16  1  0
 15 13  1  0
 16 17  1  6
 18 17  1  0
 19 18  1  0
 20 19  2  0
 21 22  2  0
 21 16  1  0
 23 19  1  0
 24 21  1  0
 25 24  1  0
 25 26  1  1
 27 26  1  0
 28 27  2  0
 29 28  1  0
 30 31  1  0
 30 29  2  0
 31 32  2  0
 32 27  1  0
 33 25  1  0
 33 35  1  0
 34 33  2  0
M  END
$$$$
