PLL.pdb
     RDKit          3D

 24 24  0  0  1  0  0  0  0  0999 V2000
    7.7430  -17.1003   20.5476 N   0  0  0  0  0  0  0  0  0  0  0  0
    7.0589  -16.9702   19.2851 C   0  0  0  0  0  0  0  0  0  0  0  0
    7.5111  -15.6946   18.6522 C   0  0  0  0  0  0  0  0  0  0  0  0
    8.6940  -15.2210   19.4617 C   0  0  0  0  0  0  0  0  0  0  0  0
    8.9038  -16.2810   20.5180 C   0  0  1  0  0  0  0  0  0  0  0  0
    9.1760  -15.6210   21.8366 C   0  0  0  0  0  0  0  0  0  0  0  0
   10.3016  -15.0976   22.0401 O   0  0  0  0  0  0  0  0  0  0  0  0
    5.8988  -13.0494   26.2996 C   0  0  0  0  0  0  0  0  0  0  0  0
    7.3105  -13.3371   25.7555 C   0  0  2  0  0  0  0  0  0  0  0  0
    7.8117  -12.0207   25.2031 C   0  0  0  0  0  0  0  0  0  0  0  0
    7.1566  -14.3850   24.7144 C   0  0  0  0  0  0  0  0  0  0  0  0
    8.4206  -14.9592   24.1656 C   0  0  2  0  0  0  0  0  0  0  0  0
    8.1861  -15.5771   22.8573 N   0  0  0  0  0  0  0  0  0  0  0  0
    9.1428  -15.8728   25.0604 C   0  0  0  0  0  0  0  0  0  0  0  0
    9.3151  -17.0555   24.7485 O   0  0  0  0  0  0  0  0  0  0  0  0
   10.2040  -13.9415   30.1280 C   0  0  0  0  0  0  0  0  0  0  0  0
   10.2040  -14.3180   28.6543 C   0  0  1  0  0  0  0  0  0  0  0  0
   11.2412  -13.4418   27.9811 C   0  0  0  0  0  0  0  0  0  0  0  0
   10.5729  -15.7790   28.5774 C   0  0  0  0  0  0  0  0  0  0  0  0
   10.4999  -16.3110   27.1598 C   0  0  2  0  0  0  0  0  0  0  0  0
    9.6819  -15.4643   26.3223 N   0  0  0  0  0  0  0  0  0  0  0  0
    9.9000  -17.6543   27.1963 C   0  0  0  0  0  0  0  0  0  0  0  0
    8.5815  -17.8331   26.8486 O   0  0  0  0  0  0  0  0  0  0  0  0
   10.5880  -18.6374   27.5439 O   0  0  0  0  0  0  0  0  0  0  0  0
  1  2  1  0
  3  2  1  0
  4  3  1  0
  5  4  1  0
  5  1  1  0
  6  7  2  0
  5  6  1  1
  9  8  1  6
  9 11  1  0
  9 10  1  0
 12 11  1  1
 12 13  1  0
 13  6  1  0
 14 12  1  0
 14 15  2  0
 17 16  1  1
 17 18  1  0
 17 19  1  0
 20 21  1  0
 20 19  1  1
 21 14  1  0
 22 20  1  0
 23 22  1  0
 24 22  2  0
M  END
$$$$
