PLL.pdb
     RDKit          3D

 24 24  0  0  1  0  0  0  0  0999 V2000
   10.7323  -19.1293   20.5116 N   0  0  0  0  0  0  0  0  0  0  0  0
   10.9597  -19.7677   19.2390 C   0  0  0  0  0  0  0  0  0  0  0  0
   11.7208  -18.8112   18.3800 C   0  0  0  0  0  0  0  0  0  0  0  0
   12.1730  -17.6966   19.2922 C   0  0  0  0  0  0  0  0  0  0  0  0
   11.6823  -18.0840   20.6678 C   0  0  1  0  0  0  0  0  0  0  0  0
   11.1046  -16.8782   21.3467 C   0  0  0  0  0  0  0  0  0  0  0  0
   11.8644  -15.9239   21.6537 O   0  0  0  0  0  0  0  0  0  0  0  0
    6.2286  -13.7775   20.4275 C   0  0  0  0  0  0  0  0  0  0  0  0
    7.5843  -13.8445   21.1551 C   0  0  2  0  0  0  0  0  0  0  0  0
    8.5969  -13.2750   20.1857 C   0  0  0  0  0  0  0  0  0  0  0  0
    7.8229  -15.2754   21.4729 C   0  0  0  0  0  0  0  0  0  0  0  0
    9.0924  -15.5874   22.1938 C   0  0  2  0  0  0  0  0  0  0  0  0
    9.7168  -16.7961   21.6482 N   0  0  0  0  0  0  0  0  0  0  0  0
    8.9892  -15.6597   23.6571 C   0  0  0  0  0  0  0  0  0  0  0  0
    9.6388  -16.4949   24.2944 O   0  0  0  0  0  0  0  0  0  0  0  0
    5.9854  -11.6932   26.3975 C   0  0  0  0  0  0  0  0  0  0  0  0
    7.1986  -12.5134   25.9866 C   0  0  1  0  0  0  0  0  0  0  0  0
    8.3764  -11.9722   26.7718 C   0  0  0  0  0  0  0  0  0  0  0  0
    6.8985  -13.9473   26.3481 C   0  0  0  0  0  0  0  0  0  0  0  0
    7.9723  -14.8960   25.8534 C   0  0  2  0  0  0  0  0  0  0  0  0
    8.1501  -14.7889   24.4236 N   0  0  0  0  0  0  0  0  0  0  0  0
    7.5613  -16.2725   26.1729 C   0  0  0  0  0  0  0  0  0  0  0  0
    7.9899  -16.8707   27.3348 O   0  0  0  0  0  0  0  0  0  0  0  0
    6.8208  -16.9023   25.3883 O   0  0  0  0  0  0  0  0  0  0  0  0
  1  2  1  0
  3  2  1  0
  4  3  1  0
  5  4  1  0
  5  1  1  0
  6  7  2  0
  5  6  1  6
  9  8  1  6
  9 11  1  0
  9 10  1  0
 12 11  1  6
 12 13  1  0
 13  6  1  0
 14 12  1  0
 14 15  2  0
 17 16  1  1
 17 18  1  0
 17 19  1  0
 20 21  1  0
 20 19  1  6
 21 14  1  0
 22 20  1  0
 23 22  1  0
 24 22  2  0
M  END
$$$$
