PLL.pdb
     RDKit          3D

 24 24  0  0  1  0  0  0  0  0999 V2000
    7.2926  -18.6255   20.8585 N   0  0  0  0  0  0  0  0  0  0  0  0
    6.7378  -19.3123   19.7185 C   0  0  0  0  0  0  0  0  0  0  0  0
    7.7457  -19.2529   18.6172 C   0  0  0  0  0  0  0  0  0  0  0  0
    9.0230  -18.7486   19.2442 C   0  0  0  0  0  0  0  0  0  0  0  0
    8.7052  -18.5756   20.7113 C   0  0  1  0  0  0  0  0  0  0  0  0
    9.2888  -17.2824   21.1967 C   0  0  0  0  0  0  0  0  0  0  0  0
   10.5388  -17.1442   21.2209 O   0  0  0  0  0  0  0  0  0  0  0  0
    9.1505  -13.2943   19.3393 C   0  0  0  0  0  0  0  0  0  0  0  0
    7.8488  -13.8058   19.9841 C   0  0  2  0  0  0  0  0  0  0  0  0
    6.7717  -12.8324   19.5578 C   0  0  0  0  0  0  0  0  0  0  0  0
    8.0791  -13.8143   21.4512 C   0  0  0  0  0  0  0  0  0  0  0  0
    8.9773  -14.8874   21.9710 C   0  0  2  0  0  0  0  0  0  0  0  0
    8.4554  -16.2136   21.6288 N   0  0  0  0  0  0  0  0  0  0  0  0
    9.3074  -14.8011   23.3994 C   0  0  0  0  0  0  0  0  0  0  0  0
   10.2989  -14.1705   23.7804 O   0  0  0  0  0  0  0  0  0  0  0  0
    5.7923  -12.7996   26.4577 C   0  0  0  0  0  0  0  0  0  0  0  0
    7.1721  -13.1888   25.9496 C   0  0  1  0  0  0  0  0  0  0  0  0
    8.1492  -12.1884   26.5334 C   0  0  0  0  0  0  0  0  0  0  0  0
    7.4415  -14.5876   26.4471 C   0  0  0  0  0  0  0  0  0  0  0  0
    8.6951  -15.1787   25.8333 C   0  0  2  0  0  0  0  0  0  0  0  0
    8.5221  -15.4262   24.4204 N   0  0  0  0  0  0  0  0  0  0  0  0
    8.9827  -16.4581   26.5015 C   0  0  0  0  0  0  0  0  0  0  0  0
    9.2816  -16.4860   27.8436 O   0  0  0  0  0  0  0  0  0  0  0  0
    8.9560  -17.5238   25.8502 O   0  0  0  0  0  0  0  0  0  0  0  0
  1  2  1  0
  3  2  1  0
  4  3  1  0
  5  4  1  0
  5  1  1  0
  6  7  2  0
  5  6  1  6
  9  8  1  6
  9 11  1  0
  9 10  1  0
 12 11  1  1
 12 13  1  0
 13  6  1  0
 14 12  1  0
 14 15  2  0
 17 16  1  1
 17 18  1  0
 17 19  1  0
 20 21  1  0
 20 19  1  1
 21 14  1  0
 22 20  1  0
 23 22  1  0
 24 22  2  0
M  END
$$$$
