PLL.pdb
     RDKit          3D

 24 24  0  0  1  0  0  0  0  0999 V2000
    8.4851  -19.2470   21.2951 N   0  0  0  0  0  0  0  0  0  0  0  0
    7.6287  -20.0154   20.4261 C   0  0  0  0  0  0  0  0  0  0  0  0
    7.8817  -19.5651   19.0242 C   0  0  0  0  0  0  0  0  0  0  0  0
    9.1183  -18.7009   19.0779 C   0  0  0  0  0  0  0  0  0  0  0  0
    9.5575  -18.7235   20.5234 C   0  0  1  0  0  0  0  0  0  0  0  0
    9.9477  -17.3386   20.9457 C   0  0  0  0  0  0  0  0  0  0  0  0
   11.0608  -16.8775   20.5841 O   0  0  0  0  0  0  0  0  0  0  0  0
    8.6707  -13.1260   20.1344 C   0  0  0  0  0  0  0  0  0  0  0  0
    7.6635  -14.0110   20.8921 C   0  0  2  0  0  0  0  0  0  0  0  0
    6.3907  -13.1977   20.9808 C   0  0  0  0  0  0  0  0  0  0  0  0
    8.2663  -14.2960   22.2191 C   0  0  0  0  0  0  0  0  0  0  0  0
    9.4508  -15.2046   22.2232 C   0  0  2  0  0  0  0  0  0  0  0  0
    9.0831  -16.5406   21.7454 N   0  0  0  0  0  0  0  0  0  0  0  0
   10.1873  -15.2805   23.4916 C   0  0  0  0  0  0  0  0  0  0  0  0
   11.0849  -14.4718   23.7487 O   0  0  0  0  0  0  0  0  0  0  0  0
   10.7342  -14.0617   28.0906 C   0  0  0  0  0  0  0  0  0  0  0  0
    9.4209  -14.8156   27.9487 C   0  0  1  0  0  0  0  0  0  0  0  0
    8.3455  -13.9340   28.5511 C   0  0  0  0  0  0  0  0  0  0  0  0
    9.2008  -15.0343   26.4721 C   0  0  0  0  0  0  0  0  0  0  0  0
   10.1481  -16.0718   25.9027 C   0  0  2  0  0  0  0  0  0  0  0  0
    9.9211  -16.2716   24.4898 N   0  0  0  0  0  0  0  0  0  0  0  0
    9.9163  -17.3471   26.5996 C   0  0  0  0  0  0  0  0  0  0  0  0
   10.7950  -17.7772   27.5661 O   0  0  0  0  0  0  0  0  0  0  0  0
    8.9190  -18.0434   26.3146 O   0  0  0  0  0  0  0  0  0  0  0  0
  1  2  1  0
  3  2  1  0
  4  3  1  0
  5  4  1  0
  5  1  1  0
  6  7  2  0
  5  6  1  1
  9  8  1  6
  9 11  1  0
  9 10  1  0
 12 11  1  1
 12 13  1  0
 13  6  1  0
 14 12  1  0
 14 15  2  0
 17 16  1  6
 17 18  1  0
 17 19  1  0
 20 21  1  0
 20 19  1  1
 21 14  1  0
 22 20  1  0
 23 22  1  0
 24 22  2  0
M  END
$$$$
