PLL.pdb
     RDKit          3D

 24 24  0  0  1  0  0  0  0  0999 V2000
    7.6534  -18.1286   21.3999 N   0  0  0  0  0  0  0  0  0  0  0  0
    6.7173  -18.5721   20.3970 C   0  0  0  0  0  0  0  0  0  0  0  0
    6.7163  -17.5610   19.2971 C   0  0  0  0  0  0  0  0  0  0  0  0
    7.8914  -16.6514   19.5624 C   0  0  0  0  0  0  0  0  0  0  0  0
    8.5559  -17.2096   20.7994 C   0  0  1  0  0  0  0  0  0  0  0  0
    8.9244  -16.0822   21.7168 C   0  0  0  0  0  0  0  0  0  0  0  0
    9.9295  -15.3754   21.4475 O   0  0  0  0  0  0  0  0  0  0  0  0
    6.1711  -13.0407   26.3337 C   0  0  0  0  0  0  0  0  0  0  0  0
    7.4994  -13.1991   25.5705 C   0  0  2  0  0  0  0  0  0  0  0  0
    7.7656  -11.8544   24.9302 C   0  0  0  0  0  0  0  0  0  0  0  0
    7.2902  -14.2852   24.5795 C   0  0  0  0  0  0  0  0  0  0  0  0
    8.4948  -14.7159   23.8100 C   0  0  2  0  0  0  0  0  0  0  0  0
    8.1591  -15.8000   22.8823 N   0  0  0  0  0  0  0  0  0  0  0  0
    9.6741  -15.0559   24.6165 C   0  0  0  0  0  0  0  0  0  0  0  0
   10.7261  -14.4201   24.4943 O   0  0  0  0  0  0  0  0  0  0  0  0
   10.2401  -15.4434   29.5270 C   0  0  0  0  0  0  0  0  0  0  0  0
   10.0574  -14.8540   28.1368 C   0  0  1  0  0  0  0  0  0  0  0  0
   10.0648  -13.3472   28.2983 C   0  0  0  0  0  0  0  0  0  0  0  0
   11.2214  -15.3317   27.3040 C   0  0  0  0  0  0  0  0  0  0  0  0
   10.8317  -16.4679   26.3793 C   0  0  2  0  0  0  0  0  0  0  0  0
    9.6835  -16.1200   25.5743 N   0  0  0  0  0  0  0  0  0  0  0  0
   10.4907  -17.6409   27.2001 C   0  0  0  0  0  0  0  0  0  0  0  0
    9.2092  -18.1398   27.1955 O   0  0  0  0  0  0  0  0  0  0  0  0
   11.3661  -18.1874   27.9043 O   0  0  0  0  0  0  0  0  0  0  0  0
  1  2  1  0
  3  2  1  0
  4  3  1  0
  5  4  1  0
  5  1  1  0
  6  7  2  0
  5  6  1  1
  9  8  1  6
  9 11  1  0
  9 10  1  0
 12 11  1  1
 12 13  1  0
 13  6  1  0
 14 12  1  0
 14 15  2  0
 17 16  1  1
 17 18  1  0
 17 19  1  0
 20 21  1  0
 20 19  1  1
 21 14  1  0
 22 20  1  0
 23 22  1  0
 24 22  2  0
M  END
$$$$
