PLL.pdb
     RDKit          3D

 24 24  0  0  1  0  0  0  0  0999 V2000
    7.6476  -18.3148   21.3453 N   0  0  0  0  0  0  0  0  0  0  0  0
    6.8932  -18.6924   20.1761 C   0  0  0  0  0  0  0  0  0  0  0  0
    7.2681  -17.7586   19.0718 C   0  0  0  0  0  0  0  0  0  0  0  0
    8.4761  -16.9958   19.5594 C   0  0  0  0  0  0  0  0  0  0  0  0
    8.7772  -17.5598   20.9285 C   0  0  1  0  0  0  0  0  0  0  0  0
    9.0972  -16.4365   21.8690 C   0  0  0  0  0  0  0  0  0  0  0  0
   10.1228  -15.7377   21.6637 O   0  0  0  0  0  0  0  0  0  0  0  0
    5.9694  -13.2486   26.1155 C   0  0  0  0  0  0  0  0  0  0  0  0
    7.2995  -13.3346   25.3439 C   0  0  2  0  0  0  0  0  0  0  0  0
    7.3902  -12.0548   24.5419 C   0  0  0  0  0  0  0  0  0  0  0  0
    7.2173  -14.5499   24.4943 C   0  0  0  0  0  0  0  0  0  0  0  0
    8.4969  -15.0118   23.8796 C   0  0  2  0  0  0  0  0  0  0  0  0
    8.2633  -16.1493   22.9852 N   0  0  0  0  0  0  0  0  0  0  0  0
    9.5871  -15.2950   24.8220 C   0  0  0  0  0  0  0  0  0  0  0  0
   10.7002  -14.7811   24.6712 O   0  0  0  0  0  0  0  0  0  0  0  0
    9.5836  -14.1029   29.6866 C   0  0  0  0  0  0  0  0  0  0  0  0
    9.9081  -14.4878   28.2513 C   0  0  1  0  0  0  0  0  0  0  0  0
   11.1077  -13.6587   27.8389 C   0  0  0  0  0  0  0  0  0  0  0  0
   10.2245  -15.9631   28.2562 C   0  0  0  0  0  0  0  0  0  0  0  0
   10.5081  -16.4893   26.8632 C   0  0  2  0  0  0  0  0  0  0  0  0
    9.4368  -16.1636   25.9502 N   0  0  0  0  0  0  0  0  0  0  0  0
   10.6340  -17.9539   26.9348 C   0  0  0  0  0  0  0  0  0  0  0  0
   11.6939  -18.5257   27.5988 O   0  0  0  0  0  0  0  0  0  0  0  0
    9.7769  -18.6826   26.3917 O   0  0  0  0  0  0  0  0  0  0  0  0
  1  2  1  0
  3  2  1  0
  4  3  1  0
  5  4  1  0
  5  1  1  0
  6  7  2  0
  5  6  1  1
  9  8  1  6
  9 11  1  0
  9 10  1  0
 12 11  1  1
 12 13  1  0
 13  6  1  0
 14 12  1  0
 14 15  2  0
 17 16  1  1
 17 18  1  0
 17 19  1  0
 20 21  1  0
 20 19  1  1
 21 14  1  0
 22 20  1  0
 23 22  1  0
 24 22  2  0
M  END
$$$$
