PLL.pdb
     RDKit          3D

 24 24  0  0  1  0  0  0  0  0999 V2000
    7.1188  -17.3843   22.1452 N   0  0  0  0  0  0  0  0  0  0  0  0
    6.0008  -17.5494   21.2498 C   0  0  0  0  0  0  0  0  0  0  0  0
    6.1211  -16.5165   20.1770 C   0  0  0  0  0  0  0  0  0  0  0  0
    7.5007  -15.9209   20.3209 C   0  0  0  0  0  0  0  0  0  0  0  0
    8.1434  -16.6758   21.4612 C   0  0  1  0  0  0  0  0  0  0  0  0
    8.8672  -15.7097   22.3509 C   0  0  0  0  0  0  0  0  0  0  0  0
    9.9937  -15.2758   21.9974 O   0  0  0  0  0  0  0  0  0  0  0  0
    7.0207  -11.9643   23.7507 C   0  0  0  0  0  0  0  0  0  0  0  0
    6.6805  -13.1867   24.6235 C   0  0  2  0  0  0  0  0  0  0  0  0
    5.6141  -12.7160   25.5882 C   0  0  0  0  0  0  0  0  0  0  0  0
    7.9410  -13.5877   25.2987 C   0  0  0  0  0  0  0  0  0  0  0  0
    8.9496  -14.2876   24.4493 C   0  0  2  0  0  0  0  0  0  0  0  0
    8.3030  -15.2777   23.5833 N   0  0  0  0  0  0  0  0  0  0  0  0
   10.0859  -14.8765   25.1697 C   0  0  0  0  0  0  0  0  0  0  0  0
   11.1332  -14.2398   25.3234 O   0  0  0  0  0  0  0  0  0  0  0  0
   12.3877  -15.2810   28.8870 C   0  0  0  0  0  0  0  0  0  0  0  0
   11.1320  -16.0166   29.3293 C   0  0  1  0  0  0  0  0  0  0  0  0
   10.5812  -15.2601   30.5213 C   0  0  0  0  0  0  0  0  0  0  0  0
   10.1768  -15.9901   28.1616 C   0  0  0  0  0  0  0  0  0  0  0  0
   10.7912  -16.5841   26.9096 C   0  0  2  0  0  0  0  0  0  0  0  0
   10.0568  -16.1945   25.7280 N   0  0  0  0  0  0  0  0  0  0  0  0
   10.7533  -18.0510   27.0226 C   0  0  0  0  0  0  0  0  0  0  0  0
    9.9432  -18.7884   26.1912 O   0  0  0  0  0  0  0  0  0  0  0  0
   11.4581  -18.6311   27.8756 O   0  0  0  0  0  0  0  0  0  0  0  0
  1  2  1  0
  3  2  1  0
  4  3  1  0
  5  4  1  0
  5  1  1  0
  6  7  2  0
  5  6  1  1
  9  8  1  6
  9 11  1  0
  9 10  1  0
 12 11  1  1
 12 13  1  0
 13  6  1  0
 14 12  1  0
 14 15  2  0
 17 16  1  6
 17 18  1  0
 17 19  1  0
 20 21  1  0
 20 19  1  1
 21 14  1  0
 22 20  1  0
 23 22  1  0
 24 22  2  0
M  END
$$$$
