PLL.pdb
     RDKit          3D

 24 24  0  0  1  0  0  0  0  0999 V2000
    7.0577  -19.4774   21.6404 N   0  0  0  0  0  0  0  0  0  0  0  0
    6.3077  -20.3798   20.8025 C   0  0  0  0  0  0  0  0  0  0  0  0
    7.0287  -20.4951   19.4990 C   0  0  0  0  0  0  0  0  0  0  0  0
    8.3754  -19.8451   19.7055 C   0  0  0  0  0  0  0  0  0  0  0  0
    8.3912  -19.4131   21.1534 C   0  0  1  0  0  0  0  0  0  0  0  0
    8.9747  -18.0354   21.2542 C   0  0  0  0  0  0  0  0  0  0  0  0
   10.1956  -17.8662   21.0030 O   0  0  0  0  0  0  0  0  0  0  0  0
    6.9697  -12.3115   21.0569 C   0  0  0  0  0  0  0  0  0  0  0  0
    8.1658  -13.2309   20.7477 C   0  0  2  0  0  0  0  0  0  0  0  0
    8.5284  -12.9584   19.3043 C   0  0  0  0  0  0  0  0  0  0  0  0
    7.7001  -14.6221   20.9788 C   0  0  0  0  0  0  0  0  0  0  0  0
    8.6774  -15.5446   21.6289 C   0  0  2  0  0  0  0  0  0  0  0  0
    8.1733  -16.9210   21.6278 N   0  0  0  0  0  0  0  0  0  0  0  0
    9.1293  -15.1477   22.9687 C   0  0  0  0  0  0  0  0  0  0  0  0
   10.1171  -14.4199   23.1110 O   0  0  0  0  0  0  0  0  0  0  0  0
    6.0419  -12.7623   26.3780 C   0  0  0  0  0  0  0  0  0  0  0  0
    7.3477  -13.1651   25.7103 C   0  0  1  0  0  0  0  0  0  0  0  0
    8.3746  -12.1195   26.0959 C   0  0  0  0  0  0  0  0  0  0  0  0
    7.7100  -14.5278   26.2475 C   0  0  0  0  0  0  0  0  0  0  0  0
    8.8700  -15.1472   25.4934 C   0  0  2  0  0  0  0  0  0  0  0  0
    8.4719  -15.5670   24.1694 N   0  0  0  0  0  0  0  0  0  0  0  0
    9.3340  -16.3277   26.2397 C   0  0  0  0  0  0  0  0  0  0  0  0
    9.8208  -16.1906   27.5185 O   0  0  0  0  0  0  0  0  0  0  0  0
    9.2867  -17.4594   25.7126 O   0  0  0  0  0  0  0  0  0  0  0  0
  1  2  1  0
  3  2  1  0
  4  3  1  0
  5  4  1  0
  5  1  1  0
  6  7  2  0
  5  6  1  6
  9  8  1  6
  9 11  1  0
  9 10  1  0
 12 11  1  1
 12 13  1  0
 13  6  1  0
 14 12  1  0
 14 15  2  0
 17 16  1  1
 17 18  1  0
 17 19  1  0
 20 21  1  0
 20 19  1  1
 21 14  1  0
 22 20  1  0
 23 22  1  0
 24 22  2  0
M  END
$$$$
