PLL.pdb
     RDKit          3D

 24 24  0  0  1  0  0  0  0  0999 V2000
    7.5130  -18.1468   21.4460 N   0  0  0  0  0  0  0  0  0  0  0  0
    6.8110  -18.4322   20.2194 C   0  0  0  0  0  0  0  0  0  0  0  0
    7.2881  -17.4638   19.1866 C   0  0  0  0  0  0  0  0  0  0  0  0
    8.4979  -16.7816   19.7781 C   0  0  0  0  0  0  0  0  0  0  0  0
    8.6959  -17.4248   21.1310 C   0  0  1  0  0  0  0  0  0  0  0  0
    9.0096  -16.3645   22.1439 C   0  0  0  0  0  0  0  0  0  0  0  0
   10.0858  -15.7207   22.0450 O   0  0  0  0  0  0  0  0  0  0  0  0
    5.6695  -13.3182   26.3519 C   0  0  0  0  0  0  0  0  0  0  0  0
    7.0084  -13.3308   25.5909 C   0  0  2  0  0  0  0  0  0  0  0  0
    7.0543  -12.0279   24.8230 C   0  0  0  0  0  0  0  0  0  0  0  0
    6.9821  -14.5259   24.7096 C   0  0  0  0  0  0  0  0  0  0  0  0
    8.2865  -14.9269   24.1042 C   0  0  2  0  0  0  0  0  0  0  0  0
    8.1138  -16.0757   23.2105 N   0  0  0  0  0  0  0  0  0  0  0  0
    9.3826  -15.1558   25.0544 C   0  0  0  0  0  0  0  0  0  0  0  0
   10.2249  -14.2781   25.2687 O   0  0  0  0  0  0  0  0  0  0  0  0
    9.8567  -13.9019   29.3793 C   0  0  0  0  0  0  0  0  0  0  0  0
   10.3026  -14.4354   28.0265 C   0  0  1  0  0  0  0  0  0  0  0  0
   11.7363  -13.9849   27.8319 C   0  0  0  0  0  0  0  0  0  0  0  0
   10.1942  -15.9389   28.0933 C   0  0  0  0  0  0  0  0  0  0  0  0
   10.5646  -16.5955   26.7782 C   0  0  2  0  0  0  0  0  0  0  0  0
    9.5445  -16.3807   25.7778 N   0  0  0  0  0  0  0  0  0  0  0  0
   10.7034  -18.0433   27.0028 C   0  0  0  0  0  0  0  0  0  0  0  0
   11.7465  -18.5301   27.7553 O   0  0  0  0  0  0  0  0  0  0  0  0
    9.8725  -18.8353   26.5097 O   0  0  0  0  0  0  0  0  0  0  0  0
  1  2  1  0
  3  2  1  0
  4  3  1  0
  5  4  1  0
  5  1  1  0
  6  7  2  0
  5  6  1  1
  9  8  1  6
  9 11  1  0
  9 10  1  0
 12 11  1  1
 12 13  1  0
 13  6  1  0
 14 12  1  0
 14 15  2  0
 17 16  1  1
 17 18  1  0
 17 19  1  0
 20 21  1  0
 20 19  1  1
 21 14  1  0
 22 20  1  0
 23 22  1  0
 24 22  2  0
M  END
$$$$
