PLL.pdb
     RDKit          3D

 24 24  0  0  1  0  0  0  0  0999 V2000
    7.7017  -17.3619   20.5480 N   0  0  0  0  0  0  0  0  0  0  0  0
    6.9911  -17.4372   19.2957 C   0  0  0  0  0  0  0  0  0  0  0  0
    7.3629  -16.2358   18.4890 C   0  0  0  0  0  0  0  0  0  0  0  0
    8.5312  -15.5977   19.2008 C   0  0  0  0  0  0  0  0  0  0  0  0
    8.8155  -16.4949   20.3830 C   0  0  1  0  0  0  0  0  0  0  0  0
    9.0727  -15.6515   21.5959 C   0  0  0  0  0  0  0  0  0  0  0  0
   10.1805  -15.0672   21.7134 O   0  0  0  0  0  0  0  0  0  0  0  0
    5.6404  -12.8442   25.8440 C   0  0  0  0  0  0  0  0  0  0  0  0
    7.0798  -13.0691   25.3445 C   0  0  2  0  0  0  0  0  0  0  0  0
    7.5673  -11.7145   24.8792 C   0  0  0  0  0  0  0  0  0  0  0  0
    6.9952  -14.0663   24.2473 C   0  0  0  0  0  0  0  0  0  0  0  0
    8.2884  -14.6585   23.7940 C   0  0  2  0  0  0  0  0  0  0  0  0
    8.0884  -15.5018   22.6120 N   0  0  0  0  0  0  0  0  0  0  0  0
    9.0574  -15.3669   24.8254 C   0  0  0  0  0  0  0  0  0  0  0  0
    8.7597  -16.5202   25.1528 O   0  0  0  0  0  0  0  0  0  0  0  0
   11.3387  -14.0547   30.1782 C   0  0  0  0  0  0  0  0  0  0  0  0
   11.3228  -15.1224   29.0951 C   0  0  1  0  0  0  0  0  0  0  0  0
   10.4990  -16.2753   29.6324 C   0  0  0  0  0  0  0  0  0  0  0  0
   10.6842  -14.4997   27.8781 C   0  0  0  0  0  0  0  0  0  0  0  0
   10.8207  -15.3787   26.6506 C   0  0  2  0  0  0  0  0  0  0  0  0
   10.1751  -14.7833   25.5034 N   0  0  0  0  0  0  0  0  0  0  0  0
   10.1788  -16.6731   26.9305 C   0  0  0  0  0  0  0  0  0  0  0  0
    8.8507  -16.7248   27.2839 O   0  0  0  0  0  0  0  0  0  0  0  0
   10.8397  -17.7300   26.8475 O   0  0  0  0  0  0  0  0  0  0  0  0
  1  2  1  0
  3  2  1  0
  4  3  1  0
  5  4  1  0
  5  1  1  0
  6  7  2  0
  5  6  1  1
  9  8  1  6
  9 11  1  0
  9 10  1  0
 12 11  1  1
 12 13  1  0
 13  6  1  0
 14 12  1  0
 14 15  2  0
 17 16  1  1
 17 18  1  0
 17 19  1  0
 20 21  1  0
 20 19  1  1
 21 14  1  0
 22 20  1  0
 23 22  1  0
 24 22  2  0
M  END
$$$$
