PLL.pdb
     RDKit          3D

 24 24  0  0  1  0  0  0  0  0999 V2000
    6.9992  -18.2966   20.8268 N   0  0  0  0  0  0  0  0  0  0  0  0
    6.2753  -18.8719   19.7205 C   0  0  0  0  0  0  0  0  0  0  0  0
    7.1503  -18.7891   18.5123 C   0  0  0  0  0  0  0  0  0  0  0  0
    8.5198  -18.3977   19.0123 C   0  0  0  0  0  0  0  0  0  0  0  0
    8.3855  -18.3110   20.5148 C   0  0  1  0  0  0  0  0  0  0  0  0
    9.0988  -17.0873   21.0073 C   0  0  0  0  0  0  0  0  0  0  0  0
   10.3503  -17.0212   20.8989 O   0  0  0  0  0  0  0  0  0  0  0  0
    9.1264  -13.4057   19.2408 C   0  0  0  0  0  0  0  0  0  0  0  0
    7.8875  -13.6446   20.1240 C   0  0  2  0  0  0  0  0  0  0  0  0
    6.9103  -12.5475   19.7625 C   0  0  0  0  0  0  0  0  0  0  0  0
    8.3521  -13.5702   21.5326 C   0  0  0  0  0  0  0  0  0  0  0  0
    9.0444  -14.7818   22.0629 C   0  0  2  0  0  0  0  0  0  0  0  0
    8.3863  -16.0043   21.5930 N   0  0  0  0  0  0  0  0  0  0  0  0
    9.2420  -14.8131   23.5179 C   0  0  0  0  0  0  0  0  0  0  0  0
   10.1900  -14.2162   24.0383 O   0  0  0  0  0  0  0  0  0  0  0  0
    5.5738  -13.1139   26.5778 C   0  0  0  0  0  0  0  0  0  0  0  0
    6.9844  -13.4630   26.1287 C   0  0  1  0  0  0  0  0  0  0  0  0
    7.9236  -12.5582   26.9007 C   0  0  0  0  0  0  0  0  0  0  0  0
    7.2036  -14.9163   26.4699 C   0  0  0  0  0  0  0  0  0  0  0  0
    8.4739  -15.4619   25.8481 C   0  0  2  0  0  0  0  0  0  0  0  0
    8.3714  -15.5197   24.4081 N   0  0  0  0  0  0  0  0  0  0  0  0
    8.6940  -16.8250   26.3575 C   0  0  0  0  0  0  0  0  0  0  0  0
    8.8145  -17.8795   25.4829 O   0  0  0  0  0  0  0  0  0  0  0  0
    8.7722  -17.0280   27.5877 O   0  0  0  0  0  0  0  0  0  0  0  0
  1  2  1  0
  3  2  1  0
  4  3  1  0
  5  4  1  0
  5  1  1  0
  6  7  2  0
  5  6  1  6
  9  8  1  6
  9 11  1  0
  9 10  1  0
 12 11  1  1
 12 13  1  0
 13  6  1  0
 14 12  1  0
 14 15  2  0
 17 16  1  1
 17 18  1  0
 17 19  1  0
 20 21  1  0
 20 19  1  1
 21 14  1  0
 22 20  1  0
 23 22  1  0
 24 22  2  0
M  END
$$$$
