PLL.pdb
     RDKit          3D

 24 24  0  0  1  0  0  0  0  0999 V2000
    6.9115  -15.9284   21.8828 N   0  0  0  0  0  0  0  0  0  0  0  0
    6.1985  -15.4767   20.7138 C   0  0  0  0  0  0  0  0  0  0  0  0
    6.9350  -14.3017   20.1579 C   0  0  0  0  0  0  0  0  0  0  0  0
    8.2584  -14.2549   20.8827 C   0  0  0  0  0  0  0  0  0  0  0  0
    8.2468  -15.4476   21.8104 C   0  0  1  0  0  0  0  0  0  0  0  0
    8.7851  -15.0404   23.1494 C   0  0  0  0  0  0  0  0  0  0  0  0
    9.9966  -14.7179   23.2515 O   0  0  0  0  0  0  0  0  0  0  0  0
    7.8439  -11.5319   25.5852 C   0  0  0  0  0  0  0  0  0  0  0  0
    6.7833  -12.6486   25.5797 C   0  0  2  0  0  0  0  0  0  0  0  0
    5.5655  -12.0590   26.2568 C   0  0  0  0  0  0  0  0  0  0  0  0
    7.3690  -13.7912   26.3261 C   0  0  0  0  0  0  0  0  0  0  0  0
    8.4263  -14.5697   25.6157 C   0  0  2  0  0  0  0  0  0  0  0  0
    7.9514  -15.0130   24.3018 N   0  0  0  0  0  0  0  0  0  0  0  0
    9.0079  -15.6860   26.3724 C   0  0  0  0  0  0  0  0  0  0  0  0
    9.4169  -15.5203   27.5261 O   0  0  0  0  0  0  0  0  0  0  0  0
    6.7018  -20.4973   25.9835 C   0  0  0  0  0  0  0  0  0  0  0  0
    7.3737  -19.2363   26.5049 C   0  0  1  0  0  0  0  0  0  0  0  0
    7.0538  -19.1521   27.9838 C   0  0  0  0  0  0  0  0  0  0  0  0
    8.8541  -19.3988   26.2625 C   0  0  0  0  0  0  0  0  0  0  0  0
    9.6271  -18.1373   26.5927 C   0  0  2  0  0  0  0  0  0  0  0  0
    9.1366  -17.0076   25.8372 N   0  0  0  0  0  0  0  0  0  0  0  0
   11.0414  -18.3535   26.2478 C   0  0  0  0  0  0  0  0  0  0  0  0
   11.7975  -19.2546   26.9602 O   0  0  0  0  0  0  0  0  0  0  0  0
   11.5596  -17.7180   25.3053 O   0  0  0  0  0  0  0  0  0  0  0  0
  1  2  1  0
  3  2  1  0
  4  3  1  0
  5  4  1  0
  5  1  1  0
  6  7  2  0
  5  6  1  1
  9  8  1  1
  9 11  1  0
  9 10  1  0
 12 11  1  1
 12 13  1  0
 13  6  1  0
 14 12  1  0
 14 15  2  0
 17 16  1  1
 17 18  1  0
 17 19  1  0
 20 21  1  0
 20 19  1  6
 21 14  1  0
 22 20  1  0
 23 22  1  0
 24 22  2  0
M  END
$$$$
