PLL.pdb
     RDKit          3D

 24 24  0  0  1  0  0  0  0  0999 V2000
    7.9941  -19.7723   22.2826 N   0  0  0  0  0  0  0  0  0  0  0  0
    7.1877  -20.7679   21.6213 C   0  0  0  0  0  0  0  0  0  0  0  0
    7.5073  -20.7165   20.1628 C   0  0  0  0  0  0  0  0  0  0  0  0
    8.7336  -19.8458   20.0325 C   0  0  0  0  0  0  0  0  0  0  0  0
    9.1001  -19.4600   21.4467 C   0  0  1  0  0  0  0  0  0  0  0  0
    9.4590  -18.0046   21.4872 C   0  0  0  0  0  0  0  0  0  0  0  0
   10.6456  -17.6585   21.2535 O   0  0  0  0  0  0  0  0  0  0  0  0
    6.6095  -12.7285   20.4969 C   0  0  0  0  0  0  0  0  0  0  0  0
    7.9537  -13.3640   20.8985 C   0  0  2  0  0  0  0  0  0  0  0  0
    8.8822  -13.1306   19.7269 C   0  0  0  0  0  0  0  0  0  0  0  0
    7.6827  -14.8024   21.1496 C   0  0  0  0  0  0  0  0  0  0  0  0
    8.7851  -15.5784   21.7907 C   0  0  2  0  0  0  0  0  0  0  0  0
    8.4835  -17.0127   21.7843 N   0  0  0  0  0  0  0  0  0  0  0  0
    9.1818  -15.1271   23.1309 C   0  0  0  0  0  0  0  0  0  0  0  0
   10.1632  -14.3928   23.2840 O   0  0  0  0  0  0  0  0  0  0  0  0
    5.7230  -12.8309   26.3199 C   0  0  0  0  0  0  0  0  0  0  0  0
    7.0958  -13.1276   25.7362 C   0  0  1  0  0  0  0  0  0  0  0  0
    8.0041  -11.9911   26.1601 C   0  0  0  0  0  0  0  0  0  0  0  0
    7.5420  -14.4458   26.3193 C   0  0  0  0  0  0  0  0  0  0  0  0
    8.7832  -14.9811   25.6330 C   0  0  2  0  0  0  0  0  0  0  0  0
    8.4757  -15.4986   24.3196 N   0  0  0  0  0  0  0  0  0  0  0  0
    9.3331  -16.0742   26.4506 C   0  0  0  0  0  0  0  0  0  0  0  0
    9.4978  -17.3278   25.9096 O   0  0  0  0  0  0  0  0  0  0  0  0
    9.6523  -15.8659   27.6403 O   0  0  0  0  0  0  0  0  0  0  0  0
  1  2  1  0
  3  2  1  0
  4  3  1  0
  5  4  1  0
  5  1  1  0
  6  7  2  0
  5  6  1  6
  9  8  1  6
  9 11  1  0
  9 10  1  0
 12 11  1  1
 12 13  1  0
 13  6  1  0
 14 12  1  0
 14 15  2  0
 17 16  1  1
 17 18  1  0
 17 19  1  0
 20 21  1  0
 20 19  1  1
 21 14  1  0
 22 20  1  0
 23 22  1  0
 24 22  2  0
M  END
$$$$
