AEI.pdb
     RDKit          3D

 23 22  0  0  1  0  0  0  0  0999 V2000
   24.6153  -19.8805  -18.5192 C   0  0  0  0  0  0  0  0  0  0  0  0
   23.1779  -20.0367  -18.0949 C   0  0  2  0  0  0  0  0  0  0  0  0
   22.3695  -19.1212  -18.8313 N   0  0  0  0  0  0  0  0  0  0  0  0
   23.0896  -19.8346  -16.6236 C   0  0  0  0  0  0  0  0  0  0  0  0
   23.5338  -18.7743  -16.1135 O   0  0  0  0  0  0  0  0  0  0  0  0
   22.5199  -20.7908  -15.7400 N   0  0  0  0  0  0  0  0  0  0  0  0
   22.3612  -20.5513  -14.3150 C   0  0  1  0  0  0  0  0  0  0  0  0
   21.0184  -20.9580  -13.8079 C   0  0  0  0  0  0  0  0  0  0  0  0
   19.8703  -20.5181  -14.6541 C   0  0  0  0  0  0  0  0  0  0  0  0
   18.6030  -20.9333  -14.0086 C   0  0  0  0  0  0  0  0  0  0  0  0
   18.0936  -22.0518  -14.2735 O   0  0  0  0  0  0  0  0  0  0  0  0
   23.4936  -21.1693  -13.5787 C   0  0  0  0  0  0  0  0  0  0  0  0
   23.8145  -22.3372  -13.9117 O   0  0  0  0  0  0  0  0  0  0  0  0
   17.9252  -20.1314  -13.0991 O   0  0  0  0  0  0  0  0  0  0  0  0
   28.3637  -19.5315  -13.6806 C   0  0  0  0  0  0  0  0  0  0  0  0
   27.0976  -20.3217  -13.4775 C   0  0  0  0  0  0  0  0  0  0  0  0
   26.6321  -20.4067  -12.0689 C   0  0  2  0  0  0  0  0  0  0  0  0
   27.6610  -21.2529  -11.3009 C   0  0  0  0  0  0  0  0  0  0  0  0
   25.3206  -21.0700  -11.8445 C   0  0  2  0  0  0  0  0  0  0  0  0
   24.1971  -20.4971  -12.5444 N   0  0  0  0  0  0  0  0  0  0  0  0
   25.0262  -21.0387  -10.3779 C   0  0  0  0  0  0  0  0  0  0  0  0
   25.5035  -21.9910   -9.4942 O   0  0  0  0  0  0  0  0  0  0  0  0
   24.3200  -20.1248   -9.8971 O   0  0  0  0  0  0  0  0  0  0  0  0
  2  1  1  6
  2  3  1  0
  4  2  1  0
  4  5  2  0
  6  4  1  0
  7  6  1  0
  7 12  1  0
  7  8  1  1
  9  8  1  0
  9 10  1  0
 10 14  1  0
 11 10  2  0
 12 13  2  0
 12 20  1  0
 16 15  1  0
 17 18  1  1
 17 16  1  0
 19 17  1  0
 19 20  1  6
 21 22  1  0
 21 19  1  0
 23 21  2  0
M  END
$$$$
