AEI.pdb
     RDKit          3D

 23 22  0  0  1  0  0  0  0  0999 V2000
   13.9767  -11.8075  -14.2352 C   0  0  0  0  0  0  0  0  0  0  0  0
   15.4742  -11.9292  -14.3497 C   0  0  2  0  0  0  0  0  0  0  0  0
   15.8588  -13.2725  -14.0636 N   0  0  0  0  0  0  0  0  0  0  0  0
   16.1052  -10.9383  -13.4368 C   0  0  0  0  0  0  0  0  0  0  0  0
   16.3783  -11.2680  -12.2542 O   0  0  0  0  0  0  0  0  0  0  0  0
   16.4250   -9.6110  -13.8310 N   0  0  0  0  0  0  0  0  0  0  0  0
   17.2452   -8.7242  -13.0223 C   0  0  1  0  0  0  0  0  0  0  0  0
   18.4166   -8.1809  -13.7696 C   0  0  0  0  0  0  0  0  0  0  0  0
   19.3203   -7.3060  -12.9663 C   0  0  0  0  0  0  0  0  0  0  0  0
   20.4305   -6.8334  -13.8262 C   0  0  0  0  0  0  0  0  0  0  0  0
   21.6239   -6.9855  -13.4611 O   0  0  0  0  0  0  0  0  0  0  0  0
   16.3881   -7.6788  -12.4069 C   0  0  0  0  0  0  0  0  0  0  0  0
   15.4979   -7.1756  -13.1366 O   0  0  0  0  0  0  0  0  0  0  0  0
   20.2202   -6.2125  -15.0509 O   0  0  0  0  0  0  0  0  0  0  0  0
   14.3276   -7.7841   -7.1648 C   0  0  0  0  0  0  0  0  0  0  0  0
   14.4094   -7.4559   -8.6326 C   0  0  0  0  0  0  0  0  0  0  0  0
   15.4369   -6.4442   -8.9914 C   0  0  2  0  0  0  0  0  0  0  0  0
   14.9318   -5.0838   -8.4827 C   0  0  0  0  0  0  0  0  0  0  0  0
   15.7017   -6.2561  -10.4421 C   0  0  2  0  0  0  0  0  0  0  0  0
   16.5443   -7.2489  -11.0626 N   0  0  0  0  0  0  0  0  0  0  0  0
   16.3383   -4.9153  -10.6308 C   0  0  0  0  0  0  0  0  0  0  0  0
   15.6070   -3.7512  -10.7915 O   0  0  0  0  0  0  0  0  0  0  0  0
   17.5845   -4.8072  -10.6493 O   0  0  0  0  0  0  0  0  0  0  0  0
  2  1  1  1
  2  3  1  0
  4  2  1  0
  4  5  2  0
  6  4  1  0
  7  6  1  0
  7 12  1  0
  7  8  1  6
  9  8  1  0
  9 10  1  0
 10 14  1  0
 11 10  2  0
 12 13  2  0
 12 20  1  0
 16 15  1  0
 17 18  1  6
 17 16  1  0
 19 17  1  0
 19 20  1  1
 21 22  1  0
 21 19  1  0
 23 21  2  0
M  END
$$$$
