AEI.pdb
     RDKit          3D

 23 22  0  0  1  0  0  0  0  0999 V2000
   15.7415  -12.8583  -14.0564 C   0  0  0  0  0  0  0  0  0  0  0  0
   14.8497  -11.7955  -13.4685 C   0  0  2  0  0  0  0  0  0  0  0  0
   14.0690  -11.2104  -14.5088 N   0  0  0  0  0  0  0  0  0  0  0  0
   15.6965  -10.8045  -12.7514 C   0  0  0  0  0  0  0  0  0  0  0  0
   16.3621  -11.1660  -11.7473 O   0  0  0  0  0  0  0  0  0  0  0  0
   15.8002   -9.4423  -13.1427 N   0  0  0  0  0  0  0  0  0  0  0  0
   16.5345   -8.4537  -12.3704 C   0  0  1  0  0  0  0  0  0  0  0  0
   17.3382   -7.5337  -13.2269 C   0  0  0  0  0  0  0  0  0  0  0  0
   18.4161   -8.1969  -14.0179 C   0  0  0  0  0  0  0  0  0  0  0  0
   19.1223   -7.1772  -14.8284 C   0  0  0  0  0  0  0  0  0  0  0  0
   19.0589   -7.2100  -16.0836 O   0  0  0  0  0  0  0  0  0  0  0  0
   15.6049   -7.7552  -11.4462 C   0  0  0  0  0  0  0  0  0  0  0  0
   14.4838   -7.4302  -11.9106 O   0  0  0  0  0  0  0  0  0  0  0  0
   19.8737   -6.1555  -14.2616 O   0  0  0  0  0  0  0  0  0  0  0  0
   12.6495   -9.2499   -7.6711 C   0  0  0  0  0  0  0  0  0  0  0  0
   13.3343   -8.4203   -8.7254 C   0  0  0  0  0  0  0  0  0  0  0  0
   14.3326   -7.4492   -8.2069 C   0  0  2  0  0  0  0  0  0  0  0  0
   13.5629   -6.4013   -7.3859 C   0  0  0  0  0  0  0  0  0  0  0  0
   15.0964   -6.6793   -9.2238 C   0  0  2  0  0  0  0  0  0  0  0  0
   15.9398   -7.4558  -10.0991 N   0  0  0  0  0  0  0  0  0  0  0  0
   15.9528   -5.6824   -8.5086 C   0  0  0  0  0  0  0  0  0  0  0  0
   15.5415   -4.3868   -8.2481 O   0  0  0  0  0  0  0  0  0  0  0  0
   17.0967   -6.0022   -8.1160 O   0  0  0  0  0  0  0  0  0  0  0  0
  2  1  1  6
  2  3  1  0
  4  2  1  0
  4  5  2  0
  6  4  1  0
  7  6  1  0
  7 12  1  0
  7  8  1  6
  9  8  1  0
  9 10  1  0
 10 14  1  0
 11 10  2  0
 12 13  2  0
 12 20  1  0
 16 15  1  0
 17 18  1  1
 17 16  1  0
 19 17  1  0
 19 20  1  1
 21 22  1  0
 21 19  1  0
 23 21  2  0
M  END
$$$$
