AEI.pdb
     RDKit          3D

 23 22  0  0  1  0  0  0  0  0999 V2000
   29.0040  -19.4478  -14.1005 C   0  0  0  0  0  0  0  0  0  0  0  0
   27.6970  -20.1832  -13.9546 C   0  0  2  0  0  0  0  0  0  0  0  0
   26.9143  -19.9864  -15.1304 N   0  0  0  0  0  0  0  0  0  0  0  0
   27.0172  -19.7086  -12.7192 C   0  0  0  0  0  0  0  0  0  0  0  0
   26.7872  -18.4814  -12.5682 O   0  0  0  0  0  0  0  0  0  0  0  0
   26.6028  -20.5799  -11.6758 N   0  0  0  0  0  0  0  0  0  0  0  0
   25.8597  -20.1209  -10.5138 C   0  0  1  0  0  0  0  0  0  0  0  0
   24.3862  -20.3001  -10.6639 C   0  0  0  0  0  0  0  0  0  0  0  0
   23.8793  -20.1706  -12.0617 C   0  0  0  0  0  0  0  0  0  0  0  0
   22.4071  -20.3377  -12.0627 C   0  0  0  0  0  0  0  0  0  0  0  0
   21.6849  -19.5906  -12.7704 O   0  0  0  0  0  0  0  0  0  0  0  0
   26.4190  -20.7464   -9.2881 C   0  0  0  0  0  0  0  0  0  0  0  0
   26.7359  -21.9595   -9.3665 O   0  0  0  0  0  0  0  0  0  0  0  0
   21.7601  -21.3032  -11.3019 O   0  0  0  0  0  0  0  0  0  0  0  0
   29.2422  -18.0455   -5.1246 C   0  0  0  0  0  0  0  0  0  0  0  0
   28.7975  -19.0855   -6.1193 C   0  0  0  0  0  0  0  0  0  0  0  0
   27.5202  -19.7667   -5.7839 C   0  0  2  0  0  0  0  0  0  0  0  0
   27.7911  -20.6658   -4.5661 C   0  0  0  0  0  0  0  0  0  0  0  0
   26.9553  -20.6636   -6.8262 C   0  0  2  0  0  0  0  0  0  0  0  0
   26.5975  -20.0332   -8.0732 N   0  0  0  0  0  0  0  0  0  0  0  0
   25.7343  -21.3213   -6.2648 C   0  0  0  0  0  0  0  0  0  0  0  0
   25.7867  -22.4591   -5.4785 O   0  0  0  0  0  0  0  0  0  0  0  0
   24.6004  -20.8470   -6.4981 O   0  0  0  0  0  0  0  0  0  0  0  0
  2  1  1  6
  2  3  1  0
  4  2  1  0
  4  5  2  0
  6  4  1  0
  7  6  1  0
  7 12  1  0
  7  8  1  6
  9  8  1  0
  9 10  1  0
 10 14  1  0
 11 10  2  0
 12 13  2  0
 12 20  1  0
 16 15  1  0
 17 18  1  1
 17 16  1  0
 19 17  1  0
 19 20  1  6
 21 22  1  0
 21 19  1  0
 23 21  2  0
M  END
$$$$
