AEI.pdb
     RDKit          3D

 23 22  0  0  1  0  0  0  0  0999 V2000
   18.5226  -11.3075  -17.9936 C   0  0  0  0  0  0  0  0  0  0  0  0
   17.4191  -10.7199  -17.1525 C   0  0  2  0  0  0  0  0  0  0  0  0
   16.1743  -10.8882  -17.8280 N   0  0  0  0  0  0  0  0  0  0  0  0
   17.7391   -9.2942  -16.8729 C   0  0  0  0  0  0  0  0  0  0  0  0
   18.1036   -8.5426  -17.8131 O   0  0  0  0  0  0  0  0  0  0  0  0
   17.6554   -8.7180  -15.5766 N   0  0  0  0  0  0  0  0  0  0  0  0
   17.8753   -7.3029  -15.3269 C   0  0  1  0  0  0  0  0  0  0  0  0
   16.6747   -6.6245  -14.7574 C   0  0  0  0  0  0  0  0  0  0  0  0
   15.4449   -6.7191  -15.5977 C   0  0  0  0  0  0  0  0  0  0  0  0
   14.2633   -6.8663  -14.7159 C   0  0  0  0  0  0  0  0  0  0  0  0
   14.3637   -7.4689  -13.6171 O   0  0  0  0  0  0  0  0  0  0  0  0
   19.1062   -7.1275  -14.5144 C   0  0  0  0  0  0  0  0  0  0  0  0
   19.2686   -7.9222  -13.5551 O   0  0  0  0  0  0  0  0  0  0  0  0
   13.0124   -6.3603  -15.0454 O   0  0  0  0  0  0  0  0  0  0  0  0
   24.0373   -6.5893  -16.7515 C   0  0  0  0  0  0  0  0  0  0  0  0
   22.7816   -6.0511  -16.1173 C   0  0  0  0  0  0  0  0  0  0  0  0
   22.5153   -6.5430  -14.7406 C   0  0  2  0  0  0  0  0  0  0  0  0
   22.2794   -8.0594  -14.8379 C   0  0  0  0  0  0  0  0  0  0  0  0
   21.3118   -5.9930  -14.0630 C   0  0  2  0  0  0  0  0  0  0  0  0
   20.0694   -6.1197  -14.7847 N   0  0  0  0  0  0  0  0  0  0  0  0
   21.5513   -4.5415  -13.7909 C   0  0  0  0  0  0  0  0  0  0  0  0
   20.7673   -3.5357  -14.3290 O   0  0  0  0  0  0  0  0  0  0  0  0
   22.4940   -4.1874  -13.0486 O   0  0  0  0  0  0  0  0  0  0  0  0
  2  1  1  6
  2  3  1  0
  4  2  1  0
  4  5  2  0
  6  4  1  0
  7  6  1  0
  7 12  1  0
  7  8  1  1
  9  8  1  0
  9 10  1  0
 10 14  1  0
 11 10  2  0
 12 13  2  0
 12 20  1  0
 16 15  1  0
 17 18  1  6
 17 16  1  0
 19 17  1  0
 19 20  1  6
 21 22  1  0
 21 19  1  0
 23 21  2  0
M  END
$$$$
