AEI.pdb
     RDKit          3D

 23 22  0  0  1  0  0  0  0  0999 V2000
   16.8604  -15.0216  -18.3987 C   0  0  0  0  0  0  0  0  0  0  0  0
   17.6009  -14.6584  -17.1377 C   0  0  2  0  0  0  0  0  0  0  0  0
   16.8231  -15.0494  -16.0080 N   0  0  0  0  0  0  0  0  0  0  0  0
   17.8977  -13.2008  -17.1610 C   0  0  0  0  0  0  0  0  0  0  0  0
   18.5904  -12.7219  -18.0953 O   0  0  0  0  0  0  0  0  0  0  0  0
   17.4343  -12.2966  -16.1674 N   0  0  0  0  0  0  0  0  0  0  0  0
   17.7056  -10.8692  -16.2120 C   0  0  1  0  0  0  0  0  0  0  0  0
   16.4771  -10.0428  -16.0281 C   0  0  0  0  0  0  0  0  0  0  0  0
   15.3935  -10.3029  -17.0209 C   0  0  0  0  0  0  0  0  0  0  0  0
   14.1849   -9.5384  -16.6333 C   0  0  0  0  0  0  0  0  0  0  0  0
   13.9164   -9.3497  -15.4197 O   0  0  0  0  0  0  0  0  0  0  0  0
   18.7979  -10.5414  -15.2604 C   0  0  0  0  0  0  0  0  0  0  0  0
   18.7438  -11.0841  -14.1287 O   0  0  0  0  0  0  0  0  0  0  0  0
   13.3047   -9.0019  -17.5645 O   0  0  0  0  0  0  0  0  0  0  0  0
   23.7848  -11.6853  -15.9567 C   0  0  0  0  0  0  0  0  0  0  0  0
   22.4192  -11.2635  -15.4814 C   0  0  0  0  0  0  0  0  0  0  0  0
   22.2972   -9.8264  -15.1238 C   0  0  2  0  0  0  0  0  0  0  0  0
   23.2294   -9.5755  -13.9269 C   0  0  0  0  0  0  0  0  0  0  0  0
   20.9528   -9.3649  -14.6881 C   0  0  2  0  0  0  0  0  0  0  0  0
   19.8635   -9.6612  -15.5859 N   0  0  0  0  0  0  0  0  0  0  0  0
   21.0090   -7.8830  -14.4903 C   0  0  0  0  0  0  0  0  0  0  0  0
   21.2996   -7.2972  -13.2704 O   0  0  0  0  0  0  0  0  0  0  0  0
   20.7881   -7.1111  -15.4497 O   0  0  0  0  0  0  0  0  0  0  0  0
  2  1  1  6
  2  3  1  0
  4  2  1  0
  4  5  2  0
  6  4  1  0
  7  6  1  0
  7 12  1  0
  7  8  1  1
  9  8  1  0
  9 10  1  0
 10 14  1  0
 11 10  2  0
 12 13  2  0
 12 20  1  0
 16 15  1  0
 17 18  1  1
 17 16  1  0
 19 17  1  0
 19 20  1  6
 21 22  1  0
 21 19  1  0
 23 21  2  0
M  END
$$$$
