AEI.pdb
     RDKit          3D

 23 22  0  0  1  0  0  0  0  0999 V2000
   15.3834  -11.1859  -17.0576 C   0  0  0  0  0  0  0  0  0  0  0  0
   16.1604  -10.9799  -15.7831 C   0  0  2  0  0  0  0  0  0  0  0  0
   15.2488  -10.8505  -14.6939 N   0  0  0  0  0  0  0  0  0  0  0  0
   17.0405   -9.7916  -15.9471 C   0  0  0  0  0  0  0  0  0  0  0  0
   18.1458   -9.9126  -16.5349 O   0  0  0  0  0  0  0  0  0  0  0  0
   16.6984   -8.4982  -15.4678 N   0  0  0  0  0  0  0  0  0  0  0  0
   17.4757   -7.3104  -15.7805 C   0  0  1  0  0  0  0  0  0  0  0  0
   16.6403   -6.0761  -15.8489 C   0  0  0  0  0  0  0  0  0  0  0  0
   17.4017   -4.8186  -16.1064 C   0  0  0  0  0  0  0  0  0  0  0  0
   16.4651   -3.6707  -16.0898 C   0  0  0  0  0  0  0  0  0  0  0  0
   16.6787   -2.6892  -15.3337 O   0  0  0  0  0  0  0  0  0  0  0  0
   18.6237   -7.2073  -14.8436 C   0  0  0  0  0  0  0  0  0  0  0  0
   18.3765   -7.3843  -13.6248 O   0  0  0  0  0  0  0  0  0  0  0  0
   15.3291   -3.6164  -16.8875 O   0  0  0  0  0  0  0  0  0  0  0  0
   22.7876  -10.3680  -14.4598 C   0  0  0  0  0  0  0  0  0  0  0  0
   21.7357   -9.3225  -14.1967 C   0  0  0  0  0  0  0  0  0  0  0  0
   22.1083   -7.9433  -14.6053 C   0  0  2  0  0  0  0  0  0  0  0  0
   23.3172   -7.5274  -13.7508 C   0  0  0  0  0  0  0  0  0  0  0  0
   21.0827   -6.8892  -14.3881 C   0  0  2  0  0  0  0  0  0  0  0  0
   19.9463   -6.9236  -15.2757 N   0  0  0  0  0  0  0  0  0  0  0  0
   21.7468   -5.5557  -14.5263 C   0  0  0  0  0  0  0  0  0  0  0  0
   22.4466   -4.9531  -13.4954 O   0  0  0  0  0  0  0  0  0  0  0  0
   21.6853   -4.9311  -15.6086 O   0  0  0  0  0  0  0  0  0  0  0  0
  2  1  1  6
  2  3  1  0
  4  2  1  0
  4  5  2  0
  6  4  1  0
  7  6  1  0
  7 12  1  0
  7  8  1  1
  9  8  1  0
  9 10  1  0
 10 14  1  0
 11 10  2  0
 12 13  2  0
 12 20  1  0
 16 15  1  0
 17 18  1  1
 17 16  1  0
 19 17  1  0
 19 20  1  6
 21 22  1  0
 21 19  1  0
 23 21  2  0
M  END
$$$$
