AEI.pdb
     RDKit          3D

 23 22  0  0  1  0  0  0  0  0999 V2000
   13.6721  -12.3525  -15.4755 C   0  0  0  0  0  0  0  0  0  0  0  0
   15.0920  -12.3942  -15.9781 C   0  0  2  0  0  0  0  0  0  0  0  0
   15.6294  -13.6967  -15.7576 N   0  0  0  0  0  0  0  0  0  0  0  0
   15.8705  -11.3231  -15.2997 C   0  0  0  0  0  0  0  0  0  0  0  0
   15.8902  -11.2693  -14.0433 O   0  0  0  0  0  0  0  0  0  0  0  0
   16.6102  -10.3346  -16.0034 N   0  0  0  0  0  0  0  0  0  0  0  0
   17.3473   -9.2758  -15.3336 C   0  0  1  0  0  0  0  0  0  0  0  0
   18.8194   -9.3665  -15.5589 C   0  0  0  0  0  0  0  0  0  0  0  0
   19.6208   -8.2945  -14.8986 C   0  0  0  0  0  0  0  0  0  0  0  0
   21.0431   -8.4413  -15.2869 C   0  0  0  0  0  0  0  0  0  0  0  0
   21.6473   -7.4936  -15.8504 O   0  0  0  0  0  0  0  0  0  0  0  0
   16.7643   -7.9588  -15.6963 C   0  0  0  0  0  0  0  0  0  0  0  0
   16.4289   -7.8001  -16.8965 O   0  0  0  0  0  0  0  0  0  0  0  0
   21.7688   -9.6031  -15.0562 O   0  0  0  0  0  0  0  0  0  0  0  0
   12.2092   -5.9412  -14.5011 C   0  0  0  0  0  0  0  0  0  0  0  0
   13.5563   -6.1661  -15.1363 C   0  0  0  0  0  0  0  0  0  0  0  0
   14.6610   -5.3521  -14.5660 C   0  0  2  0  0  0  0  0  0  0  0  0
   14.3695   -3.8831  -14.9149 C   0  0  0  0  0  0  0  0  0  0  0  0
   16.0241   -5.6258  -15.0923 C   0  0  2  0  0  0  0  0  0  0  0  0
   16.5833   -6.9117  -14.7543 N   0  0  0  0  0  0  0  0  0  0  0  0
   16.9447   -4.5637  -14.5796 C   0  0  0  0  0  0  0  0  0  0  0  0
   17.8837   -4.7955  -13.5896 O   0  0  0  0  0  0  0  0  0  0  0  0
   16.8887   -3.4038  -15.0452 O   0  0  0  0  0  0  0  0  0  0  0  0
  2  1  1  1
  2  3  1  0
  4  2  1  0
  4  5  2  0
  6  4  1  0
  7  6  1  0
  7 12  1  0
  7  8  1  6
  9  8  1  0
  9 10  1  0
 10 14  1  0
 11 10  2  0
 12 13  2  0
 12 20  1  0
 16 15  1  0
 17 18  1  6
 17 16  1  0
 19 17  1  0
 19 20  1  1
 21 22  1  0
 21 19  1  0
 23 21  2  0
M  END
$$$$
