AEI.pdb
     RDKit          3D

 23 22  0  0  1  0  0  0  0  0999 V2000
   16.3777  -14.9372  -17.5788 C   0  0  0  0  0  0  0  0  0  0  0  0
   16.4230  -13.8242  -16.5642 C   0  0  2  0  0  0  0  0  0  0  0  0
   15.1559  -13.1706  -16.5282 N   0  0  0  0  0  0  0  0  0  0  0  0
   17.5399  -12.9052  -16.9128 C   0  0  0  0  0  0  0  0  0  0  0  0
   18.7212  -13.3368  -16.9201 O   0  0  0  0  0  0  0  0  0  0  0  0
   17.3466  -11.5373  -17.2458 N   0  0  0  0  0  0  0  0  0  0  0  0
   18.4354  -10.6620  -17.6472 C   0  0  1  0  0  0  0  0  0  0  0  0
   18.0381   -9.7005  -18.7165 C   0  0  0  0  0  0  0  0  0  0  0  0
   18.0200  -10.2707  -20.0957 C   0  0  0  0  0  0  0  0  0  0  0  0
   17.9402   -9.1648  -21.0784 C   0  0  0  0  0  0  0  0  0  0  0  0
   16.8657   -8.5308  -21.2333 O   0  0  0  0  0  0  0  0  0  0  0  0
   19.0212  -10.0150  -16.4453 C   0  0  0  0  0  0  0  0  0  0  0  0
   18.2237   -9.7005  -15.5271 O   0  0  0  0  0  0  0  0  0  0  0  0
   19.0194   -8.7771  -21.8624 O   0  0  0  0  0  0  0  0  0  0  0  0
   23.8732  -11.4763  -14.2030 C   0  0  0  0  0  0  0  0  0  0  0  0
   22.4720  -11.0151  -14.5074 C   0  0  0  0  0  0  0  0  0  0  0  0
   22.3329   -9.5564  -14.7546 C   0  0  2  0  0  0  0  0  0  0  0  0
   22.6293   -8.8406  -13.4263 C   0  0  0  0  0  0  0  0  0  0  0  0
   20.9879   -9.0818  -15.1739 C   0  0  2  0  0  0  0  0  0  0  0  0
   20.4104   -9.7520  -16.3131 N   0  0  0  0  0  0  0  0  0  0  0  0
   21.0843   -7.6219  -15.4866 C   0  0  0  0  0  0  0  0  0  0  0  0
   20.9491   -6.6359  -14.5248 O   0  0  0  0  0  0  0  0  0  0  0  0
   21.2953   -7.2422  -16.6598 O   0  0  0  0  0  0  0  0  0  0  0  0
  2  1  1  6
  2  3  1  0
  4  2  1  0
  4  5  2  0
  6  4  1  0
  7  6  1  0
  7 12  1  0
  7  8  1  6
  9  8  1  0
  9 10  1  0
 10 14  1  0
 11 10  2  0
 12 13  2  0
 12 20  1  0
 16 15  1  0
 17 18  1  1
 17 16  1  0
 19 17  1  0
 19 20  1  6
 21 22  1  0
 21 19  1  0
 23 21  2  0
M  END
$$$$
