AEI.pdb
     RDKit          3D

 23 22  0  0  1  0  0  0  0  0999 V2000
   17.2227  -10.7250  -19.1205 C   0  0  0  0  0  0  0  0  0  0  0  0
   17.2637  -10.4207  -17.6453 C   0  0  2  0  0  0  0  0  0  0  0  0
   15.9305  -10.3527  -17.1433 N   0  0  0  0  0  0  0  0  0  0  0  0
   18.0262   -9.1600  -17.4387 C   0  0  0  0  0  0  0  0  0  0  0  0
   19.2524   -9.1222  -17.7160 O   0  0  0  0  0  0  0  0  0  0  0  0
   17.4376   -7.9686  -16.9349 N   0  0  0  0  0  0  0  0  0  0  0  0
   18.2025   -6.7601  -16.6751 C   0  0  1  0  0  0  0  0  0  0  0  0
   17.3607   -5.5286  -16.6996 C   0  0  0  0  0  0  0  0  0  0  0  0
   18.0826   -4.2700  -16.3497 C   0  0  0  0  0  0  0  0  0  0  0  0
   17.1343   -3.1331  -16.4075 C   0  0  0  0  0  0  0  0  0  0  0  0
   16.5967   -2.7020  -15.3560 O   0  0  0  0  0  0  0  0  0  0  0  0
   18.9855   -6.9275  -15.4241 C   0  0  0  0  0  0  0  0  0  0  0  0
   18.3875   -7.4439  -14.4475 O   0  0  0  0  0  0  0  0  0  0  0  0
   16.7955   -2.4971  -17.5951 O   0  0  0  0  0  0  0  0  0  0  0  0
   23.2983  -10.0430  -13.3147 C   0  0  0  0  0  0  0  0  0  0  0  0
   22.7262   -8.6544  -13.1997 C   0  0  0  0  0  0  0  0  0  0  0  0
   21.8723   -8.2328  -14.3404 C   0  0  2  0  0  0  0  0  0  0  0  0
   22.7873   -8.1049  -15.5696 C   0  0  0  0  0  0  0  0  0  0  0  0
   21.1936   -6.9169  -14.2077 C   0  0  2  0  0  0  0  0  0  0  0  0
   20.3445   -6.5321  -15.3083 N   0  0  0  0  0  0  0  0  0  0  0  0
   22.2435   -5.8652  -14.0343 C   0  0  0  0  0  0  0  0  0  0  0  0
   22.8531   -5.6037  -12.8195 O   0  0  0  0  0  0  0  0  0  0  0  0
   22.6089   -5.1736  -15.0106 O   0  0  0  0  0  0  0  0  0  0  0  0
  2  1  1  6
  2  3  1  0
  4  2  1  0
  4  5  2  0
  6  4  1  0
  7  6  1  0
  7 12  1  0
  7  8  1  1
  9  8  1  0
  9 10  1  0
 10 14  1  0
 11 10  2  0
 12 13  2  0
 12 20  1  0
 16 15  1  0
 17 18  1  6
 17 16  1  0
 19 17  1  0
 19 20  1  6
 21 22  1  0
 21 19  1  0
 23 21  2  0
M  END
$$$$
