AEI.pdb
     RDKit          3D

 23 22  0  0  1  0  0  0  0  0999 V2000
   14.8173  -10.2322  -15.8727 C   0  0  0  0  0  0  0  0  0  0  0  0
   16.0867   -9.7753  -16.5437 C   0  0  2  0  0  0  0  0  0  0  0  0
   16.9681  -10.8873  -16.6865 N   0  0  0  0  0  0  0  0  0  0  0  0
   16.6763   -8.6666  -15.7458 C   0  0  0  0  0  0  0  0  0  0  0  0
   16.9053   -8.8354  -14.5207 O   0  0  0  0  0  0  0  0  0  0  0  0
   17.0037   -7.3991  -16.2987 N   0  0  0  0  0  0  0  0  0  0  0  0
   17.7848   -6.4043  -15.5822 C   0  0  1  0  0  0  0  0  0  0  0  0
   19.0325   -6.9681  -14.9897 C   0  0  0  0  0  0  0  0  0  0  0  0
   20.0870   -7.3325  -15.9811 C   0  0  0  0  0  0  0  0  0  0  0  0
   21.2659   -7.8698  -15.2622 C   0  0  0  0  0  0  0  0  0  0  0  0
   22.2567   -8.3022  -15.9039 O   0  0  0  0  0  0  0  0  0  0  0  0
   18.0149   -5.2278  -16.4592 C   0  0  0  0  0  0  0  0  0  0  0  0
   18.1487   -5.4555  -17.6874 O   0  0  0  0  0  0  0  0  0  0  0  0
   21.3400   -7.9241  -13.8761 O   0  0  0  0  0  0  0  0  0  0  0  0
   14.7333   -1.0469  -16.6430 C   0  0  0  0  0  0  0  0  0  0  0  0
   15.7692   -2.1092  -16.9022 C   0  0  0  0  0  0  0  0  0  0  0  0
   17.1715   -1.6931  -16.6403 C   0  0  2  0  0  0  0  0  0  0  0  0
   17.5174   -0.5951  -17.6599 C   0  0  0  0  0  0  0  0  0  0  0  0
   18.2143   -2.7392  -16.8090 C   0  0  2  0  0  0  0  0  0  0  0  0
   18.0853   -3.8995  -15.9620 N   0  0  0  0  0  0  0  0  0  0  0  0
   19.5488   -2.1144  -16.5500 C   0  0  0  0  0  0  0  0  0  0  0  0
   20.2913   -1.4895  -17.5369 O   0  0  0  0  0  0  0  0  0  0  0  0
   20.0441   -2.1411  -15.4015 O   0  0  0  0  0  0  0  0  0  0  0  0
  2  1  1  1
  2  3  1  0
  4  2  1  0
  4  5  2  0
  6  4  1  0
  7  6  1  0
  7 12  1  0
  7  8  1  6
  9  8  1  0
  9 10  1  0
 10 14  1  0
 11 10  2  0
 12 13  2  0
 12 20  1  0
 16 15  1  0
 17 18  1  6
 17 16  1  0
 19 17  1  0
 19 20  1  1
 21 22  1  0
 21 19  1  0
 23 21  2  0
M  END
$$$$
