AEI.pdb
     RDKit          3D

 23 22  0  0  1  0  0  0  0  0999 V2000
   20.7260  -12.6229  -18.5501 C   0  0  0  0  0  0  0  0  0  0  0  0
   19.9459  -11.4956  -17.9249 C   0  0  2  0  0  0  0  0  0  0  0  0
   19.0487  -10.9533  -18.8919 N   0  0  0  0  0  0  0  0  0  0  0  0
   20.9038  -10.4887  -17.3938 C   0  0  0  0  0  0  0  0  0  0  0  0
   21.6624  -10.7953  -16.4386 O   0  0  0  0  0  0  0  0  0  0  0  0
   21.0150   -9.1709  -17.9137 N   0  0  0  0  0  0  0  0  0  0  0  0
   21.9626   -8.1969  -17.3975 C   0  0  1  0  0  0  0  0  0  0  0  0
   22.7470   -7.5279  -18.4759 C   0  0  0  0  0  0  0  0  0  0  0  0
   22.3397   -7.8932  -19.8645 C   0  0  0  0  0  0  0  0  0  0  0  0
   23.1655   -7.1310  -20.8301 C   0  0  0  0  0  0  0  0  0  0  0  0
   24.3905   -7.3844  -20.9551 O   0  0  0  0  0  0  0  0  0  0  0  0
   21.2600   -7.2523  -16.4918 C   0  0  0  0  0  0  0  0  0  0  0  0
   20.0977   -6.9099  -16.8232 O   0  0  0  0  0  0  0  0  0  0  0  0
   22.6460   -6.1208  -21.6297 O   0  0  0  0  0  0  0  0  0  0  0  0
   19.5872   -8.4681  -11.8582 C   0  0  0  0  0  0  0  0  0  0  0  0
   19.8647   -7.7701  -13.1638 C   0  0  0  0  0  0  0  0  0  0  0  0
   20.7788   -6.6025  -13.0673 C   0  0  2  0  0  0  0  0  0  0  0  0
   20.0621   -5.5329  -12.2266 C   0  0  0  0  0  0  0  0  0  0  0  0
   21.1353   -5.9341  -14.3465 C   0  0  2  0  0  0  0  0  0  0  0  0
   21.8483   -6.7444  -15.3033 N   0  0  0  0  0  0  0  0  0  0  0  0
   21.9724   -4.7352  -14.0296 C   0  0  0  0  0  0  0  0  0  0  0  0
   21.4348   -3.5349  -13.5985 O   0  0  0  0  0  0  0  0  0  0  0  0
   23.2166   -4.7868  -14.1498 O   0  0  0  0  0  0  0  0  0  0  0  0
  2  1  1  6
  2  3  1  0
  4  2  1  0
  4  5  2  0
  6  4  1  0
  7  6  1  0
  7 12  1  0
  7  8  1  6
  9  8  1  0
  9 10  1  0
 10 14  1  0
 11 10  2  0
 12 13  2  0
 12 20  1  0
 16 15  1  0
 17 18  1  1
 17 16  1  0
 19 17  1  0
 19 20  1  6
 21 22  1  0
 21 19  1  0
 23 21  2  0
M  END
$$$$
