AEI.pdb
     RDKit          3D

 23 22  0  0  1  0  0  0  0  0999 V2000
   14.0110   -9.7073  -15.3632 C   0  0  0  0  0  0  0  0  0  0  0  0
   15.2930  -10.0304  -16.0861 C   0  0  2  0  0  0  0  0  0  0  0  0
   15.6285  -11.3976  -15.8577 N   0  0  0  0  0  0  0  0  0  0  0  0
   16.3501   -9.0893  -15.6276 C   0  0  0  0  0  0  0  0  0  0  0  0
   16.3399   -8.6728  -14.4409 O   0  0  0  0  0  0  0  0  0  0  0  0
   17.3948   -8.6225  -16.4703 N   0  0  0  0  0  0  0  0  0  0  0  0
   18.4884   -7.7961  -15.9865 C   0  0  1  0  0  0  0  0  0  0  0  0
   19.7734   -8.5462  -15.8772 C   0  0  0  0  0  0  0  0  0  0  0  0
   20.9281   -7.7407  -15.3819 C   0  0  0  0  0  0  0  0  0  0  0  0
   22.1397   -8.5931  -15.3543 C   0  0  0  0  0  0  0  0  0  0  0  0
   23.0244   -8.4659  -16.2384 O   0  0  0  0  0  0  0  0  0  0  0  0
   18.5809   -6.5633  -16.8099 C   0  0  0  0  0  0  0  0  0  0  0  0
   18.5335   -6.7109  -18.0565 O   0  0  0  0  0  0  0  0  0  0  0  0
   22.3596   -9.5546  -14.3761 O   0  0  0  0  0  0  0  0  0  0  0  0
   16.0275   -1.4115  -17.9576 C   0  0  0  0  0  0  0  0  0  0  0  0
   17.3916   -1.9985  -17.7064 C   0  0  0  0  0  0  0  0  0  0  0  0
   17.3876   -3.3424  -17.0722 C   0  0  2  0  0  0  0  0  0  0  0  0
   16.9618   -3.1518  -15.6069 C   0  0  0  0  0  0  0  0  0  0  0  0
   18.6921   -4.0536  -17.0210 C   0  0  2  0  0  0  0  0  0  0  0  0
   18.7172   -5.2682  -16.2435 N   0  0  0  0  0  0  0  0  0  0  0  0
   19.7138   -3.1155  -16.4602 C   0  0  0  0  0  0  0  0  0  0  0  0
   20.2863   -3.2854  -15.2116 O   0  0  0  0  0  0  0  0  0  0  0  0
   20.0888   -2.1234  -17.1238 O   0  0  0  0  0  0  0  0  0  0  0  0
  2  1  1  1
  2  3  1  0
  4  2  1  0
  4  5  2  0
  6  4  1  0
  7  6  1  0
  7 12  1  0
  7  8  1  6
  9  8  1  0
  9 10  1  0
 10 14  1  0
 11 10  2  0
 12 13  2  0
 12 20  1  0
 16 15  1  0
 17 18  1  1
 17 16  1  0
 19 17  1  0
 19 20  1  1
 21 22  1  0
 21 19  1  0
 23 21  2  0
M  END
$$$$
