AEI.pdb
     RDKit          3D

 23 22  0  0  1  0  0  0  0  0999 V2000
   17.5142  -13.3270  -18.0552 C   0  0  0  0  0  0  0  0  0  0  0  0
   17.6425  -12.0035  -18.7640 C   0  0  2  0  0  0  0  0  0  0  0  0
   18.6853  -12.0897  -19.7331 N   0  0  0  0  0  0  0  0  0  0  0  0
   17.8788  -10.9400  -17.7508 C   0  0  0  0  0  0  0  0  0  0  0  0
   16.9852  -10.6761  -16.9060 O   0  0  0  0  0  0  0  0  0  0  0  0
   19.0821  -10.1872  -17.6795 N   0  0  0  0  0  0  0  0  0  0  0  0
   19.2882   -9.1196  -16.7147 C   0  0  1  0  0  0  0  0  0  0  0  0
   20.4721   -9.3555  -15.8379 C   0  0  0  0  0  0  0  0  0  0  0  0
   20.7433   -8.2721  -14.8479 C   0  0  0  0  0  0  0  0  0  0  0  0
   21.8943   -8.6639  -14.0011 C   0  0  0  0  0  0  0  0  0  0  0  0
   23.0170   -8.8866  -14.5211 O   0  0  0  0  0  0  0  0  0  0  0  0
   19.3135   -7.8121  -17.4190 C   0  0  0  0  0  0  0  0  0  0  0  0
   19.7732   -7.8083  -18.5881 O   0  0  0  0  0  0  0  0  0  0  0  0
   21.7994   -8.8031  -12.6222 O   0  0  0  0  0  0  0  0  0  0  0  0
   16.0442   -3.5549  -19.6273 C   0  0  0  0  0  0  0  0  0  0  0  0
   17.3201   -3.7492  -18.8507 C   0  0  0  0  0  0  0  0  0  0  0  0
   17.4517   -5.0704  -18.1836 C   0  0  2  0  0  0  0  0  0  0  0  0
   16.4082   -5.1153  -17.0550 C   0  0  0  0  0  0  0  0  0  0  0  0
   18.7577   -5.3558  -17.5332 C   0  0  2  0  0  0  0  0  0  0  0  0
   18.8483   -6.6091  -16.8250 N   0  0  0  0  0  0  0  0  0  0  0  0
   19.0513   -4.2495  -16.5697 C   0  0  0  0  0  0  0  0  0  0  0  0
   19.5192   -3.0093  -16.9680 O   0  0  0  0  0  0  0  0  0  0  0  0
   18.8773   -4.4206  -15.3427 O   0  0  0  0  0  0  0  0  0  0  0  0
  2  1  1  1
  2  3  1  0
  4  2  1  0
  4  5  2  0
  6  4  1  0
  7  6  1  0
  7 12  1  0
  7  8  1  6
  9  8  1  0
  9 10  1  0
 10 14  1  0
 11 10  2  0
 12 13  2  0
 12 20  1  0
 16 15  1  0
 17 18  1  1
 17 16  1  0
 19 17  1  0
 19 20  1  1
 21 22  1  0
 21 19  1  0
 23 21  2  0
M  END
$$$$
