AEI.pdb
     RDKit          3D

 23 22  0  0  1  0  0  0  0  0999 V2000
   25.1887  -14.3027  -15.0977 C   0  0  0  0  0  0  0  0  0  0  0  0
   26.2846  -15.2989  -15.3746 C   0  0  2  0  0  0  0  0  0  0  0  0
   26.5820  -15.2933  -16.7694 N   0  0  0  0  0  0  0  0  0  0  0  0
   25.8532  -16.6338  -14.8790 C   0  0  0  0  0  0  0  0  0  0  0  0
   24.6906  -16.7818  -14.4225 O   0  0  0  0  0  0  0  0  0  0  0  0
   26.6962  -17.7777  -14.8911 N   0  0  0  0  0  0  0  0  0  0  0  0
   26.2229  -19.1096  -14.5521 C   0  0  1  0  0  0  0  0  0  0  0  0
   26.4367  -20.0948  -15.6519 C   0  0  0  0  0  0  0  0  0  0  0  0
   26.0392  -21.4954  -15.3234 C   0  0  0  0  0  0  0  0  0  0  0  0
   26.3557  -22.3735  -16.4741 C   0  0  0  0  0  0  0  0  0  0  0  0
   27.3123  -23.1865  -16.4068 O   0  0  0  0  0  0  0  0  0  0  0  0
   26.8046  -19.5269  -13.2506 C   0  0  0  0  0  0  0  0  0  0  0  0
   28.0432  -19.3721  -13.1091 O   0  0  0  0  0  0  0  0  0  0  0  0
   25.6324  -22.3480  -17.6598 O   0  0  0  0  0  0  0  0  0  0  0  0
   26.6998  -19.7075   -7.2675 C   0  0  0  0  0  0  0  0  0  0  0  0
   26.8850  -20.5459   -8.5050 C   0  0  0  0  0  0  0  0  0  0  0  0
   26.2285  -20.0121   -9.7266 C   0  0  2  0  0  0  0  0  0  0  0  0
   24.7155  -20.2324   -9.5622 C   0  0  0  0  0  0  0  0  0  0  0  0
   26.5911  -20.6658  -11.0117 C   0  0  2  0  0  0  0  0  0  0  0  0
   26.0237  -20.0771  -12.1999 N   0  0  0  0  0  0  0  0  0  0  0  0
   26.1613  -22.0973  -10.9452 C   0  0  0  0  0  0  0  0  0  0  0  0
   25.1350  -22.6114  -11.7186 O   0  0  0  0  0  0  0  0  0  0  0  0
   26.7341  -22.8909  -10.1660 O   0  0  0  0  0  0  0  0  0  0  0  0
  2  1  1  6
  2  3  1  0
  4  2  1  0
  4  5  2  0
  6  4  1  0
  7  6  1  0
  7 12  1  0
  7  8  1  6
  9  8  1  0
  9 10  1  0
 10 14  1  0
 11 10  2  0
 12 13  2  0
 12 20  1  0
 16 15  1  0
 17 18  1  1
 17 16  1  0
 19 17  1  0
 19 20  1  6
 21 22  1  0
 21 19  1  0
 23 21  2  0
M  END
$$$$
