MPF.pdb
     RDKit          3D

 27 28  0  0  1  0  0  0  0  0999 V2000
    4.8863  -12.4748   26.4683 C   0  0  0  0  0  0  0  0  0  0  0  0
    6.5626  -13.1376   26.4621 S   0  0  0  0  0  0  0  0  0  0  0  0
    6.5835  -14.8787   26.0486 C   0  0  0  0  0  0  0  0  0  0  0  0
    5.8487  -15.1744   24.7870 C   0  0  0  0  0  0  0  0  0  0  0  0
    6.1198  -16.5411   24.2755 C   0  0  2  0  0  0  0  0  0  0  0  0
    5.8663  -17.5536   25.2393 N   0  0  0  0  0  0  0  0  0  0  0  0
    7.4180  -16.6277   23.5758 C   0  0  0  0  0  0  0  0  0  0  0  0
    8.1019  -17.6823   23.8208 O   0  0  0  0  0  0  0  0  0  0  0  0
    7.9652  -15.6902   22.6908 N   0  0  0  0  0  0  0  0  0  0  0  0
    7.6188  -14.3110   22.4739 C   0  0  0  0  0  0  0  0  0  0  0  0
    7.6024  -14.3007   20.9315 C   0  0  0  0  0  0  0  0  0  0  0  0
    8.9182  -14.9568   20.6387 C   0  0  0  0  0  0  0  0  0  0  0  0
    9.1096  -15.9363   21.7699 C   0  0  1  0  0  0  0  0  0  0  0  0
   10.3610  -15.6006   22.5129 C   0  0  0  0  0  0  0  0  0  0  0  0
   10.9291  -14.4709   22.3691 O   0  0  0  0  0  0  0  0  0  0  0  0
   10.9511  -16.5177   23.3926 N   0  0  0  0  0  0  0  0  0  0  0  0
   11.3762  -16.1392   24.7577 C   0  0  1  0  0  0  0  0  0  0  0  0
   10.1406  -15.7002   25.5018 C   0  0  0  0  0  0  0  0  0  0  0  0
   10.4781  -15.1995   26.8465 C   0  0  0  0  0  0  0  0  0  0  0  0
   10.6350  -13.8391   27.1277 C   0  0  0  0  0  0  0  0  0  0  0  0
   10.9416  -13.3782   28.3907 C   0  0  0  0  0  0  0  0  0  0  0  0
   11.1031  -14.2761   29.4246 C   0  0  0  0  0  0  0  0  0  0  0  0
   10.9538  -15.6069   29.1676 C   0  0  0  0  0  0  0  0  0  0  0  0
   10.6500  -16.0703   27.9193 C   0  0  0  0  0  0  0  0  0  0  0  0
   11.9452  -17.3195   25.4253 C   0  0  0  0  0  0  0  0  0  0  0  0
   11.3957  -18.4404   25.3966 O   0  0  0  0  0  0  0  0  0  0  0  0
   13.1385  -17.1924   26.1161 O   0  0  0  0  0  0  0  0  0  0  0  0
  2  1  1  0
  3  2  1  0
  4  3  1  0
  4  5  1  0
  5  7  1  0
  5  6  1  1
  7  8  2  0
  9 13  1  0
  9  7  1  0
 10  9  1  0
 11 10  1  0
 11 12  1  0
 12 13  1  0
 14 15  2  0
 13 14  1  1
 16 14  1  0
 17 16  1  0
 17 25  1  0
 17 18  1  1
 19 18  1  0
 20 19  2  0
 21 20  1  0
 22 21  2  0
 22 23  1  0
 23 24  2  0
 24 19  1  0
 25 27  1  0
 26 25  2  0
M  END
$$$$
