MPF.pdb
     RDKit          3D

 27 28  0  0  1  0  0  0  0  0999 V2000
    8.9791  -21.5006   22.3879 C   0  0  0  0  0  0  0  0  0  0  0  0
    8.4617  -21.1083   20.7064 S   0  0  0  0  0  0  0  0  0  0  0  0
    9.1858  -19.5756   20.1324 C   0  0  0  0  0  0  0  0  0  0  0  0
    8.2187  -18.7383   19.3692 C   0  0  0  0  0  0  0  0  0  0  0  0
    8.7834  -17.4202   18.9857 C   0  0  2  0  0  0  0  0  0  0  0  0
    9.6942  -17.5031   17.8986 N   0  0  0  0  0  0  0  0  0  0  0  0
    9.2468  -16.6495   20.1577 C   0  0  0  0  0  0  0  0  0  0  0  0
   10.5119  -16.4622   20.2234 O   0  0  0  0  0  0  0  0  0  0  0  0
    8.4574  -16.1154   21.1839 N   0  0  0  0  0  0  0  0  0  0  0  0
    7.0441  -16.2380   21.4229 C   0  0  0  0  0  0  0  0  0  0  0  0
    6.7182  -14.7631   21.7353 C   0  0  0  0  0  0  0  0  0  0  0  0
    7.7806  -14.4558   22.7475 C   0  0  0  0  0  0  0  0  0  0  0  0
    8.9584  -15.2974   22.3232 C   0  0  1  0  0  0  0  0  0  0  0  0
    9.3195  -16.2395   23.4246 C   0  0  0  0  0  0  0  0  0  0  0  0
    8.8414  -17.4181   23.4662 O   0  0  0  0  0  0  0  0  0  0  0  0
   10.1965  -15.8572   24.4484 N   0  0  0  0  0  0  0  0  0  0  0  0
   10.8351  -16.8422   25.3481 C   0  0  1  0  0  0  0  0  0  0  0  0
   11.6578  -16.0654   26.3445 C   0  0  0  0  0  0  0  0  0  0  0  0
   10.7972  -15.3548   27.3074 C   0  0  0  0  0  0  0  0  0  0  0  0
   10.1236  -14.1722   26.9877 C   0  0  0  0  0  0  0  0  0  0  0  0
    9.3128  -13.5186   27.8917 C   0  0  0  0  0  0  0  0  0  0  0  0
    9.1491  -14.0347   29.1597 C   0  0  0  0  0  0  0  0  0  0  0  0
    9.7993  -15.1874   29.4882 C   0  0  0  0  0  0  0  0  0  0  0  0
   10.6037  -15.8401   28.5980 C   0  0  0  0  0  0  0  0  0  0  0  0
    9.7871  -17.5841   26.0649 C   0  0  0  0  0  0  0  0  0  0  0  0
   10.0414  -18.5231   26.8477 O   0  0  0  0  0  0  0  0  0  0  0  0
    8.4615  -17.2344   25.8701 O   0  0  0  0  0  0  0  0  0  0  0  0
  2  1  1  0
  3  2  1  0
  4  3  1  0
  4  5  1  0
  5  7  1  0
  5  6  1  6
  7  8  2  0
  9 13  1  0
  9  7  1  0
 10  9  1  0
 11 10  1  0
 11 12  1  0
 12 13  1  0
 14 15  2  0
 13 14  1  1
 16 14  1  0
 17 16  1  0
 17 25  1  0
 17 18  1  1
 19 18  1  0
 20 19  2  0
 21 20  1  0
 22 21  2  0
 22 23  1  0
 23 24  2  0
 24 19  1  0
 25 27  1  0
 26 25  2  0
M  END
$$$$
