MPF.pdb
     RDKit          3D

 27 28  0  0  1  0  0  0  0  0999 V2000
    8.2451  -11.5855   20.4343 C   0  0  0  0  0  0  0  0  0  0  0  0
    8.2268  -12.3522   18.8031 S   0  0  0  0  0  0  0  0  0  0  0  0
    7.8938  -14.1078   18.9015 C   0  0  0  0  0  0  0  0  0  0  0  0
    7.9905  -14.6298   20.2933 C   0  0  0  0  0  0  0  0  0  0  0  0
    7.5550  -16.0444   20.4039 C   0  0  2  0  0  0  0  0  0  0  0  0
    6.2572  -16.2677   19.8707 N   0  0  0  0  0  0  0  0  0  0  0  0
    7.8037  -16.6012   21.7494 C   0  0  0  0  0  0  0  0  0  0  0  0
    6.9241  -16.3092   22.6331 O   0  0  0  0  0  0  0  0  0  0  0  0
    8.8839  -17.3988   22.1476 N   0  0  0  0  0  0  0  0  0  0  0  0
    9.9993  -17.8930   21.3852 C   0  0  0  0  0  0  0  0  0  0  0  0
   10.0031  -19.3559   21.8743 C   0  0  0  0  0  0  0  0  0  0  0  0
    9.9457  -19.1494   23.3581 C   0  0  0  0  0  0  0  0  0  0  0  0
    9.1304  -17.8921   23.5311 C   0  0  1  0  0  0  0  0  0  0  0  0
    9.9500  -16.8600   24.2339 C   0  0  0  0  0  0  0  0  0  0  0  0
   11.0286  -16.4166   23.7243 O   0  0  0  0  0  0  0  0  0  0  0  0
    9.5590  -16.3456   25.4772 N   0  0  0  0  0  0  0  0  0  0  0  0
   10.4742  -15.5507   26.3246 C   0  0  1  0  0  0  0  0  0  0  0  0
   10.2865  -14.1038   25.9450 C   0  0  0  0  0  0  0  0  0  0  0  0
    8.9056  -13.6590   26.2065 C   0  0  0  0  0  0  0  0  0  0  0  0
    8.5571  -12.8994   27.3271 C   0  0  0  0  0  0  0  0  0  0  0  0
    7.2643  -12.4793   27.5596 C   0  0  0  0  0  0  0  0  0  0  0  0
    6.2676  -12.8111   26.6665 C   0  0  0  0  0  0  0  0  0  0  0  0
    6.5903  -13.5520   25.5681 C   0  0  0  0  0  0  0  0  0  0  0  0
    7.8685  -13.9712   25.3315 C   0  0  0  0  0  0  0  0  0  0  0  0
   10.0966  -15.7304   27.7345 C   0  0  0  0  0  0  0  0  0  0  0  0
    9.0642  -16.3400   28.0833 O   0  0  0  0  0  0  0  0  0  0  0  0
   10.9129  -15.2058   28.7223 O   0  0  0  0  0  0  0  0  0  0  0  0
  2  1  1  0
  3  2  1  0
  4  3  1  0
  4  5  1  0
  5  7  1  0
  5  6  1  1
  7  8  2  0
  9 13  1  0
  9  7  1  0
 10  9  1  0
 11 10  1  0
 11 12  1  0
 12 13  1  0
 14 15  2  0
 13 14  1  1
 16 14  1  0
 17 16  1  0
 17 25  1  0
 17 18  1  6
 19 18  1  0
 20 19  2  0
 21 20  1  0
 22 21  2  0
 22 23  1  0
 23 24  2  0
 24 19  1  0
 25 27  1  0
 26 25  2  0
M  END
$$$$
