MPF.pdb
     RDKit          3D

 27 28  0  0  1  0  0  0  0  0999 V2000
    4.6381  -20.4216   23.2308 C   0  0  0  0  0  0  0  0  0  0  0  0
    6.2942  -19.8519   23.6573 S   0  0  0  0  0  0  0  0  0  0  0  0
    7.1241  -19.1195   22.2510 C   0  0  0  0  0  0  0  0  0  0  0  0
    6.1785  -18.4456   21.3178 C   0  0  0  0  0  0  0  0  0  0  0  0
    6.8559  -17.8970   20.1165 C   0  0  2  0  0  0  0  0  0  0  0  0
    7.2086  -18.8992   19.1734 N   0  0  0  0  0  0  0  0  0  0  0  0
    7.9231  -16.9375   20.4671 C   0  0  0  0  0  0  0  0  0  0  0  0
    9.1187  -17.3725   20.3221 O   0  0  0  0  0  0  0  0  0  0  0  0
    7.7613  -15.6270   20.9341 N   0  0  0  0  0  0  0  0  0  0  0  0
    6.6103  -14.9867   21.5126 C   0  0  0  0  0  0  0  0  0  0  0  0
    6.6453  -13.6601   20.7264 C   0  0  0  0  0  0  0  0  0  0  0  0
    8.0814  -13.2703   20.9097 C   0  0  0  0  0  0  0  0  0  0  0  0
    8.8229  -14.5828   20.9638 C   0  0  1  0  0  0  0  0  0  0  0  0
    9.5297  -14.7016   22.2742 C   0  0  0  0  0  0  0  0  0  0  0  0
   10.6782  -14.1831   22.4522 O   0  0  0  0  0  0  0  0  0  0  0  0
    8.9522  -15.3875   23.3509 N   0  0  0  0  0  0  0  0  0  0  0  0
    9.6546  -15.5654   24.6403 C   0  0  1  0  0  0  0  0  0  0  0  0
    9.9896  -14.1893   25.1570 C   0  0  0  0  0  0  0  0  0  0  0  0
    8.7929  -13.5150   25.6917 C   0  0  0  0  0  0  0  0  0  0  0  0
    8.8589  -12.3152   26.4063 C   0  0  0  0  0  0  0  0  0  0  0  0
    7.7335  -11.6858   26.8952 C   0  0  0  0  0  0  0  0  0  0  0  0
    6.4914  -12.2450   26.6817 C   0  0  0  0  0  0  0  0  0  0  0  0
    6.4091  -13.4154   25.9868 C   0  0  0  0  0  0  0  0  0  0  0  0
    7.5194  -14.0440   25.4996 C   0  0  0  0  0  0  0  0  0  0  0  0
    8.7485  -16.2280   25.5903 C   0  0  0  0  0  0  0  0  0  0  0  0
    7.5375  -16.4136   25.3491 O   0  0  0  0  0  0  0  0  0  0  0  0
    9.2495  -16.6672   26.8041 O   0  0  0  0  0  0  0  0  0  0  0  0
  2  1  1  0
  3  2  1  0
  4  3  1  0
  4  5  1  0
  5  7  1  0
  5  6  1  1
  7  8  2  0
  9 13  1  0
  9  7  1  0
 10  9  1  0
 11 10  1  0
 11 12  1  0
 12 13  1  0
 14 15  2  0
 13 14  1  1
 16 14  1  0
 17 16  1  0
 17 25  1  0
 17 18  1  1
 19 18  1  0
 20 19  2  0
 21 20  1  0
 22 21  2  0
 22 23  1  0
 23 24  2  0
 24 19  1  0
 25 27  1  0
 26 25  2  0
M  END
$$$$
