MPF.pdb
     RDKit          3D

 27 28  0  0  1  0  0  0  0  0999 V2000
    6.0414  -11.0802   26.1860 C   0  0  0  0  0  0  0  0  0  0  0  0
    5.5197  -12.5796   27.0397 S   0  0  0  0  0  0  0  0  0  0  0  0
    5.6286  -14.0165   25.9785 C   0  0  0  0  0  0  0  0  0  0  0  0
    6.7068  -14.9550   26.3976 C   0  0  0  0  0  0  0  0  0  0  0  0
    7.1584  -15.8360   25.2917 C   0  0  2  0  0  0  0  0  0  0  0  0
    8.4464  -16.3916   25.5171 N   0  0  0  0  0  0  0  0  0  0  0  0
    6.9446  -15.2211   23.9656 C   0  0  0  0  0  0  0  0  0  0  0  0
    5.7425  -14.8537   23.7207 O   0  0  0  0  0  0  0  0  0  0  0  0
    7.9050  -15.0056   22.9692 N   0  0  0  0  0  0  0  0  0  0  0  0
    8.0760  -13.8920   22.0748 C   0  0  0  0  0  0  0  0  0  0  0  0
    8.3076  -14.6651   20.7603 C   0  0  0  0  0  0  0  0  0  0  0  0
    9.3590  -15.6405   21.1973 C   0  0  0  0  0  0  0  0  0  0  0  0
    9.0324  -15.9224   22.6428 C   0  0  1  0  0  0  0  0  0  0  0  0
   10.1903  -15.5294   23.5005 C   0  0  0  0  0  0  0  0  0  0  0  0
   10.1511  -14.4798   24.2192 O   0  0  0  0  0  0  0  0  0  0  0  0
   11.3579  -16.3028   23.5427 N   0  0  0  0  0  0  0  0  0  0  0  0
   12.3463  -16.1793   24.6361 C   0  0  1  0  0  0  0  0  0  0  0  0
   11.7657  -16.8765   25.8402 C   0  0  0  0  0  0  0  0  0  0  0  0
   11.3589  -15.9065   26.8728 C   0  0  0  0  0  0  0  0  0  0  0  0
   10.9300  -16.2948   28.1455 C   0  0  0  0  0  0  0  0  0  0  0  0
   10.5599  -15.3804   29.1092 C   0  0  0  0  0  0  0  0  0  0  0  0
   10.6079  -14.0320   28.8253 C   0  0  0  0  0  0  0  0  0  0  0  0
   11.0236  -13.6360   27.5884 C   0  0  0  0  0  0  0  0  0  0  0  0
   11.3918  -14.5360   26.6293 C   0  0  0  0  0  0  0  0  0  0  0  0
   13.5868  -16.8612   24.2377 C   0  0  0  0  0  0  0  0  0  0  0  0
   13.6084  -18.0467   23.8461 O   0  0  0  0  0  0  0  0  0  0  0  0
   14.7844  -16.1686   24.2959 O   0  0  0  0  0  0  0  0  0  0  0  0
  2  1  1  0
  3  2  1  0
  4  3  1  0
  4  5  1  0
  5  7  1  0
  5  6  1  1
  7  8  2  0
  9 13  1  0
  9  7  1  0
 10  9  1  0
 11 10  1  0
 11 12  1  0
 12 13  1  0
 14 15  2  0
 13 14  1  1
 16 14  1  0
 17 16  1  0
 17 25  1  0
 17 18  1  1
 19 18  1  0
 20 19  2  0
 21 20  1  0
 22 21  2  0
 22 23  1  0
 23 24  2  0
 24 19  1  0
 25 27  1  0
 26 25  2  0
M  END
$$$$
