MPF.pdb
     RDKit          3D

 27 28  0  0  1  0  0  0  0  0999 V2000
    3.1574  -19.6561   23.2638 C   0  0  0  0  0  0  0  0  0  0  0  0
    3.1455  -18.3696   22.0014 S   0  0  0  0  0  0  0  0  0  0  0  0
    4.7179  -18.2603   21.1539 C   0  0  0  0  0  0  0  0  0  0  0  0
    4.7707  -17.1228   20.1935 C   0  0  0  0  0  0  0  0  0  0  0  0
    6.0556  -17.0601   19.4531 C   0  0  2  0  0  0  0  0  0  0  0  0
    6.3610  -18.2681   18.7706 N   0  0  0  0  0  0  0  0  0  0  0  0
    7.1444  -16.4895   20.2724 C   0  0  0  0  0  0  0  0  0  0  0  0
    8.0349  -17.3255   20.6571 O   0  0  0  0  0  0  0  0  0  0  0  0
    7.2963  -15.1533   20.6639 N   0  0  0  0  0  0  0  0  0  0  0  0
    6.3762  -14.0515   20.5692 C   0  0  0  0  0  0  0  0  0  0  0  0
    7.3351  -12.9767   20.0173 C   0  0  0  0  0  0  0  0  0  0  0  0
    8.4815  -13.1146   20.9734 C   0  0  0  0  0  0  0  0  0  0  0  0
    8.4972  -14.5797   21.3324 C   0  0  1  0  0  0  0  0  0  0  0  0
    8.3045  -14.7334   22.8055 C   0  0  0  0  0  0  0  0  0  0  0  0
    7.3450  -14.1539   23.4081 O   0  0  0  0  0  0  0  0  0  0  0  0
    9.1734  -15.5204   23.5730 N   0  0  0  0  0  0  0  0  0  0  0  0
    9.4852  -15.2041   24.9837 C   0  0  1  0  0  0  0  0  0  0  0  0
    8.2109  -15.3795   25.7702 C   0  0  0  0  0  0  0  0  0  0  0  0
    7.6757  -14.0799   26.2143 C   0  0  0  0  0  0  0  0  0  0  0  0
    6.3536  -13.6892   25.9820 C   0  0  0  0  0  0  0  0  0  0  0  0
    5.8581  -12.4752   26.4092 C   0  0  0  0  0  0  0  0  0  0  0  0
    6.6809  -11.6034   27.0904 C   0  0  0  0  0  0  0  0  0  0  0  0
    7.9735  -11.9687   27.3252 C   0  0  0  0  0  0  0  0  0  0  0  0
    8.4709  -13.1694   26.9052 C   0  0  0  0  0  0  0  0  0  0  0  0
   10.4893  -16.1588   25.4766 C   0  0  0  0  0  0  0  0  0  0  0  0
   10.2807  -16.9146   26.4484 O   0  0  0  0  0  0  0  0  0  0  0  0
   11.7187  -16.2296   24.8436 O   0  0  0  0  0  0  0  0  0  0  0  0
  2  1  1  0
  3  2  1  0
  4  3  1  0
  4  5  1  0
  5  7  1  0
  5  6  1  1
  7  8  2  0
  9 13  1  0
  9  7  1  0
 10  9  1  0
 11 10  1  0
 11 12  1  0
 12 13  1  0
 14 15  2  0
 13 14  1  1
 16 14  1  0
 17 16  1  0
 17 25  1  0
 17 18  1  1
 19 18  1  0
 20 19  2  0
 21 20  1  0
 22 21  2  0
 22 23  1  0
 23 24  2  0
 24 19  1  0
 25 27  1  0
 26 25  2  0
M  END
$$$$
