MPF.pdb
     RDKit          3D

 27 28  0  0  1  0  0  0  0  0999 V2000
    4.5315  -12.4801   25.9240 C   0  0  0  0  0  0  0  0  0  0  0  0
    6.2417  -12.9554   26.2376 S   0  0  0  0  0  0  0  0  0  0  0  0
    6.7658  -14.2865   25.1621 C   0  0  0  0  0  0  0  0  0  0  0  0
    5.8979  -15.4914   25.2810 C   0  0  0  0  0  0  0  0  0  0  0  0
    6.1328  -16.4735   24.1931 C   0  0  2  0  0  0  0  0  0  0  0  0
    5.3163  -17.6307   24.3060 N   0  0  0  0  0  0  0  0  0  0  0  0
    7.5714  -16.7193   23.9643 C   0  0  0  0  0  0  0  0  0  0  0  0
    7.9917  -17.8757   24.3192 O   0  0  0  0  0  0  0  0  0  0  0  0
    8.5028  -15.8318   23.4108 N   0  0  0  0  0  0  0  0  0  0  0  0
    8.4546  -14.3995   23.2858 C   0  0  0  0  0  0  0  0  0  0  0  0
    8.9219  -14.2641   21.8220 C   0  0  0  0  0  0  0  0  0  0  0  0
   10.1480  -15.1266   21.8446 C   0  0  0  0  0  0  0  0  0  0  0  0
    9.8261  -16.2112   22.8424 C   0  0  1  0  0  0  0  0  0  0  0  0
   10.8189  -16.1723   23.9576 C   0  0  0  0  0  0  0  0  0  0  0  0
   11.8023  -15.3648   23.9358 O   0  0  0  0  0  0  0  0  0  0  0  0
   10.7009  -17.0232   25.0645 N   0  0  0  0  0  0  0  0  0  0  0  0
   11.7692  -17.1490   26.0796 C   0  0  1  0  0  0  0  0  0  0  0  0
   11.1257  -16.9498   27.4284 C   0  0  0  0  0  0  0  0  0  0  0  0
   10.8000  -15.5308   27.6590 C   0  0  0  0  0  0  0  0  0  0  0  0
   11.7369  -14.6096   28.1369 C   0  0  0  0  0  0  0  0  0  0  0  0
   11.4266  -13.2816   28.3411 C   0  0  0  0  0  0  0  0  0  0  0  0
   10.1528  -12.8285   28.0703 C   0  0  0  0  0  0  0  0  0  0  0  0
    9.2266  -13.7140   27.6038 C   0  0  0  0  0  0  0  0  0  0  0  0
    9.5269  -15.0305   27.3991 C   0  0  0  0  0  0  0  0  0  0  0  0
   12.3345  -18.5049   26.0126 C   0  0  0  0  0  0  0  0  0  0  0  0
   13.3260  -18.8558   26.6855 O   0  0  0  0  0  0  0  0  0  0  0  0
   11.7502  -19.4371   25.1718 O   0  0  0  0  0  0  0  0  0  0  0  0
  2  1  1  0
  3  2  1  0
  4  3  1  0
  4  5  1  0
  5  7  1  0
  5  6  1  1
  7  8  2  0
  9 13  1  0
  9  7  1  0
 10  9  1  0
 11 10  1  0
 11 12  1  0
 12 13  1  0
 14 15  2  0
 13 14  1  1
 16 14  1  0
 17 16  1  0
 17 25  1  0
 17 18  1  1
 19 18  1  0
 20 19  2  0
 21 20  1  0
 22 21  2  0
 22 23  1  0
 23 24  2  0
 24 19  1  0
 25 27  1  0
 26 25  2  0
M  END
$$$$
