MPF.pdb
     RDKit          3D

 27 28  0  0  1  0  0  0  0  0999 V2000
   13.6768  -13.6757   19.1365 C   0  0  0  0  0  0  0  0  0  0  0  0
   12.9474  -15.0337   18.2023 S   0  0  0  0  0  0  0  0  0  0  0  0
   11.1994  -14.7763   17.9171 C   0  0  0  0  0  0  0  0  0  0  0  0
   10.4904  -14.2807   19.1299 C   0  0  0  0  0  0  0  0  0  0  0  0
    9.0247  -14.1643   18.9264 C   0  0  2  0  0  0  0  0  0  0  0  0
    8.6493  -12.9549   18.2824 N   0  0  0  0  0  0  0  0  0  0  0  0
    8.2632  -14.5094   20.1444 C   0  0  0  0  0  0  0  0  0  0  0  0
    8.0095  -13.5281   20.9269 O   0  0  0  0  0  0  0  0  0  0  0  0
    7.8019  -15.7768   20.5219 N   0  0  0  0  0  0  0  0  0  0  0  0
    8.0038  -17.0579   19.8994 C   0  0  0  0  0  0  0  0  0  0  0  0
    6.5577  -17.5913   19.9589 C   0  0  0  0  0  0  0  0  0  0  0  0
    6.2277  -17.3299   21.3978 C   0  0  0  0  0  0  0  0  0  0  0  0
    6.9948  -16.0761   21.7373 C   0  0  1  0  0  0  0  0  0  0  0  0
    7.9505  -16.3628   22.8487 C   0  0  0  0  0  0  0  0  0  0  0  0
    8.9994  -17.0562   22.6527 O   0  0  0  0  0  0  0  0  0  0  0  0
    7.7243  -15.8780   24.1438 N   0  0  0  0  0  0  0  0  0  0  0  0
    8.6635  -16.1351   25.2570 C   0  0  1  0  0  0  0  0  0  0  0  0
    9.2055  -14.7992   25.6981 C   0  0  0  0  0  0  0  0  0  0  0  0
    8.1164  -13.8354   25.9385 C   0  0  0  0  0  0  0  0  0  0  0  0
    7.5112  -13.6771   27.1888 C   0  0  0  0  0  0  0  0  0  0  0  0
    6.4990  -12.7664   27.4076 C   0  0  0  0  0  0  0  0  0  0  0  0
    6.0554  -11.9760   26.3686 C   0  0  0  0  0  0  0  0  0  0  0  0
    6.6347  -12.1177   25.1423 C   0  0  0  0  0  0  0  0  0  0  0  0
    7.6376  -13.0175   24.9185 C   0  0  0  0  0  0  0  0  0  0  0  0
    7.9258  -16.7465   26.3726 C   0  0  0  0  0  0  0  0  0  0  0  0
    6.6789  -16.8058   26.4042 O   0  0  0  0  0  0  0  0  0  0  0  0
    8.6341  -17.2808   27.4356 O   0  0  0  0  0  0  0  0  0  0  0  0
  2  1  1  0
  3  2  1  0
  4  3  1  0
  4  5  1  0
  5  7  1  0
  5  6  1  1
  7  8  2  0
  9 13  1  0
  9  7  1  0
 10  9  1  0
 11 10  1  0
 11 12  1  0
 12 13  1  0
 14 15  2  0
 13 14  1  1
 16 14  1  0
 17 16  1  0
 17 25  1  0
 17 18  1  1
 19 18  1  0
 20 19  2  0
 21 20  1  0
 22 21  2  0
 22 23  1  0
 23 24  2  0
 24 19  1  0
 25 27  1  0
 26 25  2  0
M  END
$$$$
