MPF.pdb
     RDKit          3D

 27 28  0  0  1  0  0  0  0  0999 V2000
    5.8772  -12.4583   26.9610 C   0  0  0  0  0  0  0  0  0  0  0  0
    6.5060  -12.3729   25.2739 S   0  0  0  0  0  0  0  0  0  0  0  0
    6.4894  -13.9768   24.4801 C   0  0  0  0  0  0  0  0  0  0  0  0
    7.0037  -13.9272   23.0829 C   0  0  0  0  0  0  0  0  0  0  0  0
    7.0087  -15.2597   22.4290 C   0  0  2  0  0  0  0  0  0  0  0  0
    5.7162  -15.8448   22.3542 N   0  0  0  0  0  0  0  0  0  0  0  0
    8.0821  -16.1319   22.9480 C   0  0  0  0  0  0  0  0  0  0  0  0
    7.6949  -17.0692   23.7299 O   0  0  0  0  0  0  0  0  0  0  0  0
    9.4530  -16.0373   22.6774 N   0  0  0  0  0  0  0  0  0  0  0  0
   10.1952  -14.9989   22.0138 C   0  0  0  0  0  0  0  0  0  0  0  0
   11.0695  -15.8724   21.0908 C   0  0  0  0  0  0  0  0  0  0  0  0
   11.5987  -16.8696   22.0772 C   0  0  0  0  0  0  0  0  0  0  0  0
   10.4844  -17.0330   23.0809 C   0  0  1  0  0  0  0  0  0  0  0  0
   10.9747  -16.6436   24.4369 C   0  0  0  0  0  0  0  0  0  0  0  0
   11.6619  -15.5866   24.6101 O   0  0  0  0  0  0  0  0  0  0  0  0
   10.6946  -17.4287   25.5632 N   0  0  0  0  0  0  0  0  0  0  0  0
   11.3928  -17.2351   26.8526 C   0  0  1  0  0  0  0  0  0  0  0  0
   10.3493  -16.8446   27.8683 C   0  0  0  0  0  0  0  0  0  0  0  0
    9.9329  -15.4416   27.6920 C   0  0  0  0  0  0  0  0  0  0  0  0
    8.7408  -15.0826   27.0560 C   0  0  0  0  0  0  0  0  0  0  0  0
    8.3540  -13.7677   26.9035 C   0  0  0  0  0  0  0  0  0  0  0  0
    9.1587  -12.7586   27.3886 C   0  0  0  0  0  0  0  0  0  0  0  0
   10.3253  -13.0914   28.0113 C   0  0  0  0  0  0  0  0  0  0  0  0
   10.7145  -14.3914   28.1660 C   0  0  0  0  0  0  0  0  0  0  0  0
   12.0064  -18.5082   27.2592 C   0  0  0  0  0  0  0  0  0  0  0  0
   11.7865  -19.5832   26.6632 O   0  0  0  0  0  0  0  0  0  0  0  0
   12.8643  -18.5253   28.3459 O   0  0  0  0  0  0  0  0  0  0  0  0
  2  1  1  0
  3  2  1  0
  4  3  1  0
  4  5  1  0
  5  7  1  0
  5  6  1  1
  7  8  2  0
  9 13  1  0
  9  7  1  0
 10  9  1  0
 11 10  1  0
 11 12  1  0
 12 13  1  0
 14 15  2  0
 13 14  1  1
 16 14  1  0
 17 16  1  0
 17 25  1  0
 17 18  1  1
 19 18  1  0
 20 19  2  0
 21 20  1  0
 22 21  2  0
 22 23  1  0
 23 24  2  0
 24 19  1  0
 25 27  1  0
 26 25  2  0
M  END
$$$$
