MPF.pdb
     RDKit          3D

 27 28  0  0  1  0  0  0  0  0999 V2000
    6.9814  -18.4818   26.3899 C   0  0  0  0  0  0  0  0  0  0  0  0
    7.7747  -19.8769   25.5692 S   0  0  0  0  0  0  0  0  0  0  0  0
    7.2628  -20.0168   23.8600 C   0  0  0  0  0  0  0  0  0  0  0  0
    6.3945  -18.8853   23.4301 C   0  0  0  0  0  0  0  0  0  0  0  0
    6.5624  -18.5508   21.9938 C   0  0  2  0  0  0  0  0  0  0  0  0
    6.6680  -19.7006   21.1660 N   0  0  0  0  0  0  0  0  0  0  0  0
    7.5852  -17.5065   21.7800 C   0  0  0  0  0  0  0  0  0  0  0  0
    8.6907  -17.9178   21.2815 O   0  0  0  0  0  0  0  0  0  0  0  0
    7.4698  -16.1398   22.0637 N   0  0  0  0  0  0  0  0  0  0  0  0
    6.3857  -15.4078   22.6623 C   0  0  0  0  0  0  0  0  0  0  0  0
    6.3300  -14.2114   21.6902 C   0  0  0  0  0  0  0  0  0  0  0  0
    7.7758  -13.8163   21.6583 C   0  0  0  0  0  0  0  0  0  0  0  0
    8.5241  -15.1154   21.8248 C   0  0  1  0  0  0  0  0  0  0  0  0
    9.3693  -15.0491   23.0545 C   0  0  0  0  0  0  0  0  0  0  0  0
   10.4449  -14.3694   23.0783 O   0  0  0  0  0  0  0  0  0  0  0  0
    9.0062  -15.7326   24.2226 N   0  0  0  0  0  0  0  0  0  0  0  0
    9.8015  -15.6452   25.4666 C   0  0  1  0  0  0  0  0  0  0  0  0
    8.8332  -15.4023   26.5963 C   0  0  0  0  0  0  0  0  0  0  0  0
    8.1669  -14.0950   26.4553 C   0  0  0  0  0  0  0  0  0  0  0  0
    6.7854  -13.9668   26.2839 C   0  0  0  0  0  0  0  0  0  0  0  0
    6.1687  -12.7393   26.1621 C   0  0  0  0  0  0  0  0  0  0  0  0
    6.9253  -11.5875   26.2084 C   0  0  0  0  0  0  0  0  0  0  0  0
    8.2745  -11.6947   26.3747 C   0  0  0  0  0  0  0  0  0  0  0  0
    8.8918  -12.9069   26.4962 C   0  0  0  0  0  0  0  0  0  0  0  0
   10.4853  -16.9282   25.6873 C   0  0  0  0  0  0  0  0  0  0  0  0
   10.2945  -17.9271   24.9627 O   0  0  0  0  0  0  0  0  0  0  0  0
   11.3789  -17.0427   26.7388 O   0  0  0  0  0  0  0  0  0  0  0  0
  2  1  1  0
  3  2  1  0
  4  3  1  0
  4  5  1  0
  5  7  1  0
  5  6  1  6
  7  8  2  0
  9 13  1  0
  9  7  1  0
 10  9  1  0
 11 10  1  0
 11 12  1  0
 12 13  1  0
 14 15  2  0
 13 14  1  1
 16 14  1  0
 17 16  1  0
 17 25  1  0
 17 18  1  1
 19 18  1  0
 20 19  2  0
 21 20  1  0
 22 21  2  0
 22 23  1  0
 23 24  2  0
 24 19  1  0
 25 27  1  0
 26 25  2  0
M  END
$$$$
