MPF.pdb
     RDKit          3D

 27 28  0  0  1  0  0  0  0  0999 V2000
    7.5222  -20.8833   21.1836 C   0  0  0  0  0  0  0  0  0  0  0  0
    8.5956  -20.9578   19.7374 S   0  0  0  0  0  0  0  0  0  0  0  0
    9.4831  -19.4231   19.4930 C   0  0  0  0  0  0  0  0  0  0  0  0
    8.6129  -18.3401   18.9556 C   0  0  0  0  0  0  0  0  0  0  0  0
    9.3083  -17.0306   18.8863 C   0  0  2  0  0  0  0  0  0  0  0  0
   10.4167  -17.0386   17.9976 N   0  0  0  0  0  0  0  0  0  0  0  0
    9.5602  -16.4610   20.2259 C   0  0  0  0  0  0  0  0  0  0  0  0
   10.7937  -16.2895   20.5240 O   0  0  0  0  0  0  0  0  0  0  0  0
    8.6045  -16.0988   21.1835 N   0  0  0  0  0  0  0  0  0  0  0  0
    7.1958  -16.3851   21.2388 C   0  0  0  0  0  0  0  0  0  0  0  0
    6.6739  -14.9828   21.6136 C   0  0  0  0  0  0  0  0  0  0  0  0
    7.5733  -14.6546   22.7672 C   0  0  0  0  0  0  0  0  0  0  0  0
    8.8782  -15.3326   22.4310 C   0  0  1  0  0  0  0  0  0  0  0  0
    9.2146  -16.3220   23.4981 C   0  0  0  0  0  0  0  0  0  0  0  0
    8.9379  -17.5568   23.3621 O   0  0  0  0  0  0  0  0  0  0  0  0
    9.8458  -15.9241   24.6842 N   0  0  0  0  0  0  0  0  0  0  0  0
   10.7719  -16.8116   25.4204 C   0  0  1  0  0  0  0  0  0  0  0  0
   11.6974  -15.9260   26.2155 C   0  0  0  0  0  0  0  0  0  0  0  0
   10.9517  -15.1285   27.2057 C   0  0  0  0  0  0  0  0  0  0  0  0
   10.8762  -15.4814   28.5564 C   0  0  0  0  0  0  0  0  0  0  0  0
   10.1840  -14.7246   29.4782 C   0  0  0  0  0  0  0  0  0  0  0  0
    9.5374  -13.5767   29.0717 C   0  0  0  0  0  0  0  0  0  0  0  0
    9.6007  -13.2180   27.7576 C   0  0  0  0  0  0  0  0  0  0  0  0
   10.2844  -13.9627   26.8393 C   0  0  0  0  0  0  0  0  0  0  0  0
    9.9955  -17.6495   26.3464 C   0  0  0  0  0  0  0  0  0  0  0  0
    8.7659  -17.5091   26.5129 O   0  0  0  0  0  0  0  0  0  0  0  0
   10.6456  -18.6370   27.0673 O   0  0  0  0  0  0  0  0  0  0  0  0
  2  1  1  0
  3  2  1  0
  4  3  1  0
  4  5  1  0
  5  7  1  0
  5  6  1  1
  7  8  2  0
  9 13  1  0
  9  7  1  0
 10  9  1  0
 11 10  1  0
 11 12  1  0
 12 13  1  0
 14 15  2  0
 13 14  1  1
 16 14  1  0
 17 16  1  0
 17 25  1  0
 17 18  1  1
 19 18  1  0
 20 19  2  0
 21 20  1  0
 22 21  2  0
 22 23  1  0
 23 24  2  0
 24 19  1  0
 25 27  1  0
 26 25  2  0
M  END
$$$$
