MPF.pdb
     RDKit          3D

 27 28  0  0  1  0  0  0  0  0999 V2000
   13.4631  -14.6022   19.8385 C   0  0  0  0  0  0  0  0  0  0  0  0
   13.0114  -14.5754   18.0937 S   0  0  0  0  0  0  0  0  0  0  0  0
   11.2482  -14.3652   17.8704 C   0  0  0  0  0  0  0  0  0  0  0  0
   10.5098  -14.3275   19.1636 C   0  0  0  0  0  0  0  0  0  0  0  0
    9.0493  -14.1355   18.9815 C   0  0  2  0  0  0  0  0  0  0  0  0
    8.7268  -12.9027   18.3534 N   0  0  0  0  0  0  0  0  0  0  0  0
    8.2877  -14.4534   20.2068 C   0  0  0  0  0  0  0  0  0  0  0  0
    8.0055  -13.4502   20.9508 O   0  0  0  0  0  0  0  0  0  0  0  0
    7.8537  -15.7166   20.6282 N   0  0  0  0  0  0  0  0  0  0  0  0
    8.0528  -17.0099   20.0307 C   0  0  0  0  0  0  0  0  0  0  0  0
    6.6159  -17.5587   20.1466 C   0  0  0  0  0  0  0  0  0  0  0  0
    6.3260  -17.2663   21.5882 C   0  0  0  0  0  0  0  0  0  0  0  0
    7.0872  -15.9958   21.8743 C   0  0  1  0  0  0  0  0  0  0  0  0
    8.0794  -16.2442   22.9628 C   0  0  0  0  0  0  0  0  0  0  0  0
    9.1443  -16.9060   22.7446 O   0  0  0  0  0  0  0  0  0  0  0  0
    7.8709  -15.7572   24.2600 N   0  0  0  0  0  0  0  0  0  0  0  0
    8.8529  -15.9632   25.3467 C   0  0  1  0  0  0  0  0  0  0  0  0
    9.2080  -14.6018   25.8882 C   0  0  0  0  0  0  0  0  0  0  0  0
    7.9985  -13.8370   26.2420 C   0  0  0  0  0  0  0  0  0  0  0  0
    7.4896  -13.7893   27.5432 C   0  0  0  0  0  0  0  0  0  0  0  0
    6.3627  -13.0636   27.8676 C   0  0  0  0  0  0  0  0  0  0  0  0
    5.7016  -12.3545   26.8872 C   0  0  0  0  0  0  0  0  0  0  0  0
    6.1844  -12.3905   25.6124 C   0  0  0  0  0  0  0  0  0  0  0  0
    7.2999  -13.1068   25.2841 C   0  0  0  0  0  0  0  0  0  0  0  0
    8.2246  -16.7560   26.4140 C   0  0  0  0  0  0  0  0  0  0  0  0
    7.0074  -17.0347   26.4191 O   0  0  0  0  0  0  0  0  0  0  0  0
    9.0065  -17.2166   27.4598 O   0  0  0  0  0  0  0  0  0  0  0  0
  2  1  1  0
  3  2  1  0
  4  3  1  0
  4  5  1  0
  5  7  1  0
  5  6  1  1
  7  8  2  0
  9 13  1  0
  9  7  1  0
 10  9  1  0
 11 10  1  0
 11 12  1  0
 12 13  1  0
 14 15  2  0
 13 14  1  1
 16 14  1  0
 17 16  1  0
 17 25  1  0
 17 18  1  1
 19 18  1  0
 20 19  2  0
 21 20  1  0
 22 21  2  0
 22 23  1  0
 23 24  2  0
 24 19  1  0
 25 27  1  0
 26 25  2  0
M  END
$$$$
