MPF.pdb
     RDKit          3D

 27 28  0  0  1  0  0  0  0  0999 V2000
    6.2923  -12.7819   26.7154 C   0  0  0  0  0  0  0  0  0  0  0  0
    7.6445  -13.9676   26.5935 S   0  0  0  0  0  0  0  0  0  0  0  0
    7.0492  -15.6128   26.2168 C   0  0  0  0  0  0  0  0  0  0  0  0
    5.9612  -15.6068   25.1993 C   0  0  0  0  0  0  0  0  0  0  0  0
    6.0307  -16.7721   24.2826 C   0  0  2  0  0  0  0  0  0  0  0  0
    5.6525  -17.9911   24.9068 N   0  0  0  0  0  0  0  0  0  0  0  0
    7.2933  -16.8048   23.5164 C   0  0  0  0  0  0  0  0  0  0  0  0
    7.8118  -17.9661   23.3663 O   0  0  0  0  0  0  0  0  0  0  0  0
    7.9670  -15.7151   22.9506 N   0  0  0  0  0  0  0  0  0  0  0  0
    7.6521  -14.3119   22.9887 C   0  0  0  0  0  0  0  0  0  0  0  0
    7.8753  -13.9688   21.5015 C   0  0  0  0  0  0  0  0  0  0  0  0
    9.2237  -14.5847   21.2772 C   0  0  0  0  0  0  0  0  0  0  0  0
    9.2415  -15.7903   22.1838 C   0  0  1  0  0  0  0  0  0  0  0  0
   10.3609  -15.6595   23.1640 C   0  0  0  0  0  0  0  0  0  0  0  0
   10.8233  -14.5187   23.4871 O   0  0  0  0  0  0  0  0  0  0  0  0
   10.9390  -16.7880   23.7604 N   0  0  0  0  0  0  0  0  0  0  0  0
   11.4546  -16.7702   25.1466 C   0  0  1  0  0  0  0  0  0  0  0  0
   10.2591  -16.7797   26.0651 C   0  0  0  0  0  0  0  0  0  0  0  0
   10.1699  -15.5269   26.8367 C   0  0  0  0  0  0  0  0  0  0  0  0
    9.3844  -14.4444   26.4296 C   0  0  0  0  0  0  0  0  0  0  0  0
    9.2991  -13.2792   27.1622 C   0  0  0  0  0  0  0  0  0  0  0  0
   10.0066  -13.1596   28.3396 C   0  0  0  0  0  0  0  0  0  0  0  0
   10.7780  -14.2060   28.7511 C   0  0  0  0  0  0  0  0  0  0  0  0
   10.8671  -15.3629   28.0307 C   0  0  0  0  0  0  0  0  0  0  0  0
   12.2473  -17.9871   25.3769 C   0  0  0  0  0  0  0  0  0  0  0  0
   12.9570  -18.1472   26.3918 O   0  0  0  0  0  0  0  0  0  0  0  0
   12.2115  -19.0022   24.4358 O   0  0  0  0  0  0  0  0  0  0  0  0
  2  1  1  0
  3  2  1  0
  4  3  1  0
  4  5  1  0
  5  7  1  0
  5  6  1  1
  7  8  2  0
  9 13  1  0
  9  7  1  0
 10  9  1  0
 11 10  1  0
 11 12  1  0
 12 13  1  0
 14 15  2  0
 13 14  1  1
 16 14  1  0
 17 16  1  0
 17 25  1  0
 17 18  1  1
 19 18  1  0
 20 19  2  0
 21 20  1  0
 22 21  2  0
 22 23  1  0
 23 24  2  0
 24 19  1  0
 25 27  1  0
 26 25  2  0
M  END
$$$$
