MPF.pdb
     RDKit          3D

 27 28  0  0  1  0  0  0  0  0999 V2000
    6.4193  -11.8434   25.3996 C   0  0  0  0  0  0  0  0  0  0  0  0
    5.6141  -13.0788   26.4364 S   0  0  0  0  0  0  0  0  0  0  0  0
    6.0613  -14.7423   25.9509 C   0  0  0  0  0  0  0  0  0  0  0  0
    5.4115  -15.1590   24.6768 C   0  0  0  0  0  0  0  0  0  0  0  0
    5.7575  -16.5489   24.2876 C   0  0  2  0  0  0  0  0  0  0  0  0
    5.3379  -17.5125   25.2436 N   0  0  0  0  0  0  0  0  0  0  0  0
    7.1552  -16.6670   23.8239 C   0  0  0  0  0  0  0  0  0  0  0  0
    7.6955  -17.8141   24.0029 O   0  0  0  0  0  0  0  0  0  0  0  0
    7.9330  -15.6698   23.2221 N   0  0  0  0  0  0  0  0  0  0  0  0
    7.7300  -14.2468   23.1649 C   0  0  0  0  0  0  0  0  0  0  0  0
    8.0317  -14.0148   21.6701 C   0  0  0  0  0  0  0  0  0  0  0  0
    9.3336  -14.7461   21.5362 C   0  0  0  0  0  0  0  0  0  0  0  0
    9.2235  -15.8910   22.5123 C   0  0  1  0  0  0  0  0  0  0  0  0
   10.3148  -15.7869   23.5268 C   0  0  0  0  0  0  0  0  0  0  0  0
   10.8259  -14.6618   23.8310 O   0  0  0  0  0  0  0  0  0  0  0  0
   10.8121  -16.9240   24.1772 N   0  0  0  0  0  0  0  0  0  0  0  0
   11.7079  -16.8326   25.3506 C   0  0  1  0  0  0  0  0  0  0  0  0
   10.8437  -16.9576   26.5796 C   0  0  0  0  0  0  0  0  0  0  0  0
   10.5756  -15.6379   27.1790 C   0  0  0  0  0  0  0  0  0  0  0  0
    9.8608  -14.6379   26.5130 C   0  0  0  0  0  0  0  0  0  0  0  0
    9.6062  -13.4090   27.0845 C   0  0  0  0  0  0  0  0  0  0  0  0
   10.0652  -13.1392   28.3564 C   0  0  0  0  0  0  0  0  0  0  0  0
   10.7647  -14.1035   29.0201 C   0  0  0  0  0  0  0  0  0  0  0  0
   11.0203  -15.3228   28.4602 C   0  0  0  0  0  0  0  0  0  0  0  0
   12.6577  -17.9547   25.3148 C   0  0  0  0  0  0  0  0  0  0  0  0
   13.6485  -18.0234   26.0717 O   0  0  0  0  0  0  0  0  0  0  0  0
   12.4532  -18.9813   24.4085 O   0  0  0  0  0  0  0  0  0  0  0  0
  2  1  1  0
  3  2  1  0
  4  3  1  0
  4  5  1  0
  5  7  1  0
  5  6  1  1
  7  8  2  0
  9 13  1  0
  9  7  1  0
 10  9  1  0
 11 10  1  0
 11 12  1  0
 12 13  1  0
 14 15  2  0
 13 14  1  1
 16 14  1  0
 17 16  1  0
 17 25  1  0
 17 18  1  1
 19 18  1  0
 20 19  2  0
 21 20  1  0
 22 21  2  0
 22 23  1  0
 23 24  2  0
 24 19  1  0
 25 27  1  0
 26 25  2  0
M  END
$$$$
