MPF.pdb
     RDKit          3D

 27 28  0  0  1  0  0  0  0  0999 V2000
    1.7090  -19.1234   19.5844 C   0  0  0  0  0  0  0  0  0  0  0  0
    2.3616  -18.7222   21.2160 S   0  0  0  0  0  0  0  0  0  0  0  0
    3.7901  -17.6493   21.1111 C   0  0  0  0  0  0  0  0  0  0  0  0
    5.0628  -18.3627   21.4115 C   0  0  0  0  0  0  0  0  0  0  0  0
    6.1395  -18.0424   20.4413 C   0  0  2  0  0  0  0  0  0  0  0  0
    6.5540  -19.1694   19.6820 N   0  0  0  0  0  0  0  0  0  0  0  0
    7.2214  -17.2433   21.0522 C   0  0  0  0  0  0  0  0  0  0  0  0
    8.1405  -17.9204   21.6323 O   0  0  0  0  0  0  0  0  0  0  0  0
    7.3393  -15.8477   21.0615 N   0  0  0  0  0  0  0  0  0  0  0  0
    6.4730  -14.8426   20.5061 C   0  0  0  0  0  0  0  0  0  0  0  0
    7.5336  -13.9490   19.8308 C   0  0  0  0  0  0  0  0  0  0  0  0
    8.5065  -13.7779   20.9585 C   0  0  0  0  0  0  0  0  0  0  0  0
    8.4294  -15.0768   21.7216 C   0  0  1  0  0  0  0  0  0  0  0  0
    7.9972  -14.8047   23.1252 C   0  0  0  0  0  0  0  0  0  0  0  0
    7.2419  -13.8185   23.4021 O   0  0  0  0  0  0  0  0  0  0  0  0
    8.4086  -15.6256   24.1835 N   0  0  0  0  0  0  0  0  0  0  0  0
    9.6469  -15.3641   24.9488 C   0  0  1  0  0  0  0  0  0  0  0  0
    9.6422  -13.9015   25.3147 C   0  0  0  0  0  0  0  0  0  0  0  0
    8.3869  -13.5252   25.9897 C   0  0  0  0  0  0  0  0  0  0  0  0
    8.3186  -13.2547   27.3596 C   0  0  0  0  0  0  0  0  0  0  0  0
    7.1419  -12.8941   27.9818 C   0  0  0  0  0  0  0  0  0  0  0  0
    5.9823  -12.7922   27.2429 C   0  0  0  0  0  0  0  0  0  0  0  0
    6.0312  -13.0530   25.9053 C   0  0  0  0  0  0  0  0  0  0  0  0
    7.1930  -13.4104   25.2826 C   0  0  0  0  0  0  0  0  0  0  0  0
    9.6261  -16.1676   26.1802 C   0  0  0  0  0  0  0  0  0  0  0  0
   10.4534  -16.0098   27.1021 O   0  0  0  0  0  0  0  0  0  0  0  0
    8.6532  -17.1410   26.3326 O   0  0  0  0  0  0  0  0  0  0  0  0
  2  1  1  0
  3  2  1  0
  4  3  1  0
  4  5  1  0
  5  7  1  0
  5  6  1  1
  7  8  2  0
  9 13  1  0
  9  7  1  0
 10  9  1  0
 11 10  1  0
 11 12  1  0
 12 13  1  0
 14 15  2  0
 13 14  1  1
 16 14  1  0
 17 16  1  0
 17 25  1  0
 17 18  1  1
 19 18  1  0
 20 19  2  0
 21 20  1  0
 22 21  2  0
 22 23  1  0
 23 24  2  0
 24 19  1  0
 25 27  1  0
 26 25  2  0
M  END
$$$$
