DDQ.pdb
     RDKit          3D

 26 25  0  0  1  0  0  0  0  0999 V2000
   11.2897  -23.9364   26.3015 N   0  0  0  0  0  0  0  0  0  0  0  0
   11.1221  -22.5705   26.6992 C   0  0  1  0  0  0  0  0  0  0  0  0
   10.4150  -21.7296   25.6630 C   0  0  0  0  0  0  0  0  0  0  0  0
   11.1851  -21.8521   24.3941 C   0  0  0  0  0  0  0  0  0  0  0  0
   12.3832  -21.4716   24.3731 O   0  0  0  0  0  0  0  0  0  0  0  0
   10.5016  -22.4545   28.0385 C   0  0  0  0  0  0  0  0  0  0  0  0
   10.1630  -21.3016   28.4222 O   0  0  0  0  0  0  0  0  0  0  0  0
   10.6473  -22.3666   23.2277 O   0  0  0  0  0  0  0  0  0  0  0  0
   10.2696  -23.5391   28.8985 N   0  0  0  0  0  0  0  0  0  0  0  0
    9.6778  -23.3197   30.2330 C   0  0  1  0  0  0  0  0  0  0  0  0
    8.8808  -24.5461   30.6215 C   0  0  0  0  0  0  0  0  0  0  0  0
    7.8107  -24.8087   29.6627 C   0  0  0  0  0  0  0  0  0  0  0  0
    7.7952  -25.8704   29.0114 O   0  0  0  0  0  0  0  0  0  0  0  0
   10.7214  -22.9721   31.2098 C   0  0  0  0  0  0  0  0  0  0  0  0
   10.4583  -22.7876   32.4219 O   0  0  0  0  0  0  0  0  0  0  0  0
    6.8127  -23.8485   29.4948 O   0  0  0  0  0  0  0  0  0  0  0  0
   14.2057  -25.7471   29.3147 N   0  0  0  0  0  0  0  0  0  0  0  0
   14.9150  -25.2294   30.4456 C   0  0  0  0  0  0  0  0  0  0  0  0
   16.1497  -25.2848   30.5710 O   0  0  0  0  0  0  0  0  0  0  0  0
   14.1202  -24.5842   31.5394 C   0  0  0  0  0  0  0  0  0  0  0  0
   14.3853  -23.1071   31.5195 C   0  0  0  0  0  0  0  0  0  0  0  0
   13.1233  -22.3495   31.7525 C   0  0  2  0  0  0  0  0  0  0  0  0
   12.0858  -22.8263   30.8331 N   0  0  0  0  0  0  0  0  0  0  0  0
   13.2408  -20.8954   31.7284 C   0  0  0  0  0  0  0  0  0  0  0  0
   12.5931  -20.0605   30.8372 O   0  0  0  0  0  0  0  0  0  0  0  0
   13.9880  -20.2875   32.5720 O   0  0  0  0  0  0  0  0  0  0  0  0
  2  1  1  6
  2  3  1  0
  3  4  1  0
  4  8  1  0
  5  4  2  0
  6  2  1  0
  7  6  2  0
  9  6  1  0
 10 14  1  0
 10  9  1  0
 11 12  1  0
 10 11  1  1
 12 13  2  0
 14 23  1  0
 15 14  2  0
 16 12  1  0
 18 19  2  0
 18 17  1  0
 20 18  1  0
 21 20  1  0
 22 21  1  6
 22 24  1  0
 23 22  1  0
 24 26  2  0
 24 25  1  0
M  END
$$$$
