DDQ.pdb
     RDKit          3D

 26 25  0  0  1  0  0  0  0  0999 V2000
   12.1132  -17.9141   19.2409 N   0  0  0  0  0  0  0  0  0  0  0  0
   10.7909  -17.3863   19.3987 C   0  0  1  0  0  0  0  0  0  0  0  0
    9.8628  -17.7523   18.2649 C   0  0  0  0  0  0  0  0  0  0  0  0
   10.4668  -17.2223   17.0108 C   0  0  0  0  0  0  0  0  0  0  0  0
   11.6545  -16.8109   17.0370 O   0  0  0  0  0  0  0  0  0  0  0  0
   10.2176  -17.7126   20.7243 C   0  0  0  0  0  0  0  0  0  0  0  0
    9.1014  -17.2016   21.0144 O   0  0  0  0  0  0  0  0  0  0  0  0
    9.7843  -17.1582   15.8090 O   0  0  0  0  0  0  0  0  0  0  0  0
   10.8349  -18.5479   21.6683 N   0  0  0  0  0  0  0  0  0  0  0  0
   10.2479  -18.7161   23.0122 C   0  0  1  0  0  0  0  0  0  0  0  0
   10.8062  -19.9775   23.6346 C   0  0  0  0  0  0  0  0  0  0  0  0
   10.3529  -21.1673   22.9190 C   0  0  0  0  0  0  0  0  0  0  0  0
   11.1025  -21.7346   22.1018 O   0  0  0  0  0  0  0  0  0  0  0  0
   10.4772  -17.5148   23.8299 C   0  0  0  0  0  0  0  0  0  0  0  0
   11.5605  -16.8843   23.7906 O   0  0  0  0  0  0  0  0  0  0  0  0
    9.0686  -21.6504   23.1709 O   0  0  0  0  0  0  0  0  0  0  0  0
    6.3230  -13.5190   25.8582 N   0  0  0  0  0  0  0  0  0  0  0  0
    7.1027  -13.3493   24.6693 C   0  0  0  0  0  0  0  0  0  0  0  0
    6.8213  -12.5417   23.7683 O   0  0  0  0  0  0  0  0  0  0  0  0
    8.3280  -14.1954   24.5049 C   0  0  0  0  0  0  0  0  0  0  0  0
    8.4905  -15.0495   25.7283 C   0  0  0  0  0  0  0  0  0  0  0  0
    9.7229  -15.8805   25.6219 C   0  0  2  0  0  0  0  0  0  0  0  0
    9.4830  -17.0027   24.7097 N   0  0  0  0  0  0  0  0  0  0  0  0
   10.3014  -16.3246   26.8856 C   0  0  0  0  0  0  0  0  0  0  0  0
   10.4880  -17.6439   27.2540 O   0  0  0  0  0  0  0  0  0  0  0  0
   10.6837  -15.4737   27.7627 O   0  0  0  0  0  0  0  0  0  0  0  0
  2  1  1  6
  2  3  1  0
  3  4  1  0
  4  8  1  0
  5  4  2  0
  6  2  1  0
  7  6  2  0
  9  6  1  0
 10 14  1  0
 10  9  1  0
 11 12  1  0
 10 11  1  1
 12 13  2  0
 14 23  1  0
 15 14  2  0
 16 12  1  0
 18 19  2  0
 18 17  1  0
 20 18  1  0
 21 20  1  0
 22 21  1  1
 22 24  1  0
 23 22  1  0
 24 26  2  0
 24 25  1  0
M  END
$$$$
