DDQ.pdb
     RDKit          3D

 26 25  0  0  1  0  0  0  0  0999 V2000
   17.8676  -16.5898   17.3391 N   0  0  0  0  0  0  0  0  0  0  0  0
   16.8676  -17.6146   17.3818 C   0  0  1  0  0  0  0  0  0  0  0  0
   17.4275  -18.9825   17.6920 C   0  0  0  0  0  0  0  0  0  0  0  0
   18.4627  -19.2799   16.6633 C   0  0  0  0  0  0  0  0  0  0  0  0
   18.1334  -19.2646   15.4501 O   0  0  0  0  0  0  0  0  0  0  0  0
   15.7395  -17.2525   18.2698 C   0  0  0  0  0  0  0  0  0  0  0  0
   15.8744  -16.2244   18.9880 O   0  0  0  0  0  0  0  0  0  0  0  0
   19.7782  -19.5745   16.9749 O   0  0  0  0  0  0  0  0  0  0  0  0
   14.5407  -17.9770   18.3599 N   0  0  0  0  0  0  0  0  0  0  0  0
   13.4722  -17.5396   19.2796 C   0  0  1  0  0  0  0  0  0  0  0  0
   12.2015  -18.2901   18.9441 C   0  0  0  0  0  0  0  0  0  0  0  0
   11.5660  -17.7478   17.7460 C   0  0  0  0  0  0  0  0  0  0  0  0
   12.1123  -17.8697   16.6333 O   0  0  0  0  0  0  0  0  0  0  0  0
   13.8939  -17.7086   20.6787 C   0  0  0  0  0  0  0  0  0  0  0  0
   14.6896  -18.6137   21.0254 O   0  0  0  0  0  0  0  0  0  0  0  0
   10.3405  -17.0942   17.8767 O   0  0  0  0  0  0  0  0  0  0  0  0
   17.8530  -14.8555   23.5432 N   0  0  0  0  0  0  0  0  0  0  0  0
   17.1632  -15.9132   24.2183 C   0  0  0  0  0  0  0  0  0  0  0  0
   17.7106  -16.9603   24.6019 O   0  0  0  0  0  0  0  0  0  0  0  0
   15.6970  -15.7450   24.4758 C   0  0  0  0  0  0  0  0  0  0  0  0
   14.9792  -15.7015   23.1585 C   0  0  0  0  0  0  0  0  0  0  0  0
   14.0085  -16.8278   23.0583 C   0  0  2  0  0  0  0  0  0  0  0  0
   13.4224  -16.8548   21.7149 N   0  0  0  0  0  0  0  0  0  0  0  0
   12.9845  -16.8789   24.0964 C   0  0  0  0  0  0  0  0  0  0  0  0
   11.9380  -15.9850   24.2250 O   0  0  0  0  0  0  0  0  0  0  0  0
   13.0039  -17.7988   24.9869 O   0  0  0  0  0  0  0  0  0  0  0  0
  2  1  1  1
  2  3  1  0
  3  4  1  0
  4  8  1  0
  5  4  2  0
  6  2  1  0
  7  6  2  0
  9  6  1  0
 10 14  1  0
 10  9  1  0
 11 12  1  0
 10 11  1  1
 12 13  2  0
 14 23  1  0
 15 14  2  0
 16 12  1  0
 18 19  2  0
 18 17  1  0
 20 18  1  0
 21 20  1  0
 22 21  1  1
 22 24  1  0
 23 22  1  0
 24 26  2  0
 24 25  1  0
M  END
$$$$
