DDQ.pdb
     RDKit          3D

 26 25  0  0  1  0  0  0  0  0999 V2000
    8.6501  -13.7663   18.0958 N   0  0  0  0  0  0  0  0  0  0  0  0
    9.6699  -14.3744   18.8971 C   0  0  1  0  0  0  0  0  0  0  0  0
   10.7908  -13.4281   19.2558 C   0  0  0  0  0  0  0  0  0  0  0  0
   12.0355  -13.9627   18.6369 C   0  0  0  0  0  0  0  0  0  0  0  0
   11.9405  -14.8675   17.7691 O   0  0  0  0  0  0  0  0  0  0  0  0
    9.1086  -15.0591   20.0839 C   0  0  0  0  0  0  0  0  0  0  0  0
    8.0848  -14.5498   20.6163 O   0  0  0  0  0  0  0  0  0  0  0  0
   13.3010  -13.5126   18.9690 O   0  0  0  0  0  0  0  0  0  0  0  0
    9.6417  -16.2291   20.6468 N   0  0  0  0  0  0  0  0  0  0  0  0
    8.9932  -16.8576   21.8145 C   0  0  1  0  0  0  0  0  0  0  0  0
    9.3674  -18.3235   21.8508 C   0  0  0  0  0  0  0  0  0  0  0  0
    8.8897  -19.0223   20.6605 C   0  0  0  0  0  0  0  0  0  0  0  0
    7.6774  -19.0229   20.3746 O   0  0  0  0  0  0  0  0  0  0  0  0
    9.3436  -16.1383   23.0490 C   0  0  0  0  0  0  0  0  0  0  0  0
   10.5238  -15.8016   23.3065 O   0  0  0  0  0  0  0  0  0  0  0  0
    9.8176  -19.6849   19.8566 O   0  0  0  0  0  0  0  0  0  0  0  0
    5.4960  -12.3803   26.0114 N   0  0  0  0  0  0  0  0  0  0  0  0
    6.6819  -12.1741   26.7869 C   0  0  0  0  0  0  0  0  0  0  0  0
    6.8302  -11.2339   27.5852 O   0  0  0  0  0  0  0  0  0  0  0  0
    7.8071  -13.1498   26.6245 C   0  0  0  0  0  0  0  0  0  0  0  0
    7.5144  -14.0296   25.4443 C   0  0  0  0  0  0  0  0  0  0  0  0
    8.6573  -14.9506   25.1866 C   0  0  2  0  0  0  0  0  0  0  0  0
    8.3632  -15.7854   24.0181 N   0  0  0  0  0  0  0  0  0  0  0  0
    9.0993  -15.7493   26.3248 C   0  0  0  0  0  0  0  0  0  0  0  0
    9.1231  -17.1308   26.3646 O   0  0  0  0  0  0  0  0  0  0  0  0
    9.5067  -15.1842   27.3992 O   0  0  0  0  0  0  0  0  0  0  0  0
  2  1  1  1
  2  3  1  0
  3  4  1  0
  4  8  1  0
  5  4  2  0
  6  2  1  0
  7  6  2  0
  9  6  1  0
 10 14  1  0
 10  9  1  0
 11 12  1  0
 10 11  1  1
 12 13  2  0
 14 23  1  0
 15 14  2  0
 16 12  1  0
 18 19  2  0
 18 17  1  0
 20 18  1  0
 21 20  1  0
 22 21  1  1
 22 24  1  0
 23 22  1  0
 24 26  2  0
 24 25  1  0
M  END
$$$$
