DDQ.pdb
     RDKit          3D

 26 25  0  0  1  0  0  0  0  0999 V2000
   12.6167  -18.1233   18.5034 N   0  0  0  0  0  0  0  0  0  0  0  0
   13.9772  -18.5547   18.3814 C   0  0  1  0  0  0  0  0  0  0  0  0
   14.5606  -18.3095   17.0102 C   0  0  0  0  0  0  0  0  0  0  0  0
   13.4487  -18.4381   16.0276 C   0  0  0  0  0  0  0  0  0  0  0  0
   12.5367  -19.2742   16.2504 O   0  0  0  0  0  0  0  0  0  0  0  0
   14.8307  -18.0117   19.4626 C   0  0  0  0  0  0  0  0  0  0  0  0
   15.0430  -18.7530   20.4607 O   0  0  0  0  0  0  0  0  0  0  0  0
   13.3659  -17.6798   14.8732 O   0  0  0  0  0  0  0  0  0  0  0  0
   15.4122  -16.7343   19.4441 N   0  0  0  0  0  0  0  0  0  0  0  0
   16.2317  -16.2714   20.5812 C   0  0  1  0  0  0  0  0  0  0  0  0
   17.2199  -15.2393   20.0828 C   0  0  0  0  0  0  0  0  0  0  0  0
   18.3577  -15.8713   19.4200 C   0  0  0  0  0  0  0  0  0  0  0  0
   18.7972  -15.4121   18.3487 O   0  0  0  0  0  0  0  0  0  0  0  0
   15.3734  -15.7757   21.6683 C   0  0  0  0  0  0  0  0  0  0  0  0
   14.8027  -14.6610   21.6051 O   0  0  0  0  0  0  0  0  0  0  0  0
   18.9370  -16.9941   20.0114 O   0  0  0  0  0  0  0  0  0  0  0  0
   10.2844  -17.0145   21.5347 N   0  0  0  0  0  0  0  0  0  0  0  0
   10.7955  -16.5944   22.8046 C   0  0  0  0  0  0  0  0  0  0  0  0
   10.1377  -15.9421   23.6323 O   0  0  0  0  0  0  0  0  0  0  0  0
   12.2049  -16.9639   23.1528 C   0  0  0  0  0  0  0  0  0  0  0  0
   12.9624  -15.7115   23.4851 C   0  0  0  0  0  0  0  0  0  0  0  0
   14.3318  -16.0455   23.9691 C   0  0  2  0  0  0  0  0  0  0  0  0
   15.1440  -16.5336   22.8507 N   0  0  0  0  0  0  0  0  0  0  0  0
   14.3989  -16.9420   25.1183 C   0  0  0  0  0  0  0  0  0  0  0  0
   14.9446  -18.2120   25.1045 O   0  0  0  0  0  0  0  0  0  0  0  0
   13.9315  -16.5818   26.2546 O   0  0  0  0  0  0  0  0  0  0  0  0
  2  1  1  6
  2  3  1  0
  3  4  1  0
  4  8  1  0
  5  4  2  0
  6  2  1  0
  7  6  2  0
  9  6  1  0
 10 14  1  0
 10  9  1  0
 11 12  1  0
 10 11  1  6
 12 13  2  0
 14 23  1  0
 15 14  2  0
 16 12  1  0
 18 19  2  0
 18 17  1  0
 20 18  1  0
 21 20  1  0
 22 21  1  6
 22 24  1  0
 23 22  1  0
 24 26  2  0
 24 25  1  0
M  END
$$$$
