DDQ.pdb
     RDKit          3D

 26 25  0  0  1  0  0  0  0  0999 V2000
    8.5513  -13.4659   18.2581 N   0  0  0  0  0  0  0  0  0  0  0  0
    9.5576  -14.0294   19.1077 C   0  0  1  0  0  0  0  0  0  0  0  0
   10.5624  -13.0139   19.5977 C   0  0  0  0  0  0  0  0  0  0  0  0
   11.8330  -13.2581   18.8600 C   0  0  0  0  0  0  0  0  0  0  0  0
   12.0763  -12.5786   17.8306 O   0  0  0  0  0  0  0  0  0  0  0  0
    8.9712  -14.8209   20.2131 C   0  0  0  0  0  0  0  0  0  0  0  0
    7.9817  -14.3258   20.8186 O   0  0  0  0  0  0  0  0  0  0  0  0
   12.7673  -14.2008   19.2510 O   0  0  0  0  0  0  0  0  0  0  0  0
    9.4451  -16.0766   20.6239 N   0  0  0  0  0  0  0  0  0  0  0  0
    8.7997  -16.7871   21.7453 C   0  0  1  0  0  0  0  0  0  0  0  0
    9.0757  -18.2687   21.6083 C   0  0  0  0  0  0  0  0  0  0  0  0
    8.5603  -19.0124   22.7549 C   0  0  0  0  0  0  0  0  0  0  0  0
    9.0802  -18.8769   23.8787 O   0  0  0  0  0  0  0  0  0  0  0  0
    9.2431  -16.2306   23.0328 C   0  0  0  0  0  0  0  0  0  0  0  0
   10.4477  -15.9660   23.2597 O   0  0  0  0  0  0  0  0  0  0  0  0
    7.4789  -19.8725   22.5628 O   0  0  0  0  0  0  0  0  0  0  0  0
    5.4605  -12.6259   26.1601 N   0  0  0  0  0  0  0  0  0  0  0  0
    6.6358  -12.4294   26.9539 C   0  0  0  0  0  0  0  0  0  0  0  0
    6.7305  -11.5712   27.8472 O   0  0  0  0  0  0  0  0  0  0  0  0
    7.8183  -13.3107   26.6902 C   0  0  0  0  0  0  0  0  0  0  0  0
    7.4999  -14.2084   25.5303 C   0  0  0  0  0  0  0  0  0  0  0  0
    8.6564  -15.0990   25.2297 C   0  0  2  0  0  0  0  0  0  0  0  0
    8.3301  -15.9624   24.0908 N   0  0  0  0  0  0  0  0  0  0  0  0
    9.1793  -15.8642   26.3565 C   0  0  0  0  0  0  0  0  0  0  0  0
    9.0124  -17.2243   26.5392 O   0  0  0  0  0  0  0  0  0  0  0  0
    9.8516  -15.2871   27.2809 O   0  0  0  0  0  0  0  0  0  0  0  0
  2  1  1  1
  2  3  1  0
  3  4  1  0
  4  8  1  0
  5  4  2  0
  6  2  1  0
  7  6  2  0
  9  6  1  0
 10 14  1  0
 10  9  1  0
 11 12  1  0
 10 11  1  1
 12 13  2  0
 14 23  1  0
 15 14  2  0
 16 12  1  0
 18 19  2  0
 18 17  1  0
 20 18  1  0
 21 20  1  0
 22 21  1  1
 22 24  1  0
 23 22  1  0
 24 26  2  0
 24 25  1  0
M  END
$$$$
