DDQ.pdb
     RDKit          3D

 26 25  0  0  1  0  0  0  0  0999 V2000
    8.6403  -12.6345   17.8372 N   0  0  0  0  0  0  0  0  0  0  0  0
    8.4384  -13.9338   18.4056 C   0  0  1  0  0  0  0  0  0  0  0  0
    7.5376  -14.8158   17.5742 C   0  0  0  0  0  0  0  0  0  0  0  0
    8.0605  -14.7919   16.1798 C   0  0  0  0  0  0  0  0  0  0  0  0
    9.3042  -14.8219   15.9984 O   0  0  0  0  0  0  0  0  0  0  0  0
    9.7184  -14.5960   18.7453 C   0  0  0  0  0  0  0  0  0  0  0  0
    9.6583  -15.7597   19.2282 O   0  0  0  0  0  0  0  0  0  0  0  0
    7.2432  -14.7380   15.0646 O   0  0  0  0  0  0  0  0  0  0  0  0
   10.9822  -14.0129   18.5643 N   0  0  0  0  0  0  0  0  0  0  0  0
   12.1987  -14.7114   19.0241 C   0  0  1  0  0  0  0  0  0  0  0  0
   13.4110  -14.0057   18.4563 C   0  0  0  0  0  0  0  0  0  0  0  0
   14.6082  -14.8349   18.5686 C   0  0  0  0  0  0  0  0  0  0  0  0
   14.5504  -15.9539   19.1129 O   0  0  0  0  0  0  0  0  0  0  0  0
   12.2164  -14.8056   20.4920 C   0  0  0  0  0  0  0  0  0  0  0  0
   12.5004  -13.8212   21.2150 O   0  0  0  0  0  0  0  0  0  0  0  0
   15.8101  -14.3472   18.0552 O   0  0  0  0  0  0  0  0  0  0  0  0
    7.9378  -15.9070   23.9727 N   0  0  0  0  0  0  0  0  0  0  0  0
    8.9274  -16.0520   24.9974 C   0  0  0  0  0  0  0  0  0  0  0  0
    8.6670  -16.0654   26.2120 O   0  0  0  0  0  0  0  0  0  0  0  0
   10.3584  -16.1955   24.5781 C   0  0  0  0  0  0  0  0  0  0  0  0
   10.4376  -16.0645   23.0850 C   0  0  0  0  0  0  0  0  0  0  0  0
   11.8563  -16.1243   22.6327 C   0  0  2  0  0  0  0  0  0  0  0  0
   11.9123  -16.0182   21.1717 N   0  0  0  0  0  0  0  0  0  0  0  0
   12.6327  -17.2582   23.1230 C   0  0  0  0  0  0  0  0  0  0  0  0
   13.0681  -17.4196   24.4250 O   0  0  0  0  0  0  0  0  0  0  0  0
   12.9689  -18.2086   22.3335 O   0  0  0  0  0  0  0  0  0  0  0  0
  2  1  1  6
  2  3  1  0
  3  4  1  0
  4  8  1  0
  5  4  2  0
  6  2  1  0
  7  6  2  0
  9  6  1  0
 10 14  1  0
 10  9  1  0
 11 12  1  0
 10 11  1  1
 12 13  2  0
 14 23  1  0
 15 14  2  0
 16 12  1  0
 18 19  2  0
 18 17  1  0
 20 18  1  0
 21 20  1  0
 22 21  1  6
 22 24  1  0
 23 22  1  0
 24 26  2  0
 24 25  1  0
M  END
$$$$
