DDQ.pdb
     RDKit          3D

 26 25  0  0  1  0  0  0  0  0999 V2000
   12.6419  -20.3435   16.4157 N   0  0  0  0  0  0  0  0  0  0  0  0
   11.5592  -19.4466   16.6901 C   0  0  1  0  0  0  0  0  0  0  0  0
   10.5044  -19.4357   15.6094 C   0  0  0  0  0  0  0  0  0  0  0  0
   11.1926  -19.1351   14.3232 C   0  0  0  0  0  0  0  0  0  0  0  0
   12.4431  -19.0053   14.3210 O   0  0  0  0  0  0  0  0  0  0  0  0
   10.9844  -19.6662   18.0369 C   0  0  0  0  0  0  0  0  0  0  0  0
   10.1060  -18.8516   18.4317 O   0  0  0  0  0  0  0  0  0  0  0  0
   10.5230  -18.9901   13.1212 O   0  0  0  0  0  0  0  0  0  0  0  0
   11.3541  -20.7157   18.8923 N   0  0  0  0  0  0  0  0  0  0  0  0
   10.8118  -20.7866   20.2634 C   0  0  1  0  0  0  0  0  0  0  0  0
   10.6557  -22.2408   20.6523 C   0  0  0  0  0  0  0  0  0  0  0  0
   10.0128  -22.3748   21.9569 C   0  0  0  0  0  0  0  0  0  0  0  0
   10.6850  -22.6714   22.9628 O   0  0  0  0  0  0  0  0  0  0  0  0
   11.6591  -20.0247   21.1939 C   0  0  0  0  0  0  0  0  0  0  0  0
   12.9107  -20.0511   21.1222 O   0  0  0  0  0  0  0  0  0  0  0  0
    8.6369  -22.1641   22.0491 O   0  0  0  0  0  0  0  0  0  0  0  0
   10.3415  -14.6349   23.5161 N   0  0  0  0  0  0  0  0  0  0  0  0
    9.6095  -15.6634   24.1918 C   0  0  0  0  0  0  0  0  0  0  0  0
    8.5890  -15.4540   24.8686 O   0  0  0  0  0  0  0  0  0  0  0  0
   10.1046  -17.0725   24.0742 C   0  0  0  0  0  0  0  0  0  0  0  0
   11.3873  -17.0681   23.2948 C   0  0  0  0  0  0  0  0  0  0  0  0
   11.9248  -18.4525   23.1710 C   0  0  2  0  0  0  0  0  0  0  0  0
   11.1051  -19.2164   22.2257 N   0  0  0  0  0  0  0  0  0  0  0  0
   12.1190  -19.1736   24.4244 C   0  0  0  0  0  0  0  0  0  0  0  0
   11.2935  -20.1746   24.9014 O   0  0  0  0  0  0  0  0  0  0  0  0
   13.1121  -18.9024   25.1858 O   0  0  0  0  0  0  0  0  0  0  0  0
  2  1  1  6
  2  3  1  0
  3  4  1  0
  4  8  1  0
  5  4  2  0
  6  2  1  0
  7  6  2  0
  9  6  1  0
 10 14  1  0
 10  9  1  0
 11 12  1  0
 10 11  1  1
 12 13  2  0
 14 23  1  0
 15 14  2  0
 16 12  1  0
 18 19  2  0
 18 17  1  0
 20 18  1  0
 21 20  1  0
 22 21  1  1
 22 24  1  0
 23 22  1  0
 24 26  2  0
 24 25  1  0
M  END
$$$$
