DDQ.pdb
     RDKit          3D

 26 25  0  0  1  0  0  0  0  0999 V2000
    9.3315  -14.0016   16.7103 N   0  0  0  0  0  0  0  0  0  0  0  0
    9.7626  -15.3674   16.7364 C   0  0  1  0  0  0  0  0  0  0  0  0
   10.1810  -15.8873   15.3816 C   0  0  0  0  0  0  0  0  0  0  0  0
    9.0604  -15.6158   14.4388 C   0  0  0  0  0  0  0  0  0  0  0  0
    9.2525  -14.8243   13.4811 O   0  0  0  0  0  0  0  0  0  0  0  0
   10.7920  -15.6048   17.7739 C   0  0  0  0  0  0  0  0  0  0  0  0
   10.9333  -16.7871   18.1899 O   0  0  0  0  0  0  0  0  0  0  0  0
    7.8092  -16.1933   14.5623 O   0  0  0  0  0  0  0  0  0  0  0  0
   11.6121  -14.6035   18.3170 N   0  0  0  0  0  0  0  0  0  0  0  0
   12.5800  -14.9289   19.3830 C   0  0  1  0  0  0  0  0  0  0  0  0
   13.8178  -14.0788   19.1949 C   0  0  0  0  0  0  0  0  0  0  0  0
   14.7483  -14.6978   18.2545 C   0  0  0  0  0  0  0  0  0  0  0  0
   14.9763  -14.1657   17.1516 O   0  0  0  0  0  0  0  0  0  0  0  0
   11.9618  -14.7689   20.7082 C   0  0  0  0  0  0  0  0  0  0  0  0
   11.7840  -13.6397   21.2237 O   0  0  0  0  0  0  0  0  0  0  0  0
   15.3718  -15.8915   18.6186 O   0  0  0  0  0  0  0  0  0  0  0  0
    7.9150  -13.1168   21.6732 N   0  0  0  0  0  0  0  0  0  0  0  0
    7.5904  -14.4948   21.4589 C   0  0  0  0  0  0  0  0  0  0  0  0
    6.5526  -14.8803   20.8951 O   0  0  0  0  0  0  0  0  0  0  0  0
    8.5595  -15.5295   21.9432 C   0  0  0  0  0  0  0  0  0  0  0  0
    9.6931  -14.8370   22.6420 C   0  0  0  0  0  0  0  0  0  0  0  0
   10.8601  -15.7543   22.7739 C   0  0  2  0  0  0  0  0  0  0  0  0
   11.5318  -15.8861   21.4776 N   0  0  0  0  0  0  0  0  0  0  0  0
   10.5821  -17.0548   23.3739 C   0  0  0  0  0  0  0  0  0  0  0  0
   10.7413  -18.2728   22.7399 O   0  0  0  0  0  0  0  0  0  0  0  0
   10.1536  -17.1395   24.5776 O   0  0  0  0  0  0  0  0  0  0  0  0
  2  1  1  6
  2  3  1  0
  3  4  1  0
  4  8  1  0
  5  4  2  0
  6  2  1  0
  7  6  2  0
  9  6  1  0
 10 14  1  0
 10  9  1  0
 11 12  1  0
 10 11  1  1
 12 13  2  0
 14 23  1  0
 15 14  2  0
 16 12  1  0
 18 19  2  0
 18 17  1  0
 20 18  1  0
 21 20  1  0
 22 21  1  6
 22 24  1  0
 23 22  1  0
 24 26  2  0
 24 25  1  0
M  END
$$$$
