DDQ.pdb
     RDKit          3D

 26 25  0  0  1  0  0  0  0  0999 V2000
    9.8612  -12.4261   19.9649 N   0  0  0  0  0  0  0  0  0  0  0  0
    8.6619  -13.0683   20.4136 C   0  0  1  0  0  0  0  0  0  0  0  0
    7.5858  -13.1295   19.3557 C   0  0  0  0  0  0  0  0  0  0  0  0
    8.1904  -13.7535   18.1460 C   0  0  0  0  0  0  0  0  0  0  0  0
    7.4490  -14.0172   17.1655 O   0  0  0  0  0  0  0  0  0  0  0  0
    8.9341  -14.3922   21.0181 C   0  0  0  0  0  0  0  0  0  0  0  0
    7.9496  -15.0320   21.4790 O   0  0  0  0  0  0  0  0  0  0  0  0
    9.5355  -14.0608   18.0436 O   0  0  0  0  0  0  0  0  0  0  0  0
   10.2088  -14.9726   21.1084 N   0  0  0  0  0  0  0  0  0  0  0  0
   10.4081  -16.2198   21.8726 C   0  0  1  0  0  0  0  0  0  0  0  0
   11.5938  -16.9621   21.2953 C   0  0  0  0  0  0  0  0  0  0  0  0
   11.3471  -17.3617   19.9123 C   0  0  0  0  0  0  0  0  0  0  0  0
   10.4936  -18.2302   19.6504 O   0  0  0  0  0  0  0  0  0  0  0  0
   10.5480  -15.9291   23.3079 C   0  0  0  0  0  0  0  0  0  0  0  0
   10.6775  -14.7578   23.7364 O   0  0  0  0  0  0  0  0  0  0  0  0
   12.0854  -16.7513   18.8981 O   0  0  0  0  0  0  0  0  0  0  0  0
    9.4575  -13.2863   27.0181 N   0  0  0  0  0  0  0  0  0  0  0  0
    9.4942  -14.2702   28.0578 C   0  0  0  0  0  0  0  0  0  0  0  0
    9.5149  -13.9948   29.2689 O   0  0  0  0  0  0  0  0  0  0  0  0
    9.5086  -15.7143   27.6594 C   0  0  0  0  0  0  0  0  0  0  0  0
    9.5541  -15.7997   26.1616 C   0  0  0  0  0  0  0  0  0  0  0  0
   10.6598  -16.6988   25.7258 C   0  0  2  0  0  0  0  0  0  0  0  0
   10.5441  -16.9606   24.2882 N   0  0  0  0  0  0  0  0  0  0  0  0
   10.8150  -17.9322   26.4897 C   0  0  0  0  0  0  0  0  0  0  0  0
   11.2747  -18.0084   27.7911 O   0  0  0  0  0  0  0  0  0  0  0  0
   10.5203  -19.0638   25.9680 O   0  0  0  0  0  0  0  0  0  0  0  0
  2  1  1  6
  2  3  1  0
  3  4  1  0
  4  8  1  0
  5  4  2  0
  6  2  1  0
  7  6  2  0
  9  6  1  0
 10 14  1  0
 10  9  1  0
 11 12  1  0
 10 11  1  6
 12 13  2  0
 14 23  1  0
 15 14  2  0
 16 12  1  0
 18 19  2  0
 18 17  1  0
 20 18  1  0
 21 20  1  0
 22 21  1  1
 22 24  1  0
 23 22  1  0
 24 26  2  0
 24 25  1  0
M  END
$$$$
