DDQ.pdb
     RDKit          3D

 26 25  0  0  1  0  0  0  0  0999 V2000
   18.6000  -19.0758   16.5900 N   0  0  0  0  0  0  0  0  0  0  0  0
   18.5574  -17.8434   17.3189 C   0  0  1  0  0  0  0  0  0  0  0  0
   18.6258  -16.6228   16.4322 C   0  0  0  0  0  0  0  0  0  0  0  0
   19.9696  -16.6180   15.7899 C   0  0  0  0  0  0  0  0  0  0  0  0
   20.6600  -17.6682   15.8212 O   0  0  0  0  0  0  0  0  0  0  0  0
   17.4147  -17.7939   18.2591 C   0  0  0  0  0  0  0  0  0  0  0  0
   17.0985  -16.6664   18.7278 O   0  0  0  0  0  0  0  0  0  0  0  0
   20.5025  -15.5099   15.1555 O   0  0  0  0  0  0  0  0  0  0  0  0
   16.6692  -18.9148   18.6565 N   0  0  0  0  0  0  0  0  0  0  0  0
   15.5369  -18.7643   19.5914 C   0  0  1  0  0  0  0  0  0  0  0  0
   14.6443  -19.9811   19.4774 C   0  0  0  0  0  0  0  0  0  0  0  0
   13.4402  -19.8335   20.2908 C   0  0  0  0  0  0  0  0  0  0  0  0
   13.3323  -20.4417   21.3725 O   0  0  0  0  0  0  0  0  0  0  0  0
   16.0244  -18.5281   20.9591 C   0  0  0  0  0  0  0  0  0  0  0  0
   16.8287  -19.3102   21.5194 O   0  0  0  0  0  0  0  0  0  0  0  0
   12.4202  -19.0004   19.8305 O   0  0  0  0  0  0  0  0  0  0  0  0
   19.2005  -13.8547   23.4129 N   0  0  0  0  0  0  0  0  0  0  0  0
   19.1048  -15.2833   23.3942 C   0  0  0  0  0  0  0  0  0  0  0  0
   19.9354  -16.0239   22.8420 O   0  0  0  0  0  0  0  0  0  0  0  0
   17.9349  -15.9190   24.0807 C   0  0  0  0  0  0  0  0  0  0  0  0
   16.7417  -15.8358   23.1741 C   0  0  0  0  0  0  0  0  0  0  0  0
   16.0550  -17.1561   23.0964 C   0  0  2  0  0  0  0  0  0  0  0  0
   15.6103  -17.3998   21.7210 N   0  0  0  0  0  0  0  0  0  0  0  0
   14.9796  -17.3711   24.0588 C   0  0  0  0  0  0  0  0  0  0  0  0
   15.0622  -17.1109   25.4139 O   0  0  0  0  0  0  0  0  0  0  0  0
   13.8484  -17.8361   23.6796 O   0  0  0  0  0  0  0  0  0  0  0  0
  2  1  1  6
  2  3  1  0
  3  4  1  0
  4  8  1  0
  5  4  2  0
  6  2  1  0
  7  6  2  0
  9  6  1  0
 10 14  1  0
 10  9  1  0
 11 12  1  0
 10 11  1  1
 12 13  2  0
 14 23  1  0
 15 14  2  0
 16 12  1  0
 18 19  2  0
 18 17  1  0
 20 18  1  0
 21 20  1  0
 22 21  1  6
 22 24  1  0
 23 22  1  0
 24 26  2  0
 24 25  1  0
M  END
$$$$
