DDQ.pdb
     RDKit          3D

 26 25  0  0  1  0  0  0  0  0999 V2000
   15.3973  -19.1333   17.0422 N   0  0  0  0  0  0  0  0  0  0  0  0
   15.0731  -17.7380   17.0453 C   0  0  1  0  0  0  0  0  0  0  0  0
   14.6112  -17.2295   15.7004 C   0  0  0  0  0  0  0  0  0  0  0  0
   15.7282  -17.4450   14.7391 C   0  0  0  0  0  0  0  0  0  0  0  0
   16.8504  -17.7975   15.1832 O   0  0  0  0  0  0  0  0  0  0  0  0
   14.1315  -17.3895   18.1336 C   0  0  0  0  0  0  0  0  0  0  0  0
   14.0859  -16.1821   18.4957 O   0  0  0  0  0  0  0  0  0  0  0  0
   15.5950  -17.2765   13.3723 O   0  0  0  0  0  0  0  0  0  0  0  0
   13.2948  -18.3124   18.7803 N   0  0  0  0  0  0  0  0  0  0  0  0
   12.4469  -17.8858   19.9108 C   0  0  1  0  0  0  0  0  0  0  0  0
   11.1767  -18.7085   19.9064 C   0  0  0  0  0  0  0  0  0  0  0  0
   10.2592  -18.2730   20.9561 C   0  0  0  0  0  0  0  0  0  0  0  0
   10.5694  -17.3346   21.7142 O   0  0  0  0  0  0  0  0  0  0  0  0
   13.1913  -17.9742   21.1766 C   0  0  0  0  0  0  0  0  0  0  0  0
   14.0152  -18.8934   21.3971 O   0  0  0  0  0  0  0  0  0  0  0  0
    9.0350  -18.9288   21.0886 O   0  0  0  0  0  0  0  0  0  0  0  0
   17.4102  -14.9521   22.4707 N   0  0  0  0  0  0  0  0  0  0  0  0
   17.3369  -15.4762   23.8012 C   0  0  0  0  0  0  0  0  0  0  0  0
   18.2319  -15.3321   24.6506 O   0  0  0  0  0  0  0  0  0  0  0  0
   16.1091  -16.2420   24.1890 C   0  0  0  0  0  0  0  0  0  0  0  0
   15.1690  -16.2680   23.0192 C   0  0  0  0  0  0  0  0  0  0  0  0
   13.8961  -16.9482   23.3906 C   0  0  2  0  0  0  0  0  0  0  0  0
   13.0173  -17.0220   22.2197 N   0  0  0  0  0  0  0  0  0  0  0  0
   13.2023  -16.4073   24.5546 C   0  0  0  0  0  0  0  0  0  0  0  0
   12.0044  -15.7186   24.5165 O   0  0  0  0  0  0  0  0  0  0  0  0
   13.6918  -16.5482   25.7294 O   0  0  0  0  0  0  0  0  0  0  0  0
  2  1  1  6
  2  3  1  0
  3  4  1  0
  4  8  1  0
  5  4  2  0
  6  2  1  0
  7  6  2  0
  9  6  1  0
 10 14  1  0
 10  9  1  0
 11 12  1  0
 10 11  1  1
 12 13  2  0
 14 23  1  0
 15 14  2  0
 16 12  1  0
 18 19  2  0
 18 17  1  0
 20 18  1  0
 21 20  1  0
 22 21  1  6
 22 24  1  0
 23 22  1  0
 24 26  2  0
 24 25  1  0
M  END
$$$$
