DDQ.pdb
     RDKit          3D

 26 25  0  0  1  0  0  0  0  0999 V2000
    9.7318  -16.4694   18.3118 N   0  0  0  0  0  0  0  0  0  0  0  0
    9.4523  -17.6921   19.0038 C   0  0  1  0  0  0  0  0  0  0  0  0
    9.3711  -18.8908   18.0888 C   0  0  0  0  0  0  0  0  0  0  0  0
    8.6414  -18.4625   16.8631 C   0  0  0  0  0  0  0  0  0  0  0  0
    7.4770  -18.0030   16.9805 O   0  0  0  0  0  0  0  0  0  0  0  0
   10.3771  -17.9112   20.1392 C   0  0  0  0  0  0  0  0  0  0  0  0
   10.1296  -18.8788   20.9095 O   0  0  0  0  0  0  0  0  0  0  0  0
    9.1816  -18.5441   15.5920 O   0  0  0  0  0  0  0  0  0  0  0  0
   11.5013  -17.1150   20.4076 N   0  0  0  0  0  0  0  0  0  0  0  0
   12.3016  -17.3412   21.6272 C   0  0  1  0  0  0  0  0  0  0  0  0
   13.7650  -17.1471   21.2941 C   0  0  0  0  0  0  0  0  0  0  0  0
   14.6074  -17.3443   22.4708 C   0  0  0  0  0  0  0  0  0  0  0  0
   14.6664  -16.4706   23.3567 O   0  0  0  0  0  0  0  0  0  0  0  0
   11.8349  -16.4733   22.7194 C   0  0  0  0  0  0  0  0  0  0  0  0
   11.8557  -15.2229   22.6262 O   0  0  0  0  0  0  0  0  0  0  0  0
   15.3397  -18.5268   22.5785 O   0  0  0  0  0  0  0  0  0  0  0  0
    7.0844  -14.8992   22.6215 N   0  0  0  0  0  0  0  0  0  0  0  0
    7.2618  -14.3716   23.9407 C   0  0  0  0  0  0  0  0  0  0  0  0
    6.6207  -13.4075   24.3910 O   0  0  0  0  0  0  0  0  0  0  0  0
    8.2799  -15.0213   24.8272 C   0  0  0  0  0  0  0  0  0  0  0  0
    9.2611  -15.7645   23.9685 C   0  0  0  0  0  0  0  0  0  0  0  0
   10.3847  -16.2869   24.7964 C   0  0  2  0  0  0  0  0  0  0  0  0
   11.3345  -17.0046   23.9410 N   0  0  0  0  0  0  0  0  0  0  0  0
   10.0021  -17.0771   25.9617 C   0  0  0  0  0  0  0  0  0  0  0  0
    9.6402  -16.5571   27.1903 O   0  0  0  0  0  0  0  0  0  0  0  0
    9.9820  -18.3561   25.9044 O   0  0  0  0  0  0  0  0  0  0  0  0
  2  1  1  6
  2  3  1  0
  3  4  1  0
  4  8  1  0
  5  4  2  0
  6  2  1  0
  7  6  2  0
  9  6  1  0
 10 14  1  0
 10  9  1  0
 11 12  1  0
 10 11  1  6
 12 13  2  0
 14 23  1  0
 15 14  2  0
 16 12  1  0
 18 19  2  0
 18 17  1  0
 20 18  1  0
 21 20  1  0
 22 21  1  6
 22 24  1  0
 23 22  1  0
 24 26  2  0
 24 25  1  0
M  END
$$$$
