KPS.pdb
     RDKit          3D

 23 23  0  0  1  0  0  0  0  0999 V2000
   21.5322  -13.1086  -18.0400 N   0  0  0  0  0  0  0  0  0  0  0  0
   22.4406  -12.0562  -18.1592 C   0  0  1  0  0  0  0  0  0  0  0  0
   22.3685  -11.2532  -19.4219 C   0  0  0  0  0  0  0  0  0  0  0  0
   20.9979  -10.9372  -19.8950 C   0  0  0  0  0  0  0  0  0  0  0  0
   20.9686  -10.1452  -21.1826 C   0  0  0  0  0  0  0  0  0  0  0  0
   19.5572   -9.7530  -21.5632 C   0  0  0  0  0  0  0  0  0  0  0  0
   19.4856   -9.0085  -22.7857 N   0  0  0  0  0  0  0  0  0  0  0  0
   22.3708  -11.1289  -17.0050 C   0  0  0  0  0  0  0  0  0  0  0  0
   21.1944  -10.6493  -16.7855 O   0  0  0  0  0  0  0  0  0  0  0  0
   23.4121  -10.7319  -16.1541 N   0  0  0  0  0  0  0  0  0  0  0  0
   24.3772  -11.6230  -15.4526 C   0  0  0  0  0  0  0  0  0  0  0  0
   25.6930  -10.8837  -15.7298 C   0  0  0  0  0  0  0  0  0  0  0  0
   25.2914   -9.4848  -16.2268 C   0  0  0  0  0  0  0  0  0  0  0  0
   23.8678   -9.4556  -15.6856 C   0  0  1  0  0  0  0  0  0  0  0  0
   23.1237   -8.2580  -15.9195 C   0  0  0  0  0  0  0  0  0  0  0  0
   22.8387   -7.8327  -17.0511 O   0  0  0  0  0  0  0  0  0  0  0  0
   19.8598   -5.0876  -14.8663 O   0  0  0  0  0  0  0  0  0  0  0  0
   20.5625   -6.2591  -14.5877 C   0  0  0  0  0  0  0  0  0  0  0  0
   22.0081   -6.1600  -15.0766 C   0  0  2  0  0  0  0  0  0  0  0  0
   22.6264   -7.4169  -14.8427 N   0  0  0  0  0  0  0  0  0  0  0  0
   22.6258   -5.0504  -14.2942 C   0  0  0  0  0  0  0  0  0  0  0  0
   22.5432   -3.7787  -14.8466 O   0  0  0  0  0  0  0  0  0  0  0  0
   23.1919   -5.2141  -13.2047 O   0  0  0  0  0  0  0  0  0  0  0  0
  2  1  1  1
  2  8  1  0
  3  2  1  0
  4  3  1  0
  5  4  1  0
  6  5  1  0
  7  6  1  0
  8 10  1  0
  8  9  2  0
 10 11  1  0
 12 11  1  0
 13 14  1  0
 13 12  1  0
 14 10  1  0
 14 15  1  6
 16 15  2  0
 17 18  1  0
 19 18  1  1
 19 21  1  0
 19 20  1  0
 20 15  1  0
 21 22  1  0
 23 21  2  0
M  END
$$$$
