KPS.pdb
     RDKit          3D

 23 23  0  0  1  0  0  0  0  0999 V2000
   20.8113  -20.0937  -13.0878 N   0  0  0  0  0  0  0  0  0  0  0  0
   21.8665  -21.0034  -13.1671 C   0  0  1  0  0  0  0  0  0  0  0  0
   21.7234  -22.1038  -14.1736 C   0  0  0  0  0  0  0  0  0  0  0  0
   20.6626  -23.0989  -13.8787 C   0  0  0  0  0  0  0  0  0  0  0  0
   19.7463  -23.3731  -15.0497 C   0  0  0  0  0  0  0  0  0  0  0  0
   18.6787  -24.3860  -14.6962 C   0  0  0  0  0  0  0  0  0  0  0  0
   17.7147  -24.5812  -15.7386 N   0  0  0  0  0  0  0  0  0  0  0  0
   23.1670  -20.3275  -13.3877 C   0  0  0  0  0  0  0  0  0  0  0  0
   23.1657  -19.4903  -14.3681 O   0  0  0  0  0  0  0  0  0  0  0  0
   24.3583  -20.4947  -12.6674 N   0  0  0  0  0  0  0  0  0  0  0  0
   24.5747  -20.1996  -11.2239 C   0  0  0  0  0  0  0  0  0  0  0  0
   25.3347  -21.4606  -10.7913 C   0  0  0  0  0  0  0  0  0  0  0  0
   25.7853  -22.1456  -12.0924 C   0  0  0  0  0  0  0  0  0  0  0  0
   25.6703  -20.9481  -13.0269 C   0  0  1  0  0  0  0  0  0  0  0  0
   26.0446  -21.1668  -14.3887 C   0  0  0  0  0  0  0  0  0  0  0  0
   25.6737  -22.1455  -15.0576 O   0  0  0  0  0  0  0  0  0  0  0  0
   28.8050  -18.6394  -16.0563 O   0  0  0  0  0  0  0  0  0  0  0  0
   27.9649  -19.2347  -16.9964 C   0  0  0  0  0  0  0  0  0  0  0  0
   27.3528  -20.5234  -16.4457 C   0  0  2  0  0  0  0  0  0  0  0  0
   26.9043  -20.2544  -15.1254 N   0  0  0  0  0  0  0  0  0  0  0  0
   28.4403  -21.5432  -16.4969 C   0  0  0  0  0  0  0  0  0  0  0  0
   28.8212  -21.9834  -17.7579 O   0  0  0  0  0  0  0  0  0  0  0  0
   28.9992  -21.9983  -15.4897 O   0  0  0  0  0  0  0  0  0  0  0  0
  2  1  1  6
  2  8  1  0
  3  2  1  0
  4  3  1  0
  5  4  1  0
  6  5  1  0
  7  6  1  0
  8 10  1  0
  8  9  2  0
 10 11  1  0
 12 11  1  0
 13 14  1  0
 13 12  1  0
 14 10  1  0
 14 15  1  6
 16 15  2  0
 17 18  1  0
 19 18  1  1
 19 21  1  0
 19 20  1  0
 20 15  1  0
 21 22  1  0
 23 21  2  0
M  END
$$$$
