KPS.pdb
     RDKit          3D

 23 23  0  0  1  0  0  0  0  0999 V2000
   29.6056  -33.0782  -20.9934 N   0  0  0  0  0  0  0  0  0  0  0  0
   28.6863  -32.8586  -19.9669 C   0  0  1  0  0  0  0  0  0  0  0  0
   27.2738  -33.2790  -20.2360 C   0  0  0  0  0  0  0  0  0  0  0  0
   27.1130  -34.6509  -20.7787 C   0  0  0  0  0  0  0  0  0  0  0  0
   25.6718  -35.0490  -21.0027 C   0  0  0  0  0  0  0  0  0  0  0  0
   25.5559  -36.4876  -21.4587 C   0  0  0  0  0  0  0  0  0  0  0  0
   24.2013  -36.9131  -21.6543 N   0  0  0  0  0  0  0  0  0  0  0  0
   29.1252  -33.4673  -18.6887 C   0  0  0  0  0  0  0  0  0  0  0  0
   29.5180  -34.6906  -18.7957 O   0  0  0  0  0  0  0  0  0  0  0  0
   29.1590  -32.8745  -17.4185 N   0  0  0  0  0  0  0  0  0  0  0  0
   29.6678  -31.5156  -17.0836 C   0  0  0  0  0  0  0  0  0  0  0  0
   28.5465  -31.0160  -16.1629 C   0  0  0  0  0  0  0  0  0  0  0  0
   27.7281  -32.2620  -15.7846 C   0  0  0  0  0  0  0  0  0  0  0  0
   28.7711  -33.3226  -16.1128 C   0  0  1  0  0  0  0  0  0  0  0  0
   28.3982  -34.6792  -15.8621 C   0  0  0  0  0  0  0  0  0  0  0  0
   27.5526  -35.2970  -16.5298 O   0  0  0  0  0  0  0  0  0  0  0  0
   29.1059  -38.6258  -13.0302 O   0  0  0  0  0  0  0  0  0  0  0  0
   29.3429  -37.2749  -13.2806 C   0  0  0  0  0  0  0  0  0  0  0  0
   28.5751  -36.8040  -14.5165 C   0  0  2  0  0  0  0  0  0  0  0  0
   28.9801  -35.4706  -14.7899 N   0  0  0  0  0  0  0  0  0  0  0  0
   27.1302  -36.9150  -14.1630 C   0  0  0  0  0  0  0  0  0  0  0  0
   26.4854  -38.0855  -14.5413 O   0  0  0  0  0  0  0  0  0  0  0  0
   26.5026  -36.0310  -13.5639 O   0  0  0  0  0  0  0  0  0  0  0  0
  2  1  1  6
  2  8  1  0
  3  2  1  0
  4  3  1  0
  5  4  1  0
  6  5  1  0
  7  6  1  0
  8 10  1  0
  8  9  2  0
 10 11  1  0
 12 11  1  0
 13 14  1  0
 13 12  1  0
 14 10  1  0
 14 15  1  6
 16 15  2  0
 17 18  1  0
 19 18  1  1
 19 21  1  0
 19 20  1  0
 20 15  1  0
 21 22  1  0
 23 21  2  0
M  END
$$$$
