KPS.pdb
     RDKit          3D

 23 23  0  0  1  0  0  0  0  0999 V2000
   14.0194   -9.3596   -8.0885 N   0  0  0  0  0  0  0  0  0  0  0  0
   14.1995   -9.2810   -9.4700 C   0  0  1  0  0  0  0  0  0  0  0  0
   12.9861   -8.9463  -10.2823 C   0  0  0  0  0  0  0  0  0  0  0  0
   11.8867   -9.9411  -10.2194 C   0  0  0  0  0  0  0  0  0  0  0  0
   11.1375   -9.9343   -8.9062 C   0  0  0  0  0  0  0  0  0  0  0  0
    9.9839  -10.9140   -8.9181 C   0  0  0  0  0  0  0  0  0  0  0  0
    9.3293  -11.0348   -7.6488 N   0  0  0  0  0  0  0  0  0  0  0  0
   15.2867   -8.3424   -9.8357 C   0  0  0  0  0  0  0  0  0  0  0  0
   15.2616   -7.2290   -9.1862 O   0  0  0  0  0  0  0  0  0  0  0  0
   16.3062   -8.5300  -10.7799 N   0  0  0  0  0  0  0  0  0  0  0  0
   17.1356   -9.7531  -10.9631 C   0  0  0  0  0  0  0  0  0  0  0  0
   17.0957   -9.8920  -12.4908 C   0  0  0  0  0  0  0  0  0  0  0  0
   16.5723   -8.5465  -13.0207 C   0  0  0  0  0  0  0  0  0  0  0  0
   16.8728   -7.6919  -11.7960 C   0  0  1  0  0  0  0  0  0  0  0  0
   16.5479   -6.3037  -11.8949 C   0  0  0  0  0  0  0  0  0  0  0  0
   15.4879   -5.8761  -12.3809 O   0  0  0  0  0  0  0  0  0  0  0  0
   17.9093   -3.4298   -9.3983 O   0  0  0  0  0  0  0  0  0  0  0  0
   16.8568   -3.2433  -10.2935 C   0  0  0  0  0  0  0  0  0  0  0  0
   17.1736   -3.8736  -11.6503 C   0  0  2  0  0  0  0  0  0  0  0  0
   17.4380   -5.2516  -11.4311 N   0  0  0  0  0  0  0  0  0  0  0  0
   18.3536   -3.1290  -12.1778 C   0  0  0  0  0  0  0  0  0  0  0  0
   18.1461   -1.8004  -12.5253 O   0  0  0  0  0  0  0  0  0  0  0  0
   19.4764   -3.6340  -12.3137 O   0  0  0  0  0  0  0  0  0  0  0  0
  2  1  1  1
  2  8  1  0
  3  2  1  0
  4  3  1  0
  5  4  1  0
  6  5  1  0
  7  6  1  0
  8 10  1  0
  8  9  2  0
 10 11  1  0
 12 11  1  0
 13 14  1  0
 13 12  1  0
 14 10  1  0
 14 15  1  6
 16 15  2  0
 17 18  1  0
 19 18  1  1
 19 21  1  0
 19 20  1  0
 20 15  1  0
 21 22  1  0
 23 21  2  0
M  END
$$$$
