KPS.pdb
     RDKit          3D

 23 23  0  0  1  0  0  0  0  0999 V2000
   26.0389  -21.3562  -11.1161 N   0  0  0  0  0  0  0  0  0  0  0  0
   25.5175  -21.4985  -12.4026 C   0  0  1  0  0  0  0  0  0  0  0  0
   24.2175  -22.2342  -12.5172 C   0  0  0  0  0  0  0  0  0  0  0  0
   23.8886  -22.7326  -13.8758 C   0  0  0  0  0  0  0  0  0  0  0  0
   24.7360  -23.9062  -14.3124 C   0  0  0  0  0  0  0  0  0  0  0  0
   24.4098  -24.3326  -15.7275 C   0  0  0  0  0  0  0  0  0  0  0  0
   25.1469  -25.4843  -16.1569 N   0  0  0  0  0  0  0  0  0  0  0  0
   25.3854  -20.1949  -13.0955 C   0  0  0  0  0  0  0  0  0  0  0  0
   24.2191  -19.6565  -12.9863 O   0  0  0  0  0  0  0  0  0  0  0  0
   26.3609  -19.5072  -13.8313 N   0  0  0  0  0  0  0  0  0  0  0  0
   27.7484  -19.1910  -13.3925 C   0  0  0  0  0  0  0  0  0  0  0  0
   28.5352  -19.5782  -14.6518 C   0  0  0  0  0  0  0  0  0  0  0  0
   27.4916  -19.7133  -15.7733 C   0  0  0  0  0  0  0  0  0  0  0  0
   26.3696  -18.9060  -15.1331 C   0  0  1  0  0  0  0  0  0  0  0  0
   25.1744  -18.7583  -15.9024 C   0  0  0  0  0  0  0  0  0  0  0  0
   24.8493  -17.7062  -16.4770 O   0  0  0  0  0  0  0  0  0  0  0  0
   21.8230  -21.0212  -18.5256 O   0  0  0  0  0  0  0  0  0  0  0  0
   22.9337  -21.0475  -17.6833 C   0  0  0  0  0  0  0  0  0  0  0  0
   23.0867  -19.7215  -16.9370 C   0  0  2  0  0  0  0  0  0  0  0  0
   24.2171  -19.8374  -16.0852 N   0  0  0  0  0  0  0  0  0  0  0  0
   21.8101  -19.5266  -16.1905 C   0  0  0  0  0  0  0  0  0  0  0  0
   20.7156  -19.0990  -16.9309 O   0  0  0  0  0  0  0  0  0  0  0  0
   21.6921  -19.7251  -14.9736 O   0  0  0  0  0  0  0  0  0  0  0  0
  2  1  1  1
  2  8  1  0
  3  2  1  0
  4  3  1  0
  5  4  1  0
  6  5  1  0
  7  6  1  0
  8 10  1  0
  8  9  2  0
 10 11  1  0
 12 11  1  0
 13 14  1  0
 13 12  1  0
 14 10  1  0
 14 15  1  6
 16 15  2  0
 17 18  1  0
 19 18  1  1
 19 21  1  0
 19 20  1  0
 20 15  1  0
 21 22  1  0
 23 21  2  0
M  END
$$$$
