KPS.pdb
     RDKit          3D

 23 23  0  0  1  0  0  0  0  0999 V2000
   20.4167  -12.4783  -18.5266 N   0  0  0  0  0  0  0  0  0  0  0  0
   20.1802  -11.1180  -18.7288 C   0  0  1  0  0  0  0  0  0  0  0  0
   18.7470  -10.7039  -18.8661 C   0  0  0  0  0  0  0  0  0  0  0  0
   17.8228  -11.7649  -19.3377 C   0  0  0  0  0  0  0  0  0  0  0  0
   16.3868  -11.3076  -19.4598 C   0  0  0  0  0  0  0  0  0  0  0  0
   15.4854  -12.4250  -19.9389 C   0  0  0  0  0  0  0  0  0  0  0  0
   14.1208  -12.0203  -20.1067 N   0  0  0  0  0  0  0  0  0  0  0  0
   20.8154  -10.2824  -17.6823 C   0  0  0  0  0  0  0  0  0  0  0  0
   20.0813  -10.0975  -16.6387 O   0  0  0  0  0  0  0  0  0  0  0  0
   22.0871   -9.6922  -17.7048 N   0  0  0  0  0  0  0  0  0  0  0  0
   23.3546  -10.3259  -18.1624 C   0  0  0  0  0  0  0  0  0  0  0  0
   23.9379   -9.1961  -19.0216 C   0  0  0  0  0  0  0  0  0  0  0  0
   23.1347   -7.9358  -18.6586 C   0  0  0  0  0  0  0  0  0  0  0  0
   22.5802   -8.4023  -17.3187 C   0  0  1  0  0  0  0  0  0  0  0  0
   21.7668   -7.4670  -16.6075 C   0  0  0  0  0  0  0  0  0  0  0  0
   20.7118   -6.9891  -17.0562 O   0  0  0  0  0  0  0  0  0  0  0  0
   21.5913   -7.1155  -12.6111 O   0  0  0  0  0  0  0  0  0  0  0  0
   20.7191   -6.4007  -13.4310 C   0  0  0  0  0  0  0  0  0  0  0  0
   21.4398   -5.8805  -14.6754 C   0  0  2  0  0  0  0  0  0  0  0  0
   22.1027   -6.9822  -15.2784 N   0  0  0  0  0  0  0  0  0  0  0  0
   22.3788   -4.8279  -14.1901 C   0  0  0  0  0  0  0  0  0  0  0  0
   21.8061   -3.6611  -13.7006 O   0  0  0  0  0  0  0  0  0  0  0  0
   23.6112   -4.9505  -14.2063 O   0  0  0  0  0  0  0  0  0  0  0  0
  2  1  1  1
  2  8  1  0
  3  2  1  0
  4  3  1  0
  5  4  1  0
  6  5  1  0
  7  6  1  0
  8 10  1  0
  8  9  2  0
 10 11  1  0
 12 11  1  0
 13 14  1  0
 13 12  1  0
 14 10  1  0
 14 15  1  6
 16 15  2  0
 17 18  1  0
 19 18  1  1
 19 21  1  0
 19 20  1  0
 20 15  1  0
 21 22  1  0
 23 21  2  0
M  END
$$$$
