KPS.pdb
     RDKit          3D

 23 23  0  0  1  0  0  0  0  0999 V2000
   16.1933  -20.9787   -0.4300 N   0  0  0  0  0  0  0  0  0  0  0  0
   15.4137  -20.1546    0.3825 C   0  0  1  0  0  0  0  0  0  0  0  0
   13.9398  -20.4225    0.3846 C   0  0  0  0  0  0  0  0  0  0  0  0
   13.5446  -21.7909    0.8014 C   0  0  0  0  0  0  0  0  0  0  0  0
   12.4516  -21.8144    1.8459 C   0  0  0  0  0  0  0  0  0  0  0  0
   11.2793  -22.6648    1.4061 C   0  0  0  0  0  0  0  0  0  0  0  0
   10.2208  -22.7139    2.3711 N   0  0  0  0  0  0  0  0  0  0  0  0
   15.8938  -20.1426    1.7848 C   0  0  0  0  0  0  0  0  0  0  0  0
   16.0751  -21.3151    2.2891 O   0  0  0  0  0  0  0  0  0  0  0  0
   16.1640  -19.0297    2.5938 N   0  0  0  0  0  0  0  0  0  0  0  0
   16.4168  -17.6359    2.1347 C   0  0  0  0  0  0  0  0  0  0  0  0
   15.5355  -16.8534    3.1176 C   0  0  0  0  0  0  0  0  0  0  0  0
   15.1818  -17.8415    4.2417 C   0  0  0  0  0  0  0  0  0  0  0  0
   16.2978  -18.8522    4.0104 C   0  0  1  0  0  0  0  0  0  0  0  0
   16.3444  -19.9636    4.9076 C   0  0  0  0  0  0  0  0  0  0  0  0
   15.5045  -20.8785    4.9168 O   0  0  0  0  0  0  0  0  0  0  0  0
   18.6912  -22.8025    5.7761 O   0  0  0  0  0  0  0  0  0  0  0  0
   18.6774  -21.8990    6.8380 C   0  0  0  0  0  0  0  0  0  0  0  0
   17.3494  -21.1429    6.8965 C   0  0  2  0  0  0  0  0  0  0  0  0
   17.3905  -20.1279    5.9041 N   0  0  0  0  0  0  0  0  0  0  0  0
   17.2520  -20.6009    8.2829 C   0  0  0  0  0  0  0  0  0  0  0  0
   17.0110  -21.5211    9.2949 O   0  0  0  0  0  0  0  0  0  0  0  0
   17.3739  -19.3994    8.5578 O   0  0  0  0  0  0  0  0  0  0  0  0
  2  1  1  6
  2  8  1  0
  3  2  1  0
  4  3  1  0
  5  4  1  0
  6  5  1  0
  7  6  1  0
  8 10  1  0
  8  9  2  0
 10 11  1  0
 12 11  1  0
 13 14  1  0
 13 12  1  0
 14 10  1  0
 14 15  1  1
 16 15  2  0
 17 18  1  0
 19 18  1  1
 19 21  1  0
 19 20  1  0
 20 15  1  0
 21 22  1  0
 23 21  2  0
M  END
$$$$
