KPS.pdb
     RDKit          3D

 23 23  0  0  1  0  0  0  0  0999 V2000
   19.8474  -12.9042  -17.5057 N   0  0  0  0  0  0  0  0  0  0  0  0
   20.5435  -11.7241  -17.7702 C   0  0  1  0  0  0  0  0  0  0  0  0
   20.0755  -10.9237  -18.9469 C   0  0  0  0  0  0  0  0  0  0  0  0
   19.8787  -11.6940  -20.1999 C   0  0  0  0  0  0  0  0  0  0  0  0
   19.3326  -10.8660  -21.3410 C   0  0  0  0  0  0  0  0  0  0  0  0
   19.1557  -11.6944  -22.5953 C   0  0  0  0  0  0  0  0  0  0  0  0
   18.6862  -10.9338  -23.7157 N   0  0  0  0  0  0  0  0  0  0  0  0
   20.5991  -10.8349  -16.5857 C   0  0  0  0  0  0  0  0  0  0  0  0
   19.5213  -10.1562  -16.3859 O   0  0  0  0  0  0  0  0  0  0  0  0
   21.6624  -10.6596  -15.6887 N   0  0  0  0  0  0  0  0  0  0  0  0
   22.3731  -11.7267  -14.9312 C   0  0  0  0  0  0  0  0  0  0  0  0
   23.8313  -11.3019  -15.1509 C   0  0  0  0  0  0  0  0  0  0  0  0
   23.7725   -9.8597  -15.6816 C   0  0  0  0  0  0  0  0  0  0  0  0
   22.3674   -9.5057  -15.2116 C   0  0  1  0  0  0  0  0  0  0  0  0
   21.9185   -8.1787  -15.4943 C   0  0  0  0  0  0  0  0  0  0  0  0
   21.8319   -7.7092  -16.6410 O   0  0  0  0  0  0  0  0  0  0  0  0
   19.4365   -4.2868  -14.5550 O   0  0  0  0  0  0  0  0  0  0  0  0
   19.7885   -5.6147  -14.3166 C   0  0  0  0  0  0  0  0  0  0  0  0
   21.2402   -5.8773  -14.7196 C   0  0  2  0  0  0  0  0  0  0  0  0
   21.5176   -7.2446  -14.4546 N   0  0  0  0  0  0  0  0  0  0  0  0
   22.0644   -4.9440  -13.8981 C   0  0  0  0  0  0  0  0  0  0  0  0
   22.6026   -5.4577  -12.7252 O   0  0  0  0  0  0  0  0  0  0  0  0
   22.2806   -3.7655  -14.2117 O   0  0  0  0  0  0  0  0  0  0  0  0
  2  1  1  1
  2  8  1  0
  3  2  1  0
  4  3  1  0
  5  4  1  0
  6  5  1  0
  7  6  1  0
  8 10  1  0
  8  9  2  0
 10 11  1  0
 12 11  1  0
 13 14  1  0
 13 12  1  0
 14 10  1  0
 14 15  1  6
 16 15  2  0
 17 18  1  0
 19 18  1  1
 19 21  1  0
 19 20  1  0
 20 15  1  0
 21 22  1  0
 23 21  2  0
M  END
$$$$
