KPS.pdb
     RDKit          3D

 23 23  0  0  1  0  0  0  0  0999 V2000
   21.6479  -13.2708  -15.6660 N   0  0  0  0  0  0  0  0  0  0  0  0
   21.9137  -12.1881  -16.5051 C   0  0  1  0  0  0  0  0  0  0  0  0
   20.8978  -11.9043  -17.5690 C   0  0  0  0  0  0  0  0  0  0  0  0
   20.3885  -13.0952  -18.2932 C   0  0  0  0  0  0  0  0  0  0  0  0
   19.0529  -13.5887  -17.7845 C   0  0  0  0  0  0  0  0  0  0  0  0
   18.5094  -14.7098  -18.6438 C   0  0  0  0  0  0  0  0  0  0  0  0
   17.3478  -15.3386  -18.0875 N   0  0  0  0  0  0  0  0  0  0  0  0
   22.1598  -10.9414  -15.7420 C   0  0  0  0  0  0  0  0  0  0  0  0
   21.0918  -10.2748  -15.4643 O   0  0  0  0  0  0  0  0  0  0  0  0
   23.3885  -10.4276  -15.3036 N   0  0  0  0  0  0  0  0  0  0  0  0
   24.4948  -11.1909  -14.6626 C   0  0  0  0  0  0  0  0  0  0  0  0
   25.7004  -10.6370  -15.4337 C   0  0  0  0  0  0  0  0  0  0  0  0
   25.1952   -9.3737  -16.1505 C   0  0  0  0  0  0  0  0  0  0  0  0
   23.9596   -9.1123  -15.2987 C   0  0  1  0  0  0  0  0  0  0  0  0
   23.1899   -7.9558  -15.6339 C   0  0  0  0  0  0  0  0  0  0  0  0
   22.6758   -7.7686  -16.7490 O   0  0  0  0  0  0  0  0  0  0  0  0
   20.8953   -3.9584  -14.0706 O   0  0  0  0  0  0  0  0  0  0  0  0
   21.6786   -5.0745  -13.7794 C   0  0  0  0  0  0  0  0  0  0  0  0
   22.2569   -5.6859  -15.0563 C   0  0  2  0  0  0  0  0  0  0  0  0
   22.9351   -6.8789  -14.6907 N   0  0  0  0  0  0  0  0  0  0  0  0
   23.1649   -4.6493  -15.6273 C   0  0  0  0  0  0  0  0  0  0  0  0
   22.6618   -3.8922  -16.6774 O   0  0  0  0  0  0  0  0  0  0  0  0
   24.3143   -4.4439  -15.2139 O   0  0  0  0  0  0  0  0  0  0  0  0
  2  1  1  1
  2  8  1  0
  3  2  1  0
  4  3  1  0
  5  4  1  0
  6  5  1  0
  7  6  1  0
  8 10  1  0
  8  9  2  0
 10 11  1  0
 12 11  1  0
 13 14  1  0
 13 12  1  0
 14 10  1  0
 14 15  1  6
 16 15  2  0
 17 18  1  0
 19 18  1  1
 19 21  1  0
 19 20  1  0
 20 15  1  0
 21 22  1  0
 23 21  2  0
M  END
$$$$
