KPS.pdb
     RDKit          3D

 23 23  0  0  1  0  0  0  0  0999 V2000
   19.7474  -12.8952  -17.0101 N   0  0  0  0  0  0  0  0  0  0  0  0
   19.8180  -11.6747  -17.6828 C   0  0  1  0  0  0  0  0  0  0  0  0
   18.5118  -11.0405  -18.0517 C   0  0  0  0  0  0  0  0  0  0  0  0
   17.3071  -11.6899  -17.4779 C   0  0  0  0  0  0  0  0  0  0  0  0
   17.2358  -11.6101  -15.9697 C   0  0  0  0  0  0  0  0  0  0  0  0
   15.9736  -12.2534  -15.4371 C   0  0  0  0  0  0  0  0  0  0  0  0
   16.2101  -13.4998  -14.7705 N   0  0  0  0  0  0  0  0  0  0  0  0
   20.6344  -10.6809  -16.9460 C   0  0  0  0  0  0  0  0  0  0  0  0
   20.1023  -10.2757  -15.8439 O   0  0  0  0  0  0  0  0  0  0  0  0
   21.8823  -10.1531  -17.3069 N   0  0  0  0  0  0  0  0  0  0  0  0
   23.0254  -10.8985  -17.9029 C   0  0  0  0  0  0  0  0  0  0  0  0
   23.4373   -9.9316  -19.0210 C   0  0  0  0  0  0  0  0  0  0  0  0
   22.7370   -8.5999  -18.7029 C   0  0  0  0  0  0  0  0  0  0  0  0
   22.4570   -8.8419  -17.2253 C   0  0  1  0  0  0  0  0  0  0  0  0
   21.8128   -7.7800  -16.5185 C   0  0  0  0  0  0  0  0  0  0  0  0
   20.6733   -7.3645  -16.7862 O   0  0  0  0  0  0  0  0  0  0  0  0
   21.9828   -4.7316  -12.6947 O   0  0  0  0  0  0  0  0  0  0  0  0
   22.5754   -5.7515  -13.4380 C   0  0  0  0  0  0  0  0  0  0  0  0
   21.8179   -5.9876  -14.7453 C   0  0  2  0  0  0  0  0  0  0  0  0
   22.4385   -7.0792  -15.4087 N   0  0  0  0  0  0  0  0  0  0  0  0
   21.9154   -4.7090  -15.5073 C   0  0  0  0  0  0  0  0  0  0  0  0
   20.8995   -3.7842  -15.3030 O   0  0  0  0  0  0  0  0  0  0  0  0
   22.8386   -4.4482  -16.2908 O   0  0  0  0  0  0  0  0  0  0  0  0
  2  1  1  1
  2  8  1  0
  3  2  1  0
  4  3  1  0
  5  4  1  0
  6  5  1  0
  7  6  1  0
  8 10  1  0
  8  9  2  0
 10 11  1  0
 12 11  1  0
 13 14  1  0
 13 12  1  0
 14 10  1  0
 14 15  1  6
 16 15  2  0
 17 18  1  0
 19 18  1  1
 19 21  1  0
 19 20  1  0
 20 15  1  0
 21 22  1  0
 23 21  2  0
M  END
$$$$
