KPS.pdb
     RDKit          3D

 23 23  0  0  1  0  0  0  0  0999 V2000
   23.6001  -19.0680  -14.8526 N   0  0  0  0  0  0  0  0  0  0  0  0
   23.3319  -17.9588  -15.6556 C   0  0  1  0  0  0  0  0  0  0  0  0
   21.9622  -17.8881  -16.2585 C   0  0  0  0  0  0  0  0  0  0  0  0
   21.4641  -19.1542  -16.8511 C   0  0  0  0  0  0  0  0  0  0  0  0
   20.8462  -20.0943  -15.8409 C   0  0  0  0  0  0  0  0  0  0  0  0
   20.3790  -21.3796  -16.4894 C   0  0  0  0  0  0  0  0  0  0  0  0
   19.7825  -22.2974  -15.5641 N   0  0  0  0  0  0  0  0  0  0  0  0
   23.6041  -16.6838  -14.9504 C   0  0  0  0  0  0  0  0  0  0  0  0
   22.6447  -16.2907  -14.1843 O   0  0  0  0  0  0  0  0  0  0  0  0
   24.7555  -15.8870  -15.0241 N   0  0  0  0  0  0  0  0  0  0  0  0
   26.1623  -16.3354  -14.8304 C   0  0  0  0  0  0  0  0  0  0  0  0
   26.8439  -15.6379  -16.0152 C   0  0  0  0  0  0  0  0  0  0  0  0
   25.8380  -14.5898  -16.5199 C   0  0  0  0  0  0  0  0  0  0  0  0
   24.9721  -14.4911  -15.2706 C   0  0  1  0  0  0  0  0  0  0  0  0
   23.8905  -13.5583  -15.3193 C   0  0  0  0  0  0  0  0  0  0  0  0
   22.8905  -13.6985  -16.0424 O   0  0  0  0  0  0  0  0  0  0  0  0
   22.0928   -9.3309  -13.5896 O   0  0  0  0  0  0  0  0  0  0  0  0
   23.1427  -10.2460  -13.6556 C   0  0  0  0  0  0  0  0  0  0  0  0
   22.8090  -11.3944  -14.6087 C   0  0  2  0  0  0  0  0  0  0  0  0
   23.8604  -12.3449  -14.5186 N   0  0  0  0  0  0  0  0  0  0  0  0
   22.6931  -10.7779  -15.9620 C   0  0  0  0  0  0  0  0  0  0  0  0
   21.4224  -10.3809  -16.3579 O   0  0  0  0  0  0  0  0  0  0  0  0
   23.6564  -10.6114  -16.7226 O   0  0  0  0  0  0  0  0  0  0  0  0
  2  1  1  1
  2  8  1  0
  3  2  1  0
  4  3  1  0
  5  4  1  0
  6  5  1  0
  7  6  1  0
  8 10  1  0
  8  9  2  0
 10 11  1  0
 12 11  1  0
 13 14  1  0
 13 12  1  0
 14 10  1  0
 14 15  1  6
 16 15  2  0
 17 18  1  0
 19 18  1  1
 19 21  1  0
 19 20  1  0
 20 15  1  0
 21 22  1  0
 23 21  2  0
M  END
$$$$
