KPS.pdb
     RDKit          3D

 23 23  0  0  1  0  0  0  0  0999 V2000
   23.2319  -20.8142  -13.0120 N   0  0  0  0  0  0  0  0  0  0  0  0
   24.6018  -20.6357  -12.8156 C   0  0  1  0  0  0  0  0  0  0  0  0
   25.2856  -21.6389  -11.9379 C   0  0  0  0  0  0  0  0  0  0  0  0
   25.2442  -21.3424  -10.4844 C   0  0  0  0  0  0  0  0  0  0  0  0
   23.8574  -21.4262   -9.8880 C   0  0  0  0  0  0  0  0  0  0  0  0
   23.8635  -21.0829   -8.4139 C   0  0  0  0  0  0  0  0  0  0  0  0
   22.5616  -21.1261   -7.8162 N   0  0  0  0  0  0  0  0  0  0  0  0
   25.3400  -20.5487  -14.0980 C   0  0  0  0  0  0  0  0  0  0  0  0
   24.6951  -21.0206  -15.1097 O   0  0  0  0  0  0  0  0  0  0  0  0
   26.6213  -20.0247  -14.3212 N   0  0  0  0  0  0  0  0  0  0  0  0
   27.1795  -18.7661  -13.7537 C   0  0  0  0  0  0  0  0  0  0  0  0
   28.5681  -19.2492  -13.3141 C   0  0  0  0  0  0  0  0  0  0  0  0
   28.7791  -20.6057  -14.0073 C   0  0  0  0  0  0  0  0  0  0  0  0
   27.7380  -20.4578  -15.1095 C   0  0  1  0  0  0  0  0  0  0  0  0
   27.6321  -21.5432  -16.0331 C   0  0  0  0  0  0  0  0  0  0  0  0
   27.6524  -22.7389  -15.6977 O   0  0  0  0  0  0  0  0  0  0  0  0
   26.3267  -23.0280  -20.4453 O   0  0  0  0  0  0  0  0  0  0  0  0
   26.5938  -21.9654  -19.5831 C   0  0  0  0  0  0  0  0  0  0  0  0
   27.4240  -22.4277  -18.3849 C   0  0  2  0  0  0  0  0  0  0  0  0
   27.4898  -21.3463  -17.4667 N   0  0  0  0  0  0  0  0  0  0  0  0
   28.7567  -22.8072  -18.9371 C   0  0  0  0  0  0  0  0  0  0  0  0
   28.9611  -24.1562  -19.1967 O   0  0  0  0  0  0  0  0  0  0  0  0
   29.6600  -21.9912  -19.1658 O   0  0  0  0  0  0  0  0  0  0  0  0
  2  1  1  6
  2  8  1  0
  3  2  1  0
  4  3  1  0
  5  4  1  0
  6  5  1  0
  7  6  1  0
  8 10  1  0
  8  9  2  0
 10 11  1  0
 12 11  1  0
 13 14  1  0
 13 12  1  0
 14 10  1  0
 14 15  1  1
 16 15  2  0
 17 18  1  0
 19 18  1  6
 19 21  1  0
 19 20  1  0
 20 15  1  0
 21 22  1  0
 23 21  2  0
M  END
$$$$
