TSH.pdb
     RDKit          3D

 24 24  0  0  1  0  0  0  0  0999 V2000
    7.5611  -12.1558   18.6091 C   0  0  0  0  0  0  0  0  0  0  0  0
    8.7994  -12.9296   18.9924 C   0  0  1  0  0  0  0  0  0  0  0  0
    8.5947  -13.5003   20.2258 O   0  0  0  0  0  0  0  0  0  0  0  0
    9.0692  -13.9433   17.9054 C   0  0  2  0  0  0  0  0  0  0  0  0
    7.9043  -14.7437   17.6186 N   0  0  0  0  0  0  0  0  0  0  0  0
   10.2665  -14.7605   18.1795 C   0  0  0  0  0  0  0  0  0  0  0  0
   10.1339  -15.9074   18.6341 O   0  0  0  0  0  0  0  0  0  0  0  0
   14.9248  -15.4905   17.4094 O   0  0  0  0  0  0  0  0  0  0  0  0
   13.8617  -14.6185   17.2133 C   0  0  0  0  0  0  0  0  0  0  0  0
   12.7723  -14.9935   18.1834 C   0  0  2  0  0  0  0  0  0  0  0  0
   11.5513  -14.2604   17.9339 N   0  0  0  0  0  0  0  0  0  0  0  0
   13.1481  -14.7905   19.6058 C   0  0  0  0  0  0  0  0  0  0  0  0
   13.0148  -13.5872   20.0409 O   0  0  0  0  0  0  0  0  0  0  0  0
   13.6160  -15.8085   20.4439 N   0  0  0  0  0  0  0  0  0  0  0  0
   14.0611  -15.4854   21.8178 C   0  0  1  0  0  0  0  0  0  0  0  0
   13.2987  -16.3976   22.6935 C   0  0  0  0  0  0  0  0  0  0  0  0
   11.9249  -16.0679   23.0338 C   0  0  0  0  0  0  0  0  0  0  0  0
   11.0642  -15.0564   22.7677 C   0  0  0  0  0  0  0  0  0  0  0  0
    9.8547  -15.2824   23.3225 N   0  0  0  0  0  0  0  0  0  0  0  0
    9.9736  -16.4617   23.9442 C   0  0  0  0  0  0  0  0  0  0  0  0
   11.1866  -16.9508   23.7911 N   0  0  0  0  0  0  0  0  0  0  0  0
   15.5330  -15.6863   21.8601 C   0  0  0  0  0  0  0  0  0  0  0  0
   16.2994  -15.4775   22.8123 O   0  0  0  0  0  0  0  0  0  0  0  0
   16.1458  -16.1692   20.6926 O   0  0  0  0  0  0  0  0  0  0  0  0
  2  1  1  6
  2  3  1  0
  4  2  1  0
  4  5  1  1
  6 11  1  0
  6  4  1  0
  7  6  2  0
  8  9  1  0
 10  9  1  6
 10 11  1  0
 10 12  1  0
 12 14  1  0
 13 12  2  0
 14 15  1  0
 15 16  1  1
 15 22  1  0
 17 21  1  0
 17 16  1  0
 18 17  2  0
 19 18  1  0
 19 20  1  0
 20 21  2  0
 22 24  1  0
 23 22  2  0
M  END
$$$$
