TSH.pdb
     RDKit          3D

 24 24  0  0  1  0  0  0  0  0999 V2000
    8.7278  -12.8333   18.7323 C   0  0  0  0  0  0  0  0  0  0  0  0
    8.7809  -13.7802   19.9069 C   0  0  1  0  0  0  0  0  0  0  0  0
    8.7898  -13.0408   21.0653 O   0  0  0  0  0  0  0  0  0  0  0  0
    7.5971  -14.7131   19.8058 C   0  0  2  0  0  0  0  0  0  0  0  0
    6.3625  -13.9927   19.6142 N   0  0  0  0  0  0  0  0  0  0  0  0
    7.5305  -15.6653   20.9308 C   0  0  0  0  0  0  0  0  0  0  0  0
    6.6588  -15.5230   21.8023 O   0  0  0  0  0  0  0  0  0  0  0  0
   10.4795  -18.5754   21.3281 O   0  0  0  0  0  0  0  0  0  0  0  0
    9.2096  -18.9297   21.7650 C   0  0  0  0  0  0  0  0  0  0  0  0
    8.4776  -17.6650   22.1298 C   0  0  2  0  0  0  0  0  0  0  0  0
    8.4372  -16.7279   21.0294 N   0  0  0  0  0  0  0  0  0  0  0  0
    9.0506  -16.9660   23.3082 C   0  0  0  0  0  0  0  0  0  0  0  0
   10.0164  -16.1569   23.0486 O   0  0  0  0  0  0  0  0  0  0  0  0
    8.5996  -17.1471   24.6203 N   0  0  0  0  0  0  0  0  0  0  0  0
    9.2830  -16.4560   25.7363 C   0  0  1  0  0  0  0  0  0  0  0  0
    8.2108  -15.7496   26.4655 C   0  0  0  0  0  0  0  0  0  0  0  0
    7.6477  -14.5372   25.8955 C   0  0  0  0  0  0  0  0  0  0  0  0
    7.8905  -13.7563   24.8158 C   0  0  0  0  0  0  0  0  0  0  0  0
    7.0087  -12.7374   24.7387 N   0  0  0  0  0  0  0  0  0  0  0  0
    6.2032  -12.8956   25.7958 C   0  0  0  0  0  0  0  0  0  0  0  0
    6.5561  -13.9517   26.4987 N   0  0  0  0  0  0  0  0  0  0  0  0
    9.9812  -17.4972   26.5345 C   0  0  0  0  0  0  0  0  0  0  0  0
    9.9458  -18.7262   26.3734 O   0  0  0  0  0  0  0  0  0  0  0  0
   10.7800  -17.0556   27.6015 O   0  0  0  0  0  0  0  0  0  0  0  0
  2  1  1  6
  2  3  1  0
  4  2  1  0
  4  5  1  1
  6 11  1  0
  6  4  1  0
  7  6  2  0
  8  9  1  0
 10  9  1  6
 10 11  1  0
 10 12  1  0
 12 14  1  0
 13 12  2  0
 14 15  1  0
 15 16  1  1
 15 22  1  0
 17 21  1  0
 17 16  1  0
 18 17  2  0
 19 18  1  0
 19 20  1  0
 20 21  2  0
 22 24  1  0
 23 22  2  0
M  END
$$$$
