TSH.pdb
     RDKit          3D

 24 24  0  0  1  0  0  0  0  0999 V2000
   13.3277  -18.6512   15.4233 C   0  0  0  0  0  0  0  0  0  0  0  0
   13.2550  -17.3833   14.6071 C   0  0  1  0  0  0  0  0  0  0  0  0
   13.5003  -17.6951   13.2912 O   0  0  0  0  0  0  0  0  0  0  0  0
   11.8943  -16.7655   14.8283 C   0  0  2  0  0  0  0  0  0  0  0  0
   11.6117  -15.7328   13.8621 N   0  0  0  0  0  0  0  0  0  0  0  0
   11.6992  -16.3116   16.2184 C   0  0  0  0  0  0  0  0  0  0  0  0
   12.1847  -15.2294   16.5828 O   0  0  0  0  0  0  0  0  0  0  0  0
    9.8570  -18.8306   18.9147 O   0  0  0  0  0  0  0  0  0  0  0  0
    9.5601  -17.4851   19.0895 C   0  0  0  0  0  0  0  0  0  0  0  0
   10.6859  -16.6827   18.4920 C   0  0  2  0  0  0  0  0  0  0  0  0
   10.9738  -17.0848   17.1333 N   0  0  0  0  0  0  0  0  0  0  0  0
   11.9480  -16.7585   19.2711 C   0  0  0  0  0  0  0  0  0  0  0  0
   12.7625  -17.6845   18.9052 O   0  0  0  0  0  0  0  0  0  0  0  0
   12.2647  -15.9027   20.3318 N   0  0  0  0  0  0  0  0  0  0  0  0
   13.5414  -16.0737   21.0605 C   0  0  1  0  0  0  0  0  0  0  0  0
   14.2753  -14.8095   20.8523 C   0  0  0  0  0  0  0  0  0  0  0  0
   14.7075  -14.4549   19.5109 C   0  0  0  0  0  0  0  0  0  0  0  0
   14.2694  -13.6382   18.5230 C   0  0  0  0  0  0  0  0  0  0  0  0
   15.1027  -13.6615   17.4614 N   0  0  0  0  0  0  0  0  0  0  0  0
   16.0774  -14.5121   17.8046 C   0  0  0  0  0  0  0  0  0  0  0  0
   15.8713  -14.9973   19.0113 N   0  0  0  0  0  0  0  0  0  0  0  0
   13.2016  -16.3562   22.4794 C   0  0  0  0  0  0  0  0  0  0  0  0
   12.0733  -16.4259   22.9891 O   0  0  0  0  0  0  0  0  0  0  0  0
   14.2721  -16.5725   23.3619 O   0  0  0  0  0  0  0  0  0  0  0  0
  2  1  1  1
  2  3  1  0
  4  2  1  0
  4  5  1  6
  6 11  1  0
  6  4  1  0
  7  6  2  0
  8  9  1  0
 10  9  1  1
 10 11  1  0
 10 12  1  0
 12 14  1  0
 13 12  2  0
 14 15  1  0
 15 16  1  1
 15 22  1  0
 17 21  1  0
 17 16  1  0
 18 17  2  0
 19 18  1  0
 19 20  1  0
 20 21  2  0
 22 24  1  0
 23 22  2  0
M  END
$$$$
