TSH.pdb
     RDKit          3D

 24 24  0  0  1  0  0  0  0  0999 V2000
    7.5515  -16.0010   17.8403 C   0  0  0  0  0  0  0  0  0  0  0  0
    8.2145  -14.7217   17.3900 C   0  0  1  0  0  0  0  0  0  0  0  0
    7.7871  -14.4319   16.1164 O   0  0  0  0  0  0  0  0  0  0  0  0
    7.8731  -13.6436   18.3916 C   0  0  2  0  0  0  0  0  0  0  0  0
    8.0904  -12.3237   17.8526 N   0  0  0  0  0  0  0  0  0  0  0  0
    8.5452  -13.8450   19.6895 C   0  0  0  0  0  0  0  0  0  0  0  0
    9.7208  -13.4752   19.8339 O   0  0  0  0  0  0  0  0  0  0  0  0
    6.8616  -16.3356   22.5784 O   0  0  0  0  0  0  0  0  0  0  0  0
    7.4608  -15.1784   23.0592 C   0  0  0  0  0  0  0  0  0  0  0  0
    8.4794  -14.7304   22.0443 C   0  0  2  0  0  0  0  0  0  0  0  0
    7.8754  -14.4478   20.7614 N   0  0  0  0  0  0  0  0  0  0  0  0
    9.5754  -15.7097   21.8308 C   0  0  0  0  0  0  0  0  0  0  0  0
    9.5189  -16.3617   20.7233 O   0  0  0  0  0  0  0  0  0  0  0  0
   10.6119  -15.9345   22.7434 N   0  0  0  0  0  0  0  0  0  0  0  0
   11.9276  -16.4108   22.2614 C   0  0  1  0  0  0  0  0  0  0  0  0
   12.3404  -15.4297   21.2380 C   0  0  0  0  0  0  0  0  0  0  0  0
   13.6361  -15.5785   20.5972 C   0  0  0  0  0  0  0  0  0  0  0  0
   14.6453  -16.4816   20.6234 C   0  0  0  0  0  0  0  0  0  0  0  0
   15.6343  -16.1371   19.7718 N   0  0  0  0  0  0  0  0  0  0  0  0
   15.2234  -14.9953   19.2073 C   0  0  0  0  0  0  0  0  0  0  0  0
   14.0449  -14.6399   19.6752 N   0  0  0  0  0  0  0  0  0  0  0  0
   12.8283  -16.4781   23.4416 C   0  0  0  0  0  0  0  0  0  0  0  0
   12.6311  -16.0108   24.5731 O   0  0  0  0  0  0  0  0  0  0  0  0
   14.0519  -17.1461   23.2742 O   0  0  0  0  0  0  0  0  0  0  0  0
  2  1  1  1
  2  3  1  0
  4  2  1  0
  4  5  1  6
  6 11  1  0
  6  4  1  0
  7  6  2  0
  8  9  1  0
 10  9  1  1
 10 11  1  0
 10 12  1  0
 12 14  1  0
 13 12  2  0
 14 15  1  0
 15 16  1  6
 15 22  1  0
 17 21  1  0
 17 16  1  0
 18 17  2  0
 19 18  1  0
 19 20  1  0
 20 21  2  0
 22 24  1  0
 23 22  2  0
M  END
$$$$
