TSH.pdb
     RDKit          3D

 24 24  0  0  1  0  0  0  0  0999 V2000
    9.1539  -12.6860   19.8537 C   0  0  0  0  0  0  0  0  0  0  0  0
    8.4535  -13.0892   18.5786 C   0  0  1  0  0  0  0  0  0  0  0  0
    8.9232  -12.3032   17.5537 O   0  0  0  0  0  0  0  0  0  0  0  0
    8.7002  -14.5632   18.3588 C   0  0  2  0  0  0  0  0  0  0  0  0
    8.2851  -14.9854   17.0438 N   0  0  0  0  0  0  0  0  0  0  0  0
    8.1259  -15.3981   19.4311 C   0  0  0  0  0  0  0  0  0  0  0  0
    6.9678  -15.8287   19.3177 O   0  0  0  0  0  0  0  0  0  0  0  0
    8.3720  -18.9733   22.0975 O   0  0  0  0  0  0  0  0  0  0  0  0
    8.7312  -18.1025   21.0768 C   0  0  0  0  0  0  0  0  0  0  0  0
    8.4764  -16.6981   21.5573 C   0  0  2  0  0  0  0  0  0  0  0  0
    8.8693  -15.7118   20.5757 N   0  0  0  0  0  0  0  0  0  0  0  0
    9.1616  -16.3739   22.8344 C   0  0  0  0  0  0  0  0  0  0  0  0
   10.3876  -16.0020   22.7189 O   0  0  0  0  0  0  0  0  0  0  0  0
    8.5518  -16.4541   24.0912 N   0  0  0  0  0  0  0  0  0  0  0  0
    9.2833  -16.0014   25.2954 C   0  0  1  0  0  0  0  0  0  0  0  0
    8.2438  -15.4717   26.2004 C   0  0  0  0  0  0  0  0  0  0  0  0
    7.5184  -14.2717   25.8191 C   0  0  0  0  0  0  0  0  0  0  0  0
    7.6932  -13.2584   24.9374 C   0  0  0  0  0  0  0  0  0  0  0  0
    6.6555  -12.3958   24.9690 N   0  0  0  0  0  0  0  0  0  0  0  0
    5.8217  -12.8906   25.8917 C   0  0  0  0  0  0  0  0  0  0  0  0
    6.3047  -13.9997   26.4118 N   0  0  0  0  0  0  0  0  0  0  0  0
   10.0173  -17.1778   25.8302 C   0  0  0  0  0  0  0  0  0  0  0  0
    9.9562  -18.3522   25.4369 O   0  0  0  0  0  0  0  0  0  0  0  0
   10.8876  -16.9517   26.9087 O   0  0  0  0  0  0  0  0  0  0  0  0
  2  1  1  1
  2  3  1  0
  4  2  1  0
  4  5  1  6
  6 11  1  0
  6  4  1  0
  7  6  2  0
  8  9  1  0
 10  9  1  6
 10 11  1  0
 10 12  1  0
 12 14  1  0
 13 12  2  0
 14 15  1  0
 15 16  1  1
 15 22  1  0
 17 21  1  0
 17 16  1  0
 18 17  2  0
 19 18  1  0
 19 20  1  0
 20 21  2  0
 22 24  1  0
 23 22  2  0
M  END
$$$$
