TSH.pdb
     RDKit          3D

 24 24  0  0  1  0  0  0  0  0999 V2000
    9.5737  -16.8566   13.4775 C   0  0  0  0  0  0  0  0  0  0  0  0
    8.8289  -17.1941   14.7466 C   0  0  1  0  0  0  0  0  0  0  0  0
    8.1889  -18.3976   14.5716 O   0  0  0  0  0  0  0  0  0  0  0  0
    9.8265  -17.2103   15.8807 C   0  0  2  0  0  0  0  0  0  0  0  0
   10.8281  -18.2318   15.6984 N   0  0  0  0  0  0  0  0  0  0  0  0
    9.1770  -17.2812   17.2035 C   0  0  0  0  0  0  0  0  0  0  0  0
    8.3289  -16.4307   17.5153 O   0  0  0  0  0  0  0  0  0  0  0  0
   10.3634  -20.2186   19.8789 O   0  0  0  0  0  0  0  0  0  0  0  0
    9.0377  -19.8149   19.9723 C   0  0  0  0  0  0  0  0  0  0  0  0
    8.9452  -18.4084   19.4416 C   0  0  2  0  0  0  0  0  0  0  0  0
    9.5037  -18.2948   18.1127 N   0  0  0  0  0  0  0  0  0  0  0  0
    9.6105  -17.4020   20.3076 C   0  0  0  0  0  0  0  0  0  0  0  0
   10.7948  -17.0602   19.9393 O   0  0  0  0  0  0  0  0  0  0  0  0
    9.0245  -16.8423   21.4482 N   0  0  0  0  0  0  0  0  0  0  0  0
    9.7796  -15.8605   22.2582 C   0  0  1  0  0  0  0  0  0  0  0  0
    8.9815  -14.6195   22.2007 C   0  0  0  0  0  0  0  0  0  0  0  0
    8.9561  -13.8512   20.9675 C   0  0  0  0  0  0  0  0  0  0  0  0
    9.5299  -13.9412   19.7438 C   0  0  0  0  0  0  0  0  0  0  0  0
    9.1140  -12.9460   18.9324 N   0  0  0  0  0  0  0  0  0  0  0  0
    8.2632  -12.2269   19.6742 C   0  0  0  0  0  0  0  0  0  0  0  0
    8.1491  -12.7378   20.8824 N   0  0  0  0  0  0  0  0  0  0  0  0
    9.9204  -16.4336   23.6222 C   0  0  0  0  0  0  0  0  0  0  0  0
    9.3619  -17.4405   24.0825 O   0  0  0  0  0  0  0  0  0  0  0  0
   10.7838  -15.7696   24.5083 O   0  0  0  0  0  0  0  0  0  0  0  0
  2  1  1  6
  2  3  1  0
  4  2  1  0
  4  5  1  6
  6 11  1  0
  6  4  1  0
  7  6  2  0
  8  9  1  0
 10  9  1  1
 10 11  1  0
 10 12  1  0
 12 14  1  0
 13 12  2  0
 14 15  1  0
 15 16  1  1
 15 22  1  0
 17 21  1  0
 17 16  1  0
 18 17  2  0
 19 18  1  0
 19 20  1  0
 20 21  2  0
 22 24  1  0
 23 22  2  0
M  END
$$$$
