TSH.pdb
     RDKit          3D

 24 24  0  0  1  0  0  0  0  0999 V2000
    7.3907  -19.6572   16.7667 C   0  0  0  0  0  0  0  0  0  0  0  0
    7.9331  -18.8411   17.9150 C   0  0  1  0  0  0  0  0  0  0  0  0
    9.1618  -19.3452   18.2685 O   0  0  0  0  0  0  0  0  0  0  0  0
    7.9870  -17.3972   17.4745 C   0  0  2  0  0  0  0  0  0  0  0  0
    8.7125  -17.2413   16.2379 N   0  0  0  0  0  0  0  0  0  0  0  0
    8.4776  -16.5000   18.5380 C   0  0  0  0  0  0  0  0  0  0  0  0
    9.6752  -16.1759   18.5612 O   0  0  0  0  0  0  0  0  0  0  0  0
    6.1216  -15.7470   21.9159 O   0  0  0  0  0  0  0  0  0  0  0  0
    6.8637  -14.6767   21.4335 C   0  0  0  0  0  0  0  0  0  0  0  0
    8.0345  -15.2349   20.6679 C   0  0  2  0  0  0  0  0  0  0  0  0
    7.6111  -16.0085   19.5221 N   0  0  0  0  0  0  0  0  0  0  0  0
    8.9313  -16.0855   21.4911 C   0  0  0  0  0  0  0  0  0  0  0  0
    9.3058  -17.1838   20.9358 O   0  0  0  0  0  0  0  0  0  0  0  0
    9.3604  -15.7508   22.7801 N   0  0  0  0  0  0  0  0  0  0  0  0
   10.3157  -16.6301   23.4902 C   0  0  1  0  0  0  0  0  0  0  0  0
   11.5298  -16.6371   22.6498 C   0  0  0  0  0  0  0  0  0  0  0  0
   12.7234  -17.3079   23.1366 C   0  0  0  0  0  0  0  0  0  0  0  0
   13.0639  -18.0355   24.2272 C   0  0  0  0  0  0  0  0  0  0  0  0
   14.3404  -18.4671   24.1503 N   0  0  0  0  0  0  0  0  0  0  0  0
   14.7962  -17.9947   22.9840 C   0  0  0  0  0  0  0  0  0  0  0  0
   13.8626  -17.3053   22.3618 N   0  0  0  0  0  0  0  0  0  0  0  0
   10.5148  -16.0559   24.8464 C   0  0  0  0  0  0  0  0  0  0  0  0
   10.0756  -14.9834   25.2873 O   0  0  0  0  0  0  0  0  0  0  0  0
   11.2894  -16.8024   25.7490 O   0  0  0  0  0  0  0  0  0  0  0  0
  2  1  1  6
  2  3  1  0
  4  2  1  0
  4  5  1  6
  6 11  1  0
  6  4  1  0
  7  6  2  0
  8  9  1  0
 10  9  1  1
 10 11  1  0
 10 12  1  0
 12 14  1  0
 13 12  2  0
 14 15  1  0
 15 16  1  6
 15 22  1  0
 17 21  1  0
 17 16  1  0
 18 17  2  0
 19 18  1  0
 19 20  1  0
 20 21  2  0
 22 24  1  0
 23 22  2  0
M  END
$$$$
