TSH.pdb
     RDKit          3D

 24 24  0  0  1  0  0  0  0  0999 V2000
    6.6268  -14.6511   18.8573 C   0  0  0  0  0  0  0  0  0  0  0  0
    7.3974  -14.8987   20.1316 C   0  0  1  0  0  0  0  0  0  0  0  0
    8.3918  -15.8110   19.8717 O   0  0  0  0  0  0  0  0  0  0  0  0
    7.9225  -13.5703   20.6229 C   0  0  2  0  0  0  0  0  0  0  0  0
    8.6903  -12.8900   19.6092 N   0  0  0  0  0  0  0  0  0  0  0  0
    8.6484  -13.6878   21.9020 C   0  0  0  0  0  0  0  0  0  0  0  0
    9.8869  -13.6122   21.9121 O   0  0  0  0  0  0  0  0  0  0  0  0
    6.5293  -14.2871   25.4616 O   0  0  0  0  0  0  0  0  0  0  0  0
    7.7469  -13.6222   25.5286 C   0  0  0  0  0  0  0  0  0  0  0  0
    8.5989  -14.1032   24.3836 C   0  0  2  0  0  0  0  0  0  0  0  0
    7.9597  -13.8836   23.1054 N   0  0  0  0  0  0  0  0  0  0  0  0
    8.9611  -15.5405   24.4757 C   0  0  0  0  0  0  0  0  0  0  0  0
    8.1077  -16.3542   23.9613 O   0  0  0  0  0  0  0  0  0  0  0  0
   10.1358  -16.0144   25.0700 N   0  0  0  0  0  0  0  0  0  0  0  0
   10.2964  -17.4618   25.3332 C   0  0  1  0  0  0  0  0  0  0  0  0
   11.6482  -17.7946   24.8410 C   0  0  0  0  0  0  0  0  0  0  0  0
   11.9054  -17.7736   23.4109 C   0  0  0  0  0  0  0  0  0  0  0  0
   11.1817  -17.5536   22.2873 C   0  0  0  0  0  0  0  0  0  0  0  0
   11.9561  -17.6203   21.1838 N   0  0  0  0  0  0  0  0  0  0  0  0
   13.1861  -17.8868   21.6393 C   0  0  0  0  0  0  0  0  0  0  0  0
   13.1877  -17.9830   22.9526 N   0  0  0  0  0  0  0  0  0  0  0  0
   10.1110  -17.6648   26.7937 C   0  0  0  0  0  0  0  0  0  0  0  0
    9.9102  -16.8001   27.6596 O   0  0  0  0  0  0  0  0  0  0  0  0
   10.1665  -18.9854   27.2674 O   0  0  0  0  0  0  0  0  0  0  0  0
  2  1  1  6
  2  3  1  0
  4  2  1  0
  4  5  1  6
  6 11  1  0
  6  4  1  0
  7  6  2  0
  8  9  1  0
 10  9  1  1
 10 11  1  0
 10 12  1  0
 12 14  1  0
 13 12  2  0
 14 15  1  0
 15 16  1  1
 15 22  1  0
 17 21  1  0
 17 16  1  0
 18 17  2  0
 19 18  1  0
 19 20  1  0
 20 21  2  0
 22 24  1  0
 23 22  2  0
M  END
$$$$
