TSH.pdb
     RDKit          3D

 24 24  0  0  1  0  0  0  0  0999 V2000
   10.3070  -19.3110   13.0095 C   0  0  0  0  0  0  0  0  0  0  0  0
   10.7834  -19.0282   14.4138 C   0  0  1  0  0  0  0  0  0  0  0  0
   12.1120  -19.3682   14.5022 O   0  0  0  0  0  0  0  0  0  0  0  0
   10.5216  -17.5699   14.7086 C   0  0  2  0  0  0  0  0  0  0  0  0
   11.1474  -16.7066   13.7375 N   0  0  0  0  0  0  0  0  0  0  0  0
   10.8620  -17.2043   16.0968 C   0  0  0  0  0  0  0  0  0  0  0  0
   11.9418  -16.6408   16.3341 O   0  0  0  0  0  0  0  0  0  0  0  0
    8.2979  -18.2922   19.2118 O   0  0  0  0  0  0  0  0  0  0  0  0
    9.0331  -17.1255   19.3767 C   0  0  0  0  0  0  0  0  0  0  0  0
   10.2833  -17.2466   18.5456 C   0  0  2  0  0  0  0  0  0  0  0  0
    9.9839  -17.4839   17.1511 N   0  0  0  0  0  0  0  0  0  0  0  0
   11.2020  -18.3182   19.0074 C   0  0  0  0  0  0  0  0  0  0  0  0
   11.0234  -19.4672   18.4571 O   0  0  0  0  0  0  0  0  0  0  0  0
   12.2018  -18.1308   19.9682 N   0  0  0  0  0  0  0  0  0  0  0  0
   12.9467  -19.2967   20.4935 C   0  0  1  0  0  0  0  0  0  0  0  0
   14.3572  -19.0440   20.1375 C   0  0  0  0  0  0  0  0  0  0  0  0
   14.7712  -19.1749   18.7507 C   0  0  0  0  0  0  0  0  0  0  0  0
   14.1735  -19.4748   17.5728 C   0  0  0  0  0  0  0  0  0  0  0  0
   15.0501  -19.4141   16.5482 N   0  0  0  0  0  0  0  0  0  0  0  0
   16.2150  -19.0675   17.1089 C   0  0  0  0  0  0  0  0  0  0  0  0
   16.0815  -18.9187   18.4104 N   0  0  0  0  0  0  0  0  0  0  0  0
   12.6875  -19.3596   21.9555 C   0  0  0  0  0  0  0  0  0  0  0  0
   13.0758  -20.2219   22.7577 O   0  0  0  0  0  0  0  0  0  0  0  0
   11.9129  -18.3291   22.5121 O   0  0  0  0  0  0  0  0  0  0  0  0
  2  1  1  6
  2  3  1  0
  4  2  1  0
  4  5  1  6
  6 11  1  0
  6  4  1  0
  7  6  2  0
  8  9  1  0
 10  9  1  1
 10 11  1  0
 10 12  1  0
 12 14  1  0
 13 12  2  0
 14 15  1  0
 15 16  1  1
 15 22  1  0
 17 21  1  0
 17 16  1  0
 18 17  2  0
 19 18  1  0
 19 20  1  0
 20 21  2  0
 22 24  1  0
 23 22  2  0
M  END
$$$$
