TSH.pdb
     RDKit          3D

 24 24  0  0  1  0  0  0  0  0999 V2000
   11.2345  -18.3829   15.5809 C   0  0  0  0  0  0  0  0  0  0  0  0
   11.2671  -17.5241   14.3398 C   0  0  1  0  0  0  0  0  0  0  0  0
   10.8154  -18.2712   13.2784 O   0  0  0  0  0  0  0  0  0  0  0  0
   10.4281  -16.2956   14.6023 C   0  0  2  0  0  0  0  0  0  0  0  0
   10.1909  -15.5414   13.3961 N   0  0  0  0  0  0  0  0  0  0  0  0
   10.9692  -15.4648   15.6947 C   0  0  0  0  0  0  0  0  0  0  0  0
   11.8999  -14.6778   15.4618 O   0  0  0  0  0  0  0  0  0  0  0  0
    9.7033  -16.0961   19.6198 O   0  0  0  0  0  0  0  0  0  0  0  0
    9.9539  -14.7783   19.2595 C   0  0  0  0  0  0  0  0  0  0  0  0
   10.9377  -14.7908   18.1192 C   0  0  2  0  0  0  0  0  0  0  0  0
   10.4476  -15.5513   16.9914 N   0  0  0  0  0  0  0  0  0  0  0  0
   12.2713  -15.3279   18.4913 C   0  0  0  0  0  0  0  0  0  0  0  0
   12.4652  -16.5649   18.1959 O   0  0  0  0  0  0  0  0  0  0  0  0
   13.2706  -14.5750   19.1177 N   0  0  0  0  0  0  0  0  0  0  0  0
   14.5555  -15.2131   19.4808 C   0  0  1  0  0  0  0  0  0  0  0  0
   15.5942  -14.2476   19.0695 C   0  0  0  0  0  0  0  0  0  0  0  0
   15.9915  -14.1880   17.6730 C   0  0  0  0  0  0  0  0  0  0  0  0
   15.6474  -14.8234   16.5274 C   0  0  0  0  0  0  0  0  0  0  0  0
   16.3261  -14.3305   15.4699 N   0  0  0  0  0  0  0  0  0  0  0  0
   17.1059  -13.3680   15.9768 C   0  0  0  0  0  0  0  0  0  0  0  0
   16.9300  -13.2601   17.2773 N   0  0  0  0  0  0  0  0  0  0  0  0
   14.5143  -15.4805   20.9421 C   0  0  0  0  0  0  0  0  0  0  0  0
   15.4024  -15.9841   21.6458 O   0  0  0  0  0  0  0  0  0  0  0  0
   13.3382  -15.1276   21.6233 O   0  0  0  0  0  0  0  0  0  0  0  0
  2  1  1  1
  2  3  1  0
  4  2  1  0
  4  5  1  6
  6 11  1  0
  6  4  1  0
  7  6  2  0
  8  9  1  0
 10  9  1  1
 10 11  1  0
 10 12  1  0
 12 14  1  0
 13 12  2  0
 14 15  1  0
 15 16  1  1
 15 22  1  0
 17 21  1  0
 17 16  1  0
 18 17  2  0
 19 18  1  0
 19 20  1  0
 20 21  2  0
 22 24  1  0
 23 22  2  0
M  END
$$$$
