TSH.pdb
     RDKit          3D

 24 24  0  0  1  0  0  0  0  0999 V2000
    7.8368  -14.3400   17.2923 C   0  0  0  0  0  0  0  0  0  0  0  0
    8.4082  -14.6892   18.6452 C   0  0  1  0  0  0  0  0  0  0  0  0
    9.5658  -15.4064   18.4597 O   0  0  0  0  0  0  0  0  0  0  0  0
    8.6217  -13.4017   19.4060 C   0  0  2  0  0  0  0  0  0  0  0  0
    9.4284  -12.4668   18.6608 N   0  0  0  0  0  0  0  0  0  0  0  0
    9.1321  -13.6302   20.7713 C   0  0  0  0  0  0  0  0  0  0  0  0
   10.3392  -13.4681   21.0086 O   0  0  0  0  0  0  0  0  0  0  0  0
    6.5079  -14.9140   23.7162 O   0  0  0  0  0  0  0  0  0  0  0  0
    7.6026  -14.1785   24.1517 C   0  0  0  0  0  0  0  0  0  0  0  0
    8.7076  -14.3549   23.1436 C   0  0  2  0  0  0  0  0  0  0  0  0
    8.2736  -14.0275   21.8038 N   0  0  0  0  0  0  0  0  0  0  0  0
    9.2769  -15.7264   23.1203 C   0  0  0  0  0  0  0  0  0  0  0  0
    8.8594  -16.4762   22.1620 O   0  0  0  0  0  0  0  0  0  0  0  0
   10.2025  -16.2048   24.0542 N   0  0  0  0  0  0  0  0  0  0  0  0
   10.6245  -17.6227   24.0135 C   0  0  1  0  0  0  0  0  0  0  0  0
   11.2508  -17.7996   22.6880 C   0  0  0  0  0  0  0  0  0  0  0  0
   12.5956  -17.2948   22.4679 C   0  0  0  0  0  0  0  0  0  0  0  0
   13.4873  -16.5454   23.1592 C   0  0  0  0  0  0  0  0  0  0  0  0
   14.6441  -16.4063   22.4778 N   0  0  0  0  0  0  0  0  0  0  0  0
   14.4602  -17.0872   21.3403 C   0  0  0  0  0  0  0  0  0  0  0  0
   13.2583  -17.6241   21.3058 N   0  0  0  0  0  0  0  0  0  0  0  0
   11.5469  -17.8383   25.1586 C   0  0  0  0  0  0  0  0  0  0  0  0
   12.1600  -18.8751   25.4532 O   0  0  0  0  0  0  0  0  0  0  0  0
   11.7616  -16.7502   26.0197 O   0  0  0  0  0  0  0  0  0  0  0  0
  2  1  1  6
  2  3  1  0
  4  2  1  0
  4  5  1  6
  6 11  1  0
  6  4  1  0
  7  6  2  0
  8  9  1  0
 10  9  1  1
 10 11  1  0
 10 12  1  0
 12 14  1  0
 13 12  2  0
 14 15  1  0
 15 16  1  6
 15 22  1  0
 17 21  1  0
 17 16  1  0
 18 17  2  0
 19 18  1  0
 19 20  1  0
 20 21  2  0
 22 24  1  0
 23 22  2  0
M  END
$$$$
