NDW.pdb
     RDKit          3D

 31 32  0  0  1  0  0  0  0  0999 V2000
   30.8327  -25.1622  -17.0632 N   0  0  0  0  0  0  0  0  0  0  0  0
   31.3960  -24.3580  -16.0521 C   0  0  0  0  0  0  0  0  0  0  0  0
   32.4983  -24.7551  -15.5462 O   0  0  0  0  0  0  0  0  0  0  0  0
   30.8526  -23.1114  -15.5197 C   0  0  0  0  0  0  0  0  0  0  0  0
   29.5616  -22.6538  -16.1190 C   0  0  2  0  0  0  0  0  0  0  0  0
   29.5835  -22.4215  -17.5264 N   0  0  0  0  0  0  0  0  0  0  0  0
   28.9172  -21.5307  -15.3889 C   0  0  0  0  0  0  0  0  0  0  0  0
   29.5010  -20.4683  -15.1104 O   0  0  0  0  0  0  0  0  0  0  0  0
   27.5565  -21.6927  -14.9904 N   0  0  0  0  0  0  0  0  0  0  0  0
   26.8144  -20.7102  -14.2215 C   0  0  1  0  0  0  0  0  0  0  0  0
   25.5706  -20.2320  -14.8985 C   0  0  0  0  0  0  0  0  0  0  0  0
   24.8408  -19.2677  -14.0431 C   0  0  0  0  0  0  0  0  0  0  0  0
   23.9563  -19.6491  -13.2679 O   0  0  0  0  0  0  0  0  0  0  0  0
   26.4624  -21.3349  -12.9124 C   0  0  0  0  0  0  0  0  0  0  0  0
   25.9055  -22.4492  -12.8908 O   0  0  0  0  0  0  0  0  0  0  0  0
   25.1125  -17.9012  -14.0745 O   0  0  0  0  0  0  0  0  0  0  0  0
   26.7516  -20.6841  -11.6959 N   0  0  0  0  0  0  0  0  0  0  0  0
   26.2726  -21.3240  -10.4474 C   0  0  1  0  0  0  0  0  0  0  0  0
   27.5107  -21.4509   -9.6052 C   0  0  0  0  0  0  0  0  0  0  0  0
   27.6065  -20.5393   -8.4633 C   0  0  0  0  0  0  0  0  0  0  0  0
   26.7938  -19.4129   -8.2693 C   0  0  0  0  0  0  0  0  0  0  0  0
   27.1876  -18.8261   -7.1385 N   0  0  0  0  0  0  0  0  0  0  0  0
   28.2144  -19.5162   -6.5863 C   0  0  0  0  0  0  0  0  0  0  0  0
   28.9323  -19.3060   -5.4285 C   0  0  0  0  0  0  0  0  0  0  0  0
   29.9468  -20.1680   -5.0503 C   0  0  0  0  0  0  0  0  0  0  0  0
   30.2128  -21.2376   -5.8665 C   0  0  0  0  0  0  0  0  0  0  0  0
   29.5003  -21.4419   -7.0134 C   0  0  0  0  0  0  0  0  0  0  0  0
   28.4888  -20.5876   -7.3976 C   0  0  0  0  0  0  0  0  0  0  0  0
   25.2031  -20.5535   -9.8152 C   0  0  0  0  0  0  0  0  0  0  0  0
   24.8081  -19.2816  -10.1715 O   0  0  0  0  0  0  0  0  0  0  0  0
   24.5470  -21.0718   -8.8321 O   0  0  0  0  0  0  0  0  0  0  0  0
  2  1  1  0
  2  3  2  0
  4  2  1  0
  5  4  1  0
  5  6  1  6
  7  5  1  0
  8  7  2  0
  9  7  1  0
 10  9  1  0
 10 11  1  6
 12 11  1  0
 13 12  2  0
 14 15  2  0
 14 10  1  0
 16 12  1  0
 17 14  1  0
 18 19  1  1
 18 17  1  0
 20 28  1  0
 20 19  1  0
 21 20  2  0
 22 21  1  0
 22 23  1  0
 23 28  2  0
 24 23  1  0
 24 25  2  0
 25 26  1  0
 26 27  2  0
 28 27  1  0
 29 18  1  0
 30 29  1  0
 31 29  2  0
M  END
$$$$
