NDW.pdb
     RDKit          3D

 31 32  0  0  1  0  0  0  0  0999 V2000
   28.3475  -26.6748  -17.5885 N   0  0  0  0  0  0  0  0  0  0  0  0
   29.1314  -25.6425  -17.0350 C   0  0  0  0  0  0  0  0  0  0  0  0
   30.2765  -25.9702  -16.5768 O   0  0  0  0  0  0  0  0  0  0  0  0
   28.7736  -24.2305  -16.9309 C   0  0  0  0  0  0  0  0  0  0  0  0
   27.3783  -23.8793  -17.3371 C   0  0  2  0  0  0  0  0  0  0  0  0
   27.0972  -23.9853  -18.7317 N   0  0  0  0  0  0  0  0  0  0  0  0
   26.8878  -22.5930  -16.7762 C   0  0  0  0  0  0  0  0  0  0  0  0
   27.5851  -21.8406  -16.0730 O   0  0  0  0  0  0  0  0  0  0  0  0
   25.5430  -22.2130  -17.0659 N   0  0  0  0  0  0  0  0  0  0  0  0
   24.8877  -21.0511  -16.4934 C   0  0  1  0  0  0  0  0  0  0  0  0
   24.1023  -20.2548  -17.4849 C   0  0  0  0  0  0  0  0  0  0  0  0
   23.3616  -19.1604  -16.8158 C   0  0  0  0  0  0  0  0  0  0  0  0
   22.1717  -19.2944  -16.5079 O   0  0  0  0  0  0  0  0  0  0  0  0
   23.9818  -21.5333  -15.4095 C   0  0  0  0  0  0  0  0  0  0  0  0
   23.1211  -22.3975  -15.6641 O   0  0  0  0  0  0  0  0  0  0  0  0
   23.9643  -17.9421  -16.5084 O   0  0  0  0  0  0  0  0  0  0  0  0
   24.0847  -21.0270  -14.0980 N   0  0  0  0  0  0  0  0  0  0  0  0
   23.1515  -21.5679  -13.0811 C   0  0  1  0  0  0  0  0  0  0  0  0
   24.0552  -22.1305  -12.0204 C   0  0  0  0  0  0  0  0  0  0  0  0
   25.0364  -21.2024  -11.4547 C   0  0  0  0  0  0  0  0  0  0  0  0
   24.8269  -20.4159  -10.3125 C   0  0  0  0  0  0  0  0  0  0  0  0
   25.9295  -19.6913  -10.1187 N   0  0  0  0  0  0  0  0  0  0  0  0
   26.8463  -19.9692  -11.0767 C   0  0  0  0  0  0  0  0  0  0  0  0
   28.1210  -19.4863  -11.2824 C   0  0  0  0  0  0  0  0  0  0  0  0
   28.8935  -19.9358  -12.3389 C   0  0  0  0  0  0  0  0  0  0  0  0
   28.3476  -20.8773  -13.1734 C   0  0  0  0  0  0  0  0  0  0  0  0
   27.0840  -21.3523  -12.9674 C   0  0  0  0  0  0  0  0  0  0  0  0
   26.3077  -20.9092  -11.9178 C   0  0  0  0  0  0  0  0  0  0  0  0
   22.2273  -20.5468  -12.5908 C   0  0  0  0  0  0  0  0  0  0  0  0
   21.1272  -20.7734  -11.7915 O   0  0  0  0  0  0  0  0  0  0  0  0
   22.4211  -19.3120  -12.9128 O   0  0  0  0  0  0  0  0  0  0  0  0
  2  1  1  0
  2  3  2  0
  4  2  1  0
  5  4  1  0
  5  6  1  6
  7  5  1  0
  8  7  2  0
  9  7  1  0
 10  9  1  0
 10 11  1  6
 12 11  1  0
 13 12  2  0
 14 15  2  0
 14 10  1  0
 16 12  1  0
 17 14  1  0
 18 19  1  1
 18 17  1  0
 20 28  1  0
 20 19  1  0
 21 20  2  0
 22 21  1  0
 22 23  1  0
 23 28  2  0
 24 23  1  0
 24 25  2  0
 25 26  1  0
 26 27  2  0
 28 27  1  0
 29 18  1  0
 30 29  1  0
 31 29  2  0
M  END
$$$$
