NDW.pdb
     RDKit          3D

 31 32  0  0  1  0  0  0  0  0999 V2000
   15.8112  -21.2293    0.2488 N   0  0  0  0  0  0  0  0  0  0  0  0
   14.6692  -20.8781    0.9965 C   0  0  0  0  0  0  0  0  0  0  0  0
   13.5497  -20.9003    0.3845 O   0  0  0  0  0  0  0  0  0  0  0  0
   14.6287  -20.4919    2.4043 C   0  0  0  0  0  0  0  0  0  0  0  0
   15.9550  -20.3279    3.0745 C   0  0  2  0  0  0  0  0  0  0  0  0
   16.8074  -21.4713    3.0423 N   0  0  0  0  0  0  0  0  0  0  0  0
   15.8783  -19.7406    4.4380 C   0  0  0  0  0  0  0  0  0  0  0  0
   15.1073  -18.8138    4.7436 O   0  0  0  0  0  0  0  0  0  0  0  0
   16.7412  -20.2765    5.4403 N   0  0  0  0  0  0  0  0  0  0  0  0
   16.7071  -19.8793    6.8362 C   0  0  1  0  0  0  0  0  0  0  0  0
   17.3053  -20.8882    7.7628 C   0  0  0  0  0  0  0  0  0  0  0  0
   16.4595  -22.1018    7.8397 C   0  0  0  0  0  0  0  0  0  0  0  0
   15.2937  -22.0386    8.2467 O   0  0  0  0  0  0  0  0  0  0  0  0
   17.4486  -18.5894    6.9557 C   0  0  0  0  0  0  0  0  0  0  0  0
   18.5694  -18.4708    6.4246 O   0  0  0  0  0  0  0  0  0  0  0  0
   16.9343  -23.3568    7.4637 O   0  0  0  0  0  0  0  0  0  0  0  0
   16.8998  -17.4988    7.6603 N   0  0  0  0  0  0  0  0  0  0  0  0
   17.7429  -16.2890    7.8122 C   0  0  1  0  0  0  0  0  0  0  0  0
   16.9319  -15.1975    7.1724 C   0  0  0  0  0  0  0  0  0  0  0  0
   17.1336  -15.0066    5.7346 C   0  0  0  0  0  0  0  0  0  0  0  0
   16.5468  -15.7945    4.7336 C   0  0  0  0  0  0  0  0  0  0  0  0
   16.9772  -15.3335    3.5588 N   0  0  0  0  0  0  0  0  0  0  0  0
   17.8128  -14.2836    3.7459 C   0  0  0  0  0  0  0  0  0  0  0  0
   18.4851  -13.4851    2.8454 C   0  0  0  0  0  0  0  0  0  0  0  0
   19.2856  -12.4412    3.2749 C   0  0  0  0  0  0  0  0  0  0  0  0
   19.3869  -12.2287    4.6260 C   0  0  0  0  0  0  0  0  0  0  0  0
   18.7205  -13.0226    5.5152 C   0  0  0  0  0  0  0  0  0  0  0  0
   17.9217  -14.0649    5.0956 C   0  0  0  0  0  0  0  0  0  0  0  0
   18.0816  -16.0323    9.2110 C   0  0  0  0  0  0  0  0  0  0  0  0
   17.7149  -16.8150   10.2850 O   0  0  0  0  0  0  0  0  0  0  0  0
   18.7826  -14.9909    9.5107 O   0  0  0  0  0  0  0  0  0  0  0  0
  2  1  1  0
  2  3  2  0
  4  2  1  0
  5  4  1  0
  5  6  1  1
  7  5  1  0
  8  7  2  0
  9  7  1  0
 10  9  1  0
 10 11  1  1
 12 11  1  0
 13 12  2  0
 14 15  2  0
 14 10  1  0
 16 12  1  0
 17 14  1  0
 18 19  1  1
 18 17  1  0
 20 28  1  0
 20 19  1  0
 21 20  2  0
 22 21  1  0
 22 23  1  0
 23 28  2  0
 24 23  1  0
 24 25  2  0
 25 26  1  0
 26 27  2  0
 28 27  1  0
 29 18  1  0
 30 29  1  0
 31 29  2  0
M  END
$$$$
