NDW.pdb
     RDKit          3D

 31 32  0  0  1  0  0  0  0  0999 V2000
   19.2610  -17.7248  -13.6398 N   0  0  0  0  0  0  0  0  0  0  0  0
   18.8669  -16.6406  -14.4496 C   0  0  0  0  0  0  0  0  0  0  0  0
   17.6426  -16.6035  -14.8081 O   0  0  0  0  0  0  0  0  0  0  0  0
   19.7124  -15.5482  -14.9232 C   0  0  0  0  0  0  0  0  0  0  0  0
   19.7771  -15.3688  -16.4061 C   0  0  2  0  0  0  0  0  0  0  0  0
   20.3006  -16.4754  -17.1385 N   0  0  0  0  0  0  0  0  0  0  0  0
   20.3937  -14.0865  -16.8366 C   0  0  0  0  0  0  0  0  0  0  0  0
   21.5694  -13.9886  -17.2305 O   0  0  0  0  0  0  0  0  0  0  0  0
   19.5839  -12.9124  -16.7895 N   0  0  0  0  0  0  0  0  0  0  0  0
   20.0248  -11.6049  -17.2405 C   0  0  1  0  0  0  0  0  0  0  0  0
   19.0734  -10.9425  -18.1841 C   0  0  0  0  0  0  0  0  0  0  0  0
   19.5697   -9.6048  -18.5823 C   0  0  0  0  0  0  0  0  0  0  0  0
   20.6789   -9.4707  -19.1117 O   0  0  0  0  0  0  0  0  0  0  0  0
   20.2066  -10.7491  -16.0313 C   0  0  0  0  0  0  0  0  0  0  0  0
   19.3283  -10.7352  -15.1477 O   0  0  0  0  0  0  0  0  0  0  0  0
   18.8188   -8.4487  -18.3782 O   0  0  0  0  0  0  0  0  0  0  0  0
   21.3598   -9.9545  -15.8706 N   0  0  0  0  0  0  0  0  0  0  0  0
   21.4762   -9.1627  -14.6228 C   0  0  1  0  0  0  0  0  0  0  0  0
   22.7606   -9.6412  -14.0065 C   0  0  0  0  0  0  0  0  0  0  0  0
   23.9581   -9.5162  -14.8399 C   0  0  0  0  0  0  0  0  0  0  0  0
   24.2892   -8.3842  -15.5989 C   0  0  0  0  0  0  0  0  0  0  0  0
   25.4315   -8.6491  -16.2337 N   0  0  0  0  0  0  0  0  0  0  0  0
   25.8609   -9.8960  -15.9234 C   0  0  0  0  0  0  0  0  0  0  0  0
   26.9805  -10.5964  -16.3187 C   0  0  0  0  0  0  0  0  0  0  0  0
   27.2248  -11.8759  -15.8515 C   0  0  0  0  0  0  0  0  0  0  0  0
   26.3155  -12.4224  -14.9823 C   0  0  0  0  0  0  0  0  0  0  0  0
   25.2068  -11.7260  -14.5940 C   0  0  0  0  0  0  0  0  0  0  0  0
   24.9558  -10.4514  -15.0554 C   0  0  0  0  0  0  0  0  0  0  0  0
   21.4447   -7.7247  -14.8843 C   0  0  0  0  0  0  0  0  0  0  0  0
   21.4306   -6.7324  -13.9274 O   0  0  0  0  0  0  0  0  0  0  0  0
   21.4258   -7.3045  -16.1044 O   0  0  0  0  0  0  0  0  0  0  0  0
  2  1  1  0
  2  3  2  0
  4  2  1  0
  5  4  1  0
  5  6  1  6
  7  5  1  0
  8  7  2  0
  9  7  1  0
 10  9  1  0
 10 11  1  6
 12 11  1  0
 13 12  2  0
 14 15  2  0
 14 10  1  0
 16 12  1  0
 17 14  1  0
 18 19  1  6
 18 17  1  0
 20 28  1  0
 20 19  1  0
 21 20  2  0
 22 21  1  0
 22 23  1  0
 23 28  2  0
 24 23  1  0
 24 25  2  0
 25 26  1  0
 26 27  2  0
 28 27  1  0
 29 18  1  0
 30 29  1  0
 31 29  2  0
M  END
$$$$
