NDW.pdb
     RDKit          3D

 31 32  0  0  1  0  0  0  0  0999 V2000
   29.8441  -24.2408  -18.3687 N   0  0  0  0  0  0  0  0  0  0  0  0
   30.1320  -22.8860  -18.1080 C   0  0  0  0  0  0  0  0  0  0  0  0
   31.1978  -22.4126  -18.6263 O   0  0  0  0  0  0  0  0  0  0  0  0
   29.3367  -21.9600  -17.3064 C   0  0  0  0  0  0  0  0  0  0  0  0
   28.1831  -22.5602  -16.5687 C   0  0  2  0  0  0  0  0  0  0  0  0
   27.5084  -23.6231  -17.2395 N   0  0  0  0  0  0  0  0  0  0  0  0
   27.2258  -21.5626  -16.0226 C   0  0  0  0  0  0  0  0  0  0  0  0
   27.5759  -20.4871  -15.5055 O   0  0  0  0  0  0  0  0  0  0  0  0
   25.8338  -21.8675  -16.1006 N   0  0  0  0  0  0  0  0  0  0  0  0
   24.7820  -20.9760  -15.6465 C   0  0  1  0  0  0  0  0  0  0  0  0
   23.6563  -20.8304  -16.6190 C   0  0  0  0  0  0  0  0  0  0  0  0
   24.0706  -20.0229  -17.7897 C   0  0  0  0  0  0  0  0  0  0  0  0
   24.6422  -18.9366  -17.6417 O   0  0  0  0  0  0  0  0  0  0  0  0
   24.2609  -21.5147  -14.3557 C   0  0  0  0  0  0  0  0  0  0  0  0
   24.0927  -22.7421  -14.2228 O   0  0  0  0  0  0  0  0  0  0  0  0
   23.8354  -20.4445  -19.0970 O   0  0  0  0  0  0  0  0  0  0  0  0
   23.9563  -20.6558  -13.2804 N   0  0  0  0  0  0  0  0  0  0  0  0
   23.4651  -21.2769  -12.0272 C   0  0  1  0  0  0  0  0  0  0  0  0
   24.6947  -21.8907  -11.4189 C   0  0  0  0  0  0  0  0  0  0  0  0
   25.6740  -20.9527  -10.8663 C   0  0  0  0  0  0  0  0  0  0  0  0
   26.6103  -20.2353  -11.6252 C   0  0  0  0  0  0  0  0  0  0  0  0
   27.3360  -19.5051  -10.7777 N   0  0  0  0  0  0  0  0  0  0  0  0
   26.9167  -19.7102   -9.5058 C   0  0  0  0  0  0  0  0  0  0  0  0
   27.3463  -19.1760   -8.3098 C   0  0  0  0  0  0  0  0  0  0  0  0
   26.7461  -19.5279   -7.1135 C   0  0  0  0  0  0  0  0  0  0  0  0
   25.7101  -20.4255   -7.1590 C   0  0  0  0  0  0  0  0  0  0  0  0
   25.2881  -20.9535   -8.3456 C   0  0  0  0  0  0  0  0  0  0  0  0
   25.8811  -20.6088   -9.5415 C   0  0  0  0  0  0  0  0  0  0  0  0
   22.7984  -20.3055  -11.1617 C   0  0  0  0  0  0  0  0  0  0  0  0
   22.1318  -20.5949   -9.9902 O   0  0  0  0  0  0  0  0  0  0  0  0
   22.8094  -19.0567  -11.4875 O   0  0  0  0  0  0  0  0  0  0  0  0
  2  1  1  0
  2  3  2  0
  4  2  1  0
  5  4  1  0
  5  6  1  6
  7  5  1  0
  8  7  2  0
  9  7  1  0
 10  9  1  0
 10 11  1  6
 12 11  1  0
 13 12  2  0
 14 15  2  0
 14 10  1  0
 16 12  1  0
 17 14  1  0
 18 19  1  1
 18 17  1  0
 20 28  1  0
 20 19  1  0
 21 20  2  0
 22 21  1  0
 22 23  1  0
 23 28  2  0
 24 23  1  0
 24 25  2  0
 25 26  1  0
 26 27  2  0
 28 27  1  0
 29 18  1  0
 30 29  1  0
 31 29  2  0
M  END
$$$$
