NDW.pdb
     RDKit          3D

 31 32  0  0  1  0  0  0  0  0999 V2000
   29.3108  -20.3970  -19.2622 N   0  0  0  0  0  0  0  0  0  0  0  0
   28.0733  -20.9506  -18.8768 C   0  0  0  0  0  0  0  0  0  0  0  0
   27.6063  -21.8855  -19.6092 O   0  0  0  0  0  0  0  0  0  0  0  0
   27.2646  -20.5691  -17.7221 C   0  0  0  0  0  0  0  0  0  0  0  0
   27.8558  -20.8718  -16.3827 C   0  0  2  0  0  0  0  0  0  0  0  0
   27.7845  -22.2360  -15.9716 N   0  0  0  0  0  0  0  0  0  0  0  0
   27.4156  -19.9509  -15.3020 C   0  0  0  0  0  0  0  0  0  0  0  0
   27.2393  -18.7311  -15.4694 O   0  0  0  0  0  0  0  0  0  0  0  0
   27.1878  -20.5078  -14.0080 N   0  0  0  0  0  0  0  0  0  0  0  0
   26.0115  -20.2330  -13.2028 C   0  0  1  0  0  0  0  0  0  0  0  0
   24.7231  -20.5231  -13.9028 C   0  0  0  0  0  0  0  0  0  0  0  0
   23.5667  -20.1204  -13.0692 C   0  0  0  0  0  0  0  0  0  0  0  0
   22.5161  -20.7722  -13.0833 O   0  0  0  0  0  0  0  0  0  0  0  0
   26.1073  -21.0647  -11.9671 C   0  0  0  0  0  0  0  0  0  0  0  0
   25.8248  -22.2772  -12.0163 O   0  0  0  0  0  0  0  0  0  0  0  0
   23.6083  -18.9996  -12.2421 O   0  0  0  0  0  0  0  0  0  0  0  0
   26.5147  -20.5001  -10.7414 N   0  0  0  0  0  0  0  0  0  0  0  0
   26.4271  -21.3538   -9.5327 C   0  0  1  0  0  0  0  0  0  0  0  0
   27.7708  -21.1969   -8.8780 C   0  0  0  0  0  0  0  0  0  0  0  0
   27.8515  -20.1990   -7.8095 C   0  0  0  0  0  0  0  0  0  0  0  0
   27.1794  -18.9680   -7.8129 C   0  0  0  0  0  0  0  0  0  0  0  0
   27.5113  -18.3286   -6.6908 N   0  0  0  0  0  0  0  0  0  0  0  0
   28.3638  -19.0835   -5.9568 C   0  0  0  0  0  0  0  0  0  0  0  0
   28.9611  -18.8532   -4.7359 C   0  0  0  0  0  0  0  0  0  0  0  0
   29.7992  -19.7930   -4.1619 C   0  0  0  0  0  0  0  0  0  0  0  0
   30.0147  -20.9602   -4.8489 C   0  0  0  0  0  0  0  0  0  0  0  0
   29.4223  -21.1843   -6.0588 C   0  0  0  0  0  0  0  0  0  0  0  0
   28.5868  -20.2530   -6.6378 C   0  0  0  0  0  0  0  0  0  0  0  0
   25.3040  -20.9746   -8.6772 C   0  0  0  0  0  0  0  0  0  0  0  0
   24.7142  -21.7738   -7.7212 O   0  0  0  0  0  0  0  0  0  0  0  0
   24.7880  -19.7976   -8.7964 O   0  0  0  0  0  0  0  0  0  0  0  0
  2  1  1  0
  2  3  2  0
  4  2  1  0
  5  4  1  0
  5  6  1  1
  7  5  1  0
  8  7  2  0
  9  7  1  0
 10  9  1  0
 10 11  1  6
 12 11  1  0
 13 12  2  0
 14 15  2  0
 14 10  1  0
 16 12  1  0
 17 14  1  0
 18 19  1  1
 18 17  1  0
 20 28  1  0
 20 19  1  0
 21 20  2  0
 22 21  1  0
 22 23  1  0
 23 28  2  0
 24 23  1  0
 24 25  2  0
 25 26  1  0
 26 27  2  0
 28 27  1  0
 29 18  1  0
 30 29  1  0
 31 29  2  0
M  END
$$$$
