NDW.pdb
     RDKit          3D

 31 32  0  0  1  0  0  0  0  0999 V2000
   18.1062  -15.3363  -15.7047 N   0  0  0  0  0  0  0  0  0  0  0  0
   18.4701  -14.2792  -16.5629 C   0  0  0  0  0  0  0  0  0  0  0  0
   19.2919  -14.5537  -17.4999 O   0  0  0  0  0  0  0  0  0  0  0  0
   18.0040  -12.8969  -16.4966 C   0  0  0  0  0  0  0  0  0  0  0  0
   17.0680  -12.5770  -15.3755 C   0  0  2  0  0  0  0  0  0  0  0  0
   15.8777  -13.3615  -15.3234 N   0  0  0  0  0  0  0  0  0  0  0  0
   16.7752  -11.1275  -15.2232 C   0  0  0  0  0  0  0  0  0  0  0  0
   16.2176  -10.4442  -16.1002 O   0  0  0  0  0  0  0  0  0  0  0  0
   17.1607  -10.4978  -14.0020 N   0  0  0  0  0  0  0  0  0  0  0  0
   16.8883   -9.1074  -13.6857 C   0  0  1  0  0  0  0  0  0  0  0  0
   16.9810   -8.7937  -12.2272 C   0  0  0  0  0  0  0  0  0  0  0  0
   15.7690   -9.2527  -11.5100 C   0  0  0  0  0  0  0  0  0  0  0  0
   14.7897   -9.6841  -12.1294 O   0  0  0  0  0  0  0  0  0  0  0  0
   17.8699   -8.2733  -14.4398 C   0  0  0  0  0  0  0  0  0  0  0  0
   19.0908   -8.4409  -14.2567 O   0  0  0  0  0  0  0  0  0  0  0  0
   15.6766   -9.2172  -10.1199 O   0  0  0  0  0  0  0  0  0  0  0  0
   17.4377   -7.2967  -15.3598 N   0  0  0  0  0  0  0  0  0  0  0  0
   18.4797   -6.5114  -16.0634 C   0  0  1  0  0  0  0  0  0  0  0  0
   18.1409   -6.6779  -17.5180 C   0  0  0  0  0  0  0  0  0  0  0  0
   18.7677   -7.8138  -18.1972 C   0  0  0  0  0  0  0  0  0  0  0  0
   18.7882   -9.1271  -17.7053 C   0  0  0  0  0  0  0  0  0  0  0  0
   19.4603   -9.8721  -18.5835 N   0  0  0  0  0  0  0  0  0  0  0  0
   19.8758   -9.1091  -19.6231 C   0  0  0  0  0  0  0  0  0  0  0  0
   20.5837   -9.4313  -20.7613 C   0  0  0  0  0  0  0  0  0  0  0  0
   20.8858   -8.4708  -21.7107 C   0  0  0  0  0  0  0  0  0  0  0  0
   20.4570   -7.1887  -21.4803 C   0  0  0  0  0  0  0  0  0  0  0  0
   19.7571   -6.8729  -20.3510 C   0  0  0  0  0  0  0  0  0  0  0  0
   19.4527   -7.8236  -19.4001 C   0  0  0  0  0  0  0  0  0  0  0  0
   18.5076   -5.1194  -15.6177 C   0  0  0  0  0  0  0  0  0  0  0  0
   19.4450   -4.1761  -15.9813 O   0  0  0  0  0  0  0  0  0  0  0  0
   17.5937   -4.6957  -14.8108 O   0  0  0  0  0  0  0  0  0  0  0  0
  2  1  1  0
  2  3  2  0
  4  2  1  0
  5  4  1  0
  5  6  1  6
  7  5  1  0
  8  7  2  0
  9  7  1  0
 10  9  1  0
 10 11  1  1
 12 11  1  0
 13 12  2  0
 14 15  2  0
 14 10  1  0
 16 12  1  0
 17 14  1  0
 18 19  1  6
 18 17  1  0
 20 28  1  0
 20 19  1  0
 21 20  2  0
 22 21  1  0
 22 23  1  0
 23 28  2  0
 24 23  1  0
 24 25  2  0
 25 26  1  0
 26 27  2  0
 28 27  1  0
 29 18  1  0
 30 29  1  0
 31 29  2  0
M  END
$$$$
