NDW.pdb
     RDKit          3D

 31 32  0  0  1  0  0  0  0  0999 V2000
   17.6864  -14.6218  -16.5384 N   0  0  0  0  0  0  0  0  0  0  0  0
   17.3910  -13.2620  -16.3144 C   0  0  0  0  0  0  0  0  0  0  0  0
   16.3256  -13.0031  -15.6614 O   0  0  0  0  0  0  0  0  0  0  0  0
   18.1781  -12.1115  -16.7494 C   0  0  0  0  0  0  0  0  0  0  0  0
   17.4133  -11.0097  -17.4100 C   0  0  2  0  0  0  0  0  0  0  0  0
   16.6411  -11.3913  -18.5472 N   0  0  0  0  0  0  0  0  0  0  0  0
   18.2172   -9.7886  -17.6790 C   0  0  0  0  0  0  0  0  0  0  0  0
   18.9843   -9.6723  -18.6511 O   0  0  0  0  0  0  0  0  0  0  0  0
   18.0945   -8.6992  -16.7654 N   0  0  0  0  0  0  0  0  0  0  0  0
   18.8228   -7.4498  -16.8910 C   0  0  1  0  0  0  0  0  0  0  0  0
   18.0776   -6.2646  -16.3675 C   0  0  0  0  0  0  0  0  0  0  0  0
   18.8270   -5.0131  -16.6253 C   0  0  0  0  0  0  0  0  0  0  0  0
   19.3566   -4.8048  -17.7230 O   0  0  0  0  0  0  0  0  0  0  0  0
   20.1079   -7.6007  -16.1471 C   0  0  0  0  0  0  0  0  0  0  0  0
   20.0992   -8.0545  -14.9867 O   0  0  0  0  0  0  0  0  0  0  0  0
   18.9703   -4.0255  -15.6527 O   0  0  0  0  0  0  0  0  0  0  0  0
   21.3358   -7.2389  -16.7374 N   0  0  0  0  0  0  0  0  0  0  0  0
   22.5644   -7.4259  -15.9293 C   0  0  1  0  0  0  0  0  0  0  0  0
   23.5091   -8.1313  -16.8613 C   0  0  0  0  0  0  0  0  0  0  0  0
   24.5298   -8.9687  -16.2279 C   0  0  0  0  0  0  0  0  0  0  0  0
   24.2897   -9.8612  -15.1730 C   0  0  0  0  0  0  0  0  0  0  0  0
   25.4551  -10.4253  -14.8539 N   0  0  0  0  0  0  0  0  0  0  0  0
   26.4406   -9.9456  -15.6503 C   0  0  0  0  0  0  0  0  0  0  0  0
   27.7873  -10.2349  -15.7044 C   0  0  0  0  0  0  0  0  0  0  0  0
   28.6135   -9.6209  -16.6294 C   0  0  0  0  0  0  0  0  0  0  0  0
   28.0465   -8.7157  -17.4897 C   0  0  0  0  0  0  0  0  0  0  0  0
   26.7122   -8.4307  -17.4323 C   0  0  0  0  0  0  0  0  0  0  0  0
   25.8827   -9.0373  -16.5134 C   0  0  0  0  0  0  0  0  0  0  0  0
   23.0774   -6.1573  -15.4149 C   0  0  0  0  0  0  0  0  0  0  0  0
   22.7767   -4.9067  -15.9109 O   0  0  0  0  0  0  0  0  0  0  0  0
   23.8874   -6.1641  -14.4101 O   0  0  0  0  0  0  0  0  0  0  0  0
  2  1  1  0
  2  3  2  0
  4  2  1  0
  5  4  1  0
  5  6  1  6
  7  5  1  0
  8  7  2  0
  9  7  1  0
 10  9  1  0
 10 11  1  1
 12 11  1  0
 13 12  2  0
 14 15  2  0
 14 10  1  0
 16 12  1  0
 17 14  1  0
 18 19  1  6
 18 17  1  0
 20 28  1  0
 20 19  1  0
 21 20  2  0
 22 21  1  0
 22 23  1  0
 23 28  2  0
 24 23  1  0
 24 25  2  0
 25 26  1  0
 26 27  2  0
 28 27  1  0
 29 18  1  0
 30 29  1  0
 31 29  2  0
M  END
$$$$
