NDW.pdb
     RDKit          3D

 31 32  0  0  1  0  0  0  0  0999 V2000
   32.5003  -24.1109  -18.2188 N   0  0  0  0  0  0  0  0  0  0  0  0
   31.1220  -24.0112  -17.9419 C   0  0  0  0  0  0  0  0  0  0  0  0
   30.3310  -24.6501  -18.7131 O   0  0  0  0  0  0  0  0  0  0  0  0
   30.4983  -23.2535  -16.8605 C   0  0  0  0  0  0  0  0  0  0  0  0
   29.1085  -22.7679  -17.1210 C   0  0  2  0  0  0  0  0  0  0  0  0
   28.8834  -22.2081  -18.4137 N   0  0  0  0  0  0  0  0  0  0  0  0
   28.5557  -21.9026  -16.0461 C   0  0  0  0  0  0  0  0  0  0  0  0
   28.9813  -21.9036  -14.8774 O   0  0  0  0  0  0  0  0  0  0  0  0
   27.4787  -21.0299  -16.3853 N   0  0  0  0  0  0  0  0  0  0  0  0
   26.8564  -20.1093  -15.4512 C   0  0  1  0  0  0  0  0  0  0  0  0
   26.1244  -18.9861  -16.1122 C   0  0  0  0  0  0  0  0  0  0  0  0
   27.0348  -18.1964  -16.9734 C   0  0  0  0  0  0  0  0  0  0  0  0
   27.9372  -17.5091  -16.4815 O   0  0  0  0  0  0  0  0  0  0  0  0
   25.9089  -20.8955  -14.6075 C   0  0  0  0  0  0  0  0  0  0  0  0
   25.2086  -21.7835  -15.1305 O   0  0  0  0  0  0  0  0  0  0  0  0
   26.9158  -18.1897  -18.3618 O   0  0  0  0  0  0  0  0  0  0  0  0
   25.7934  -20.6508  -13.2242 N   0  0  0  0  0  0  0  0  0  0  0  0
   24.8182  -21.4686  -12.4641 C   0  0  1  0  0  0  0  0  0  0  0  0
   25.6538  -22.1550  -11.4205 C   0  0  0  0  0  0  0  0  0  0  0  0
   26.2150  -21.2927  -10.3785 C   0  0  0  0  0  0  0  0  0  0  0  0
   25.4727  -20.3922   -9.6006 C   0  0  0  0  0  0  0  0  0  0  0  0
   26.3246  -19.7769   -8.7798 N   0  0  0  0  0  0  0  0  0  0  0  0
   27.5835  -20.2342   -8.9835 C   0  0  0  0  0  0  0  0  0  0  0  0
   28.7775  -19.9116   -8.3747 C   0  0  0  0  0  0  0  0  0  0  0  0
   29.9582  -20.5318   -8.7438 C   0  0  0  0  0  0  0  0  0  0  0  0
   29.8995  -21.4777   -9.7352 C   0  0  0  0  0  0  0  0  0  0  0  0
   28.7151  -21.7937  -10.3370 C   0  0  0  0  0  0  0  0  0  0  0  0
   27.5346  -21.1800   -9.9757 C   0  0  0  0  0  0  0  0  0  0  0  0
   23.7352  -20.6550  -11.9143 C   0  0  0  0  0  0  0  0  0  0  0  0
   22.5912  -21.1364  -11.3142 O   0  0  0  0  0  0  0  0  0  0  0  0
   23.8166  -19.3684  -11.9774 O   0  0  0  0  0  0  0  0  0  0  0  0
  2  1  1  0
  2  3  2  0
  4  2  1  0
  5  4  1  0
  5  6  1  6
  7  5  1  0
  8  7  2  0
  9  7  1  0
 10  9  1  0
 10 11  1  6
 12 11  1  0
 13 12  2  0
 14 15  2  0
 14 10  1  0
 16 12  1  0
 17 14  1  0
 18 19  1  1
 18 17  1  0
 20 28  1  0
 20 19  1  0
 21 20  2  0
 22 21  1  0
 22 23  1  0
 23 28  2  0
 24 23  1  0
 24 25  2  0
 25 26  1  0
 26 27  2  0
 28 27  1  0
 29 18  1  0
 30 29  1  0
 31 29  2  0
M  END
$$$$
