NDW.pdb
     RDKit          3D

 31 32  0  0  1  0  0  0  0  0999 V2000
   24.6847  -17.9123  -20.5580 N   0  0  0  0  0  0  0  0  0  0  0  0
   24.8355  -17.2300  -19.3340 C   0  0  0  0  0  0  0  0  0  0  0  0
   25.7331  -16.3242  -19.2853 O   0  0  0  0  0  0  0  0  0  0  0  0
   24.0697  -17.4474  -18.1097 C   0  0  0  0  0  0  0  0  0  0  0  0
   24.8230  -18.0488  -16.9669 C   0  0  2  0  0  0  0  0  0  0  0  0
   25.6921  -19.1292  -17.3020 N   0  0  0  0  0  0  0  0  0  0  0  0
   23.9798  -18.3709  -15.7857 C   0  0  0  0  0  0  0  0  0  0  0  0
   23.0618  -17.6377  -15.3774 O   0  0  0  0  0  0  0  0  0  0  0  0
   24.2487  -19.5881  -15.0910 N   0  0  0  0  0  0  0  0  0  0  0  0
   23.4339  -20.0976  -14.0030 C   0  0  1  0  0  0  0  0  0  0  0  0
   22.3970  -21.0820  -14.4387 C   0  0  0  0  0  0  0  0  0  0  0  0
   21.6257  -21.5854  -13.2785 C   0  0  0  0  0  0  0  0  0  0  0  0
   20.9828  -20.8119  -12.5595 O   0  0  0  0  0  0  0  0  0  0  0  0
   24.3509  -20.7410  -13.0166 C   0  0  0  0  0  0  0  0  0  0  0  0
   25.4170  -21.2530  -13.4085 O   0  0  0  0  0  0  0  0  0  0  0  0
   21.5920  -22.9383  -12.9462 O   0  0  0  0  0  0  0  0  0  0  0  0
   24.0309  -20.7781  -11.6443 N   0  0  0  0  0  0  0  0  0  0  0  0
   25.0990  -21.1938  -10.7042 C   0  0  1  0  0  0  0  0  0  0  0  0
   26.1477  -20.1273  -10.8500 C   0  0  0  0  0  0  0  0  0  0  0  0
   27.3649  -20.3111  -10.0570 C   0  0  0  0  0  0  0  0  0  0  0  0
   28.5265  -20.9518  -10.5124 C   0  0  0  0  0  0  0  0  0  0  0  0
   29.4066  -20.9424   -9.5107 N   0  0  0  0  0  0  0  0  0  0  0  0
   28.8760  -20.3255   -8.4275 C   0  0  0  0  0  0  0  0  0  0  0  0
   29.4026  -20.0667   -7.1801 C   0  0  0  0  0  0  0  0  0  0  0  0
   28.6671  -19.3951   -6.2193 C   0  0  0  0  0  0  0  0  0  0  0  0
   27.3974  -18.9963   -6.5507 C   0  0  0  0  0  0  0  0  0  0  0  0
   26.8786  -19.2557   -7.7870 C   0  0  0  0  0  0  0  0  0  0  0  0
   27.6044  -19.9247   -8.7494 C   0  0  0  0  0  0  0  0  0  0  0  0
   24.5960  -21.3467   -9.3400 C   0  0  0  0  0  0  0  0  0  0  0  0
   25.0885  -22.2194   -8.3933 O   0  0  0  0  0  0  0  0  0  0  0  0
   23.6032  -20.6214   -8.9476 O   0  0  0  0  0  0  0  0  0  0  0  0
  2  1  1  0
  2  3  2  0
  4  2  1  0
  5  4  1  0
  5  6  1  6
  7  5  1  0
  8  7  2  0
  9  7  1  0
 10  9  1  0
 10 11  1  6
 12 11  1  0
 13 12  2  0
 14 15  2  0
 14 10  1  0
 16 12  1  0
 17 14  1  0
 18 19  1  1
 18 17  1  0
 20 28  1  0
 20 19  1  0
 21 20  2  0
 22 21  1  0
 22 23  1  0
 23 28  2  0
 24 23  1  0
 24 25  2  0
 25 26  1  0
 26 27  2  0
 28 27  1  0
 29 18  1  0
 30 29  1  0
 31 29  2  0
M  END
$$$$
