NDW.pdb
     RDKit          3D

 31 32  0  0  1  0  0  0  0  0999 V2000
   22.5668  -16.0782  -15.0328 N   0  0  0  0  0  0  0  0  0  0  0  0
   22.5100  -17.3278  -15.6821 C   0  0  0  0  0  0  0  0  0  0  0  0
   21.6046  -17.4764  -16.5691 O   0  0  0  0  0  0  0  0  0  0  0  0
   23.3818  -18.4762  -15.4498 C   0  0  0  0  0  0  0  0  0  0  0  0
   24.2635  -18.3930  -14.2452 C   0  0  2  0  0  0  0  0  0  0  0  0
   25.1259  -17.2580  -14.1899 N   0  0  0  0  0  0  0  0  0  0  0  0
   24.9940  -19.6509  -13.9390 C   0  0  0  0  0  0  0  0  0  0  0  0
   24.4744  -20.7791  -14.0028 O   0  0  0  0  0  0  0  0  0  0  0  0
   26.3632  -19.5450  -13.5508 N   0  0  0  0  0  0  0  0  0  0  0  0
   27.2576  -20.6803  -13.4157 C   0  0  1  0  0  0  0  0  0  0  0  0
   28.6590  -20.3964  -13.8515 C   0  0  0  0  0  0  0  0  0  0  0  0
   28.6764  -19.7363  -15.1775 C   0  0  0  0  0  0  0  0  0  0  0  0
   28.2760  -20.3278  -16.1867 O   0  0  0  0  0  0  0  0  0  0  0  0
   27.2537  -21.0885  -11.9801 C   0  0  0  0  0  0  0  0  0  0  0  0
   28.1310  -21.8657  -11.5575 O   0  0  0  0  0  0  0  0  0  0  0  0
   29.1423  -18.4339  -15.3470 O   0  0  0  0  0  0  0  0  0  0  0  0
   26.2717  -20.6070  -11.0908 N   0  0  0  0  0  0  0  0  0  0  0  0
   26.2332  -21.1956   -9.7308 C   0  0  1  0  0  0  0  0  0  0  0  0
   27.5998  -20.9131   -9.1731 C   0  0  0  0  0  0  0  0  0  0  0  0
   27.6402  -20.1116   -7.9483 C   0  0  0  0  0  0  0  0  0  0  0  0
   27.0045  -18.8724   -7.7827 C   0  0  0  0  0  0  0  0  0  0  0  0
   27.2819  -18.4426   -6.5512 N   0  0  0  0  0  0  0  0  0  0  0  0
   28.0643  -19.3417   -5.9071 C   0  0  0  0  0  0  0  0  0  0  0  0
   28.5886  -19.3418   -4.6322 C   0  0  0  0  0  0  0  0  0  0  0  0
   29.3615  -20.3957   -4.1775 C   0  0  0  0  0  0  0  0  0  0  0  0
   29.5876  -21.4392   -5.0383 C   0  0  0  0  0  0  0  0  0  0  0  0
   29.0676  -21.4351   -6.3010 C   0  0  0  0  0  0  0  0  0  0  0  0
   28.2973  -20.3888   -6.7618 C   0  0  0  0  0  0  0  0  0  0  0  0
   25.1414  -20.6457   -8.9290 C   0  0  0  0  0  0  0  0  0  0  0  0
   24.4011  -19.5245   -9.2379 O   0  0  0  0  0  0  0  0  0  0  0  0
   24.8106  -21.2296   -7.8266 O   0  0  0  0  0  0  0  0  0  0  0  0
  2  1  1  0
  2  3  2  0
  4  2  1  0
  5  4  1  0
  5  6  1  6
  7  5  1  0
  8  7  2  0
  9  7  1  0
 10  9  1  0
 10 11  1  1
 12 11  1  0
 13 12  2  0
 14 15  2  0
 14 10  1  0
 16 12  1  0
 17 14  1  0
 18 19  1  1
 18 17  1  0
 20 28  1  0
 20 19  1  0
 21 20  2  0
 22 21  1  0
 22 23  1  0
 23 28  2  0
 24 23  1  0
 24 25  2  0
 25 26  1  0
 26 27  2  0
 28 27  1  0
 29 18  1  0
 30 29  1  0
 31 29  2  0
M  END
$$$$
