NDW.pdb
     RDKit          3D

 31 32  0  0  1  0  0  0  0  0999 V2000
   29.1898  -36.6013   -6.0392 N   0  0  0  0  0  0  0  0  0  0  0  0
   28.8156  -35.7049   -5.0179 C   0  0  0  0  0  0  0  0  0  0  0  0
   29.4109  -34.5764   -4.9942 O   0  0  0  0  0  0  0  0  0  0  0  0
   27.8131  -35.9288   -3.9799 C   0  0  0  0  0  0  0  0  0  0  0  0
   27.6896  -34.8529   -2.9492 C   0  0  2  0  0  0  0  0  0  0  0  0
   28.9039  -34.1896   -2.6020 N   0  0  0  0  0  0  0  0  0  0  0  0
   26.9203  -35.2536   -1.7419 C   0  0  0  0  0  0  0  0  0  0  0  0
   25.7822  -35.7531   -1.7878 O   0  0  0  0  0  0  0  0  0  0  0  0
   27.5304  -35.0478   -0.4683 N   0  0  0  0  0  0  0  0  0  0  0  0
   26.8793  -35.3313    0.7978 C   0  0  1  0  0  0  0  0  0  0  0  0
   27.8295  -35.6829    1.8967 C   0  0  0  0  0  0  0  0  0  0  0  0
   28.2063  -37.1140    1.8317 C   0  0  0  0  0  0  0  0  0  0  0  0
   27.4342  -37.9528    1.3533 O   0  0  0  0  0  0  0  0  0  0  0  0
   26.0960  -34.1204    1.1826 C   0  0  0  0  0  0  0  0  0  0  0  0
   26.6862  -33.0407    1.3782 O   0  0  0  0  0  0  0  0  0  0  0  0
   29.4333  -37.5758    2.3039 O   0  0  0  0  0  0  0  0  0  0  0  0
   24.6950  -34.1773    1.3275 N   0  0  0  0  0  0  0  0  0  0  0  0
   23.9852  -32.9081    1.6152 C   0  0  1  0  0  0  0  0  0  0  0  0
   24.2846  -32.0451    0.4218 C   0  0  0  0  0  0  0  0  0  0  0  0
   23.5627  -30.7730    0.3523 C   0  0  0  0  0  0  0  0  0  0  0  0
   22.6391  -30.3248    1.3080 C   0  0  0  0  0  0  0  0  0  0  0  0
   22.1796  -29.1428    0.8957 N   0  0  0  0  0  0  0  0  0  0  0  0
   22.7601  -28.7991   -0.2792 C   0  0  0  0  0  0  0  0  0  0  0  0
   22.6148  -27.6808   -1.0720 C   0  0  0  0  0  0  0  0  0  0  0  0
   23.3369  -27.5369   -2.2437 C   0  0  0  0  0  0  0  0  0  0  0  0
   24.2013  -28.5442   -2.5885 C   0  0  0  0  0  0  0  0  0  0  0  0
   24.3417  -29.6512   -1.8012 C   0  0  0  0  0  0  0  0  0  0  0  0
   23.6255  -29.8026   -0.6330 C   0  0  0  0  0  0  0  0  0  0  0  0
   22.5579  -33.1219    1.8479 C   0  0  0  0  0  0  0  0  0  0  0  0
   21.8103  -34.1711    1.3572 O   0  0  0  0  0  0  0  0  0  0  0  0
   21.9016  -32.2765    2.5692 O   0  0  0  0  0  0  0  0  0  0  0  0
  2  1  1  0
  2  3  2  0
  4  2  1  0
  5  4  1  0
  5  6  1  1
  7  5  1  0
  8  7  2  0
  9  7  1  0
 10  9  1  0
 10 11  1  1
 12 11  1  0
 13 12  2  0
 14 15  2  0
 14 10  1  0
 16 12  1  0
 17 14  1  0
 18 19  1  6
 18 17  1  0
 20 28  1  0
 20 19  1  0
 21 20  2  0
 22 21  1  0
 22 23  1  0
 23 28  2  0
 24 23  1  0
 24 25  2  0
 25 26  1  0
 26 27  2  0
 28 27  1  0
 29 18  1  0
 30 29  1  0
 31 29  2  0
M  END
$$$$
