NDW.pdb
     RDKit          3D

 31 32  0  0  1  0  0  0  0  0999 V2000
   20.2533  -14.7865  -17.9195 N   0  0  0  0  0  0  0  0  0  0  0  0
   20.3791  -13.8286  -16.8933 C   0  0  0  0  0  0  0  0  0  0  0  0
   20.0185  -14.1866  -15.7226 O   0  0  0  0  0  0  0  0  0  0  0  0
   20.8825  -12.4641  -17.0255 C   0  0  0  0  0  0  0  0  0  0  0  0
   21.1386  -11.9956  -18.4219 C   0  0  2  0  0  0  0  0  0  0  0  0
   22.0134  -12.8144  -19.1962 N   0  0  0  0  0  0  0  0  0  0  0  0
   21.5023  -10.5578  -18.5232 C   0  0  0  0  0  0  0  0  0  0  0  0
   22.6759  -10.1483  -18.5685 O   0  0  0  0  0  0  0  0  0  0  0  0
   20.4395   -9.6065  -18.5688 N   0  0  0  0  0  0  0  0  0  0  0  0
   20.6376   -8.1764  -18.7205 C   0  0  1  0  0  0  0  0  0  0  0  0
   19.5616   -7.5010  -19.5082 C   0  0  0  0  0  0  0  0  0  0  0  0
   19.8681   -6.0642  -19.6974 C   0  0  0  0  0  0  0  0  0  0  0  0
   21.0055   -5.6931  -20.0096 O   0  0  0  0  0  0  0  0  0  0  0  0
   20.7029   -7.5831  -17.3524 C   0  0  0  0  0  0  0  0  0  0  0  0
   19.9000   -7.9604  -16.4776 O   0  0  0  0  0  0  0  0  0  0  0  0
   18.9002   -5.0754  -19.5313 O   0  0  0  0  0  0  0  0  0  0  0  0
   21.6617   -6.6008  -17.0318 N   0  0  0  0  0  0  0  0  0  0  0  0
   21.6860   -6.0986  -15.6373 C   0  0  1  0  0  0  0  0  0  0  0  0
   23.1055   -6.3189  -15.1958 C   0  0  0  0  0  0  0  0  0  0  0  0
   23.4853   -7.7068  -14.9243 C   0  0  0  0  0  0  0  0  0  0  0  0
   22.7507   -8.5948  -14.1249 C   0  0  0  0  0  0  0  0  0  0  0  0
   23.4150   -9.7507  -14.0977 N   0  0  0  0  0  0  0  0  0  0  0  0
   24.5437   -9.6592  -14.8414 C   0  0  0  0  0  0  0  0  0  0  0  0
   25.5272  -10.5846  -15.1185 C   0  0  0  0  0  0  0  0  0  0  0  0
   26.6001  -10.2652  -15.9321 C   0  0  0  0  0  0  0  0  0  0  0  0
   26.6509   -8.9974  -16.4528 C   0  0  0  0  0  0  0  0  0  0  0  0
   25.6755   -8.0829  -16.1751 C   0  0  0  0  0  0  0  0  0  0  0  0
   24.6040   -8.3929  -15.3649 C   0  0  0  0  0  0  0  0  0  0  0  0
   21.2486   -4.7063  -15.5511 C   0  0  0  0  0  0  0  0  0  0  0  0
   20.8153   -3.9317  -16.6060 O   0  0  0  0  0  0  0  0  0  0  0  0
   21.2551   -4.1115  -14.4057 O   0  0  0  0  0  0  0  0  0  0  0  0
  2  1  1  0
  2  3  2  0
  4  2  1  0
  5  4  1  0
  5  6  1  1
  7  5  1  0
  8  7  2  0
  9  7  1  0
 10  9  1  0
 10 11  1  6
 12 11  1  0
 13 12  2  0
 14 15  2  0
 14 10  1  0
 16 12  1  0
 17 14  1  0
 18 19  1  6
 18 17  1  0
 20 28  1  0
 20 19  1  0
 21 20  2  0
 22 21  1  0
 22 23  1  0
 23 28  2  0
 24 23  1  0
 24 25  2  0
 25 26  1  0
 26 27  2  0
 28 27  1  0
 29 18  1  0
 30 29  1  0
 31 29  2  0
M  END
$$$$
