NDW.pdb
     RDKit          3D

 31 32  0  0  1  0  0  0  0  0999 V2000
   29.7843  -18.9247  -17.6536 N   0  0  0  0  0  0  0  0  0  0  0  0
   28.9021  -17.8631  -17.3690 C   0  0  0  0  0  0  0  0  0  0  0  0
   28.9124  -16.8728  -18.1740 O   0  0  0  0  0  0  0  0  0  0  0  0
   27.9707  -17.7747  -16.2477 C   0  0  0  0  0  0  0  0  0  0  0  0
   28.0856  -18.8521  -15.2176 C   0  0  2  0  0  0  0  0  0  0  0  0
   28.2612  -20.1738  -15.7249 N   0  0  0  0  0  0  0  0  0  0  0  0
   27.0338  -18.8039  -14.1681 C   0  0  0  0  0  0  0  0  0  0  0  0
   26.6521  -17.7512  -13.6269 O   0  0  0  0  0  0  0  0  0  0  0  0
   26.4393  -20.0380  -13.7680 N   0  0  0  0  0  0  0  0  0  0  0  0
   25.3608  -20.1426  -12.8019 C   0  0  1  0  0  0  0  0  0  0  0  0
   24.1802  -20.9120  -13.3002 C   0  0  0  0  0  0  0  0  0  0  0  0
   23.0802  -20.8929  -12.3083 C   0  0  0  0  0  0  0  0  0  0  0  0
   23.1122  -20.1257  -11.3392 O   0  0  0  0  0  0  0  0  0  0  0  0
   25.9109  -20.8052  -11.5828 C   0  0  0  0  0  0  0  0  0  0  0  0
   26.9272  -21.5200  -11.6748 O   0  0  0  0  0  0  0  0  0  0  0  0
   21.9727  -21.7314  -12.4188 O   0  0  0  0  0  0  0  0  0  0  0  0
   25.2989  -20.6343  -10.3245 N   0  0  0  0  0  0  0  0  0  0  0  0
   26.0205  -21.1515   -9.1373 C   0  0  1  0  0  0  0  0  0  0  0  0
   27.3092  -20.3784   -9.1294 C   0  0  0  0  0  0  0  0  0  0  0  0
   28.2466  -20.7044   -8.0527 C   0  0  0  0  0  0  0  0  0  0  0  0
   29.2344  -21.6974   -8.1261 C   0  0  0  0  0  0  0  0  0  0  0  0
   29.8728  -21.7130   -6.9555 N   0  0  0  0  0  0  0  0  0  0  0  0
   29.3510  -20.7780   -6.1255 C   0  0  0  0  0  0  0  0  0  0  0  0
   29.6846  -20.4185   -4.8372 C   0  0  0  0  0  0  0  0  0  0  0  0
   29.0098  -19.4039   -4.1810 C   0  0  0  0  0  0  0  0  0  0  0  0
   27.9988  -18.7692   -4.8562 C   0  0  0  0  0  0  0  0  0  0  0  0
   27.6703  -19.1290   -6.1319 C   0  0  0  0  0  0  0  0  0  0  0  0
   28.3370  -20.1390   -6.7922 C   0  0  0  0  0  0  0  0  0  0  0  0
   25.2341  -21.0039   -7.9138 C   0  0  0  0  0  0  0  0  0  0  0  0
   24.2139  -20.0979   -7.7168 O   0  0  0  0  0  0  0  0  0  0  0  0
   25.4860  -21.7680   -6.9046 O   0  0  0  0  0  0  0  0  0  0  0  0
  2  1  1  0
  2  3  2  0
  4  2  1  0
  5  4  1  0
  5  6  1  6
  7  5  1  0
  8  7  2  0
  9  7  1  0
 10  9  1  0
 10 11  1  6
 12 11  1  0
 13 12  2  0
 14 15  2  0
 14 10  1  0
 16 12  1  0
 17 14  1  0
 18 19  1  1
 18 17  1  0
 20 28  1  0
 20 19  1  0
 21 20  2  0
 22 21  1  0
 22 23  1  0
 23 28  2  0
 24 23  1  0
 24 25  2  0
 25 26  1  0
 26 27  2  0
 28 27  1  0
 29 18  1  0
 30 29  1  0
 31 29  2  0
M  END
$$$$
