NDW.pdb
     RDKit          3D

 31 32  0  0  1  0  0  0  0  0999 V2000
   24.0907  -27.2103  -19.2319 N   0  0  0  0  0  0  0  0  0  0  0  0
   23.2191  -27.0679  -18.1335 C   0  0  0  0  0  0  0  0  0  0  0  0
   23.2462  -27.9904  -17.2521 O   0  0  0  0  0  0  0  0  0  0  0  0
   22.2849  -25.9716  -17.8929 C   0  0  0  0  0  0  0  0  0  0  0  0
   22.7944  -24.8557  -17.0383 C   0  0  2  0  0  0  0  0  0  0  0  0
   23.3431  -25.2441  -15.7801 N   0  0  0  0  0  0  0  0  0  0  0  0
   21.8473  -23.7189  -16.8949 C   0  0  0  0  0  0  0  0  0  0  0  0
   21.1035  -23.3257  -17.8109 O   0  0  0  0  0  0  0  0  0  0  0  0
   21.7994  -23.0505  -15.6350 N   0  0  0  0  0  0  0  0  0  0  0  0
   20.9830  -21.8801  -15.3687 C   0  0  1  0  0  0  0  0  0  0  0  0
   20.6247  -21.7126  -13.9273 C   0  0  0  0  0  0  0  0  0  0  0  0
   19.5452  -20.7115  -13.7640 C   0  0  0  0  0  0  0  0  0  0  0  0
   19.0379  -20.1586  -14.7467 O   0  0  0  0  0  0  0  0  0  0  0  0
   21.7437  -20.6843  -15.8369 C   0  0  0  0  0  0  0  0  0  0  0  0
   21.4885  -20.1884  -16.9511 O   0  0  0  0  0  0  0  0  0  0  0  0
   19.0591  -20.3488  -12.5094 O   0  0  0  0  0  0  0  0  0  0  0  0
   22.7484  -20.1036  -15.0367 N   0  0  0  0  0  0  0  0  0  0  0  0
   23.4852  -18.9459  -15.5975 C   0  0  1  0  0  0  0  0  0  0  0  0
   24.6802  -18.8042  -14.6973 C   0  0  0  0  0  0  0  0  0  0  0  0
   25.7480  -17.9270  -15.1814 C   0  0  0  0  0  0  0  0  0  0  0  0
   25.8507  -16.5583  -14.8926 C   0  0  0  0  0  0  0  0  0  0  0  0
   26.9339  -16.0980  -15.5194 N   0  0  0  0  0  0  0  0  0  0  0  0
   27.5420  -17.0996  -16.1994 C   0  0  0  0  0  0  0  0  0  0  0  0
   28.6827  -17.1112  -16.9734 C   0  0  0  0  0  0  0  0  0  0  0  0
   29.1306  -18.2775  -17.5685 C   0  0  0  0  0  0  0  0  0  0  0  0
   28.4012  -19.4203  -17.3618 C   0  0  0  0  0  0  0  0  0  0  0  0
   27.2709  -19.4048  -16.5955 C   0  0  0  0  0  0  0  0  0  0  0  0
   26.8176  -18.2471  -15.9999 C   0  0  0  0  0  0  0  0  0  0  0  0
   23.8249  -19.1455  -17.0053 C   0  0  0  0  0  0  0  0  0  0  0  0
   24.1748  -20.3454  -17.5869 O   0  0  0  0  0  0  0  0  0  0  0  0
   23.8102  -18.1352  -17.8084 O   0  0  0  0  0  0  0  0  0  0  0  0
  2  1  1  0
  2  3  2  0
  4  2  1  0
  5  4  1  0
  5  6  1  1
  7  5  1  0
  8  7  2  0
  9  7  1  0
 10  9  1  0
 10 11  1  1
 12 11  1  0
 13 12  2  0
 14 15  2  0
 14 10  1  0
 16 12  1  0
 17 14  1  0
 18 19  1  1
 18 17  1  0
 20 28  1  0
 20 19  1  0
 21 20  2  0
 22 21  1  0
 22 23  1  0
 23 28  2  0
 24 23  1  0
 24 25  2  0
 25 26  1  0
 26 27  2  0
 28 27  1  0
 29 18  1  0
 30 29  1  0
 31 29  2  0
M  END
$$$$
