NDW.pdb
     RDKit          3D

 31 32  0  0  1  0  0  0  0  0999 V2000
   30.0893  -34.0316   -8.2912 N   0  0  0  0  0  0  0  0  0  0  0  0
   31.0050  -35.0057   -7.8451 C   0  0  0  0  0  0  0  0  0  0  0  0
   31.9483  -35.3200   -8.6451 O   0  0  0  0  0  0  0  0  0  0  0  0
   30.9920  -35.6961   -6.5583 C   0  0  0  0  0  0  0  0  0  0  0  0
   31.1005  -34.8241   -5.3488 C   0  0  2  0  0  0  0  0  0  0  0  0
   32.3037  -34.0652   -5.2420 N   0  0  0  0  0  0  0  0  0  0  0  0
   30.7723  -35.5119   -4.0724 C   0  0  0  0  0  0  0  0  0  0  0  0
   29.8036  -36.2800   -3.9362 O   0  0  0  0  0  0  0  0  0  0  0  0
   31.6205  -35.2687   -2.9508 N   0  0  0  0  0  0  0  0  0  0  0  0
   31.3926  -35.8203   -1.6275 C   0  0  1  0  0  0  0  0  0  0  0  0
   32.4279  -35.4238   -0.6249 C   0  0  0  0  0  0  0  0  0  0  0  0
   32.2165  -36.1297    0.6602 C   0  0  0  0  0  0  0  0  0  0  0  0
   31.0797  -36.2800    1.1227 O   0  0  0  0  0  0  0  0  0  0  0  0
   30.0501  -35.3549   -1.1705 C   0  0  0  0  0  0  0  0  0  0  0  0
   29.8642  -34.1459   -0.9336 O   0  0  0  0  0  0  0  0  0  0  0  0
   33.2774  -36.6485    1.4000 O   0  0  0  0  0  0  0  0  0  0  0  0
   28.9848  -36.2627   -1.0032 N   0  0  0  0  0  0  0  0  0  0  0  0
   27.6921  -35.7189   -0.5230 C   0  0  1  0  0  0  0  0  0  0  0  0
   26.6739  -36.3393   -1.4379 C   0  0  0  0  0  0  0  0  0  0  0  0
   25.2734  -36.0282   -1.1447 C   0  0  0  0  0  0  0  0  0  0  0  0
   24.6407  -34.8169   -1.4601 C   0  0  0  0  0  0  0  0  0  0  0  0
   23.3830  -34.8979   -1.0244 N   0  0  0  0  0  0  0  0  0  0  0  0
   23.1658  -36.1024   -0.4435 C   0  0  0  0  0  0  0  0  0  0  0  0
   22.0362  -36.6432    0.1326 C   0  0  0  0  0  0  0  0  0  0  0  0
   22.0451  -37.9236    0.6577 C   0  0  0  0  0  0  0  0  0  0  0  0
   23.2153  -38.6351    0.5851 C   0  0  0  0  0  0  0  0  0  0  0  0
   24.3327  -38.0955    0.0148 C   0  0  0  0  0  0  0  0  0  0  0  0
   24.3324  -36.8206   -0.5098 C   0  0  0  0  0  0  0  0  0  0  0  0
   27.4704  -36.0088    0.8926 C   0  0  0  0  0  0  0  0  0  0  0  0
   27.9309  -37.1182    1.5691 O   0  0  0  0  0  0  0  0  0  0  0  0
   26.7867  -35.1800    1.6079 O   0  0  0  0  0  0  0  0  0  0  0  0
  2  1  1  0
  2  3  2  0
  4  2  1  0
  5  4  1  0
  5  6  1  1
  7  5  1  0
  8  7  2  0
  9  7  1  0
 10  9  1  0
 10 11  1  1
 12 11  1  0
 13 12  2  0
 14 15  2  0
 14 10  1  0
 16 12  1  0
 17 14  1  0
 18 19  1  6
 18 17  1  0
 20 28  1  0
 20 19  1  0
 21 20  2  0
 22 21  1  0
 22 23  1  0
 23 28  2  0
 24 23  1  0
 24 25  2  0
 25 26  1  0
 26 27  2  0
 28 27  1  0
 29 18  1  0
 30 29  1  0
 31 29  2  0
M  END
$$$$
