THD.pdb
     RDKit          3D

 26 26  0  0  1  0  0  0  0  0999 V2000
    9.1363  -12.2867   20.0120 C   0  0  0  0  0  0  0  0  0  0  0  0
    8.3996  -13.2914   19.1865 C   0  0  1  0  0  0  0  0  0  0  0  0
    7.2951  -12.6757   18.6125 O   0  0  0  0  0  0  0  0  0  0  0  0
    9.2351  -13.8516   18.0367 C   0  0  2  0  0  0  0  0  0  0  0  0
    8.3636  -14.6041   17.1806 N   0  0  0  0  0  0  0  0  0  0  0  0
   10.3740  -14.6760   18.5657 C   0  0  0  0  0  0  0  0  0  0  0  0
   10.1361  -15.8694   18.7774 O   0  0  0  0  0  0  0  0  0  0  0  0
   11.6388  -14.1349   18.8091 N   0  0  0  0  0  0  0  0  0  0  0  0
   12.8050  -14.7944   19.2643 C   0  0  1  0  0  0  0  0  0  0  0  0
   14.1191  -14.3609   18.6326 C   0  0  0  0  0  0  0  0  0  0  0  0
   14.2960  -14.9154   17.2762 C   0  0  0  0  0  0  0  0  0  0  0  0
   14.7384  -14.2642   16.1496 C   0  0  0  0  0  0  0  0  0  0  0  0
   14.7014  -15.1280   15.0925 N   0  0  0  0  0  0  0  0  0  0  0  0
   14.2387  -16.2963   15.5764 C   0  0  0  0  0  0  0  0  0  0  0  0
   13.9959  -16.1624   16.8945 N   0  0  0  0  0  0  0  0  0  0  0  0
   12.8835  -15.0358   20.7100 C   0  0  0  0  0  0  0  0  0  0  0  0
   12.9168  -14.0072   21.4799 O   0  0  0  0  0  0  0  0  0  0  0  0
   12.9249  -16.2931   21.3183 N   0  0  0  0  0  0  0  0  0  0  0  0
   13.0179  -16.5133   22.7741 C   0  0  1  0  0  0  0  0  0  0  0  0
   12.5875  -17.9141   23.1110 C   0  0  0  0  0  0  0  0  0  0  0  0
   11.1420  -18.1126   22.8861 C   0  0  0  0  0  0  0  0  0  0  0  0
   10.2593  -17.2205   22.9475 O   0  0  0  0  0  0  0  0  0  0  0  0
   14.4529  -16.3683   23.1130 C   0  0  0  0  0  0  0  0  0  0  0  0
   14.8203  -16.3872   24.4674 O   0  0  0  0  0  0  0  0  0  0  0  0
   10.6289  -19.3898   22.5693 O   0  0  0  0  0  0  0  0  0  0  0  0
   15.3799  -16.2286   22.2926 O   0  0  0  0  0  0  0  0  0  0  0  0
  2  1  1  6
  2  4  1  0
  3  2  1  0
  4  6  1  0
  4  5  1  6
  6  7  2  0
  8  9  1  0
  8  6  1  0
  9 10  1  1
 11 10  1  0
 12 11  2  0
 13 14  1  0
 13 12  1  0
 14 15  2  0
 15 11  1  0
 16 17  2  0
 16  9  1  0
 18 16  1  0
 19 18  1  0
 20 21  1  0
 19 20  1  6
 21 22  2  0
 23 19  1  0
 23 24  1  0
 25 21  1  0
 26 23  2  0
M  END
$$$$
