THD.pdb
     RDKit          3D

 26 26  0  0  1  0  0  0  0  0999 V2000
   10.0043  -20.7204   19.5300 C   0  0  0  0  0  0  0  0  0  0  0  0
   10.6400  -20.0895   18.3337 C   0  0  1  0  0  0  0  0  0  0  0  0
   10.3534  -20.8612   17.2153 O   0  0  0  0  0  0  0  0  0  0  0  0
   10.1115  -18.6857   18.0438 C   0  0  2  0  0  0  0  0  0  0  0  0
   10.6973  -18.2364   16.8136 N   0  0  0  0  0  0  0  0  0  0  0  0
   10.4076  -17.7635   19.1921 C   0  0  0  0  0  0  0  0  0  0  0  0
   11.5964  -17.4877   19.3824 O   0  0  0  0  0  0  0  0  0  0  0  0
    9.4023  -17.2392   20.0083 N   0  0  0  0  0  0  0  0  0  0  0  0
    9.5385  -16.4444   21.1710 C   0  0  1  0  0  0  0  0  0  0  0  0
    8.3117  -15.6531   21.5987 C   0  0  0  0  0  0  0  0  0  0  0  0
    7.9893  -14.5681   20.6513 C   0  0  0  0  0  0  0  0  0  0  0  0
    8.7170  -14.1567   19.5604 C   0  0  0  0  0  0  0  0  0  0  0  0
    8.0930  -13.0858   18.9870 N   0  0  0  0  0  0  0  0  0  0  0  0
    6.9931  -12.8497   19.7271 C   0  0  0  0  0  0  0  0  0  0  0  0
    6.9354  -13.7471   20.7299 N   0  0  0  0  0  0  0  0  0  0  0  0
   10.2785  -17.0538   22.2826 C   0  0  0  0  0  0  0  0  0  0  0  0
    9.9948  -18.2704   22.5847 O   0  0  0  0  0  0  0  0  0  0  0  0
   11.2669  -16.4193   23.0396 N   0  0  0  0  0  0  0  0  0  0  0  0
   12.2782  -17.1240   23.8503 C   0  0  1  0  0  0  0  0  0  0  0  0
   13.6303  -16.4999   23.6421 C   0  0  0  0  0  0  0  0  0  0  0  0
   14.6747  -17.1770   24.4360 C   0  0  0  0  0  0  0  0  0  0  0  0
   14.7242  -18.4067   24.6889 O   0  0  0  0  0  0  0  0  0  0  0  0
   11.8781  -16.9182   25.2620 C   0  0  0  0  0  0  0  0  0  0  0  0
   10.7058  -16.1910   25.5204 O   0  0  0  0  0  0  0  0  0  0  0  0
   15.7461  -16.4451   24.9939 O   0  0  0  0  0  0  0  0  0  0  0  0
   12.4968  -17.3383   26.2583 O   0  0  0  0  0  0  0  0  0  0  0  0
  2  1  1  1
  2  4  1  0
  3  2  1  0
  4  6  1  0
  4  5  1  6
  6  7  2  0
  8  9  1  0
  8  6  1  0
  9 10  1  1
 11 10  1  0
 12 11  2  0
 13 14  1  0
 13 12  1  0
 14 15  2  0
 15 11  1  0
 16 17  2  0
 16  9  1  0
 18 16  1  0
 19 18  1  0
 20 21  1  0
 19 20  1  1
 21 22  2  0
 23 19  1  0
 23 24  1  0
 25 21  1  0
 26 23  2  0
M  END
$$$$
