THD.pdb
     RDKit          3D

 26 26  0  0  1  0  0  0  0  0999 V2000
    7.7371  -11.8531   19.4407 C   0  0  0  0  0  0  0  0  0  0  0  0
    8.8530  -12.8325   19.6111 C   0  0  1  0  0  0  0  0  0  0  0  0
    8.4544  -13.8132   20.5099 O   0  0  0  0  0  0  0  0  0  0  0  0
    9.2234  -13.5514   18.3150 C   0  0  2  0  0  0  0  0  0  0  0  0
    8.0539  -14.2291   17.8337 N   0  0  0  0  0  0  0  0  0  0  0  0
   10.3771  -14.4863   18.5420 C   0  0  0  0  0  0  0  0  0  0  0  0
   10.0904  -15.6592   18.8020 O   0  0  0  0  0  0  0  0  0  0  0  0
   11.7070  -14.0650   18.4660 N   0  0  0  0  0  0  0  0  0  0  0  0
   12.8833  -14.8246   18.6695 C   0  0  1  0  0  0  0  0  0  0  0  0
   13.9666  -14.6935   17.6097 C   0  0  0  0  0  0  0  0  0  0  0  0
   13.6019  -15.3738   16.3517 C   0  0  0  0  0  0  0  0  0  0  0  0
   12.6969  -16.3930   16.1754 C   0  0  0  0  0  0  0  0  0  0  0  0
   12.7014  -16.7705   14.8629 N   0  0  0  0  0  0  0  0  0  0  0  0
   13.6047  -15.9840   14.2476 C   0  0  0  0  0  0  0  0  0  0  0  0
   14.1449  -15.1430   15.1505 N   0  0  0  0  0  0  0  0  0  0  0  0
   13.3908  -14.8664   20.0462 C   0  0  0  0  0  0  0  0  0  0  0  0
   13.3938  -13.7649   20.7085 O   0  0  0  0  0  0  0  0  0  0  0  0
   13.8710  -16.0063   20.6962 N   0  0  0  0  0  0  0  0  0  0  0  0
   14.4004  -16.0211   22.0732 C   0  0  1  0  0  0  0  0  0  0  0  0
   14.3890  -17.4242   22.6136 C   0  0  0  0  0  0  0  0  0  0  0  0
   13.0143  -17.9302   22.7965 C   0  0  0  0  0  0  0  0  0  0  0  0
   12.1201  -17.3921   23.4963 O   0  0  0  0  0  0  0  0  0  0  0  0
   15.8075  -15.5690   21.9692 C   0  0  0  0  0  0  0  0  0  0  0  0
   16.5394  -15.3987   23.1546 O   0  0  0  0  0  0  0  0  0  0  0  0
   12.5914  -19.1185   22.1610 O   0  0  0  0  0  0  0  0  0  0  0  0
   16.4117  -15.3217   20.9082 O   0  0  0  0  0  0  0  0  0  0  0  0
  2  1  1  6
  2  4  1  0
  3  2  1  0
  4  6  1  0
  4  5  1  1
  6  7  2  0
  8  9  1  0
  8  6  1  0
  9 10  1  6
 11 10  1  0
 12 11  2  0
 13 14  1  0
 13 12  1  0
 14 15  2  0
 15 11  1  0
 16 17  2  0
 16  9  1  0
 18 16  1  0
 19 18  1  0
 20 21  1  0
 19 20  1  6
 21 22  2  0
 23 19  1  0
 23 24  1  0
 25 21  1  0
 26 23  2  0
M  END
$$$$
