THD.pdb
     RDKit          3D

 26 26  0  0  1  0  0  0  0  0999 V2000
   14.4477  -16.2793   15.3769 C   0  0  0  0  0  0  0  0  0  0  0  0
   13.9189  -16.1532   16.7690 C   0  0  1  0  0  0  0  0  0  0  0  0
   14.9252  -16.4956   17.6627 O   0  0  0  0  0  0  0  0  0  0  0  0
   13.4873  -14.7304   17.1202 C   0  0  2  0  0  0  0  0  0  0  0  0
   14.6126  -13.8632   16.9199 N   0  0  0  0  0  0  0  0  0  0  0  0
   12.9589  -14.6717   18.5252 C   0  0  0  0  0  0  0  0  0  0  0  0
   13.7579  -14.3174   19.3979 O   0  0  0  0  0  0  0  0  0  0  0  0
   11.6376  -14.9973   18.8414 N   0  0  0  0  0  0  0  0  0  0  0  0
   11.0568  -15.1729   20.1196 C   0  0  1  0  0  0  0  0  0  0  0  0
    9.5459  -15.3454   20.1596 C   0  0  0  0  0  0  0  0  0  0  0  0
    8.8450  -14.3096   19.3758 C   0  0  0  0  0  0  0  0  0  0  0  0
    8.6242  -12.9972   19.7189 C   0  0  0  0  0  0  0  0  0  0  0  0
    7.8889  -12.3977   18.7366 N   0  0  0  0  0  0  0  0  0  0  0  0
    7.6654  -13.3424   17.8034 C   0  0  0  0  0  0  0  0  0  0  0  0
    8.2446  -14.4940   18.1942 N   0  0  0  0  0  0  0  0  0  0  0  0
   11.7869  -16.0509   21.0418 C   0  0  0  0  0  0  0  0  0  0  0  0
   11.7345  -17.3157   20.8195 O   0  0  0  0  0  0  0  0  0  0  0  0
   12.5349  -15.6241   22.1422 N   0  0  0  0  0  0  0  0  0  0  0  0
   13.4775  -16.4763   22.8918 C   0  0  1  0  0  0  0  0  0  0  0  0
   14.7577  -15.7291   23.1437 C   0  0  0  0  0  0  0  0  0  0  0  0
   15.7140  -16.5303   23.9332 C   0  0  0  0  0  0  0  0  0  0  0  0
   15.9381  -17.7583   23.7898 O   0  0  0  0  0  0  0  0  0  0  0  0
   12.8272  -16.7471   24.1953 C   0  0  0  0  0  0  0  0  0  0  0  0
   13.3672  -17.7542   25.0100 O   0  0  0  0  0  0  0  0  0  0  0  0
   16.4819  -15.9348   24.9581 O   0  0  0  0  0  0  0  0  0  0  0  0
   11.8278  -16.1531   24.6429 O   0  0  0  0  0  0  0  0  0  0  0  0
  2  1  1  6
  2  4  1  0
  3  2  1  0
  4  6  1  0
  4  5  1  1
  6  7  2  0
  8  9  1  0
  8  6  1  0
  9 10  1  6
 11 10  1  0
 12 11  2  0
 13 14  1  0
 13 12  1  0
 14 15  2  0
 15 11  1  0
 16 17  2  0
 16  9  1  0
 18 16  1  0
 19 18  1  0
 20 21  1  0
 19 20  1  1
 21 22  2  0
 23 19  1  0
 23 24  1  0
 25 21  1  0
 26 23  2  0
M  END
$$$$
