THD.pdb
     RDKit          3D

 26 26  0  0  1  0  0  0  0  0999 V2000
   10.2688  -20.4307   16.2592 C   0  0  0  0  0  0  0  0  0  0  0  0
   10.6189  -19.5409   17.4077 C   0  0  1  0  0  0  0  0  0  0  0  0
   11.9106  -19.8350   17.8242 O   0  0  0  0  0  0  0  0  0  0  0  0
   10.6036  -18.0573   17.0436 C   0  0  2  0  0  0  0  0  0  0  0  0
   11.4644  -17.8695   15.9112 N   0  0  0  0  0  0  0  0  0  0  0  0
   11.0135  -17.2211   18.2223 C   0  0  0  0  0  0  0  0  0  0  0  0
   12.1627  -16.7687   18.2016 O   0  0  0  0  0  0  0  0  0  0  0  0
   10.1516  -16.9613   19.2907 N   0  0  0  0  0  0  0  0  0  0  0  0
   10.3872  -16.1674   20.4380 C   0  0  1  0  0  0  0  0  0  0  0  0
    9.1644  -15.5432   21.0931 C   0  0  0  0  0  0  0  0  0  0  0  0
    8.5223  -14.5337   20.2287 C   0  0  0  0  0  0  0  0  0  0  0  0
    8.9609  -14.0601   19.0154 C   0  0  0  0  0  0  0  0  0  0  0  0
    8.1011  -13.0939   18.5773 N   0  0  0  0  0  0  0  0  0  0  0  0
    7.1466  -12.9828   19.5206 C   0  0  0  0  0  0  0  0  0  0  0  0
    7.4056  -13.8540   20.5147 N   0  0  0  0  0  0  0  0  0  0  0  0
   11.3778  -16.6887   21.3874 C   0  0  0  0  0  0  0  0  0  0  0  0
   11.2728  -17.9220   21.7333 O   0  0  0  0  0  0  0  0  0  0  0  0
   12.4266  -15.9535   21.9461 N   0  0  0  0  0  0  0  0  0  0  0  0
   13.4858  -16.5261   22.7987 C   0  0  1  0  0  0  0  0  0  0  0  0
   14.7086  -15.6521   22.7565 C   0  0  0  0  0  0  0  0  0  0  0  0
   15.7847  -16.1726   23.6228 C   0  0  0  0  0  0  0  0  0  0  0  0
   16.1528  -17.3717   23.6975 O   0  0  0  0  0  0  0  0  0  0  0  0
   12.9451  -16.5114   24.1780 C   0  0  0  0  0  0  0  0  0  0  0  0
   13.6209  -17.2473   25.1637 O   0  0  0  0  0  0  0  0  0  0  0  0
   16.5110  -15.3080   24.4712 O   0  0  0  0  0  0  0  0  0  0  0  0
   11.9282  -15.8957   24.5504 O   0  0  0  0  0  0  0  0  0  0  0  0
  2  1  1  6
  2  4  1  0
  3  2  1  0
  4  6  1  0
  4  5  1  6
  6  7  2  0
  8  9  1  0
  8  6  1  0
  9 10  1  1
 11 10  1  0
 12 11  2  0
 13 14  1  0
 13 12  1  0
 14 15  2  0
 15 11  1  0
 16 17  2  0
 16  9  1  0
 18 16  1  0
 19 18  1  0
 20 21  1  0
 19 20  1  1
 21 22  2  0
 23 19  1  0
 23 24  1  0
 25 21  1  0
 26 23  2  0
M  END
$$$$
