THD.pdb
     RDKit          3D

 26 26  0  0  1  0  0  0  0  0999 V2000
   11.9111  -19.3420   16.6462 C   0  0  0  0  0  0  0  0  0  0  0  0
   12.1573  -18.3327   15.5720 C   0  0  1  0  0  0  0  0  0  0  0  0
   11.8738  -18.9106   14.3414 O   0  0  0  0  0  0  0  0  0  0  0  0
   11.2645  -17.0989   15.6920 C   0  0  2  0  0  0  0  0  0  0  0  0
   11.4754  -16.2839   14.5302 N   0  0  0  0  0  0  0  0  0  0  0  0
   11.5513  -16.3632   16.9701 C   0  0  0  0  0  0  0  0  0  0  0  0
   12.6494  -15.8030   17.0466 O   0  0  0  0  0  0  0  0  0  0  0  0
   10.6344  -16.3077   18.0227 N   0  0  0  0  0  0  0  0  0  0  0  0
   10.7986  -15.7271   19.3025 C   0  0  1  0  0  0  0  0  0  0  0  0
    9.5265  -15.4485   20.0887 C   0  0  0  0  0  0  0  0  0  0  0  0
    8.6977  -14.4032   19.4571 C   0  0  0  0  0  0  0  0  0  0  0  0
    8.9830  -13.6644   18.3339 C   0  0  0  0  0  0  0  0  0  0  0  0
    7.9748  -12.7678   18.1226 N   0  0  0  0  0  0  0  0  0  0  0  0
    7.0836  -12.9625   19.1130 C   0  0  0  0  0  0  0  0  0  0  0  0
    7.5247  -13.9505   19.9152 N   0  0  0  0  0  0  0  0  0  0  0  0
   11.9017  -16.2583   20.1121 C   0  0  0  0  0  0  0  0  0  0  0  0
   12.0148  -17.5362   20.1906 O   0  0  0  0  0  0  0  0  0  0  0  0
   12.8396  -15.4882   20.8047 N   0  0  0  0  0  0  0  0  0  0  0  0
   13.9446  -16.0433   21.6094 C   0  0  1  0  0  0  0  0  0  0  0  0
   15.0274  -15.0134   21.7761 C   0  0  0  0  0  0  0  0  0  0  0  0
   16.1465  -15.5218   22.5936 C   0  0  0  0  0  0  0  0  0  0  0  0
   16.6269  -16.6817   22.5419 O   0  0  0  0  0  0  0  0  0  0  0  0
   13.3658  -16.3363   22.9414 C   0  0  0  0  0  0  0  0  0  0  0  0
   14.0551  -17.2216   23.7846 O   0  0  0  0  0  0  0  0  0  0  0  0
   16.7857  -14.6906   23.5399 O   0  0  0  0  0  0  0  0  0  0  0  0
   12.3051  -15.8614   23.3901 O   0  0  0  0  0  0  0  0  0  0  0  0
  2  1  1  1
  2  4  1  0
  3  2  1  0
  4  6  1  0
  4  5  1  6
  6  7  2  0
  8  9  1  0
  8  6  1  0
  9 10  1  1
 11 10  1  0
 12 11  2  0
 13 14  1  0
 13 12  1  0
 14 15  2  0
 15 11  1  0
 16 17  2  0
 16  9  1  0
 18 16  1  0
 19 18  1  0
 20 21  1  0
 19 20  1  1
 21 22  2  0
 23 19  1  0
 23 24  1  0
 25 21  1  0
 26 23  2  0
M  END
$$$$
