THD.pdb
     RDKit          3D

 26 26  0  0  1  0  0  0  0  0999 V2000
    7.2473  -14.4840   17.3695 C   0  0  0  0  0  0  0  0  0  0  0  0
    7.6515  -14.6288   18.8010 C   0  0  1  0  0  0  0  0  0  0  0  0
    8.8954  -15.2438   18.8548 O   0  0  0  0  0  0  0  0  0  0  0  0
    7.7938  -13.2898   19.5226 C   0  0  2  0  0  0  0  0  0  0  0  0
    8.7110  -12.4783   18.7752 N   0  0  0  0  0  0  0  0  0  0  0  0
    8.2378  -13.5008   20.9422 C   0  0  0  0  0  0  0  0  0  0  0  0
    9.4286  -13.7831   21.1087 O   0  0  0  0  0  0  0  0  0  0  0  0
    7.3617  -13.3866   22.0244 N   0  0  0  0  0  0  0  0  0  0  0  0
    7.6147  -13.6466   23.3921 C   0  0  1  0  0  0  0  0  0  0  0  0
    6.5486  -13.1914   24.3770 C   0  0  0  0  0  0  0  0  0  0  0  0
    6.9723  -13.3690   25.7797 C   0  0  0  0  0  0  0  0  0  0  0  0
    7.6155  -12.4625   26.5879 C   0  0  0  0  0  0  0  0  0  0  0  0
    7.8736  -13.0468   27.7950 N   0  0  0  0  0  0  0  0  0  0  0  0
    7.3893  -14.3008   27.7181 C   0  0  0  0  0  0  0  0  0  0  0  0
    6.8464  -14.4899   26.4999 N   0  0  0  0  0  0  0  0  0  0  0  0
    8.1966  -14.9586   23.6996 C   0  0  0  0  0  0  0  0  0  0  0  0
    7.7758  -15.9654   23.0205 O   0  0  0  0  0  0  0  0  0  0  0  0
    9.1713  -15.2028   24.6705 N   0  0  0  0  0  0  0  0  0  0  0  0
    9.8030  -16.5149   24.9075 C   0  0  1  0  0  0  0  0  0  0  0  0
   11.1133  -16.5948   24.1743 C   0  0  0  0  0  0  0  0  0  0  0  0
   11.8341  -17.8477   24.4747 C   0  0  0  0  0  0  0  0  0  0  0  0
   12.3854  -18.1348   25.5666 O   0  0  0  0  0  0  0  0  0  0  0  0
   10.0745  -16.5748   26.3628 C   0  0  0  0  0  0  0  0  0  0  0  0
   10.3285  -17.8287   26.9396 O   0  0  0  0  0  0  0  0  0  0  0  0
   11.9574  -18.8617   23.4993 O   0  0  0  0  0  0  0  0  0  0  0  0
   10.0984  -15.5978   27.1354 O   0  0  0  0  0  0  0  0  0  0  0  0
  2  1  1  6
  2  4  1  0
  3  2  1  0
  4  6  1  0
  4  5  1  6
  6  7  2  0
  8  9  1  0
  8  6  1  0
  9 10  1  1
 11 10  1  0
 12 11  2  0
 13 14  1  0
 13 12  1  0
 14 15  2  0
 15 11  1  0
 16 17  2  0
 16  9  1  0
 18 16  1  0
 19 18  1  0
 20 21  1  0
 19 20  1  6
 21 22  2  0
 23 19  1  0
 23 24  1  0
 25 21  1  0
 26 23  2  0
M  END
$$$$
