THD.pdb
     RDKit          3D

 26 26  0  0  1  0  0  0  0  0999 V2000
    8.1134  -16.4544   17.7537 C   0  0  0  0  0  0  0  0  0  0  0  0
    8.4381  -15.0613   17.3212 C   0  0  1  0  0  0  0  0  0  0  0  0
    7.9472  -14.8655   16.0370 O   0  0  0  0  0  0  0  0  0  0  0  0
    7.7935  -13.9936   18.2035 C   0  0  2  0  0  0  0  0  0  0  0  0
    8.0148  -12.7166   17.5881 N   0  0  0  0  0  0  0  0  0  0  0  0
    8.3430  -14.0619   19.6000 C   0  0  0  0  0  0  0  0  0  0  0  0
    9.4970  -13.6504   19.7567 O   0  0  0  0  0  0  0  0  0  0  0  0
    7.5998  -14.5612   20.6724 N   0  0  0  0  0  0  0  0  0  0  0  0
    8.0168  -14.7760   22.0073 C   0  0  1  0  0  0  0  0  0  0  0  0
    6.9189  -14.8415   23.0582 C   0  0  0  0  0  0  0  0  0  0  0  0
    7.4599  -15.0138   24.4206 C   0  0  0  0  0  0  0  0  0  0  0  0
    8.0156  -14.0563   25.2350 C   0  0  0  0  0  0  0  0  0  0  0  0
    8.4401  -14.6467   26.3909 N   0  0  0  0  0  0  0  0  0  0  0  0
    8.1431  -15.9551   26.2771 C   0  0  0  0  0  0  0  0  0  0  0  0
    7.5517  -16.1710   25.0863 N   0  0  0  0  0  0  0  0  0  0  0  0
    9.0882  -15.7617   22.1948 C   0  0  0  0  0  0  0  0  0  0  0  0
    8.9363  -16.9119   21.6418 O   0  0  0  0  0  0  0  0  0  0  0  0
   10.2606  -15.5517   22.9256 N   0  0  0  0  0  0  0  0  0  0  0  0
   11.3609  -16.5282   23.0367 C   0  0  1  0  0  0  0  0  0  0  0  0
   12.6801  -15.8105   23.1095 C   0  0  0  0  0  0  0  0  0  0  0  0
   13.8100  -16.7518   23.2394 C   0  0  0  0  0  0  0  0  0  0  0  0
   13.9572  -17.8175   22.5902 O   0  0  0  0  0  0  0  0  0  0  0  0
   11.1413  -17.2389   24.3181 C   0  0  0  0  0  0  0  0  0  0  0  0
   10.5488  -16.5322   25.3760 O   0  0  0  0  0  0  0  0  0  0  0  0
   14.8575  -16.5013   24.1530 O   0  0  0  0  0  0  0  0  0  0  0  0
   11.4394  -18.4266   24.5474 O   0  0  0  0  0  0  0  0  0  0  0  0
  2  1  1  1
  2  4  1  0
  3  2  1  0
  4  6  1  0
  4  5  1  6
  6  7  2  0
  8  9  1  0
  8  6  1  0
  9 10  1  1
 11 10  1  0
 12 11  2  0
 13 14  1  0
 13 12  1  0
 14 15  2  0
 15 11  1  0
 16 17  2  0
 16  9  1  0
 18 16  1  0
 19 18  1  0
 20 21  1  0
 19 20  1  1
 21 22  2  0
 23 19  1  0
 23 24  1  0
 25 21  1  0
 26 23  2  0
M  END
$$$$
