THD.pdb
     RDKit          3D

 26 26  0  0  1  0  0  0  0  0999 V2000
   11.5104  -19.6177   16.0454 C   0  0  0  0  0  0  0  0  0  0  0  0
   11.6187  -18.8667   17.3329 C   0  0  1  0  0  0  0  0  0  0  0  0
   12.9620  -18.6635   17.6208 O   0  0  0  0  0  0  0  0  0  0  0  0
   10.9691  -17.4851   17.2780 C   0  0  2  0  0  0  0  0  0  0  0  0
   11.5748  -16.7524   16.2033 N   0  0  0  0  0  0  0  0  0  0  0  0
   11.1065  -16.7852   18.6002 C   0  0  0  0  0  0  0  0  0  0  0  0
   12.1887  -16.2312   18.8183 O   0  0  0  0  0  0  0  0  0  0  0  0
   10.0742  -16.7549   19.5410 N   0  0  0  0  0  0  0  0  0  0  0  0
   10.0535  -16.1172   20.8039 C   0  0  1  0  0  0  0  0  0  0  0  0
    8.7027  -15.6087   21.2844 C   0  0  0  0  0  0  0  0  0  0  0  0
    8.1062  -14.6375   20.3466 C   0  0  0  0  0  0  0  0  0  0  0  0
    7.2109  -14.8836   19.3334 C   0  0  0  0  0  0  0  0  0  0  0  0
    6.9569  -13.7169   18.6705 N   0  0  0  0  0  0  0  0  0  0  0  0
    7.6948  -12.7692   19.2791 C   0  0  0  0  0  0  0  0  0  0  0  0
    8.3863  -13.3301   20.2898 N   0  0  0  0  0  0  0  0  0  0  0  0
   10.8684  -16.7423   21.8525 C   0  0  0  0  0  0  0  0  0  0  0  0
   10.7108  -18.0024   22.0508 O   0  0  0  0  0  0  0  0  0  0  0  0
   11.8021  -16.0794   22.6532 N   0  0  0  0  0  0  0  0  0  0  0  0
   12.6782  -16.7431   23.6375 C   0  0  1  0  0  0  0  0  0  0  0  0
   13.8648  -15.8708   23.9405 C   0  0  0  0  0  0  0  0  0  0  0  0
   14.7988  -16.5224   24.8799 C   0  0  0  0  0  0  0  0  0  0  0  0
   14.6753  -17.6789   25.3554 O   0  0  0  0  0  0  0  0  0  0  0  0
   11.8683  -16.8795   24.8707 C   0  0  0  0  0  0  0  0  0  0  0  0
   12.2961  -17.7911   25.8483 O   0  0  0  0  0  0  0  0  0  0  0  0
   15.9565  -15.8505   25.3302 O   0  0  0  0  0  0  0  0  0  0  0  0
   10.8243  -16.2490   25.1245 O   0  0  0  0  0  0  0  0  0  0  0  0
  2  1  1  6
  2  4  1  0
  3  2  1  0
  4  6  1  0
  4  5  1  6
  6  7  2  0
  8  9  1  0
  8  6  1  0
  9 10  1  1
 11 10  1  0
 12 11  2  0
 13 14  1  0
 13 12  1  0
 14 15  2  0
 15 11  1  0
 16 17  2  0
 16  9  1  0
 18 16  1  0
 19 18  1  0
 20 21  1  0
 19 20  1  1
 21 22  2  0
 23 19  1  0
 23 24  1  0
 25 21  1  0
 26 23  2  0
M  END
$$$$
