THD.pdb
     RDKit          3D

 26 26  0  0  1  0  0  0  0  0999 V2000
   13.9013  -18.3238   16.9882 C   0  0  0  0  0  0  0  0  0  0  0  0
   12.4519  -18.5384   16.6939 C   0  0  1  0  0  0  0  0  0  0  0  0
   11.9444  -19.4645   17.5958 O   0  0  0  0  0  0  0  0  0  0  0  0
   11.6138  -17.2707   16.8504 C   0  0  2  0  0  0  0  0  0  0  0  0
   12.0065  -16.3496   15.8228 N   0  0  0  0  0  0  0  0  0  0  0  0
   11.7775  -16.6976   18.2294 C   0  0  0  0  0  0  0  0  0  0  0  0
   12.9114  -16.3136   18.5334 O   0  0  0  0  0  0  0  0  0  0  0  0
   10.7133  -16.5985   19.1291 N   0  0  0  0  0  0  0  0  0  0  0  0
   10.7083  -16.0349   20.4269 C   0  0  1  0  0  0  0  0  0  0  0  0
    9.3457  -15.7054   21.0175 C   0  0  0  0  0  0  0  0  0  0  0  0
    8.6272  -14.6858   20.2284 C   0  0  0  0  0  0  0  0  0  0  0  0
    9.0805  -13.9952   19.1300 C   0  0  0  0  0  0  0  0  0  0  0  0
    8.1216  -13.1061   18.7361 N   0  0  0  0  0  0  0  0  0  0  0  0
    7.0929  -13.2575   19.5917 C   0  0  0  0  0  0  0  0  0  0  0  0
    7.4033  -14.2120   20.4899 N   0  0  0  0  0  0  0  0  0  0  0  0
   11.6533  -16.6207   21.3852 C   0  0  0  0  0  0  0  0  0  0  0  0
   11.7721  -17.9005   21.3908 O   0  0  0  0  0  0  0  0  0  0  0  0
   12.4349  -15.9006   22.2924 N   0  0  0  0  0  0  0  0  0  0  0  0
   13.4941  -16.4901   23.1333 C   0  0  1  0  0  0  0  0  0  0  0  0
   14.5769  -15.4770   23.3822 C   0  0  0  0  0  0  0  0  0  0  0  0
   15.6539  -16.0230   24.2315 C   0  0  0  0  0  0  0  0  0  0  0  0
   15.7361  -17.2071   24.6437 O   0  0  0  0  0  0  0  0  0  0  0  0
   12.8481  -16.8148   24.4266 C   0  0  0  0  0  0  0  0  0  0  0  0
   11.6815  -16.1188   24.7791 O   0  0  0  0  0  0  0  0  0  0  0  0
   16.7217  -15.2037   24.6597 O   0  0  0  0  0  0  0  0  0  0  0  0
   13.2520  -17.6632   25.2446 O   0  0  0  0  0  0  0  0  0  0  0  0
  2  1  1  1
  2  4  1  0
  3  2  1  0
  4  6  1  0
  4  5  1  6
  6  7  2  0
  8  9  1  0
  8  6  1  0
  9 10  1  1
 11 10  1  0
 12 11  2  0
 13 14  1  0
 13 12  1  0
 14 15  2  0
 15 11  1  0
 16 17  2  0
 16  9  1  0
 18 16  1  0
 19 18  1  0
 20 21  1  0
 19 20  1  1
 21 22  2  0
 23 19  1  0
 23 24  1  0
 25 21  1  0
 26 23  2  0
M  END
$$$$
