THD.pdb
     RDKit          3D

 26 26  0  0  1  0  0  0  0  0999 V2000
    8.6952  -17.3831   12.5942 C   0  0  0  0  0  0  0  0  0  0  0  0
    9.0227  -16.9836   13.9965 C   0  0  1  0  0  0  0  0  0  0  0  0
   10.0566  -17.7863   14.4606 O   0  0  0  0  0  0  0  0  0  0  0  0
    9.5052  -15.5387   14.1115 C   0  0  2  0  0  0  0  0  0  0  0  0
   10.6486  -15.3835   13.2588 N   0  0  0  0  0  0  0  0  0  0  0  0
    9.8047  -15.1954   15.5430 C   0  0  0  0  0  0  0  0  0  0  0  0
   10.9462  -15.4487   15.9411 O   0  0  0  0  0  0  0  0  0  0  0  0
    8.8530  -14.6204   16.3889 N   0  0  0  0  0  0  0  0  0  0  0  0
    8.9925  -14.2514   17.7477 C   0  0  1  0  0  0  0  0  0  0  0  0
    7.8079  -13.5377   18.3813 C   0  0  0  0  0  0  0  0  0  0  0  0
    8.0076  -13.2972   19.8238 C   0  0  0  0  0  0  0  0  0  0  0  0
    9.1014  -13.6223   20.5898 C   0  0  0  0  0  0  0  0  0  0  0  0
    8.8556  -13.2746   21.8874 N   0  0  0  0  0  0  0  0  0  0  0  0
    7.6191  -12.7417   21.9070 C   0  0  0  0  0  0  0  0  0  0  0  0
    7.1122  -12.7577   20.6592 N   0  0  0  0  0  0  0  0  0  0  0  0
    9.6340  -15.2425   18.6199 C   0  0  0  0  0  0  0  0  0  0  0  0
    9.3084  -16.4747   18.4536 O   0  0  0  0  0  0  0  0  0  0  0  0
   10.5706  -14.9560   19.6166 N   0  0  0  0  0  0  0  0  0  0  0  0
   11.3047  -15.9757   20.3899 C   0  0  1  0  0  0  0  0  0  0  0  0
   12.7325  -15.5455   20.5830 C   0  0  0  0  0  0  0  0  0  0  0  0
   13.5119  -16.5517   21.3310 C   0  0  0  0  0  0  0  0  0  0  0  0
   13.3358  -17.7952   21.2923 O   0  0  0  0  0  0  0  0  0  0  0  0
   10.6462  -16.0274   21.7161 C   0  0  0  0  0  0  0  0  0  0  0  0
   11.0501  -17.0226   22.6195 O   0  0  0  0  0  0  0  0  0  0  0  0
   14.5652  -16.1597   22.1863 O   0  0  0  0  0  0  0  0  0  0  0  0
    9.7512  -15.2557   22.1105 O   0  0  0  0  0  0  0  0  0  0  0  0
  2  1  1  6
  2  4  1  0
  3  2  1  0
  4  6  1  0
  4  5  1  6
  6  7  2  0
  8  9  1  0
  8  6  1  0
  9 10  1  1
 11 10  1  0
 12 11  2  0
 13 14  1  0
 13 12  1  0
 14 15  2  0
 15 11  1  0
 16 17  2  0
 16  9  1  0
 18 16  1  0
 19 18  1  0
 20 21  1  0
 19 20  1  1
 21 22  2  0
 23 19  1  0
 23 24  1  0
 25 21  1  0
 26 23  2  0
M  END
$$$$
