THD.pdb
     RDKit          3D

 26 26  0  0  1  0  0  0  0  0999 V2000
    3.8444  -20.2422   21.5203 C   0  0  0  0  0  0  0  0  0  0  0  0
    5.1140  -19.4744   21.3410 C   0  0  1  0  0  0  0  0  0  0  0  0
    6.1596  -20.2036   21.8919 O   0  0  0  0  0  0  0  0  0  0  0  0
    5.4703  -19.2384   19.8743 C   0  0  2  0  0  0  0  0  0  0  0  0
    5.5081  -20.5128   19.2163 N   0  0  0  0  0  0  0  0  0  0  0  0
    6.7702  -18.4940   19.7609 C   0  0  0  0  0  0  0  0  0  0  0  0
    7.7914  -19.1829   19.6715 O   0  0  0  0  0  0  0  0  0  0  0  0
    6.8346  -17.0984   19.7555 N   0  0  0  0  0  0  0  0  0  0  0  0
    7.9821  -16.2709   19.7307 C   0  0  1  0  0  0  0  0  0  0  0  0
    7.8087  -14.8900   19.1168 C   0  0  0  0  0  0  0  0  0  0  0  0
    9.0905  -14.1683   18.9953 C   0  0  0  0  0  0  0  0  0  0  0  0
    9.4303  -12.9544   19.5428 C   0  0  0  0  0  0  0  0  0  0  0  0
   10.6921  -12.6218   19.1399 N   0  0  0  0  0  0  0  0  0  0  0  0
   11.1141  -13.6291   18.3523 C   0  0  0  0  0  0  0  0  0  0  0  0
   10.1438  -14.5596   18.2686 N   0  0  0  0  0  0  0  0  0  0  0  0
    8.8151  -16.2916   20.9390 C   0  0  0  0  0  0  0  0  0  0  0  0
    8.2794  -15.8819   22.0331 O   0  0  0  0  0  0  0  0  0  0  0  0
   10.1436  -16.7207   20.9975 N   0  0  0  0  0  0  0  0  0  0  0  0
   10.9788  -16.6870   22.2132 C   0  0  1  0  0  0  0  0  0  0  0  0
   11.5530  -18.0507   22.4806 C   0  0  0  0  0  0  0  0  0  0  0  0
   10.5907  -18.9227   23.1828 C   0  0  0  0  0  0  0  0  0  0  0  0
    9.8590  -18.5837   24.1463 O   0  0  0  0  0  0  0  0  0  0  0  0
   12.0935  -15.7589   21.9110 C   0  0  0  0  0  0  0  0  0  0  0  0
   12.9010  -15.3232   22.9730 O   0  0  0  0  0  0  0  0  0  0  0  0
   10.4205  -20.2701   22.7950 O   0  0  0  0  0  0  0  0  0  0  0  0
   12.3854  -15.3217   20.7815 O   0  0  0  0  0  0  0  0  0  0  0  0
  2  1  1  6
  2  4  1  0
  3  2  1  0
  4  6  1  0
  4  5  1  6
  6  7  2  0
  8  9  1  0
  8  6  1  0
  9 10  1  1
 11 10  1  0
 12 11  2  0
 13 14  1  0
 13 12  1  0
 14 15  2  0
 15 11  1  0
 16 17  2  0
 16  9  1  0
 18 16  1  0
 19 18  1  0
 20 21  1  0
 19 20  1  6
 21 22  2  0
 23 19  1  0
 23 24  1  0
 25 21  1  0
 26 23  2  0
M  END
$$$$
