THD.pdb
     RDKit          3D

 26 26  0  0  1  0  0  0  0  0999 V2000
   14.2504  -15.1575   16.2565 C   0  0  0  0  0  0  0  0  0  0  0  0
   12.8214  -15.2940   16.6722 C   0  0  1  0  0  0  0  0  0  0  0  0
   12.0740  -15.7059   15.5766 O   0  0  0  0  0  0  0  0  0  0  0  0
   12.6117  -16.3419   17.7639 C   0  0  2  0  0  0  0  0  0  0  0  0
   11.6693  -17.3078   17.2766 N   0  0  0  0  0  0  0  0  0  0  0  0
   12.1597  -15.6905   19.0398 C   0  0  0  0  0  0  0  0  0  0  0  0
   13.0211  -15.0778   19.6786 O   0  0  0  0  0  0  0  0  0  0  0  0
   10.8396  -15.7659   19.4909 N   0  0  0  0  0  0  0  0  0  0  0  0
   10.3041  -15.3202   20.7225 C   0  0  1  0  0  0  0  0  0  0  0  0
    8.8497  -14.8748   20.7076 C   0  0  0  0  0  0  0  0  0  0  0  0
    8.5016  -14.1466   19.4718 C   0  0  0  0  0  0  0  0  0  0  0  0
    8.7330  -12.8241   19.1784 C   0  0  0  0  0  0  0  0  0  0  0  0
    8.2036  -12.5408   17.9518 N   0  0  0  0  0  0  0  0  0  0  0  0
    7.6542  -13.6861   17.5048 C   0  0  0  0  0  0  0  0  0  0  0  0
    7.8370  -14.6517   18.4259 N   0  0  0  0  0  0  0  0  0  0  0  0
   10.6821  -16.1001   21.9071 C   0  0  0  0  0  0  0  0  0  0  0  0
   10.1879  -15.7363   23.0364 O   0  0  0  0  0  0  0  0  0  0  0  0
   11.5355  -17.2065   21.9076 N   0  0  0  0  0  0  0  0  0  0  0  0
   12.0083  -17.8953   23.1237 C   0  0  1  0  0  0  0  0  0  0  0  0
   12.8153  -19.1070   22.7476 C   0  0  0  0  0  0  0  0  0  0  0  0
   12.3603  -20.3136   23.4665 C   0  0  0  0  0  0  0  0  0  0  0  0
   12.0437  -20.3697   24.6812 O   0  0  0  0  0  0  0  0  0  0  0  0
   12.8994  -16.9324   23.8119 C   0  0  0  0  0  0  0  0  0  0  0  0
   12.8005  -16.8166   25.2071 O   0  0  0  0  0  0  0  0  0  0  0  0
   12.2449  -21.5523   22.7979 O   0  0  0  0  0  0  0  0  0  0  0  0
   13.7432  -16.2029   23.2570 O   0  0  0  0  0  0  0  0  0  0  0  0
  2  1  1  6
  2  4  1  0
  3  2  1  0
  4  6  1  0
  4  5  1  6
  6  7  2  0
  8  9  1  0
  8  6  1  0
  9 10  1  6
 11 10  1  0
 12 11  2  0
 13 14  1  0
 13 12  1  0
 14 15  2  0
 15 11  1  0
 16 17  2  0
 16  9  1  0
 18 16  1  0
 19 18  1  0
 20 21  1  0
 19 20  1  6
 21 22  2  0
 23 19  1  0
 23 24  1  0
 25 21  1  0
 26 23  2  0
M  END
$$$$
