PVD.pdb
     RDKit          3D

 23 23  0  0  1  0  0  0  0  0999 V2000
   19.8322  -11.4073  -18.9180 N   0  0  0  0  0  0  0  0  0  0  0  0
   19.0000  -12.1262  -19.8914 C   0  0  0  0  0  0  0  0  0  0  0  0
   17.9170  -12.7940  -19.0452 C   0  0  0  0  0  0  0  0  0  0  0  0
   18.0470  -12.1516  -17.6807 C   0  0  0  0  0  0  0  0  0  0  0  0
   18.8347  -10.9016  -18.0116 C   0  0  1  0  0  0  0  0  0  0  0  0
   19.4624  -10.3447  -16.7652 C   0  0  0  0  0  0  0  0  0  0  0  0
   18.7002   -9.9026  -15.8737 O   0  0  0  0  0  0  0  0  0  0  0  0
   22.1900  -12.2399  -14.9364 C   0  0  0  0  0  0  0  0  0  0  0  0
   22.7960  -10.8886  -15.2784 C   0  0  2  0  0  0  0  0  0  0  0  0
   23.5450  -10.3725  -14.0853 C   0  0  0  0  0  0  0  0  0  0  0  0
   21.7082   -9.9162  -15.6470 C   0  0  2  0  0  0  0  0  0  0  0  0
   20.8576  -10.3604  -16.6914 N   0  0  0  0  0  0  0  0  0  0  0  0
   22.0913   -8.5176  -15.7172 C   0  0  0  0  0  0  0  0  0  0  0  0
   22.6040   -8.0462  -16.7586 O   0  0  0  0  0  0  0  0  0  0  0  0
   21.8979   -7.6263  -14.6010 N   0  0  0  0  0  0  0  0  0  0  0  0
   22.1254   -6.2154  -14.7058 C   0  0  1  0  0  0  0  0  0  0  0  0
   21.2978   -5.6168  -15.8116 C   0  0  0  0  0  0  0  0  0  0  0  0
   21.4253   -4.1618  -15.9466 C   0  0  0  0  0  0  0  0  0  0  0  0
   22.5617   -3.6401  -16.0825 O   0  0  0  0  0  0  0  0  0  0  0  0
   21.8974   -5.5021  -13.4290 C   0  0  0  0  0  0  0  0  0  0  0  0
   22.3428   -4.2132  -13.2190 O   0  0  0  0  0  0  0  0  0  0  0  0
   20.3366   -3.3139  -15.9315 O   0  0  0  0  0  0  0  0  0  0  0  0
   21.2817   -6.0864  -12.5115 O   0  0  0  0  0  0  0  0  0  0  0  0
  1  2  1  0
  2  3  1  0
  4  3  1  0
  5  1  1  0
  5  4  1  0
  5  6  1  1
  6  7  2  0
  9  8  1  1
  9 11  1  0
 10  9  1  0
 11 12  1  6
 11 13  1  0
 12  6  1  0
 13 15  1  0
 14 13  2  0
 15 16  1  0
 16 20  1  0
 16 17  1  6
 17 18  1  0
 18 22  1  0
 18 19  2  0
 20 23  2  0
 20 21  1  0
M  END
$$$$
