PVD.pdb
     RDKit          3D

 23 23  0  0  1  0  0  0  0  0999 V2000
   20.3003  -14.5903  -18.5189 N   0  0  0  0  0  0  0  0  0  0  0  0
   19.6004  -15.7067  -19.1676 C   0  0  0  0  0  0  0  0  0  0  0  0
   19.0032  -16.5046  -18.0093 C   0  0  0  0  0  0  0  0  0  0  0  0
   19.1610  -15.6043  -16.8027 C   0  0  0  0  0  0  0  0  0  0  0  0
   19.3835  -14.2585  -17.4598 C   0  0  1  0  0  0  0  0  0  0  0  0
   20.0050  -13.3043  -16.4795 C   0  0  0  0  0  0  0  0  0  0  0  0
   19.3601  -13.0311  -15.4400 O   0  0  0  0  0  0  0  0  0  0  0  0
   23.6871  -13.5613  -15.3855 C   0  0  0  0  0  0  0  0  0  0  0  0
   23.5147  -12.1915  -16.0214 C   0  0  2  0  0  0  0  0  0  0  0  0
   24.2290  -11.1709  -15.1853 C   0  0  0  0  0  0  0  0  0  0  0  0
   22.0530  -11.8418  -16.0998 C   0  0  2  0  0  0  0  0  0  0  0  0
   21.2632  -12.7886  -16.8008 N   0  0  0  0  0  0  0  0  0  0  0  0
   21.7374  -10.4517  -16.3751 C   0  0  0  0  0  0  0  0  0  0  0  0
   21.5767  -10.0531  -17.5519 O   0  0  0  0  0  0  0  0  0  0  0  0
   21.5981   -9.4861  -15.3140 N   0  0  0  0  0  0  0  0  0  0  0  0
   21.1082   -8.1605  -15.5512 C   0  0  1  0  0  0  0  0  0  0  0  0
   19.7692   -8.1958  -16.2382 C   0  0  0  0  0  0  0  0  0  0  0  0
   19.1869   -6.8757  -16.5023 C   0  0  0  0  0  0  0  0  0  0  0  0
   19.9299   -5.8633  -16.5727 O   0  0  0  0  0  0  0  0  0  0  0  0
   21.0490   -7.3427  -14.3188 C   0  0  0  0  0  0  0  0  0  0  0  0
   20.7936   -5.9872  -14.3493 O   0  0  0  0  0  0  0  0  0  0  0  0
   17.8324   -6.6813  -16.6818 O   0  0  0  0  0  0  0  0  0  0  0  0
   21.2366   -7.8982  -13.2149 O   0  0  0  0  0  0  0  0  0  0  0  0
  1  2  1  0
  2  3  1  0
  4  3  1  0
  5  1  1  0
  5  4  1  0
  5  6  1  1
  6  7  2  0
  9  8  1  1
  9 11  1  0
 10  9  1  0
 11 12  1  6
 11 13  1  0
 12  6  1  0
 13 15  1  0
 14 13  2  0
 15 16  1  0
 16 20  1  0
 16 17  1  1
 17 18  1  0
 18 22  1  0
 18 19  2  0
 20 23  2  0
 20 21  1  0
M  END
$$$$
