PVD.pdb
     RDKit          3D

 23 23  0  0  1  0  0  0  0  0999 V2000
   25.7715  -17.9505  -17.9635 N   0  0  0  0  0  0  0  0  0  0  0  0
   27.1498  -18.0570  -18.4595 C   0  0  0  0  0  0  0  0  0  0  0  0
   27.8565  -16.8312  -17.8826 C   0  0  0  0  0  0  0  0  0  0  0  0
   26.8923  -16.2826  -16.8527 C   0  0  0  0  0  0  0  0  0  0  0  0
   25.9893  -17.4759  -16.6220 C   0  0  1  0  0  0  0  0  0  0  0  0
   24.7030  -17.0315  -15.9851 C   0  0  0  0  0  0  0  0  0  0  0  0
   24.7603  -16.5359  -14.8352 O   0  0  0  0  0  0  0  0  0  0  0  0
   22.2760  -14.6493  -17.4677 C   0  0  0  0  0  0  0  0  0  0  0  0
   21.5124  -15.9595  -17.3643 C   0  0  2  0  0  0  0  0  0  0  0  0
   20.1157  -15.6757  -16.8954 C   0  0  0  0  0  0  0  0  0  0  0  0
   22.1942  -16.8756  -16.3841 C   0  0  2  0  0  0  0  0  0  0  0  0
   23.5309  -17.2047  -16.7256 N   0  0  0  0  0  0  0  0  0  0  0  0
   21.3997  -17.9778  -15.8729 C   0  0  0  0  0  0  0  0  0  0  0  0
   21.1377  -18.9669  -16.5959 O   0  0  0  0  0  0  0  0  0  0  0  0
   20.8867  -17.9759  -14.5259 N   0  0  0  0  0  0  0  0  0  0  0  0
   20.1139  -19.0643  -14.0046 C   0  0  1  0  0  0  0  0  0  0  0  0
   20.5125  -19.3778  -12.5872 C   0  0  0  0  0  0  0  0  0  0  0  0
   19.7648  -20.4818  -11.9758 C   0  0  0  0  0  0  0  0  0  0  0  0
   18.8666  -21.0711  -12.6299 O   0  0  0  0  0  0  0  0  0  0  0  0
   18.6556  -18.8309  -14.1047 C   0  0  0  0  0  0  0  0  0  0  0  0
   17.7875  -19.7996  -14.5647 O   0  0  0  0  0  0  0  0  0  0  0  0
   20.0009  -20.9184  -10.6882 O   0  0  0  0  0  0  0  0  0  0  0  0
   18.1960  -17.7203  -13.7615 O   0  0  0  0  0  0  0  0  0  0  0  0
  1  2  1  0
  2  3  1  0
  4  3  1  0
  5  1  1  0
  5  4  1  0
  5  6  1  6
  6  7  2  0
  9  8  1  1
  9 11  1  0
 10  9  1  0
 11 12  1  6
 11 13  1  0
 12  6  1  0
 13 15  1  0
 14 13  2  0
 15 16  1  0
 16 20  1  0
 16 17  1  1
 17 18  1  0
 18 22  1  0
 18 19  2  0
 20 23  2  0
 20 21  1  0
M  END
$$$$
