PVD.pdb
     RDKit          3D

 23 23  0  0  1  0  0  0  0  0999 V2000
   21.6926  -10.8354  -19.0577 N   0  0  0  0  0  0  0  0  0  0  0  0
   21.3894  -11.6173  -20.2634 C   0  0  0  0  0  0  0  0  0  0  0  0
   20.0311  -12.2535  -19.9716 C   0  0  0  0  0  0  0  0  0  0  0  0
   19.5300  -11.5367  -18.7361 C   0  0  0  0  0  0  0  0  0  0  0  0
   20.3972  -10.2955  -18.7372 C   0  0  1  0  0  0  0  0  0  0  0  0
   20.3918   -9.6635  -17.3740 C   0  0  0  0  0  0  0  0  0  0  0  0
   19.3123   -9.1820  -16.9568 O   0  0  0  0  0  0  0  0  0  0  0  0
   22.0301  -11.4248  -14.4368 C   0  0  0  0  0  0  0  0  0  0  0  0
   22.6929  -10.0587  -14.5062 C   0  0  2  0  0  0  0  0  0  0  0  0
   22.7795   -9.4863  -13.1221 C   0  0  0  0  0  0  0  0  0  0  0  0
   21.8832   -9.1387  -15.3797 C   0  0  2  0  0  0  0  0  0  0  0  0
   21.5974   -9.6587  -16.6679 N   0  0  0  0  0  0  0  0  0  0  0  0
   22.2498   -7.7343  -15.3497 C   0  0  0  0  0  0  0  0  0  0  0  0
   23.2652   -7.3249  -15.9589 O   0  0  0  0  0  0  0  0  0  0  0  0
   21.4661   -6.7661  -14.6242 N   0  0  0  0  0  0  0  0  0  0  0  0
   21.7177   -5.3586  -14.7192 C   0  0  1  0  0  0  0  0  0  0  0  0
   21.7380   -4.9107  -16.1562 C   0  0  0  0  0  0  0  0  0  0  0  0
   22.0342   -3.4865  -16.3446 C   0  0  0  0  0  0  0  0  0  0  0  0
   23.0415   -2.9752  -15.7914 O   0  0  0  0  0  0  0  0  0  0  0  0
   20.7628   -4.5514  -13.9270 C   0  0  0  0  0  0  0  0  0  0  0  0
   20.9672   -3.2101  -13.6766 O   0  0  0  0  0  0  0  0  0  0  0  0
   21.2457   -2.6572  -17.1160 O   0  0  0  0  0  0  0  0  0  0  0  0
   19.7384   -5.1029  -13.4701 O   0  0  0  0  0  0  0  0  0  0  0  0
  1  2  1  0
  2  3  1  0
  4  3  1  0
  5  1  1  0
  5  4  1  0
  5  6  1  1
  6  7  2  0
  9  8  1  1
  9 11  1  0
 10  9  1  0
 11 12  1  6
 11 13  1  0
 12  6  1  0
 13 15  1  0
 14 13  2  0
 15 16  1  0
 16 20  1  0
 16 17  1  6
 17 18  1  0
 18 22  1  0
 18 19  2  0
 20 23  2  0
 20 21  1  0
M  END
$$$$
