PVD.pdb
     RDKit          3D

 23 23  0  0  1  0  0  0  0  0999 V2000
   18.0144  -12.6922  -16.9186 N   0  0  0  0  0  0  0  0  0  0  0  0
   17.0648  -12.8846  -18.0224 C   0  0  0  0  0  0  0  0  0  0  0  0
   16.6269  -11.4694  -18.3973 C   0  0  0  0  0  0  0  0  0  0  0  0
   17.5969  -10.5631  -17.6699 C   0  0  0  0  0  0  0  0  0  0  0  0
   18.7271  -11.5216  -17.3590 C   0  0  1  0  0  0  0  0  0  0  0  0
   19.5881  -10.9623  -16.2619 C   0  0  0  0  0  0  0  0  0  0  0  0
   19.1440  -11.0051  -15.0905 O   0  0  0  0  0  0  0  0  0  0  0  0
   23.0863  -11.7115  -15.2728 C   0  0  0  0  0  0  0  0  0  0  0  0
   23.1424  -10.2951  -15.8213 C   0  0  2  0  0  0  0  0  0  0  0  0
   24.0250   -9.4633  -14.9380 C   0  0  0  0  0  0  0  0  0  0  0  0
   21.7601   -9.7008  -15.8518 C   0  0  2  0  0  0  0  0  0  0  0  0
   20.8274  -10.4325  -16.6303 N   0  0  0  0  0  0  0  0  0  0  0  0
   21.6825   -8.2580  -15.9925 C   0  0  0  0  0  0  0  0  0  0  0  0
   21.7103   -7.7232  -17.1251 O   0  0  0  0  0  0  0  0  0  0  0  0
   21.5714   -7.3936  -14.8443 N   0  0  0  0  0  0  0  0  0  0  0  0
   21.4594   -5.9707  -14.9713 C   0  0  1  0  0  0  0  0  0  0  0  0
   20.0258   -5.5591  -15.1747 C   0  0  0  0  0  0  0  0  0  0  0  0
   19.8313   -4.1214  -15.3913 C   0  0  0  0  0  0  0  0  0  0  0  0
   19.3734   -3.4025  -14.4664 O   0  0  0  0  0  0  0  0  0  0  0  0
   22.0613   -5.2448  -13.8303 C   0  0  0  0  0  0  0  0  0  0  0  0
   22.4681   -3.9301  -13.9295 O   0  0  0  0  0  0  0  0  0  0  0  0
   20.1316   -3.5008  -16.5868 O   0  0  0  0  0  0  0  0  0  0  0  0
   22.2058   -5.8422  -12.7420 O   0  0  0  0  0  0  0  0  0  0  0  0
  1  2  1  0
  2  3  1  0
  4  3  1  0
  5  1  1  0
  5  4  1  0
  5  6  1  1
  6  7  2  0
  9  8  1  1
  9 11  1  0
 10  9  1  0
 11 12  1  6
 11 13  1  0
 12  6  1  0
 13 15  1  0
 14 13  2  0
 15 16  1  0
 16 20  1  0
 16 17  1  1
 17 18  1  0
 18 22  1  0
 18 19  2  0
 20 23  2  0
 20 21  1  0
M  END
$$$$
