PVD.pdb
     RDKit          3D

 23 23  0  0  1  0  0  0  0  0999 V2000
   28.0513  -21.2367  -16.1677 N   0  0  0  0  0  0  0  0  0  0  0  0
   28.7987  -20.3093  -17.0270 C   0  0  0  0  0  0  0  0  0  0  0  0
   27.9499  -19.0388  -17.0426 C   0  0  0  0  0  0  0  0  0  0  0  0
   26.9315  -19.2451  -15.9418 C   0  0  0  0  0  0  0  0  0  0  0  0
   27.5810  -20.3500  -15.1358 C   0  0  1  0  0  0  0  0  0  0  0  0
   26.5567  -21.0212  -14.2651 C   0  0  0  0  0  0  0  0  0  0  0  0
   25.9557  -22.0177  -14.7308 O   0  0  0  0  0  0  0  0  0  0  0  0
   26.8609  -21.2193  -10.2647 C   0  0  0  0  0  0  0  0  0  0  0  0
   25.6161  -20.4365  -10.6490 C   0  0  2  0  0  0  0  0  0  0  0  0
   24.4750  -20.8745   -9.7789 C   0  0  0  0  0  0  0  0  0  0  0  0
   25.2734  -20.6924  -12.0920 C   0  0  2  0  0  0  0  0  0  0  0  0
   26.3482  -20.4819  -12.9931 N   0  0  0  0  0  0  0  0  0  0  0  0
   23.9846  -20.2008  -12.5447 C   0  0  0  0  0  0  0  0  0  0  0  0
   23.7935  -18.9754  -12.7218 O   0  0  0  0  0  0  0  0  0  0  0  0
   22.8857  -21.0965  -12.8054 N   0  0  0  0  0  0  0  0  0  0  0  0
   21.6449  -20.6380  -13.3565 C   0  0  1  0  0  0  0  0  0  0  0  0
   21.5966  -20.8712  -14.8428 C   0  0  0  0  0  0  0  0  0  0  0  0
   20.3496  -20.4420  -15.4850 C   0  0  0  0  0  0  0  0  0  0  0  0
   19.7725  -19.3930  -15.0995 O   0  0  0  0  0  0  0  0  0  0  0  0
   20.4664  -21.2350  -12.6888 C   0  0  0  0  0  0  0  0  0  0  0  0
   19.3030  -20.5233  -12.4795 O   0  0  0  0  0  0  0  0  0  0  0  0
   19.7614  -21.1466  -16.5155 O   0  0  0  0  0  0  0  0  0  0  0  0
   20.5273  -22.4220  -12.3021 O   0  0  0  0  0  0  0  0  0  0  0  0
  1  2  1  0
  2  3  1  0
  4  3  1  0
  5  1  1  0
  5  4  1  0
  5  6  1  1
  6  7  2  0
  9  8  1  1
  9 11  1  0
 10  9  1  0
 11 12  1  6
 11 13  1  0
 12  6  1  0
 13 15  1  0
 14 13  2  0
 15 16  1  0
 16 20  1  0
 16 17  1  6
 17 18  1  0
 18 22  1  0
 18 19  2  0
 20 23  2  0
 20 21  1  0
M  END
$$$$
