PVD.pdb
     RDKit          3D

 23 23  0  0  1  0  0  0  0  0999 V2000
   30.5155  -10.8725  -19.5477 N   0  0  0  0  0  0  0  0  0  0  0  0
   29.4560  -11.5896  -20.2688 C   0  0  0  0  0  0  0  0  0  0  0  0
   28.3183  -11.7051  -19.2553 C   0  0  0  0  0  0  0  0  0  0  0  0
   28.7131  -10.7744  -18.1287 C   0  0  0  0  0  0  0  0  0  0  0  0
   29.7492   -9.9040  -18.8081 C   0  0  1  0  0  0  0  0  0  0  0  0
   30.5948   -9.2116  -17.7770 C   0  0  0  0  0  0  0  0  0  0  0  0
   30.0135   -8.4926  -16.9307 O   0  0  0  0  0  0  0  0  0  0  0  0
   34.8510  -10.1924  -18.0756 C   0  0  0  0  0  0  0  0  0  0  0  0
   34.0828  -10.0886  -16.7682 C   0  0  2  0  0  0  0  0  0  0  0  0
   33.4925  -11.4283  -16.4402 C   0  0  0  0  0  0  0  0  0  0  0  0
   32.9798   -9.0731  -16.8996 C   0  0  2  0  0  0  0  0  0  0  0  0
   31.9749   -9.4212  -17.8379 N   0  0  0  0  0  0  0  0  0  0  0  0
   33.3867   -7.6797  -16.9211 C   0  0  0  0  0  0  0  0  0  0  0  0
   33.6603   -7.1096  -18.0027 O   0  0  0  0  0  0  0  0  0  0  0  0
   33.4903   -6.9060  -15.7093 N   0  0  0  0  0  0  0  0  0  0  0  0
   33.8332   -5.5147  -15.7219 C   0  0  1  0  0  0  0  0  0  0  0  0
   32.6872   -4.6729  -15.2279 C   0  0  0  0  0  0  0  0  0  0  0  0
   32.9461   -3.2291  -15.2363 C   0  0  0  0  0  0  0  0  0  0  0  0
   34.0374   -2.7886  -15.6801 O   0  0  0  0  0  0  0  0  0  0  0  0
   35.0699   -5.2227  -14.9626 C   0  0  0  0  0  0  0  0  0  0  0  0
   35.9029   -4.1736  -15.2927 O   0  0  0  0  0  0  0  0  0  0  0  0
   32.0322   -2.3056  -14.7709 O   0  0  0  0  0  0  0  0  0  0  0  0
   35.3690   -5.9502  -13.9913 O   0  0  0  0  0  0  0  0  0  0  0  0
  1  2  1  0
  2  3  1  0
  4  3  1  0
  5  1  1  0
  5  4  1  0
  5  6  1  1
  6  7  2  0
  9  8  1  6
  9 11  1  0
 10  9  1  0
 11 12  1  6
 11 13  1  0
 12  6  1  0
 13 15  1  0
 14 13  2  0
 15 16  1  0
 16 20  1  0
 16 17  1  1
 17 18  1  0
 18 22  1  0
 18 19  2  0
 20 23  2  0
 20 21  1  0
M  END
$$$$
