PVD.pdb
     RDKit          3D

 23 23  0  0  1  0  0  0  0  0999 V2000
   19.6531  -11.6746  -18.4562 N   0  0  0  0  0  0  0  0  0  0  0  0
   18.8287  -12.5725  -19.2754 C   0  0  0  0  0  0  0  0  0  0  0  0
   18.0865  -13.4392  -18.2590 C   0  0  0  0  0  0  0  0  0  0  0  0
   18.3248  -12.7579  -16.9284 C   0  0  0  0  0  0  0  0  0  0  0  0
   18.7543  -11.3755  -17.3721 C   0  0  1  0  0  0  0  0  0  0  0  0
   19.4670  -10.6740  -16.2506 C   0  0  0  0  0  0  0  0  0  0  0  0
   18.8181  -10.4324  -15.2057 O   0  0  0  0  0  0  0  0  0  0  0  0
   22.8883  -11.7565  -14.8923 C   0  0  0  0  0  0  0  0  0  0  0  0
   23.0571  -10.3604  -15.4691 C   0  0  2  0  0  0  0  0  0  0  0  0
   23.9423   -9.5596  -14.5601 C   0  0  0  0  0  0  0  0  0  0  0  0
   21.7163   -9.6868  -15.5847 C   0  0  2  0  0  0  0  0  0  0  0  0
   20.8081  -10.3404  -16.4563 N   0  0  0  0  0  0  0  0  0  0  0  0
   21.7297   -8.2384  -15.6823 C   0  0  0  0  0  0  0  0  0  0  0  0
   22.0969   -7.6715  -16.7375 O   0  0  0  0  0  0  0  0  0  0  0  0
   21.3243   -7.4049  -14.5783 N   0  0  0  0  0  0  0  0  0  0  0  0
   21.3643   -5.9742  -14.6505 C   0  0  1  0  0  0  0  0  0  0  0  0
   19.9780   -5.4024  -14.7811 C   0  0  0  0  0  0  0  0  0  0  0  0
   19.9324   -3.9413  -14.9022 C   0  0  0  0  0  0  0  0  0  0  0  0
   20.9841   -3.2657  -14.7627 O   0  0  0  0  0  0  0  0  0  0  0  0
   22.0833   -5.3632  -13.5099 C   0  0  0  0  0  0  0  0  0  0  0  0
   22.6933   -4.1292  -13.6034 O   0  0  0  0  0  0  0  0  0  0  0  0
   18.7668   -3.2517  -15.1675 O   0  0  0  0  0  0  0  0  0  0  0  0
   22.1397   -5.9854  -12.4273 O   0  0  0  0  0  0  0  0  0  0  0  0
  1  2  1  0
  2  3  1  0
  4  3  1  0
  5  1  1  0
  5  4  1  0
  5  6  1  1
  6  7  2  0
  9  8  1  1
  9 11  1  0
 10  9  1  0
 11 12  1  6
 11 13  1  0
 12  6  1  0
 13 15  1  0
 14 13  2  0
 15 16  1  0
 16 20  1  0
 16 17  1  1
 17 18  1  0
 18 22  1  0
 18 19  2  0
 20 23  2  0
 20 21  1  0
M  END
$$$$
