PVD.pdb
     RDKit          3D

 23 23  0  0  1  0  0  0  0  0999 V2000
   27.5012  -19.9655  -15.5568 N   0  0  0  0  0  0  0  0  0  0  0  0
   28.6205  -19.8334  -16.4983 C   0  0  0  0  0  0  0  0  0  0  0  0
   29.4976  -21.0530  -16.2186 C   0  0  0  0  0  0  0  0  0  0  0  0
   28.6454  -21.9444  -15.3408 C   0  0  0  0  0  0  0  0  0  0  0  0
   27.2624  -21.3845  -15.5982 C   0  0  1  0  0  0  0  0  0  0  0  0
   26.3235  -21.8117  -14.5055 C   0  0  0  0  0  0  0  0  0  0  0  0
   25.9941  -23.0201  -14.4566 O   0  0  0  0  0  0  0  0  0  0  0  0
   26.8172  -21.2655  -10.8633 C   0  0  0  0  0  0  0  0  0  0  0  0
   25.5778  -20.4570  -11.2104 C   0  0  2  0  0  0  0  0  0  0  0  0
   24.5607  -20.6291  -10.1209 C   0  0  0  0  0  0  0  0  0  0  0  0
   25.0008  -20.9359  -12.5153 C   0  0  2  0  0  0  0  0  0  0  0  0
   25.8839  -20.8247  -13.6196 N   0  0  0  0  0  0  0  0  0  0  0  0
   23.6247  -20.5615  -12.7869 C   0  0  0  0  0  0  0  0  0  0  0  0
   23.3214  -19.3700  -13.0279 O   0  0  0  0  0  0  0  0  0  0  0  0
   22.5645  -21.5381  -12.7897 N   0  0  0  0  0  0  0  0  0  0  0  0
   21.2079  -21.1874  -13.0897 C   0  0  1  0  0  0  0  0  0  0  0  0
   20.5008  -22.3182  -13.7877 C   0  0  0  0  0  0  0  0  0  0  0  0
   20.3539  -22.1410  -15.2364 C   0  0  0  0  0  0  0  0  0  0  0  0
   20.7726  -21.0905  -15.7870 O   0  0  0  0  0  0  0  0  0  0  0  0
   20.4523  -20.7481  -11.8951 C   0  0  0  0  0  0  0  0  0  0  0  0
   19.4719  -19.7796  -11.9623 O   0  0  0  0  0  0  0  0  0  0  0  0
   19.7653  -23.0901  -16.0471 O   0  0  0  0  0  0  0  0  0  0  0  0
   20.7109  -21.2714  -10.7899 O   0  0  0  0  0  0  0  0  0  0  0  0
  1  2  1  0
  2  3  1  0
  4  3  1  0
  5  1  1  0
  5  4  1  0
  5  6  1  1
  6  7  2  0
  9  8  1  1
  9 11  1  0
 10  9  1  0
 11 12  1  6
 11 13  1  0
 12  6  1  0
 13 15  1  0
 14 13  2  0
 15 16  1  0
 16 20  1  0
 16 17  1  1
 17 18  1  0
 18 22  1  0
 18 19  2  0
 20 23  2  0
 20 21  1  0
M  END
$$$$
