PVD.pdb
     RDKit          3D

 23 23  0  0  1  0  0  0  0  0999 V2000
   19.5748  -12.2981  -18.4512 N   0  0  0  0  0  0  0  0  0  0  0  0
   18.7051  -13.2080  -19.2079 C   0  0  0  0  0  0  0  0  0  0  0  0
   17.9848  -14.0240  -18.1353 C   0  0  0  0  0  0  0  0  0  0  0  0
   18.2837  -13.3013  -16.8393 C   0  0  0  0  0  0  0  0  0  0  0  0
   18.7218  -11.9439  -17.3471 C   0  0  1  0  0  0  0  0  0  0  0  0
   19.4874  -11.2175  -16.2775 C   0  0  0  0  0  0  0  0  0  0  0  0
   18.8770  -10.9123  -15.2261 O   0  0  0  0  0  0  0  0  0  0  0  0
   22.7267  -12.4348  -14.9247 C   0  0  0  0  0  0  0  0  0  0  0  0
   23.0537  -11.0658  -15.4985 C   0  0  2  0  0  0  0  0  0  0  0  0
   23.9384  -10.3305  -14.5354 C   0  0  0  0  0  0  0  0  0  0  0  0
   21.7865  -10.2830  -15.7137 C   0  0  2  0  0  0  0  0  0  0  0  0
   20.8310  -10.9337  -16.5353 N   0  0  0  0  0  0  0  0  0  0  0  0
   21.9422   -8.8604  -15.9579 C   0  0  0  0  0  0  0  0  0  0  0  0
   22.0608   -8.4207  -17.1251 O   0  0  0  0  0  0  0  0  0  0  0  0
   21.9657   -7.9081  -14.8760 N   0  0  0  0  0  0  0  0  0  0  0  0
   21.9659   -6.4939  -15.1072 C   0  0  1  0  0  0  0  0  0  0  0  0
   20.7621   -6.0791  -15.9101 C   0  0  0  0  0  0  0  0  0  0  0  0
   20.6298   -4.6309  -16.1025 C   0  0  0  0  0  0  0  0  0  0  0  0
   21.6578   -3.9144  -16.2104 O   0  0  0  0  0  0  0  0  0  0  0  0
   22.0633   -5.7091  -13.8559 C   0  0  0  0  0  0  0  0  0  0  0  0
   22.2154   -4.3378  -13.8599 O   0  0  0  0  0  0  0  0  0  0  0  0
   19.4057   -3.9975  -16.1728 O   0  0  0  0  0  0  0  0  0  0  0  0
   22.0059   -6.3081  -12.7604 O   0  0  0  0  0  0  0  0  0  0  0  0
  1  2  1  0
  2  3  1  0
  4  3  1  0
  5  1  1  0
  5  4  1  0
  5  6  1  1
  6  7  2  0
  9  8  1  1
  9 11  1  0
 10  9  1  0
 11 12  1  6
 11 13  1  0
 12  6  1  0
 13 15  1  0
 14 13  2  0
 15 16  1  0
 16 20  1  0
 16 17  1  1
 17 18  1  0
 18 22  1  0
 18 19  2  0
 20 23  2  0
 20 21  1  0
M  END
$$$$
