PVD.pdb
     RDKit          3D

 23 23  0  0  1  0  0  0  0  0999 V2000
   21.8244  -11.7772  -15.7252 N   0  0  0  0  0  0  0  0  0  0  0  0
   21.6263  -13.2009  -15.4239 C   0  0  0  0  0  0  0  0  0  0  0  0
   23.0353  -13.7346  -15.1694 C   0  0  0  0  0  0  0  0  0  0  0  0
   23.8983  -12.4966  -15.0520 C   0  0  0  0  0  0  0  0  0  0  0  0
   22.8575  -11.4299  -14.7848 C   0  0  1  0  0  0  0  0  0  0  0  0
   23.4274  -10.0708  -15.0779 C   0  0  0  0  0  0  0  0  0  0  0  0
   24.3964   -9.6810  -14.3849 O   0  0  0  0  0  0  0  0  0  0  0  0
   22.4209   -8.3640  -18.9413 C   0  0  0  0  0  0  0  0  0  0  0  0
   23.5948   -8.0243  -18.0375 C   0  0  2  0  0  0  0  0  0  0  0  0
   24.6818   -9.0370  -18.2465 C   0  0  0  0  0  0  0  0  0  0  0  0
   23.1580   -8.0471  -16.5975 C   0  0  2  0  0  0  0  0  0  0  0  0
   22.8317   -9.3373  -16.1071 N   0  0  0  0  0  0  0  0  0  0  0  0
   22.2616   -6.9843  -16.1796 C   0  0  0  0  0  0  0  0  0  0  0  0
   21.2005   -7.2461  -15.5671 O   0  0  0  0  0  0  0  0  0  0  0  0
   22.5561   -5.5996  -16.4512 N   0  0  0  0  0  0  0  0  0  0  0  0
   21.7346   -4.5356  -15.9548 C   0  0  1  0  0  0  0  0  0  0  0  0
   21.6557   -4.5721  -14.4520 C   0  0  0  0  0  0  0  0  0  0  0  0
   20.8311   -3.5127  -13.8609 C   0  0  0  0  0  0  0  0  0  0  0  0
   19.5890   -3.6736  -13.7451 O   0  0  0  0  0  0  0  0  0  0  0  0
   22.1737   -3.2040  -16.4293 C   0  0  0  0  0  0  0  0  0  0  0  0
   21.2775   -2.1943  -16.7136 O   0  0  0  0  0  0  0  0  0  0  0  0
   21.3597   -2.3187  -13.4146 O   0  0  0  0  0  0  0  0  0  0  0  0
   23.3958   -2.9875  -16.5772 O   0  0  0  0  0  0  0  0  0  0  0  0
  1  2  1  0
  2  3  1  0
  4  3  1  0
  5  1  1  0
  5  4  1  0
  5  6  1  6
  6  7  2  0
  9  8  1  6
  9 11  1  0
 10  9  1  0
 11 12  1  6
 11 13  1  0
 12  6  1  0
 13 15  1  0
 14 13  2  0
 15 16  1  0
 16 20  1  0
 16 17  1  1
 17 18  1  0
 18 22  1  0
 18 19  2  0
 20 23  2  0
 20 21  1  0
M  END
$$$$
