PVD.pdb
     RDKit          3D

 23 23  0  0  1  0  0  0  0  0999 V2000
   20.9728  -11.2927  -19.0500 N   0  0  0  0  0  0  0  0  0  0  0  0
   20.5412  -12.1667  -20.1485 C   0  0  0  0  0  0  0  0  0  0  0  0
   19.5898  -13.1640  -19.4888 C   0  0  0  0  0  0  0  0  0  0  0  0
   19.3229  -12.5872  -18.1150 C   0  0  0  0  0  0  0  0  0  0  0  0
   19.7486  -11.1469  -18.3067 C   0  0  1  0  0  0  0  0  0  0  0  0
   19.9945  -10.5016  -16.9721 C   0  0  0  0  0  0  0  0  0  0  0  0
   19.0231  -10.3921  -16.1876 O   0  0  0  0  0  0  0  0  0  0  0  0
   24.1829  -10.1118  -15.7637 C   0  0  0  0  0  0  0  0  0  0  0  0
   22.9441  -10.1744  -14.8852 C   0  0  2  0  0  0  0  0  0  0  0  0
   22.5570  -11.6104  -14.6876 C   0  0  0  0  0  0  0  0  0  0  0  0
   21.8101   -9.4351  -15.5427 C   0  0  2  0  0  0  0  0  0  0  0  0
   21.2952  -10.0684  -16.7025 N   0  0  0  0  0  0  0  0  0  0  0  0
   21.9515   -7.9934  -15.6392 C   0  0  0  0  0  0  0  0  0  0  0  0
   22.5855   -7.4748  -16.5872 O   0  0  0  0  0  0  0  0  0  0  0  0
   21.3726   -7.1119  -14.6566 N   0  0  0  0  0  0  0  0  0  0  0  0
   21.5602   -5.6920  -14.7039 C   0  0  1  0  0  0  0  0  0  0  0  0
   20.2414   -4.9785  -14.8370 C   0  0  0  0  0  0  0  0  0  0  0  0
   19.5386   -5.2313  -16.0994 C   0  0  0  0  0  0  0  0  0  0  0  0
   20.1376   -5.0766  -17.1945 O   0  0  0  0  0  0  0  0  0  0  0  0
   22.3261   -5.1767  -13.5468 C   0  0  0  0  0  0  0  0  0  0  0  0
   22.8237   -3.8903  -13.5107 O   0  0  0  0  0  0  0  0  0  0  0  0
   18.2213   -5.6397  -16.1499 O   0  0  0  0  0  0  0  0  0  0  0  0
   22.5286   -5.9313  -12.5712 O   0  0  0  0  0  0  0  0  0  0  0  0
  1  2  1  0
  2  3  1  0
  4  3  1  0
  5  1  1  0
  5  4  1  0
  5  6  1  1
  6  7  2  0
  9  8  1  6
  9 11  1  0
 10  9  1  0
 11 12  1  6
 11 13  1  0
 12  6  1  0
 13 15  1  0
 14 13  2  0
 15 16  1  0
 16 20  1  0
 16 17  1  1
 17 18  1  0
 18 22  1  0
 18 19  2  0
 20 23  2  0
 20 21  1  0
M  END
$$$$
