PVD.pdb
     RDKit          3D

 23 23  0  0  1  0  0  0  0  0999 V2000
   28.2670  -21.4656  -15.8896 N   0  0  0  0  0  0  0  0  0  0  0  0
   29.0682  -20.5799  -16.7443 C   0  0  0  0  0  0  0  0  0  0  0  0
   28.2409  -19.2992  -16.8450 C   0  0  0  0  0  0  0  0  0  0  0  0
   27.1687  -19.4518  -15.7874 C   0  0  0  0  0  0  0  0  0  0  0  0
   27.7623  -20.5361  -14.9131 C   0  0  1  0  0  0  0  0  0  0  0  0
   26.6879  -21.1614  -14.0691 C   0  0  0  0  0  0  0  0  0  0  0  0
   26.1536  -22.2149  -14.4885 O   0  0  0  0  0  0  0  0  0  0  0  0
   26.7373  -21.2311  -10.0645 C   0  0  0  0  0  0  0  0  0  0  0  0
   25.5488  -20.4212  -10.5563 C   0  0  2  0  0  0  0  0  0  0  0  0
   24.3477  -20.7605   -9.7237 C   0  0  0  0  0  0  0  0  0  0  0  0
   25.2673  -20.7460  -11.9986 C   0  0  2  0  0  0  0  0  0  0  0  0
   26.3614  -20.5188  -12.8721 N   0  0  0  0  0  0  0  0  0  0  0  0
   23.9735  -20.3324  -12.5112 C   0  0  0  0  0  0  0  0  0  0  0  0
   23.6735  -19.1184  -12.5864 O   0  0  0  0  0  0  0  0  0  0  0  0
   22.9938  -21.2947  -12.9492 N   0  0  0  0  0  0  0  0  0  0  0  0
   21.7153  -20.8993  -13.4617 C   0  0  1  0  0  0  0  0  0  0  0  0
   21.3963  -21.6319  -14.7374 C   0  0  0  0  0  0  0  0  0  0  0  0
   20.1289  -21.2392  -15.3629 C   0  0  0  0  0  0  0  0  0  0  0  0
   19.4984  -20.2396  -14.9323 O   0  0  0  0  0  0  0  0  0  0  0  0
   20.6265  -21.0616  -12.4720 C   0  0  0  0  0  0  0  0  0  0  0  0
   20.5531  -22.1559  -11.6350 O   0  0  0  0  0  0  0  0  0  0  0  0
   19.5780  -21.9263  -16.4253 O   0  0  0  0  0  0  0  0  0  0  0  0
   19.7453  -20.1788  -12.3923 O   0  0  0  0  0  0  0  0  0  0  0  0
  1  2  1  0
  2  3  1  0
  4  3  1  0
  5  1  1  0
  5  4  1  0
  5  6  1  1
  6  7  2  0
  9  8  1  1
  9 11  1  0
 10  9  1  0
 11 12  1  6
 11 13  1  0
 12  6  1  0
 13 15  1  0
 14 13  2  0
 15 16  1  0
 16 20  1  0
 16 17  1  6
 17 18  1  0
 18 22  1  0
 18 19  2  0
 20 23  2  0
 20 21  1  0
M  END
$$$$
