PVD.pdb
     RDKit          3D

 23 23  0  0  1  0  0  0  0  0999 V2000
   19.7648  -11.8501  -19.5380 N   0  0  0  0  0  0  0  0  0  0  0  0
   19.7407  -11.8386  -21.0063 C   0  0  0  0  0  0  0  0  0  0  0  0
   19.7561  -10.3557  -21.3746 C   0  0  0  0  0  0  0  0  0  0  0  0
   20.0925   -9.6436  -20.0819 C   0  0  0  0  0  0  0  0  0  0  0  0
   20.6789  -10.7729  -19.2614 C   0  0  1  0  0  0  0  0  0  0  0  0
   20.6676  -10.4087  -17.8036 C   0  0  0  0  0  0  0  0  0  0  0  0
   19.5721  -10.4593  -17.1966 O   0  0  0  0  0  0  0  0  0  0  0  0
   22.5319  -11.8319  -15.0046 C   0  0  0  0  0  0  0  0  0  0  0  0
   23.0975  -10.4265  -15.1278 C   0  0  2  0  0  0  0  0  0  0  0  0
   23.2726   -9.8477  -13.7547 C   0  0  0  0  0  0  0  0  0  0  0  0
   22.1552   -9.5612  -15.9205 C   0  0  2  0  0  0  0  0  0  0  0  0
   21.8860  -10.0380  -17.2288 N   0  0  0  0  0  0  0  0  0  0  0  0
   22.3562   -8.1272  -15.8166 C   0  0  0  0  0  0  0  0  0  0  0  0
   23.3516   -7.5807  -16.3459 O   0  0  0  0  0  0  0  0  0  0  0  0
   21.4262   -7.2853  -15.1068 N   0  0  0  0  0  0  0  0  0  0  0  0
   21.6058   -5.8670  -15.0089 C   0  0  1  0  0  0  0  0  0  0  0  0
   20.4064   -5.1335  -15.5469 C   0  0  0  0  0  0  0  0  0  0  0  0
   20.5222   -3.6717  -15.5120 C   0  0  0  0  0  0  0  0  0  0  0  0
   21.6576   -3.1307  -15.5111 O   0  0  0  0  0  0  0  0  0  0  0  0
   21.9235   -5.4236  -13.6327 C   0  0  0  0  0  0  0  0  0  0  0  0
   22.5072   -4.2009  -13.3723 O   0  0  0  0  0  0  0  0  0  0  0  0
   19.4230   -2.8379  -15.4790 O   0  0  0  0  0  0  0  0  0  0  0  0
   21.6543   -6.1816  -12.6760 O   0  0  0  0  0  0  0  0  0  0  0  0
  1  2  1  0
  2  3  1  0
  4  3  1  0
  5  1  1  0
  5  4  1  0
  5  6  1  1
  6  7  2  0
  9  8  1  1
  9 11  1  0
 10  9  1  0
 11 12  1  6
 11 13  1  0
 12  6  1  0
 13 15  1  0
 14 13  2  0
 15 16  1  0
 16 20  1  0
 16 17  1  1
 17 18  1  0
 18 22  1  0
 18 19  2  0
 20 23  2  0
 20 21  1  0
M  END
$$$$
