PVD.pdb
     RDKit          3D

 23 23  0  0  1  0  0  0  0  0999 V2000
   44.7096  -10.8578   -7.3521 N   0  0  0  0  0  0  0  0  0  0  0  0
   45.2795  -11.3445   -6.0891 C   0  0  0  0  0  0  0  0  0  0  0  0
   44.4969  -10.6005   -5.0079 C   0  0  0  0  0  0  0  0  0  0  0  0
   43.3335   -9.9700   -5.7429 C   0  0  0  0  0  0  0  0  0  0  0  0
   43.3108  -10.7816   -7.0208 C   0  0  1  0  0  0  0  0  0  0  0  0
   42.5383  -10.0492   -8.0813 C   0  0  0  0  0  0  0  0  0  0  0  0
   43.1836   -9.3495   -8.8969 O   0  0  0  0  0  0  0  0  0  0  0  0
   39.6623  -11.5712  -10.1784 C   0  0  0  0  0  0  0  0  0  0  0  0
   39.0706  -10.4294   -9.3683 C   0  0  2  0  0  0  0  0  0  0  0  0
   38.1465   -9.6358  -10.2443 C   0  0  0  0  0  0  0  0  0  0  0  0
   40.1702   -9.5363   -8.8601 C   0  0  2  0  0  0  0  0  0  0  0  0
   41.1495  -10.2026   -8.0800 N   0  0  0  0  0  0  0  0  0  0  0  0
   39.7637   -8.2358   -8.3591 C   0  0  0  0  0  0  0  0  0  0  0  0
   39.1388   -8.1333   -7.2781 O   0  0  0  0  0  0  0  0  0  0  0  0
   40.0613   -7.0237   -9.0802 N   0  0  0  0  0  0  0  0  0  0  0  0
   39.6391   -5.7368   -8.6120 C   0  0  1  0  0  0  0  0  0  0  0  0
   40.8086   -4.7963   -8.4936 C   0  0  0  0  0  0  0  0  0  0  0  0
   40.4613   -3.4514   -8.0221 C   0  0  0  0  0  0  0  0  0  0  0  0
   39.5427   -3.2993   -7.1765 O   0  0  0  0  0  0  0  0  0  0  0  0
   38.5682   -5.1468   -9.4463 C   0  0  0  0  0  0  0  0  0  0  0  0
   37.8348   -4.0535   -9.0334 O   0  0  0  0  0  0  0  0  0  0  0  0
   41.1056   -2.3158   -8.4691 O   0  0  0  0  0  0  0  0  0  0  0  0
   38.3202   -5.6557  -10.5607 O   0  0  0  0  0  0  0  0  0  0  0  0
  1  2  1  0
  2  3  1  0
  4  3  1  0
  5  1  1  0
  5  4  1  0
  5  6  1  6
  6  7  2  0
  9  8  1  6
  9 11  1  0
 10  9  1  0
 11 12  1  1
 11 13  1  0
 12  6  1  0
 13 15  1  0
 14 13  2  0
 15 16  1  0
 16 20  1  0
 16 17  1  6
 17 18  1  0
 18 22  1  0
 18 19  2  0
 20 23  2  0
 20 21  1  0
M  END
$$$$
