PVD.pdb
     RDKit          3D

 23 23  0  0  1  0  0  0  0  0999 V2000
   34.9179  -10.2638  -16.9321 N   0  0  0  0  0  0  0  0  0  0  0  0
   36.3708  -10.4127  -16.7772 C   0  0  0  0  0  0  0  0  0  0  0  0
   36.8647  -10.7895  -18.1732 C   0  0  0  0  0  0  0  0  0  0  0  0
   35.6816  -10.5298  -19.0810 C   0  0  0  0  0  0  0  0  0  0  0  0
   34.8347   -9.6197  -18.2168 C   0  0  1  0  0  0  0  0  0  0  0  0
   33.4209   -9.5973  -18.7252 C   0  0  0  0  0  0  0  0  0  0  0  0
   33.2124   -9.0882  -19.8515 O   0  0  0  0  0  0  0  0  0  0  0  0
   31.2136  -12.7613  -18.4051 C   0  0  0  0  0  0  0  0  0  0  0  0
   30.4883  -11.6295  -17.6957 C   0  0  2  0  0  0  0  0  0  0  0  0
   29.0286  -11.6949  -18.0360 C   0  0  0  0  0  0  0  0  0  0  0  0
   31.0476  -10.3041  -18.1378 C   0  0  2  0  0  0  0  0  0  0  0  0
   32.4372  -10.1486  -17.9002 N   0  0  0  0  0  0  0  0  0  0  0  0
   30.2382   -9.1345  -17.8471 C   0  0  0  0  0  0  0  0  0  0  0  0
   30.1480   -8.6933  -16.6780 O   0  0  0  0  0  0  0  0  0  0  0  0
   29.5142   -8.4424  -18.8838 N   0  0  0  0  0  0  0  0  0  0  0  0
   28.7315   -7.2727  -18.6141 C   0  0  1  0  0  0  0  0  0  0  0  0
   29.2154   -6.1016  -19.4267 C   0  0  0  0  0  0  0  0  0  0  0  0
   28.4547   -4.8642  -19.2218 C   0  0  0  0  0  0  0  0  0  0  0  0
   28.0252   -4.5726  -18.0762 O   0  0  0  0  0  0  0  0  0  0  0  0
   27.2820   -7.4943  -18.8166 C   0  0  0  0  0  0  0  0  0  0  0  0
   26.3279   -6.6853  -18.2346 O   0  0  0  0  0  0  0  0  0  0  0  0
   28.1785   -3.9814  -20.2459 O   0  0  0  0  0  0  0  0  0  0  0  0
   26.9107   -8.4451  -19.5379 O   0  0  0  0  0  0  0  0  0  0  0  0
  1  2  1  0
  2  3  1  0
  4  3  1  0
  5  1  1  0
  5  4  1  0
  5  6  1  6
  6  7  2  0
  9  8  1  6
  9 11  1  0
 10  9  1  0
 11 12  1  1
 11 13  1  0
 12  6  1  0
 13 15  1  0
 14 13  2  0
 15 16  1  0
 16 20  1  0
 16 17  1  6
 17 18  1  0
 18 22  1  0
 18 19  2  0
 20 23  2  0
 20 21  1  0
M  END
$$$$
