PVD.pdb
     RDKit          3D

 23 23  0  0  1  0  0  0  0  0999 V2000
   21.6665  -12.8083  -18.6969 N   0  0  0  0  0  0  0  0  0  0  0  0
   21.2237  -13.8779  -19.6007 C   0  0  0  0  0  0  0  0  0  0  0  0
   20.3725  -14.7912  -18.7196 C   0  0  0  0  0  0  0  0  0  0  0  0
   20.1527  -14.0001  -17.4479 C   0  0  0  0  0  0  0  0  0  0  0  0
   20.4813  -12.5955  -17.9080 C   0  0  1  0  0  0  0  0  0  0  0  0
   20.7662  -11.7193  -16.7211 C   0  0  0  0  0  0  0  0  0  0  0  0
   19.8547  -11.5670  -15.8743 O   0  0  0  0  0  0  0  0  0  0  0  0
   24.9624  -10.3220  -16.2652 C   0  0  0  0  0  0  0  0  0  0  0  0
   23.9300  -10.5960  -15.1839 C   0  0  2  0  0  0  0  0  0  0  0  0
   23.9687  -12.0532  -14.8288 C   0  0  0  0  0  0  0  0  0  0  0  0
   22.5561  -10.2376  -15.6827 C   0  0  2  0  0  0  0  0  0  0  0  0
   22.0334  -11.1351  -16.6485 N   0  0  0  0  0  0  0  0  0  0  0  0
   22.3162   -8.8318  -15.9545 C   0  0  0  0  0  0  0  0  0  0  0  0
   22.4422   -8.3737  -17.1138 O   0  0  0  0  0  0  0  0  0  0  0  0
   21.9272   -7.9179  -14.9099 N   0  0  0  0  0  0  0  0  0  0  0  0
   21.7359   -6.5190  -15.1552 C   0  0  1  0  0  0  0  0  0  0  0  0
   20.3723   -6.2554  -15.7357 C   0  0  0  0  0  0  0  0  0  0  0  0
   20.0983   -4.8440  -16.0265 C   0  0  0  0  0  0  0  0  0  0  0  0
   20.7768   -4.2377  -16.8948 O   0  0  0  0  0  0  0  0  0  0  0  0
   21.9677   -5.6896  -13.9513 C   0  0  0  0  0  0  0  0  0  0  0  0
   22.0737   -4.3155  -14.0165 O   0  0  0  0  0  0  0  0  0  0  0  0
   19.1105   -4.1285  -15.3809 O   0  0  0  0  0  0  0  0  0  0  0  0
   22.0709   -6.2522  -12.8400 O   0  0  0  0  0  0  0  0  0  0  0  0
  1  2  1  0
  2  3  1  0
  4  3  1  0
  5  1  1  0
  5  4  1  0
  5  6  1  1
  6  7  2  0
  9  8  1  6
  9 11  1  0
 10  9  1  0
 11 12  1  6
 11 13  1  0
 12  6  1  0
 13 15  1  0
 14 13  2  0
 15 16  1  0
 16 20  1  0
 16 17  1  1
 17 18  1  0
 18 22  1  0
 18 19  2  0
 20 23  2  0
 20 21  1  0
M  END
$$$$
