KFM.pdb
     RDKit          3D

 29 29  0  0  1  0  0  0  0  0999 V2000
   26.9228  -23.4481  -16.3103 N   0  0  0  0  0  0  0  0  0  0  0  0
   26.0654  -22.2827  -16.4331 C   0  0  1  0  0  0  0  0  0  0  0  0
   25.3567  -22.2619  -17.7639 C   0  0  0  0  0  0  0  0  0  0  0  0
   26.1034  -23.1012  -18.7833 C   0  0  0  0  0  0  0  0  0  0  0  0
   27.3828  -22.4322  -19.2211 C   0  0  0  0  0  0  0  0  0  0  0  0
   28.0456  -23.1647  -20.3550 C   0  0  0  0  0  0  0  0  0  0  0  0
   29.3407  -22.5556  -20.6475 N   0  0  0  0  0  0  0  0  0  0  0  0
   25.0609  -22.3128  -15.3111 C   0  0  0  0  0  0  0  0  0  0  0  0
   24.5677  -23.4087  -14.9604 O   0  0  0  0  0  0  0  0  0  0  0  0
   24.6678  -21.1137  -14.6503 N   0  0  0  0  0  0  0  0  0  0  0  0
   23.6931  -21.0556  -13.6163 C   0  0  1  0  0  0  0  0  0  0  0  0
   23.8060  -19.9509  -12.6371 C   0  0  0  0  0  0  0  0  0  0  0  0
   22.8915  -19.9462  -11.5050 C   0  0  0  0  0  0  0  0  0  0  0  0
   23.1463  -20.6498  -10.3351 C   0  0  0  0  0  0  0  0  0  0  0  0
   22.2398  -20.5966   -9.2974 C   0  0  0  0  0  0  0  0  0  0  0  0
   21.0741  -19.8632   -9.3809 C   0  0  0  0  0  0  0  0  0  0  0  0
   20.8220  -19.1724  -10.5279 C   0  0  0  0  0  0  0  0  0  0  0  0
   21.7288  -19.2213  -11.5711 C   0  0  0  0  0  0  0  0  0  0  0  0
   22.2854  -21.1939  -14.1436 C   0  0  0  0  0  0  0  0  0  0  0  0
   21.9209  -20.5379  -15.1092 O   0  0  0  0  0  0  0  0  0  0  0  0
   18.7196  -26.7243  -13.3563 C   0  0  0  0  0  0  0  0  0  0  0  0
   17.4197  -25.5180  -13.7353 S   0  0  0  0  0  0  0  0  0  0  0  0
   18.1120  -23.8974  -14.1398 C   0  0  0  0  0  0  0  0  0  0  0  0
   19.4280  -23.6249  -13.4296 C   0  0  0  0  0  0  0  0  0  0  0  0
   20.0462  -22.3338  -13.9219 C   0  0  2  0  0  0  0  0  0  0  0  0
   21.3888  -22.1121  -13.4745 N   0  0  0  0  0  0  0  0  0  0  0  0
   19.1673  -21.1662  -13.5733 C   0  0  0  0  0  0  0  0  0  0  0  0
   19.0963  -20.6734  -12.4203 O   0  0  0  0  0  0  0  0  0  0  0  0
   18.3476  -20.5333  -14.5219 O   0  0  0  0  0  0  0  0  0  0  0  0
  2  3  1  0
  2  1  1  6
  4  5  1  0
  4  3  1  0
  6  5  1  0
  7  6  1  0
  8 10  1  0
  8  2  1  0
  9  8  2  0
 11 10  1  0
 11 12  1  6
 13 12  1  0
 13 14  2  0
 15 14  1  0
 16 15  2  0
 17 18  2  0
 17 16  1  0
 18 13  1  0
 19 26  1  0
 19 11  1  0
 20 19  2  0
 21 22  1  0
 22 23  1  0
 23 24  1  0
 25 24  1  1
 25 27  1  0
 25 26  1  0
 27 29  1  0
 28 27  2  0
M  END
$$$$
