KFM.pdb
     RDKit          3D

 29 29  0  0  1  0  0  0  0  0999 V2000
   27.9964  -22.4283  -16.8531 N   0  0  0  0  0  0  0  0  0  0  0  0
   27.5155  -21.1719  -16.3065 C   0  0  1  0  0  0  0  0  0  0  0  0
   26.8109  -20.3514  -17.3573 C   0  0  0  0  0  0  0  0  0  0  0  0
   27.8085  -19.5463  -18.1684 C   0  0  0  0  0  0  0  0  0  0  0  0
   28.5420  -20.4128  -19.1621 C   0  0  0  0  0  0  0  0  0  0  0  0
   29.4631  -19.6118  -20.0404 C   0  0  0  0  0  0  0  0  0  0  0  0
   30.2668  -20.5110  -20.8646 N   0  0  0  0  0  0  0  0  0  0  0  0
   26.5749  -21.4782  -15.1707 C   0  0  0  0  0  0  0  0  0  0  0  0
   26.2978  -22.6709  -14.9102 O   0  0  0  0  0  0  0  0  0  0  0  0
   25.9996  -20.4303  -14.3959 N   0  0  0  0  0  0  0  0  0  0  0  0
   25.2815  -20.6353  -13.1856 C   0  0  1  0  0  0  0  0  0  0  0  0
   25.7332  -19.8849  -11.9919 C   0  0  0  0  0  0  0  0  0  0  0  0
   26.9457  -20.3322  -11.3229 C   0  0  0  0  0  0  0  0  0  0  0  0
   26.9627  -20.7282   -9.9920 C   0  0  0  0  0  0  0  0  0  0  0  0
   28.1459  -21.1477   -9.4215 C   0  0  0  0  0  0  0  0  0  0  0  0
   29.3278  -21.1865  -10.1324 C   0  0  0  0  0  0  0  0  0  0  0  0
   29.3134  -20.7980  -11.4381 C   0  0  0  0  0  0  0  0  0  0  0  0
   28.1289  -20.3778  -12.0155 C   0  0  0  0  0  0  0  0  0  0  0  0
   23.7878  -20.5334  -13.3781 C   0  0  0  0  0  0  0  0  0  0  0  0
   23.2535  -19.4394  -13.4927 O   0  0  0  0  0  0  0  0  0  0  0  0
   18.1755  -22.3520   -8.7209 C   0  0  0  0  0  0  0  0  0  0  0  0
   19.9194  -22.2045   -9.1960 S   0  0  0  0  0  0  0  0  0  0  0  0
   20.1106  -22.0397  -10.9864 C   0  0  0  0  0  0  0  0  0  0  0  0
   21.5649  -21.9365  -11.4166 C   0  0  0  0  0  0  0  0  0  0  0  0
   21.6728  -21.8304  -12.9227 C   0  0  2  0  0  0  0  0  0  0  0  0
   23.0154  -21.7569  -13.4163 N   0  0  0  0  0  0  0  0  0  0  0  0
   20.8545  -20.6754  -13.4263 C   0  0  0  0  0  0  0  0  0  0  0  0
   19.7750  -20.8132  -14.0530 O   0  0  0  0  0  0  0  0  0  0  0  0
   21.2425  -19.3394  -13.2338 O   0  0  0  0  0  0  0  0  0  0  0  0
  2  3  1  0
  2  1  1  6
  4  5  1  0
  4  3  1  0
  6  5  1  0
  7  6  1  0
  8 10  1  0
  8  2  1  0
  9  8  2  0
 11 10  1  0
 11 12  1  1
 13 12  1  0
 13 14  2  0
 15 14  1  0
 16 15  2  0
 17 18  2  0
 17 16  1  0
 18 13  1  0
 19 26  1  0
 19 11  1  0
 20 19  2  0
 21 22  1  0
 22 23  1  0
 23 24  1  0
 25 24  1  1
 25 27  1  0
 25 26  1  0
 27 29  1  0
 28 27  2  0
M  END
$$$$
