KFM.pdb
     RDKit          3D

 29 29  0  0  1  0  0  0  0  0999 V2000
   30.5866  -38.3236  -89.1061 N   0  0  0  0  0  0  0  0  0  0  0  0
   30.9242  -37.4628  -87.9865 C   0  0  1  0  0  0  0  0  0  0  0  0
   29.7085  -37.1475  -87.1519 C   0  0  0  0  0  0  0  0  0  0  0  0
   30.1125  -36.7288  -85.7510 C   0  0  0  0  0  0  0  0  0  0  0  0
   29.3408  -37.4895  -84.7013 C   0  0  0  0  0  0  0  0  0  0  0  0
   29.9116  -37.2914  -83.3242 C   0  0  0  0  0  0  0  0  0  0  0  0
   28.9568  -37.7568  -82.3213 N   0  0  0  0  0  0  0  0  0  0  0  0
   31.9621  -38.1612  -87.1476 C   0  0  0  0  0  0  0  0  0  0  0  0
   31.5925  -38.9137  -86.2179 O   0  0  0  0  0  0  0  0  0  0  0  0
   33.3516  -37.9737  -87.3992 N   0  0  0  0  0  0  0  0  0  0  0  0
   34.2407  -37.3099  -86.5096 C   0  0  1  0  0  0  0  0  0  0  0  0
   35.5526  -36.8869  -87.0498 C   0  0  0  0  0  0  0  0  0  0  0  0
   35.6733  -35.5314  -87.5657 C   0  0  0  0  0  0  0  0  0  0  0  0
   34.5725  -34.7131  -87.7827 C   0  0  0  0  0  0  0  0  0  0  0  0
   34.7587  -33.4356  -88.2674 C   0  0  0  0  0  0  0  0  0  0  0  0
   36.0132  -32.9359  -88.5503 C   0  0  0  0  0  0  0  0  0  0  0  0
   37.0946  -33.7372  -88.3386 C   0  0  0  0  0  0  0  0  0  0  0  0
   36.9133  -35.0189  -87.8511 C   0  0  0  0  0  0  0  0  0  0  0  0
   33.5657  -36.1972  -85.7448 C   0  0  0  0  0  0  0  0  0  0  0  0
   32.4194  -36.3330  -85.3409 O   0  0  0  0  0  0  0  0  0  0  0  0
   31.3849  -29.4904  -85.5787 C   0  0  0  0  0  0  0  0  0  0  0  0
   31.9048  -31.1287  -86.1567 S   0  0  0  0  0  0  0  0  0  0  0  0
   31.5727  -32.4073  -84.9221 C   0  0  0  0  0  0  0  0  0  0  0  0
   32.1609  -33.7574  -85.2992 C   0  0  0  0  0  0  0  0  0  0  0  0
   33.6659  -33.7510  -85.1372 C   0  0  2  0  0  0  0  0  0  0  0  0
   34.3068  -34.9759  -85.5123 N   0  0  0  0  0  0  0  0  0  0  0  0
   34.0400  -33.3599  -83.7356 C   0  0  0  0  0  0  0  0  0  0  0  0
   33.1992  -33.1701  -82.8223 O   0  0  0  0  0  0  0  0  0  0  0  0
   35.3741  -33.1721  -83.3387 O   0  0  0  0  0  0  0  0  0  0  0  0
  2  3  1  0
  2  1  1  6
  4  5  1  0
  4  3  1  0
  6  5  1  0
  7  6  1  0
  8 10  1  0
  8  2  1  0
  9  8  2  0
 11 10  1  0
 11 12  1  6
 13 12  1  0
 13 14  2  0
 15 14  1  0
 16 15  2  0
 17 18  2  0
 17 16  1  0
 18 13  1  0
 19 26  1  0
 19 11  1  0
 20 19  2  0
 21 22  1  0
 22 23  1  0
 23 24  1  0
 25 24  1  1
 25 27  1  0
 25 26  1  0
 27 29  1  0
 28 27  2  0
M  END
$$$$
