KFM.pdb
     RDKit          3D

 29 29  0  0  1  0  0  0  0  0999 V2000
   26.1743  -19.8492  -12.8828 N   0  0  0  0  0  0  0  0  0  0  0  0
   25.6217  -21.1438  -12.5262 C   0  0  1  0  0  0  0  0  0  0  0  0
   26.2272  -22.2459  -13.3584 C   0  0  0  0  0  0  0  0  0  0  0  0
   25.9238  -22.0364  -14.8298 C   0  0  0  0  0  0  0  0  0  0  0  0
   24.4388  -21.9527  -15.0827 C   0  0  0  0  0  0  0  0  0  0  0  0
   24.1214  -21.7901  -16.5436 C   0  0  0  0  0  0  0  0  0  0  0  0
   22.6780  -21.6566  -16.7244 N   0  0  0  0  0  0  0  0  0  0  0  0
   25.8928  -21.3887  -11.0649 C   0  0  0  0  0  0  0  0  0  0  0  0
   25.4669  -22.4379  -10.5308 O   0  0  0  0  0  0  0  0  0  0  0  0
   26.6230  -20.4433  -10.2890 N   0  0  0  0  0  0  0  0  0  0  0  0
   26.7958  -20.5314   -8.8801 C   0  0  1  0  0  0  0  0  0  0  0  0
   27.8488  -19.6879   -8.2705 C   0  0  0  0  0  0  0  0  0  0  0  0
   28.0511  -19.7818   -6.8324 C   0  0  0  0  0  0  0  0  0  0  0  0
   28.5519  -20.9235   -6.2206 C   0  0  0  0  0  0  0  0  0  0  0  0
   28.7252  -20.9428   -4.8528 C   0  0  0  0  0  0  0  0  0  0  0  0
   28.4134  -19.8574   -4.0603 C   0  0  0  0  0  0  0  0  0  0  0  0
   27.9215  -18.7364   -4.6583 C   0  0  0  0  0  0  0  0  0  0  0  0
   27.7471  -18.7113   -6.0301 C   0  0  0  0  0  0  0  0  0  0  0  0
   25.4893  -20.4228   -8.1319 C   0  0  0  0  0  0  0  0  0  0  0  0
   24.7504  -19.4658   -8.3160 O   0  0  0  0  0  0  0  0  0  0  0  0
   20.4213  -23.7975   -8.0973 C   0  0  0  0  0  0  0  0  0  0  0  0
   20.2867  -23.2815   -6.3641 S   0  0  0  0  0  0  0  0  0  0  0  0
   21.6613  -22.2118   -5.8786 C   0  0  0  0  0  0  0  0  0  0  0  0
   22.8878  -22.3928   -6.7581 C   0  0  0  0  0  0  0  0  0  0  0  0
   23.9732  -21.4101   -6.3742 C   0  0  2  0  0  0  0  0  0  0  0  0
   25.1449  -21.4716   -7.1958 N   0  0  0  0  0  0  0  0  0  0  0  0
   24.3298  -21.5644   -4.9229 C   0  0  0  0  0  0  0  0  0  0  0  0
   23.5000  -21.4359   -3.9890 O   0  0  0  0  0  0  0  0  0  0  0  0
   25.6342  -21.8645   -4.4975 O   0  0  0  0  0  0  0  0  0  0  0  0
  2  3  1  0
  2  1  1  6
  4  5  1  0
  4  3  1  0
  6  5  1  0
  7  6  1  0
  8 10  1  0
  8  2  1  0
  9  8  2  0
 11 10  1  0
 11 12  1  1
 13 12  1  0
 13 14  2  0
 15 14  1  0
 16 15  2  0
 17 18  2  0
 17 16  1  0
 18 13  1  0
 19 26  1  0
 19 11  1  0
 20 19  2  0
 21 22  1  0
 22 23  1  0
 23 24  1  0
 25 24  1  6
 25 27  1  0
 25 26  1  0
 27 29  1  0
 28 27  2  0
M  END
$$$$
