KFM.pdb
     RDKit          3D

 29 29  0  0  1  0  0  0  0  0999 V2000
   29.9537  -21.9840  -12.1856 N   0  0  0  0  0  0  0  0  0  0  0  0
   28.9271  -20.9723  -12.3616 C   0  0  1  0  0  0  0  0  0  0  0  0
   28.3743  -20.9911  -13.7644 C   0  0  0  0  0  0  0  0  0  0  0  0
   29.4903  -20.8581  -14.7833 C   0  0  0  0  0  0  0  0  0  0  0  0
   29.3309  -21.8471  -15.9115 C   0  0  0  0  0  0  0  0  0  0  0  0
   30.3865  -21.6749  -16.9688 C   0  0  0  0  0  0  0  0  0  0  0  0
   30.2013  -20.3955  -17.6490 N   0  0  0  0  0  0  0  0  0  0  0  0
   27.8269  -21.2352  -11.3671 C   0  0  0  0  0  0  0  0  0  0  0  0
   27.3865  -22.3997  -11.2352 O   0  0  0  0  0  0  0  0  0  0  0  0
   27.2847  -20.1781  -10.5812 N   0  0  0  0  0  0  0  0  0  0  0  0
   26.0462  -20.2553   -9.8862 C   0  0  1  0  0  0  0  0  0  0  0  0
   25.9087  -19.4507   -8.6511 C   0  0  0  0  0  0  0  0  0  0  0  0
   26.8252  -19.7226   -7.5538 C   0  0  0  0  0  0  0  0  0  0  0  0
   27.0318  -21.0006   -7.0512 C   0  0  0  0  0  0  0  0  0  0  0  0
   27.9203  -21.1889   -6.0137 C   0  0  0  0  0  0  0  0  0  0  0  0
   28.6180  -20.1413   -5.4485 C   0  0  0  0  0  0  0  0  0  0  0  0
   28.4165  -18.8866   -5.9398 C   0  0  0  0  0  0  0  0  0  0  0  0
   27.5274  -18.6925   -6.9814 C   0  0  0  0  0  0  0  0  0  0  0  0
   24.8598  -20.0800  -10.8029 C   0  0  0  0  0  0  0  0  0  0  0  0
   24.9179  -19.3036  -11.7460 O   0  0  0  0  0  0  0  0  0  0  0  0
   22.8663  -24.4206  -14.5107 C   0  0  0  0  0  0  0  0  0  0  0  0
   21.2375  -23.6722  -14.2363 S   0  0  0  0  0  0  0  0  0  0  0  0
   21.3550  -22.1663  -13.2425 C   0  0  0  0  0  0  0  0  0  0  0  0
   22.5235  -22.1915  -12.2705 C   0  0  0  0  0  0  0  0  0  0  0  0
   22.5714  -20.9166  -11.4558 C   0  0  2  0  0  0  0  0  0  0  0  0
   23.6625  -20.8462  -10.5304 N   0  0  0  0  0  0  0  0  0  0  0  0
   21.2613  -20.6936  -10.7550 C   0  0  0  0  0  0  0  0  0  0  0  0
   20.3280  -20.0041  -11.2354 O   0  0  0  0  0  0  0  0  0  0  0  0
   20.9808  -21.2437   -9.4935 O   0  0  0  0  0  0  0  0  0  0  0  0
  2  3  1  0
  2  1  1  6
  4  5  1  0
  4  3  1  0
  6  5  1  0
  7  6  1  0
  8 10  1  0
  8  2  1  0
  9  8  2  0
 11 10  1  0
 11 12  1  1
 13 12  1  0
 13 14  2  0
 15 14  1  0
 16 15  2  0
 17 18  2  0
 17 16  1  0
 18 13  1  0
 19 26  1  0
 19 11  1  0
 20 19  2  0
 21 22  1  0
 22 23  1  0
 23 24  1  0
 25 24  1  1
 25 27  1  0
 25 26  1  0
 27 29  1  0
 28 27  2  0
M  END
$$$$
