KFM.pdb
     RDKit          3D

 29 29  0  0  1  0  0  0  0  0999 V2000
   23.4006  -13.0295  -18.1487 N   0  0  0  0  0  0  0  0  0  0  0  0
   22.7537  -11.8045  -18.5839 C   0  0  1  0  0  0  0  0  0  0  0  0
   21.4265  -12.0894  -19.2406 C   0  0  0  0  0  0  0  0  0  0  0  0
   21.6109  -12.9607  -20.4686 C   0  0  0  0  0  0  0  0  0  0  0  0
   20.3043  -13.1880  -21.1878 C   0  0  0  0  0  0  0  0  0  0  0  0
   20.4595  -14.1083  -22.3670 C   0  0  0  0  0  0  0  0  0  0  0  0
   19.2115  -14.1564  -23.1246 N   0  0  0  0  0  0  0  0  0  0  0  0
   22.5578  -10.9188  -17.3815 C   0  0  0  0  0  0  0  0  0  0  0  0
   22.1468  -11.4218  -16.3113 O   0  0  0  0  0  0  0  0  0  0  0  0
   22.8322   -9.5227  -17.4502 N   0  0  0  0  0  0  0  0  0  0  0  0
   22.6866   -8.6264  -16.3556 C   0  0  1  0  0  0  0  0  0  0  0  0
   23.9089   -7.9533  -15.8610 C   0  0  0  0  0  0  0  0  0  0  0  0
   25.0866   -8.7720  -15.6143 C   0  0  0  0  0  0  0  0  0  0  0  0
   25.1548   -9.6896  -14.5742 C   0  0  0  0  0  0  0  0  0  0  0  0
   26.2996  -10.4386  -14.4009 C   0  0  0  0  0  0  0  0  0  0  0  0
   27.3934  -10.3061  -15.2313 C   0  0  0  0  0  0  0  0  0  0  0  0
   27.3288   -9.4061  -16.2521 C   0  0  0  0  0  0  0  0  0  0  0  0
   26.1822   -8.6535  -16.4311 C   0  0  0  0  0  0  0  0  0  0  0  0
   21.5533   -7.6499  -16.5579 C   0  0  0  0  0  0  0  0  0  0  0  0
   21.5286   -6.9291  -17.5455 O   0  0  0  0  0  0  0  0  0  0  0  0
   14.7853   -7.8749  -15.5338 C   0  0  0  0  0  0  0  0  0  0  0  0
   15.9319   -6.6484  -16.2189 S   0  0  0  0  0  0  0  0  0  0  0  0
   17.0918   -6.0488  -14.9680 C   0  0  0  0  0  0  0  0  0  0  0  0
   18.2499   -7.0048  -14.7320 C   0  0  0  0  0  0  0  0  0  0  0  0
   19.4090   -6.6803  -15.6497 C   0  0  2  0  0  0  0  0  0  0  0  0
   20.5117   -7.5897  -15.5548 N   0  0  0  0  0  0  0  0  0  0  0  0
   19.8646   -5.2644  -15.4374 C   0  0  0  0  0  0  0  0  0  0  0  0
   20.7679   -4.9423  -14.6267 O   0  0  0  0  0  0  0  0  0  0  0  0
   19.3049   -4.1823  -16.1362 O   0  0  0  0  0  0  0  0  0  0  0  0
  2  3  1  0
  2  1  1  1
  4  5  1  0
  4  3  1  0
  6  5  1  0
  7  6  1  0
  8 10  1  0
  8  2  1  0
  9  8  2  0
 11 10  1  0
 11 12  1  6
 13 12  1  0
 13 14  2  0
 15 14  1  0
 16 15  2  0
 17 18  2  0
 17 16  1  0
 18 13  1  0
 19 26  1  0
 19 11  1  0
 20 19  2  0
 21 22  1  0
 22 23  1  0
 23 24  1  0
 25 24  1  1
 25 27  1  0
 25 26  1  0
 27 29  1  0
 28 27  2  0
M  END
$$$$
