KFM.pdb
     RDKit          3D

 29 29  0  0  1  0  0  0  0  0999 V2000
   28.7398  -21.7349  -18.2855 N   0  0  0  0  0  0  0  0  0  0  0  0
   27.4326  -21.9753  -17.7009 C   0  0  1  0  0  0  0  0  0  0  0  0
   27.0953  -23.4451  -17.6992 C   0  0  0  0  0  0  0  0  0  0  0  0
   28.0464  -24.2154  -18.5954 C   0  0  0  0  0  0  0  0  0  0  0  0
   27.3014  -25.0248  -19.6279 C   0  0  0  0  0  0  0  0  0  0  0  0
   28.2331  -25.7409  -20.5663 C   0  0  0  0  0  0  0  0  0  0  0  0
   27.4610  -26.4654  -21.5727 N   0  0  0  0  0  0  0  0  0  0  0  0
   27.4382  -21.4429  -16.2919 C   0  0  0  0  0  0  0  0  0  0  0  0
   28.3771  -21.7532  -15.5241 O   0  0  0  0  0  0  0  0  0  0  0  0
   26.3912  -20.5965  -15.8268 N   0  0  0  0  0  0  0  0  0  0  0  0
   26.3825  -19.9654  -14.5522 C   0  0  1  0  0  0  0  0  0  0  0  0
   26.3209  -18.4864  -14.5265 C   0  0  0  0  0  0  0  0  0  0  0  0
   27.2166  -17.7506  -15.4064 C   0  0  0  0  0  0  0  0  0  0  0  0
   28.5970  -17.8948  -15.3585 C   0  0  0  0  0  0  0  0  0  0  0  0
   29.3877  -17.1715  -16.2264 C   0  0  0  0  0  0  0  0  0  0  0  0
   28.8512  -16.2977  -17.1496 C   0  0  0  0  0  0  0  0  0  0  0  0
   27.4972  -16.1543  -17.1979 C   0  0  0  0  0  0  0  0  0  0  0  0
   26.6996  -16.8786  -16.3306 C   0  0  0  0  0  0  0  0  0  0  0  0
   25.3774  -20.5835  -13.6107 C   0  0  0  0  0  0  0  0  0  0  0  0
   24.4030  -21.1771  -14.0509 O   0  0  0  0  0  0  0  0  0  0  0  0
   26.5846  -19.1143   -7.6043 C   0  0  0  0  0  0  0  0  0  0  0  0
   27.3959  -20.5998   -8.2553 S   0  0  0  0  0  0  0  0  0  0  0  0
   26.3188  -21.5030   -9.3926 C   0  0  0  0  0  0  0  0  0  0  0  0
   25.0776  -20.7153   -9.7795 C   0  0  0  0  0  0  0  0  0  0  0  0
   24.6933  -20.9916  -11.2173 C   0  0  2  0  0  0  0  0  0  0  0  0
   25.5971  -20.4480  -12.1865 N   0  0  0  0  0  0  0  0  0  0  0  0
   23.2874  -20.5321  -11.4811 C   0  0  0  0  0  0  0  0  0  0  0  0
   23.0084  -19.4329  -12.0206 O   0  0  0  0  0  0  0  0  0  0  0  0
   22.1670  -21.3058  -11.1368 O   0  0  0  0  0  0  0  0  0  0  0  0
  2  3  1  0
  2  1  1  1
  4  5  1  0
  4  3  1  0
  6  5  1  0
  7  6  1  0
  8 10  1  0
  8  2  1  0
  9  8  2  0
 11 10  1  0
 11 12  1  6
 13 12  1  0
 13 14  2  0
 15 14  1  0
 16 15  2  0
 17 18  2  0
 17 16  1  0
 18 13  1  0
 19 26  1  0
 19 11  1  0
 20 19  2  0
 21 22  1  0
 22 23  1  0
 23 24  1  0
 25 24  1  1
 25 27  1  0
 25 26  1  0
 27 29  1  0
 28 27  2  0
M  END
$$$$
