KFM.pdb
     RDKit          3D

 29 29  0  0  1  0  0  0  0  0999 V2000
   21.6977  -12.0121  -19.6196 N   0  0  0  0  0  0  0  0  0  0  0  0
   22.1266  -10.6500  -19.8829 C   0  0  1  0  0  0  0  0  0  0  0  0
   21.6406  -10.1732  -21.2284 C   0  0  0  0  0  0  0  0  0  0  0  0
   21.6117  -11.3165  -22.2250 C   0  0  0  0  0  0  0  0  0  0  0  0
   22.4182  -10.9960  -23.4591 C   0  0  0  0  0  0  0  0  0  0  0  0
   22.3418  -12.0920  -24.4860 C   0  0  0  0  0  0  0  0  0  0  0  0
   23.0868  -13.2590  -24.0203 N   0  0  0  0  0  0  0  0  0  0  0  0
   21.5856   -9.7634  -18.7921 C   0  0  0  0  0  0  0  0  0  0  0  0
   20.3465   -9.6550  -18.6496 O   0  0  0  0  0  0  0  0  0  0  0  0
   22.4645   -9.0500  -17.9274 N   0  0  0  0  0  0  0  0  0  0  0  0
   22.0314   -8.1382  -16.9255 C   0  0  1  0  0  0  0  0  0  0  0  0
   22.6650   -8.2429  -15.5916 C   0  0  0  0  0  0  0  0  0  0  0  0
   21.7956   -8.3487  -14.4293 C   0  0  0  0  0  0  0  0  0  0  0  0
   20.9921   -9.4568  -14.1949 C   0  0  0  0  0  0  0  0  0  0  0  0
   20.1963   -9.4951  -13.0694 C   0  0  0  0  0  0  0  0  0  0  0  0
   20.1673   -8.4594  -12.1583 C   0  0  0  0  0  0  0  0  0  0  0  0
   20.9544   -7.3711  -12.3865 C   0  0  0  0  0  0  0  0  0  0  0  0
   21.7555   -7.3284  -13.5132 C   0  0  0  0  0  0  0  0  0  0  0  0
   22.0002   -6.7121  -17.4195 C   0  0  0  0  0  0  0  0  0  0  0  0
   22.9701   -6.2361  -17.9923 O   0  0  0  0  0  0  0  0  0  0  0  0
   16.8271   -1.2987  -18.1928 C   0  0  0  0  0  0  0  0  0  0  0  0
   17.8319   -2.2055  -19.3997 S   0  0  0  0  0  0  0  0  0  0  0  0
   19.4091   -2.7340  -18.6908 C   0  0  0  0  0  0  0  0  0  0  0  0
   19.4086   -4.1968  -18.2773 C   0  0  0  0  0  0  0  0  0  0  0  0
   20.7000   -4.5561  -17.5742 C   0  0  2  0  0  0  0  0  0  0  0  0
   20.8023   -5.9325  -17.1912 N   0  0  0  0  0  0  0  0  0  0  0  0
   20.9212   -3.6550  -16.3926 C   0  0  0  0  0  0  0  0  0  0  0  0
   21.2435   -2.4455  -16.4954 O   0  0  0  0  0  0  0  0  0  0  0  0
   20.7854   -4.1045  -15.0690 O   0  0  0  0  0  0  0  0  0  0  0  0
  2  3  1  0
  2  1  1  1
  4  5  1  0
  4  3  1  0
  6  5  1  0
  7  6  1  0
  8 10  1  0
  8  2  1  0
  9  8  2  0
 11 10  1  0
 11 12  1  1
 13 12  1  0
 13 14  2  0
 15 14  1  0
 16 15  2  0
 17 18  2  0
 17 16  1  0
 18 13  1  0
 19 26  1  0
 19 11  1  0
 20 19  2  0
 21 22  1  0
 22 23  1  0
 23 24  1  0
 25 24  1  1
 25 27  1  0
 25 26  1  0
 27 29  1  0
 28 27  2  0
M  END
$$$$
