KFM.pdb
     RDKit          3D

 29 29  0  0  1  0  0  0  0  0999 V2000
   43.3187  -11.6822   -7.8560 N   0  0  0  0  0  0  0  0  0  0  0  0
   42.7044  -10.6447   -7.0469 C   0  0  1  0  0  0  0  0  0  0  0  0
   43.6833   -9.5404   -6.7368 C   0  0  0  0  0  0  0  0  0  0  0  0
   44.6088   -9.9452   -5.6052 C   0  0  0  0  0  0  0  0  0  0  0  0
   43.9767   -9.6987   -4.2576 C   0  0  0  0  0  0  0  0  0  0  0  0
   44.1798   -8.2850   -3.7869 C   0  0  0  0  0  0  0  0  0  0  0  0
   43.5430   -8.1007   -2.4852 N   0  0  0  0  0  0  0  0  0  0  0  0
   41.5224  -10.0935   -7.8004 C   0  0  0  0  0  0  0  0  0  0  0  0
   41.5608  -10.0480   -9.0509 O   0  0  0  0  0  0  0  0  0  0  0  0
   40.3690   -9.6246   -7.1083 N   0  0  0  0  0  0  0  0  0  0  0  0
   39.2080   -9.1111   -7.7494 C   0  0  1  0  0  0  0  0  0  0  0  0
   37.9392   -9.8472   -7.5491 C   0  0  0  0  0  0  0  0  0  0  0  0
   37.8901  -11.2448   -7.9520 C   0  0  0  0  0  0  0  0  0  0  0  0
   38.0749  -12.2886   -7.0548 C   0  0  0  0  0  0  0  0  0  0  0  0
   38.0088  -13.5911   -7.5025 C   0  0  0  0  0  0  0  0  0  0  0  0
   37.7653  -13.8987   -8.8253 C   0  0  0  0  0  0  0  0  0  0  0  0
   37.5841  -12.8762   -9.7073 C   0  0  0  0  0  0  0  0  0  0  0  0
   37.6479  -11.5680   -9.2630 C   0  0  0  0  0  0  0  0  0  0  0  0
   39.0355   -7.6281   -7.5262 C   0  0  0  0  0  0  0  0  0  0  0  0
   39.3717   -7.1204   -6.4656 O   0  0  0  0  0  0  0  0  0  0  0  0
   41.9482   -2.4743   -6.4150 C   0  0  0  0  0  0  0  0  0  0  0  0
   41.5015   -2.5767   -8.1696 S   0  0  0  0  0  0  0  0  0  0  0  0
   39.8668   -3.3145   -8.3990 C   0  0  0  0  0  0  0  0  0  0  0  0
   39.9119   -4.8315   -8.4851 C   0  0  0  0  0  0  0  0  0  0  0  0
   38.5153   -5.4044   -8.5972 C   0  0  2  0  0  0  0  0  0  0  0  0
   38.4604   -6.8357   -8.5921 N   0  0  0  0  0  0  0  0  0  0  0  0
   37.8163   -4.8474   -9.8048 C   0  0  0  0  0  0  0  0  0  0  0  0
   37.5272   -5.5346  -10.8154 O   0  0  0  0  0  0  0  0  0  0  0  0
   37.4322   -3.4995   -9.8956 O   0  0  0  0  0  0  0  0  0  0  0  0
  2  3  1  0
  2  1  1  6
  4  5  1  0
  4  3  1  0
  6  5  1  0
  7  6  1  0
  8 10  1  0
  8  2  1  0
  9  8  2  0
 11 10  1  0
 11 12  1  1
 13 12  1  0
 13 14  2  0
 15 14  1  0
 16 15  2  0
 17 18  2  0
 17 16  1  0
 18 13  1  0
 19 26  1  0
 19 11  1  0
 20 19  2  0
 21 22  1  0
 22 23  1  0
 23 24  1  0
 25 24  1  6
 25 27  1  0
 25 26  1  0
 27 29  1  0
 28 27  2  0
M  END
$$$$
