KFM.pdb
     RDKit          3D

 29 29  0  0  1  0  0  0  0  0999 V2000
   27.0880  -22.0159  -13.4218 N   0  0  0  0  0  0  0  0  0  0  0  0
   27.4890  -20.8476  -12.6584 C   0  0  1  0  0  0  0  0  0  0  0  0
   26.7401  -19.6176  -13.1057 C   0  0  0  0  0  0  0  0  0  0  0  0
   26.7851  -19.4809  -14.6159 C   0  0  0  0  0  0  0  0  0  0  0  0
   27.8338  -18.4875  -15.0511 C   0  0  0  0  0  0  0  0  0  0  0  0
   27.8617  -18.3111  -16.5443 C   0  0  0  0  0  0  0  0  0  0  0  0
   26.6113  -17.7045  -16.9941 N   0  0  0  0  0  0  0  0  0  0  0  0
   27.2191  -21.1178  -11.2014 C   0  0  0  0  0  0  0  0  0  0  0  0
   26.2314  -21.8173  -10.8813 O   0  0  0  0  0  0  0  0  0  0  0  0
   28.0705  -20.5870  -10.1902 N   0  0  0  0  0  0  0  0  0  0  0  0
   27.7827  -20.6367   -8.7983 C   0  0  1  0  0  0  0  0  0  0  0  0
   28.7979  -20.0824   -7.8742 C   0  0  0  0  0  0  0  0  0  0  0  0
   28.4470  -19.9629   -6.4669 C   0  0  0  0  0  0  0  0  0  0  0  0
   27.9938  -18.7753   -5.9075 C   0  0  0  0  0  0  0  0  0  0  0  0
   27.6721  -18.7331   -4.5673 C   0  0  0  0  0  0  0  0  0  0  0  0
   27.7876  -19.8400   -3.7518 C   0  0  0  0  0  0  0  0  0  0  0  0
   28.2325  -21.0060   -4.2984 C   0  0  0  0  0  0  0  0  0  0  0  0
   28.5551  -21.0540   -5.6425 C   0  0  0  0  0  0  0  0  0  0  0  0
   26.3980  -20.1280   -8.4782 C   0  0  0  0  0  0  0  0  0  0  0  0
   26.0953  -18.9681   -8.7204 O   0  0  0  0  0  0  0  0  0  0  0  0
   21.6196  -19.3459  -11.4704 C   0  0  0  0  0  0  0  0  0  0  0  0
   20.7739  -20.2008  -10.1131 S   0  0  0  0  0  0  0  0  0  0  0  0
   21.8082  -20.2865   -8.6324 C   0  0  0  0  0  0  0  0  0  0  0  0
   23.2443  -20.6793   -8.9388 C   0  0  0  0  0  0  0  0  0  0  0  0
   24.0764  -20.6999   -7.6745 C   0  0  2  0  0  0  0  0  0  0  0  0
   25.4521  -21.0437   -7.8768 N   0  0  0  0  0  0  0  0  0  0  0  0
   23.4468  -21.5982   -6.6479 C   0  0  0  0  0  0  0  0  0  0  0  0
   24.0234  -22.6010   -6.1589 O   0  0  0  0  0  0  0  0  0  0  0  0
   22.1495  -21.3822   -6.1549 O   0  0  0  0  0  0  0  0  0  0  0  0
  2  3  1  0
  2  1  1  6
  4  5  1  0
  4  3  1  0
  6  5  1  0
  7  6  1  0
  8 10  1  0
  8  2  1  0
  9  8  2  0
 11 10  1  0
 11 12  1  1
 13 12  1  0
 13 14  2  0
 15 14  1  0
 16 15  2  0
 17 18  2  0
 17 16  1  0
 18 13  1  0
 19 26  1  0
 19 11  1  0
 20 19  2  0
 21 22  1  0
 22 23  1  0
 23 24  1  0
 25 24  1  6
 25 27  1  0
 25 26  1  0
 27 29  1  0
 28 27  2  0
M  END
$$$$
