KFM.pdb
     RDKit          3D

 29 29  0  0  1  0  0  0  0  0999 V2000
   22.9956  -19.0185  -14.3223 N   0  0  0  0  0  0  0  0  0  0  0  0
   23.4468  -19.9983  -15.2943 C   0  0  1  0  0  0  0  0  0  0  0  0
   23.4979  -19.4100  -16.6818 C   0  0  0  0  0  0  0  0  0  0  0  0
   22.6811  -18.1338  -16.7545 C   0  0  0  0  0  0  0  0  0  0  0  0
   23.4919  -16.9882  -17.3081 C   0  0  0  0  0  0  0  0  0  0  0  0
   23.2618  -15.7118  -16.5469 C   0  0  0  0  0  0  0  0  0  0  0  0
   21.9368  -15.1818  -16.8588 N   0  0  0  0  0  0  0  0  0  0  0  0
   24.8142  -20.4782  -14.8839 C   0  0  0  0  0  0  0  0  0  0  0  0
   25.3444  -21.4240  -15.5099 O   0  0  0  0  0  0  0  0  0  0  0  0
   25.5052  -19.8714  -13.7960 N   0  0  0  0  0  0  0  0  0  0  0  0
   26.8018  -20.2593  -13.3589 C   0  0  1  0  0  0  0  0  0  0  0  0
   27.8877  -19.2604  -13.4823 C   0  0  0  0  0  0  0  0  0  0  0  0
   27.7929  -18.2777  -14.5515 C   0  0  0  0  0  0  0  0  0  0  0  0
   28.4204  -18.4454  -15.7790 C   0  0  0  0  0  0  0  0  0  0  0  0
   28.2836  -17.4774  -16.7515 C   0  0  0  0  0  0  0  0  0  0  0  0
   27.5395  -16.3339  -16.5462 C   0  0  0  0  0  0  0  0  0  0  0  0
   26.9234  -16.1671  -15.3425 C   0  0  0  0  0  0  0  0  0  0  0  0
   27.0562  -17.1358  -14.3642 C   0  0  0  0  0  0  0  0  0  0  0  0
   26.7814  -20.8971  -11.9909 C   0  0  0  0  0  0  0  0  0  0  0  0
   27.3999  -21.9314  -11.7829 O   0  0  0  0  0  0  0  0  0  0  0  0
   28.9405  -19.1626   -6.5267 C   0  0  0  0  0  0  0  0  0  0  0  0
   27.3995  -19.8791   -5.8939 S   0  0  0  0  0  0  0  0  0  0  0  0
   26.4606  -20.7017   -7.2021 C   0  0  0  0  0  0  0  0  0  0  0  0
   26.6913  -20.0827   -8.5712 C   0  0  0  0  0  0  0  0  0  0  0  0
   25.8941  -20.8123   -9.6311 C   0  0  2  0  0  0  0  0  0  0  0  0
   26.0107  -20.2570  -10.9464 N   0  0  0  0  0  0  0  0  0  0  0  0
   24.4524  -20.9180   -9.2218 C   0  0  0  0  0  0  0  0  0  0  0  0
   23.5109  -20.3857   -9.8602 O   0  0  0  0  0  0  0  0  0  0  0  0
   24.0457  -21.6261   -8.0791 O   0  0  0  0  0  0  0  0  0  0  0  0
  2  3  1  0
  2  1  1  1
  4  5  1  0
  4  3  1  0
  6  5  1  0
  7  6  1  0
  8 10  1  0
  8  2  1  0
  9  8  2  0
 11 10  1  0
 11 12  1  1
 13 12  1  0
 13 14  2  0
 15 14  1  0
 16 15  2  0
 17 18  2  0
 17 16  1  0
 18 13  1  0
 19 26  1  0
 19 11  1  0
 20 19  2  0
 21 22  1  0
 22 23  1  0
 23 24  1  0
 25 24  1  1
 25 27  1  0
 25 26  1  0
 27 29  1  0
 28 27  2  0
M  END
$$$$
