KFM.pdb
     RDKit          3D

 29 29  0  0  1  0  0  0  0  0999 V2000
   27.2972  -20.8855  -17.3220 N   0  0  0  0  0  0  0  0  0  0  0  0
   25.8924  -20.8930  -16.9544 C   0  0  1  0  0  0  0  0  0  0  0  0
   25.1260  -21.9262  -17.7410 C   0  0  0  0  0  0  0  0  0  0  0  0
   24.7536  -21.3912  -19.1108 C   0  0  0  0  0  0  0  0  0  0  0  0
   25.8899  -21.5419  -20.0919 C   0  0  0  0  0  0  0  0  0  0  0  0
   25.5330  -21.0196  -21.4562 C   0  0  0  0  0  0  0  0  0  0  0  0
   26.4037  -19.8982  -21.7999 N   0  0  0  0  0  0  0  0  0  0  0  0
   25.7898  -21.1825  -15.4799 C   0  0  0  0  0  0  0  0  0  0  0  0
   25.1096  -22.1602  -15.0940 O   0  0  0  0  0  0  0  0  0  0  0  0
   26.4535  -20.3589  -14.5258 N   0  0  0  0  0  0  0  0  0  0  0  0
   26.3021  -20.4886  -13.1177 C   0  0  1  0  0  0  0  0  0  0  0  0
   27.3656  -19.9127  -12.2638 C   0  0  0  0  0  0  0  0  0  0  0  0
   27.2205  -20.0299  -10.8205 C   0  0  0  0  0  0  0  0  0  0  0  0
   27.8317  -21.0383  -10.0870 C   0  0  0  0  0  0  0  0  0  0  0  0
   27.6578  -21.0870   -8.7199 C   0  0  0  0  0  0  0  0  0  0  0  0
   26.8877  -20.1611   -8.0468 C   0  0  0  0  0  0  0  0  0  0  0  0
   26.2867  -19.1712   -8.7646 C   0  0  0  0  0  0  0  0  0  0  0  0
   26.4592  -19.1170  -10.1358 C   0  0  0  0  0  0  0  0  0  0  0  0
   24.9262  -20.0837  -12.6468 C   0  0  0  0  0  0  0  0  0  0  0  0
   24.4046  -19.0621  -13.0708 O   0  0  0  0  0  0  0  0  0  0  0  0
   18.1106  -18.1310  -12.1005 C   0  0  0  0  0  0  0  0  0  0  0  0
   19.7526  -18.4589  -12.7966 S   0  0  0  0  0  0  0  0  0  0  0  0
   20.7073  -19.5832  -11.7507 C   0  0  0  0  0  0  0  0  0  0  0  0
   22.1413  -19.7544  -12.2252 C   0  0  0  0  0  0  0  0  0  0  0  0
   22.8507  -20.8190  -11.4161 C   0  0  2  0  0  0  0  0  0  0  0  0
   24.2535  -20.9295  -11.6840 N   0  0  0  0  0  0  0  0  0  0  0  0
   22.1684  -22.1468  -11.5853 C   0  0  0  0  0  0  0  0  0  0  0  0
   21.0920  -22.4496  -11.0136 O   0  0  0  0  0  0  0  0  0  0  0  0
   22.6917  -23.1617  -12.4030 O   0  0  0  0  0  0  0  0  0  0  0  0
  2  3  1  0
  2  1  1  6
  4  5  1  0
  4  3  1  0
  6  5  1  0
  7  6  1  0
  8 10  1  0
  8  2  1  0
  9  8  2  0
 11 10  1  0
 11 12  1  1
 13 12  1  0
 13 14  2  0
 15 14  1  0
 16 15  2  0
 17 18  2  0
 17 16  1  0
 18 13  1  0
 19 26  1  0
 19 11  1  0
 20 19  2  0
 21 22  1  0
 22 23  1  0
 23 24  1  0
 25 24  1  6
 25 27  1  0
 25 26  1  0
 27 29  1  0
 28 27  2  0
M  END
$$$$
