GAF.pdb
     RDKit          3D

 21 21  0  0  1  0  0  0  0  0999 V2000
   12.0501  -12.9716  -12.4489 N   0  0  0  0  0  0  0  0  0  0  0  0
   11.9685  -11.5731  -12.1200 C   0  0  0  0  0  0  0  0  0  0  0  0
   13.2695  -10.8752  -12.4265 C   0  0  0  0  0  0  0  0  0  0  0  0
   14.2620  -11.5387  -12.7769 O   0  0  0  0  0  0  0  0  0  0  0  0
   14.7467   -8.2738  -13.9503 C   0  0  0  0  0  0  0  0  0  0  0  0
   14.5953   -8.7278  -12.5142 C   0  0  2  0  0  0  0  0  0  0  0  0
   13.3597   -9.4606  -12.3144 N   0  0  0  0  0  0  0  0  0  0  0  0
   14.5977   -7.5691  -11.5756 C   0  0  0  0  0  0  0  0  0  0  0  0
   13.5595   -6.8713  -11.4109 O   0  0  0  0  0  0  0  0  0  0  0  0
   15.7427   -7.1901  -10.8278 N   0  0  0  0  0  0  0  0  0  0  0  0
   15.7197   -6.0103   -9.9367 C   0  0  1  0  0  0  0  0  0  0  0  0
   15.8951   -6.4081   -8.5183 C   0  0  0  0  0  0  0  0  0  0  0  0
   14.6301   -6.9361   -7.9712 C   0  0  0  0  0  0  0  0  0  0  0  0
   13.6670   -6.0617   -7.4478 C   0  0  0  0  0  0  0  0  0  0  0  0
   12.4579   -6.4913   -6.9484 C   0  0  0  0  0  0  0  0  0  0  0  0
   12.1829   -7.8247   -6.9626 C   0  0  0  0  0  0  0  0  0  0  0  0
   13.0866   -8.7318   -7.4629 C   0  0  0  0  0  0  0  0  0  0  0  0
   14.2912   -8.2846   -7.9584 C   0  0  0  0  0  0  0  0  0  0  0  0
   16.7793   -5.1022  -10.3719 C   0  0  0  0  0  0  0  0  0  0  0  0
   16.8641   -3.9514   -9.8764 O   0  0  0  0  0  0  0  0  0  0  0  0
   17.7178   -5.4727  -11.3350 O   0  0  0  0  0  0  0  0  0  0  0  0
  1  2  1  0
  3  2  1  0
  3  4  2  0
  6  5  1  6
  6  7  1  0
  7  3  1  0
  8 10  1  0
  8  6  1  0
  9  8  2  0
 11 10  1  0
 11 12  1  1
 12 13  1  0
 13 14  2  0
 13 18  1  0
 14 15  1  0
 15 16  2  0
 17 16  1  0
 18 17  2  0
 19 11  1  0
 20 19  2  0
 21 19  1  0
M  END
$$$$
