GAF.pdb
     RDKit          3D

 21 21  0  0  1  0  0  0  0  0999 V2000
   30.3514  -23.2233  -16.8565 N   0  0  0  0  0  0  0  0  0  0  0  0
   29.0785  -23.4041  -16.2101 C   0  0  0  0  0  0  0  0  0  0  0  0
   28.5804  -22.1015  -15.6370 C   0  0  0  0  0  0  0  0  0  0  0  0
   29.0009  -21.0223  -16.0918 O   0  0  0  0  0  0  0  0  0  0  0  0
   25.7606  -20.8565  -15.5487 C   0  0  0  0  0  0  0  0  0  0  0  0
   26.6807  -21.0350  -14.3600 C   0  0  2  0  0  0  0  0  0  0  0  0
   27.6313  -22.1086  -14.5783 N   0  0  0  0  0  0  0  0  0  0  0  0
   25.9123  -21.3484  -13.1211 C   0  0  0  0  0  0  0  0  0  0  0  0
   25.3597  -22.4730  -12.9729 O   0  0  0  0  0  0  0  0  0  0  0  0
   25.7597  -20.4209  -12.0579 N   0  0  0  0  0  0  0  0  0  0  0  0
   25.0397  -20.7870  -10.8192 C   0  0  1  0  0  0  0  0  0  0  0  0
   25.3588  -19.8463   -9.7175 C   0  0  0  0  0  0  0  0  0  0  0  0
   26.6570  -20.1908   -9.1056 C   0  0  0  0  0  0  0  0  0  0  0  0
   27.5622  -21.0171   -9.7869 C   0  0  0  0  0  0  0  0  0  0  0  0
   28.7981  -21.3516   -9.2806 C   0  0  0  0  0  0  0  0  0  0  0  0
   29.1597  -20.8591   -8.0638 C   0  0  0  0  0  0  0  0  0  0  0  0
   28.3161  -20.0437   -7.3475 C   0  0  0  0  0  0  0  0  0  0  0  0
   27.0836  -19.7192   -7.8691 C   0  0  0  0  0  0  0  0  0  0  0  0
   23.6093  -20.7921  -11.1201 C   0  0  0  0  0  0  0  0  0  0  0  0
   23.1731  -20.1579  -12.1124 O   0  0  0  0  0  0  0  0  0  0  0  0
   22.6929  -21.4879  -10.3316 O   0  0  0  0  0  0  0  0  0  0  0  0
  1  2  1  0
  3  2  1  0
  3  4  2  0
  6  5  1  6
  6  7  1  0
  7  3  1  0
  8 10  1  0
  8  6  1  0
  9  8  2  0
 11 10  1  0
 11 12  1  1
 12 13  1  0
 13 14  2  0
 13 18  1  0
 14 15  1  0
 15 16  2  0
 17 16  1  0
 18 17  2  0
 19 11  1  0
 20 19  2  0
 21 19  1  0
M  END
$$$$
