GAF.pdb
     RDKit          3D

 21 21  0  0  1  0  0  0  0  0999 V2000
   16.9071  -11.5639  -18.0472 N   0  0  0  0  0  0  0  0  0  0  0  0
   18.1360  -10.9966  -18.5359 C   0  0  0  0  0  0  0  0  0  0  0  0
   19.0385  -10.6105  -17.3915 C   0  0  0  0  0  0  0  0  0  0  0  0
   18.5471  -10.2943  -16.2930 O   0  0  0  0  0  0  0  0  0  0  0  0
   22.7918  -10.5402  -16.8509 C   0  0  0  0  0  0  0  0  0  0  0  0
   21.3719  -10.0933  -16.5761 C   0  0  2  0  0  0  0  0  0  0  0  0
   20.4493  -10.6083  -17.5697 N   0  0  0  0  0  0  0  0  0  0  0  0
   21.2615   -8.6062  -16.5755 C   0  0  0  0  0  0  0  0  0  0  0  0
   21.0285   -7.9772  -17.6442 O   0  0  0  0  0  0  0  0  0  0  0  0
   21.4088   -7.8265  -15.3989 N   0  0  0  0  0  0  0  0  0  0  0  0
   21.2911   -6.3530  -15.4367 C   0  0  1  0  0  0  0  0  0  0  0  0
   20.6550   -5.8356  -14.2004 C   0  0  0  0  0  0  0  0  0  0  0  0
   20.4916   -4.3709  -14.2792 C   0  0  0  0  0  0  0  0  0  0  0  0
   21.5202   -3.5209  -13.8482 C   0  0  0  0  0  0  0  0  0  0  0  0
   21.4378   -2.1485  -13.9215 C   0  0  0  0  0  0  0  0  0  0  0  0
   20.3077   -1.5892  -14.4353 C   0  0  0  0  0  0  0  0  0  0  0  0
   19.2648   -2.3695  -14.8747 C   0  0  0  0  0  0  0  0  0  0  0  0
   19.3642   -3.7407  -14.7941 C   0  0  0  0  0  0  0  0  0  0  0  0
   22.6334   -5.8032  -15.6173 C   0  0  0  0  0  0  0  0  0  0  0  0
   23.6183   -6.3552  -15.0673 O   0  0  0  0  0  0  0  0  0  0  0  0
   22.8662   -4.6669  -16.3921 O   0  0  0  0  0  0  0  0  0  0  0  0
  1  2  1  0
  3  2  1  0
  3  4  2  0
  6  5  1  6
  6  7  1  0
  7  3  1  0
  8 10  1  0
  8  6  1  0
  9  8  2  0
 11 10  1  0
 11 12  1  1
 12 13  1  0
 13 14  2  0
 13 18  1  0
 14 15  1  0
 15 16  2  0
 17 16  1  0
 18 17  2  0
 19 11  1  0
 20 19  2  0
 21 19  1  0
M  END
$$$$
