GAF.pdb
     RDKit          3D

 21 21  0  0  1  0  0  0  0  0999 V2000
   29.0708  -20.0111  -19.4021 N   0  0  0  0  0  0  0  0  0  0  0  0
   27.8088  -20.7023  -19.3799 C   0  0  0  0  0  0  0  0  0  0  0  0
   26.7511  -19.8618  -18.7105 C   0  0  0  0  0  0  0  0  0  0  0  0
   26.4456  -18.7536  -19.1866 O   0  0  0  0  0  0  0  0  0  0  0  0
   23.7594  -19.7794  -17.9807 C   0  0  0  0  0  0  0  0  0  0  0  0
   24.9050  -19.7302  -16.9925 C   0  0  2  0  0  0  0  0  0  0  0  0
   26.1046  -20.3371  -17.5365 N   0  0  0  0  0  0  0  0  0  0  0  0
   24.5628  -20.4443  -15.7289 C   0  0  0  0  0  0  0  0  0  0  0  0
   24.5299  -21.7050  -15.6901 O   0  0  0  0  0  0  0  0  0  0  0  0
   24.2601  -19.7637  -14.5210 N   0  0  0  0  0  0  0  0  0  0  0  0
   24.1060  -20.4972  -13.2463 C   0  0  1  0  0  0  0  0  0  0  0  0
   24.8823  -19.8506  -12.1601 C   0  0  0  0  0  0  0  0  0  0  0  0
   26.3297  -20.0390  -12.3788 C   0  0  0  0  0  0  0  0  0  0  0  0
   26.9751  -21.1837  -11.8897 C   0  0  0  0  0  0  0  0  0  0  0  0
   28.3159  -21.4286  -12.0849 C   0  0  0  0  0  0  0  0  0  0  0  0
   29.0501  -20.5197  -12.7840 C   0  0  0  0  0  0  0  0  0  0  0  0
   28.4744  -19.3780  -13.2889 C   0  0  0  0  0  0  0  0  0  0  0  0
   27.1319  -19.1491  -13.0844 C   0  0  0  0  0  0  0  0  0  0  0  0
   22.6799  -20.5443  -12.9288 C   0  0  0  0  0  0  0  0  0  0  0  0
   21.8967  -19.6977  -13.4258 O   0  0  0  0  0  0  0  0  0  0  0  0
   22.1458  -21.5123  -12.0783 O   0  0  0  0  0  0  0  0  0  0  0  0
  1  2  1  0
  3  2  1  0
  3  4  2  0
  6  5  1  6
  6  7  1  0
  7  3  1  0
  8 10  1  0
  8  6  1  0
  9  8  2  0
 11 10  1  0
 11 12  1  1
 12 13  1  0
 13 14  2  0
 13 18  1  0
 14 15  1  0
 15 16  2  0
 17 16  1  0
 18 17  2  0
 19 11  1  0
 20 19  2  0
 21 19  1  0
M  END
$$$$
