GAF.pdb
     RDKit          3D

 21 21  0  0  1  0  0  0  0  0999 V2000
   14.7805   -7.7457  -15.9997 N   0  0  0  0  0  0  0  0  0  0  0  0
   15.1614   -9.1007  -15.7002 C   0  0  0  0  0  0  0  0  0  0  0  0
   16.5273   -9.1435  -15.0632 C   0  0  0  0  0  0  0  0  0  0  0  0
   16.8005   -8.3696  -14.1280 O   0  0  0  0  0  0  0  0  0  0  0  0
   19.4686  -11.5039  -15.2613 C   0  0  0  0  0  0  0  0  0  0  0  0
   18.8392  -10.1561  -14.9810 C   0  0  2  0  0  0  0  0  0  0  0  0
   17.5006  -10.0678  -15.5324 N   0  0  0  0  0  0  0  0  0  0  0  0
   19.6487   -9.0475  -15.5635 C   0  0  0  0  0  0  0  0  0  0  0  0
   19.4490   -8.6568  -16.7465 O   0  0  0  0  0  0  0  0  0  0  0  0
   20.6697   -8.3801  -14.8381 N   0  0  0  0  0  0  0  0  0  0  0  0
   21.5019   -7.3351  -15.4722 C   0  0  1  0  0  0  0  0  0  0  0  0
   22.1421   -6.4693  -14.4518 C   0  0  0  0  0  0  0  0  0  0  0  0
   22.9537   -5.4214  -15.1012 C   0  0  0  0  0  0  0  0  0  0  0  0
   22.3744   -4.1927  -15.4486 C   0  0  0  0  0  0  0  0  0  0  0  0
   23.0853   -3.1675  -16.0313 C   0  0  0  0  0  0  0  0  0  0  0  0
   24.4106   -3.3531  -16.2823 C   0  0  0  0  0  0  0  0  0  0  0  0
   25.0357   -4.5354  -15.9645 C   0  0  0  0  0  0  0  0  0  0  0  0
   24.3094   -5.5501  -15.3821 C   0  0  0  0  0  0  0  0  0  0  0  0
   22.4985   -8.0043  -16.3064 C   0  0  0  0  0  0  0  0  0  0  0  0
   23.1082   -9.0123  -15.8714 O   0  0  0  0  0  0  0  0  0  0  0  0
   22.8037   -7.5570  -17.5919 O   0  0  0  0  0  0  0  0  0  0  0  0
  1  2  1  0
  3  2  1  0
  3  4  2  0
  6  5  1  6
  6  7  1  0
  7  3  1  0
  8 10  1  0
  8  6  1  0
  9  8  2  0
 11 10  1  0
 11 12  1  1
 12 13  1  0
 13 14  2  0
 13 18  1  0
 14 15  1  0
 15 16  2  0
 17 16  1  0
 18 17  2  0
 19 11  1  0
 20 19  2  0
 21 19  1  0
M  END
$$$$
