GAF.pdb
     RDKit          3D

 21 21  0  0  1  0  0  0  0  0999 V2000
   20.1230  -14.3566  -16.8816 N   0  0  0  0  0  0  0  0  0  0  0  0
   19.2093  -13.4492  -16.2393 C   0  0  0  0  0  0  0  0  0  0  0  0
   19.4674  -12.0303  -16.6793 C   0  0  0  0  0  0  0  0  0  0  0  0
   20.5922  -11.5245  -16.5148 O   0  0  0  0  0  0  0  0  0  0  0  0
   17.4460   -9.4909  -18.6501 C   0  0  0  0  0  0  0  0  0  0  0  0
   18.6192   -9.9334  -17.8021 C   0  0  2  0  0  0  0  0  0  0  0  0
   18.4252  -11.2731  -17.2814 N   0  0  0  0  0  0  0  0  0  0  0  0
   18.8278   -9.0175  -16.6440 C   0  0  0  0  0  0  0  0  0  0  0  0
   18.1837   -9.1787  -15.5711 O   0  0  0  0  0  0  0  0  0  0  0  0
   19.7431   -7.9335  -16.6785 N   0  0  0  0  0  0  0  0  0  0  0  0
   19.9418   -7.0609  -15.5013 C   0  0  1  0  0  0  0  0  0  0  0  0
   21.3848   -6.8442  -15.2339 C   0  0  0  0  0  0  0  0  0  0  0  0
   22.0247   -8.1042  -14.8078 C   0  0  0  0  0  0  0  0  0  0  0  0
   21.7681   -8.6315  -13.5342 C   0  0  0  0  0  0  0  0  0  0  0  0
   22.3132   -9.8153  -13.0900 C   0  0  0  0  0  0  0  0  0  0  0  0
   23.1388  -10.5066  -13.9232 C   0  0  0  0  0  0  0  0  0  0  0  0
   23.4286  -10.0414  -15.1839 C   0  0  0  0  0  0  0  0  0  0  0  0
   22.8745   -8.8555  -15.6120 C   0  0  0  0  0  0  0  0  0  0  0  0
   19.2510   -5.7990  -15.7602 C   0  0  0  0  0  0  0  0  0  0  0  0
   18.8142   -5.5456  -16.9101 O   0  0  0  0  0  0  0  0  0  0  0  0
   19.0548   -4.8475  -14.7594 O   0  0  0  0  0  0  0  0  0  0  0  0
  1  2  1  0
  3  2  1  0
  3  4  2  0
  6  5  1  1
  6  7  1  0
  7  3  1  0
  8 10  1  0
  8  6  1  0
  9  8  2  0
 11 10  1  0
 11 12  1  6
 12 13  1  0
 13 14  2  0
 13 18  1  0
 14 15  1  0
 15 16  2  0
 17 16  1  0
 18 17  2  0
 19 11  1  0
 20 19  2  0
 21 19  1  0
M  END
$$$$
