GAF.pdb
     RDKit          3D

 21 21  0  0  1  0  0  0  0  0999 V2000
   28.8460  -22.3297  -16.3151 N   0  0  0  0  0  0  0  0  0  0  0  0
   29.0434  -22.3900  -14.8910 C   0  0  0  0  0  0  0  0  0  0  0  0
   28.4003  -21.2075  -14.2118 C   0  0  0  0  0  0  0  0  0  0  0  0
   28.3877  -20.0988  -14.7765 O   0  0  0  0  0  0  0  0  0  0  0  0
   25.6349  -20.2692  -13.2230 C   0  0  0  0  0  0  0  0  0  0  0  0
   26.8754  -20.4043  -12.3661 C   0  0  2  0  0  0  0  0  0  0  0  0
   27.8094  -21.3614  -12.9276 N   0  0  0  0  0  0  0  0  0  0  0  0
   26.5349  -20.8525  -10.9852 C   0  0  0  0  0  0  0  0  0  0  0  0
   26.2883  -22.0662  -10.7443 O   0  0  0  0  0  0  0  0  0  0  0  0
   26.4693  -19.9603   -9.8835 N   0  0  0  0  0  0  0  0  0  0  0  0
   26.1479  -20.4445   -8.5238 C   0  0  1  0  0  0  0  0  0  0  0  0
   26.2812  -19.3570   -7.5236 C   0  0  0  0  0  0  0  0  0  0  0  0
   27.3877  -19.6476   -6.5910 C   0  0  0  0  0  0  0  0  0  0  0  0
   27.4511  -20.8843   -5.9332 C   0  0  0  0  0  0  0  0  0  0  0  0
   28.4715  -21.2239   -5.0735 C   0  0  0  0  0  0  0  0  0  0  0  0
   29.4649  -20.3197   -4.8506 C   0  0  0  0  0  0  0  0  0  0  0  0
   29.4588  -19.0906   -5.4661 C   0  0  0  0  0  0  0  0  0  0  0  0
   28.4304  -18.7675   -6.3231 C   0  0  0  0  0  0  0  0  0  0  0  0
   24.7885  -20.9811   -8.5515 C   0  0  0  0  0  0  0  0  0  0  0  0
   23.9628  -20.5588   -9.3983 O   0  0  0  0  0  0  0  0  0  0  0  0
   24.3656  -21.9634   -7.6559 O   0  0  0  0  0  0  0  0  0  0  0  0
  1  2  1  0
  3  2  1  0
  3  4  2  0
  6  5  1  6
  6  7  1  0
  7  3  1  0
  8 10  1  0
  8  6  1  0
  9  8  2  0
 11 10  1  0
 11 12  1  1
 12 13  1  0
 13 14  2  0
 13 18  1  0
 14 15  1  0
 15 16  2  0
 17 16  1  0
 18 17  2  0
 19 11  1  0
 20 19  2  0
 21 19  1  0
M  END
$$$$
