GAF.pdb
     RDKit          3D

 21 21  0  0  1  0  0  0  0  0999 V2000
   26.1581  -18.0279  -17.8301 N   0  0  0  0  0  0  0  0  0  0  0  0
   26.4102  -17.9996  -16.4136 C   0  0  0  0  0  0  0  0  0  0  0  0
   26.5016  -19.3987  -15.8591 C   0  0  0  0  0  0  0  0  0  0  0  0
   26.2317  -20.3727  -16.5848 O   0  0  0  0  0  0  0  0  0  0  0  0
   28.0759  -20.9483  -12.8334 C   0  0  0  0  0  0  0  0  0  0  0  0
   27.0083  -20.9172  -13.9060 C   0  0  2  0  0  0  0  0  0  0  0  0
   26.8959  -19.6025  -14.5082 N   0  0  0  0  0  0  0  0  0  0  0  0
   25.6727  -21.2837  -13.3532 C   0  0  0  0  0  0  0  0  0  0  0  0
   25.4708  -22.4283  -12.8623 O   0  0  0  0  0  0  0  0  0  0  0  0
   24.5730  -20.3868  -13.3463 N   0  0  0  0  0  0  0  0  0  0  0  0
   23.3199  -20.7166  -12.6339 C   0  0  1  0  0  0  0  0  0  0  0  0
   23.0545  -19.7475  -11.5424 C   0  0  0  0  0  0  0  0  0  0  0  0
   23.8490  -20.0885  -10.3463 C   0  0  0  0  0  0  0  0  0  0  0  0
   25.1515  -19.5908  -10.1977 C   0  0  0  0  0  0  0  0  0  0  0  0
   25.9313  -19.8513   -9.0932 C   0  0  0  0  0  0  0  0  0  0  0  0
   25.4167  -20.6267   -8.0994 C   0  0  0  0  0  0  0  0  0  0  0  0
   24.1460  -21.1437   -8.1868 C   0  0  0  0  0  0  0  0  0  0  0  0
   23.3798  -20.8730   -9.2986 C   0  0  0  0  0  0  0  0  0  0  0  0
   22.2375  -20.7245  -13.6162 C   0  0  0  0  0  0  0  0  0  0  0  0
   21.0894  -21.1099  -13.2838 O   0  0  0  0  0  0  0  0  0  0  0  0
   22.4354  -20.3125  -14.9341 O   0  0  0  0  0  0  0  0  0  0  0  0
  1  2  1  0
  3  2  1  0
  3  4  2  0
  6  5  1  1
  6  7  1  0
  7  3  1  0
  8 10  1  0
  8  6  1  0
  9  8  2  0
 11 10  1  0
 11 12  1  1
 12 13  1  0
 13 14  2  0
 13 18  1  0
 14 15  1  0
 15 16  2  0
 17 16  1  0
 18 17  2  0
 19 11  1  0
 20 19  2  0
 21 19  1  0
M  END
$$$$
