GAF.pdb
     RDKit          3D

 21 21  0  0  1  0  0  0  0  0999 V2000
   27.9824  -20.5189  -15.4197 N   0  0  0  0  0  0  0  0  0  0  0  0
   27.4123  -21.4370  -14.4695 C   0  0  0  0  0  0  0  0  0  0  0  0
   26.8421  -20.6961  -13.2865 C   0  0  0  0  0  0  0  0  0  0  0  0
   27.3782  -19.6431  -12.8966 O   0  0  0  0  0  0  0  0  0  0  0  0
   23.6133  -20.9174  -11.3532 C   0  0  0  0  0  0  0  0  0  0  0  0
   25.0691  -20.5281  -11.4963 C   0  0  2  0  0  0  0  0  0  0  0  0
   25.6931  -21.2020  -12.6188 N   0  0  0  0  0  0  0  0  0  0  0  0
   25.8449  -20.8680  -10.2690 C   0  0  0  0  0  0  0  0  0  0  0  0
   26.2268  -22.0515  -10.0555 O   0  0  0  0  0  0  0  0  0  0  0  0
   26.1925  -19.9021   -9.2892 N   0  0  0  0  0  0  0  0  0  0  0  0
   26.9490  -20.2795   -8.0759 C   0  0  1  0  0  0  0  0  0  0  0  0
   27.5412  -19.0866   -7.4225 C   0  0  0  0  0  0  0  0  0  0  0  0
   28.2312  -19.4714   -6.1758 C   0  0  0  0  0  0  0  0  0  0  0  0
   27.7333  -19.0514   -4.9341 C   0  0  0  0  0  0  0  0  0  0  0  0
   28.3166  -19.4000   -3.7366 C   0  0  0  0  0  0  0  0  0  0  0  0
   29.4270  -20.1877   -3.7566 C   0  0  0  0  0  0  0  0  0  0  0  0
   29.9626  -20.6315   -4.9423 C   0  0  0  0  0  0  0  0  0  0  0  0
   29.3662  -20.2734   -6.1308 C   0  0  0  0  0  0  0  0  0  0  0  0
   26.0319  -20.9800   -7.1788 C   0  0  0  0  0  0  0  0  0  0  0  0
   26.4736  -21.8292   -6.3658 O   0  0  0  0  0  0  0  0  0  0  0  0
   24.6585  -20.7363   -7.1917 O   0  0  0  0  0  0  0  0  0  0  0  0
  1  2  1  0
  3  2  1  0
  3  4  2  0
  6  5  1  1
  6  7  1  0
  7  3  1  0
  8 10  1  0
  8  6  1  0
  9  8  2  0
 11 10  1  0
 11 12  1  1
 12 13  1  0
 13 14  2  0
 13 18  1  0
 14 15  1  0
 15 16  2  0
 17 16  1  0
 18 17  2  0
 19 11  1  0
 20 19  2  0
 21 19  1  0
M  END
$$$$
