GAF.pdb
     RDKit          3D

 21 21  0  0  1  0  0  0  0  0999 V2000
   27.3397  -17.4242  -15.2537 N   0  0  0  0  0  0  0  0  0  0  0  0
   27.6816  -18.6255  -14.5391 C   0  0  0  0  0  0  0  0  0  0  0  0
   26.6489  -18.9319  -13.4840 C   0  0  0  0  0  0  0  0  0  0  0  0
   26.0250  -18.0038  -12.9384 O   0  0  0  0  0  0  0  0  0  0  0  0
   24.6768  -21.9026  -12.4501 C   0  0  0  0  0  0  0  0  0  0  0  0
   25.4421  -20.6499  -12.0808 C   0  0  2  0  0  0  0  0  0  0  0  0
   26.3901  -20.2803  -13.1145 N   0  0  0  0  0  0  0  0  0  0  0  0
   26.1989  -20.8314  -10.8089 C   0  0  0  0  0  0  0  0  0  0  0  0
   27.2486  -21.5308  -10.7780 O   0  0  0  0  0  0  0  0  0  0  0  0
   25.7927  -20.2415   -9.5837 N   0  0  0  0  0  0  0  0  0  0  0  0
   26.5585  -20.4591   -8.3376 C   0  0  1  0  0  0  0  0  0  0  0  0
   27.1793  -19.1975   -7.8645 C   0  0  0  0  0  0  0  0  0  0  0  0
   27.9280  -19.4292   -6.6139 C   0  0  0  0  0  0  0  0  0  0  0  0
   27.3927  -19.0211   -5.3838 C   0  0  0  0  0  0  0  0  0  0  0  0
   28.0304  -19.2333   -4.1821 C   0  0  0  0  0  0  0  0  0  0  0  0
   29.2351  -19.8676   -4.1859 C   0  0  0  0  0  0  0  0  0  0  0  0
   29.8116  -20.2917   -5.3596 C   0  0  0  0  0  0  0  0  0  0  0  0
   29.1598  -20.0714   -6.5525 C   0  0  0  0  0  0  0  0  0  0  0  0
   25.6416  -21.0099   -7.3413 C   0  0  0  0  0  0  0  0  0  0  0  0
   24.4291  -20.6830   -7.3538 O   0  0  0  0  0  0  0  0  0  0  0  0
   26.0706  -21.9019   -6.3585 O   0  0  0  0  0  0  0  0  0  0  0  0
  1  2  1  0
  3  2  1  0
  3  4  2  0
  6  5  1  6
  6  7  1  0
  7  3  1  0
  8 10  1  0
  8  6  1  0
  9  8  2  0
 11 10  1  0
 11 12  1  1
 12 13  1  0
 13 14  2  0
 13 18  1  0
 14 15  1  0
 15 16  2  0
 17 16  1  0
 18 17  2  0
 19 11  1  0
 20 19  2  0
 21 19  1  0
M  END
$$$$
