NHV.pdb
     RDKit          3D

 26 26  0  0  1  0  0  0  0  0999 V2000
    6.6775  -14.7370   16.9924 N   0  0  0  0  0  0  0  0  0  0  0  0
    7.3805  -14.0725   18.0318 C   0  0  0  0  0  0  0  0  0  0  0  0
    8.3025  -13.2870   17.6987 O   0  0  0  0  0  0  0  0  0  0  0  0
    7.0221  -14.3128   19.4460 C   0  0  0  0  0  0  0  0  0  0  0  0
    8.2388  -14.7784   20.2079 C   0  0  2  0  0  0  0  0  0  0  0  0
    8.8185  -15.9461   19.6012 N   0  0  0  0  0  0  0  0  0  0  0  0
    7.8377  -15.0501   21.6267 C   0  0  0  0  0  0  0  0  0  0  0  0
    7.1897  -14.1723   22.2437 O   0  0  0  0  0  0  0  0  0  0  0  0
    8.2012  -16.2862   22.2264 N   0  0  0  0  0  0  0  0  0  0  0  0
    7.8272  -16.6067   23.5645 C   0  0  1  0  0  0  0  0  0  0  0  0
    7.9955  -18.0715   23.8943 C   0  0  0  0  0  0  0  0  0  0  0  0
    7.5784  -18.3192   25.2895 C   0  0  0  0  0  0  0  0  0  0  0  0
    6.9763  -17.4567   26.1710 C   0  0  0  0  0  0  0  0  0  0  0  0
    6.7802  -18.1238   27.3371 N   0  0  0  0  0  0  0  0  0  0  0  0
    7.2451  -19.3705   27.1946 C   0  0  0  0  0  0  0  0  0  0  0  0
    7.7222  -19.4719   25.9564 N   0  0  0  0  0  0  0  0  0  0  0  0
    8.5874  -15.7348   24.4849 C   0  0  0  0  0  0  0  0  0  0  0  0
    9.8386  -15.6238   24.4820 O   0  0  0  0  0  0  0  0  0  0  0  0
    6.3381  -13.0488   27.0242 C   0  0  0  0  0  0  0  0  0  0  0  0
    7.7237  -12.8324   26.4752 C   0  0  2  0  0  0  0  0  0  0  0  0
    7.6264  -12.2074   25.1100 C   0  0  0  0  0  0  0  0  0  0  0  0
    8.5186  -14.1056   26.3860 C   0  0  2  0  0  0  0  0  0  0  0  0
    7.8416  -14.9730   25.4356 N   0  0  0  0  0  0  0  0  0  0  0  0
    8.6131  -14.7970   27.6878 C   0  0  0  0  0  0  0  0  0  0  0  0
    7.9901  -15.8702   27.8919 O   0  0  0  0  0  0  0  0  0  0  0  0
    9.3832  -14.3002   28.7300 O   0  0  0  0  0  0  0  0  0  0  0  0
  2  1  1  0
  2  3  2  0
  4  2  1  0
  5  4  1  0
  5  6  1  6
  7  5  1  0
  8  7  2  0
  9  7  1  0
 10  9  1  0
 11 12  1  0
 10 11  1  1
 12 13  2  0
 13 14  1  0
 15 14  1  0
 16 12  1  0
 16 15  2  0
 17 23  1  0
 17 10  1  0
 18 17  2  0
 20 19  1  6
 21 20  1  0
 22 20  1  0
 22 23  1  6
 24 22  1  0
 25 24  2  0
 26 24  1  0
M  END
$$$$
