NHV.pdb
     RDKit          3D

 26 26  0  0  1  0  0  0  0  0999 V2000
    8.1437  -12.3681   17.1097 N   0  0  0  0  0  0  0  0  0  0  0  0
    8.0257  -13.7403   17.4552 C   0  0  0  0  0  0  0  0  0  0  0  0
    8.3985  -14.5868   16.6052 O   0  0  0  0  0  0  0  0  0  0  0  0
    7.4812  -14.1330   18.7725 C   0  0  0  0  0  0  0  0  0  0  0  0
    8.5611  -14.0292   19.8217 C   0  0  2  0  0  0  0  0  0  0  0  0
    9.7012  -14.8352   19.4779 N   0  0  0  0  0  0  0  0  0  0  0  0
    7.9847  -14.4448   21.1418 C   0  0  0  0  0  0  0  0  0  0  0  0
    6.9564  -13.8600   21.5563 O   0  0  0  0  0  0  0  0  0  0  0  0
    8.6164  -15.4822   21.8796 N   0  0  0  0  0  0  0  0  0  0  0  0
    8.1250  -15.9020   23.1506 C   0  0  1  0  0  0  0  0  0  0  0  0
    8.3201  -17.3784   23.4055 C   0  0  0  0  0  0  0  0  0  0  0  0
    7.5094  -18.1604   22.4499 C   0  0  0  0  0  0  0  0  0  0  0  0
    6.2405  -17.9070   21.9928 C   0  0  0  0  0  0  0  0  0  0  0  0
    5.9044  -18.8979   21.1278 N   0  0  0  0  0  0  0  0  0  0  0  0
    6.9318  -19.7511   21.0422 C   0  0  0  0  0  0  0  0  0  0  0  0
    7.8898  -19.2928   21.8441 N   0  0  0  0  0  0  0  0  0  0  0  0
    8.7534  -15.0658   24.1951 C   0  0  0  0  0  0  0  0  0  0  0  0
    9.9868  -14.8416   24.2743 O   0  0  0  0  0  0  0  0  0  0  0  0
    6.1026  -13.0627   26.9287 C   0  0  0  0  0  0  0  0  0  0  0  0
    7.4524  -12.5500   26.5003 C   0  0  2  0  0  0  0  0  0  0  0  0
    7.2970  -11.7169   25.2571 C   0  0  0  0  0  0  0  0  0  0  0  0
    8.4380  -13.6554   26.2407 C   0  0  2  0  0  0  0  0  0  0  0  0
    7.8936  -14.4791   25.1734 N   0  0  0  0  0  0  0  0  0  0  0  0
    8.6601  -14.4969   27.4340 C   0  0  0  0  0  0  0  0  0  0  0  0
    8.1976  -15.6650   27.4916 O   0  0  0  0  0  0  0  0  0  0  0  0
    9.3794  -14.0426   28.5305 O   0  0  0  0  0  0  0  0  0  0  0  0
  2  1  1  0
  2  3  2  0
  4  2  1  0
  5  4  1  0
  5  6  1  6
  7  5  1  0
  8  7  2  0
  9  7  1  0
 10  9  1  0
 11 12  1  0
 10 11  1  1
 12 13  2  0
 13 14  1  0
 15 14  1  0
 16 12  1  0
 16 15  2  0
 17 23  1  0
 17 10  1  0
 18 17  2  0
 20 19  1  6
 21 20  1  0
 22 20  1  0
 22 23  1  6
 24 22  1  0
 25 24  2  0
 26 24  1  0
M  END
$$$$
