NHV.pdb
     RDKit          3D

 26 26  0  0  1  0  0  0  0  0999 V2000
    9.5921  -13.8042   17.2615 N   0  0  0  0  0  0  0  0  0  0  0  0
    8.2007  -13.6263   17.4821 C   0  0  0  0  0  0  0  0  0  0  0  0
    7.4953  -13.2923   16.4979 O   0  0  0  0  0  0  0  0  0  0  0  0
    7.6272  -13.8325   18.8292 C   0  0  0  0  0  0  0  0  0  0  0  0
    8.7185  -14.2335   19.7916 C   0  0  2  0  0  0  0  0  0  0  0  0
    9.5578  -15.2576   19.2308 N   0  0  0  0  0  0  0  0  0  0  0  0
    8.0822  -14.6960   21.0679 C   0  0  0  0  0  0  0  0  0  0  0  0
    7.2588  -13.9395   21.6342 O   0  0  0  0  0  0  0  0  0  0  0  0
    8.4287  -15.9697   21.5947 N   0  0  0  0  0  0  0  0  0  0  0  0
    7.9043  -16.4329   22.8370 C   0  0  1  0  0  0  0  0  0  0  0  0
    8.1313  -17.9092   23.0648 C   0  0  0  0  0  0  0  0  0  0  0  0
    7.5284  -18.3133   24.3513 C   0  0  0  0  0  0  0  0  0  0  0  0
    7.4864  -17.6195   25.5347 C   0  0  0  0  0  0  0  0  0  0  0  0
    6.8293  -18.3855   26.4428 N   0  0  0  0  0  0  0  0  0  0  0  0
    6.4678  -19.5290   25.8489 C   0  0  0  0  0  0  0  0  0  0  0  0
    6.8961  -19.4696   24.5904 N   0  0  0  0  0  0  0  0  0  0  0  0
    8.4716  -15.6053   23.9226 C   0  0  0  0  0  0  0  0  0  0  0  0
    9.6984  -15.3822   24.0743 O   0  0  0  0  0  0  0  0  0  0  0  0
    6.4357  -12.3418   25.0278 C   0  0  0  0  0  0  0  0  0  0  0  0
    6.8707  -13.1827   26.1990 C   0  0  2  0  0  0  0  0  0  0  0  0
    7.2580  -12.2832   27.3413 C   0  0  0  0  0  0  0  0  0  0  0  0
    8.0218  -14.0910   25.8663 C   0  0  2  0  0  0  0  0  0  0  0  0
    7.5570  -15.0261   24.8545 N   0  0  0  0  0  0  0  0  0  0  0  0
    8.4933  -14.8487   27.0431 C   0  0  0  0  0  0  0  0  0  0  0  0
    8.1489  -16.0457   27.2169 O   0  0  0  0  0  0  0  0  0  0  0  0
    9.3264  -14.2814   27.9973 O   0  0  0  0  0  0  0  0  0  0  0  0
  2  1  1  0
  2  3  2  0
  4  2  1  0
  5  4  1  0
  5  6  1  6
  7  5  1  0
  8  7  2  0
  9  7  1  0
 10  9  1  0
 11 12  1  0
 10 11  1  1
 12 13  2  0
 13 14  1  0
 15 14  1  0
 16 12  1  0
 16 15  2  0
 17 23  1  0
 17 10  1  0
 18 17  2  0
 20 19  1  6
 21 20  1  0
 22 20  1  0
 22 23  1  6
 24 22  1  0
 25 24  2  0
 26 24  1  0
M  END
$$$$
