NHV.pdb
     RDKit          3D

 26 26  0  0  1  0  0  0  0  0999 V2000
    8.5475  -12.5326   16.8255 N   0  0  0  0  0  0  0  0  0  0  0  0
    8.1510  -13.8681   17.1002 C   0  0  0  0  0  0  0  0  0  0  0  0
    8.3374  -14.7253   16.2010 O   0  0  0  0  0  0  0  0  0  0  0  0
    7.5434  -14.2121   18.4034 C   0  0  0  0  0  0  0  0  0  0  0  0
    8.6065  -14.2214   19.4746 C   0  0  2  0  0  0  0  0  0  0  0  0
    9.7287  -15.0333   19.0884 N   0  0  0  0  0  0  0  0  0  0  0  0
    7.9941  -14.7184   20.7497 C   0  0  0  0  0  0  0  0  0  0  0  0
    6.9023  -14.2269   21.1203 O   0  0  0  0  0  0  0  0  0  0  0  0
    8.6647  -15.7251   21.4957 N   0  0  0  0  0  0  0  0  0  0  0  0
    8.1545  -16.1984   22.7402 C   0  0  1  0  0  0  0  0  0  0  0  0
    8.4753  -17.6517   23.0003 C   0  0  0  0  0  0  0  0  0  0  0  0
    7.6556  -18.5083   22.1194 C   0  0  0  0  0  0  0  0  0  0  0  0
    6.6220  -18.1475   21.2917 C   0  0  0  0  0  0  0  0  0  0  0  0
    6.1696  -19.2705   20.6775 N   0  0  0  0  0  0  0  0  0  0  0  0
    6.8970  -20.3091   21.1056 C   0  0  0  0  0  0  0  0  0  0  0  0
    7.7870  -19.8332   21.9730 N   0  0  0  0  0  0  0  0  0  0  0  0
    8.6505  -15.3145   23.8162 C   0  0  0  0  0  0  0  0  0  0  0  0
    9.8540  -14.9860   23.9630 O   0  0  0  0  0  0  0  0  0  0  0  0
    6.5677  -12.1543   24.9410 C   0  0  0  0  0  0  0  0  0  0  0  0
    6.9458  -13.0099   26.1212 C   0  0  2  0  0  0  0  0  0  0  0  0
    7.2945  -12.1246   27.2867 C   0  0  0  0  0  0  0  0  0  0  0  0
    8.1007  -13.9270   25.8276 C   0  0  2  0  0  0  0  0  0  0  0  0
    7.6911  -14.8059   24.7442 N   0  0  0  0  0  0  0  0  0  0  0  0
    8.4746  -14.7462   26.9983 C   0  0  0  0  0  0  0  0  0  0  0  0
    7.9357  -15.8647   27.1983 O   0  0  0  0  0  0  0  0  0  0  0  0
    9.4246  -14.3241   27.9178 O   0  0  0  0  0  0  0  0  0  0  0  0
  2  1  1  0
  2  3  2  0
  4  2  1  0
  5  4  1  0
  5  6  1  6
  7  5  1  0
  8  7  2  0
  9  7  1  0
 10  9  1  0
 11 12  1  0
 10 11  1  1
 12 13  2  0
 13 14  1  0
 15 14  1  0
 16 12  1  0
 16 15  2  0
 17 23  1  0
 17 10  1  0
 18 17  2  0
 20 19  1  6
 21 20  1  0
 22 20  1  0
 22 23  1  6
 24 22  1  0
 25 24  2  0
 26 24  1  0
M  END
$$$$
