NHV.pdb
     RDKit          3D

 26 26  0  0  1  0  0  0  0  0999 V2000
   13.5118  -18.3999   19.2553 N   0  0  0  0  0  0  0  0  0  0  0  0
   12.6143  -17.3909   18.8162 C   0  0  0  0  0  0  0  0  0  0  0  0
   12.4133  -17.2911   17.5802 O   0  0  0  0  0  0  0  0  0  0  0  0
   11.9534  -16.5032   19.7965 C   0  0  0  0  0  0  0  0  0  0  0  0
   11.6249  -17.2808   21.0476 C   0  0  2  0  0  0  0  0  0  0  0  0
   10.7341  -18.3732   20.7637 N   0  0  0  0  0  0  0  0  0  0  0  0
   11.0242  -16.3408   22.0492 C   0  0  0  0  0  0  0  0  0  0  0  0
   11.6609  -15.3052   22.3545 O   0  0  0  0  0  0  0  0  0  0  0  0
    9.7594  -16.6491   22.6192 N   0  0  0  0  0  0  0  0  0  0  0  0
    9.1548  -15.8066   23.5979 C   0  0  1  0  0  0  0  0  0  0  0  0
    7.6596  -15.9958   23.7035 C   0  0  0  0  0  0  0  0  0  0  0  0
    7.0906  -14.9743   24.6059 C   0  0  0  0  0  0  0  0  0  0  0  0
    7.1313  -13.6075   24.4888 C   0  0  0  0  0  0  0  0  0  0  0  0
    6.4748  -13.0792   25.5533 N   0  0  0  0  0  0  0  0  0  0  0  0
    6.0332  -14.0838   26.3191 C   0  0  0  0  0  0  0  0  0  0  0  0
    6.4121  -15.2178   25.7349 N   0  0  0  0  0  0  0  0  0  0  0  0
    9.8392  -16.0239   24.8900 C   0  0  0  0  0  0  0  0  0  0  0  0
   10.6157  -16.9825   25.1264 O   0  0  0  0  0  0  0  0  0  0  0  0
    9.9973  -12.7501   27.5418 C   0  0  0  0  0  0  0  0  0  0  0  0
    9.7136  -14.1164   28.1083 C   0  0  2  0  0  0  0  0  0  0  0  0
   10.3369  -14.2288   29.4731 C   0  0  0  0  0  0  0  0  0  0  0  0
   10.2257  -15.2262   27.2325 C   0  0  2  0  0  0  0  0  0  0  0  0
    9.5950  -15.0768   25.9310 N   0  0  0  0  0  0  0  0  0  0  0  0
    9.9012  -16.5608   27.7756 C   0  0  0  0  0  0  0  0  0  0  0  0
   10.6077  -17.0758   28.6795 O   0  0  0  0  0  0  0  0  0  0  0  0
    8.8166  -17.2965   27.3190 O   0  0  0  0  0  0  0  0  0  0  0  0
  2  1  1  0
  2  3  2  0
  4  2  1  0
  5  4  1  0
  5  6  1  6
  7  5  1  0
  8  7  2  0
  9  7  1  0
 10  9  1  0
 11 12  1  0
 10 11  1  1
 12 13  2  0
 13 14  1  0
 15 14  1  0
 16 12  1  0
 16 15  2  0
 17 23  1  0
 17 10  1  0
 18 17  2  0
 20 19  1  6
 21 20  1  0
 22 20  1  0
 22 23  1  6
 24 22  1  0
 25 24  2  0
 26 24  1  0
M  END
$$$$
