NHV.pdb
     RDKit          3D

 26 26  0  0  1  0  0  0  0  0999 V2000
    1.3019  -28.2720   24.5192 N   0  0  0  0  0  0  0  0  0  0  0  0
    1.2887  -27.2929   25.5474 C   0  0  0  0  0  0  0  0  0  0  0  0
    2.2871  -27.2364   26.3077 O   0  0  0  0  0  0  0  0  0  0  0  0
    0.1313  -26.3851   25.6975 C   0  0  0  0  0  0  0  0  0  0  0  0
   -0.9301  -26.7412   24.6853 C   0  0  2  0  0  0  0  0  0  0  0  0
   -0.4937  -26.4473   23.3470 N   0  0  0  0  0  0  0  0  0  0  0  0
   -2.1820  -25.9884   25.0224 C   0  0  0  0  0  0  0  0  0  0  0  0
   -2.3666  -24.8672   24.4933 O   0  0  0  0  0  0  0  0  0  0  0  0
   -3.1163  -26.5637   25.9256 N   0  0  0  0  0  0  0  0  0  0  0  0
   -4.3572  -25.9279   26.2236 C   0  0  1  0  0  0  0  0  0  0  0  0
   -5.4429  -26.9002   26.6220 C   0  0  0  0  0  0  0  0  0  0  0  0
   -5.9537  -27.5954   25.4230 C   0  0  0  0  0  0  0  0  0  0  0  0
   -6.2858  -27.0666   24.2009 C   0  0  0  0  0  0  0  0  0  0  0  0
   -6.7083  -28.0846   23.4082 N   0  0  0  0  0  0  0  0  0  0  0  0
   -6.6444  -29.2220   24.1104 C   0  0  0  0  0  0  0  0  0  0  0  0
   -6.1883  -28.9102   25.3210 N   0  0  0  0  0  0  0  0  0  0  0  0
   -4.1198  -24.8993   27.2583 C   0  0  0  0  0  0  0  0  0  0  0  0
   -3.4695  -25.0961   28.3149 O   0  0  0  0  0  0  0  0  0  0  0  0
   -2.7680  -21.4038   26.4607 C   0  0  0  0  0  0  0  0  0  0  0  0
   -4.0926  -21.2927   27.1686 C   0  0  2  0  0  0  0  0  0  0  0  0
   -4.0744  -20.0907   28.0735 C   0  0  0  0  0  0  0  0  0  0  0  0
   -4.4260  -22.5184   27.9731 C   0  0  2  0  0  0  0  0  0  0  0  0
   -4.6697  -23.6004   27.0329 N   0  0  0  0  0  0  0  0  0  0  0  0
   -5.6277  -22.3269   28.8102 C   0  0  0  0  0  0  0  0  0  0  0  0
   -5.5670  -21.6692   29.8804 O   0  0  0  0  0  0  0  0  0  0  0  0
   -6.8611  -22.8569   28.4581 O   0  0  0  0  0  0  0  0  0  0  0  0
  2  1  1  0
  2  3  2  0
  4  2  1  0
  5  4  1  0
  5  6  1  6
  7  5  1  0
  8  7  2  0
  9  7  1  0
 10  9  1  0
 11 12  1  0
 10 11  1  1
 12 13  2  0
 13 14  1  0
 15 14  1  0
 16 12  1  0
 16 15  2  0
 17 23  1  0
 17 10  1  0
 18 17  2  0
 20 19  1  1
 21 20  1  0
 22 20  1  0
 22 23  1  6
 24 22  1  0
 25 24  2  0
 26 24  1  0
M  END
$$$$
