NHV.pdb
     RDKit          3D

 26 26  0  0  1  0  0  0  0  0999 V2000
   13.5170  -13.7335   18.8393 N   0  0  0  0  0  0  0  0  0  0  0  0
   12.5535  -14.7669   18.6987 C   0  0  0  0  0  0  0  0  0  0  0  0
   12.7987  -15.6802   17.8717 O   0  0  0  0  0  0  0  0  0  0  0  0
   11.3154  -14.7467   19.5067 C   0  0  0  0  0  0  0  0  0  0  0  0
   11.4707  -15.6578   20.6998 C   0  0  2  0  0  0  0  0  0  0  0  0
   11.6135  -17.0296   20.2931 N   0  0  0  0  0  0  0  0  0  0  0  0
   10.2797  -15.4808   21.5930 C   0  0  0  0  0  0  0  0  0  0  0  0
    9.8038  -14.3299   21.7344 O   0  0  0  0  0  0  0  0  0  0  0  0
    9.7288  -16.6150   22.2486 N   0  0  0  0  0  0  0  0  0  0  0  0
    8.5392  -16.5230   23.0292 C   0  0  1  0  0  0  0  0  0  0  0  0
    7.9013  -17.8653   23.3013 C   0  0  0  0  0  0  0  0  0  0  0  0
    7.4178  -18.4530   22.0354 C   0  0  0  0  0  0  0  0  0  0  0  0
    6.4648  -17.9699   21.1740 C   0  0  0  0  0  0  0  0  0  0  0  0
    6.3530  -18.8467   20.1434 N   0  0  0  0  0  0  0  0  0  0  0  0
    7.2107  -19.8531   20.3494 C   0  0  0  0  0  0  0  0  0  0  0  0
    7.8438  -19.6009   21.4924 N   0  0  0  0  0  0  0  0  0  0  0  0
    8.8512  -15.7889   24.2737 C   0  0  0  0  0  0  0  0  0  0  0  0
    9.9558  -15.8441   24.8692 O   0  0  0  0  0  0  0  0  0  0  0  0
    6.8967  -12.2499   24.8131 C   0  0  0  0  0  0  0  0  0  0  0  0
    6.9860  -13.1015   26.0520 C   0  0  2  0  0  0  0  0  0  0  0  0
    7.2004  -12.2169   27.2500 C   0  0  0  0  0  0  0  0  0  0  0  0
    8.0903  -14.1194   25.9787 C   0  0  2  0  0  0  0  0  0  0  0  0
    7.8232  -14.9661   24.8273 N   0  0  0  0  0  0  0  0  0  0  0  0
    8.1557  -14.9603   27.1912 C   0  0  0  0  0  0  0  0  0  0  0  0
    8.8107  -14.5867   28.1976 O   0  0  0  0  0  0  0  0  0  0  0  0
    7.5060  -16.1840   27.2732 O   0  0  0  0  0  0  0  0  0  0  0  0
  2  1  1  0
  2  3  2  0
  4  2  1  0
  5  4  1  0
  5  6  1  6
  7  5  1  0
  8  7  2  0
  9  7  1  0
 10  9  1  0
 11 12  1  0
 10 11  1  1
 12 13  2  0
 13 14  1  0
 15 14  1  0
 16 12  1  0
 16 15  2  0
 17 23  1  0
 17 10  1  0
 18 17  2  0
 20 19  1  6
 21 20  1  0
 22 20  1  0
 22 23  1  6
 24 22  1  0
 25 24  2  0
 26 24  1  0
M  END
$$$$
