NHV.pdb
     RDKit          3D

 26 26  0  0  1  0  0  0  0  0999 V2000
    7.7690  -12.8180   17.1477 N   0  0  0  0  0  0  0  0  0  0  0  0
    8.5036  -13.3929   18.2183 C   0  0  0  0  0  0  0  0  0  0  0  0
    9.7237  -13.6231   18.0271 O   0  0  0  0  0  0  0  0  0  0  0  0
    7.8350  -13.6999   19.5008 C   0  0  0  0  0  0  0  0  0  0  0  0
    7.9907  -15.1672   19.8180 C   0  0  2  0  0  0  0  0  0  0  0  0
    7.3298  -15.9856   18.8376 N   0  0  0  0  0  0  0  0  0  0  0  0
    7.4417  -15.4191   21.1901 C   0  0  0  0  0  0  0  0  0  0  0  0
    6.2213  -15.2171   21.3925 O   0  0  0  0  0  0  0  0  0  0  0  0
    8.3147  -15.8763   22.2141 N   0  0  0  0  0  0  0  0  0  0  0  0
    7.8421  -16.1559   23.5300 C   0  0  1  0  0  0  0  0  0  0  0  0
    7.9920  -17.6079   23.9197 C   0  0  0  0  0  0  0  0  0  0  0  0
    7.1068  -18.4425   23.0821 C   0  0  0  0  0  0  0  0  0  0  0  0
    6.2564  -18.0516   22.0784 C   0  0  0  0  0  0  0  0  0  0  0  0
    5.6480  -19.1637   21.5921 N   0  0  0  0  0  0  0  0  0  0  0  0
    6.1019  -20.2247   22.2698 C   0  0  0  0  0  0  0  0  0  0  0  0
    6.9792  -19.7734   23.1629 N   0  0  0  0  0  0  0  0  0  0  0  0
    8.5264  -15.2491   24.4758 C   0  0  0  0  0  0  0  0  0  0  0  0
    9.7712  -15.0883   24.5263 O   0  0  0  0  0  0  0  0  0  0  0  0
    6.0381  -13.1023   27.2926 C   0  0  0  0  0  0  0  0  0  0  0  0
    7.3308  -12.5774   26.7255 C   0  0  2  0  0  0  0  0  0  0  0  0
    7.0429  -11.7881   25.4774 C   0  0  0  0  0  0  0  0  0  0  0  0
    8.3129  -13.6712   26.4093 C   0  0  2  0  0  0  0  0  0  0  0  0
    7.7103  -14.5121   25.3876 N   0  0  0  0  0  0  0  0  0  0  0  0
    8.6268  -14.4986   27.5917 C   0  0  0  0  0  0  0  0  0  0  0  0
    8.1748  -15.6676   27.6962 O   0  0  0  0  0  0  0  0  0  0  0  0
    9.4238  -14.0297   28.6267 O   0  0  0  0  0  0  0  0  0  0  0  0
  2  1  1  0
  2  3  2  0
  4  2  1  0
  5  4  1  0
  5  6  1  6
  7  5  1  0
  8  7  2  0
  9  7  1  0
 10  9  1  0
 11 12  1  0
 10 11  1  1
 12 13  2  0
 13 14  1  0
 15 14  1  0
 16 12  1  0
 16 15  2  0
 17 23  1  0
 17 10  1  0
 18 17  2  0
 20 19  1  6
 21 20  1  0
 22 20  1  0
 22 23  1  6
 24 22  1  0
 25 24  2  0
 26 24  1  0
M  END
$$$$
