NHV.pdb
     RDKit          3D

 26 26  0  0  1  0  0  0  0  0999 V2000
   14.8688  -14.1921   18.3405 N   0  0  0  0  0  0  0  0  0  0  0  0
   14.6312  -14.7688   19.6161 C   0  0  0  0  0  0  0  0  0  0  0  0
   15.4012  -15.6884   19.9896 O   0  0  0  0  0  0  0  0  0  0  0  0
   13.5128  -14.2877   20.4550 C   0  0  0  0  0  0  0  0  0  0  0  0
   12.6007  -15.4402   20.7979 C   0  0  2  0  0  0  0  0  0  0  0  0
   11.9116  -15.9242   19.6324 N   0  0  0  0  0  0  0  0  0  0  0  0
   11.6318  -14.9852   21.8477 C   0  0  0  0  0  0  0  0  0  0  0  0
   11.3202  -13.7719   21.8886 O   0  0  0  0  0  0  0  0  0  0  0  0
   11.0987  -15.9362   22.7593 N   0  0  0  0  0  0  0  0  0  0  0  0
   10.1175  -15.5745   23.7286 C   0  0  1  0  0  0  0  0  0  0  0  0
    8.7751  -16.2243   23.4871 C   0  0  0  0  0  0  0  0  0  0  0  0
    8.0954  -15.5585   22.3573 C   0  0  0  0  0  0  0  0  0  0  0  0
    8.5329  -14.5064   21.5923 C   0  0  0  0  0  0  0  0  0  0  0  0
    7.5735  -14.2349   20.6708 N   0  0  0  0  0  0  0  0  0  0  0  0
    6.5607  -15.0911   20.8499 C   0  0  0  0  0  0  0  0  0  0  0  0
    6.8906  -15.8809   21.8688 N   0  0  0  0  0  0  0  0  0  0  0  0
   10.6527  -15.8784   25.0726 C   0  0  0  0  0  0  0  0  0  0  0  0
   11.6082  -16.6637   25.2923 O   0  0  0  0  0  0  0  0  0  0  0  0
    8.4877  -14.2295   28.3638 C   0  0  0  0  0  0  0  0  0  0  0  0
    9.9841  -14.3912   28.4163 C   0  0  2  0  0  0  0  0  0  0  0  0
   10.6392  -13.1041   27.9946 C   0  0  0  0  0  0  0  0  0  0  0  0
   10.4782  -15.5121   27.5442 C   0  0  2  0  0  0  0  0  0  0  0  0
   10.0365  -15.2321   26.1876 N   0  0  0  0  0  0  0  0  0  0  0  0
    9.9441  -16.8234   27.9646 C   0  0  0  0  0  0  0  0  0  0  0  0
   10.3361  -17.3654   29.0295 O   0  0  0  0  0  0  0  0  0  0  0  0
    8.9983  -17.5071   27.2134 O   0  0  0  0  0  0  0  0  0  0  0  0
  2  1  1  0
  2  3  2  0
  4  2  1  0
  5  4  1  0
  5  6  1  6
  7  5  1  0
  8  7  2  0
  9  7  1  0
 10  9  1  0
 11 12  1  0
 10 11  1  6
 12 13  2  0
 13 14  1  0
 15 14  1  0
 16 12  1  0
 16 15  2  0
 17 23  1  0
 17 10  1  0
 18 17  2  0
 20 19  1  6
 21 20  1  0
 22 20  1  0
 22 23  1  6
 24 22  1  0
 25 24  2  0
 26 24  1  0
M  END
$$$$
