NHV.pdb
     RDKit          3D

 26 26  0  0  1  0  0  0  0  0999 V2000
    7.6809  -12.8353   16.0067 N   0  0  0  0  0  0  0  0  0  0  0  0
    7.8643  -14.2390   15.8976 C   0  0  0  0  0  0  0  0  0  0  0  0
    8.0130  -14.7170   14.7454 O   0  0  0  0  0  0  0  0  0  0  0  0
    7.8760  -15.0856   17.1097 C   0  0  0  0  0  0  0  0  0  0  0  0
    8.8259  -14.5041   18.1281 C   0  0  2  0  0  0  0  0  0  0  0  0
   10.1555  -14.3863   17.5933 N   0  0  0  0  0  0  0  0  0  0  0  0
    8.8100  -15.3764   19.3474 C   0  0  0  0  0  0  0  0  0  0  0  0
    7.7102  -15.6107   19.9010 O   0  0  0  0  0  0  0  0  0  0  0  0
   10.0337  -15.9084   19.8365 N   0  0  0  0  0  0  0  0  0  0  0  0
   10.0885  -16.6772   21.0361 C   0  0  1  0  0  0  0  0  0  0  0  0
   11.2620  -17.6278   21.0800 C   0  0  0  0  0  0  0  0  0  0  0  0
   10.9917  -18.7934   20.2139 C   0  0  0  0  0  0  0  0  0  0  0  0
   10.0157  -19.7497   20.3422 C   0  0  0  0  0  0  0  0  0  0  0  0
   10.1530  -20.6247   19.3133 N   0  0  0  0  0  0  0  0  0  0  0  0
   11.1855  -20.2313   18.5583 C   0  0  0  0  0  0  0  0  0  0  0  0
   11.6793  -19.1276   19.1141 N   0  0  0  0  0  0  0  0  0  0  0  0
   10.0757  -15.7502   22.1874 C   0  0  0  0  0  0  0  0  0  0  0  0
   10.8940  -14.8108   22.3480 O   0  0  0  0  0  0  0  0  0  0  0  0
    7.5441  -13.2803   25.3336 C   0  0  0  0  0  0  0  0  0  0  0  0
    7.7358  -14.2473   24.1950 C   0  0  2  0  0  0  0  0  0  0  0  0
    6.5419  -15.1589   24.1096 C   0  0  0  0  0  0  0  0  0  0  0  0
    8.9848  -15.0723   24.3377 C   0  0  2  0  0  0  0  0  0  0  0  0
    9.0632  -15.9435   23.1763 N   0  0  0  0  0  0  0  0  0  0  0  0
    8.9707  -15.8994   25.5612 C   0  0  0  0  0  0  0  0  0  0  0  0
    8.7210  -17.1306   25.5016 O   0  0  0  0  0  0  0  0  0  0  0  0
    9.2289  -15.3626   26.8147 O   0  0  0  0  0  0  0  0  0  0  0  0
  2  1  1  0
  2  3  2  0
  4  2  1  0
  5  4  1  0
  5  6  1  6
  7  5  1  0
  8  7  2  0
  9  7  1  0
 10  9  1  0
 11 12  1  0
 10 11  1  6
 12 13  2  0
 13 14  1  0
 15 14  1  0
 16 12  1  0
 16 15  2  0
 17 23  1  0
 17 10  1  0
 18 17  2  0
 20 19  1  1
 21 20  1  0
 22 20  1  0
 22 23  1  6
 24 22  1  0
 25 24  2  0
 26 24  1  0
M  END
$$$$
