NHV.pdb
     RDKit          3D

 26 26  0  0  1  0  0  0  0  0999 V2000
    9.0026  -17.6677   17.9222 N   0  0  0  0  0  0  0  0  0  0  0  0
    7.6008  -17.7672   18.1250 C   0  0  0  0  0  0  0  0  0  0  0  0
    6.9056  -18.1966   17.1709 O   0  0  0  0  0  0  0  0  0  0  0  0
    7.0052  -17.3739   19.4198 C   0  0  0  0  0  0  0  0  0  0  0  0
    8.0672  -16.7718   20.3072 C   0  0  2  0  0  0  0  0  0  0  0  0
    9.2178  -17.6293   20.3987 N   0  0  0  0  0  0  0  0  0  0  0  0
    7.4719  -16.5211   21.6602 C   0  0  0  0  0  0  0  0  0  0  0  0
    6.4358  -15.8200   21.7373 O   0  0  0  0  0  0  0  0  0  0  0  0
    8.0953  -17.0818   22.8077 N   0  0  0  0  0  0  0  0  0  0  0  0
    7.5760  -16.8713   24.1188 C   0  0  1  0  0  0  0  0  0  0  0  0
    7.7943  -18.0481   25.0408 C   0  0  0  0  0  0  0  0  0  0  0  0
    6.9958  -19.2004   24.5757 C   0  0  0  0  0  0  0  0  0  0  0  0
    5.7461  -19.2053   24.0084 C   0  0  0  0  0  0  0  0  0  0  0  0
    5.4150  -20.4949   23.7427 N   0  0  0  0  0  0  0  0  0  0  0  0
    6.4267  -21.2800   24.1313 C   0  0  0  0  0  0  0  0  0  0  0  0
    7.3702  -20.4853   24.6304 N   0  0  0  0  0  0  0  0  0  0  0  0
    8.1561  -15.6230   24.6575 C   0  0  0  0  0  0  0  0  0  0  0  0
    9.3209  -15.2215   24.4130 O   0  0  0  0  0  0  0  0  0  0  0  0
    6.9892  -11.2430   26.5494 C   0  0  0  0  0  0  0  0  0  0  0  0
    6.6235  -12.6237   26.0719 C   0  0  2  0  0  0  0  0  0  0  0  0
    5.5698  -13.2010   26.9776 C   0  0  0  0  0  0  0  0  0  0  0  0
    7.8043  -13.5533   26.0235 C   0  0  2  0  0  0  0  0  0  0  0  0
    7.3305  -14.8287   25.5107 N   0  0  0  0  0  0  0  0  0  0  0  0
    8.4050  -13.7625   27.3565 C   0  0  0  0  0  0  0  0  0  0  0  0
    8.9781  -12.8185   27.9582 O   0  0  0  0  0  0  0  0  0  0  0  0
    8.3647  -14.9934   27.9962 O   0  0  0  0  0  0  0  0  0  0  0  0
  2  1  1  0
  2  3  2  0
  4  2  1  0
  5  4  1  0
  5  6  1  1
  7  5  1  0
  8  7  2  0
  9  7  1  0
 10  9  1  0
 11 12  1  0
 10 11  1  1
 12 13  2  0
 13 14  1  0
 15 14  1  0
 16 12  1  0
 16 15  2  0
 17 23  1  0
 17 10  1  0
 18 17  2  0
 20 19  1  1
 21 20  1  0
 22 20  1  0
 22 23  1  1
 24 22  1  0
 25 24  2  0
 26 24  1  0
M  END
$$$$
