NHV.pdb
     RDKit          3D

 26 26  0  0  1  0  0  0  0  0999 V2000
   11.2107  -20.4363   21.3494 N   0  0  0  0  0  0  0  0  0  0  0  0
   10.3482  -19.5833   20.6115 C   0  0  0  0  0  0  0  0  0  0  0  0
    9.5464  -20.1226   19.8087 O   0  0  0  0  0  0  0  0  0  0  0  0
   10.4103  -18.1179   20.7985 C   0  0  0  0  0  0  0  0  0  0  0  0
    9.8926  -17.7569   22.1694 C   0  0  2  0  0  0  0  0  0  0  0  0
    8.5611  -18.2600   22.3730 N   0  0  0  0  0  0  0  0  0  0  0  0
    9.9346  -16.2656   22.3173 C   0  0  0  0  0  0  0  0  0  0  0  0
   11.0441  -15.6877   22.2393 O   0  0  0  0  0  0  0  0  0  0  0  0
    8.7239  -15.5556   22.5401 N   0  0  0  0  0  0  0  0  0  0  0  0
    8.6871  -14.1305   22.5692 C   0  0  1  0  0  0  0  0  0  0  0  0
    7.4730  -13.5528   21.8802 C   0  0  0  0  0  0  0  0  0  0  0  0
    7.6161  -13.6943   20.4168 C   0  0  0  0  0  0  0  0  0  0  0  0
    8.1383  -12.8009   19.5154 C   0  0  0  0  0  0  0  0  0  0  0  0
    8.0632  -13.3628   18.2818 N   0  0  0  0  0  0  0  0  0  0  0  0
    7.5097  -14.5753   18.4023 C   0  0  0  0  0  0  0  0  0  0  0  0
    7.2465  -14.7594   19.6937 N   0  0  0  0  0  0  0  0  0  0  0  0
    8.7962  -13.6878   23.9753 C   0  0  0  0  0  0  0  0  0  0  0  0
    9.0911  -12.5188   24.3278 O   0  0  0  0  0  0  0  0  0  0  0  0
    6.0093  -14.2406   26.3949 C   0  0  0  0  0  0  0  0  0  0  0  0
    7.2748  -13.4508   26.6022 C   0  0  2  0  0  0  0  0  0  0  0  0
    7.2901  -12.2783   25.6595 C   0  0  0  0  0  0  0  0  0  0  0  0
    8.5148  -14.2753   26.3938 C   0  0  2  0  0  0  0  0  0  0  0  0
    8.5484  -14.6601   24.9921 N   0  0  0  0  0  0  0  0  0  0  0  0
    8.5220  -15.4936   27.2288 C   0  0  0  0  0  0  0  0  0  0  0  0
    8.3595  -16.6282   26.7112 O   0  0  0  0  0  0  0  0  0  0  0  0
    8.7057  -15.4418   28.6035 O   0  0  0  0  0  0  0  0  0  0  0  0
  2  1  1  0
  2  3  2  0
  4  2  1  0
  5  4  1  0
  5  6  1  6
  7  5  1  0
  8  7  2  0
  9  7  1  0
 10  9  1  0
 11 12  1  0
 10 11  1  1
 12 13  2  0
 13 14  1  0
 15 14  1  0
 16 12  1  0
 16 15  2  0
 17 23  1  0
 17 10  1  0
 18 17  2  0
 20 19  1  6
 21 20  1  0
 22 20  1  0
 22 23  1  6
 24 22  1  0
 25 24  2  0
 26 24  1  0
M  END
$$$$
