RNI.pdb
     RDKit          3D

 28 27  0  0  1  0  0  0  0  0999 V2000
    7.2295  -13.7171   16.3470 N   0  0  0  0  0  0  0  0  0  0  0  0
    8.5867  -13.5926   16.7373 C   0  0  0  0  0  0  0  0  0  0  0  0
    9.5242  -14.0744   15.9972 N   0  0  0  0  0  0  0  0  0  0  0  0
    8.8936  -12.9271   17.9597 N   0  0  0  0  0  0  0  0  0  0  0  0
    9.2549  -13.6535   19.1456 C   0  0  0  0  0  0  0  0  0  0  0  0
    8.1040  -13.7476   20.1394 C   0  0  0  0  0  0  0  0  0  0  0  0
    7.1770  -14.8263   19.6319 C   0  0  0  0  0  0  0  0  0  0  0  0
    7.7607  -16.2021   19.7792 C   0  0  2  0  0  0  0  0  0  0  0  0
    6.9077  -17.1924   19.1790 N   0  0  0  0  0  0  0  0  0  0  0  0
    7.9316  -16.4463   21.2558 C   0  0  0  0  0  0  0  0  0  0  0  0
    6.9114  -16.4717   21.9927 O   0  0  0  0  0  0  0  0  0  0  0  0
   10.5309  -13.9824   16.1992 N   0  0  0  0  0  0  0  0  0  0  0  0
   11.1649  -19.7225   21.9061 C   0  0  0  0  0  0  0  0  0  0  0  0
   10.2824  -19.2043   22.9095 O   0  0  0  0  0  0  0  0  0  0  0  0
    9.3569  -19.9394   23.2829 C   0  0  0  0  0  0  0  0  0  0  0  0
   10.4546  -17.8569   23.4823 C   0  0  2  0  0  0  0  0  0  0  0  0
    9.2586  -16.9875   23.2521 N   0  0  0  0  0  0  0  0  0  0  0  0
    9.1908  -16.6472   21.8432 C   0  0  0  0  0  0  0  0  0  0  0  0
    9.3904  -15.6971   24.0201 O   0  0  0  0  0  0  0  0  0  0  0  0
   10.3043  -14.8867   23.7817 C   0  0  0  0  0  0  0  0  0  0  0  0
    6.6671  -11.0283   26.5090 C   0  0  0  0  0  0  0  0  0  0  0  0
    7.7152  -12.0790   26.7660 C   0  0  2  0  0  0  0  0  0  0  0  0
    7.4422  -13.2974   25.8729 C   0  0  0  0  0  0  0  0  0  0  0  0
    6.3149  -14.0480   26.5509 C   0  0  2  0  0  0  0  0  0  0  0  0
    8.6422  -14.2033   25.8285 N   0  0  0  0  0  0  0  0  0  0  0  0
    8.4714  -15.3721   25.0386 C   0  0  0  0  0  0  0  0  0  0  0  0
    8.9718  -14.6005   27.2049 O   0  0  0  0  0  0  0  0  0  0  0  0
    9.4664  -13.6803   28.0912 O   0  0  0  0  0  0  0  0  0  0  0  0
  2  3  2  0
  2  1  1  0
  4  2  1  0
  5  4  1  0
  6  5  1  0
  7  6  1  0
  8  7  1  0
  8  9  1  1
 10 17  1  0
 10  8  1  0
 11 10  2  0
 13 12  1  0
 13 14  2  0
 16 15  1  6
 15 13  1  0
 16 17  1  0
 18 19  2  0
 18 16  1  0
 20 21  1  0
 21 22  1  0
 22 23  1  6
 24 22  1  0
 24 25  1  1
 25 18  1  0
 26 24  1  0
 27 26  1  0
 28 26  2  0
M  END
$$$$
