RNI.pdb
     RDKit          3D

 28 27  0  0  1  0  0  0  0  0999 V2000
    8.9611  -12.0688   19.7814 N   0  0  0  0  0  0  0  0  0  0  0  0
    8.3925  -12.9216   18.8020 C   0  0  0  0  0  0  0  0  0  0  0  0
    8.8196  -12.8943   17.5872 N   0  0  0  0  0  0  0  0  0  0  0  0
    7.3426  -13.8062   19.1848 N   0  0  0  0  0  0  0  0  0  0  0  0
    6.8305  -13.8353   20.5270 C   0  0  0  0  0  0  0  0  0  0  0  0
    6.7287  -15.2526   21.0766 C   0  0  0  0  0  0  0  0  0  0  0  0
    8.1420  -15.7565   21.2473 C   0  0  0  0  0  0  0  0  0  0  0  0
    8.1913  -17.1786   21.7274 C   0  0  2  0  0  0  0  0  0  0  0  0
    7.2007  -17.4159   22.7427 N   0  0  0  0  0  0  0  0  0  0  0  0
    9.5836  -17.4123   22.2528 C   0  0  0  0  0  0  0  0  0  0  0  0
   10.4276  -17.9826   21.5133 O   0  0  0  0  0  0  0  0  0  0  0  0
    8.4318  -13.4641   16.8207 N   0  0  0  0  0  0  0  0  0  0  0  0
   14.0902  -16.5498   21.5767 C   0  0  0  0  0  0  0  0  0  0  0  0
   12.6658  -16.5897   21.7306 O   0  0  0  0  0  0  0  0  0  0  0  0
   12.0237  -17.2321   20.8872 C   0  0  0  0  0  0  0  0  0  0  0  0
   11.9792  -15.9013   22.8388 C   0  0  2  0  0  0  0  0  0  0  0  0
   11.3915  -16.8622   23.8238 N   0  0  0  0  0  0  0  0  0  0  0  0
    9.9767  -17.0164   23.5411 C   0  0  0  0  0  0  0  0  0  0  0  0
   11.5131  -16.3198   25.2250 O   0  0  0  0  0  0  0  0  0  0  0  0
   12.6184  -16.0319   25.7192 C   0  0  0  0  0  0  0  0  0  0  0  0
    8.0326  -12.7150   26.7506 C   0  0  0  0  0  0  0  0  0  0  0  0
    9.2501  -13.5654   26.4997 C   0  0  2  0  0  0  0  0  0  0  0  0
    9.4320  -14.5479   27.6652 C   0  0  0  0  0  0  0  0  0  0  0  0
    9.9581  -13.7142   28.8151 C   0  0  2  0  0  0  0  0  0  0  0  0
   10.4700  -15.5838   27.3300 N   0  0  0  0  0  0  0  0  0  0  0  0
   10.3653  -16.1227   26.0194 C   0  0  0  0  0  0  0  0  0  0  0  0
   10.3626  -16.6773   28.3065 O   0  0  0  0  0  0  0  0  0  0  0  0
   10.9029  -16.5430   29.5583 O   0  0  0  0  0  0  0  0  0  0  0  0
  2  3  2  0
  2  1  1  0
  4  2  1  0
  5  4  1  0
  6  5  1  0
  7  6  1  0
  8  7  1  0
  8  9  1  1
 10 17  1  0
 10  8  1  0
 11 10  2  0
 13 12  1  0
 13 14  2  0
 16 15  1  6
 15 13  1  0
 16 17  1  0
 18 19  2  0
 18 16  1  0
 20 21  1  0
 21 22  1  0
 22 23  1  1
 24 22  1  0
 24 25  1  6
 25 18  1  0
 26 24  1  0
 27 26  1  0
 28 26  2  0
M  END
$$$$
