RNI.pdb
     RDKit          3D

 28 27  0  0  1  0  0  0  0  0999 V2000
   10.0837  -12.1165   19.6697 N   0  0  0  0  0  0  0  0  0  0  0  0
    8.9141  -12.6356   19.0595 C   0  0  0  0  0  0  0  0  0  0  0  0
    8.8457  -12.7555   17.7790 N   0  0  0  0  0  0  0  0  0  0  0  0
    7.8189  -13.0206   19.8863 N   0  0  0  0  0  0  0  0  0  0  0  0
    7.7643  -14.3110   20.5160 C   0  0  0  0  0  0  0  0  0  0  0  0
    7.9022  -15.4500   19.5136 C   0  0  0  0  0  0  0  0  0  0  0  0
    6.7627  -16.4047   19.7790 C   0  0  0  0  0  0  0  0  0  0  0  0
    7.2391  -17.7739   20.1710 C   0  0  2  0  0  0  0  0  0  0  0  0
    6.2402  -18.7692   19.8884 N   0  0  0  0  0  0  0  0  0  0  0  0
    7.5589  -17.7185   21.6420 C   0  0  0  0  0  0  0  0  0  0  0  0
    6.6312  -17.8891   22.4755 O   0  0  0  0  0  0  0  0  0  0  0  0
    8.0068  -13.0674   17.2674 N   0  0  0  0  0  0  0  0  0  0  0  0
   10.5628  -19.6711   25.9003 C   0  0  0  0  0  0  0  0  0  0  0  0
   10.7905  -18.4773   25.1408 O   0  0  0  0  0  0  0  0  0  0  0  0
   11.3290  -17.5277   25.7277 C   0  0  0  0  0  0  0  0  0  0  0  0
   10.4063  -18.3679   23.7217 C   0  0  1  0  0  0  0  0  0  0  0  0
    9.1174  -17.6299   23.5400 N   0  0  0  0  0  0  0  0  0  0  0  0
    8.8577  -17.4827   22.1201 C   0  0  0  0  0  0  0  0  0  0  0  0
    9.2176  -16.2440   24.1244 O   0  0  0  0  0  0  0  0  0  0  0  0
    9.9640  -15.3799   23.6296 C   0  0  0  0  0  0  0  0  0  0  0  0
    6.3430  -11.6934   26.7867 C   0  0  0  0  0  0  0  0  0  0  0  0
    7.6313  -12.4650   26.6721 C   0  0  2  0  0  0  0  0  0  0  0  0
    7.3612  -13.8024   25.9684 C   0  0  0  0  0  0  0  0  0  0  0  0
    6.3932  -14.5417   26.8686 C   0  0  2  0  0  0  0  0  0  0  0  0
    8.6220  -14.6174   25.8739 N   0  0  0  0  0  0  0  0  0  0  0  0
    8.4596  -15.8879   25.2585 C   0  0  0  0  0  0  0  0  0  0  0  0
    9.1509  -14.8082   27.2321 O   0  0  0  0  0  0  0  0  0  0  0  0
    9.2821  -16.0685   27.7531 O   0  0  0  0  0  0  0  0  0  0  0  0
  2  3  2  0
  2  1  1  0
  4  2  1  0
  5  4  1  0
  6  5  1  0
  7  6  1  0
  8  7  1  0
  8  9  1  1
 10 17  1  0
 10  8  1  0
 11 10  2  0
 13 12  1  0
 13 14  2  0
 16 15  1  1
 15 13  1  0
 16 17  1  0
 18 19  2  0
 18 16  1  0
 20 21  1  0
 21 22  1  0
 22 23  1  6
 24 22  1  0
 24 25  1  1
 25 18  1  0
 26 24  1  0
 27 26  1  0
 28 26  2  0
M  END
$$$$
