RNI.pdb
     RDKit          3D

 28 27  0  0  1  0  0  0  0  0999 V2000
    8.8809  -11.9401   19.3146 N   0  0  0  0  0  0  0  0  0  0  0  0
    8.4673  -13.0005   18.4694 C   0  0  0  0  0  0  0  0  0  0  0  0
    8.3267  -12.8077   17.2037 N   0  0  0  0  0  0  0  0  0  0  0  0
    8.2103  -14.2792   19.0441 N   0  0  0  0  0  0  0  0  0  0  0  0
    8.4263  -14.5372   20.4409 C   0  0  0  0  0  0  0  0  0  0  0  0
    7.1402  -14.4433   21.2521 C   0  0  0  0  0  0  0  0  0  0  0  0
    6.2634  -15.5921   20.8138 C   0  0  0  0  0  0  0  0  0  0  0  0
    6.9373  -16.9242   20.9764 C   0  0  2  0  0  0  0  0  0  0  0  0
    6.0741  -17.9948   20.5555 N   0  0  0  0  0  0  0  0  0  0  0  0
    7.3018  -17.0523   22.4324 C   0  0  0  0  0  0  0  0  0  0  0  0
    6.3976  -16.9388   23.3006 O   0  0  0  0  0  0  0  0  0  0  0  0
    8.1277  -13.5530   16.5198 N   0  0  0  0  0  0  0  0  0  0  0  0
    8.8260  -20.7407   24.5704 C   0  0  0  0  0  0  0  0  0  0  0  0
    9.6526  -19.8045   23.8675 O   0  0  0  0  0  0  0  0  0  0  0  0
   10.0818  -20.1511   22.7575 C   0  0  0  0  0  0  0  0  0  0  0  0
    9.9872  -18.4823   24.4272 C   0  0  2  0  0  0  0  0  0  0  0  0
    8.8664  -17.5029   24.2731 N   0  0  0  0  0  0  0  0  0  0  0  0
    8.6172  -17.2945   22.8589 C   0  0  0  0  0  0  0  0  0  0  0  0
    9.2478  -16.1695   24.8635 O   0  0  0  0  0  0  0  0  0  0  0  0
   10.0848  -15.4291   24.3157 C   0  0  0  0  0  0  0  0  0  0  0  0
    5.9694  -12.3227   26.3858 C   0  0  0  0  0  0  0  0  0  0  0  0
    7.1544  -13.1182   25.9047 C   0  0  2  0  0  0  0  0  0  0  0  0
    7.9618  -13.6083   27.1148 C   0  0  0  0  0  0  0  0  0  0  0  0
    8.5756  -12.3627   27.7195 C   0  0  2  0  0  0  0  0  0  0  0  0
    9.0818  -14.5115   26.6759 N   0  0  0  0  0  0  0  0  0  0  0  0
    8.6593  -15.7224   26.0640 C   0  0  0  0  0  0  0  0  0  0  0  0
    9.9041  -14.8317   27.8517 O   0  0  0  0  0  0  0  0  0  0  0  0
    9.9137  -16.1022   28.3643 O   0  0  0  0  0  0  0  0  0  0  0  0
  2  3  2  0
  2  1  1  0
  4  2  1  0
  5  4  1  0
  6  5  1  0
  7  6  1  0
  8  7  1  0
  8  9  1  1
 10 17  1  0
 10  8  1  0
 11 10  2  0
 13 12  1  0
 13 14  2  0
 16 15  1  1
 15 13  1  0
 16 17  1  0
 18 19  2  0
 18 16  1  0
 20 21  1  0
 21 22  1  0
 22 23  1  1
 24 22  1  0
 24 25  1  6
 25 18  1  0
 26 24  1  0
 27 26  1  0
 28 26  2  0
M  END
$$$$
