RNI.pdb
     RDKit          3D

 28 27  0  0  1  0  0  0  0  0999 V2000
    8.5730  -14.9995   13.3528 N   0  0  0  0  0  0  0  0  0  0  0  0
    8.1261  -14.3485   14.5301 C   0  0  0  0  0  0  0  0  0  0  0  0
    8.1916  -13.0661   14.6303 N   0  0  0  0  0  0  0  0  0  0  0  0
    7.6052  -15.1364   15.5974 N   0  0  0  0  0  0  0  0  0  0  0  0
    7.1989  -14.5473   16.8434 C   0  0  0  0  0  0  0  0  0  0  0  0
    7.9242  -15.1582   18.0358 C   0  0  0  0  0  0  0  0  0  0  0  0
    8.9082  -14.1224   18.5249 C   0  0  0  0  0  0  0  0  0  0  0  0
    9.7558  -14.6246   19.6582 C   0  0  2  0  0  0  0  0  0  0  0  0
   10.4593  -15.8226   19.2860 N   0  0  0  0  0  0  0  0  0  0  0  0
    8.8283  -14.8704   20.8194 C   0  0  0  0  0  0  0  0  0  0  0  0
    8.1349  -13.9166   21.2597 O   0  0  0  0  0  0  0  0  0  0  0  0
    7.8318  -12.5255   15.4310 N   0  0  0  0  0  0  0  0  0  0  0  0
    6.7132  -19.1809   24.6228 C   0  0  0  0  0  0  0  0  0  0  0  0
    6.5393  -18.0396   23.7735 O   0  0  0  0  0  0  0  0  0  0  0  0
    5.5932  -17.2816   24.0315 C   0  0  0  0  0  0  0  0  0  0  0  0
    7.4386  -17.7654   22.6380 C   0  0  2  0  0  0  0  0  0  0  0  0
    7.7187  -16.3042   22.4785 N   0  0  0  0  0  0  0  0  0  0  0  0
    8.7078  -16.1281   21.4315 C   0  0  0  0  0  0  0  0  0  0  0  0
    8.3027  -15.7387   23.7479 O   0  0  0  0  0  0  0  0  0  0  0  0
    9.5094  -15.8668   24.0243 C   0  0  0  0  0  0  0  0  0  0  0  0
    7.1832  -10.8134   27.1997 C   0  0  0  0  0  0  0  0  0  0  0  0
    7.9814  -12.0698   26.9702 C   0  0  2  0  0  0  0  0  0  0  0  0
    7.2679  -12.9410   25.9268 C   0  0  0  0  0  0  0  0  0  0  0  0
    5.9613  -13.3527   26.5729 C   0  0  2  0  0  0  0  0  0  0  0  0
    8.0597  -14.1886   25.6451 N   0  0  0  0  0  0  0  0  0  0  0  0
    7.4879  -15.0425   24.6637 C   0  0  0  0  0  0  0  0  0  0  0  0
    8.2058  -14.9361   26.9025 O   0  0  0  0  0  0  0  0  0  0  0  0
    9.0441  -14.4800   27.8854 O   0  0  0  0  0  0  0  0  0  0  0  0
  2  3  2  0
  2  1  1  0
  4  2  1  0
  5  4  1  0
  6  5  1  0
  7  6  1  0
  8  7  1  0
  8  9  1  6
 10 17  1  0
 10  8  1  0
 11 10  2  0
 13 12  1  0
 13 14  2  0
 16 15  1  6
 15 13  1  0
 16 17  1  0
 18 19  2  0
 18 16  1  0
 20 21  1  0
 21 22  1  0
 22 23  1  6
 24 22  1  0
 24 25  1  1
 25 18  1  0
 26 24  1  0
 27 26  1  0
 28 26  2  0
M  END
$$$$
