RNI.pdb
     RDKit          3D

 28 27  0  0  1  0  0  0  0  0999 V2000
    6.1801  -13.9230   16.7850 N   0  0  0  0  0  0  0  0  0  0  0  0
    7.5077  -13.5641   17.1293 C   0  0  0  0  0  0  0  0  0  0  0  0
    8.3976  -13.4028   16.2122 N   0  0  0  0  0  0  0  0  0  0  0  0
    7.8385  -13.3862   18.5041 N   0  0  0  0  0  0  0  0  0  0  0  0
    8.4194  -14.4435   19.2847 C   0  0  0  0  0  0  0  0  0  0  0  0
    7.4369  -15.5789   19.5425 C   0  0  0  0  0  0  0  0  0  0  0  0
    8.1902  -16.6424   20.3055 C   0  0  0  0  0  0  0  0  0  0  0  0
    8.2388  -16.3659   21.7808 C   0  0  2  0  0  0  0  0  0  0  0  0
    7.9175  -14.9921   22.0600 N   0  0  0  0  0  0  0  0  0  0  0  0
    9.6311  -16.7093   22.2419 C   0  0  0  0  0  0  0  0  0  0  0  0
    9.9895  -17.9159   22.2565 O   0  0  0  0  0  0  0  0  0  0  0  0
    9.3829  -13.1597   16.3934 N   0  0  0  0  0  0  0  0  0  0  0  0
   15.3857  -15.0927   22.3019 C   0  0  0  0  0  0  0  0  0  0  0  0
   14.1024  -15.6797   22.0520 O   0  0  0  0  0  0  0  0  0  0  0  0
   14.0762  -16.7103   21.3639 C   0  0  0  0  0  0  0  0  0  0  0  0
   12.8579  -15.0948   22.5834 C   0  0  2  0  0  0  0  0  0  0  0  0
   11.8877  -16.1418   23.0326 N   0  0  0  0  0  0  0  0  0  0  0  0
   10.5476  -15.7305   22.6578 C   0  0  0  0  0  0  0  0  0  0  0  0
   11.9138  -16.2740   24.5339 O   0  0  0  0  0  0  0  0  0  0  0  0
   12.9491  -16.6014   25.1419 C   0  0  0  0  0  0  0  0  0  0  0  0
    9.8663  -13.2898   29.3109 C   0  0  0  0  0  0  0  0  0  0  0  0
   10.3279  -14.6273   28.7946 C   0  0  2  0  0  0  0  0  0  0  0  0
   10.3428  -14.6014   27.2598 C   0  0  0  0  0  0  0  0  0  0  0  0
    8.8971  -14.4192   26.8469 C   0  0  2  0  0  0  0  0  0  0  0  0
   10.8200  -15.9180   26.7107 N   0  0  0  0  0  0  0  0  0  0  0  0
   10.7533  -16.0271   25.2954 C   0  0  0  0  0  0  0  0  0  0  0  0
   10.0113  -16.9887   27.3112 O   0  0  0  0  0  0  0  0  0  0  0  0
    9.2323  -17.7932   26.5220 O   0  0  0  0  0  0  0  0  0  0  0  0
  2  3  2  0
  2  1  1  0
  4  2  1  0
  5  4  1  0
  6  5  1  0
  7  6  1  0
  8  7  1  0
  8  9  1  6
 10 17  1  0
 10  8  1  0
 11 10  2  0
 13 12  1  0
 13 14  2  0
 16 15  1  6
 15 13  1  0
 16 17  1  0
 18 19  2  0
 18 16  1  0
 20 21  1  0
 21 22  1  0
 22 23  1  6
 24 22  1  0
 24 25  1  1
 25 18  1  0
 26 24  1  0
 27 26  1  0
 28 26  2  0
M  END
$$$$
