RNI.pdb
     RDKit          3D

 28 27  0  0  1  0  0  0  0  0999 V2000
    8.3176  -12.4776   17.1204 N   0  0  0  0  0  0  0  0  0  0  0  0
    7.9605  -13.6375   16.3877 C   0  0  0  0  0  0  0  0  0  0  0  0
    8.0160  -13.6381   15.1010 N   0  0  0  0  0  0  0  0  0  0  0  0
    7.5400  -14.7989   17.0988 N   0  0  0  0  0  0  0  0  0  0  0  0
    7.7432  -14.9331   18.5149 C   0  0  0  0  0  0  0  0  0  0  0  0
    8.6305  -16.1219   18.8618 C   0  0  0  0  0  0  0  0  0  0  0  0
    7.7091  -17.2710   19.1950 C   0  0  0  0  0  0  0  0  0  0  0  0
    7.4411  -17.3846   20.6682 C   0  0  2  0  0  0  0  0  0  0  0  0
    6.7238  -16.2361   21.1531 N   0  0  0  0  0  0  0  0  0  0  0  0
    8.7801  -17.5219   21.3446 C   0  0  0  0  0  0  0  0  0  0  0  0
    9.6810  -18.1988   20.7837 O   0  0  0  0  0  0  0  0  0  0  0  0
    7.7148  -14.4238   14.5055 N   0  0  0  0  0  0  0  0  0  0  0  0
   12.3125  -14.3332   20.2093 C   0  0  0  0  0  0  0  0  0  0  0  0
   11.4990  -15.3978   20.7182 O   0  0  0  0  0  0  0  0  0  0  0  0
   11.7867  -16.5494   20.3615 C   0  0  0  0  0  0  0  0  0  0  0  0
   10.3654  -15.1498   21.6274 C   0  0  2  0  0  0  0  0  0  0  0  0
   10.2902  -16.1624   22.7267 N   0  0  0  0  0  0  0  0  0  0  0  0
    9.0620  -16.9212   22.5817 C   0  0  0  0  0  0  0  0  0  0  0  0
   10.2403  -15.4788   24.0693 O   0  0  0  0  0  0  0  0  0  0  0  0
   11.1140  -14.6648   24.4196 C   0  0  0  0  0  0  0  0  0  0  0  0
    6.2895  -12.6613   25.4245 C   0  0  0  0  0  0  0  0  0  0  0  0
    7.6401  -13.3110   25.2746 C   0  0  2  0  0  0  0  0  0  0  0  0
    7.8692  -14.2809   26.4423 C   0  0  0  0  0  0  0  0  0  0  0  0
    8.0806  -13.4030   27.6583 C   0  0  2  0  0  0  0  0  0  0  0  0
    9.1220  -15.0852   26.2270 N   0  0  0  0  0  0  0  0  0  0  0  0
    9.1909  -15.7473   24.9716 C   0  0  0  0  0  0  0  0  0  0  0  0
    9.2187  -16.0848   27.3005 O   0  0  0  0  0  0  0  0  0  0  0  0
    9.8214  -15.7676   28.4893 O   0  0  0  0  0  0  0  0  0  0  0  0
  2  3  2  0
  2  1  1  0
  4  2  1  0
  5  4  1  0
  6  5  1  0
  7  6  1  0
  8  7  1  0
  8  9  1  1
 10 17  1  0
 10  8  1  0
 11 10  2  0
 13 12  1  0
 13 14  2  0
 16 15  1  6
 15 13  1  0
 16 17  1  0
 18 19  2  0
 18 16  1  0
 20 21  1  0
 21 22  1  0
 22 23  1  1
 24 22  1  0
 24 25  1  6
 25 18  1  0
 26 24  1  0
 27 26  1  0
 28 26  2  0
M  END
$$$$
