RNI.pdb
     RDKit          3D

 28 27  0  0  1  0  0  0  0  0999 V2000
    9.4882  -14.8690   18.5284 N   0  0  0  0  0  0  0  0  0  0  0  0
    8.5583  -13.8011   18.5959 C   0  0  0  0  0  0  0  0  0  0  0  0
    8.5137  -12.9161   17.6613 N   0  0  0  0  0  0  0  0  0  0  0  0
    7.6771  -13.7248   19.7135 N   0  0  0  0  0  0  0  0  0  0  0  0
    7.2257  -14.9025   20.4019 C   0  0  0  0  0  0  0  0  0  0  0  0
    5.9090  -15.4290   19.8450 C   0  0  0  0  0  0  0  0  0  0  0  0
    5.2494  -16.2138   20.9539 C   0  0  0  0  0  0  0  0  0  0  0  0
    5.9297  -17.5275   21.2117 C   0  0  2  0  0  0  0  0  0  0  0  0
    5.1825  -18.6168   20.6427 N   0  0  0  0  0  0  0  0  0  0  0  0
    6.0531  -17.6674   22.7065 C   0  0  0  0  0  0  0  0  0  0  0  0
    5.0083  -17.6641   23.4085 O   0  0  0  0  0  0  0  0  0  0  0  0
    7.9595  -12.0481   17.7073 N   0  0  0  0  0  0  0  0  0  0  0  0
    7.1302  -19.5994   27.6333 C   0  0  0  0  0  0  0  0  0  0  0  0
    8.1313  -19.1458   26.7135 O   0  0  0  0  0  0  0  0  0  0  0  0
    9.2116  -18.7719   27.1925 C   0  0  0  0  0  0  0  0  0  0  0  0
    7.9012  -19.1187   25.2576 C   0  0  1  0  0  0  0  0  0  0  0  0
    7.3337  -17.8123   24.7989 N   0  0  0  0  0  0  0  0  0  0  0  0
    7.2944  -17.8018   23.3485 C   0  0  0  0  0  0  0  0  0  0  0  0
    8.2197  -16.6725   25.2326 O   0  0  0  0  0  0  0  0  0  0  0  0
    9.2978  -16.4302   24.6601 C   0  0  0  0  0  0  0  0  0  0  0  0
    5.8703  -12.2099   26.7714 C   0  0  0  0  0  0  0  0  0  0  0  0
    7.1064  -12.8297   26.1743 C   0  0  2  0  0  0  0  0  0  0  0  0
    7.8795  -13.5768   27.2700 C   0  0  0  0  0  0  0  0  0  0  0  0
    8.8804  -12.5761   27.8091 C   0  0  2  0  0  0  0  0  0  0  0  0
    8.6464  -14.7317   26.6860 N   0  0  0  0  0  0  0  0  0  0  0  0
    7.8450  -15.8430   26.3091 C   0  0  0  0  0  0  0  0  0  0  0  0
    9.6404  -15.1727   27.6751 O   0  0  0  0  0  0  0  0  0  0  0  0
   10.9243  -14.6970   27.6255 O   0  0  0  0  0  0  0  0  0  0  0  0
  2  3  2  0
  2  1  1  0
  4  2  1  0
  5  4  1  0
  6  5  1  0
  7  6  1  0
  8  7  1  0
  8  9  1  1
 10 17  1  0
 10  8  1  0
 11 10  2  0
 13 12  1  0
 13 14  2  0
 16 15  1  1
 15 13  1  0
 16 17  1  0
 18 19  2  0
 18 16  1  0
 20 21  1  0
 21 22  1  0
 22 23  1  1
 24 22  1  0
 24 25  1  6
 25 18  1  0
 26 24  1  0
 27 26  1  0
 28 26  2  0
M  END
$$$$
