RNI.pdb
     RDKit          3D

 28 27  0  0  1  0  0  0  0  0999 V2000
    7.6104  -14.9554   15.3028 N   0  0  0  0  0  0  0  0  0  0  0  0
    7.9479  -13.9973   16.2916 C   0  0  0  0  0  0  0  0  0  0  0  0
    7.5716  -12.7719   16.1666 N   0  0  0  0  0  0  0  0  0  0  0  0
    8.7091  -14.4134   17.4224 N   0  0  0  0  0  0  0  0  0  0  0  0
    8.1609  -15.2874   18.4225 C   0  0  0  0  0  0  0  0  0  0  0  0
    7.2673  -14.5478   19.4101 C   0  0  0  0  0  0  0  0  0  0  0  0
    7.3744  -15.2791   20.7271 C   0  0  0  0  0  0  0  0  0  0  0  0
    8.6029  -14.8942   21.5003 C   0  0  2  0  0  0  0  0  0  0  0  0
    9.7811  -14.9936   20.6815 N   0  0  0  0  0  0  0  0  0  0  0  0
    8.6781  -15.8200   22.6862 C   0  0  0  0  0  0  0  0  0  0  0  0
    7.6852  -15.9101   23.4545 O   0  0  0  0  0  0  0  0  0  0  0  0
    7.8445  -12.0109   16.8062 N   0  0  0  0  0  0  0  0  0  0  0  0
   11.7278  -20.5410   25.1742 C   0  0  0  0  0  0  0  0  0  0  0  0
   10.6656  -19.5962   24.9918 O   0  0  0  0  0  0  0  0  0  0  0  0
    9.7592  -19.5942   25.8371 C   0  0  0  0  0  0  0  0  0  0  0  0
   10.6381  -18.6606   23.8528 C   0  0  2  0  0  0  0  0  0  0  0  0
    9.8120  -17.4461   24.1386 N   0  0  0  0  0  0  0  0  0  0  0  0
    9.8185  -16.5888   22.9679 C   0  0  0  0  0  0  0  0  0  0  0  0
   10.4104  -16.6582   25.2758 O   0  0  0  0  0  0  0  0  0  0  0  0
   11.5495  -16.1629   25.1977 C   0  0  0  0  0  0  0  0  0  0  0  0
    8.1623  -12.5546   27.2244 C   0  0  0  0  0  0  0  0  0  0  0  0
    9.2140  -13.5607   26.8368 C   0  0  2  0  0  0  0  0  0  0  0  0
    9.4253  -14.5459   27.9950 C   0  0  0  0  0  0  0  0  0  0  0  0
   10.2260  -13.7834   29.0301 C   0  0  2  0  0  0  0  0  0  0  0  0
   10.2473  -15.7236   27.5476 N   0  0  0  0  0  0  0  0  0  0  0  0
    9.6869  -16.4600   26.4693 C   0  0  0  0  0  0  0  0  0  0  0  0
   10.4296  -16.6222   28.6966 O   0  0  0  0  0  0  0  0  0  0  0  0
    9.7698  -17.8217   28.7485 O   0  0  0  0  0  0  0  0  0  0  0  0
  2  3  2  0
  2  1  1  0
  4  2  1  0
  5  4  1  0
  6  5  1  0
  7  6  1  0
  8  7  1  0
  8  9  1  6
 10 17  1  0
 10  8  1  0
 11 10  2  0
 13 12  1  0
 13 14  2  0
 16 15  1  6
 15 13  1  0
 16 17  1  0
 18 19  2  0
 18 16  1  0
 20 21  1  0
 21 22  1  0
 22 23  1  1
 24 22  1  0
 24 25  1  6
 25 18  1  0
 26 24  1  0
 27 26  1  0
 28 26  2  0
M  END
$$$$
