RNI.pdb
     RDKit          3D

 28 27  0  0  1  0  0  0  0  0999 V2000
    9.2101  -12.9357   18.5895 N   0  0  0  0  0  0  0  0  0  0  0  0
    7.9217  -13.4507   18.8807 C   0  0  0  0  0  0  0  0  0  0  0  0
    7.1617  -12.8592   19.7359 N   0  0  0  0  0  0  0  0  0  0  0  0
    7.4848  -14.6314   18.2125 N   0  0  0  0  0  0  0  0  0  0  0  0
    7.9479  -15.9349   18.6007 C   0  0  0  0  0  0  0  0  0  0  0  0
    6.8869  -16.7241   19.3574 C   0  0  0  0  0  0  0  0  0  0  0  0
    7.6209  -17.6713   20.2765 C   0  0  0  0  0  0  0  0  0  0  0  0
    7.3465  -17.3936   21.7266 C   0  0  2  0  0  0  0  0  0  0  0  0
    6.8179  -16.0684   21.9080 N   0  0  0  0  0  0  0  0  0  0  0  0
    8.6518  -17.5694   22.4576 C   0  0  0  0  0  0  0  0  0  0  0  0
    9.1867  -18.7085   22.4870 O   0  0  0  0  0  0  0  0  0  0  0  0
    6.1909  -13.1377   19.9426 N   0  0  0  0  0  0  0  0  0  0  0  0
   13.5800  -17.4169   23.2743 C   0  0  0  0  0  0  0  0  0  0  0  0
   12.9959  -16.1097   23.2092 O   0  0  0  0  0  0  0  0  0  0  0  0
   13.7206  -15.1508   23.5117 C   0  0  0  0  0  0  0  0  0  0  0  0
   11.5949  -15.8985   22.8019 C   0  0  1  0  0  0  0  0  0  0  0  0
   10.6399  -16.7106   23.6191 N   0  0  0  0  0  0  0  0  0  0  0  0
    9.2965  -16.5066   23.1100 C   0  0  0  0  0  0  0  0  0  0  0  0
   10.6514  -16.2496   25.0542 O   0  0  0  0  0  0  0  0  0  0  0  0
   11.7139  -16.1197   25.6890 C   0  0  0  0  0  0  0  0  0  0  0  0
    7.0895  -12.4532   26.2967 C   0  0  0  0  0  0  0  0  0  0  0  0
    8.3040  -13.3263   26.1202 C   0  0  2  0  0  0  0  0  0  0  0  0
    8.3530  -14.3625   27.2518 C   0  0  0  0  0  0  0  0  0  0  0  0
    8.6962  -13.5777   28.5008 C   0  0  2  0  0  0  0  0  0  0  0  0
    9.4543  -15.3590   27.0125 N   0  0  0  0  0  0  0  0  0  0  0  0
    9.4456  -15.9506   25.7206 C   0  0  0  0  0  0  0  0  0  0  0  0
    9.3449  -16.4194   28.0247 O   0  0  0  0  0  0  0  0  0  0  0  0
    9.7864  -16.2037   29.3036 O   0  0  0  0  0  0  0  0  0  0  0  0
  2  3  2  0
  2  1  1  0
  4  2  1  0
  5  4  1  0
  6  5  1  0
  7  6  1  0
  8  7  1  0
  8  9  1  6
 10 17  1  0
 10  8  1  0
 11 10  2  0
 13 12  1  0
 13 14  2  0
 16 15  1  6
 15 13  1  0
 16 17  1  0
 18 19  2  0
 18 16  1  0
 20 21  1  0
 21 22  1  0
 22 23  1  1
 24 22  1  0
 24 25  1  6
 25 18  1  0
 26 24  1  0
 27 26  1  0
 28 26  2  0
M  END
$$$$
