RNI.pdb
     RDKit          3D

 28 27  0  0  1  0  0  0  0  0999 V2000
    8.3268  -12.8508   16.7050 N   0  0  0  0  0  0  0  0  0  0  0  0
    8.1334  -13.6624   15.5588 C   0  0  0  0  0  0  0  0  0  0  0  0
    8.2374  -13.1580   14.3783 N   0  0  0  0  0  0  0  0  0  0  0  0
    7.8223  -15.0419   15.7363 N   0  0  0  0  0  0  0  0  0  0  0  0
    7.6130  -15.6078   17.0403 C   0  0  0  0  0  0  0  0  0  0  0  0
    8.1943  -14.7386   18.1482 C   0  0  0  0  0  0  0  0  0  0  0  0
    7.7741  -15.3624   19.4577 C   0  0  0  0  0  0  0  0  0  0  0  0
    8.8458  -16.2311   20.0509 C   0  0  2  0  0  0  0  0  0  0  0  0
    9.1339  -17.3521   19.1972 N   0  0  0  0  0  0  0  0  0  0  0  0
    8.3448  -16.6810   21.3984 C   0  0  0  0  0  0  0  0  0  0  0  0
    7.3776  -17.4848   21.4531 O   0  0  0  0  0  0  0  0  0  0  0  0
    8.0984  -13.6873   13.5047 N   0  0  0  0  0  0  0  0  0  0  0  0
    8.2251  -20.2417   25.1994 C   0  0  0  0  0  0  0  0  0  0  0  0
    9.0096  -19.0568   25.0131 O   0  0  0  0  0  0  0  0  0  0  0  0
    9.6487  -18.6423   25.9909 C   0  0  0  0  0  0  0  0  0  0  0  0
    9.0642  -18.3501   23.7205 C   0  0  1  0  0  0  0  0  0  0  0  0
    8.5938  -16.9338   23.8301 N   0  0  0  0  0  0  0  0  0  0  0  0
    8.9181  -16.2358   22.6000 C   0  0  0  0  0  0  0  0  0  0  0  0
    9.3116  -16.2261   24.9509 O   0  0  0  0  0  0  0  0  0  0  0  0
   10.5508  -16.1123   24.9625 C   0  0  0  0  0  0  0  0  0  0  0  0
    6.4964  -11.8508   26.1152 C   0  0  0  0  0  0  0  0  0  0  0  0
    7.5941  -12.8253   25.7781 C   0  0  2  0  0  0  0  0  0  0  0  0
    8.0924  -13.4943   27.0669 C   0  0  0  0  0  0  0  0  0  0  0  0
    8.7940  -12.3992   27.8428 C   0  0  2  0  0  0  0  0  0  0  0  0
    9.1040  -14.5628   26.7541 N   0  0  0  0  0  0  0  0  0  0  0  0
    8.5893  -15.6690   26.0257 C   0  0  0  0  0  0  0  0  0  0  0  0
    9.6706  -15.0468   28.0213 O   0  0  0  0  0  0  0  0  0  0  0  0
   10.5421  -14.2653   28.7330 O   0  0  0  0  0  0  0  0  0  0  0  0
  2  3  2  0
  2  1  1  0
  4  2  1  0
  5  4  1  0
  6  5  1  0
  7  6  1  0
  8  7  1  0
  8  9  1  6
 10 17  1  0
 10  8  1  0
 11 10  2  0
 13 12  1  0
 13 14  2  0
 16 15  1  6
 15 13  1  0
 16 17  1  0
 18 19  2  0
 18 16  1  0
 20 21  1  0
 21 22  1  0
 22 23  1  1
 24 22  1  0
 24 25  1  6
 25 18  1  0
 26 24  1  0
 27 26  1  0
 28 26  2  0
M  END
$$$$
