RNI.pdb
     RDKit          3D

 28 27  0  0  1  0  0  0  0  0999 V2000
    8.4424  -11.9443   18.1018 N   0  0  0  0  0  0  0  0  0  0  0  0
    8.3098  -13.3150   17.7648 C   0  0  0  0  0  0  0  0  0  0  0  0
    8.1094  -13.6691   16.5428 N   0  0  0  0  0  0  0  0  0  0  0  0
    8.4016  -14.2906   18.7998 N   0  0  0  0  0  0  0  0  0  0  0  0
    8.0485  -13.9862   20.1589 C   0  0  0  0  0  0  0  0  0  0  0  0
    6.6692  -14.5156   20.5306 C   0  0  0  0  0  0  0  0  0  0  0  0
    6.5427  -15.8826   19.9013 C   0  0  0  0  0  0  0  0  0  0  0  0
    7.4870  -16.8826   20.5040 C   0  0  2  0  0  0  0  0  0  0  0  0
    7.3448  -18.1699   19.8787 N   0  0  0  0  0  0  0  0  0  0  0  0
    7.1701  -16.9483   21.9752 C   0  0  0  0  0  0  0  0  0  0  0  0
    5.9762  -16.8105   22.3495 O   0  0  0  0  0  0  0  0  0  0  0  0
    8.1425  -14.6427   16.2058 N   0  0  0  0  0  0  0  0  0  0  0  0
    6.3713  -19.0917   26.6381 C   0  0  0  0  0  0  0  0  0  0  0  0
    7.7084  -19.0436   26.1244 O   0  0  0  0  0  0  0  0  0  0  0  0
    8.6311  -19.2289   26.9309 C   0  0  0  0  0  0  0  0  0  0  0  0
    7.9905  -18.7855   24.7005 C   0  0  1  0  0  0  0  0  0  0  0  0
    7.7540  -17.3559   24.3273 N   0  0  0  0  0  0  0  0  0  0  0  0
    8.1600  -17.1583   22.9483 C   0  0  0  0  0  0  0  0  0  0  0  0
    8.5982  -16.4430   25.1794 O   0  0  0  0  0  0  0  0  0  0  0  0
    9.8235  -16.3273   24.9953 C   0  0  0  0  0  0  0  0  0  0  0  0
    5.9522  -12.2803   27.4465 C   0  0  0  0  0  0  0  0  0  0  0  0
    7.0852  -12.9266   26.6934 C   0  0  2  0  0  0  0  0  0  0  0  0
    7.9686  -13.7068   27.6770 C   0  0  0  0  0  0  0  0  0  0  0  0
    8.9250  -12.6850   28.2558 C   0  0  2  0  0  0  0  0  0  0  0  0
    8.7813  -14.7451   26.9529 N   0  0  0  0  0  0  0  0  0  0  0  0
    8.0144  -15.6887   26.2176 C   0  0  0  0  0  0  0  0  0  0  0  0
    9.6007  -15.4613   27.9410 O   0  0  0  0  0  0  0  0  0  0  0  0
   10.7140  -14.8691   28.4766 O   0  0  0  0  0  0  0  0  0  0  0  0
  2  3  2  0
  2  1  1  0
  4  2  1  0
  5  4  1  0
  6  5  1  0
  7  6  1  0
  8  7  1  0
  8  9  1  6
 10 17  1  0
 10  8  1  0
 11 10  2  0
 13 12  1  0
 13 14  2  0
 16 15  1  6
 15 13  1  0
 16 17  1  0
 18 19  2  0
 18 16  1  0
 20 21  1  0
 21 22  1  0
 22 23  1  1
 24 22  1  0
 24 25  1  6
 25 18  1  0
 26 24  1  0
 27 26  1  0
 28 26  2  0
M  END
$$$$
