RNI.pdb
     RDKit          3D

 28 27  0  0  1  0  0  0  0  0999 V2000
    8.6463  -15.4321   15.0079 N   0  0  0  0  0  0  0  0  0  0  0  0
    8.0116  -14.2651   15.5028 C   0  0  0  0  0  0  0  0  0  0  0  0
    8.3235  -13.1060   15.0358 N   0  0  0  0  0  0  0  0  0  0  0  0
    7.0259  -14.3975   16.5237 N   0  0  0  0  0  0  0  0  0  0  0  0
    6.8148  -15.6398   17.2140 C   0  0  0  0  0  0  0  0  0  0  0  0
    8.0207  -16.0491   18.0502 C   0  0  0  0  0  0  0  0  0  0  0  0
    8.0207  -15.1671   19.2760 C   0  0  0  0  0  0  0  0  0  0  0  0
    9.1264  -15.5115   20.2321 C   0  0  2  0  0  0  0  0  0  0  0  0
    9.8467  -16.6758   19.7915 N   0  0  0  0  0  0  0  0  0  0  0  0
    8.4845  -15.7383   21.5759 C   0  0  0  0  0  0  0  0  0  0  0  0
    7.5499  -14.9789   21.9422 O   0  0  0  0  0  0  0  0  0  0  0  0
    7.9056  -12.2187   15.3531 N   0  0  0  0  0  0  0  0  0  0  0  0
    6.2198  -18.9766   25.4576 C   0  0  0  0  0  0  0  0  0  0  0  0
    7.6207  -18.6890   25.3626 O   0  0  0  0  0  0  0  0  0  0  0  0
    8.2692  -18.6809   26.4189 C   0  0  0  0  0  0  0  0  0  0  0  0
    8.2767  -18.4124   24.0717 C   0  0  1  0  0  0  0  0  0  0  0  0
    8.1608  -16.9742   23.6752 N   0  0  0  0  0  0  0  0  0  0  0  0
    8.8911  -16.7688   22.4383 C   0  0  0  0  0  0  0  0  0  0  0  0
    8.7888  -16.0879   24.7203 O   0  0  0  0  0  0  0  0  0  0  0  0
   10.0126  -15.8620   24.7339 C   0  0  0  0  0  0  0  0  0  0  0  0
    5.5591  -12.3496   26.3906 C   0  0  0  0  0  0  0  0  0  0  0  0
    6.9954  -12.6735   26.0737 C   0  0  2  0  0  0  0  0  0  0  0  0
    7.5745  -13.5562   27.1882 C   0  0  0  0  0  0  0  0  0  0  0  0
    8.3318  -12.6105   28.0972 C   0  0  2  0  0  0  0  0  0  0  0  0
    8.5577  -14.5459   26.6256 N   0  0  0  0  0  0  0  0  0  0  0  0
    7.9970  -15.4858   25.7193 C   0  0  0  0  0  0  0  0  0  0  0  0
    9.1746  -15.2711   27.7456 O   0  0  0  0  0  0  0  0  0  0  0  0
    8.8039  -16.5604   28.0233 O   0  0  0  0  0  0  0  0  0  0  0  0
  2  3  2  0
  2  1  1  0
  4  2  1  0
  5  4  1  0
  6  5  1  0
  7  6  1  0
  8  7  1  0
  8  9  1  6
 10 17  1  0
 10  8  1  0
 11 10  2  0
 13 12  1  0
 13 14  2  0
 16 15  1  6
 15 13  1  0
 16 17  1  0
 18 19  2  0
 18 16  1  0
 20 21  1  0
 21 22  1  0
 22 23  1  1
 24 22  1  0
 24 25  1  6
 25 18  1  0
 26 24  1  0
 27 26  1  0
 28 26  2  0
M  END
$$$$
