YRN.pdb
     RDKit          3D

 32 32  0  0  1  0  0  0  0  0999 V2000
   26.4551  -13.1807  -18.2544 O   0  0  0  0  0  0  0  0  0  0  0  0
   25.7097  -14.1773  -17.6322 C   0  0  0  0  0  0  0  0  0  0  0  0
   26.0574  -14.6676  -16.3902 C   0  0  0  0  0  0  0  0  0  0  0  0
   25.2833  -15.6544  -15.8213 C   0  0  0  0  0  0  0  0  0  0  0  0
   24.1851  -16.1592  -16.4501 C   0  0  0  0  0  0  0  0  0  0  0  0
   23.3312  -17.2283  -15.8558 C   0  0  0  0  0  0  0  0  0  0  0  0
   24.1032  -18.5393  -15.7894 C   0  0  2  0  0  0  0  0  0  0  0  0
   24.2886  -19.0886  -17.1193 N   0  0  0  0  0  0  0  0  0  0  0  0
   23.2830  -19.5084  -14.9853 C   0  0  0  0  0  0  0  0  0  0  0  0
   22.2952  -20.1145  -15.4872 O   0  0  0  0  0  0  0  0  0  0  0  0
   23.8234  -15.6778  -17.6958 C   0  0  0  0  0  0  0  0  0  0  0  0
   24.5930  -14.6925  -18.2683 C   0  0  0  0  0  0  0  0  0  0  0  0
   27.7074  -19.3476  -12.9467 N   0  0  0  0  0  0  0  0  0  0  0  0
   28.0378  -20.6801  -12.5878 C   0  0  0  0  0  0  0  0  0  0  0  0
   28.9662  -21.3227  -13.2056 N   0  0  0  0  0  0  0  0  0  0  0  0
   27.3536  -21.3441  -11.5362 N   0  0  0  0  0  0  0  0  0  0  0  0
   26.0305  -20.8893  -11.1778 C   0  0  0  0  0  0  0  0  0  0  0  0
   24.9303  -21.7060  -11.8399 C   0  0  0  0  0  0  0  0  0  0  0  0
   23.6219  -21.0553  -11.5696 C   0  0  0  0  0  0  0  0  0  0  0  0
   22.8226  -20.7034  -12.8073 C   0  0  2  0  0  0  0  0  0  0  0  0
   23.6010  -19.7700  -13.6263 N   0  0  0  0  0  0  0  0  0  0  0  0
   21.4911  -20.1501  -12.5000 C   0  0  0  0  0  0  0  0  0  0  0  0
   21.2553  -18.9243  -12.3735 O   0  0  0  0  0  0  0  0  0  0  0  0
   29.2065  -22.3185  -13.0241 N   0  0  0  0  0  0  0  0  0  0  0  0
   16.6961  -18.9305  -13.3312 C   0  0  0  0  0  0  0  0  0  0  0  0
   17.6730  -19.2179  -14.3231 O   0  0  0  0  0  0  0  0  0  0  0  0
   17.3975  -19.1118  -15.5292 C   0  0  0  0  0  0  0  0  0  0  0  0
   19.0082  -19.6410  -13.8889 C   0  0  1  0  0  0  0  0  0  0  0  0
   19.0231  -20.5833  -12.7323 N   0  0  0  0  0  0  0  0  0  0  0  0
   20.3399  -21.0045  -12.3192 C   0  0  0  0  0  0  0  0  0  0  0  0
   18.2770  -21.8200  -13.1527 O   0  0  0  0  0  0  0  0  0  0  0  0
   18.9229  -23.0264  -13.3861 O   0  0  0  0  0  0  0  0  0  0  0  0
  2  1  1  0
  3  2  2  0
  4  3  1  0
  5 11  1  0
  5  4  2  0
  6  5  1  0
  7  6  1  0
  7  8  1  6
  9  7  1  0
  9 21  1  0
 10  9  2  0
 11 12  2  0
 12  2  1  0
 14 13  1  0
 15 14  2  0
 16 14  1  0
 17 16  1  0
 18 17  1  0
 18 19  1  0
 20 19  1  1
 20 21  1  0
 20 22  1  0
 22 23  2  0
 24 25  1  0
 25 26  2  0
 25 27  1  0
 28 30  1  0
 28 27  1  1
 29 22  1  0
 29 28  1  0
 30 32  2  0
 30 31  1  0
M  END
$$$$
