YRN.pdb
     RDKit          3D

 32 32  0  0  1  0  0  0  0  0999 V2000
   42.3631  -36.4055   -9.4053 O   0  0  0  0  0  0  0  0  0  0  0  0
   40.9951  -36.4621   -9.6529 C   0  0  0  0  0  0  0  0  0  0  0  0
   40.5016  -36.7142  -10.9165 C   0  0  0  0  0  0  0  0  0  0  0  0
   39.1381  -36.7588  -11.1041 C   0  0  0  0  0  0  0  0  0  0  0  0
   38.2639  -36.5612  -10.0779 C   0  0  0  0  0  0  0  0  0  0  0  0
   36.7834  -36.6035  -10.2552 C   0  0  0  0  0  0  0  0  0  0  0  0
   36.3007  -35.3305  -10.9376 C   0  0  2  0  0  0  0  0  0  0  0  0
   36.1156  -34.2703   -9.9646 N   0  0  0  0  0  0  0  0  0  0  0  0
   34.9714  -35.6314  -11.5708 C   0  0  0  0  0  0  0  0  0  0  0  0
   33.9299  -35.7966  -10.8757 O   0  0  0  0  0  0  0  0  0  0  0  0
   38.7432  -36.3074   -8.8051 C   0  0  0  0  0  0  0  0  0  0  0  0
   40.1040  -36.2617   -8.6123 C   0  0  0  0  0  0  0  0  0  0  0  0
   31.3510  -31.7674  -18.0889 N   0  0  0  0  0  0  0  0  0  0  0  0
   32.0682  -31.6502  -16.8701 C   0  0  0  0  0  0  0  0  0  0  0  0
   32.6460  -30.5474  -16.5438 N   0  0  0  0  0  0  0  0  0  0  0  0
   32.1698  -32.7467  -15.9744 N   0  0  0  0  0  0  0  0  0  0  0  0
   31.9029  -34.0747  -16.4753 C   0  0  0  0  0  0  0  0  0  0  0  0
   32.0023  -35.1404  -15.3935 C   0  0  0  0  0  0  0  0  0  0  0  0
   33.3206  -35.0169  -14.7190 C   0  0  0  0  0  0  0  0  0  0  0  0
   33.5761  -36.0450  -13.6362 C   0  0  2  0  0  0  0  0  0  0  0  0
   34.8512  -35.7390  -12.9816 N   0  0  0  0  0  0  0  0  0  0  0  0
   33.5610  -37.4314  -14.1375 C   0  0  0  0  0  0  0  0  0  0  0  0
   34.3449  -38.3271  -13.7409 O   0  0  0  0  0  0  0  0  0  0  0  0
   33.1742  -30.4051  -15.6589 N   0  0  0  0  0  0  0  0  0  0  0  0
   30.3865  -41.3784  -14.4691 C   0  0  0  0  0  0  0  0  0  0  0  0
   30.2320  -40.3153  -13.5381 O   0  0  0  0  0  0  0  0  0  0  0  0
   29.5324  -40.4627  -12.5228 C   0  0  0  0  0  0  0  0  0  0  0  0
   30.9162  -39.0460  -13.8048 C   0  0  2  0  0  0  0  0  0  0  0  0
   31.8400  -39.0647  -14.9761 N   0  0  0  0  0  0  0  0  0  0  0  0
   32.6185  -37.8616  -15.1448 C   0  0  0  0  0  0  0  0  0  0  0  0
   30.9948  -39.2190  -16.2108 O   0  0  0  0  0  0  0  0  0  0  0  0
   31.2979  -40.1445  -17.2001 O   0  0  0  0  0  0  0  0  0  0  0  0
  2  1  1  0
  3  2  2  0
  4  3  1  0
  5 11  1  0
  5  4  2  0
  6  5  1  0
  7  6  1  0
  7  8  1  1
  9  7  1  0
  9 21  1  0
 10  9  2  0
 11 12  2  0
 12  2  1  0
 14 13  1  0
 15 14  2  0
 16 14  1  0
 17 16  1  0
 18 17  1  0
 18 19  1  0
 20 19  1  6
 20 21  1  0
 20 22  1  0
 22 23  2  0
 24 25  1  0
 25 26  2  0
 25 27  1  0
 28 30  1  0
 28 27  1  1
 29 22  1  0
 29 28  1  0
 30 32  2  0
 30 31  1  0
M  END
$$$$
