YRN.pdb
     RDKit          3D

 32 32  0  0  1  0  0  0  0  0999 V2000
   32.5252  -21.8546   -9.0081 O   0  0  0  0  0  0  0  0  0  0  0  0
   31.3325  -21.5936   -9.6753 C   0  0  0  0  0  0  0  0  0  0  0  0
   30.1647  -21.3332   -8.9882 C   0  0  0  0  0  0  0  0  0  0  0  0
   29.0130  -21.0814   -9.7001 C   0  0  0  0  0  0  0  0  0  0  0  0
   28.9948  -21.0824  -11.0624 C   0  0  0  0  0  0  0  0  0  0  0  0
   27.7609  -20.8137  -11.8564 C   0  0  0  0  0  0  0  0  0  0  0  0
   26.8089  -21.9986  -11.7625 C   0  0  2  0  0  0  0  0  0  0  0  0
   27.4246  -23.1911  -12.3138 N   0  0  0  0  0  0  0  0  0  0  0  0
   25.5931  -21.6696  -12.5822 C   0  0  0  0  0  0  0  0  0  0  0  0
   25.4621  -22.0855  -13.7675 O   0  0  0  0  0  0  0  0  0  0  0  0
   30.1577  -21.3417  -11.7658 C   0  0  0  0  0  0  0  0  0  0  0  0
   31.3104  -21.5937  -11.0597 C   0  0  0  0  0  0  0  0  0  0  0  0
   18.9248  -22.0657   -9.7387 N   0  0  0  0  0  0  0  0  0  0  0  0
   20.0846  -22.3893   -8.9879 C   0  0  0  0  0  0  0  0  0  0  0  0
   20.1446  -23.4712   -8.2933 N   0  0  0  0  0  0  0  0  0  0  0  0
   21.2134  -21.5288   -8.9807 N   0  0  0  0  0  0  0  0  0  0  0  0
   21.0850  -20.2163   -9.5695 C   0  0  0  0  0  0  0  0  0  0  0  0
   22.2017  -19.9038  -10.5550 C   0  0  0  0  0  0  0  0  0  0  0  0
   22.1535  -20.8929  -11.6630 C   0  0  0  0  0  0  0  0  0  0  0  0
   23.2478  -20.7368  -12.6987 C   0  0  2  0  0  0  0  0  0  0  0  0
   24.5494  -20.8744  -12.0392 N   0  0  0  0  0  0  0  0  0  0  0  0
   23.1659  -19.4662  -13.4421 C   0  0  0  0  0  0  0  0  0  0  0  0
   23.8276  -18.4411  -13.1499 O   0  0  0  0  0  0  0  0  0  0  0  0
   20.9172  -23.6998   -7.6351 N   0  0  0  0  0  0  0  0  0  0  0  0
   24.5248  -16.6317  -16.5657 C   0  0  0  0  0  0  0  0  0  0  0  0
   24.9340  -17.9838  -16.7244 O   0  0  0  0  0  0  0  0  0  0  0  0
   26.0639  -18.2535  -17.1634 C   0  0  0  0  0  0  0  0  0  0  0  0
   23.9932  -19.0476  -16.3588 C   0  0  2  0  0  0  0  0  0  0  0  0
   22.7153  -18.5742  -15.7516 N   0  0  0  0  0  0  0  0  0  0  0  0
   22.2958  -19.3133  -14.5855 C   0  0  0  0  0  0  0  0  0  0  0  0
   21.6384  -18.7395  -16.7887 O   0  0  0  0  0  0  0  0  0  0  0  0
   20.5828  -19.6250  -16.6198 O   0  0  0  0  0  0  0  0  0  0  0  0
  2  1  1  0
  3  2  2  0
  4  3  1  0
  5 11  1  0
  5  4  2  0
  6  5  1  0
  7  6  1  0
  7  8  1  6
  9  7  1  0
  9 21  1  0
 10  9  2  0
 11 12  2  0
 12  2  1  0
 14 13  1  0
 15 14  2  0
 16 14  1  0
 17 16  1  0
 18 17  1  0
 18 19  1  0
 20 19  1  1
 20 21  1  0
 20 22  1  0
 22 23  2  0
 24 25  1  0
 25 26  2  0
 25 27  1  0
 28 30  1  0
 28 27  1  1
 29 22  1  0
 29 28  1  0
 30 32  2  0
 30 31  1  0
M  END
$$$$
