YRN.pdb
     RDKit          3D

 32 32  0  0  1  0  0  0  0  0999 V2000
   18.2962   -8.9023  -19.0131 O   0  0  0  0  0  0  0  0  0  0  0  0
   18.9000  -10.1555  -18.9842 C   0  0  0  0  0  0  0  0  0  0  0  0
   18.8985  -10.9815  -20.0895 C   0  0  0  0  0  0  0  0  0  0  0  0
   19.5114  -12.2118  -20.0045 C   0  0  0  0  0  0  0  0  0  0  0  0
   20.1184  -12.6354  -18.8607 C   0  0  0  0  0  0  0  0  0  0  0  0
   20.7880  -13.9632  -18.7428 C   0  0  0  0  0  0  0  0  0  0  0  0
   22.2982  -13.8001  -18.8521 C   0  0  2  0  0  0  0  0  0  0  0  0
   22.6708  -13.3980  -20.1953 N   0  0  0  0  0  0  0  0  0  0  0  0
   22.9206  -15.1379  -18.5669 C   0  0  0  0  0  0  0  0  0  0  0  0
   23.0564  -16.0102  -19.4700 O   0  0  0  0  0  0  0  0  0  0  0  0
   20.1284  -11.8187  -17.7439 C   0  0  0  0  0  0  0  0  0  0  0  0
   19.5178  -10.5892  -17.8235 C   0  0  0  0  0  0  0  0  0  0  0  0
   27.0892  -20.4192  -14.5798 N   0  0  0  0  0  0  0  0  0  0  0  0
   28.0626  -19.7475  -15.3640 C   0  0  0  0  0  0  0  0  0  0  0  0
   28.9073  -20.4047  -16.0788 N   0  0  0  0  0  0  0  0  0  0  0  0
   28.1334  -18.3299  -15.3831 N   0  0  0  0  0  0  0  0  0  0  0  0
   27.0281  -17.5759  -14.8395 C   0  0  0  0  0  0  0  0  0  0  0  0
   25.7106  -17.8805  -15.5377 C   0  0  0  0  0  0  0  0  0  0  0  0
   25.1525  -16.6150  -16.0809 C   0  0  0  0  0  0  0  0  0  0  0  0
   23.9029  -16.7835  -16.9205 C   0  0  2  0  0  0  0  0  0  0  0  0
   23.3769  -15.4586  -17.2610 N   0  0  0  0  0  0  0  0  0  0  0  0
   22.8707  -17.6074  -16.2652 C   0  0  0  0  0  0  0  0  0  0  0  0
   22.1067  -17.1850  -15.3640 O   0  0  0  0  0  0  0  0  0  0  0  0
   29.6896  -19.9673  -16.6071 N   0  0  0  0  0  0  0  0  0  0  0  0
   20.0084  -21.1007  -13.6957 C   0  0  0  0  0  0  0  0  0  0  0  0
   19.7823  -19.8507  -14.3336 O   0  0  0  0  0  0  0  0  0  0  0  0
   18.6326  -19.3918  -14.4325 C   0  0  0  0  0  0  0  0  0  0  0  0
   20.9348  -19.1195  -14.8697 C   0  0  1  0  0  0  0  0  0  0  0  0
   21.6057  -19.7704  -16.0325 N   0  0  0  0  0  0  0  0  0  0  0  0
   22.6651  -18.9913  -16.6264 C   0  0  0  0  0  0  0  0  0  0  0  0
   20.5610  -19.9752  -17.0952 O   0  0  0  0  0  0  0  0  0  0  0  0
   20.4352  -19.1177  -18.1796 O   0  0  0  0  0  0  0  0  0  0  0  0
  2  1  1  0
  3  2  2  0
  4  3  1  0
  5 11  1  0
  5  4  2  0
  6  5  1  0
  7  6  1  0
  7  8  1  6
  9  7  1  0
  9 21  1  0
 10  9  2  0
 11 12  2  0
 12  2  1  0
 14 13  1  0
 15 14  2  0
 16 14  1  0
 17 16  1  0
 18 17  1  0
 18 19  1  0
 20 19  1  1
 20 21  1  0
 20 22  1  0
 22 23  2  0
 24 25  1  0
 25 26  2  0
 25 27  1  0
 28 30  1  0
 28 27  1  1
 29 22  1  0
 29 28  1  0
 30 32  2  0
 30 31  1  0
M  END
$$$$
