YRN.pdb
     RDKit          3D

 32 32  0  0  1  0  0  0  0  0999 V2000
   29.1152  -29.7769  -18.3347 O   0  0  0  0  0  0  0  0  0  0  0  0
   28.2796  -28.7477  -17.9123 C   0  0  0  0  0  0  0  0  0  0  0  0
   27.4222  -28.1113  -18.7861 C   0  0  0  0  0  0  0  0  0  0  0  0
   26.6174  -27.0987  -18.3133 C   0  0  0  0  0  0  0  0  0  0  0  0
   26.6446  -26.7083  -17.0083 C   0  0  0  0  0  0  0  0  0  0  0  0
   25.7841  -25.6141  -16.4719 C   0  0  0  0  0  0  0  0  0  0  0  0
   26.2904  -24.2628  -16.9585 C   0  0  2  0  0  0  0  0  0  0  0  0
   27.5860  -23.9654  -16.3771 N   0  0  0  0  0  0  0  0  0  0  0  0
   25.3122  -23.2192  -16.4976 C   0  0  0  0  0  0  0  0  0  0  0  0
   25.4993  -22.5598  -15.4369 O   0  0  0  0  0  0  0  0  0  0  0  0
   27.4990  -27.3366  -16.1198 C   0  0  0  0  0  0  0  0  0  0  0  0
   28.3046  -28.3484  -16.5868 C   0  0  0  0  0  0  0  0  0  0  0  0
   19.2479  -19.3402  -18.7609 N   0  0  0  0  0  0  0  0  0  0  0  0
   19.7536  -18.0169  -18.6794 C   0  0  0  0  0  0  0  0  0  0  0  0
   18.9613  -17.0106  -18.5530 N   0  0  0  0  0  0  0  0  0  0  0  0
   21.1492  -17.7639  -18.7351 N   0  0  0  0  0  0  0  0  0  0  0  0
   22.0469  -18.8807  -18.9155 C   0  0  0  0  0  0  0  0  0  0  0  0
   22.0488  -19.8297  -17.7258 C   0  0  0  0  0  0  0  0  0  0  0  0
   23.0211  -20.9229  -17.9865 C   0  0  0  0  0  0  0  0  0  0  0  0
   23.1780  -21.9141  -16.8518 C   0  0  2  0  0  0  0  0  0  0  0  0
   24.1401  -22.9451  -17.2510 N   0  0  0  0  0  0  0  0  0  0  0  0
   21.9017  -22.5199  -16.4303 C   0  0  0  0  0  0  0  0  0  0  0  0
   21.2044  -23.2626  -17.1626 O   0  0  0  0  0  0  0  0  0  0  0  0
   19.2793  -16.0220  -18.4896 N   0  0  0  0  0  0  0  0  0  0  0  0
   19.0949  -25.2354  -13.6267 C   0  0  0  0  0  0  0  0  0  0  0  0
   19.3349  -24.1721  -12.7142 O   0  0  0  0  0  0  0  0  0  0  0  0
   19.0890  -24.3110  -11.5049 C   0  0  0  0  0  0  0  0  0  0  0  0
   19.8775  -22.9127  -13.2336 C   0  0  2  0  0  0  0  0  0  0  0  0
   20.1040  -22.8873  -14.7080 N   0  0  0  0  0  0  0  0  0  0  0  0
   21.3550  -22.2926  -15.1121 C   0  0  0  0  0  0  0  0  0  0  0  0
   19.0057  -22.0583  -15.3157 O   0  0  0  0  0  0  0  0  0  0  0  0
   17.8377  -22.6274  -15.8045 O   0  0  0  0  0  0  0  0  0  0  0  0
  2  1  1  0
  3  2  2  0
  4  3  1  0
  5 11  1  0
  5  4  2  0
  6  5  1  0
  7  6  1  0
  7  8  1  1
  9  7  1  0
  9 21  1  0
 10  9  2  0
 11 12  2  0
 12  2  1  0
 14 13  1  0
 15 14  2  0
 16 14  1  0
 17 16  1  0
 18 17  1  0
 18 19  1  0
 20 19  1  6
 20 21  1  0
 20 22  1  0
 22 23  2  0
 24 25  1  0
 25 26  2  0
 25 27  1  0
 28 30  1  0
 28 27  1  1
 29 22  1  0
 29 28  1  0
 30 32  2  0
 30 31  1  0
M  END
$$$$
