YRN.pdb
     RDKit          3D

 32 32  0  0  1  0  0  0  0  0999 V2000
   28.2910  -15.9501  -17.2761 O   0  0  0  0  0  0  0  0  0  0  0  0
   27.3788  -14.9151  -17.4567 C   0  0  0  0  0  0  0  0  0  0  0  0
   27.1462  -14.3690  -18.7023 C   0  0  0  0  0  0  0  0  0  0  0  0
   26.2321  -13.3460  -18.8228 C   0  0  0  0  0  0  0  0  0  0  0  0
   25.5521  -12.8588  -17.7474 C   0  0  0  0  0  0  0  0  0  0  0  0
   24.5581  -11.7513  -17.8514 C   0  0  0  0  0  0  0  0  0  0  0  0
   23.1572  -12.3198  -18.0339 C   0  0  2  0  0  0  0  0  0  0  0  0
   23.0937  -13.1440  -19.2263 N   0  0  0  0  0  0  0  0  0  0  0  0
   22.2164  -11.1608  -18.2071 C   0  0  0  0  0  0  0  0  0  0  0  0
   21.7423  -10.8569  -19.3375 O   0  0  0  0  0  0  0  0  0  0  0  0
   25.7742  -13.3958  -16.4919 C   0  0  0  0  0  0  0  0  0  0  0  0
   26.6860  -14.4176  -16.3661 C   0  0  0  0  0  0  0  0  0  0  0  0
   17.6111  -13.5877  -16.1133 N   0  0  0  0  0  0  0  0  0  0  0  0
   16.5198  -12.7481  -15.7702 C   0  0  0  0  0  0  0  0  0  0  0  0
   15.6556  -13.1108  -14.8881 N   0  0  0  0  0  0  0  0  0  0  0  0
   16.3489  -11.4828  -16.3904 N   0  0  0  0  0  0  0  0  0  0  0  0
   17.3429  -11.0390  -17.3394 C   0  0  0  0  0  0  0  0  0  0  0  0
   18.5937  -10.4927  -16.6663 C   0  0  0  0  0  0  0  0  0  0  0  0
   19.5192   -9.9872  -17.7133 C   0  0  0  0  0  0  0  0  0  0  0  0
   20.7858   -9.3475  -17.1828 C   0  0  2  0  0  0  0  0  0  0  0  0
   21.8324  -10.3694  -17.0923 N   0  0  0  0  0  0  0  0  0  0  0  0
   20.5954   -8.6724  -15.8860 C   0  0  0  0  0  0  0  0  0  0  0  0
   20.8661   -9.1962  -14.7785 O   0  0  0  0  0  0  0  0  0  0  0  0
   14.8395  -12.5338  -14.5991 N   0  0  0  0  0  0  0  0  0  0  0  0
   23.2093   -3.9684  -14.4459 C   0  0  0  0  0  0  0  0  0  0  0  0
   22.5617   -5.1430  -13.9750 O   0  0  0  0  0  0  0  0  0  0  0  0
   22.4455   -5.3539  -12.7568 C   0  0  0  0  0  0  0  0  0  0  0  0
   22.0366   -6.0953  -14.9587 C   0  0  2  0  0  0  0  0  0  0  0  0
   20.5785   -6.3861  -14.8347 N   0  0  0  0  0  0  0  0  0  0  0  0
   20.0709   -7.3286  -15.8023 C   0  0  0  0  0  0  0  0  0  0  0  0
   19.8435   -5.0920  -15.0531 O   0  0  0  0  0  0  0  0  0  0  0  0
   18.8764   -4.9514  -16.0391 O   0  0  0  0  0  0  0  0  0  0  0  0
  2  1  1  0
  3  2  2  0
  4  3  1  0
  5 11  1  0
  5  4  2  0
  6  5  1  0
  7  6  1  0
  7  8  1  6
  9  7  1  0
  9 21  1  0
 10  9  2  0
 11 12  2  0
 12  2  1  0
 14 13  1  0
 15 14  2  0
 16 14  1  0
 17 16  1  0
 18 17  1  0
 18 19  1  0
 20 19  1  1
 20 21  1  0
 20 22  1  0
 22 23  2  0
 24 25  1  0
 25 26  2  0
 25 27  1  0
 28 30  1  0
 28 27  1  1
 29 22  1  0
 29 28  1  0
 30 32  2  0
 30 31  1  0
M  END
$$$$
