YRN.pdb
     RDKit          3D

 32 32  0  0  1  0  0  0  0  0999 V2000
   16.1460  -23.0443  -11.0335 O   0  0  0  0  0  0  0  0  0  0  0  0
   17.3468  -22.8334  -11.7038 C   0  0  0  0  0  0  0  0  0  0  0  0
   17.4314  -22.9294  -13.0776 C   0  0  0  0  0  0  0  0  0  0  0  0
   18.6459  -22.7105  -13.6888 C   0  0  0  0  0  0  0  0  0  0  0  0
   19.7649  -22.4022  -12.9752 C   0  0  0  0  0  0  0  0  0  0  0  0
   21.0918  -22.1616  -13.6131 C   0  0  0  0  0  0  0  0  0  0  0  0
   21.4518  -20.6841  -13.5325 C   0  0  2  0  0  0  0  0  0  0  0  0
   20.5879  -19.9019  -14.3966 N   0  0  0  0  0  0  0  0  0  0  0  0
   22.8671  -20.5352  -14.0153 C   0  0  0  0  0  0  0  0  0  0  0  0
   23.1410  -20.4511  -15.2453 O   0  0  0  0  0  0  0  0  0  0  0  0
   19.6963  -22.3023  -11.5970 C   0  0  0  0  0  0  0  0  0  0  0  0
   18.4859  -22.5199  -10.9819 C   0  0  0  0  0  0  0  0  0  0  0  0
   28.7503  -21.2611   -9.5913 N   0  0  0  0  0  0  0  0  0  0  0  0
   29.7847  -21.2059  -10.5611 C   0  0  0  0  0  0  0  0  0  0  0  0
   30.7727  -22.0298  -10.5247 N   0  0  0  0  0  0  0  0  0  0  0  0
   29.7602  -20.2395  -11.6005 N   0  0  0  0  0  0  0  0  0  0  0  0
   28.4882  -19.8884  -12.1873 C   0  0  0  0  0  0  0  0  0  0  0  0
   27.6255  -21.1054  -12.4886 C   0  0  0  0  0  0  0  0  0  0  0  0
   26.2017  -20.7551  -12.2471 C   0  0  0  0  0  0  0  0  0  0  0  0
   25.3232  -20.7913  -13.4806 C   0  0  2  0  0  0  0  0  0  0  0  0
   23.9440  -20.4848  -13.0910 N   0  0  0  0  0  0  0  0  0  0  0  0
   25.3932  -22.0734  -14.2051 C   0  0  0  0  0  0  0  0  0  0  0  0
   25.0322  -23.1721  -13.7187 O   0  0  0  0  0  0  0  0  0  0  0  0
   31.5951  -21.9831  -11.1603 N   0  0  0  0  0  0  0  0  0  0  0  0
   22.7630  -24.9556  -15.0702 C   0  0  0  0  0  0  0  0  0  0  0  0
   24.1621  -24.8552  -15.3007 O   0  0  0  0  0  0  0  0  0  0  0  0
   24.9683  -25.4184  -14.5424 C   0  0  0  0  0  0  0  0  0  0  0  0
   24.6280  -24.0737  -16.4507 C   0  0  2  0  0  0  0  0  0  0  0  0
   25.9505  -23.4090  -16.2638 N   0  0  0  0  0  0  0  0  0  0  0  0
   25.8951  -22.1518  -15.5578 C   0  0  0  0  0  0  0  0  0  0  0  0
   26.5047  -23.1215  -17.6323 O   0  0  0  0  0  0  0  0  0  0  0  0
   26.7601  -21.8280  -18.0668 O   0  0  0  0  0  0  0  0  0  0  0  0
  2  1  1  0
  3  2  2  0
  4  3  1  0
  5 11  1  0
  5  4  2  0
  6  5  1  0
  7  6  1  0
  7  8  1  6
  9  7  1  0
  9 21  1  0
 10  9  2  0
 11 12  2  0
 12  2  1  0
 14 13  1  0
 15 14  2  0
 16 14  1  0
 17 16  1  0
 18 17  1  0
 18 19  1  0
 20 19  1  1
 20 21  1  0
 20 22  1  0
 22 23  2  0
 24 25  1  0
 25 26  2  0
 25 27  1  0
 28 30  1  0
 28 27  1  1
 29 22  1  0
 29 28  1  0
 30 32  2  0
 30 31  1  0
M  END
$$$$
