YRN.pdb
     RDKit          3D

 32 32  0  0  1  0  0  0  0  0999 V2000
   26.7598  -13.9747  -18.5243 O   0  0  0  0  0  0  0  0  0  0  0  0
   26.5906  -15.0848  -17.7027 C   0  0  0  0  0  0  0  0  0  0  0  0
   27.2318  -15.1841  -16.4850 C   0  0  0  0  0  0  0  0  0  0  0  0
   27.0279  -16.3058  -15.7126 C   0  0  0  0  0  0  0  0  0  0  0  0
   26.2115  -17.3189  -16.1169 C   0  0  0  0  0  0  0  0  0  0  0  0
   25.9749  -18.5440  -15.2994 C   0  0  0  0  0  0  0  0  0  0  0  0
   27.2413  -19.3877  -15.2408 C   0  0  2  0  0  0  0  0  0  0  0  0
   27.4566  -20.0709  -16.5025 N   0  0  0  0  0  0  0  0  0  0  0  0
   27.0482  -20.4218  -14.1677 C   0  0  0  0  0  0  0  0  0  0  0  0
   26.5516  -21.5547  -14.4225 O   0  0  0  0  0  0  0  0  0  0  0  0
   25.5615  -17.2341  -17.3353 C   0  0  0  0  0  0  0  0  0  0  0  0
   25.7617  -16.1161  -18.1105 C   0  0  0  0  0  0  0  0  0  0  0  0
   31.5555  -22.6105   -7.7027 N   0  0  0  0  0  0  0  0  0  0  0  0
   31.1300  -22.2255   -9.0005 C   0  0  0  0  0  0  0  0  0  0  0  0
   31.8327  -22.5101  -10.0406 N   0  0  0  0  0  0  0  0  0  0  0  0
   29.9161  -21.5146   -9.1900 N   0  0  0  0  0  0  0  0  0  0  0  0
   28.6701  -22.1882   -8.9083 C   0  0  0  0  0  0  0  0  0  0  0  0
   27.4543  -21.3340   -9.2371 C   0  0  0  0  0  0  0  0  0  0  0  0
   27.7476  -20.5309  -10.4526 C   0  0  0  0  0  0  0  0  0  0  0  0
   27.1935  -21.1059  -11.7398 C   0  0  2  0  0  0  0  0  0  0  0  0
   27.4230  -20.1486  -12.8255 N   0  0  0  0  0  0  0  0  0  0  0  0
   25.7667  -21.4655  -11.6476 C   0  0  0  0  0  0  0  0  0  0  0  0
   25.3284  -22.4166  -10.9566 O   0  0  0  0  0  0  0  0  0  0  0  0
   31.6151  -22.1751  -11.0012 N   0  0  0  0  0  0  0  0  0  0  0  0
   20.8494  -21.6547   -9.8889 C   0  0  0  0  0  0  0  0  0  0  0  0
   21.3291  -20.6386  -10.7597 O   0  0  0  0  0  0  0  0  0  0  0  0
   20.5350  -19.9141  -11.3815 C   0  0  0  0  0  0  0  0  0  0  0  0
   22.7782  -20.4679  -10.9052 C   0  0  1  0  0  0  0  0  0  0  0  0
   23.3494  -21.0053  -12.1744 N   0  0  0  0  0  0  0  0  0  0  0  0
   24.7525  -20.7277  -12.3651 C   0  0  0  0  0  0  0  0  0  0  0  0
   22.6125  -20.3496  -13.3101 O   0  0  0  0  0  0  0  0  0  0  0  0
   21.4278  -20.8672  -13.8159 O   0  0  0  0  0  0  0  0  0  0  0  0
  2  1  1  0
  3  2  2  0
  4  3  1  0
  5 11  1  0
  5  4  2  0
  6  5  1  0
  7  6  1  0
  7  8  1  6
  9  7  1  0
  9 21  1  0
 10  9  2  0
 11 12  2  0
 12  2  1  0
 14 13  1  0
 15 14  2  0
 16 14  1  0
 17 16  1  0
 18 17  1  0
 18 19  1  0
 20 19  1  1
 20 21  1  0
 20 22  1  0
 22 23  2  0
 24 25  1  0
 25 26  2  0
 25 27  1  0
 28 30  1  0
 28 27  1  1
 29 22  1  0
 29 28  1  0
 30 32  2  0
 30 31  1  0
M  END
$$$$
