YRN.pdb
     RDKit          3D

 32 32  0  0  1  0  0  0  0  0999 V2000
   30.5072  -17.0712  -18.1674 O   0  0  0  0  0  0  0  0  0  0  0  0
   29.4347  -17.7162  -17.5595 C   0  0  0  0  0  0  0  0  0  0  0  0
   28.6816  -18.6544  -18.2350 C   0  0  0  0  0  0  0  0  0  0  0  0
   27.6310  -19.2618  -17.5840 C   0  0  0  0  0  0  0  0  0  0  0  0
   27.3150  -18.9622  -16.2930 C   0  0  0  0  0  0  0  0  0  0  0  0
   26.1820  -19.6050  -15.5662 C   0  0  0  0  0  0  0  0  0  0  0  0
   26.6899  -20.7736  -14.7322 C   0  0  2  0  0  0  0  0  0  0  0  0
   27.1203  -21.8618  -15.5899 N   0  0  0  0  0  0  0  0  0  0  0  0
   25.5458  -21.2589  -13.8873 C   0  0  0  0  0  0  0  0  0  0  0  0
   24.7042  -22.0910  -14.3283 O   0  0  0  0  0  0  0  0  0  0  0  0
   28.0607  -18.0236  -15.6022 C   0  0  0  0  0  0  0  0  0  0  0  0
   29.1109  -17.4142  -16.2477 C   0  0  0  0  0  0  0  0  0  0  0  0
   21.4148  -22.6203   -6.6459 N   0  0  0  0  0  0  0  0  0  0  0  0
   20.7545  -22.3518   -7.8729 C   0  0  0  0  0  0  0  0  0  0  0  0
   19.6138  -22.8833   -8.1425 N   0  0  0  0  0  0  0  0  0  0  0  0
   21.3333  -21.4887   -8.8399 N   0  0  0  0  0  0  0  0  0  0  0  0
   22.6872  -21.0301   -8.6340 C   0  0  0  0  0  0  0  0  0  0  0  0
   23.1306  -20.0214   -9.6836 C   0  0  0  0  0  0  0  0  0  0  0  0
   24.3272  -20.5546  -10.3851 C   0  0  0  0  0  0  0  0  0  0  0  0
   24.1048  -20.8988  -11.8434 C   0  0  2  0  0  0  0  0  0  0  0  0
   25.3799  -20.7894  -12.5575 N   0  0  0  0  0  0  0  0  0  0  0  0
   23.0694  -20.0674  -12.4841 C   0  0  0  0  0  0  0  0  0  0  0  0
   23.1668  -18.8263  -12.6403 O   0  0  0  0  0  0  0  0  0  0  0  0
   19.0881  -22.7200   -9.0253 N   0  0  0  0  0  0  0  0  0  0  0  0
   21.8815  -20.8027  -16.8938 C   0  0  0  0  0  0  0  0  0  0  0  0
   21.4429  -19.8057  -15.9804 O   0  0  0  0  0  0  0  0  0  0  0  0
   21.8963  -18.6513  -16.0411 C   0  0  0  0  0  0  0  0  0  0  0  0
   20.4463  -20.1723  -14.9692 C   0  0  2  0  0  0  0  0  0  0  0  0
   20.8125  -19.8141  -13.5680 N   0  0  0  0  0  0  0  0  0  0  0  0
   21.8425  -20.6412  -12.9875 C   0  0  0  0  0  0  0  0  0  0  0  0
   19.5796  -19.9891  -12.7241 O   0  0  0  0  0  0  0  0  0  0  0  0
   18.8099  -18.9100  -12.3116 O   0  0  0  0  0  0  0  0  0  0  0  0
  2  1  1  0
  3  2  2  0
  4  3  1  0
  5 11  1  0
  5  4  2  0
  6  5  1  0
  7  6  1  0
  7  8  1  6
  9  7  1  0
  9 21  1  0
 10  9  2  0
 11 12  2  0
 12  2  1  0
 14 13  1  0
 15 14  2  0
 16 14  1  0
 17 16  1  0
 18 17  1  0
 18 19  1  0
 20 19  1  1
 20 21  1  0
 20 22  1  0
 22 23  2  0
 24 25  1  0
 25 26  2  0
 25 27  1  0
 28 30  1  0
 28 27  1  6
 29 22  1  0
 29 28  1  0
 30 32  2  0
 30 31  1  0
M  END
$$$$
