YRN.pdb
     RDKit          3D

 32 32  0  0  1  0  0  0  0  0999 V2000
   20.7600  -21.8338   -7.8838 O   0  0  0  0  0  0  0  0  0  0  0  0
   21.9592  -21.4611   -8.4829 C   0  0  0  0  0  0  0  0  0  0  0  0
   22.1124  -21.4690   -9.8541 C   0  0  0  0  0  0  0  0  0  0  0  0
   23.3219  -21.0904  -10.3930 C   0  0  0  0  0  0  0  0  0  0  0  0
   24.3700  -20.7088   -9.6106 C   0  0  0  0  0  0  0  0  0  0  0  0
   25.6898  -20.2954  -10.1696 C   0  0  0  0  0  0  0  0  0  0  0  0
   25.6494  -20.3328  -11.6915 C   0  0  2  0  0  0  0  0  0  0  0  0
   25.3516  -21.6733  -12.1598 N   0  0  0  0  0  0  0  0  0  0  0  0
   27.0133  -19.9472  -12.1910 C   0  0  0  0  0  0  0  0  0  0  0  0
   27.4887  -18.7941  -11.9927 O   0  0  0  0  0  0  0  0  0  0  0  0
   24.2320  -20.6955   -8.2340 C   0  0  0  0  0  0  0  0  0  0  0  0
   23.0263  -21.0727   -7.6908 C   0  0  0  0  0  0  0  0  0  0  0  0
   34.0818  -23.6763  -10.9963 N   0  0  0  0  0  0  0  0  0  0  0  0
   33.2856  -23.7307  -12.1696 C   0  0  0  0  0  0  0  0  0  0  0  0
   33.5630  -24.5505  -13.1221 N   0  0  0  0  0  0  0  0  0  0  0  0
   32.1590  -22.8817  -12.3274 N   0  0  0  0  0  0  0  0  0  0  0  0
   31.9444  -21.8318  -11.3592 C   0  0  0  0  0  0  0  0  0  0  0  0
   30.7150  -20.9903  -11.6694 C   0  0  0  0  0  0  0  0  0  0  0  0
   30.1787  -21.3960  -12.9946 C   0  0  0  0  0  0  0  0  0  0  0  0
   29.0806  -20.5024  -13.5333 C   0  0  2  0  0  0  0  0  0  0  0  0
   27.8106  -20.8794  -12.9064 N   0  0  0  0  0  0  0  0  0  0  0  0
   28.9730  -20.5376  -15.0033 C   0  0  0  0  0  0  0  0  0  0  0  0
   29.9482  -20.3942  -15.7795 O   0  0  0  0  0  0  0  0  0  0  0  0
   33.0604  -24.5786  -14.0326 N   0  0  0  0  0  0  0  0  0  0  0  0
   27.9385  -23.8422  -19.2156 C   0  0  0  0  0  0  0  0  0  0  0  0
   26.9639  -23.0109  -18.5992 O   0  0  0  0  0  0  0  0  0  0  0  0
   25.9576  -22.6455  -19.2284 C   0  0  0  0  0  0  0  0  0  0  0  0
   27.1752  -22.5973  -17.2083 C   0  0  1  0  0  0  0  0  0  0  0  0
   27.6398  -21.1902  -17.0354 N   0  0  0  0  0  0  0  0  0  0  0  0
   27.7050  -20.7447  -15.6645 C   0  0  0  0  0  0  0  0  0  0  0  0
   26.6512  -20.3023  -17.7404 O   0  0  0  0  0  0  0  0  0  0  0  0
   25.9071  -19.3455  -17.0637 O   0  0  0  0  0  0  0  0  0  0  0  0
  2  1  1  0
  3  2  2  0
  4  3  1  0
  5 11  1  0
  5  4  2  0
  6  5  1  0
  7  6  1  0
  7  8  1  1
  9  7  1  0
  9 21  1  0
 10  9  2  0
 11 12  2  0
 12  2  1  0
 14 13  1  0
 15 14  2  0
 16 14  1  0
 17 16  1  0
 18 17  1  0
 18 19  1  0
 20 19  1  1
 20 21  1  0
 20 22  1  0
 22 23  2  0
 24 25  1  0
 25 26  2  0
 25 27  1  0
 28 30  1  0
 28 27  1  1
 29 22  1  0
 29 28  1  0
 30 32  2  0
 30 31  1  0
M  END
$$$$
