YRN.pdb
     RDKit          3D

 32 32  0  0  1  0  0  0  0  0999 V2000
   23.5374  -13.1707  -20.6983 O   0  0  0  0  0  0  0  0  0  0  0  0
   23.2548  -14.3365  -19.9934 C   0  0  0  0  0  0  0  0  0  0  0  0
   22.6397  -15.4131  -20.5987 C   0  0  0  0  0  0  0  0  0  0  0  0
   22.3839  -16.5421  -19.8527 C   0  0  0  0  0  0  0  0  0  0  0  0
   22.7208  -16.6252  -18.5352 C   0  0  0  0  0  0  0  0  0  0  0  0
   22.4537  -17.8359  -17.7055 C   0  0  0  0  0  0  0  0  0  0  0  0
   23.7666  -18.4759  -17.2745 C   0  0  2  0  0  0  0  0  0  0  0  0
   24.4480  -19.0577  -18.4156 N   0  0  0  0  0  0  0  0  0  0  0  0
   23.4380  -19.5767  -16.3057 C   0  0  0  0  0  0  0  0  0  0  0  0
   23.0017  -20.6950  -16.6983 O   0  0  0  0  0  0  0  0  0  0  0  0
   23.3380  -15.5542  -17.9139 C   0  0  0  0  0  0  0  0  0  0  0  0
   23.5958  -14.4244  -18.6544 C   0  0  0  0  0  0  0  0  0  0  0  0
   26.3687  -22.7465  -11.2626 N   0  0  0  0  0  0  0  0  0  0  0  0
   26.8382  -21.4169  -11.1034 C   0  0  0  0  0  0  0  0  0  0  0  0
   28.0646  -21.1127  -11.3478 N   0  0  0  0  0  0  0  0  0  0  0  0
   25.9684  -20.3825  -10.6694 N   0  0  0  0  0  0  0  0  0  0  0  0
   24.6042  -20.7212  -10.3374 C   0  0  0  0  0  0  0  0  0  0  0  0
   23.7873  -21.1260  -11.5559 C   0  0  0  0  0  0  0  0  0  0  0  0
   24.0299  -20.1428  -12.6435 C   0  0  0  0  0  0  0  0  0  0  0  0
   23.2851  -20.4274  -13.9315 C   0  0  2  0  0  0  0  0  0  0  0  0
   23.6113  -19.3855  -14.9093 N   0  0  0  0  0  0  0  0  0  0  0  0
   21.8267  -20.5373  -13.7460 C   0  0  0  0  0  0  0  0  0  0  0  0
   21.0684  -19.5539  -13.5668 O   0  0  0  0  0  0  0  0  0  0  0  0
   28.4663  -20.1615  -11.2205 N   0  0  0  0  0  0  0  0  0  0  0  0
   16.8368  -23.7785  -14.4559 C   0  0  0  0  0  0  0  0  0  0  0  0
   17.7510  -23.4274  -13.4255 O   0  0  0  0  0  0  0  0  0  0  0  0
   17.3527  -23.2477  -12.2632 C   0  0  0  0  0  0  0  0  0  0  0  0
   19.1697  -23.2832  -13.7674 C   0  0  1  0  0  0  0  0  0  0  0  0
   19.7324  -21.9188  -13.5497 N   0  0  0  0  0  0  0  0  0  0  0  0
   21.1566  -21.8175  -13.7583 C   0  0  0  0  0  0  0  0  0  0  0  0
   19.4702  -21.5498  -12.1152 O   0  0  0  0  0  0  0  0  0  0  0  0
   18.3079  -20.9005  -11.7222 O   0  0  0  0  0  0  0  0  0  0  0  0
  2  1  1  0
  3  2  2  0
  4  3  1  0
  5 11  1  0
  5  4  2  0
  6  5  1  0
  7  6  1  0
  7  8  1  6
  9  7  1  0
  9 21  1  0
 10  9  2  0
 11 12  2  0
 12  2  1  0
 14 13  1  0
 15 14  2  0
 16 14  1  0
 17 16  1  0
 18 17  1  0
 18 19  1  0
 20 19  1  1
 20 21  1  0
 20 22  1  0
 22 23  2  0
 24 25  1  0
 25 26  2  0
 25 27  1  0
 28 30  1  0
 28 27  1  6
 29 22  1  0
 29 28  1  0
 30 32  2  0
 30 31  1  0
M  END
$$$$
