YRN.pdb
     RDKit          3D

 32 32  0  0  1  0  0  0  0  0999 V2000
   24.0081  -10.5197  -20.9884 O   0  0  0  0  0  0  0  0  0  0  0  0
   23.5639  -11.7098  -20.4208 C   0  0  0  0  0  0  0  0  0  0  0  0
   22.3347  -12.2472  -20.7438 C   0  0  0  0  0  0  0  0  0  0  0  0
   21.9458  -13.4280  -20.1514 C   0  0  0  0  0  0  0  0  0  0  0  0
   22.7401  -14.0795  -19.2564 C   0  0  0  0  0  0  0  0  0  0  0  0
   22.3415  -15.3586  -18.6006 C   0  0  0  0  0  0  0  0  0  0  0  0
   23.0045  -16.5363  -19.3025 C   0  0  2  0  0  0  0  0  0  0  0  0
   22.4858  -16.6835  -20.6495 N   0  0  0  0  0  0  0  0  0  0  0  0
   22.6659  -17.7769  -18.5250 C   0  0  0  0  0  0  0  0  0  0  0  0
   21.5512  -18.3559  -18.6558 O   0  0  0  0  0  0  0  0  0  0  0  0
   23.9753  -13.5534  -18.9223 C   0  0  0  0  0  0  0  0  0  0  0  0
   24.3684  -12.3745  -19.5110 C   0  0  0  0  0  0  0  0  0  0  0  0
   24.8902  -24.6978  -15.2076 N   0  0  0  0  0  0  0  0  0  0  0  0
   25.6325  -24.2516  -16.3316 C   0  0  0  0  0  0  0  0  0  0  0  0
   25.8771  -25.0388  -17.3201 N   0  0  0  0  0  0  0  0  0  0  0  0
   26.1277  -22.9230  -16.3989 N   0  0  0  0  0  0  0  0  0  0  0  0
   25.8138  -22.0136  -15.3218 C   0  0  0  0  0  0  0  0  0  0  0  0
   24.4574  -21.3457  -15.4946 C   0  0  0  0  0  0  0  0  0  0  0  0
   24.6058  -20.1921  -16.4196 C   0  0  0  0  0  0  0  0  0  0  0  0
   23.3027  -19.5353  -16.8261 C   0  0  2  0  0  0  0  0  0  0  0  0
   23.6006  -18.3357  -17.6136 N   0  0  0  0  0  0  0  0  0  0  0  0
   22.4345  -19.2105  -15.6797 C   0  0  0  0  0  0  0  0  0  0  0  0
   22.6574  -18.2719  -14.8775 O   0  0  0  0  0  0  0  0  0  0  0  0
   26.4910  -24.7933  -18.1233 N   0  0  0  0  0  0  0  0  0  0  0  0
   19.2392  -17.5131  -12.0987 C   0  0  0  0  0  0  0  0  0  0  0  0
   18.7277  -18.0677  -13.3035 O   0  0  0  0  0  0  0  0  0  0  0  0
   17.5143  -18.3026  -13.4245 C   0  0  0  0  0  0  0  0  0  0  0  0
   19.6639  -18.3545  -14.3951 C   0  0  1  0  0  0  0  0  0  0  0  0
   20.3961  -19.6485  -14.2706 N   0  0  0  0  0  0  0  0  0  0  0  0
   21.2390  -19.9710  -15.3964 C   0  0  0  0  0  0  0  0  0  0  0  0
   19.3647  -20.7384  -14.1663 O   0  0  0  0  0  0  0  0  0  0  0  0
   18.6176  -20.9378  -13.0133 O   0  0  0  0  0  0  0  0  0  0  0  0
  2  1  1  0
  3  2  2  0
  4  3  1  0
  5 11  1  0
  5  4  2  0
  6  5  1  0
  7  6  1  0
  7  8  1  6
  9  7  1  0
  9 21  1  0
 10  9  2  0
 11 12  2  0
 12  2  1  0
 14 13  1  0
 15 14  2  0
 16 14  1  0
 17 16  1  0
 18 17  1  0
 18 19  1  0
 20 19  1  1
 20 21  1  0
 20 22  1  0
 22 23  2  0
 24 25  1  0
 25 26  2  0
 25 27  1  0
 28 30  1  0
 28 27  1  1
 29 22  1  0
 29 28  1  0
 30 32  2  0
 30 31  1  0
M  END
$$$$
