YRN.pdb
     RDKit          3D

 32 32  0  0  1  0  0  0  0  0999 V2000
   30.4764  -14.8153  -19.8801 O   0  0  0  0  0  0  0  0  0  0  0  0
   29.6324  -15.7780  -19.3355 C   0  0  0  0  0  0  0  0  0  0  0  0
   29.0224  -16.7310  -20.1251 C   0  0  0  0  0  0  0  0  0  0  0  0
   28.1964  -17.6600  -19.5325 C   0  0  0  0  0  0  0  0  0  0  0  0
   27.9652  -17.6642  -18.1898 C   0  0  0  0  0  0  0  0  0  0  0  0
   27.0745  -18.6587  -17.5242 C   0  0  0  0  0  0  0  0  0  0  0  0
   27.8989  -19.8148  -16.9738 C   0  0  2  0  0  0  0  0  0  0  0  0
   28.4564  -20.6031  -18.0566 N   0  0  0  0  0  0  0  0  0  0  0  0
   26.9751  -20.6908  -16.1753 C   0  0  0  0  0  0  0  0  0  0  0  0
   26.2316  -21.5475  -16.7306 O   0  0  0  0  0  0  0  0  0  0  0  0
   28.5695  -16.7152  -17.3846 C   0  0  0  0  0  0  0  0  0  0  0  0
   29.3952  -15.7852  -17.9714 C   0  0  0  0  0  0  0  0  0  0  0  0
   26.0627  -20.0220   -7.6401 N   0  0  0  0  0  0  0  0  0  0  0  0
   25.0798  -20.7104   -8.3974 C   0  0  0  0  0  0  0  0  0  0  0  0
   23.8734  -20.8307   -7.9654 N   0  0  0  0  0  0  0  0  0  0  0  0
   25.3984  -21.2873   -9.6546 N   0  0  0  0  0  0  0  0  0  0  0  0
   26.6844  -20.9943  -10.2428 C   0  0  0  0  0  0  0  0  0  0  0  0
   26.5720  -20.4674  -11.6661 C   0  0  0  0  0  0  0  0  0  0  0  0
   26.5465  -21.6205  -12.6032 C   0  0  0  0  0  0  0  0  0  0  0  0
   25.9397  -21.3211  -13.9585 C   0  0  2  0  0  0  0  0  0  0  0  0
   26.9138  -20.5764  -14.7613 N   0  0  0  0  0  0  0  0  0  0  0  0
   24.6607  -20.5927  -13.8732 C   0  0  0  0  0  0  0  0  0  0  0  0
   24.5705  -19.3627  -13.6427 O   0  0  0  0  0  0  0  0  0  0  0  0
   23.1246  -21.3535   -8.4636 N   0  0  0  0  0  0  0  0  0  0  0  0
   19.6794  -19.2709  -13.9865 C   0  0  0  0  0  0  0  0  0  0  0  0
   20.1767  -19.6758  -15.2552 O   0  0  0  0  0  0  0  0  0  0  0  0
   19.5263  -19.4505  -16.2888 C   0  0  0  0  0  0  0  0  0  0  0  0
   21.4708  -20.3631  -15.3132 C   0  0  1  0  0  0  0  0  0  0  0  0
   22.1478  -20.5390  -13.9954 N   0  0  0  0  0  0  0  0  0  0  0  0
   23.3940  -21.2640  -14.0539 C   0  0  0  0  0  0  0  0  0  0  0  0
   21.2185  -21.3309  -13.1166 O   0  0  0  0  0  0  0  0  0  0  0  0
   19.9945  -20.8281  -12.6970 O   0  0  0  0  0  0  0  0  0  0  0  0
  2  1  1  0
  3  2  2  0
  4  3  1  0
  5 11  1  0
  5  4  2  0
  6  5  1  0
  7  6  1  0
  7  8  1  6
  9  7  1  0
  9 21  1  0
 10  9  2  0
 11 12  2  0
 12  2  1  0
 14 13  1  0
 15 14  2  0
 16 14  1  0
 17 16  1  0
 18 17  1  0
 18 19  1  0
 20 19  1  1
 20 21  1  0
 20 22  1  0
 22 23  2  0
 24 25  1  0
 25 26  2  0
 25 27  1  0
 28 30  1  0
 28 27  1  6
 29 22  1  0
 29 28  1  0
 30 32  2  0
 30 31  1  0
M  END
$$$$
