YRN.pdb
     RDKit          3D

 32 32  0  0  1  0  0  0  0  0999 V2000
   18.3611  -11.3885  -16.3064 O   0  0  0  0  0  0  0  0  0  0  0  0
   19.0526  -12.5806  -16.1151 C   0  0  0  0  0  0  0  0  0  0  0  0
   20.4315  -12.6248  -16.1354 C   0  0  0  0  0  0  0  0  0  0  0  0
   21.0638  -13.8325  -15.9403 C   0  0  0  0  0  0  0  0  0  0  0  0
   20.3664  -14.9836  -15.7281 C   0  0  0  0  0  0  0  0  0  0  0  0
   21.0273  -16.3038  -15.5152 C   0  0  0  0  0  0  0  0  0  0  0  0
   21.6244  -16.8079  -16.8223 C   0  0  2  0  0  0  0  0  0  0  0  0
   20.5741  -17.1514  -17.7625 N   0  0  0  0  0  0  0  0  0  0  0  0
   22.4098  -18.0511  -16.5125 C   0  0  0  0  0  0  0  0  0  0  0  0
   21.8554  -19.1838  -16.4442 O   0  0  0  0  0  0  0  0  0  0  0  0
   18.9833  -14.9556  -15.7049 C   0  0  0  0  0  0  0  0  0  0  0  0
   18.3470  -13.7522  -15.8991 C   0  0  0  0  0  0  0  0  0  0  0  0
   28.9521  -22.3788  -16.3358 N   0  0  0  0  0  0  0  0  0  0  0  0
   29.0271  -21.5982  -17.5184 C   0  0  0  0  0  0  0  0  0  0  0  0
   29.2997  -22.1389  -18.6541 N   0  0  0  0  0  0  0  0  0  0  0  0
   28.8035  -20.1969  -17.4836 N   0  0  0  0  0  0  0  0  0  0  0  0
   28.4009  -19.5926  -16.2352 C   0  0  0  0  0  0  0  0  0  0  0  0
   26.9880  -19.9810  -15.8244 C   0  0  0  0  0  0  0  0  0  0  0  0
   26.0633  -18.8746  -16.1838 C   0  0  0  0  0  0  0  0  0  0  0  0
   24.6000  -19.1612  -15.9171 C   0  0  2  0  0  0  0  0  0  0  0  0
   23.8100  -17.9832  -16.2863 N   0  0  0  0  0  0  0  0  0  0  0  0
   24.3316  -19.5593  -14.5231 C   0  0  0  0  0  0  0  0  0  0  0  0
   24.1755  -18.7455  -13.5811 O   0  0  0  0  0  0  0  0  0  0  0  0
   29.3970  -21.6091  -19.5442 N   0  0  0  0  0  0  0  0  0  0  0  0
   24.9886  -21.8445   -9.6496 C   0  0  0  0  0  0  0  0  0  0  0  0
   24.2309  -20.8718  -10.3571 O   0  0  0  0  0  0  0  0  0  0  0  0
   23.2638  -20.3104   -9.8170 C   0  0  0  0  0  0  0  0  0  0  0  0
   24.6175  -20.5491  -11.7343 C   0  0  1  0  0  0  0  0  0  0  0  0
   23.9027  -21.3290  -12.7862 N   0  0  0  0  0  0  0  0  0  0  0  0
   24.2280  -20.9486  -14.1395 C   0  0  0  0  0  0  0  0  0  0  0  0
   22.4299  -21.0844  -12.6020 O   0  0  0  0  0  0  0  0  0  0  0  0
   21.6266  -21.9449  -11.8663 O   0  0  0  0  0  0  0  0  0  0  0  0
  2  1  1  0
  3  2  2  0
  4  3  1  0
  5 11  1  0
  5  4  2  0
  6  5  1  0
  7  6  1  0
  7  8  1  6
  9  7  1  0
  9 21  1  0
 10  9  2  0
 11 12  2  0
 12  2  1  0
 14 13  1  0
 15 14  2  0
 16 14  1  0
 17 16  1  0
 18 17  1  0
 18 19  1  0
 20 19  1  1
 20 21  1  0
 20 22  1  0
 22 23  2  0
 24 25  1  0
 25 26  2  0
 25 27  1  0
 28 30  1  0
 28 27  1  6
 29 22  1  0
 29 28  1  0
 30 32  2  0
 30 31  1  0
M  END
$$$$
