EFC.pdb
     RDKit          3D

 27 27  0  0  1  0  0  0  0  0999 V2000
   15.4640   -9.9461  -12.6535 N   0  0  0  0  0  0  0  0  0  0  0  0
   16.3360   -8.8349  -12.2743 C   0  0  1  0  0  0  0  0  0  0  0  0
   16.8274   -8.2414  -13.5688 C   0  0  0  0  0  0  0  0  0  0  0  0
   18.3072   -8.3616  -13.7514 C   0  0  0  0  0  0  0  0  0  0  0  0
   18.7874   -9.7478  -13.9398 C   0  0  0  0  0  0  0  0  0  0  0  0
   18.9178  -10.5843  -13.0235 O   0  0  0  0  0  0  0  0  0  0  0  0
   15.6204   -7.8579  -11.4304 C   0  0  0  0  0  0  0  0  0  0  0  0
   14.5201   -7.4023  -11.8232 O   0  0  0  0  0  0  0  0  0  0  0  0
   19.1318  -10.1927  -15.2291 O   0  0  0  0  0  0  0  0  0  0  0  0
   16.0939   -7.3889  -10.1872 N   0  0  0  0  0  0  0  0  0  0  0  0
   15.4028   -6.3887   -9.3817 C   0  0  1  0  0  0  0  0  0  0  0  0
   15.1089   -6.8892   -8.0067 C   0  0  0  0  0  0  0  0  0  0  0  0
   13.8874   -7.6470   -7.8625 C   0  0  0  0  0  0  0  0  0  0  0  0
   13.8317   -8.9921   -8.1045 C   0  0  0  0  0  0  0  0  0  0  0  0
   12.6313   -9.7022   -7.9585 C   0  0  0  0  0  0  0  0  0  0  0  0
   11.5001   -9.0428   -7.5692 C   0  0  0  0  0  0  0  0  0  0  0  0
   11.5347   -7.7025   -7.3231 C   0  0  0  0  0  0  0  0  0  0  0  0
   12.7254   -7.0182   -7.4717 C   0  0  0  0  0  0  0  0  0  0  0  0
   16.1152   -5.0940   -9.3380 C   0  0  0  0  0  0  0  0  0  0  0  0
   17.3627   -5.0045   -9.1051 O   0  0  0  0  0  0  0  0  0  0  0  0
   15.4213   -3.8902   -9.5613 N   0  0  0  0  0  0  0  0  0  0  0  0
   16.0490   -2.5789   -9.4349 C   0  0  1  0  0  0  0  0  0  0  0  0
   16.3810   -2.0186  -10.8137 C   0  0  0  0  0  0  0  0  0  0  0  0
   16.9656   -0.2984  -10.6320 S   0  0  0  0  0  0  0  0  0  0  0  0
   15.2272   -1.5936   -8.7216 C   0  0  0  0  0  0  0  0  0  0  0  0
   13.8827   -1.8262   -8.5341 O   0  0  0  0  0  0  0  0  0  0  0  0
   15.7330   -0.5461   -8.2825 O   0  0  0  0  0  0  0  0  0  0  0  0
  2  1  1  6
  2  3  1  0
  4  3  1  0
  5  6  2  0
  5  4  1  0
  7 10  1  0
  7  2  1  0
  8  7  2  0
  9  5  1  0
 11 10  1  0
 12 13  1  0
 11 12  1  1
 13 14  2  0
 13 18  1  0
 14 15  1  0
 15 16  2  0
 17 16  1  0
 18 17  2  0
 19 11  1  0
 19 20  2  0
 21 19  1  0
 22 21  1  0
 22 23  1  6
 24 23  1  0
 25 22  1  0
 26 25  1  0
 27 25  2  0
M  END
$$$$
