EFC.pdb
     RDKit          3D

 27 27  0  0  1  0  0  0  0  0999 V2000
   22.3020  -13.9885  -16.7413 N   0  0  0  0  0  0  0  0  0  0  0  0
   21.6689  -12.7299  -17.1338 C   0  0  1  0  0  0  0  0  0  0  0  0
   20.1974  -12.9129  -16.8681 C   0  0  0  0  0  0  0  0  0  0  0  0
   19.5615  -13.9460  -17.7433 C   0  0  0  0  0  0  0  0  0  0  0  0
   18.1102  -14.1238  -17.5206 C   0  0  0  0  0  0  0  0  0  0  0  0
   17.6107  -14.7562  -16.5682 O   0  0  0  0  0  0  0  0  0  0  0  0
   22.2473  -11.5885  -16.3980 C   0  0  0  0  0  0  0  0  0  0  0  0
   22.3681  -11.6636  -15.1521 O   0  0  0  0  0  0  0  0  0  0  0  0
   17.1954  -13.5545  -18.4250 O   0  0  0  0  0  0  0  0  0  0  0  0
   22.6836  -10.3933  -17.0070 N   0  0  0  0  0  0  0  0  0  0  0  0
   23.3309   -9.3047  -16.2839 C   0  0  1  0  0  0  0  0  0  0  0  0
   24.7251   -9.0717  -16.7627 C   0  0  0  0  0  0  0  0  0  0  0  0
   25.6530  -10.1573  -16.5451 C   0  0  0  0  0  0  0  0  0  0  0  0
   25.9041  -11.1036  -17.5004 C   0  0  0  0  0  0  0  0  0  0  0  0
   26.8086  -12.1482  -17.2609 C   0  0  0  0  0  0  0  0  0  0  0  0
   27.4491  -12.2235  -16.0567 C   0  0  0  0  0  0  0  0  0  0  0  0
   27.2128  -11.2904  -15.0916 C   0  0  0  0  0  0  0  0  0  0  0  0
   26.3189  -10.2680  -15.3439 C   0  0  0  0  0  0  0  0  0  0  0  0
   22.5432   -8.0538  -16.3033 C   0  0  0  0  0  0  0  0  0  0  0  0
   21.8707   -7.6818  -17.3171 O   0  0  0  0  0  0  0  0  0  0  0  0
   22.5080   -7.2155  -15.1735 N   0  0  0  0  0  0  0  0  0  0  0  0
   21.6920   -6.0074  -15.1086 C   0  0  1  0  0  0  0  0  0  0  0  0
   21.7226   -5.4261  -13.6992 C   0  0  0  0  0  0  0  0  0  0  0  0
   20.6947   -3.9177  -13.6552 S   0  0  0  0  0  0  0  0  0  0  0  0
   22.1066   -4.9597  -16.0495 C   0  0  0  0  0  0  0  0  0  0  0  0
   21.1561   -4.2120  -16.7086 O   0  0  0  0  0  0  0  0  0  0  0  0
   23.3118   -4.7380  -16.2596 O   0  0  0  0  0  0  0  0  0  0  0  0
  2  1  1  1
  2  3  1  0
  4  3  1  0
  5  6  2  0
  5  4  1  0
  7 10  1  0
  7  2  1  0
  8  7  2  0
  9  5  1  0
 11 10  1  0
 12 13  1  0
 11 12  1  6
 13 14  2  0
 13 18  1  0
 14 15  1  0
 15 16  2  0
 17 16  1  0
 18 17  2  0
 19 11  1  0
 19 20  2  0
 21 19  1  0
 22 21  1  0
 22 23  1  1
 24 23  1  0
 25 22  1  0
 26 25  1  0
 27 25  2  0
M  END
$$$$
