EFC.pdb
     RDKit          3D

 27 27  0  0  1  0  0  0  0  0999 V2000
   27.6150  -24.1725  -16.3868 N   0  0  0  0  0  0  0  0  0  0  0  0
   26.1899  -24.0522  -16.6923 C   0  0  1  0  0  0  0  0  0  0  0  0
   25.6801  -25.4637  -16.8243 C   0  0  0  0  0  0  0  0  0  0  0  0
   26.1505  -26.1494  -18.0677 C   0  0  0  0  0  0  0  0  0  0  0  0
   27.5925  -26.4783  -18.0739 C   0  0  0  0  0  0  0  0  0  0  0  0
   28.3976  -26.1229  -18.9582 O   0  0  0  0  0  0  0  0  0  0  0  0
   25.4831  -23.2820  -15.6502 C   0  0  0  0  0  0  0  0  0  0  0  0
   25.4491  -23.7283  -14.4788 O   0  0  0  0  0  0  0  0  0  0  0  0
   28.1331  -27.2449  -17.0255 O   0  0  0  0  0  0  0  0  0  0  0  0
   24.8287  -22.0538  -15.8806 N   0  0  0  0  0  0  0  0  0  0  0  0
   24.2673  -21.2234  -14.8213 C   0  0  1  0  0  0  0  0  0  0  0  0
   24.9480  -19.8980  -14.7349 C   0  0  0  0  0  0  0  0  0  0  0  0
   26.3175  -19.9245  -14.2760 C   0  0  0  0  0  0  0  0  0  0  0  0
   26.6398  -20.0105  -12.9495 C   0  0  0  0  0  0  0  0  0  0  0  0
   27.9785  -20.0321  -12.5323 C   0  0  0  0  0  0  0  0  0  0  0  0
   28.9765  -19.9663  -13.4627 C   0  0  0  0  0  0  0  0  0  0  0  0
   28.6763  -19.8803  -14.7895 C   0  0  0  0  0  0  0  0  0  0  0  0
   27.3524  -19.8602  -15.1834 C   0  0  0  0  0  0  0  0  0  0  0  0
   22.8016  -21.0652  -14.9312 C   0  0  0  0  0  0  0  0  0  0  0  0
   22.2235  -20.7661  -16.0243 O   0  0  0  0  0  0  0  0  0  0  0  0
   21.9780  -21.2477  -13.8047 N   0  0  0  0  0  0  0  0  0  0  0  0
   20.5306  -21.0663  -13.8439 C   0  0  1  0  0  0  0  0  0  0  0  0
   19.9245  -21.3687  -12.4777 C   0  0  0  0  0  0  0  0  0  0  0  0
   18.1129  -21.1610  -12.5712 S   0  0  0  0  0  0  0  0  0  0  0  0
   20.1119  -19.7182  -14.2468 C   0  0  0  0  0  0  0  0  0  0  0  0
   20.9845  -18.6604  -14.1195 O   0  0  0  0  0  0  0  0  0  0  0  0
   18.9729  -19.5189  -14.7038 O   0  0  0  0  0  0  0  0  0  0  0  0
  2  1  1  1
  2  3  1  0
  4  3  1  0
  5  6  2  0
  5  4  1  0
  7 10  1  0
  7  2  1  0
  8  7  2  0
  9  5  1  0
 11 10  1  0
 12 13  1  0
 11 12  1  6
 13 14  2  0
 13 18  1  0
 14 15  1  0
 15 16  2  0
 17 16  1  0
 18 17  2  0
 19 11  1  0
 19 20  2  0
 21 19  1  0
 22 21  1  0
 22 23  1  1
 24 23  1  0
 25 22  1  0
 26 25  1  0
 27 25  2  0
M  END
$$$$
