EFC.pdb
     RDKit          3D

 27 27  0  0  1  0  0  0  0  0999 V2000
   23.7577  -11.3815  -18.7948 N   0  0  0  0  0  0  0  0  0  0  0  0
   23.1490  -10.1246  -19.2293 C   0  0  1  0  0  0  0  0  0  0  0  0
   22.0441  -10.5123  -20.1770 C   0  0  0  0  0  0  0  0  0  0  0  0
   22.5414  -11.1268  -21.4469 C   0  0  0  0  0  0  0  0  0  0  0  0
   21.6486  -12.1607  -22.0141 C   0  0  0  0  0  0  0  0  0  0  0  0
   20.4800  -11.9552  -22.3996 O   0  0  0  0  0  0  0  0  0  0  0  0
   22.6670   -9.3379  -18.0771 C   0  0  0  0  0  0  0  0  0  0  0  0
   21.9845   -9.9069  -17.1922 O   0  0  0  0  0  0  0  0  0  0  0  0
   22.1133  -13.4820  -22.1444 O   0  0  0  0  0  0  0  0  0  0  0  0
   22.9235   -7.9629  -17.8945 N   0  0  0  0  0  0  0  0  0  0  0  0
   22.5453   -7.2198  -16.6980 C   0  0  1  0  0  0  0  0  0  0  0  0
   23.7283   -6.8987  -15.8466 C   0  0  0  0  0  0  0  0  0  0  0  0
   24.4829   -8.0334  -15.3670 C   0  0  0  0  0  0  0  0  0  0  0  0
   25.6710   -8.4092  -15.9311 C   0  0  0  0  0  0  0  0  0  0  0  0
   26.3814   -9.5169  -15.4463 C   0  0  0  0  0  0  0  0  0  0  0  0
   25.8812  -10.2322  -14.3956 C   0  0  0  0  0  0  0  0  0  0  0  0
   24.6989   -9.8741  -13.8195 C   0  0  0  0  0  0  0  0  0  0  0  0
   24.0119   -8.7803  -14.3093 C   0  0  0  0  0  0  0  0  0  0  0  0
   21.7594   -6.0049  -17.0008 C   0  0  0  0  0  0  0  0  0  0  0  0
   22.2315   -5.0308  -17.6692 O   0  0  0  0  0  0  0  0  0  0  0  0
   20.4310   -5.8844  -16.5520 N   0  0  0  0  0  0  0  0  0  0  0  0
   19.5931   -4.7296  -16.8582 C   0  0  1  0  0  0  0  0  0  0  0  0
   18.1549   -5.1727  -17.1046 C   0  0  0  0  0  0  0  0  0  0  0  0
   17.1518   -3.7148  -17.5540 S   0  0  0  0  0  0  0  0  0  0  0  0
   19.5869   -3.7051  -15.8068 C   0  0  0  0  0  0  0  0  0  0  0  0
   19.8553   -2.3921  -16.1246 O   0  0  0  0  0  0  0  0  0  0  0  0
   19.3412   -4.0100  -14.6269 O   0  0  0  0  0  0  0  0  0  0  0  0
  2  1  1  1
  2  3  1  0
  4  3  1  0
  5  6  2  0
  5  4  1  0
  7 10  1  0
  7  2  1  0
  8  7  2  0
  9  5  1  0
 11 10  1  0
 12 13  1  0
 11 12  1  6
 13 14  2  0
 13 18  1  0
 14 15  1  0
 15 16  2  0
 17 16  1  0
 18 17  2  0
 19 11  1  0
 19 20  2  0
 21 19  1  0
 22 21  1  0
 22 23  1  1
 24 23  1  0
 25 22  1  0
 26 25  1  0
 27 25  2  0
M  END
$$$$
