EFC.pdb
     RDKit          3D

 27 27  0  0  1  0  0  0  0  0999 V2000
   28.3444  -22.4514  -17.0218 N   0  0  0  0  0  0  0  0  0  0  0  0
   27.9069  -21.1797  -16.4470 C   0  0  1  0  0  0  0  0  0  0  0  0
   27.0671  -20.5192  -17.5090 C   0  0  0  0  0  0  0  0  0  0  0  0
   27.0982  -21.2377  -18.8206 C   0  0  0  0  0  0  0  0  0  0  0  0
   28.0002  -20.6336  -19.8252 C   0  0  0  0  0  0  0  0  0  0  0  0
   28.9299  -21.2369  -20.3979 O   0  0  0  0  0  0  0  0  0  0  0  0
   27.1735  -21.3886  -15.1832 C   0  0  0  0  0  0  0  0  0  0  0  0
   26.6671  -22.5119  -14.9499 O   0  0  0  0  0  0  0  0  0  0  0  0
   27.8300  -19.2850  -20.1875 O   0  0  0  0  0  0  0  0  0  0  0  0
   26.9968  -20.3956  -14.1970 N   0  0  0  0  0  0  0  0  0  0  0  0
   26.2028  -20.5857  -12.9886 C   0  0  1  0  0  0  0  0  0  0  0  0
   26.5338  -19.5748  -11.9418 C   0  0  0  0  0  0  0  0  0  0  0  0
   26.7979  -20.1009  -10.6225 C   0  0  0  0  0  0  0  0  0  0  0  0
   26.0702  -19.7220   -9.5280 C   0  0  0  0  0  0  0  0  0  0  0  0
   26.3502  -20.2476   -8.2584 C   0  0  0  0  0  0  0  0  0  0  0  0
   27.3640  -21.1510   -8.1105 C   0  0  0  0  0  0  0  0  0  0  0  0
   28.1009  -21.5416   -9.1886 C   0  0  0  0  0  0  0  0  0  0  0  0
   27.8119  -21.0142  -10.4322 C   0  0  0  0  0  0  0  0  0  0  0  0
   24.7493  -20.6216  -13.2561 C   0  0  0  0  0  0  0  0  0  0  0  0
   24.1765  -19.8063  -14.0471 O   0  0  0  0  0  0  0  0  0  0  0  0
   23.9328  -21.5834  -12.6324 N   0  0  0  0  0  0  0  0  0  0  0  0
   22.4756  -21.5522  -12.7046 C   0  0  1  0  0  0  0  0  0  0  0  0
   21.8761  -22.4785  -11.6520 C   0  0  0  0  0  0  0  0  0  0  0  0
   20.0614  -22.5103  -11.8515 S   0  0  0  0  0  0  0  0  0  0  0  0
   21.9007  -20.2138  -12.5233 C   0  0  0  0  0  0  0  0  0  0  0  0
   20.9016  -19.7750  -13.3636 O   0  0  0  0  0  0  0  0  0  0  0  0
   22.3070  -19.4676  -11.6156 O   0  0  0  0  0  0  0  0  0  0  0  0
  2  1  1  6
  2  3  1  0
  4  3  1  0
  5  6  2  0
  5  4  1  0
  7 10  1  0
  7  2  1  0
  8  7  2  0
  9  5  1  0
 11 10  1  0
 12 13  1  0
 11 12  1  1
 13 14  2  0
 13 18  1  0
 14 15  1  0
 15 16  2  0
 17 16  1  0
 18 17  2  0
 19 11  1  0
 19 20  2  0
 21 19  1  0
 22 21  1  0
 22 23  1  1
 24 23  1  0
 25 22  1  0
 26 25  1  0
 27 25  2  0
M  END
$$$$
