EFC.pdb
     RDKit          3D

 27 27  0  0  1  0  0  0  0  0999 V2000
   21.8326  -12.4516  -17.2948 N   0  0  0  0  0  0  0  0  0  0  0  0
   22.7016  -11.4295  -17.8771 C   0  0  1  0  0  0  0  0  0  0  0  0
   22.2171  -11.2387  -19.2906 C   0  0  0  0  0  0  0  0  0  0  0  0
   20.7385  -11.0335  -19.3872 C   0  0  0  0  0  0  0  0  0  0  0  0
   20.3402   -9.7728  -20.0504 C   0  0  0  0  0  0  0  0  0  0  0  0
   20.0876   -8.7065  -19.4540 O   0  0  0  0  0  0  0  0  0  0  0  0
   22.6666  -10.1841  -17.0855 C   0  0  0  0  0  0  0  0  0  0  0  0
   21.8074  -10.0601  -16.1805 O   0  0  0  0  0  0  0  0  0  0  0  0
   20.2267   -9.7327  -21.4519 O   0  0  0  0  0  0  0  0  0  0  0  0
   23.5480   -9.0995  -17.2766 N   0  0  0  0  0  0  0  0  0  0  0  0
   23.5259   -7.8852  -16.4693 C   0  0  1  0  0  0  0  0  0  0  0  0
   24.8951   -7.4849  -16.0306 C   0  0  0  0  0  0  0  0  0  0  0  0
   25.8814   -8.5402  -16.0110 C   0  0  0  0  0  0  0  0  0  0  0  0
   26.8041   -8.6937  -17.0091 C   0  0  0  0  0  0  0  0  0  0  0  0
   27.7489   -9.7291  -16.9651 C   0  0  0  0  0  0  0  0  0  0  0  0
   27.7494  -10.5980  -15.9111 C   0  0  0  0  0  0  0  0  0  0  0  0
   26.8383  -10.4621  -14.9063 C   0  0  0  0  0  0  0  0  0  0  0  0
   25.9146   -9.4368  -14.9652 C   0  0  0  0  0  0  0  0  0  0  0  0
   22.8296   -6.7646  -17.1362 C   0  0  0  0  0  0  0  0  0  0  0  0
   23.3319   -6.1318  -18.1190 O   0  0  0  0  0  0  0  0  0  0  0  0
   21.5570   -6.3534  -16.6979 N   0  0  0  0  0  0  0  0  0  0  0  0
   20.8167   -5.2638  -17.3258 C   0  0  1  0  0  0  0  0  0  0  0  0
   19.5565   -5.8007  -17.9960 C   0  0  0  0  0  0  0  0  0  0  0  0
   18.5582   -4.3956  -18.5982 S   0  0  0  0  0  0  0  0  0  0  0  0
   20.4265   -4.1976  -16.3953 C   0  0  0  0  0  0  0  0  0  0  0  0
   20.4470   -4.4282  -15.0376 O   0  0  0  0  0  0  0  0  0  0  0  0
   20.0759   -3.0831  -16.8204 O   0  0  0  0  0  0  0  0  0  0  0  0
  2  1  1  1
  2  3  1  0
  4  3  1  0
  5  6  2  0
  5  4  1  0
  7 10  1  0
  7  2  1  0
  8  7  2  0
  9  5  1  0
 11 10  1  0
 12 13  1  0
 11 12  1  6
 13 14  2  0
 13 18  1  0
 14 15  1  0
 15 16  2  0
 17 16  1  0
 18 17  2  0
 19 11  1  0
 19 20  2  0
 21 19  1  0
 22 21  1  0
 22 23  1  1
 24 23  1  0
 25 22  1  0
 26 25  1  0
 27 25  2  0
M  END
$$$$
