EFC.pdb
     RDKit          3D

 27 27  0  0  1  0  0  0  0  0999 V2000
   18.7617  -24.4397   -7.3927 N   0  0  0  0  0  0  0  0  0  0  0  0
   17.3083  -24.5998   -7.3602 C   0  0  1  0  0  0  0  0  0  0  0  0
   17.0557  -26.0733   -7.5456 C   0  0  0  0  0  0  0  0  0  0  0  0
   17.1946  -26.5239   -8.9653 C   0  0  0  0  0  0  0  0  0  0  0  0
   15.9989  -26.2814   -9.8014 C   0  0  0  0  0  0  0  0  0  0  0  0
   14.8219  -26.4392   -9.4190 O   0  0  0  0  0  0  0  0  0  0  0  0
   16.7407  -24.0742   -6.1031 C   0  0  0  0  0  0  0  0  0  0  0  0
   17.5062  -23.8452   -5.1366 O   0  0  0  0  0  0  0  0  0  0  0  0
   16.1584  -25.8410  -11.1278 O   0  0  0  0  0  0  0  0  0  0  0  0
   15.3704  -23.8046   -5.9050 N   0  0  0  0  0  0  0  0  0  0  0  0
   14.8285  -23.2132   -4.6870 C   0  0  1  0  0  0  0  0  0  0  0  0
   13.7546  -22.2198   -4.9822 C   0  0  0  0  0  0  0  0  0  0  0  0
   14.1875  -20.9989   -5.6217 C   0  0  0  0  0  0  0  0  0  0  0  0
   14.3420  -19.8291   -4.9297 C   0  0  0  0  0  0  0  0  0  0  0  0
   14.7617  -18.6581   -5.5770 C   0  0  0  0  0  0  0  0  0  0  0  0
   15.0204  -18.6838   -6.9181 C   0  0  0  0  0  0  0  0  0  0  0  0
   14.8725  -19.8395   -7.6257 C   0  0  0  0  0  0  0  0  0  0  0  0
   14.4584  -20.9840   -6.9726 C   0  0  0  0  0  0  0  0  0  0  0  0
   14.3673  -24.2252   -3.7130 C   0  0  0  0  0  0  0  0  0  0  0  0
   13.5881  -25.1791   -4.0313 O   0  0  0  0  0  0  0  0  0  0  0  0
   14.7873  -24.1671   -2.3711 N   0  0  0  0  0  0  0  0  0  0  0  0
   14.4141  -25.1711   -1.3801 C   0  0  1  0  0  0  0  0  0  0  0  0
   15.5772  -25.4298   -0.4284 C   0  0  0  0  0  0  0  0  0  0  0  0
   17.0391  -25.9348   -1.3989 S   0  0  0  0  0  0  0  0  0  0  0  0
   13.2364  -24.8087   -0.5822 C   0  0  0  0  0  0  0  0  0  0  0  0
   12.7046  -25.7139    0.3091 O   0  0  0  0  0  0  0  0  0  0  0  0
   12.7105  -23.6885   -0.7022 O   0  0  0  0  0  0  0  0  0  0  0  0
  2  1  1  1
  2  3  1  0
  4  3  1  0
  5  6  2  0
  5  4  1  0
  7 10  1  0
  7  2  1  0
  8  7  2  0
  9  5  1  0
 11 10  1  0
 12 13  1  0
 11 12  1  6
 13 14  2  0
 13 18  1  0
 14 15  1  0
 15 16  2  0
 17 16  1  0
 18 17  2  0
 19 11  1  0
 19 20  2  0
 21 19  1  0
 22 21  1  0
 22 23  1  1
 24 23  1  0
 25 22  1  0
 26 25  1  0
 27 25  2  0
M  END
$$$$
