EFC.pdb
     RDKit          3D

 27 27  0  0  1  0  0  0  0  0999 V2000
   27.0715  -19.1637  -13.9056 N   0  0  0  0  0  0  0  0  0  0  0  0
   26.7017  -20.5639  -14.1096 C   0  0  1  0  0  0  0  0  0  0  0  0
   27.8007  -21.1579  -14.9515 C   0  0  0  0  0  0  0  0  0  0  0  0
   28.0446  -20.4074  -16.2224 C   0  0  0  0  0  0  0  0  0  0  0  0
   28.8269  -21.1548  -17.2309 C   0  0  0  0  0  0  0  0  0  0  0  0
   29.1625  -22.3516  -17.1243 O   0  0  0  0  0  0  0  0  0  0  0  0
   26.5240  -21.2629  -12.8218 C   0  0  0  0  0  0  0  0  0  0  0  0
   26.4950  -22.5165  -12.8066 O   0  0  0  0  0  0  0  0  0  0  0  0
   29.2409  -20.5049  -18.4078 O   0  0  0  0  0  0  0  0  0  0  0  0
   26.3813  -20.6097  -11.5797 N   0  0  0  0  0  0  0  0  0  0  0  0
   25.3797  -20.9725  -10.5836 C   0  0  1  0  0  0  0  0  0  0  0  0
   25.5664  -20.2196   -9.3086 C   0  0  0  0  0  0  0  0  0  0  0  0
   26.8381  -20.4070   -8.6495 C   0  0  0  0  0  0  0  0  0  0  0  0
   27.7454  -21.3409   -9.0689 C   0  0  0  0  0  0  0  0  0  0  0  0
   28.9719  -21.5026   -8.4084 C   0  0  0  0  0  0  0  0  0  0  0  0
   29.2666  -20.7172   -7.3303 C   0  0  0  0  0  0  0  0  0  0  0  0
   28.3760  -19.7808   -6.8967 C   0  0  0  0  0  0  0  0  0  0  0  0
   27.1725  -19.6345   -7.5587 C   0  0  0  0  0  0  0  0  0  0  0  0
   23.9956  -20.8386  -11.0855 C   0  0  0  0  0  0  0  0  0  0  0  0
   22.9787  -21.1407  -10.3833 O   0  0  0  0  0  0  0  0  0  0  0  0
   23.7516  -20.3583  -12.3856 N   0  0  0  0  0  0  0  0  0  0  0  0
   22.4076  -20.1329  -12.9075 C   0  0  1  0  0  0  0  0  0  0  0  0
   22.4666  -19.2556  -14.1535 C   0  0  0  0  0  0  0  0  0  0  0  0
   20.7654  -18.9160  -14.7231 S   0  0  0  0  0  0  0  0  0  0  0  0
   21.6871  -21.3666  -13.2450 C   0  0  0  0  0  0  0  0  0  0  0  0
   20.3779  -21.5284  -12.8493 O   0  0  0  0  0  0  0  0  0  0  0  0
   22.2476  -22.2718  -13.8870 O   0  0  0  0  0  0  0  0  0  0  0  0
  2  1  1  1
  2  3  1  0
  4  3  1  0
  5  6  2  0
  5  4  1  0
  7 10  1  0
  7  2  1  0
  8  7  2  0
  9  5  1  0
 11 10  1  0
 12 13  1  0
 11 12  1  1
 13 14  2  0
 13 18  1  0
 14 15  1  0
 15 16  2  0
 17 16  1  0
 18 17  2  0
 19 11  1  0
 19 20  2  0
 21 19  1  0
 22 21  1  0
 22 23  1  6
 24 23  1  0
 25 22  1  0
 26 25  1  0
 27 25  2  0
M  END
$$$$
