EFC.pdb
     RDKit          3D

 27 27  0  0  1  0  0  0  0  0999 V2000
   28.6662  -22.3426  -17.9146 N   0  0  0  0  0  0  0  0  0  0  0  0
   27.7648  -21.2398  -17.5825 C   0  0  1  0  0  0  0  0  0  0  0  0
   26.8738  -21.0648  -18.7845 C   0  0  0  0  0  0  0  0  0  0  0  0
   27.3154  -19.9621  -19.6936 C   0  0  0  0  0  0  0  0  0  0  0  0
   28.6442  -20.1738  -20.3078 C   0  0  0  0  0  0  0  0  0  0  0  0
   28.8862  -21.0042  -21.2067 O   0  0  0  0  0  0  0  0  0  0  0  0
   27.0106  -21.5202  -16.3451 C   0  0  0  0  0  0  0  0  0  0  0  0
   26.4723  -22.6434  -16.1996 O   0  0  0  0  0  0  0  0  0  0  0  0
   29.7387  -19.4036  -19.8743 O   0  0  0  0  0  0  0  0  0  0  0  0
   26.8474  -20.5970  -15.2911 N   0  0  0  0  0  0  0  0  0  0  0  0
   26.1003  -20.8829  -14.0717 C   0  0  1  0  0  0  0  0  0  0  0  0
   26.5742  -20.0558  -12.9233 C   0  0  0  0  0  0  0  0  0  0  0  0
   25.9122  -20.2955  -11.6618 C   0  0  0  0  0  0  0  0  0  0  0  0
   24.7435  -19.6712  -11.3221 C   0  0  0  0  0  0  0  0  0  0  0  0
   24.1239  -19.9215  -10.0892 C   0  0  0  0  0  0  0  0  0  0  0  0
   24.6941  -20.8012   -9.2135 C   0  0  0  0  0  0  0  0  0  0  0  0
   25.8585  -21.4337   -9.5332 C   0  0  0  0  0  0  0  0  0  0  0  0
   26.4558  -21.1758  -10.7517 C   0  0  0  0  0  0  0  0  0  0  0  0
   24.6382  -20.7597  -14.2515 C   0  0  0  0  0  0  0  0  0  0  0  0
   24.0902  -19.7117  -14.7205 O   0  0  0  0  0  0  0  0  0  0  0  0
   23.7847  -21.8236  -13.9049 N   0  0  0  0  0  0  0  0  0  0  0  0
   22.3298  -21.7168  -13.9431 C   0  0  1  0  0  0  0  0  0  0  0  0
   21.7014  -23.1043  -14.0156 C   0  0  0  0  0  0  0  0  0  0  0  0
   19.8835  -22.9344  -14.0251 S   0  0  0  0  0  0  0  0  0  0  0  0
   21.7561  -21.0096  -12.7917 C   0  0  0  0  0  0  0  0  0  0  0  0
   22.0679  -21.4124  -11.5122 O   0  0  0  0  0  0  0  0  0  0  0  0
   20.9879  -20.0463  -12.9588 O   0  0  0  0  0  0  0  0  0  0  0  0
  2  1  1  6
  2  3  1  0
  4  3  1  0
  5  6  2  0
  5  4  1  0
  7 10  1  0
  7  2  1  0
  8  7  2  0
  9  5  1  0
 11 10  1  0
 12 13  1  0
 11 12  1  1
 13 14  2  0
 13 18  1  0
 14 15  1  0
 15 16  2  0
 17 16  1  0
 18 17  2  0
 19 11  1  0
 19 20  2  0
 21 19  1  0
 22 21  1  0
 22 23  1  1
 24 23  1  0
 25 22  1  0
 26 25  1  0
 27 25  2  0
M  END
$$$$
