EFC.pdb
     RDKit          3D

 27 27  0  0  1  0  0  0  0  0999 V2000
   28.7785  -22.4827  -16.9836 N   0  0  0  0  0  0  0  0  0  0  0  0
   27.8046  -21.3974  -16.8714 C   0  0  1  0  0  0  0  0  0  0  0  0
   27.0330  -21.4059  -18.1651 C   0  0  0  0  0  0  0  0  0  0  0  0
   27.8995  -21.5909  -19.3703 C   0  0  0  0  0  0  0  0  0  0  0  0
   28.6293  -20.3744  -19.7887 C   0  0  0  0  0  0  0  0  0  0  0  0
   29.3920  -20.3081  -20.7738 O   0  0  0  0  0  0  0  0  0  0  0  0
   26.9414  -21.5742  -15.6872 C   0  0  0  0  0  0  0  0  0  0  0  0
   26.4981  -22.7165  -15.4202 O   0  0  0  0  0  0  0  0  0  0  0  0
   28.4793  -19.1873  -19.0490 O   0  0  0  0  0  0  0  0  0  0  0  0
   26.5705  -20.5297  -14.8148 N   0  0  0  0  0  0  0  0  0  0  0  0
   25.7937  -20.7284  -13.5966 C   0  0  1  0  0  0  0  0  0  0  0  0
   26.3793  -19.9919  -12.4382 C   0  0  0  0  0  0  0  0  0  0  0  0
   27.6439  -20.4921  -11.9509 C   0  0  0  0  0  0  0  0  0  0  0  0
   27.7366  -21.2688  -10.8287 C   0  0  0  0  0  0  0  0  0  0  0  0
   28.9783  -21.7387  -10.3773 C   0  0  0  0  0  0  0  0  0  0  0  0
   30.1129  -21.4173  -11.0666 C   0  0  0  0  0  0  0  0  0  0  0  0
   30.0419  -20.6444  -12.1873 C   0  0  0  0  0  0  0  0  0  0  0  0
   28.8108  -20.1898  -12.6184 C   0  0  0  0  0  0  0  0  0  0  0  0
   24.3620  -20.4024  -13.7686 C   0  0  0  0  0  0  0  0  0  0  0  0
   23.9622  -19.2778  -14.2088 O   0  0  0  0  0  0  0  0  0  0  0  0
   23.3713  -21.3487  -13.4466 N   0  0  0  0  0  0  0  0  0  0  0  0
   21.9435  -21.0750  -13.5732 C   0  0  1  0  0  0  0  0  0  0  0  0
   21.1841  -22.3641  -13.8679 C   0  0  0  0  0  0  0  0  0  0  0  0
   21.9512  -23.1916  -15.3034 S   0  0  0  0  0  0  0  0  0  0  0  0
   21.3508  -20.4515  -12.3837 C   0  0  0  0  0  0  0  0  0  0  0  0
   20.0339  -20.0488  -12.4024 O   0  0  0  0  0  0  0  0  0  0  0  0
   22.0270  -20.2816  -11.3543 O   0  0  0  0  0  0  0  0  0  0  0  0
  2  1  1  6
  2  3  1  0
  4  3  1  0
  5  6  2  0
  5  4  1  0
  7 10  1  0
  7  2  1  0
  8  7  2  0
  9  5  1  0
 11 10  1  0
 12 13  1  0
 11 12  1  1
 13 14  2  0
 13 18  1  0
 14 15  1  0
 15 16  2  0
 17 16  1  0
 18 17  2  0
 19 11  1  0
 19 20  2  0
 21 19  1  0
 22 21  1  0
 22 23  1  1
 24 23  1  0
 25 22  1  0
 26 25  1  0
 27 25  2  0
M  END
$$$$
