EFC.pdb
     RDKit          3D

 27 27  0  0  1  0  0  0  0  0999 V2000
   19.2616   -9.0484  -17.3653 N   0  0  0  0  0  0  0  0  0  0  0  0
   19.0854   -7.6368  -17.0259 C   0  0  1  0  0  0  0  0  0  0  0  0
   17.7877   -7.2214  -17.6683 C   0  0  0  0  0  0  0  0  0  0  0  0
   17.9267   -6.8822  -19.1186 C   0  0  0  0  0  0  0  0  0  0  0  0
   19.1704   -6.1572  -19.4584 C   0  0  0  0  0  0  0  0  0  0  0  0
   20.2017   -6.6919  -19.9132 O   0  0  0  0  0  0  0  0  0  0  0  0
   19.0926   -7.4338  -15.5639 C   0  0  0  0  0  0  0  0  0  0  0  0
   18.5161   -8.2702  -14.8286 O   0  0  0  0  0  0  0  0  0  0  0  0
   19.2346   -4.7647  -19.2693 O   0  0  0  0  0  0  0  0  0  0  0  0
   19.7141   -6.3439  -14.9191 N   0  0  0  0  0  0  0  0  0  0  0  0
   19.8762   -6.2427  -13.4733 C   0  0  1  0  0  0  0  0  0  0  0  0
   21.3140   -6.1756  -13.0789 C   0  0  0  0  0  0  0  0  0  0  0  0
   22.0931   -7.3633  -13.3419 C   0  0  0  0  0  0  0  0  0  0  0  0
   22.8820   -7.4860  -14.4527 C   0  0  0  0  0  0  0  0  0  0  0  0
   23.6261   -8.6519  -14.6837 C   0  0  0  0  0  0  0  0  0  0  0  0
   23.5635   -9.6812  -13.7879 C   0  0  0  0  0  0  0  0  0  0  0  0
   22.7834   -9.5787  -12.6748 C   0  0  0  0  0  0  0  0  0  0  0  0
   22.0568   -8.4232  -12.4623 C   0  0  0  0  0  0  0  0  0  0  0  0
   19.1082   -5.1243  -12.8860 C   0  0  0  0  0  0  0  0  0  0  0  0
   19.3457   -3.9064  -13.1669 O   0  0  0  0  0  0  0  0  0  0  0  0
   18.0626   -5.3760  -11.9783 N   0  0  0  0  0  0  0  0  0  0  0  0
   17.2925   -4.3122  -11.3423 C   0  0  1  0  0  0  0  0  0  0  0  0
   15.8779   -4.2737  -11.9105 C   0  0  0  0  0  0  0  0  0  0  0  0
   15.1219   -5.9266  -11.7370 S   0  0  0  0  0  0  0  0  0  0  0  0
   17.2006   -4.4371   -9.8825 C   0  0  0  0  0  0  0  0  0  0  0  0
   16.6502   -3.4173   -9.1384 O   0  0  0  0  0  0  0  0  0  0  0  0
   17.6159   -5.4579   -9.3069 O   0  0  0  0  0  0  0  0  0  0  0  0
  2  1  1  1
  2  3  1  0
  4  3  1  0
  5  6  2  0
  5  4  1  0
  7 10  1  0
  7  2  1  0
  8  7  2  0
  9  5  1  0
 11 10  1  0
 12 13  1  0
 11 12  1  6
 13 14  2  0
 13 18  1  0
 14 15  1  0
 15 16  2  0
 17 16  1  0
 18 17  2  0
 19 11  1  0
 19 20  2  0
 21 19  1  0
 22 21  1  0
 22 23  1  6
 24 23  1  0
 25 22  1  0
 26 25  1  0
 27 25  2  0
M  END
$$$$
