EFC.pdb
     RDKit          3D

 27 27  0  0  1  0  0  0  0  0999 V2000
   28.4839  -21.4783  -14.3919 N   0  0  0  0  0  0  0  0  0  0  0  0
   27.4266  -20.5154  -14.0854 C   0  0  1  0  0  0  0  0  0  0  0  0
   26.5591  -20.4564  -15.3156 C   0  0  0  0  0  0  0  0  0  0  0  0
   27.1524  -19.6405  -16.4201 C   0  0  0  0  0  0  0  0  0  0  0  0
   27.6080  -18.2953  -16.0069 C   0  0  0  0  0  0  0  0  0  0  0  0
   28.8026  -17.9590  -15.8792 O   0  0  0  0  0  0  0  0  0  0  0  0
   26.6795  -20.9093  -12.8748 C   0  0  0  0  0  0  0  0  0  0  0  0
   26.2859  -22.0944  -12.7591 O   0  0  0  0  0  0  0  0  0  0  0  0
   26.6572  -17.2965  -15.7291 O   0  0  0  0  0  0  0  0  0  0  0  0
   26.3690  -20.0312  -11.8155 N   0  0  0  0  0  0  0  0  0  0  0  0
   25.6076  -20.4228  -10.6349 C   0  0  1  0  0  0  0  0  0  0  0  0
   25.7614  -19.4388   -9.5233 C   0  0  0  0  0  0  0  0  0  0  0  0
   26.7647  -19.7602   -8.5349 C   0  0  0  0  0  0  0  0  0  0  0  0
   27.5197  -20.8986   -8.6068 C   0  0  0  0  0  0  0  0  0  0  0  0
   28.4855  -21.1864   -7.6316 C   0  0  0  0  0  0  0  0  0  0  0  0
   28.6765  -20.3186   -6.5941 C   0  0  0  0  0  0  0  0  0  0  0  0
   27.9344  -19.1787   -6.5044 C   0  0  0  0  0  0  0  0  0  0  0  0
   26.9873  -18.9104   -7.4735 C   0  0  0  0  0  0  0  0  0  0  0  0
   24.1815  -20.6776  -10.9295 C   0  0  0  0  0  0  0  0  0  0  0  0
   23.6010  -20.2158  -11.9630 O   0  0  0  0  0  0  0  0  0  0  0  0
   23.4019  -21.4603  -10.0577 N   0  0  0  0  0  0  0  0  0  0  0  0
   21.9611  -21.6279  -10.2179 C   0  0  1  0  0  0  0  0  0  0  0  0
   21.3591  -22.2428   -8.9590 C   0  0  0  0  0  0  0  0  0  0  0  0
   19.5754  -22.5246   -9.2289 S   0  0  0  0  0  0  0  0  0  0  0  0
   21.2468  -20.3789  -10.5089 C   0  0  0  0  0  0  0  0  0  0  0  0
   20.3279  -20.3350  -11.5338 O   0  0  0  0  0  0  0  0  0  0  0  0
   21.4626  -19.3549   -9.8377 O   0  0  0  0  0  0  0  0  0  0  0  0
  2  1  1  6
  2  3  1  0
  4  3  1  0
  5  6  2  0
  5  4  1  0
  7 10  1  0
  7  2  1  0
  8  7  2  0
  9  5  1  0
 11 10  1  0
 12 13  1  0
 11 12  1  1
 13 14  2  0
 13 18  1  0
 14 15  1  0
 15 16  2  0
 17 16  1  0
 18 17  2  0
 19 11  1  0
 19 20  2  0
 21 19  1  0
 22 21  1  0
 22 23  1  1
 24 23  1  0
 25 22  1  0
 26 25  1  0
 27 25  2  0
M  END
$$$$
