EFC.pdb
     RDKit          3D

 27 27  0  0  1  0  0  0  0  0999 V2000
   13.4439  -20.3096    2.9658 N   0  0  0  0  0  0  0  0  0  0  0  0
   14.6258  -21.1571    2.8117 C   0  0  1  0  0  0  0  0  0  0  0  0
   15.5369  -20.4190    1.8660 C   0  0  0  0  0  0  0  0  0  0  0  0
   15.8404  -21.1848    0.6173 C   0  0  0  0  0  0  0  0  0  0  0  0
   14.6614  -21.8221   -0.0084 C   0  0  0  0  0  0  0  0  0  0  0  0
   13.4770  -21.5810    0.3004 O   0  0  0  0  0  0  0  0  0  0  0  0
   15.2572  -21.4359    4.1165 C   0  0  0  0  0  0  0  0  0  0  0  0
   15.4134  -20.4963    4.9321 O   0  0  0  0  0  0  0  0  0  0  0  0
   14.8473  -22.7734   -1.0279 O   0  0  0  0  0  0  0  0  0  0  0  0
   15.7076  -22.7097    4.5219 N   0  0  0  0  0  0  0  0  0  0  0  0
   16.3554  -22.9707    5.8021 C   0  0  1  0  0  0  0  0  0  0  0  0
   16.2248  -24.4005    6.2094 C   0  0  0  0  0  0  0  0  0  0  0  0
   16.7757  -24.7379    7.5016 C   0  0  0  0  0  0  0  0  0  0  0  0
   18.0047  -25.3224    7.6395 C   0  0  0  0  0  0  0  0  0  0  0  0
   18.5137  -25.6411    8.9068 C   0  0  0  0  0  0  0  0  0  0  0  0
   17.7730  -25.3647   10.0207 C   0  0  0  0  0  0  0  0  0  0  0  0
   16.5460  -24.7825    9.9046 C   0  0  0  0  0  0  0  0  0  0  0  0
   16.0594  -24.4750    8.6489 C   0  0  0  0  0  0  0  0  0  0  0  0
   17.7673  -22.5336    5.8312 C   0  0  0  0  0  0  0  0  0  0  0  0
   18.6049  -22.8579    4.9302 O   0  0  0  0  0  0  0  0  0  0  0  0
   18.2416  -21.7228    6.8791 N   0  0  0  0  0  0  0  0  0  0  0  0
   19.6430  -21.3374    7.0105 C   0  0  1  0  0  0  0  0  0  0  0  0
   19.7582  -19.8303    7.2123 C   0  0  0  0  0  0  0  0  0  0  0  0
   21.4849  -19.4173    7.6385 S   0  0  0  0  0  0  0  0  0  0  0  0
   20.3415  -22.0060    8.1150 C   0  0  0  0  0  0  0  0  0  0  0  0
   21.6851  -22.2891    8.0078 O   0  0  0  0  0  0  0  0  0  0  0  0
   19.7316  -22.3214    9.1515 O   0  0  0  0  0  0  0  0  0  0  0  0
  2  1  1  1
  2  3  1  0
  4  3  1  0
  5  6  2  0
  5  4  1  0
  7 10  1  0
  7  2  1  0
  8  7  2  0
  9  5  1  0
 11 10  1  0
 12 13  1  0
 11 12  1  6
 13 14  2  0
 13 18  1  0
 14 15  1  0
 15 16  2  0
 17 16  1  0
 18 17  2  0
 19 11  1  0
 19 20  2  0
 21 19  1  0
 22 21  1  0
 22 23  1  1
 24 23  1  0
 25 22  1  0
 26 25  1  0
 27 25  2  0
M  END
$$$$
