EFC.pdb
     RDKit          3D

 27 27  0  0  1  0  0  0  0  0999 V2000
   23.7159  -20.1714  -18.2990 N   0  0  0  0  0  0  0  0  0  0  0  0
   25.0083  -20.8558  -18.3074 C   0  0  1  0  0  0  0  0  0  0  0  0
   25.7737  -20.2684  -19.4643 C   0  0  0  0  0  0  0  0  0  0  0  0
   25.0805  -20.4361  -20.7792 C   0  0  0  0  0  0  0  0  0  0  0  0
   25.0761  -21.8229  -21.2935 C   0  0  0  0  0  0  0  0  0  0  0  0
   26.0990  -22.4736  -21.5878 O   0  0  0  0  0  0  0  0  0  0  0  0
   25.7065  -20.6952  -17.0168 C   0  0  0  0  0  0  0  0  0  0  0  0
   26.8798  -21.1222  -16.9004 O   0  0  0  0  0  0  0  0  0  0  0  0
   23.8514  -22.4899  -21.4777 O   0  0  0  0  0  0  0  0  0  0  0  0
   25.1382  -20.0832  -15.8801 N   0  0  0  0  0  0  0  0  0  0  0  0
   25.8841  -19.7818  -14.6637 C   0  0  1  0  0  0  0  0  0  0  0  0
   25.9653  -18.3130  -14.4116 C   0  0  0  0  0  0  0  0  0  0  0  0
   26.6320  -17.5371  -15.4316 C   0  0  0  0  0  0  0  0  0  0  0  0
   25.9555  -16.6729  -16.2481 C   0  0  0  0  0  0  0  0  0  0  0  0
   26.6283  -15.9337  -17.2317 C   0  0  0  0  0  0  0  0  0  0  0  0
   27.9788  -16.0774  -17.3782 C   0  0  0  0  0  0  0  0  0  0  0  0
   28.6713  -16.9334  -16.5746 C   0  0  0  0  0  0  0  0  0  0  0  0
   27.9931  -17.6539  -15.6107 C   0  0  0  0  0  0  0  0  0  0  0  0
   25.3663  -20.4994  -13.4795 C   0  0  0  0  0  0  0  0  0  0  0  0
   24.1740  -20.9375  -13.4095 O   0  0  0  0  0  0  0  0  0  0  0  0
   26.1955  -20.7297  -12.3660 N   0  0  0  0  0  0  0  0  0  0  0  0
   25.7048  -21.3071  -11.1189 C   0  0  1  0  0  0  0  0  0  0  0  0
   26.7813  -21.2270  -10.0418 C   0  0  0  0  0  0  0  0  0  0  0  0
   28.4174  -21.4637  -10.8169 S   0  0  0  0  0  0  0  0  0  0  0  0
   24.4888  -20.6649  -10.6053 C   0  0  0  0  0  0  0  0  0  0  0  0
   23.7988  -21.2362   -9.5592 O   0  0  0  0  0  0  0  0  0  0  0  0
   24.0721  -19.6059  -11.1059 O   0  0  0  0  0  0  0  0  0  0  0  0
  2  1  1  1
  2  3  1  0
  4  3  1  0
  5  6  2  0
  5  4  1  0
  7 10  1  0
  7  2  1  0
  8  7  2  0
  9  5  1  0
 11 10  1  0
 12 13  1  0
 11 12  1  1
 13 14  2  0
 13 18  1  0
 14 15  1  0
 15 16  2  0
 17 16  1  0
 18 17  2  0
 19 11  1  0
 19 20  2  0
 21 19  1  0
 22 21  1  0
 22 23  1  1
 24 23  1  0
 25 22  1  0
 26 25  1  0
 27 25  2  0
M  END
$$$$
