EFC.pdb
     RDKit          3D

 27 27  0  0  1  0  0  0  0  0999 V2000
   23.8811  -12.2886  -19.0482 N   0  0  0  0  0  0  0  0  0  0  0  0
   23.1640  -11.0948  -19.4947 C   0  0  1  0  0  0  0  0  0  0  0  0
   21.9474  -11.5990  -20.2262 C   0  0  0  0  0  0  0  0  0  0  0  0
   22.2675  -12.2259  -21.5461 C   0  0  0  0  0  0  0  0  0  0  0  0
   22.3839  -13.6999  -21.5084 C   0  0  0  0  0  0  0  0  0  0  0  0
   21.5440  -14.4650  -20.9930 O   0  0  0  0  0  0  0  0  0  0  0  0
   22.8267  -10.2171  -18.3568 C   0  0  0  0  0  0  0  0  0  0  0  0
   22.1805  -10.6902  -17.3918 O   0  0  0  0  0  0  0  0  0  0  0  0
   23.5070  -14.3214  -22.0838 O   0  0  0  0  0  0  0  0  0  0  0  0
   23.1858   -8.8556  -18.2736 N   0  0  0  0  0  0  0  0  0  0  0  0
   22.9971   -8.0392  -17.0800 C   0  0  1  0  0  0  0  0  0  0  0  0
   24.2966   -7.5616  -16.5226 C   0  0  0  0  0  0  0  0  0  0  0  0
   25.2138   -8.5932  -16.0967 C   0  0  0  0  0  0  0  0  0  0  0  0
   24.9463   -9.4126  -15.0345 C   0  0  0  0  0  0  0  0  0  0  0  0
   25.8564  -10.4046  -14.6417 C   0  0  0  0  0  0  0  0  0  0  0  0
   27.0275  -10.5563  -15.3283 C   0  0  0  0  0  0  0  0  0  0  0  0
   27.3128   -9.7499  -16.3896 C   0  0  0  0  0  0  0  0  0  0  0  0
   26.4054   -8.7778  -16.7634 C   0  0  0  0  0  0  0  0  0  0  0  0
   22.0624   -6.9142  -17.2953 C   0  0  0  0  0  0  0  0  0  0  0  0
   22.2157   -6.0634  -18.2285 O   0  0  0  0  0  0  0  0  0  0  0  0
   20.9443   -6.7455  -16.4574 N   0  0  0  0  0  0  0  0  0  0  0  0
   19.9926   -5.6509  -16.6173 C   0  0  1  0  0  0  0  0  0  0  0  0
   18.5892   -6.2022  -16.8455 C   0  0  0  0  0  0  0  0  0  0  0  0
   17.4051   -4.8132  -16.8947 S   0  0  0  0  0  0  0  0  0  0  0  0
   19.9474   -4.7317  -15.4737 C   0  0  0  0  0  0  0  0  0  0  0  0
   19.8606   -3.3737  -15.6861 O   0  0  0  0  0  0  0  0  0  0  0  0
   19.9868   -5.1666  -14.3096 O   0  0  0  0  0  0  0  0  0  0  0  0
  2  1  1  1
  2  3  1  0
  4  3  1  0
  5  6  2  0
  5  4  1  0
  7 10  1  0
  7  2  1  0
  8  7  2  0
  9  5  1  0
 11 10  1  0
 12 13  1  0
 11 12  1  6
 13 14  2  0
 13 18  1  0
 14 15  1  0
 15 16  2  0
 17 16  1  0
 18 17  2  0
 19 11  1  0
 19 20  2  0
 21 19  1  0
 22 21  1  0
 22 23  1  1
 24 23  1  0
 25 22  1  0
 26 25  1  0
 27 25  2  0
M  END
$$$$
