EFC.pdb
     RDKit          3D

 27 27  0  0  1  0  0  0  0  0999 V2000
   23.5258  -10.9290  -19.4148 N   0  0  0  0  0  0  0  0  0  0  0  0
   23.1492   -9.5314  -19.6243 C   0  0  1  0  0  0  0  0  0  0  0  0
   22.1348   -9.5445  -20.7379 C   0  0  0  0  0  0  0  0  0  0  0  0
   22.6975  -10.0019  -22.0463 C   0  0  0  0  0  0  0  0  0  0  0  0
   21.9342   -9.5492  -23.2296 C   0  0  0  0  0  0  0  0  0  0  0  0
   20.9223   -8.8210  -23.1852 O   0  0  0  0  0  0  0  0  0  0  0  0
   22.6299   -8.9259  -18.3823 C   0  0  0  0  0  0  0  0  0  0  0  0
   21.9059   -9.6141  -17.6242 O   0  0  0  0  0  0  0  0  0  0  0  0
   22.3469   -9.9470  -24.5143 O   0  0  0  0  0  0  0  0  0  0  0  0
   22.8944   -7.6010  -17.9769 N   0  0  0  0  0  0  0  0  0  0  0  0
   22.4483   -7.0375  -16.7079 C   0  0  1  0  0  0  0  0  0  0  0  0
   23.5872   -6.8087  -15.7709 C   0  0  0  0  0  0  0  0  0  0  0  0
   24.3048   -7.9913  -15.3547 C   0  0  0  0  0  0  0  0  0  0  0  0
   23.8067   -8.8533  -14.4167 C   0  0  0  0  0  0  0  0  0  0  0  0
   24.5264   -9.9931  -14.0300 C   0  0  0  0  0  0  0  0  0  0  0  0
   25.7428  -10.2478  -14.5970 C   0  0  0  0  0  0  0  0  0  0  0  0
   26.2567   -9.4012  -15.5336 C   0  0  0  0  0  0  0  0  0  0  0  0
   25.5347   -8.2831  -15.9032 C   0  0  0  0  0  0  0  0  0  0  0  0
   21.6403   -5.8110  -16.8764 C   0  0  0  0  0  0  0  0  0  0  0  0
   22.1308   -4.7199  -17.3094 O   0  0  0  0  0  0  0  0  0  0  0  0
   20.2693   -5.8109  -16.5590 N   0  0  0  0  0  0  0  0  0  0  0  0
   19.4173   -4.6381  -16.7273 C   0  0  1  0  0  0  0  0  0  0  0  0
   17.9567   -5.0605  -16.8442 C   0  0  0  0  0  0  0  0  0  0  0  0
   17.7904   -6.2544  -18.2156 S   0  0  0  0  0  0  0  0  0  0  0  0
   19.5297   -3.6612  -15.6375 C   0  0  0  0  0  0  0  0  0  0  0  0
   18.9603   -2.4143  -15.7703 O   0  0  0  0  0  0  0  0  0  0  0  0
   20.1361   -3.9475  -14.5905 O   0  0  0  0  0  0  0  0  0  0  0  0
  2  1  1  1
  2  3  1  0
  4  3  1  0
  5  6  2  0
  5  4  1  0
  7 10  1  0
  7  2  1  0
  8  7  2  0
  9  5  1  0
 11 10  1  0
 12 13  1  0
 11 12  1  1
 13 14  2  0
 13 18  1  0
 14 15  1  0
 15 16  2  0
 17 16  1  0
 18 17  2  0
 19 11  1  0
 19 20  2  0
 21 19  1  0
 22 21  1  0
 22 23  1  1
 24 23  1  0
 25 22  1  0
 26 25  1  0
 27 25  2  0
M  END
$$$$
