TMQ.pdb
     RDKit          3D

 25 24  0  0  1  0  0  0  0  0999 V2000
    9.2303  -17.3910   19.4968 C   0  0  0  0  0  0  0  0  0  0  0  0
    9.1096  -17.1051   20.9982 C   0  0  1  0  0  0  0  0  0  0  0  0
    9.9548  -17.9920   21.6395 O   0  0  0  0  0  0  0  0  0  0  0  0
    9.5319  -15.6681   21.1888 C   0  0  2  0  0  0  0  0  0  0  0  0
   10.8565  -15.4229   20.6749 N   0  0  0  0  0  0  0  0  0  0  0  0
    9.3928  -15.2331   22.6010 C   0  0  0  0  0  0  0  0  0  0  0  0
   10.4095  -14.9609   23.2824 O   0  0  0  0  0  0  0  0  0  0  0  0
    6.7027  -10.8172   26.4954 C   0  0  0  0  0  0  0  0  0  0  0  0
    7.3630  -12.4132   27.0099 S   0  0  0  0  0  0  0  0  0  0  0  0
    6.3804  -13.7082   26.2920 C   0  0  0  0  0  0  0  0  0  0  0  0
    6.6989  -14.1249   24.9025 C   0  0  0  0  0  0  0  0  0  0  0  0
    8.0506  -14.6518   24.6263 C   0  0  2  0  0  0  0  0  0  0  0  0
    8.1271  -15.1117   23.2203 N   0  0  0  0  0  0  0  0  0  0  0  0
    8.5632  -15.7012   25.5121 C   0  0  0  0  0  0  0  0  0  0  0  0
    8.7150  -15.5628   26.7270 O   0  0  0  0  0  0  0  0  0  0  0  0
    7.4892  -21.5040   25.7542 N   0  0  0  0  0  0  0  0  0  0  0  0
    7.3272  -20.7464   24.5708 C   0  0  0  0  0  0  0  0  0  0  0  0
    6.3826  -21.0747   23.7679 O   0  0  0  0  0  0  0  0  0  0  0  0
    8.1972  -19.6009   24.2416 C   0  0  0  0  0  0  0  0  0  0  0  0
    9.3399  -19.3838   25.1745 C   0  0  0  0  0  0  0  0  0  0  0  0
    9.4309  -18.0677   25.8654 C   0  0  2  0  0  0  0  0  0  0  0  0
    8.9331  -17.0029   24.9952 N   0  0  0  0  0  0  0  0  0  0  0  0
   10.7026  -17.6550   26.4290 C   0  0  0  0  0  0  0  0  0  0  0  0
   11.2368  -16.5574   26.0249 O   0  0  0  0  0  0  0  0  0  0  0  0
   11.4409  -18.3282   27.4005 O   0  0  0  0  0  0  0  0  0  0  0  0
  2  4  1  0
  2  1  1  6
  3  2  1  0
  4  6  1  0
  4  5  1  1
  6 13  1  0
  6  7  2  0
  8  9  1  0
 10  9  1  0
 12 11  1  1
 11 10  1  0
 12 14  1  0
 13 12  1  0
 14 15  2  0
 16 17  1  0
 17 18  2  0
 17 19  1  0
 19 20  1  0
 21 20  1  6
 22 21  1  0
 22 14  1  0
 23 21  1  0
 23 25  1  0
 24 23  2  0
M  END
$$$$
