TMQ.pdb
     RDKit          3D

 25 24  0  0  1  0  0  0  0  0999 V2000
    6.1282  -15.4513   19.0759 C   0  0  0  0  0  0  0  0  0  0  0  0
    7.6165  -15.1486   19.2860 C   0  0  1  0  0  0  0  0  0  0  0  0
    8.2379  -15.3524   18.0676 O   0  0  0  0  0  0  0  0  0  0  0  0
    7.6943  -13.7101   19.7378 C   0  0  2  0  0  0  0  0  0  0  0  0
    8.4669  -12.9007   18.8285 N   0  0  0  0  0  0  0  0  0  0  0  0
    8.1789  -13.5947   21.1359 C   0  0  0  0  0  0  0  0  0  0  0  0
    9.3838  -13.3378   21.3688 O   0  0  0  0  0  0  0  0  0  0  0  0
    6.9390  -11.8575   28.6428 C   0  0  0  0  0  0  0  0  0  0  0  0
    6.2486  -11.9098   26.9789 S   0  0  0  0  0  0  0  0  0  0  0  0
    7.3173  -12.8724   25.9354 C   0  0  0  0  0  0  0  0  0  0  0  0
    6.9831  -12.9488   24.4903 C   0  0  0  0  0  0  0  0  0  0  0  0
    7.8713  -13.7356   23.6111 C   0  0  2  0  0  0  0  0  0  0  0  0
    7.3119  -13.7677   22.2399 N   0  0  0  0  0  0  0  0  0  0  0  0
    8.2090  -15.0982   24.0330 C   0  0  0  0  0  0  0  0  0  0  0  0
    7.4370  -16.0550   23.9517 O   0  0  0  0  0  0  0  0  0  0  0  0
   12.9012  -17.9988   21.8650 N   0  0  0  0  0  0  0  0  0  0  0  0
   12.6260  -18.8532   22.9582 C   0  0  0  0  0  0  0  0  0  0  0  0
   13.2628  -19.9639   23.0320 O   0  0  0  0  0  0  0  0  0  0  0  0
   11.6463  -18.5048   24.0052 C   0  0  0  0  0  0  0  0  0  0  0  0
   11.0538  -17.1413   23.8908 C   0  0  0  0  0  0  0  0  0  0  0  0
    9.9436  -16.7872   24.8181 C   0  0  2  0  0  0  0  0  0  0  0  0
    9.5105  -15.4095   24.5876 N   0  0  0  0  0  0  0  0  0  0  0  0
   10.1258  -16.9881   26.2434 C   0  0  0  0  0  0  0  0  0  0  0  0
    9.9823  -18.1698   26.7298 O   0  0  0  0  0  0  0  0  0  0  0  0
   10.4588  -16.0169   27.1857 O   0  0  0  0  0  0  0  0  0  0  0  0
  2  4  1  0
  2  1  1  6
  3  2  1  0
  4  6  1  0
  4  5  1  6
  6 13  1  0
  6  7  2  0
  8  9  1  0
 10  9  1  0
 12 11  1  1
 11 10  1  0
 12 14  1  0
 13 12  1  0
 14 15  2  0
 16 17  1  0
 17 18  2  0
 17 19  1  0
 19 20  1  0
 21 20  1  6
 22 21  1  0
 22 14  1  0
 23 21  1  0
 23 25  1  0
 24 23  2  0
M  END
$$$$
