TMQ.pdb
     RDKit          3D

 25 24  0  0  1  0  0  0  0  0999 V2000
    6.6961  -14.5542   18.2932 C   0  0  0  0  0  0  0  0  0  0  0  0
    7.4166  -14.8369   19.6166 C   0  0  1  0  0  0  0  0  0  0  0  0
    8.6625  -15.3399   19.2897 O   0  0  0  0  0  0  0  0  0  0  0  0
    7.5020  -13.5149   20.3408 C   0  0  2  0  0  0  0  0  0  0  0  0
    8.1234  -12.4962   19.5313 N   0  0  0  0  0  0  0  0  0  0  0  0
    8.1576  -13.6508   21.6654 C   0  0  0  0  0  0  0  0  0  0  0  0
    9.3776  -13.3935   21.7971 O   0  0  0  0  0  0  0  0  0  0  0  0
    6.3892  -12.2068   27.9454 C   0  0  0  0  0  0  0  0  0  0  0  0
    5.8168  -11.5024   26.3886 S   0  0  0  0  0  0  0  0  0  0  0  0
    6.7879  -12.1672   25.0571 C   0  0  0  0  0  0  0  0  0  0  0  0
    7.2347  -13.5792   25.1684 C   0  0  0  0  0  0  0  0  0  0  0  0
    8.1297  -14.1107   24.1208 C   0  0  2  0  0  0  0  0  0  0  0  0
    7.4404  -14.0694   22.8103 N   0  0  0  0  0  0  0  0  0  0  0  0
    8.7015  -15.4441   24.3302 C   0  0  0  0  0  0  0  0  0  0  0  0
    8.1065  -16.4945   24.0841 O   0  0  0  0  0  0  0  0  0  0  0  0
   14.3021  -17.4419   21.9313 N   0  0  0  0  0  0  0  0  0  0  0  0
   13.7794  -16.5846   22.9275 C   0  0  0  0  0  0  0  0  0  0  0  0
   14.5901  -15.7955   23.5315 O   0  0  0  0  0  0  0  0  0  0  0  0
   12.3470  -16.5674   23.2819 C   0  0  0  0  0  0  0  0  0  0  0  0
   12.0353  -16.9743   24.6821 C   0  0  0  0  0  0  0  0  0  0  0  0
   10.6114  -16.9315   25.1163 C   0  0  2  0  0  0  0  0  0  0  0  0
   10.0414  -15.6102   24.8553 N   0  0  0  0  0  0  0  0  0  0  0  0
   10.2767  -17.3259   26.4719 C   0  0  0  0  0  0  0  0  0  0  0  0
   10.4794  -18.5426   26.8352 O   0  0  0  0  0  0  0  0  0  0  0  0
    9.7481  -16.5100   27.4703 O   0  0  0  0  0  0  0  0  0  0  0  0
  2  4  1  0
  2  1  1  6
  3  2  1  0
  4  6  1  0
  4  5  1  6
  6 13  1  0
  6  7  2  0
  8  9  1  0
 10  9  1  0
 12 11  1  1
 11 10  1  0
 12 14  1  0
 13 12  1  0
 14 15  2  0
 16 17  1  0
 17 18  2  0
 17 19  1  0
 19 20  1  0
 21 20  1  1
 22 21  1  0
 22 14  1  0
 23 21  1  0
 23 25  1  0
 24 23  2  0
M  END
$$$$
