TMQ.pdb
     RDKit          3D

 25 24  0  0  1  0  0  0  0  0999 V2000
    6.6565  -17.9545   19.6662 C   0  0  0  0  0  0  0  0  0  0  0  0
    7.4514  -17.5249   20.9048 C   0  0  1  0  0  0  0  0  0  0  0  0
    8.5877  -18.3122   20.9388 O   0  0  0  0  0  0  0  0  0  0  0  0
    7.7710  -16.0617   20.7139 C   0  0  2  0  0  0  0  0  0  0  0  0
    8.4543  -15.8174   19.4679 N   0  0  0  0  0  0  0  0  0  0  0  0
    8.5085  -15.5005   21.8732 C   0  0  0  0  0  0  0  0  0  0  0  0
    9.7533  -15.3595   21.8232 O   0  0  0  0  0  0  0  0  0  0  0  0
    6.2254  -11.9740   27.0810 C   0  0  0  0  0  0  0  0  0  0  0  0
    6.0766  -11.4413   25.3658 S   0  0  0  0  0  0  0  0  0  0  0  0
    7.0741  -12.4955   24.3404 C   0  0  0  0  0  0  0  0  0  0  0  0
    7.7399  -13.6553   24.9866 C   0  0  0  0  0  0  0  0  0  0  0  0
    8.6252  -14.4995   24.1591 C   0  0  2  0  0  0  0  0  0  0  0  0
    7.8437  -15.1102   23.0589 N   0  0  0  0  0  0  0  0  0  0  0  0
    9.4030  -15.5381   24.8409 C   0  0  0  0  0  0  0  0  0  0  0  0
    9.0195  -16.6996   24.9885 O   0  0  0  0  0  0  0  0  0  0  0  0
   11.2429  -16.7006   30.2605 N   0  0  0  0  0  0  0  0  0  0  0  0
   10.5958  -15.5390   29.7778 C   0  0  0  0  0  0  0  0  0  0  0  0
   10.3179  -14.6097   30.6167 O   0  0  0  0  0  0  0  0  0  0  0  0
   10.2428  -15.3654   28.3556 C   0  0  0  0  0  0  0  0  0  0  0  0
   10.6080  -16.5062   27.4677 C   0  0  0  0  0  0  0  0  0  0  0  0
   11.4132  -16.2082   26.2509 C   0  0  2  0  0  0  0  0  0  0  0  0
   10.7086  -15.2509   25.3989 N   0  0  0  0  0  0  0  0  0  0  0  0
   11.8817  -17.3089   25.4299 C   0  0  0  0  0  0  0  0  0  0  0  0
   12.5802  -18.2405   25.9756 O   0  0  0  0  0  0  0  0  0  0  0  0
   11.6498  -17.4895   24.0677 O   0  0  0  0  0  0  0  0  0  0  0  0
  2  4  1  0
  2  1  1  6
  3  2  1  0
  4  6  1  0
  4  5  1  6
  6 13  1  0
  6  7  2  0
  8  9  1  0
 10  9  1  0
 12 11  1  1
 11 10  1  0
 12 14  1  0
 13 12  1  0
 14 15  2  0
 16 17  1  0
 17 18  2  0
 17 19  1  0
 19 20  1  0
 21 20  1  1
 22 21  1  0
 22 14  1  0
 23 21  1  0
 23 25  1  0
 24 23  2  0
M  END
$$$$
