TMQ.pdb
     RDKit          3D

 25 24  0  0  1  0  0  0  0  0999 V2000
    6.8093  -14.4124   17.6519 C   0  0  0  0  0  0  0  0  0  0  0  0
    7.5280  -14.6678   18.9819 C   0  0  1  0  0  0  0  0  0  0  0  0
    8.7784  -15.1672   18.6668 O   0  0  0  0  0  0  0  0  0  0  0  0
    7.6018  -13.3332   19.6840 C   0  0  2  0  0  0  0  0  0  0  0  0
    8.2496  -12.3326   18.8727 N   0  0  0  0  0  0  0  0  0  0  0  0
    8.2221  -13.4483   21.0274 C   0  0  0  0  0  0  0  0  0  0  0  0
    9.4670  -13.3772   21.1579 O   0  0  0  0  0  0  0  0  0  0  0  0
    6.1906  -11.3146   27.1428 C   0  0  0  0  0  0  0  0  0  0  0  0
    6.5284  -13.0794   27.2813 S   0  0  0  0  0  0  0  0  0  0  0  0
    7.6495  -13.5605   25.9891 C   0  0  0  0  0  0  0  0  0  0  0  0
    7.1755  -13.4426   24.5865 C   0  0  0  0  0  0  0  0  0  0  0  0
    8.1207  -13.7764   23.5020 C   0  0  2  0  0  0  0  0  0  0  0  0
    7.4427  -13.6394   22.1921 N   0  0  0  0  0  0  0  0  0  0  0  0
    8.7975  -15.0749   23.5684 C   0  0  0  0  0  0  0  0  0  0  0  0
    8.2674  -16.1437   23.2607 O   0  0  0  0  0  0  0  0  0  0  0  0
   13.0722  -14.3942   20.2352 N   0  0  0  0  0  0  0  0  0  0  0  0
   13.4184  -15.1487   21.3805 C   0  0  0  0  0  0  0  0  0  0  0  0
   14.5321  -14.8889   21.9610 O   0  0  0  0  0  0  0  0  0  0  0  0
   12.5440  -16.2063   21.9230 C   0  0  0  0  0  0  0  0  0  0  0  0
   12.3074  -16.1410   23.3937 C   0  0  0  0  0  0  0  0  0  0  0  0
   10.9316  -16.4245   23.8883 C   0  0  2  0  0  0  0  0  0  0  0  0
   10.1719  -15.1811   24.0137 N   0  0  0  0  0  0  0  0  0  0  0  0
   10.7663  -17.1984   25.1044 C   0  0  0  0  0  0  0  0  0  0  0  0
   11.3588  -18.3351   25.2053 O   0  0  0  0  0  0  0  0  0  0  0  0
   10.0189  -16.8401   26.2246 O   0  0  0  0  0  0  0  0  0  0  0  0
  2  4  1  0
  2  1  1  6
  3  2  1  0
  4  6  1  0
  4  5  1  6
  6 13  1  0
  6  7  2  0
  8  9  1  0
 10  9  1  0
 12 11  1  1
 11 10  1  0
 12 14  1  0
 13 12  1  0
 14 15  2  0
 16 17  1  0
 17 18  2  0
 17 19  1  0
 19 20  1  0
 21 20  1  1
 22 21  1  0
 22 14  1  0
 23 21  1  0
 23 25  1  0
 24 23  2  0
M  END
$$$$
