TMQ.pdb
     RDKit          3D

 25 24  0  0  1  0  0  0  0  0999 V2000
    6.5627  -17.3171   20.3227 C   0  0  0  0  0  0  0  0  0  0  0  0
    7.9566  -17.3107   19.6842 C   0  0  1  0  0  0  0  0  0  0  0  0
    7.7913  -17.7023   18.3684 O   0  0  0  0  0  0  0  0  0  0  0  0
    8.4680  -15.8951   19.8030 C   0  0  2  0  0  0  0  0  0  0  0  0
    9.5393  -15.6295   18.8753 N   0  0  0  0  0  0  0  0  0  0  0  0
    8.8431  -15.5576   21.1988 C   0  0  0  0  0  0  0  0  0  0  0  0
    9.9999  -15.7972   21.6188 O   0  0  0  0  0  0  0  0  0  0  0  0
    7.2810  -11.6255   27.8442 C   0  0  0  0  0  0  0  0  0  0  0  0
    6.5839  -12.1843   26.2791 S   0  0  0  0  0  0  0  0  0  0  0  0
    7.7026  -13.3398   25.5234 C   0  0  0  0  0  0  0  0  0  0  0  0
    7.4025  -13.7839   24.1383 C   0  0  0  0  0  0  0  0  0  0  0  0
    8.3163  -14.7567   23.5058 C   0  0  2  0  0  0  0  0  0  0  0  0
    7.9228  -14.9621   22.0926 N   0  0  0  0  0  0  0  0  0  0  0  0
    8.4807  -16.0575   24.1612 C   0  0  0  0  0  0  0  0  0  0  0  0
    8.0909  -17.1236   23.6821 O   0  0  0  0  0  0  0  0  0  0  0  0
   11.7497  -18.8770   21.3105 N   0  0  0  0  0  0  0  0  0  0  0  0
   12.0021  -18.5580   22.6652 C   0  0  0  0  0  0  0  0  0  0  0  0
   13.2170  -18.3531   23.0213 O   0  0  0  0  0  0  0  0  0  0  0  0
   10.9222  -18.4490   23.6649 C   0  0  0  0  0  0  0  0  0  0  0  0
   11.0911  -17.3552   24.6641 C   0  0  0  0  0  0  0  0  0  0  0  0
   10.0771  -17.2441   25.7491 C   0  0  2  0  0  0  0  0  0  0  0  0
    9.1312  -16.1694   25.4507 N   0  0  0  0  0  0  0  0  0  0  0  0
   10.5270  -17.1038   27.1213 C   0  0  0  0  0  0  0  0  0  0  0  0
   10.4586  -18.1196   27.9068 O   0  0  0  0  0  0  0  0  0  0  0  0
   11.0530  -15.9565   27.7123 O   0  0  0  0  0  0  0  0  0  0  0  0
  2  4  1  0
  2  1  1  1
  3  2  1  0
  4  6  1  0
  4  5  1  6
  6 13  1  0
  6  7  2  0
  8  9  1  0
 10  9  1  0
 12 11  1  1
 11 10  1  0
 12 14  1  0
 13 12  1  0
 14 15  2  0
 16 17  1  0
 17 18  2  0
 17 19  1  0
 19 20  1  0
 21 20  1  6
 22 21  1  0
 22 14  1  0
 23 21  1  0
 23 25  1  0
 24 23  2  0
M  END
$$$$
