TMQ.pdb
     RDKit          3D

 25 24  0  0  1  0  0  0  0  0999 V2000
    7.4432  -17.6207   18.6683 C   0  0  0  0  0  0  0  0  0  0  0  0
    7.7806  -17.3742   20.1434 C   0  0  1  0  0  0  0  0  0  0  0  0
    8.4962  -18.4758   20.5754 O   0  0  0  0  0  0  0  0  0  0  0  0
    8.5984  -16.1057   20.1823 C   0  0  2  0  0  0  0  0  0  0  0  0
    9.7684  -16.1928   19.3441 N   0  0  0  0  0  0  0  0  0  0  0  0
    8.9368  -15.7079   21.5716 C   0  0  0  0  0  0  0  0  0  0  0  0
   10.1181  -15.7904   21.9836 O   0  0  0  0  0  0  0  0  0  0  0  0
    7.3057  -11.8121   28.1190 C   0  0  0  0  0  0  0  0  0  0  0  0
    6.5372  -12.4065   26.6011 S   0  0  0  0  0  0  0  0  0  0  0  0
    7.5124  -13.7353   25.9369 C   0  0  0  0  0  0  0  0  0  0  0  0
    7.3831  -14.0264   24.4862 C   0  0  0  0  0  0  0  0  0  0  0  0
    8.3162  -15.0012   23.8860 C   0  0  2  0  0  0  0  0  0  0  0  0
    7.9534  -15.2282   22.4679 N   0  0  0  0  0  0  0  0  0  0  0  0
    8.4756  -16.2920   24.5622 C   0  0  0  0  0  0  0  0  0  0  0  0
    7.6006  -17.1583   24.6065 O   0  0  0  0  0  0  0  0  0  0  0  0
   14.0425  -19.2399   25.5649 N   0  0  0  0  0  0  0  0  0  0  0  0
   13.5726  -18.7233   26.7950 C   0  0  0  0  0  0  0  0  0  0  0  0
   14.4034  -18.6291   27.7674 O   0  0  0  0  0  0  0  0  0  0  0  0
   12.1753  -18.2893   26.9867 C   0  0  0  0  0  0  0  0  0  0  0  0
   11.3142  -18.3694   25.7721 C   0  0  0  0  0  0  0  0  0  0  0  0
    9.8971  -17.9285   25.8960 C   0  0  2  0  0  0  0  0  0  0  0  0
    9.7093  -16.6353   25.2393 N   0  0  0  0  0  0  0  0  0  0  0  0
    9.2883  -17.8776   27.2121 C   0  0  0  0  0  0  0  0  0  0  0  0
    8.8868  -16.7450   27.6698 O   0  0  0  0  0  0  0  0  0  0  0  0
    9.0704  -18.9530   28.0712 O   0  0  0  0  0  0  0  0  0  0  0  0
  2  4  1  0
  2  1  1  6
  3  2  1  0
  4  6  1  0
  4  5  1  6
  6 13  1  0
  6  7  2  0
  8  9  1  0
 10  9  1  0
 12 11  1  1
 11 10  1  0
 12 14  1  0
 13 12  1  0
 14 15  2  0
 16 17  1  0
 17 18  2  0
 17 19  1  0
 19 20  1  0
 21 20  1  1
 22 21  1  0
 22 14  1  0
 23 21  1  0
 23 25  1  0
 24 23  2  0
M  END
$$$$
