TMQ.pdb
     RDKit          3D

 25 24  0  0  1  0  0  0  0  0999 V2000
    7.0458  -18.7967   17.6483 C   0  0  0  0  0  0  0  0  0  0  0  0
    7.9848  -18.6138   16.4502 C   0  0  1  0  0  0  0  0  0  0  0  0
    7.3636  -19.2064   15.3662 O   0  0  0  0  0  0  0  0  0  0  0  0
    8.1553  -17.1243   16.2720 C   0  0  2  0  0  0  0  0  0  0  0  0
    8.9054  -16.8063   15.0824 N   0  0  0  0  0  0  0  0  0  0  0  0
    8.7309  -16.4846   17.4812 C   0  0  0  0  0  0  0  0  0  0  0  0
    9.9570  -16.5806   17.7252 O   0  0  0  0  0  0  0  0  0  0  0  0
    7.9110  -11.3500   23.4275 C   0  0  0  0  0  0  0  0  0  0  0  0
    7.1666  -12.0221   21.9302 S   0  0  0  0  0  0  0  0  0  0  0  0
    8.1079  -13.4308   21.3941 C   0  0  0  0  0  0  0  0  0  0  0  0
    7.6980  -14.0925   20.1292 C   0  0  0  0  0  0  0  0  0  0  0  0
    8.5528  -15.1749   19.6012 C   0  0  2  0  0  0  0  0  0  0  0  0
    7.9290  -15.7542   18.3889 N   0  0  0  0  0  0  0  0  0  0  0  0
    8.9268  -16.2532   20.5210 C   0  0  0  0  0  0  0  0  0  0  0  0
    8.2551  -17.2709   20.6978 O   0  0  0  0  0  0  0  0  0  0  0  0
   12.9114  -20.0994   19.6992 N   0  0  0  0  0  0  0  0  0  0  0  0
   12.9129  -18.6917   19.8378 C   0  0  0  0  0  0  0  0  0  0  0  0
   13.2003  -17.9837   18.8078 O   0  0  0  0  0  0  0  0  0  0  0  0
   12.5909  -18.0237   21.1135 C   0  0  0  0  0  0  0  0  0  0  0  0
   11.2343  -18.3172   21.6583 C   0  0  0  0  0  0  0  0  0  0  0  0
   10.4861  -17.1988   22.2965 C   0  0  2  0  0  0  0  0  0  0  0  0
   10.1458  -16.1833   21.3006 N   0  0  0  0  0  0  0  0  0  0  0  0
   11.0568  -16.5425   23.4578 C   0  0  0  0  0  0  0  0  0  0  0  0
   11.1892  -15.2634   23.4487 O   0  0  0  0  0  0  0  0  0  0  0  0
   11.4888  -17.1552   24.6325 O   0  0  0  0  0  0  0  0  0  0  0  0
  2  4  1  0
  2  1  1  1
  3  2  1  0
  4  6  1  0
  4  5  1  6
  6 13  1  0
  6  7  2  0
  8  9  1  0
 10  9  1  0
 12 11  1  1
 11 10  1  0
 12 14  1  0
 13 12  1  0
 14 15  2  0
 16 17  1  0
 17 18  2  0
 17 19  1  0
 19 20  1  0
 21 20  1  6
 22 21  1  0
 22 14  1  0
 23 21  1  0
 23 25  1  0
 24 23  2  0
M  END
$$$$
