TMQ.pdb
     RDKit          3D

 25 24  0  0  1  0  0  0  0  0999 V2000
    8.4186  -17.8085   19.6513 C   0  0  0  0  0  0  0  0  0  0  0  0
    8.3332  -17.4809   21.1467 C   0  0  1  0  0  0  0  0  0  0  0  0
    9.1418  -18.3936   21.7988 O   0  0  0  0  0  0  0  0  0  0  0  0
    8.8294  -16.0629   21.2964 C   0  0  2  0  0  0  0  0  0  0  0  0
   10.1516  -15.8937   20.7467 N   0  0  0  0  0  0  0  0  0  0  0  0
    8.7460  -15.5929   22.7018 C   0  0  0  0  0  0  0  0  0  0  0  0
    9.7802  -15.5187   23.4067 O   0  0  0  0  0  0  0  0  0  0  0  0
    6.8656  -10.5083   26.2177 C   0  0  0  0  0  0  0  0  0  0  0  0
    7.2755  -12.1311   26.8857 S   0  0  0  0  0  0  0  0  0  0  0  0
    6.1097  -13.3241   26.2727 C   0  0  0  0  0  0  0  0  0  0  0  0
    6.3333  -13.8682   24.9090 C   0  0  0  0  0  0  0  0  0  0  0  0
    7.4952  -14.7546   24.6952 C   0  0  2  0  0  0  0  0  0  0  0  0
    7.5150  -15.2173   23.2882 N   0  0  0  0  0  0  0  0  0  0  0  0
    7.6432  -15.9059   25.5903 C   0  0  0  0  0  0  0  0  0  0  0  0
    6.7030  -16.6010   25.9787 O   0  0  0  0  0  0  0  0  0  0  0  0
    6.2310  -19.9730   27.4302 N   0  0  0  0  0  0  0  0  0  0  0  0
    7.4992  -20.5947   27.5060 C   0  0  0  0  0  0  0  0  0  0  0  0
    7.5929  -21.6992   28.1510 O   0  0  0  0  0  0  0  0  0  0  0  0
    8.6993  -20.0206   26.8674 C   0  0  0  0  0  0  0  0  0  0  0  0
    8.5040  -18.6833   26.2375 C   0  0  0  0  0  0  0  0  0  0  0  0
    9.1243  -17.5051   26.9045 C   0  0  2  0  0  0  0  0  0  0  0  0
    8.9440  -16.3064   26.0863 N   0  0  0  0  0  0  0  0  0  0  0  0
   10.5116  -17.5822   27.3222 C   0  0  0  0  0  0  0  0  0  0  0  0
   10.7845  -18.0172   28.5011 O   0  0  0  0  0  0  0  0  0  0  0  0
   11.6297  -17.2351   26.5662 O   0  0  0  0  0  0  0  0  0  0  0  0
  2  4  1  0
  2  1  1  6
  3  2  1  0
  4  6  1  0
  4  5  1  1
  6 13  1  0
  6  7  2  0
  8  9  1  0
 10  9  1  0
 12 11  1  1
 11 10  1  0
 12 14  1  0
 13 12  1  0
 14 15  2  0
 16 17  1  0
 17 18  2  0
 17 19  1  0
 19 20  1  0
 21 20  1  6
 22 21  1  0
 22 14  1  0
 23 21  1  0
 23 25  1  0
 24 23  2  0
M  END
$$$$
