TMQ.pdb
     RDKit          3D

 25 24  0  0  1  0  0  0  0  0999 V2000
    6.8510  -15.8760   20.0735 C   0  0  0  0  0  0  0  0  0  0  0  0
    7.8070  -14.8589   19.4394 C   0  0  1  0  0  0  0  0  0  0  0  0
    7.3729  -14.6632   18.1412 O   0  0  0  0  0  0  0  0  0  0  0  0
    7.7040  -13.6058   20.2753 C   0  0  2  0  0  0  0  0  0  0  0  0
    8.2782  -12.4640   19.6078 N   0  0  0  0  0  0  0  0  0  0  0  0
    8.2689  -13.7991   21.6341 C   0  0  0  0  0  0  0  0  0  0  0  0
    9.5105  -13.8442   21.8028 O   0  0  0  0  0  0  0  0  0  0  0  0
    6.6573  -11.9538   27.9307 C   0  0  0  0  0  0  0  0  0  0  0  0
    6.1578  -11.2586   26.3449 S   0  0  0  0  0  0  0  0  0  0  0  0
    7.0708  -12.0570   25.0461 C   0  0  0  0  0  0  0  0  0  0  0  0
    7.2719  -13.5250   25.1473 C   0  0  0  0  0  0  0  0  0  0  0  0
    8.0592  -14.1941   24.0920 C   0  0  2  0  0  0  0  0  0  0  0  0
    7.4394  -13.9373   22.7713 N   0  0  0  0  0  0  0  0  0  0  0  0
    8.3117  -15.6301   24.2423 C   0  0  0  0  0  0  0  0  0  0  0  0
    7.7057  -16.5042   23.6204 O   0  0  0  0  0  0  0  0  0  0  0  0
   12.0210  -19.6909   22.5429 N   0  0  0  0  0  0  0  0  0  0  0  0
   12.2209  -18.2912   22.5023 C   0  0  0  0  0  0  0  0  0  0  0  0
   13.2440  -17.8453   21.8706 O   0  0  0  0  0  0  0  0  0  0  0  0
   11.2952  -17.3425   23.1507 C   0  0  0  0  0  0  0  0  0  0  0  0
   10.0981  -17.9608   23.7894 C   0  0  0  0  0  0  0  0  0  0  0  0
    9.7421  -17.5214   25.1671 C   0  0  2  0  0  0  0  0  0  0  0  0
    9.3199  -16.1212   25.1593 N   0  0  0  0  0  0  0  0  0  0  0  0
   10.7021  -17.7147   26.2376 C   0  0  0  0  0  0  0  0  0  0  0  0
   11.1243  -18.9029   26.4894 O   0  0  0  0  0  0  0  0  0  0  0  0
   11.2499  -16.7268   27.0537 O   0  0  0  0  0  0  0  0  0  0  0  0
  2  4  1  0
  2  1  1  1
  3  2  1  0
  4  6  1  0
  4  5  1  6
  6 13  1  0
  6  7  2  0
  8  9  1  0
 10  9  1  0
 12 11  1  1
 11 10  1  0
 12 14  1  0
 13 12  1  0
 14 15  2  0
 16 17  1  0
 17 18  2  0
 17 19  1  0
 19 20  1  0
 21 20  1  6
 22 21  1  0
 22 14  1  0
 23 21  1  0
 23 25  1  0
 24 23  2  0
M  END
$$$$
