MHI.pdb
     RDKit          3D

 27 27  0  0  1  0  0  0  0  0999 V2000
    7.0110  -12.0285   20.5109 C   0  0  0  0  0  0  0  0  0  0  0  0
    7.9484  -13.0144   19.3021 S   0  0  0  0  0  0  0  0  0  0  0  0
    8.1460  -14.7049   19.8849 C   0  0  0  0  0  0  0  0  0  0  0  0
    7.1449  -15.5962   19.2075 C   0  0  0  0  0  0  0  0  0  0  0  0
    7.3155  -16.9988   19.7635 C   0  0  2  0  0  0  0  0  0  0  0  0
    6.4601  -17.8885   19.0390 N   0  0  0  0  0  0  0  0  0  0  0  0
    7.0709  -17.0190   21.2234 C   0  0  0  0  0  0  0  0  0  0  0  0
    5.8746  -17.0082   21.6128 O   0  0  0  0  0  0  0  0  0  0  0  0
    8.0884  -17.0493   22.2019 N   0  0  0  0  0  0  0  0  0  0  0  0
    7.8135  -17.2041   23.6034 C   0  0  1  0  0  0  0  0  0  0  0  0
    7.9403  -18.6475   24.0500 C   0  0  0  0  0  0  0  0  0  0  0  0
    7.7813  -18.8413   25.4878 C   0  0  0  0  0  0  0  0  0  0  0  0
    6.8064  -18.3314   26.3089 C   0  0  0  0  0  0  0  0  0  0  0  0
    7.0373  -18.7658   27.5846 N   0  0  0  0  0  0  0  0  0  0  0  0
    8.1324  -19.5292   27.5555 C   0  0  0  0  0  0  0  0  0  0  0  0
    8.5830  -19.5725   26.2746 N   0  0  0  0  0  0  0  0  0  0  0  0
    8.6186  -16.2628   24.4070 C   0  0  0  0  0  0  0  0  0  0  0  0
    9.8880  -16.1989   24.2601 O   0  0  0  0  0  0  0  0  0  0  0  0
    6.1114  -11.9030   27.1706 C   0  0  0  0  0  0  0  0  0  0  0  0
    6.8557  -13.1812   27.0300 C   0  0  0  0  0  0  0  0  0  0  0  0
    8.0723  -13.1764   26.1890 C   0  0  2  0  0  0  0  0  0  0  0  0
    7.9045  -12.5036   24.8486 C   0  0  0  0  0  0  0  0  0  0  0  0
    8.9025  -14.4188   26.1349 C   0  0  2  0  0  0  0  0  0  0  0  0
    8.0797  -15.3840   25.3683 N   0  0  0  0  0  0  0  0  0  0  0  0
    9.0933  -15.0347   27.4554 C   0  0  0  0  0  0  0  0  0  0  0  0
    9.9513  -14.5419   28.4478 O   0  0  0  0  0  0  0  0  0  0  0  0
    8.4782  -16.1010   27.8134 O   0  0  0  0  0  0  0  0  0  0  0  0
  2  1  1  0
  3  2  1  0
  4  3  1  0
  4  5  1  0
  5  6  1  6
  7  5  1  0
  7  8  2  0
  9  7  1  0
 10  9  1  0
 10 11  1  1
 12 11  1  0
 12 13  2  0
 14 13  1  0
 15 16  2  0
 15 14  1  0
 16 12  1  0
 17 10  1  0
 18 17  2  0
 20 19  1  0
 21 20  1  0
 21 22  1  6
 23 21  1  0
 23 24  1  6
 24 17  1  0
 25 23  1  0
 26 25  1  0
 27 25  2  0
M  END
$$$$
