MHI.pdb
     RDKit          3D

 27 27  0  0  1  0  0  0  0  0999 V2000
    9.4177  -12.3006   19.6658 C   0  0  0  0  0  0  0  0  0  0  0  0
    7.9143  -12.8630   18.8083 S   0  0  0  0  0  0  0  0  0  0  0  0
    7.4860  -14.5345   19.3173 C   0  0  0  0  0  0  0  0  0  0  0  0
    8.7193  -15.3913   19.3372 C   0  0  0  0  0  0  0  0  0  0  0  0
    8.3240  -16.7686   19.8395 C   0  0  2  0  0  0  0  0  0  0  0  0
    7.4023  -17.3501   18.9120 N   0  0  0  0  0  0  0  0  0  0  0  0
    7.7896  -16.6921   21.2179 C   0  0  0  0  0  0  0  0  0  0  0  0
    6.5751  -16.3939   21.3551 O   0  0  0  0  0  0  0  0  0  0  0  0
    8.5512  -16.9309   22.3827 N   0  0  0  0  0  0  0  0  0  0  0  0
    7.9811  -16.9097   23.7011 C   0  0  1  0  0  0  0  0  0  0  0  0
    7.9370  -18.2924   24.3220 C   0  0  0  0  0  0  0  0  0  0  0  0
    6.9973  -19.2041   23.6772 C   0  0  0  0  0  0  0  0  0  0  0  0
    6.1924  -18.9631   22.5915 C   0  0  0  0  0  0  0  0  0  0  0  0
    5.4724  -20.0935   22.3210 N   0  0  0  0  0  0  0  0  0  0  0  0
    5.8233  -21.0164   23.2199 C   0  0  0  0  0  0  0  0  0  0  0  0
    6.7537  -20.4696   24.0452 N   0  0  0  0  0  0  0  0  0  0  0  0
    8.6473  -15.9010   24.5489 C   0  0  0  0  0  0  0  0  0  0  0  0
    9.8941  -15.6505   24.4082 O   0  0  0  0  0  0  0  0  0  0  0  0
    5.5830  -11.8572   26.4543 C   0  0  0  0  0  0  0  0  0  0  0  0
    6.6523  -12.7562   25.9483 C   0  0  0  0  0  0  0  0  0  0  0  0
    7.6275  -13.2801   26.9290 C   0  0  2  0  0  0  0  0  0  0  0  0
    8.1180  -12.2623   27.9295 C   0  0  0  0  0  0  0  0  0  0  0  0
    8.6976  -14.2037   26.4417 C   0  0  2  0  0  0  0  0  0  0  0  0
    7.9928  -15.1526   25.5479 N   0  0  0  0  0  0  0  0  0  0  0  0
    9.2679  -15.0312   27.5138 C   0  0  0  0  0  0  0  0  0  0  0  0
   10.4043  -14.6943   28.2614 O   0  0  0  0  0  0  0  0  0  0  0  0
    8.7617  -16.1579   27.8573 O   0  0  0  0  0  0  0  0  0  0  0  0
  2  1  1  0
  3  2  1  0
  4  3  1  0
  4  5  1  0
  5  6  1  6
  7  5  1  0
  7  8  2  0
  9  7  1  0
 10  9  1  0
 10 11  1  1
 12 11  1  0
 12 13  2  0
 14 13  1  0
 15 16  2  0
 15 14  1  0
 16 12  1  0
 17 10  1  0
 18 17  2  0
 20 19  1  0
 21 20  1  0
 21 22  1  6
 23 21  1  0
 23 24  1  6
 24 17  1  0
 25 23  1  0
 26 25  1  0
 27 25  2  0
M  END
$$$$
