MHI.pdb
     RDKit          3D

 27 27  0  0  1  0  0  0  0  0999 V2000
    8.5643  -11.9697   20.0104 C   0  0  0  0  0  0  0  0  0  0  0  0
    7.7203  -12.8425   18.6548 S   0  0  0  0  0  0  0  0  0  0  0  0
    7.7110  -14.6161   18.9561 C   0  0  0  0  0  0  0  0  0  0  0  0
    7.1922  -14.8941   20.3377 C   0  0  0  0  0  0  0  0  0  0  0  0
    7.2727  -16.3916   20.5752 C   0  0  2  0  0  0  0  0  0  0  0  0
    6.2671  -17.0375   19.7880 N   0  0  0  0  0  0  0  0  0  0  0  0
    7.1671  -16.7013   22.0190 C   0  0  0  0  0  0  0  0  0  0  0  0
    6.0526  -16.5179   22.5732 O   0  0  0  0  0  0  0  0  0  0  0  0
    8.2311  -17.1868   22.8102 N   0  0  0  0  0  0  0  0  0  0  0  0
    8.1075  -17.4129   24.2235 C   0  0  1  0  0  0  0  0  0  0  0  0
    8.3577  -18.8629   24.5895 C   0  0  0  0  0  0  0  0  0  0  0  0
    7.3510  -19.7876   24.0782 C   0  0  0  0  0  0  0  0  0  0  0  0
    6.0301  -19.8865   24.4391 C   0  0  0  0  0  0  0  0  0  0  0  0
    5.4508  -20.8872   23.7094 N   0  0  0  0  0  0  0  0  0  0  0  0
    6.3924  -21.3983   22.9125 C   0  0  0  0  0  0  0  0  0  0  0  0
    7.5499  -20.7246   23.1408 N   0  0  0  0  0  0  0  0  0  0  0  0
    8.9364  -16.4582   24.9860 C   0  0  0  0  0  0  0  0  0  0  0  0
   10.1579  -16.2529   24.6654 O   0  0  0  0  0  0  0  0  0  0  0  0
    6.5913  -12.0424   27.6508 C   0  0  0  0  0  0  0  0  0  0  0  0
    7.2313  -13.3745   27.4972 C   0  0  0  0  0  0  0  0  0  0  0  0
    8.4857  -13.4457   26.7169 C   0  0  2  0  0  0  0  0  0  0  0  0
    8.3925  -12.8656   25.3268 C   0  0  0  0  0  0  0  0  0  0  0  0
    9.2955  -14.7006   26.7882 C   0  0  2  0  0  0  0  0  0  0  0  0
    8.4719  -15.7161   26.0906 N   0  0  0  0  0  0  0  0  0  0  0  0
    9.4493  -15.2023   28.1609 C   0  0  0  0  0  0  0  0  0  0  0  0
   10.3206  -14.6591   29.1147 O   0  0  0  0  0  0  0  0  0  0  0  0
    8.7856  -16.2046   28.6062 O   0  0  0  0  0  0  0  0  0  0  0  0
  2  1  1  0
  3  2  1  0
  4  3  1  0
  4  5  1  0
  5  6  1  6
  7  5  1  0
  7  8  2  0
  9  7  1  0
 10  9  1  0
 10 11  1  6
 12 11  1  0
 12 13  2  0
 14 13  1  0
 15 16  2  0
 15 14  1  0
 16 12  1  0
 17 10  1  0
 18 17  2  0
 20 19  1  0
 21 20  1  0
 21 22  1  6
 23 21  1  0
 23 24  1  6
 24 17  1  0
 25 23  1  0
 26 25  1  0
 27 25  2  0
M  END
$$$$
