MHI.pdb
     RDKit          3D

 27 27  0  0  1  0  0  0  0  0999 V2000
    8.1949  -11.4269   19.7205 C   0  0  0  0  0  0  0  0  0  0  0  0
    8.0711  -12.3409   18.1518 S   0  0  0  0  0  0  0  0  0  0  0  0
    8.6326  -14.0369   18.3642 C   0  0  0  0  0  0  0  0  0  0  0  0
    8.0682  -14.6035   19.6353 C   0  0  0  0  0  0  0  0  0  0  0  0
    8.5695  -16.0299   19.7747 C   0  0  2  0  0  0  0  0  0  0  0  0
    8.0484  -16.8091   18.6933 N   0  0  0  0  0  0  0  0  0  0  0  0
    8.2251  -16.5804   21.1051 C   0  0  0  0  0  0  0  0  0  0  0  0
    7.0538  -17.0082   21.2722 O   0  0  0  0  0  0  0  0  0  0  0  0
    9.1220  -16.6560   22.1932 N   0  0  0  0  0  0  0  0  0  0  0  0
    8.6893  -16.9051   23.5402 C   0  0  1  0  0  0  0  0  0  0  0  0
    8.8637  -18.3595   23.9318 C   0  0  0  0  0  0  0  0  0  0  0  0
   10.1634  -18.9196   23.5754 C   0  0  0  0  0  0  0  0  0  0  0  0
   11.1848  -18.3172   22.8834 C   0  0  0  0  0  0  0  0  0  0  0  0
   12.2210  -19.2026   22.7739 N   0  0  0  0  0  0  0  0  0  0  0  0
   11.8502  -20.3304   23.3850 C   0  0  0  0  0  0  0  0  0  0  0  0
   10.5945  -20.1534   23.8724 N   0  0  0  0  0  0  0  0  0  0  0  0
    9.3204  -15.9587   24.4816 C   0  0  0  0  0  0  0  0  0  0  0  0
   10.4570  -15.4344   24.2166 O   0  0  0  0  0  0  0  0  0  0  0  0
    6.4725  -12.0895   26.1775 C   0  0  0  0  0  0  0  0  0  0  0  0
    7.5749  -13.0261   25.8385 C   0  0  0  0  0  0  0  0  0  0  0  0
    8.3477  -13.6078   26.9574 C   0  0  2  0  0  0  0  0  0  0  0  0
    8.7604  -12.6151   28.0165 C   0  0  0  0  0  0  0  0  0  0  0  0
    9.4034  -14.6183   26.6409 C   0  0  2  0  0  0  0  0  0  0  0  0
    8.7471  -15.5634   25.7070 N   0  0  0  0  0  0  0  0  0  0  0  0
    9.7855  -15.4274   27.8066 C   0  0  0  0  0  0  0  0  0  0  0  0
   10.8513  -15.1313   28.6670 O   0  0  0  0  0  0  0  0  0  0  0  0
    9.1620  -16.4980   28.1361 O   0  0  0  0  0  0  0  0  0  0  0  0
  2  1  1  0
  3  2  1  0
  4  3  1  0
  4  5  1  0
  5  6  1  6
  7  5  1  0
  7  8  2  0
  9  7  1  0
 10  9  1  0
 10 11  1  1
 12 11  1  0
 12 13  2  0
 14 13  1  0
 15 16  2  0
 15 14  1  0
 16 12  1  0
 17 10  1  0
 18 17  2  0
 20 19  1  0
 21 20  1  0
 21 22  1  6
 23 21  1  0
 23 24  1  6
 24 17  1  0
 25 23  1  0
 26 25  1  0
 27 25  2  0
M  END
$$$$
