MHI.pdb
     RDKit          3D

 27 27  0  0  1  0  0  0  0  0999 V2000
    8.9844  -12.0006   20.1087 C   0  0  0  0  0  0  0  0  0  0  0  0
    7.4967  -12.5559   19.2198 S   0  0  0  0  0  0  0  0  0  0  0  0
    7.1760  -14.2947   19.5519 C   0  0  0  0  0  0  0  0  0  0  0  0
    8.4131  -15.1009   19.2782 C   0  0  0  0  0  0  0  0  0  0  0  0
    8.1024  -16.5544   19.5880 C   0  0  2  0  0  0  0  0  0  0  0  0
    7.1152  -17.0216   18.6632 N   0  0  0  0  0  0  0  0  0  0  0  0
    7.6947  -16.7150   21.0021 C   0  0  0  0  0  0  0  0  0  0  0  0
    6.4987  -16.4573   21.2955 O   0  0  0  0  0  0  0  0  0  0  0  0
    8.5573  -17.1365   22.0376 N   0  0  0  0  0  0  0  0  0  0  0  0
    8.1241  -17.2773   23.4000 C   0  0  1  0  0  0  0  0  0  0  0  0
    8.2865  -18.6987   23.9024 C   0  0  0  0  0  0  0  0  0  0  0  0
    7.8997  -18.8841   25.2975 C   0  0  0  0  0  0  0  0  0  0  0  0
    8.7063  -19.1806   26.3682 C   0  0  0  0  0  0  0  0  0  0  0  0
    7.9302  -19.2638   27.4908 N   0  0  0  0  0  0  0  0  0  0  0  0
    6.6689  -19.0238   27.1243 C   0  0  0  0  0  0  0  0  0  0  0  0
    6.6549  -18.7928   25.7856 N   0  0  0  0  0  0  0  0  0  0  0  0
    8.7643  -16.2667   24.2653 C   0  0  0  0  0  0  0  0  0  0  0  0
    9.9908  -15.9444   24.0956 O   0  0  0  0  0  0  0  0  0  0  0  0
    6.0233  -11.9728   25.8779 C   0  0  0  0  0  0  0  0  0  0  0  0
    7.0615  -12.9695   25.5086 C   0  0  0  0  0  0  0  0  0  0  0  0
    7.7766  -13.6530   26.6081 C   0  0  2  0  0  0  0  0  0  0  0  0
    8.1969  -12.7477   27.7401 C   0  0  0  0  0  0  0  0  0  0  0  0
    8.7999  -14.6847   26.2558 C   0  0  2  0  0  0  0  0  0  0  0  0
    8.1050  -15.5925   25.3129 N   0  0  0  0  0  0  0  0  0  0  0  0
    9.1766  -15.5274   27.3992 C   0  0  0  0  0  0  0  0  0  0  0  0
   10.3115  -15.3275   28.1966 O   0  0  0  0  0  0  0  0  0  0  0  0
    8.4824  -16.5409   27.7660 O   0  0  0  0  0  0  0  0  0  0  0  0
  2  1  1  0
  3  2  1  0
  4  3  1  0
  4  5  1  0
  5  6  1  6
  7  5  1  0
  7  8  2  0
  9  7  1  0
 10  9  1  0
 10 11  1  1
 12 11  1  0
 12 13  2  0
 14 13  1  0
 15 16  2  0
 15 14  1  0
 16 12  1  0
 17 10  1  0
 18 17  2  0
 20 19  1  0
 21 20  1  0
 21 22  1  6
 23 21  1  0
 23 24  1  6
 24 17  1  0
 25 23  1  0
 26 25  1  0
 27 25  2  0
M  END
$$$$
