MHI.pdb
     RDKit          3D

 27 27  0  0  1  0  0  0  0  0999 V2000
  -57.0723  -72.0363   89.5755 C   0  0  0  0  0  0  0  0  0  0  0  0
  -56.8128  -70.3628   88.9092 S   0  0  0  0  0  0  0  0  0  0  0  0
  -55.5652  -70.3865   87.6133 C   0  0  0  0  0  0  0  0  0  0  0  0
  -54.2076  -70.5995   88.2188 C   0  0  0  0  0  0  0  0  0  0  0  0
  -53.7693  -69.2929   88.8561 C   0  0  2  0  0  0  0  0  0  0  0  0
  -52.9173  -68.5970   87.9407 N   0  0  0  0  0  0  0  0  0  0  0  0
  -53.1329  -69.5365   90.1703 C   0  0  0  0  0  0  0  0  0  0  0  0
  -53.5456  -70.5158   90.8438 O   0  0  0  0  0  0  0  0  0  0  0  0
  -52.0979  -68.7447   90.7140 N   0  0  0  0  0  0  0  0  0  0  0  0
  -50.9902  -69.3046   91.4373 C   0  0  1  0  0  0  0  0  0  0  0  0
  -51.4188  -69.8830   92.7718 C   0  0  0  0  0  0  0  0  0  0  0  0
  -51.0290  -71.2755   92.9692 C   0  0  0  0  0  0  0  0  0  0  0  0
  -51.5369  -72.3929   92.3542 C   0  0  0  0  0  0  0  0  0  0  0  0
  -50.8823  -73.4928   92.8352 N   0  0  0  0  0  0  0  0  0  0  0  0
  -49.9872  -73.0667   93.7296 C   0  0  0  0  0  0  0  0  0  0  0  0
  -50.0801  -71.7136   93.8082 N   0  0  0  0  0  0  0  0  0  0  0  0
  -50.2350  -70.2540   90.5957 C   0  0  0  0  0  0  0  0  0  0  0  0
  -49.7421  -71.3225   91.0979 O   0  0  0  0  0  0  0  0  0  0  0  0
  -47.5631  -67.6248   87.0773 C   0  0  0  0  0  0  0  0  0  0  0  0
  -47.5696  -69.0893   86.8266 C   0  0  0  0  0  0  0  0  0  0  0  0
  -48.7790  -69.8456   87.2174 C   0  0  2  0  0  0  0  0  0  0  0  0
  -50.0811  -69.1480   86.9087 C   0  0  0  0  0  0  0  0  0  0  0  0
  -48.7778  -70.5550   88.5336 C   0  0  2  0  0  0  0  0  0  0  0  0
  -50.0017  -70.0745   89.2173 N   0  0  0  0  0  0  0  0  0  0  0  0
  -47.6636  -70.1464   89.4002 C   0  0  0  0  0  0  0  0  0  0  0  0
  -46.6593  -71.0059   89.8652 O   0  0  0  0  0  0  0  0  0  0  0  0
  -47.5192  -68.9417   89.8144 O   0  0  0  0  0  0  0  0  0  0  0  0
  2  1  1  0
  3  2  1  0
  4  3  1  0
  4  5  1  0
  5  6  1  6
  7  5  1  0
  7  8  2  0
  9  7  1  0
 10  9  1  0
 10 11  1  1
 12 11  1  0
 12 13  2  0
 14 13  1  0
 15 16  2  0
 15 14  1  0
 16 12  1  0
 17 10  1  0
 18 17  2  0
 20 19  1  0
 21 20  1  0
 21 22  1  1
 23 21  1  0
 23 24  1  1
 24 17  1  0
 25 23  1  0
 26 25  1  0
 27 25  2  0
M  END
$$$$
