MHI.pdb
     RDKit          3D

 27 27  0  0  1  0  0  0  0  0999 V2000
    8.2253  -12.0156   19.6801 C   0  0  0  0  0  0  0  0  0  0  0  0
    7.8695  -12.9790   18.1777 S   0  0  0  0  0  0  0  0  0  0  0  0
    7.8096  -14.7369   18.5554 C   0  0  0  0  0  0  0  0  0  0  0  0
    7.7364  -14.9350   20.0423 C   0  0  0  0  0  0  0  0  0  0  0  0
    7.6504  -16.4267   20.3119 C   0  0  2  0  0  0  0  0  0  0  0  0
    6.6868  -17.0006   19.4229 N   0  0  0  0  0  0  0  0  0  0  0  0
    7.3511  -16.6867   21.7382 C   0  0  0  0  0  0  0  0  0  0  0  0
    6.1982  -16.3999   22.1522 O   0  0  0  0  0  0  0  0  0  0  0  0
    8.2714  -17.2331   22.6593 N   0  0  0  0  0  0  0  0  0  0  0  0
    7.9867  -17.3546   24.0621 C   0  0  1  0  0  0  0  0  0  0  0  0
    8.1294  -18.7839   24.5477 C   0  0  0  0  0  0  0  0  0  0  0  0
    7.0995  -19.6881   24.0458 C   0  0  0  0  0  0  0  0  0  0  0  0
    5.9222  -20.0512   24.6516 C   0  0  0  0  0  0  0  0  0  0  0  0
    5.2561  -20.9173   23.8296 N   0  0  0  0  0  0  0  0  0  0  0  0
    6.0044  -21.0878   22.7370 C   0  0  0  0  0  0  0  0  0  0  0  0
    7.1279  -20.3363   22.8730 N   0  0  0  0  0  0  0  0  0  0  0  0
    8.7721  -16.3814   24.8470 C   0  0  0  0  0  0  0  0  0  0  0  0
   10.0231  -16.2247   24.6292 O   0  0  0  0  0  0  0  0  0  0  0  0
    6.1756  -11.9512   26.2305 C   0  0  0  0  0  0  0  0  0  0  0  0
    7.2205  -12.9406   25.8608 C   0  0  0  0  0  0  0  0  0  0  0  0
    8.0638  -13.4844   26.9475 C   0  0  2  0  0  0  0  0  0  0  0  0
    8.6228  -12.4439   27.8868 C   0  0  0  0  0  0  0  0  0  0  0  0
    9.0331  -14.5735   26.6161 C   0  0  2  0  0  0  0  0  0  0  0  0
    8.2328  -15.5692   25.8649 N   0  0  0  0  0  0  0  0  0  0  0  0
    9.5195  -15.2851   27.8063 C   0  0  0  0  0  0  0  0  0  0  0  0
   10.7084  -14.9838   28.4842 O   0  0  0  0  0  0  0  0  0  0  0  0
    8.8817  -16.2657   28.3309 O   0  0  0  0  0  0  0  0  0  0  0  0
  2  1  1  0
  3  2  1  0
  4  3  1  0
  4  5  1  0
  5  6  1  6
  7  5  1  0
  7  8  2  0
  9  7  1  0
 10  9  1  0
 10 11  1  1
 12 11  1  0
 12 13  2  0
 14 13  1  0
 15 16  2  0
 15 14  1  0
 16 12  1  0
 17 10  1  0
 18 17  2  0
 20 19  1  0
 21 20  1  0
 21 22  1  6
 23 21  1  0
 23 24  1  6
 24 17  1  0
 25 23  1  0
 26 25  1  0
 27 25  2  0
M  END
$$$$
