MHI.pdb
     RDKit          3D

 27 27  0  0  1  0  0  0  0  0999 V2000
    7.9121  -12.3780   20.0533 C   0  0  0  0  0  0  0  0  0  0  0  0
    7.9833  -13.2003   18.4314 S   0  0  0  0  0  0  0  0  0  0  0  0
    7.3087  -14.8646   18.5380 C   0  0  0  0  0  0  0  0  0  0  0  0
    6.7613  -15.1037   19.9159 C   0  0  0  0  0  0  0  0  0  0  0  0
    7.3323  -16.4152   20.4251 C   0  0  2  0  0  0  0  0  0  0  0  0
    6.8215  -17.4831   19.6207 N   0  0  0  0  0  0  0  0  0  0  0  0
    7.0473  -16.5879   21.8675 C   0  0  0  0  0  0  0  0  0  0  0  0
    5.9697  -16.1113   22.3085 O   0  0  0  0  0  0  0  0  0  0  0  0
    7.9025  -17.2495   22.7756 N   0  0  0  0  0  0  0  0  0  0  0  0
    7.6476  -17.2971   24.1885 C   0  0  1  0  0  0  0  0  0  0  0  0
    7.7830  -18.7022   24.7420 C   0  0  0  0  0  0  0  0  0  0  0  0
    6.7735  -19.6347   24.2507 C   0  0  0  0  0  0  0  0  0  0  0  0
    5.7232  -19.3782   23.4046 C   0  0  0  0  0  0  0  0  0  0  0  0
    5.0277  -20.5386   23.2061 N   0  0  0  0  0  0  0  0  0  0  0  0
    5.6338  -21.4947   23.9141 C   0  0  0  0  0  0  0  0  0  0  0  0
    6.6982  -20.9391   24.5498 N   0  0  0  0  0  0  0  0  0  0  0  0
    8.4623  -16.2968   24.9065 C   0  0  0  0  0  0  0  0  0  0  0  0
    9.7248  -16.2220   24.7125 O   0  0  0  0  0  0  0  0  0  0  0  0
    6.2139  -11.5559   27.2715 C   0  0  0  0  0  0  0  0  0  0  0  0
    6.8250  -12.9101   27.2569 C   0  0  0  0  0  0  0  0  0  0  0  0
    8.0495  -13.1002   26.4495 C   0  0  2  0  0  0  0  0  0  0  0  0
    7.9516  -12.5886   25.0331 C   0  0  0  0  0  0  0  0  0  0  0  0
    8.7828  -14.3980   26.5673 C   0  0  2  0  0  0  0  0  0  0  0  0
    7.9405  -15.3705   25.8319 N   0  0  0  0  0  0  0  0  0  0  0  0
    8.8376  -14.8983   27.9479 C   0  0  0  0  0  0  0  0  0  0  0  0
    9.6992  -14.4093   28.9389 O   0  0  0  0  0  0  0  0  0  0  0  0
    8.0858  -15.8488   28.3662 O   0  0  0  0  0  0  0  0  0  0  0  0
  2  1  1  0
  3  2  1  0
  4  3  1  0
  4  5  1  0
  5  6  1  6
  7  5  1  0
  7  8  2  0
  9  7  1  0
 10  9  1  0
 10 11  1  1
 12 11  1  0
 12 13  2  0
 14 13  1  0
 15 16  2  0
 15 14  1  0
 16 12  1  0
 17 10  1  0
 18 17  2  0
 20 19  1  0
 21 20  1  0
 21 22  1  6
 23 21  1  0
 23 24  1  6
 24 17  1  0
 25 23  1  0
 26 25  1  0
 27 25  2  0
M  END
$$$$
