MHI.pdb
     RDKit          3D

 27 27  0  0  1  0  0  0  0  0999 V2000
    9.1836  -10.6292   19.6197 C   0  0  0  0  0  0  0  0  0  0  0  0
    8.2693  -12.0894   20.2060 S   0  0  0  0  0  0  0  0  0  0  0  0
    8.1434  -13.3206   18.9003 C   0  0  0  0  0  0  0  0  0  0  0  0
    7.2485  -14.4420   19.3439 C   0  0  0  0  0  0  0  0  0  0  0  0
    8.0705  -15.7185   19.3594 C   0  0  2  0  0  0  0  0  0  0  0  0
    7.5489  -16.6142   18.3727 N   0  0  0  0  0  0  0  0  0  0  0  0
    8.1028  -16.3065   20.7177 C   0  0  0  0  0  0  0  0  0  0  0  0
    7.0015  -16.5972   21.2519 O   0  0  0  0  0  0  0  0  0  0  0  0
    9.2840  -16.5608   21.4485 N   0  0  0  0  0  0  0  0  0  0  0  0
    9.2712  -17.0328   22.8052 C   0  0  1  0  0  0  0  0  0  0  0  0
   10.1701  -18.2392   22.9942 C   0  0  0  0  0  0  0  0  0  0  0  0
   10.2595  -18.7037   24.3749 C   0  0  0  0  0  0  0  0  0  0  0  0
   11.3667  -18.7426   25.1858 C   0  0  0  0  0  0  0  0  0  0  0  0
   11.0008  -19.2492   26.4020 N   0  0  0  0  0  0  0  0  0  0  0  0
    9.6942  -19.5187   26.3466 C   0  0  0  0  0  0  0  0  0  0  0  0
    9.2461  -19.1845   25.1085 N   0  0  0  0  0  0  0  0  0  0  0  0
    9.5498  -15.9330   23.7501 C   0  0  0  0  0  0  0  0  0  0  0  0
   10.6149  -15.2326   23.6410 O   0  0  0  0  0  0  0  0  0  0  0  0
    5.7302  -12.6610   26.4741 C   0  0  0  0  0  0  0  0  0  0  0  0
    6.6286  -13.8051   26.1716 C   0  0  0  0  0  0  0  0  0  0  0  0
    7.9858  -13.4964   25.6715 C   0  0  2  0  0  0  0  0  0  0  0  0
    8.0162  -12.7831   24.3420 C   0  0  0  0  0  0  0  0  0  0  0  0
    9.0492  -14.5376   25.8161 C   0  0  2  0  0  0  0  0  0  0  0  0
    8.6984  -15.5708   24.8134 N   0  0  0  0  0  0  0  0  0  0  0  0
    9.0012  -15.2247   27.1142 C   0  0  0  0  0  0  0  0  0  0  0  0
    8.5222  -16.5272   27.3089 O   0  0  0  0  0  0  0  0  0  0  0  0
    9.3996  -14.6729   28.2006 O   0  0  0  0  0  0  0  0  0  0  0  0
  2  1  1  0
  3  2  1  0
  4  3  1  0
  4  5  1  0
  5  6  1  6
  7  5  1  0
  7  8  2  0
  9  7  1  0
 10  9  1  0
 10 11  1  6
 12 11  1  0
 12 13  2  0
 14 13  1  0
 15 16  2  0
 15 14  1  0
 16 12  1  0
 17 10  1  0
 18 17  2  0
 20 19  1  0
 21 20  1  0
 21 22  1  6
 23 21  1  0
 23 24  1  6
 24 17  1  0
 25 23  1  0
 26 25  1  0
 27 25  2  0
M  END
$$$$
