MHI.pdb
     RDKit          3D

 27 27  0  0  1  0  0  0  0  0999 V2000
    8.8967  -11.9485   19.4456 C   0  0  0  0  0  0  0  0  0  0  0  0
    8.0090  -12.7803   18.0922 S   0  0  0  0  0  0  0  0  0  0  0  0
    7.8978  -14.5487   18.4040 C   0  0  0  0  0  0  0  0  0  0  0  0
    7.3075  -14.7887   19.7639 C   0  0  0  0  0  0  0  0  0  0  0  0
    7.2804  -16.2876   20.0042 C   0  0  2  0  0  0  0  0  0  0  0  0
    6.3088  -16.8762   19.1337 N   0  0  0  0  0  0  0  0  0  0  0  0
    7.0356  -16.5866   21.4333 C   0  0  0  0  0  0  0  0  0  0  0  0
    5.8556  -16.4791   21.8562 O   0  0  0  0  0  0  0  0  0  0  0  0
    8.0361  -16.9824   22.3478 N   0  0  0  0  0  0  0  0  0  0  0  0
    7.7703  -17.2025   23.7423 C   0  0  1  0  0  0  0  0  0  0  0  0
    7.9365  -18.6595   24.1280 C   0  0  0  0  0  0  0  0  0  0  0  0
    7.7673  -18.9202   25.5539 C   0  0  0  0  0  0  0  0  0  0  0  0
    6.7626  -18.4839   26.3817 C   0  0  0  0  0  0  0  0  0  0  0  0
    6.9945  -18.9628   27.6413 N   0  0  0  0  0  0  0  0  0  0  0  0
    8.1192  -19.6810   27.5958 C   0  0  0  0  0  0  0  0  0  0  0  0
    8.5872  -19.6524   26.3207 N   0  0  0  0  0  0  0  0  0  0  0  0
    8.5533  -16.2746   24.5825 C   0  0  0  0  0  0  0  0  0  0  0  0
    9.7883  -16.0521   24.3332 O   0  0  0  0  0  0  0  0  0  0  0  0
    5.6077  -12.6207   27.3704 C   0  0  0  0  0  0  0  0  0  0  0  0
    6.6625  -13.2884   26.5647 C   0  0  0  0  0  0  0  0  0  0  0  0
    7.8173  -13.8620   27.2892 C   0  0  2  0  0  0  0  0  0  0  0  0
    8.4249  -12.9469   28.3241 C   0  0  0  0  0  0  0  0  0  0  0  0
    8.8296  -14.6386   26.5094 C   0  0  2  0  0  0  0  0  0  0  0  0
    8.0284  -15.5776   25.6893 N   0  0  0  0  0  0  0  0  0  0  0  0
    9.6737  -15.4894   27.3598 C   0  0  0  0  0  0  0  0  0  0  0  0
    9.3281  -16.7771   27.7912 O   0  0  0  0  0  0  0  0  0  0  0  0
   10.8208  -15.1112   27.7896 O   0  0  0  0  0  0  0  0  0  0  0  0
  2  1  1  0
  3  2  1  0
  4  3  1  0
  4  5  1  0
  5  6  1  6
  7  5  1  0
  7  8  2  0
  9  7  1  0
 10  9  1  0
 10 11  1  1
 12 11  1  0
 12 13  2  0
 14 13  1  0
 15 16  2  0
 15 14  1  0
 16 12  1  0
 17 10  1  0
 18 17  2  0
 20 19  1  0
 21 20  1  0
 21 22  1  6
 23 21  1  0
 23 24  1  6
 24 17  1  0
 25 23  1  0
 26 25  1  0
 27 25  2  0
M  END
$$$$
