LLV.pdb
     RDKit          3D

 24 23  0  0  1  0  0  0  0  0999 V2000
    7.2966  -12.2465   18.0887 C   0  0  0  0  0  0  0  0  0  0  0  0
    7.5085  -13.6453   18.6341 C   0  0  1  0  0  0  0  0  0  0  0  0
    8.1935  -14.4466   17.5479 C   0  0  0  0  0  0  0  0  0  0  0  0
    8.3475  -13.5483   19.8706 C   0  0  0  0  0  0  0  0  0  0  0  0
    8.3602  -14.8368   20.6641 C   0  0  2  0  0  0  0  0  0  0  0  0
    7.0204  -15.3909   20.6012 N   0  0  0  0  0  0  0  0  0  0  0  0
    8.7242  -14.6350   22.0685 C   0  0  0  0  0  0  0  0  0  0  0  0
    9.9434  -14.4804   22.4212 O   0  0  0  0  0  0  0  0  0  0  0  0
    5.9998  -12.7235   27.2902 C   0  0  0  0  0  0  0  0  0  0  0  0
    7.2423  -13.3969   26.6587 C   0  0  2  0  0  0  0  0  0  0  0  0
    8.4026  -12.5299   26.9796 C   0  0  0  0  0  0  0  0  0  0  0  0
    6.9818  -13.6806   25.2136 C   0  0  0  0  0  0  0  0  0  0  0  0
    8.0675  -14.4148   24.5128 C   0  0  2  0  0  0  0  0  0  0  0  0
    7.7842  -14.5935   23.1372 N   0  0  0  0  0  0  0  0  0  0  0  0
    8.4383  -15.6814   25.2040 C   0  0  0  0  0  0  0  0  0  0  0  0
    7.5058  -16.4771   25.4616 O   0  0  0  0  0  0  0  0  0  0  0  0
   11.8529  -19.1809   25.9137 C   0  0  0  0  0  0  0  0  0  0  0  0
   11.4183  -17.8162   25.4247 C   0  0  1  0  0  0  0  0  0  0  0  0
   11.2564  -17.9034   23.9235 C   0  0  0  0  0  0  0  0  0  0  0  0
   10.0935  -17.3859   26.0120 C   0  0  2  0  0  0  0  0  0  0  0  0
    9.7546  -16.0285   25.5775 N   0  0  0  0  0  0  0  0  0  0  0  0
   10.1210  -17.4441   27.4743 C   0  0  0  0  0  0  0  0  0  0  0  0
    9.7160  -18.5906   28.1278 O   0  0  0  0  0  0  0  0  0  0  0  0
   10.5100  -16.4594   28.1436 O   0  0  0  0  0  0  0  0  0  0  0  0
  2  3  1  6
  2  1  1  0
  4  2  1  0
  5  4  1  0
  5  6  1  1
  7  8  2  0
  7  5  1  0
 10  9  1  6
 10 12  1  0
 10 11  1  0
 13 12  1  1
 13 14  1  0
 14  7  1  0
 15 13  1  0
 15 16  2  0
 18 17  1  1
 19 18  1  0
 20 18  1  0
 20 21  1  1
 21 15  1  0
 22 20  1  0
 23 22  1  0
 24 22  2  0
M  END
$$$$
