LLV.pdb
     RDKit          3D

 24 23  0  0  1  0  0  0  0  0999 V2000
    7.9851  -11.8104   18.9628 C   0  0  0  0  0  0  0  0  0  0  0  0
    7.7549  -13.2319   19.4376 C   0  0  1  0  0  0  0  0  0  0  0  0
    8.3801  -14.1504   18.4098 C   0  0  0  0  0  0  0  0  0  0  0  0
    8.3882  -13.3881   20.7856 C   0  0  0  0  0  0  0  0  0  0  0  0
    8.2311  -14.7874   21.3402 C   0  0  2  0  0  0  0  0  0  0  0  0
    6.8112  -15.0867   21.3496 N   0  0  0  0  0  0  0  0  0  0  0  0
    8.7525  -14.9196   22.7027 C   0  0  0  0  0  0  0  0  0  0  0  0
   10.0102  -14.9317   22.9325 O   0  0  0  0  0  0  0  0  0  0  0  0
    8.3826  -12.2824   26.4527 C   0  0  0  0  0  0  0  0  0  0  0  0
    7.1302  -13.0647   25.9880 C   0  0  2  0  0  0  0  0  0  0  0  0
    5.9749  -12.4852   26.7161 C   0  0  0  0  0  0  0  0  0  0  0  0
    7.3672  -14.5331   26.1429 C   0  0  0  0  0  0  0  0  0  0  0  0
    8.3675  -15.1093   25.2067 C   0  0  2  0  0  0  0  0  0  0  0  0
    7.9334  -15.0432   23.8608 N   0  0  0  0  0  0  0  0  0  0  0  0
    8.8107  -16.4724   25.6132 C   0  0  0  0  0  0  0  0  0  0  0  0
    7.9586  -17.3877   25.5393 O   0  0  0  0  0  0  0  0  0  0  0  0
   12.3745  -19.8384   25.9968 C   0  0  0  0  0  0  0  0  0  0  0  0
   11.9177  -18.4102   25.7916 C   0  0  1  0  0  0  0  0  0  0  0  0
   11.9070  -18.1477   24.3021 C   0  0  0  0  0  0  0  0  0  0  0  0
   10.5213  -18.1682   26.3174 C   0  0  2  0  0  0  0  0  0  0  0  0
   10.1102  -16.7844   26.0676 N   0  0  0  0  0  0  0  0  0  0  0  0
   10.4397  -18.4569   27.7500 C   0  0  0  0  0  0  0  0  0  0  0  0
   10.2027  -19.7461   28.1826 O   0  0  0  0  0  0  0  0  0  0  0  0
   10.5832  -17.5418   28.5932 O   0  0  0  0  0  0  0  0  0  0  0  0
  2  3  1  6
  2  1  1  0
  4  2  1  0
  5  4  1  0
  5  6  1  1
  7  8  2  0
  7  5  1  0
 10  9  1  1
 10 12  1  0
 10 11  1  0
 13 12  1  1
 13 14  1  0
 14  7  1  0
 15 13  1  0
 15 16  2  0
 18 17  1  6
 19 18  1  0
 20 18  1  0
 20 21  1  1
 21 15  1  0
 22 20  1  0
 23 22  1  0
 24 22  2  0
M  END
$$$$
