LLV.pdb
     RDKit          3D

 24 23  0  0  1  0  0  0  0  0999 V2000
    8.2073  -22.0450   23.6709 C   0  0  0  0  0  0  0  0  0  0  0  0
    7.1172  -20.9982   23.7928 C   0  0  1  0  0  0  0  0  0  0  0  0
    6.3103  -21.3387   25.0273 C   0  0  0  0  0  0  0  0  0  0  0  0
    7.7645  -19.6524   23.9017 C   0  0  0  0  0  0  0  0  0  0  0  0
    7.0323  -18.5920   23.1081 C   0  0  2  0  0  0  0  0  0  0  0  0
    7.2138  -18.9078   21.7034 N   0  0  0  0  0  0  0  0  0  0  0  0
    7.5415  -17.2419   23.3601 C   0  0  0  0  0  0  0  0  0  0  0  0
    8.5997  -16.8146   22.7835 O   0  0  0  0  0  0  0  0  0  0  0  0
    5.7988  -12.2013   26.6457 C   0  0  0  0  0  0  0  0  0  0  0  0
    6.9500  -12.9545   25.9360 C   0  0  2  0  0  0  0  0  0  0  0  0
    7.5514  -11.9986   24.9739 C   0  0  0  0  0  0  0  0  0  0  0  0
    6.4411  -14.2481   25.3845 C   0  0  0  0  0  0  0  0  0  0  0  0
    7.4574  -15.0729   24.6802 C   0  0  2  0  0  0  0  0  0  0  0  0
    6.9252  -16.3096   24.2423 N   0  0  0  0  0  0  0  0  0  0  0  0
    8.7153  -15.2211   25.4646 C   0  0  0  0  0  0  0  0  0  0  0  0
    9.7573  -14.7499   24.9534 O   0  0  0  0  0  0  0  0  0  0  0  0
   11.0443  -14.8857   29.6355 C   0  0  0  0  0  0  0  0  0  0  0  0
    9.8494  -14.8721   28.7068 C   0  0  1  0  0  0  0  0  0  0  0  0
    9.7050  -13.4636   28.1750 C   0  0  0  0  0  0  0  0  0  0  0  0
   10.0233  -15.8003   27.5264 C   0  0  2  0  0  0  0  0  0  0  0  0
    8.7975  -15.8497   26.7258 N   0  0  0  0  0  0  0  0  0  0  0  0
   10.3817  -17.1499   27.9650 C   0  0  0  0  0  0  0  0  0  0  0  0
   11.6147  -17.3851   28.5394 O   0  0  0  0  0  0  0  0  0  0  0  0
    9.5776  -18.0999   27.8240 O   0  0  0  0  0  0  0  0  0  0  0  0
  2  3  1  1
  2  1  1  0
  4  2  1  0
  5  4  1  0
  5  6  1  6
  7  8  2  0
  7  5  1  0
 10  9  1  6
 10 12  1  0
 10 11  1  0
 13 12  1  1
 13 14  1  0
 14  7  1  0
 15 13  1  0
 15 16  2  0
 18 17  1  1
 19 18  1  0
 20 18  1  0
 20 21  1  1
 21 15  1  0
 22 20  1  0
 23 22  1  0
 24 22  2  0
M  END
$$$$
