LLV.pdb
     RDKit          3D

 24 23  0  0  1  0  0  0  0  0999 V2000
    6.7900  -19.2720   19.2341 C   0  0  0  0  0  0  0  0  0  0  0  0
    6.9342  -17.7701   19.0838 C   0  0  1  0  0  0  0  0  0  0  0  0
    5.5414  -17.2060   18.9024 C   0  0  0  0  0  0  0  0  0  0  0  0
    7.5987  -17.2338   20.3139 C   0  0  0  0  0  0  0  0  0  0  0  0
    7.6566  -15.7216   20.3279 C   0  0  2  0  0  0  0  0  0  0  0  0
    8.5210  -15.3167   19.2349 N   0  0  0  0  0  0  0  0  0  0  0  0
    8.1940  -15.1859   21.5808 C   0  0  0  0  0  0  0  0  0  0  0  0
    9.4543  -15.1130   21.7836 O   0  0  0  0  0  0  0  0  0  0  0  0
    7.5633  -13.7472   26.8443 C   0  0  0  0  0  0  0  0  0  0  0  0
    7.2614  -12.6497   25.7952 C   0  0  2  0  0  0  0  0  0  0  0  0
    6.3120  -11.7047   26.4326 C   0  0  0  0  0  0  0  0  0  0  0  0
    6.8329  -13.2847   24.5108 C   0  0  0  0  0  0  0  0  0  0  0  0
    7.8408  -14.1819   23.8877 C   0  0  2  0  0  0  0  0  0  0  0  0
    7.3887  -14.7116   22.6550 N   0  0  0  0  0  0  0  0  0  0  0  0
    8.3342  -15.2264   24.8285 C   0  0  0  0  0  0  0  0  0  0  0  0
    7.4737  -15.9882   25.3270 O   0  0  0  0  0  0  0  0  0  0  0  0
   12.1126  -18.2996   25.6151 C   0  0  0  0  0  0  0  0  0  0  0  0
   11.5144  -17.0271   25.0552 C   0  0  1  0  0  0  0  0  0  0  0  0
   11.2807  -17.2486   23.5774 C   0  0  0  0  0  0  0  0  0  0  0  0
   10.1865  -16.6837   25.6906 C   0  0  2  0  0  0  0  0  0  0  0  0
    9.6892  -15.4026   25.1827 N   0  0  0  0  0  0  0  0  0  0  0  0
   10.2984  -16.6271   27.1489 C   0  0  0  0  0  0  0  0  0  0  0  0
   10.0821  -17.7628   27.9030 O   0  0  0  0  0  0  0  0  0  0  0  0
   10.5900  -15.5532   27.7239 O   0  0  0  0  0  0  0  0  0  0  0  0
  2  3  1  1
  2  1  1  0
  4  2  1  0
  5  4  1  0
  5  6  1  6
  7  8  2  0
  7  5  1  0
 10  9  1  1
 10 12  1  0
 10 11  1  0
 13 12  1  1
 13 14  1  0
 14  7  1  0
 15 13  1  0
 15 16  2  0
 18 17  1  1
 19 18  1  0
 20 18  1  0
 20 21  1  6
 21 15  1  0
 22 20  1  0
 23 22  1  0
 24 22  2  0
M  END
$$$$
