LLV.pdb
     RDKit          3D

 24 23  0  0  1  0  0  0  0  0999 V2000
    8.5680  -19.6669   21.9576 C   0  0  0  0  0  0  0  0  0  0  0  0
    9.7171  -18.8097   22.4512 C   0  0  1  0  0  0  0  0  0  0  0  0
   10.7740  -19.7504   22.9889 C   0  0  0  0  0  0  0  0  0  0  0  0
   10.2262  -17.9950   21.3025 C   0  0  0  0  0  0  0  0  0  0  0  0
    9.4466  -16.7119   21.1125 C   0  0  2  0  0  0  0  0  0  0  0  0
   10.0395  -16.0140   19.9869 N   0  0  0  0  0  0  0  0  0  0  0  0
    9.4931  -15.8401   22.2887 C   0  0  0  0  0  0  0  0  0  0  0  0
   10.5620  -15.2155   22.6085 O   0  0  0  0  0  0  0  0  0  0  0  0
    5.4683  -12.9609   26.0501 C   0  0  0  0  0  0  0  0  0  0  0  0
    6.9458  -13.2359   25.6790 C   0  0  2  0  0  0  0  0  0  0  0  0
    7.5664  -11.9164   25.4062 C   0  0  0  0  0  0  0  0  0  0  0  0
    7.0097  -14.2582   24.5893 C   0  0  0  0  0  0  0  0  0  0  0  0
    8.3672  -14.7966   24.3130 C   0  0  2  0  0  0  0  0  0  0  0  0
    8.3878  -15.6143   23.1574 N   0  0  0  0  0  0  0  0  0  0  0  0
    8.9750  -15.4514   25.5051 C   0  0  0  0  0  0  0  0  0  0  0  0
    9.0446  -16.7020   25.4874 O   0  0  0  0  0  0  0  0  0  0  0  0
   11.3266  -15.2123   29.9162 C   0  0  0  0  0  0  0  0  0  0  0  0
   10.4381  -14.5758   28.8694 C   0  0  1  0  0  0  0  0  0  0  0  0
   11.0545  -13.2447   28.5007 C   0  0  0  0  0  0  0  0  0  0  0  0
   10.3389  -15.4078   27.6112 C   0  0  2  0  0  0  0  0  0  0  0  0
    9.4669  -14.7561   26.6309 N   0  0  0  0  0  0  0  0  0  0  0  0
    9.8354  -16.7504   27.9049 C   0  0  0  0  0  0  0  0  0  0  0  0
    8.4776  -16.9983   27.8869 O   0  0  0  0  0  0  0  0  0  0  0  0
   10.6273  -17.6827   28.1743 O   0  0  0  0  0  0  0  0  0  0  0  0
  2  3  1  6
  2  1  1  0
  4  2  1  0
  5  4  1  0
  5  6  1  6
  7  8  2  0
  7  5  1  0
 10  9  1  6
 10 12  1  0
 10 11  1  0
 13 12  1  1
 13 14  1  0
 14  7  1  0
 15 13  1  0
 15 16  2  0
 18 17  1  1
 19 18  1  0
 20 18  1  0
 20 21  1  6
 21 15  1  0
 22 20  1  0
 23 22  1  0
 24 22  2  0
M  END
$$$$
