LLV.pdb
     RDKit          3D

 24 23  0  0  1  0  0  0  0  0999 V2000
    9.6147  -19.8455   19.4694 C   0  0  0  0  0  0  0  0  0  0  0  0
    9.8275  -19.5551   20.9422 C   0  0  1  0  0  0  0  0  0  0  0  0
   10.8459  -20.5535   21.4494 C   0  0  0  0  0  0  0  0  0  0  0  0
   10.3108  -18.1446   21.0807 C   0  0  0  0  0  0  0  0  0  0  0  0
    9.1741  -17.1487   21.1624 C   0  0  2  0  0  0  0  0  0  0  0  0
    9.1104  -16.4666   19.8833 N   0  0  0  0  0  0  0  0  0  0  0  0
    9.3658  -16.1544   22.2209 C   0  0  0  0  0  0  0  0  0  0  0  0
   10.4175  -15.4287   22.2655 O   0  0  0  0  0  0  0  0  0  0  0  0
    5.8478  -13.3576   26.5409 C   0  0  0  0  0  0  0  0  0  0  0  0
    7.2286  -13.4627   25.8491 C   0  0  2  0  0  0  0  0  0  0  0  0
    7.5566  -12.1046   25.3504 C   0  0  0  0  0  0  0  0  0  0  0  0
    7.2061  -14.5711   24.8453 C   0  0  0  0  0  0  0  0  0  0  0  0
    8.5350  -14.9472   24.2962 C   0  0  2  0  0  0  0  0  0  0  0  0
    8.4287  -15.9115   23.2650 N   0  0  0  0  0  0  0  0  0  0  0  0
    9.5042  -15.3316   25.3603 C   0  0  0  0  0  0  0  0  0  0  0  0
   10.6057  -15.7915   24.9804 O   0  0  0  0  0  0  0  0  0  0  0  0
   11.1002  -14.8046   30.0429 C   0  0  0  0  0  0  0  0  0  0  0  0
   10.1052  -14.5293   28.9363 C   0  0  1  0  0  0  0  0  0  0  0  0
   10.3024  -13.0957   28.4963 C   0  0  0  0  0  0  0  0  0  0  0  0
   10.3171  -15.4193   27.7329 C   0  0  2  0  0  0  0  0  0  0  0  0
    9.2563  -15.2094   26.7446 N   0  0  0  0  0  0  0  0  0  0  0  0
   10.3586  -16.8299   28.1210 C   0  0  0  0  0  0  0  0  0  0  0  0
    9.3275  -17.6754   27.7639 O   0  0  0  0  0  0  0  0  0  0  0  0
   11.3249  -17.2816   28.7776 O   0  0  0  0  0  0  0  0  0  0  0  0
  2  3  1  6
  2  1  1  0
  4  2  1  0
  5  4  1  0
  5  6  1  6
  7  8  2  0
  7  5  1  0
 10  9  1  6
 10 12  1  0
 10 11  1  0
 13 12  1  1
 13 14  1  0
 14  7  1  0
 15 13  1  0
 15 16  2  0
 18 17  1  1
 19 18  1  0
 20 18  1  0
 20 21  1  6
 21 15  1  0
 22 20  1  0
 23 22  1  0
 24 22  2  0
M  END
$$$$
