LLV.pdb
     RDKit          3D

 24 23  0  0  1  0  0  0  0  0999 V2000
    7.5842  -11.8907   19.0109 C   0  0  0  0  0  0  0  0  0  0  0  0
    7.5535  -13.3228   19.5082 C   0  0  1  0  0  0  0  0  0  0  0  0
    8.1977  -14.1785   18.4387 C   0  0  0  0  0  0  0  0  0  0  0  0
    8.3022  -13.3892   20.8034 C   0  0  0  0  0  0  0  0  0  0  0  0
    8.3190  -14.7836   21.3914 C   0  0  2  0  0  0  0  0  0  0  0  0
    6.9650  -15.2989   21.3085 N   0  0  0  0  0  0  0  0  0  0  0  0
    8.7491  -14.8040   22.7914 C   0  0  0  0  0  0  0  0  0  0  0  0
    9.9772  -14.6450   23.1096 O   0  0  0  0  0  0  0  0  0  0  0  0
    7.9646  -12.2038   26.5112 C   0  0  0  0  0  0  0  0  0  0  0  0
    6.7594  -13.0276   25.9963 C   0  0  2  0  0  0  0  0  0  0  0  0
    5.5656  -12.5310   26.7234 C   0  0  0  0  0  0  0  0  0  0  0  0
    7.0647  -14.4877   26.1032 C   0  0  0  0  0  0  0  0  0  0  0  0
    8.2025  -14.9535   25.2680 C   0  0  2  0  0  0  0  0  0  0  0  0
    7.8677  -14.9967   23.8930 N   0  0  0  0  0  0  0  0  0  0  0  0
    8.7934  -16.2266   25.7674 C   0  0  0  0  0  0  0  0  0  0  0  0
    8.3158  -16.6922   26.8278 O   0  0  0  0  0  0  0  0  0  0  0  0
   11.6524  -20.2659   25.0520 C   0  0  0  0  0  0  0  0  0  0  0  0
   11.1540  -18.9155   24.5845 C   0  0  1  0  0  0  0  0  0  0  0  0
   10.2744  -19.1507   23.3768 C   0  0  0  0  0  0  0  0  0  0  0  0
   10.3259  -18.2094   25.6336 C   0  0  2  0  0  0  0  0  0  0  0  0
    9.8399  -16.9239   25.1261 N   0  0  0  0  0  0  0  0  0  0  0  0
   11.0971  -17.9969   26.8594 C   0  0  0  0  0  0  0  0  0  0  0  0
   10.9211  -18.8366   27.9407 O   0  0  0  0  0  0  0  0  0  0  0  0
   11.9200  -17.0559   26.9389 O   0  0  0  0  0  0  0  0  0  0  0  0
  2  3  1  6
  2  1  1  0
  4  2  1  0
  5  4  1  0
  5  6  1  1
  7  8  2  0
  7  5  1  0
 10  9  1  1
 10 12  1  0
 10 11  1  0
 13 12  1  1
 13 14  1  0
 14  7  1  0
 15 13  1  0
 15 16  2  0
 18 17  1  1
 19 18  1  0
 20 18  1  0
 20 21  1  6
 21 15  1  0
 22 20  1  0
 23 22  1  0
 24 22  2  0
M  END
$$$$
