LLV.pdb
     RDKit          3D

 24 23  0  0  1  0  0  0  0  0999 V2000
    6.0677  -18.4824   20.9073 C   0  0  0  0  0  0  0  0  0  0  0  0
    7.4325  -18.1305   21.4664 C   0  0  1  0  0  0  0  0  0  0  0  0
    8.0870  -19.4278   21.8903 C   0  0  0  0  0  0  0  0  0  0  0  0
    8.2153  -17.4328   20.3975 C   0  0  0  0  0  0  0  0  0  0  0  0
    8.1753  -15.9267   20.5404 C   0  0  2  0  0  0  0  0  0  0  0  0
    9.0969  -15.3797   19.5620 N   0  0  0  0  0  0  0  0  0  0  0  0
    8.5752  -15.4723   21.8743 C   0  0  0  0  0  0  0  0  0  0  0  0
    9.8056  -15.4349   22.2201 O   0  0  0  0  0  0  0  0  0  0  0  0
    5.8941  -12.5067   26.6669 C   0  0  0  0  0  0  0  0  0  0  0  0
    7.1806  -13.1371   26.0804 C   0  0  2  0  0  0  0  0  0  0  0  0
    8.2247  -12.0841   26.1217 C   0  0  0  0  0  0  0  0  0  0  0  0
    6.8803  -13.7481   24.7488 C   0  0  0  0  0  0  0  0  0  0  0  0
    7.9794  -14.5651   24.1713 C   0  0  2  0  0  0  0  0  0  0  0  0
    7.6603  -15.0439   22.8777 N   0  0  0  0  0  0  0  0  0  0  0  0
    8.4392  -15.6385   25.0964 C   0  0  0  0  0  0  0  0  0  0  0  0
    7.5754  -16.4607   25.4799 O   0  0  0  0  0  0  0  0  0  0  0  0
   12.2608  -18.5848   26.1422 C   0  0  0  0  0  0  0  0  0  0  0  0
   11.6422  -17.3494   25.5243 C   0  0  1  0  0  0  0  0  0  0  0  0
   11.5058  -17.6054   24.0399 C   0  0  0  0  0  0  0  0  0  0  0  0
   10.2656  -17.0545   26.0747 C   0  0  2  0  0  0  0  0  0  0  0  0
    9.7666  -15.7786   25.5559 N   0  0  0  0  0  0  0  0  0  0  0  0
   10.2785  -17.0217   27.5379 C   0  0  0  0  0  0  0  0  0  0  0  0
   10.3577  -15.8138   28.2013 O   0  0  0  0  0  0  0  0  0  0  0  0
   10.2182  -18.0838   28.1992 O   0  0  0  0  0  0  0  0  0  0  0  0
  2  3  1  6
  2  1  1  0
  4  2  1  0
  5  4  1  0
  5  6  1  6
  7  8  2  0
  7  5  1  0
 10  9  1  6
 10 12  1  0
 10 11  1  0
 13 12  1  1
 13 14  1  0
 14  7  1  0
 15 13  1  0
 15 16  2  0
 18 17  1  1
 19 18  1  0
 20 18  1  0
 20 21  1  6
 21 15  1  0
 22 20  1  0
 23 22  1  0
 24 22  2  0
M  END
$$$$
