LLV.pdb
     RDKit          3D

 24 23  0  0  1  0  0  0  0  0999 V2000
    1.9662  -19.5188   22.3352 C   0  0  0  0  0  0  0  0  0  0  0  0
    2.9499  -19.1848   21.2308 C   0  0  1  0  0  0  0  0  0  0  0  0
    2.2985  -18.1333   20.3585 C   0  0  0  0  0  0  0  0  0  0  0  0
    4.2140  -18.6851   21.8591 C   0  0  0  0  0  0  0  0  0  0  0  0
    5.2153  -18.1960   20.8352 C   0  0  2  0  0  0  0  0  0  0  0  0
    5.5811  -19.3365   20.0161 N   0  0  0  0  0  0  0  0  0  0  0  0
    6.4265  -17.6425   21.4453 C   0  0  0  0  0  0  0  0  0  0  0  0
    7.4097  -18.3943   21.7661 O   0  0  0  0  0  0  0  0  0  0  0  0
    9.1235  -14.0878   20.2617 C   0  0  0  0  0  0  0  0  0  0  0  0
    7.7687  -13.6966   20.9002 C   0  0  2  0  0  0  0  0  0  0  0  0
    7.6103  -12.2359   20.6953 C   0  0  0  0  0  0  0  0  0  0  0  0
    7.7117  -14.1980   22.3080 C   0  0  0  0  0  0  0  0  0  0  0  0
    7.6881  -15.6776   22.4464 C   0  0  2  0  0  0  0  0  0  0  0  0
    6.6155  -16.2600   21.7289 N   0  0  0  0  0  0  0  0  0  0  0  0
    7.7501  -16.1189   23.8680 C   0  0  0  0  0  0  0  0  0  0  0  0
    6.8580  -15.6845   24.6327 O   0  0  0  0  0  0  0  0  0  0  0  0
    8.3840  -19.4501   27.2619 C   0  0  0  0  0  0  0  0  0  0  0  0
    8.3996  -18.9212   25.8440 C   0  0  1  0  0  0  0  0  0  0  0  0
    7.0227  -19.1483   25.2607 C   0  0  0  0  0  0  0  0  0  0  0  0
    8.6932  -17.4396   25.7822 C   0  0  2  0  0  0  0  0  0  0  0  0
    8.7374  -16.9814   24.3914 N   0  0  0  0  0  0  0  0  0  0  0  0
    9.9587  -17.1245   26.4466 C   0  0  0  0  0  0  0  0  0  0  0  0
   10.0460  -17.1692   27.8235 O   0  0  0  0  0  0  0  0  0  0  0  0
   10.9696  -16.8127   25.7760 O   0  0  0  0  0  0  0  0  0  0  0  0
  2  3  1  6
  2  1  1  0
  4  2  1  0
  5  4  1  0
  5  6  1  6
  7  8  2  0
  7  5  1  0
 10  9  1  1
 10 12  1  0
 10 11  1  0
 13 12  1  1
 13 14  1  0
 14  7  1  0
 15 13  1  0
 15 16  2  0
 18 17  1  1
 19 18  1  0
 20 18  1  0
 20 21  1  6
 21 15  1  0
 22 20  1  0
 23 22  1  0
 24 22  2  0
M  END
$$$$
