LLV.pdb
     RDKit          3D

 24 23  0  0  1  0  0  0  0  0999 V2000
    5.7325  -16.1539   20.5270 C   0  0  0  0  0  0  0  0  0  0  0  0
    7.2305  -16.2652   20.3204 C   0  0  1  0  0  0  0  0  0  0  0  0
    7.4629  -17.4156   19.3646 C   0  0  0  0  0  0  0  0  0  0  0  0
    7.7284  -14.9671   19.7643 C   0  0  0  0  0  0  0  0  0  0  0  0
    7.4796  -13.8034   20.6993 C   0  0  2  0  0  0  0  0  0  0  0  0
    8.0229  -12.6186   20.0614 N   0  0  0  0  0  0  0  0  0  0  0  0
    8.1225  -13.9763   22.0041 C   0  0  0  0  0  0  0  0  0  0  0  0
    9.3958  -14.0070   22.1164 O   0  0  0  0  0  0  0  0  0  0  0  0
    8.1698  -11.6627   26.0205 C   0  0  0  0  0  0  0  0  0  0  0  0
    6.8430  -12.3654   25.6434 C   0  0  2  0  0  0  0  0  0  0  0  0
    5.8141  -11.8603   26.5852 C   0  0  0  0  0  0  0  0  0  0  0  0
    7.0534  -13.8451   25.5924 C   0  0  0  0  0  0  0  0  0  0  0  0
    7.9676  -14.3121   24.5176 C   0  0  2  0  0  0  0  0  0  0  0  0
    7.4119  -14.1215   23.2294 N   0  0  0  0  0  0  0  0  0  0  0  0
    8.4545  -15.7014   24.7461 C   0  0  0  0  0  0  0  0  0  0  0  0
    7.6130  -16.6212   24.6228 O   0  0  0  0  0  0  0  0  0  0  0  0
   12.0283  -19.0845   24.7554 C   0  0  0  0  0  0  0  0  0  0  0  0
   11.5326  -17.6659   24.5753 C   0  0  1  0  0  0  0  0  0  0  0  0
   11.3441  -17.4369   23.0922 C   0  0  0  0  0  0  0  0  0  0  0  0
   10.2046  -17.4260   25.2563 C   0  0  2  0  0  0  0  0  0  0  0  0
    9.7836  -16.0331   25.0867 N   0  0  0  0  0  0  0  0  0  0  0  0
   10.2766  -17.7503   26.6818 C   0  0  0  0  0  0  0  0  0  0  0  0
   10.2263  -19.0666   27.0943 O   0  0  0  0  0  0  0  0  0  0  0  0
   10.3839  -16.8414   27.5370 O   0  0  0  0  0  0  0  0  0  0  0  0
  2  3  1  6
  2  1  1  0
  4  2  1  0
  5  4  1  0
  5  6  1  6
  7  8  2  0
  7  5  1  0
 10  9  1  1
 10 12  1  0
 10 11  1  0
 13 12  1  1
 13 14  1  0
 14  7  1  0
 15 13  1  0
 15 16  2  0
 18 17  1  6
 19 18  1  0
 20 18  1  0
 20 21  1  1
 21 15  1  0
 22 20  1  0
 23 22  1  0
 24 22  2  0
M  END
$$$$
