LLV.pdb
     RDKit          3D

 24 23  0  0  1  0  0  0  0  0999 V2000
    7.1821  -12.2375   19.2906 C   0  0  0  0  0  0  0  0  0  0  0  0
    7.4725  -13.6640   19.7143 C   0  0  1  0  0  0  0  0  0  0  0  0
    8.3935  -14.2588   18.6708 C   0  0  0  0  0  0  0  0  0  0  0  0
    8.1086  -13.6341   21.0696 C   0  0  0  0  0  0  0  0  0  0  0  0
    8.4278  -15.0190   21.5899 C   0  0  2  0  0  0  0  0  0  0  0  0
    7.1625  -15.6847   21.8378 N   0  0  0  0  0  0  0  0  0  0  0  0
    9.2018  -14.9936   22.8332 C   0  0  0  0  0  0  0  0  0  0  0  0
   10.4370  -14.6632   22.8381 O   0  0  0  0  0  0  0  0  0  0  0  0
    8.4129  -13.8920   28.7816 C   0  0  0  0  0  0  0  0  0  0  0  0
    9.3489  -14.5062   27.7124 C   0  0  2  0  0  0  0  0  0  0  0  0
   10.5712  -13.6659   27.6869 C   0  0  0  0  0  0  0  0  0  0  0  0
    8.6053  -14.6679   26.4250 C   0  0  0  0  0  0  0  0  0  0  0  0
    9.3641  -15.3489   25.3436 C   0  0  2  0  0  0  0  0  0  0  0  0
    8.6678  -15.3241   24.1111 N   0  0  0  0  0  0  0  0  0  0  0  0
    9.8144  -16.7140   25.7348 C   0  0  0  0  0  0  0  0  0  0  0  0
    8.9194  -17.5672   25.9353 O   0  0  0  0  0  0  0  0  0  0  0  0
   13.3117  -20.2176   25.5939 C   0  0  0  0  0  0  0  0  0  0  0  0
   12.8505  -18.7921   25.3800 C   0  0  1  0  0  0  0  0  0  0  0  0
   12.6266  -18.6064   23.8958 C   0  0  0  0  0  0  0  0  0  0  0  0
   11.5494  -18.4924   26.0886 C   0  0  2  0  0  0  0  0  0  0  0  0
   11.1655  -17.0927   25.8892 N   0  0  0  0  0  0  0  0  0  0  0  0
   11.6507  -18.7777   27.5206 C   0  0  0  0  0  0  0  0  0  0  0  0
   12.2529  -17.8673   28.3656 O   0  0  0  0  0  0  0  0  0  0  0  0
   11.1946  -19.8452   27.9911 O   0  0  0  0  0  0  0  0  0  0  0  0
  2  3  1  6
  2  1  1  0
  4  2  1  0
  5  4  1  0
  5  6  1  1
  7  8  2  0
  7  5  1  0
 10  9  1  1
 10 12  1  0
 10 11  1  0
 13 12  1  1
 13 14  1  0
 14  7  1  0
 15 13  1  0
 15 16  2  0
 18 17  1  6
 19 18  1  0
 20 18  1  0
 20 21  1  1
 21 15  1  0
 22 20  1  0
 23 22  1  0
 24 22  2  0
M  END
$$$$
