EDG.pdb
     RDKit          3D

 22 21  0  0  1  0  0  0  0  0999 V2000
    7.4682  -18.5737   20.3341 N   0  0  0  0  0  0  0  0  0  0  0  0
    7.7095  -19.4328   21.4637 C   0  0  1  0  0  0  0  0  0  0  0  0
    9.1839  -19.7080   21.5084 C   0  0  0  0  0  0  0  0  0  0  0  0
    9.8910  -18.9237   20.4252 C   0  0  0  0  0  0  0  0  0  0  0  0
   11.3372  -19.2559   20.3694 C   0  0  0  0  0  0  0  0  0  0  0  0
   11.8970  -20.0458   21.1481 O   0  0  0  0  0  0  0  0  0  0  0  0
    7.2112  -18.8411   22.7333 C   0  0  0  0  0  0  0  0  0  0  0  0
    6.7992  -17.6371   22.7421 O   0  0  0  0  0  0  0  0  0  0  0  0
   12.1014  -18.6466   19.3917 O   0  0  0  0  0  0  0  0  0  0  0  0
    7.1636  -19.5357   23.9506 N   0  0  0  0  0  0  0  0  0  0  0  0
    6.5925  -18.9093   25.2028 C   0  0  1  0  0  0  0  0  0  0  0  0
    5.7304  -19.9890   25.7600 C   0  0  0  0  0  0  0  0  0  0  0  0
    6.3763  -21.1282   26.3635 C   0  0  0  0  0  0  0  0  0  0  0  0
    7.4723  -21.5791   26.0722 O   0  0  0  0  0  0  0  0  0  0  0  0
    7.7083  -18.4407   26.0086 C   0  0  0  0  0  0  0  0  0  0  0  0
    7.4211  -17.7495   27.0587 O   0  0  0  0  0  0  0  0  0  0  0  0
    5.6693  -21.7937   27.4013 O   0  0  0  0  0  0  0  0  0  0  0  0
    9.0747  -18.6623   25.7754 N   0  0  0  0  0  0  0  0  0  0  0  0
   10.1120  -18.1613   26.6794 C   0  0  0  0  0  0  0  0  0  0  0  0
   10.5547  -19.2843   27.5420 C   0  0  0  0  0  0  0  0  0  0  0  0
   10.0690  -20.4432   27.4155 O   0  0  0  0  0  0  0  0  0  0  0  0
   11.5141  -19.1212   28.5210 O   0  0  0  0  0  0  0  0  0  0  0  0
  2  1  1  6
  2  7  1  0
  3  2  1  0
  4  3  1  0
  5  4  1  0
  5  6  2  0
  7  8  2  0
  9  5  1  0
 10  7  1  0
 10 11  1  0
 11 15  1  0
 12 13  1  0
 11 12  1  1
 13 14  2  0
 13 17  1  0
 15 18  1  0
 15 16  2  0
 18 19  1  0
 19 20  1  0
 20 22  1  0
 21 20  2  0
M  END
$$$$
