EDG.pdb
     RDKit          3D

 22 21  0  0  1  0  0  0  0  0999 V2000
   10.8239  -18.5757   17.6501 N   0  0  0  0  0  0  0  0  0  0  0  0
   11.4071  -19.5249   18.5618 C   0  0  1  0  0  0  0  0  0  0  0  0
   12.8817  -19.2509   18.6086 C   0  0  0  0  0  0  0  0  0  0  0  0
   13.4123  -19.0266   17.2098 C   0  0  0  0  0  0  0  0  0  0  0  0
   14.8689  -18.7388   17.2206 C   0  0  0  0  0  0  0  0  0  0  0  0
   15.4568  -18.1071   16.3266 O   0  0  0  0  0  0  0  0  0  0  0  0
   10.7827  -19.4630   19.9095 C   0  0  0  0  0  0  0  0  0  0  0  0
   10.1542  -18.4132   20.2593 O   0  0  0  0  0  0  0  0  0  0  0  0
   15.6102  -19.2041   18.2907 O   0  0  0  0  0  0  0  0  0  0  0  0
   10.8407  -20.5073   20.8437 N   0  0  0  0  0  0  0  0  0  0  0  0
   10.1720  -20.4038   22.1960 C   0  0  1  0  0  0  0  0  0  0  0  0
    9.3691  -21.6562   22.2747 C   0  0  0  0  0  0  0  0  0  0  0  0
    8.5705  -21.8761   23.4550 C   0  0  0  0  0  0  0  0  0  0  0  0
    8.4450  -21.1122   24.3984 O   0  0  0  0  0  0  0  0  0  0  0  0
   11.2147  -20.1963   23.1877 C   0  0  0  0  0  0  0  0  0  0  0  0
   12.2910  -20.8948   23.0588 O   0  0  0  0  0  0  0  0  0  0  0  0
    7.8571  -23.1030   23.5298 O   0  0  0  0  0  0  0  0  0  0  0  0
   11.1859  -19.3098   24.2757 N   0  0  0  0  0  0  0  0  0  0  0  0
   12.3348  -19.1283   25.1653 C   0  0  0  0  0  0  0  0  0  0  0  0
   12.1398  -19.9941   26.3542 C   0  0  0  0  0  0  0  0  0  0  0  0
   11.2133  -20.8512   26.4001 O   0  0  0  0  0  0  0  0  0  0  0  0
   12.9557  -19.9080   27.4643 O   0  0  0  0  0  0  0  0  0  0  0  0
  2  1  1  6
  2  7  1  0
  3  2  1  0
  4  3  1  0
  5  4  1  0
  5  6  2  0
  7  8  2  0
  9  5  1  0
 10  7  1  0
 10 11  1  0
 11 15  1  0
 12 13  1  0
 11 12  1  1
 13 14  2  0
 13 17  1  0
 15 18  1  0
 15 16  2  0
 18 19  1  0
 19 20  1  0
 20 22  1  0
 21 20  2  0
M  END
$$$$
