EDG.pdb
     RDKit          3D

 22 21  0  0  1  0  0  0  0  0999 V2000
   11.4501  -16.0695   18.8016 N   0  0  0  0  0  0  0  0  0  0  0  0
   12.3406  -16.5448   19.8280 C   0  0  1  0  0  0  0  0  0  0  0  0
   13.2883  -15.4267   20.1497 C   0  0  0  0  0  0  0  0  0  0  0  0
   13.9589  -14.9354   18.8858 C   0  0  0  0  0  0  0  0  0  0  0  0
   14.9983  -13.9174   19.1824 C   0  0  0  0  0  0  0  0  0  0  0  0
   15.0331  -12.7904   18.6604 O   0  0  0  0  0  0  0  0  0  0  0  0
   11.6063  -17.0202   21.0300 C   0  0  0  0  0  0  0  0  0  0  0  0
   10.6583  -16.3149   21.5025 O   0  0  0  0  0  0  0  0  0  0  0  0
   15.9838  -14.2488   20.0936 O   0  0  0  0  0  0  0  0  0  0  0  0
   11.8942  -18.2211   21.6945 N   0  0  0  0  0  0  0  0  0  0  0  0
   11.1512  -18.6375   22.9440 C   0  0  1  0  0  0  0  0  0  0  0  0
   10.6476  -19.9973   22.6025 C   0  0  0  0  0  0  0  0  0  0  0  0
    9.2229  -20.2181   22.6267 C   0  0  0  0  0  0  0  0  0  0  0  0
    8.3699  -19.4132   22.9640 O   0  0  0  0  0  0  0  0  0  0  0  0
   12.0687  -18.5095   24.0646 C   0  0  0  0  0  0  0  0  0  0  0  0
   13.2439  -18.0449   23.8076 O   0  0  0  0  0  0  0  0  0  0  0  0
    8.7632  -21.4990   22.2171 O   0  0  0  0  0  0  0  0  0  0  0  0
   11.8168  -18.8307   25.4077 N   0  0  0  0  0  0  0  0  0  0  0  0
   12.8178  -18.6341   26.4582 C   0  0  0  0  0  0  0  0  0  0  0  0
   12.2897  -19.2198   27.7149 C   0  0  0  0  0  0  0  0  0  0  0  0
   11.1095  -19.6628   27.7901 O   0  0  0  0  0  0  0  0  0  0  0  0
   13.0563  -19.3099   28.8593 O   0  0  0  0  0  0  0  0  0  0  0  0
  2  1  1  6
  2  7  1  0
  3  2  1  0
  4  3  1  0
  5  4  1  0
  5  6  2  0
  7  8  2  0
  9  5  1  0
 10  7  1  0
 10 11  1  0
 11 15  1  0
 12 13  1  0
 11 12  1  6
 13 14  2  0
 13 17  1  0
 15 18  1  0
 15 16  2  0
 18 19  1  0
 19 20  1  0
 20 22  1  0
 21 20  2  0
M  END
$$$$
