EDG.pdb
     RDKit          3D

 22 21  0  0  1  0  0  0  0  0999 V2000
    9.1289  -13.1397   18.0140 N   0  0  0  0  0  0  0  0  0  0  0  0
    9.1093  -14.5718   17.8695 C   0  0  1  0  0  0  0  0  0  0  0  0
    8.9938  -14.8711   16.4036 C   0  0  0  0  0  0  0  0  0  0  0  0
    8.1412  -13.8214   15.7256 C   0  0  0  0  0  0  0  0  0  0  0  0
    7.9365  -14.1327   14.2883 C   0  0  0  0  0  0  0  0  0  0  0  0
    8.7506  -13.8458   13.3945 O   0  0  0  0  0  0  0  0  0  0  0  0
   10.3042  -15.2123   18.4796 C   0  0  0  0  0  0  0  0  0  0  0  0
   10.4226  -16.4788   18.4407 O   0  0  0  0  0  0  0  0  0  0  0  0
    6.7688  -14.7795   13.9287 O   0  0  0  0  0  0  0  0  0  0  0  0
   11.3338  -14.4991   19.1104 N   0  0  0  0  0  0  0  0  0  0  0  0
   12.5569  -15.1921   19.6674 C   0  0  1  0  0  0  0  0  0  0  0  0
   13.6634  -14.2551   19.3258 C   0  0  0  0  0  0  0  0  0  0  0  0
   14.3505  -14.4461   18.0725 C   0  0  0  0  0  0  0  0  0  0  0  0
   14.4512  -15.4925   17.4528 O   0  0  0  0  0  0  0  0  0  0  0  0
   12.3043  -15.4688   21.0723 C   0  0  0  0  0  0  0  0  0  0  0  0
   13.2995  -15.8967   21.7718 O   0  0  0  0  0  0  0  0  0  0  0  0
   14.9725  -13.3041   17.4991 O   0  0  0  0  0  0  0  0  0  0  0  0
   11.0912  -15.3159   21.7618 N   0  0  0  0  0  0  0  0  0  0  0  0
   10.9631  -15.6098   23.1906 C   0  0  0  0  0  0  0  0  0  0  0  0
    9.5668  -15.3183   23.5989 C   0  0  0  0  0  0  0  0  0  0  0  0
    9.1898  -15.4500   24.7970 O   0  0  0  0  0  0  0  0  0  0  0  0
    8.6141  -14.8909   22.6960 O   0  0  0  0  0  0  0  0  0  0  0  0
  2  1  1  6
  2  7  1  0
  3  2  1  0
  4  3  1  0
  5  4  1  0
  5  6  2  0
  7  8  2  0
  9  5  1  0
 10  7  1  0
 10 11  1  0
 11 15  1  0
 12 13  1  0
 11 12  1  1
 13 14  2  0
 13 17  1  0
 15 18  1  0
 15 16  2  0
 18 19  1  0
 19 20  1  0
 20 22  1  0
 21 20  2  0
M  END
$$$$
