EDG.pdb
     RDKit          3D

 22 21  0  0  1  0  0  0  0  0999 V2000
    6.2211  -20.4633   18.8451 N   0  0  0  0  0  0  0  0  0  0  0  0
    5.6441  -19.2115   19.2603 C   0  0  1  0  0  0  0  0  0  0  0  0
    5.1486  -18.5170   18.0258 C   0  0  0  0  0  0  0  0  0  0  0  0
    6.1987  -18.5798   16.9386 C   0  0  0  0  0  0  0  0  0  0  0  0
    6.1002  -19.8402   16.1599 C   0  0  0  0  0  0  0  0  0  0  0  0
    5.0487  -20.2558   15.6446 O   0  0  0  0  0  0  0  0  0  0  0  0
    4.5674  -19.3984   20.2683 C   0  0  0  0  0  0  0  0  0  0  0  0
    3.9987  -18.3773   20.7717 O   0  0  0  0  0  0  0  0  0  0  0  0
    7.2495  -20.5923   16.0025 O   0  0  0  0  0  0  0  0  0  0  0  0
    4.1257  -20.6529   20.7129 N   0  0  0  0  0  0  0  0  0  0  0  0
    3.0134  -20.7914   21.7279 C   0  0  1  0  0  0  0  0  0  0  0  0
    1.9989  -21.6129   21.0100 C   0  0  0  0  0  0  0  0  0  0  0  0
    0.6656  -21.0798   20.8781 C   0  0  0  0  0  0  0  0  0  0  0  0
    0.3489  -20.0535   20.2988 O   0  0  0  0  0  0  0  0  0  0  0  0
    3.5941  -21.3328   22.9459 C   0  0  0  0  0  0  0  0  0  0  0  0
    2.7761  -21.6648   23.8859 O   0  0  0  0  0  0  0  0  0  0  0  0
   -0.3864  -21.8214   21.4808 O   0  0  0  0  0  0  0  0  0  0  0  0
    4.9556  -21.5432   23.2155 N   0  0  0  0  0  0  0  0  0  0  0  0
    5.4257  -22.0602   24.5022 C   0  0  0  0  0  0  0  0  0  0  0  0
    6.7534  -21.4611   24.7837 C   0  0  0  0  0  0  0  0  0  0  0  0
    7.2190  -20.5275   24.0719 O   0  0  0  0  0  0  0  0  0  0  0  0
    7.5431  -21.8903   25.8313 O   0  0  0  0  0  0  0  0  0  0  0  0
  2  1  1  6
  2  7  1  0
  3  2  1  0
  4  3  1  0
  5  4  1  0
  5  6  2  0
  7  8  2  0
  9  5  1  0
 10  7  1  0
 10 11  1  0
 11 15  1  0
 12 13  1  0
 11 12  1  6
 13 14  2  0
 13 17  1  0
 15 18  1  0
 15 16  2  0
 18 19  1  0
 19 20  1  0
 20 22  1  0
 21 20  2  0
M  END
$$$$
