EDG.pdb
     RDKit          3D

 22 21  0  0  1  0  0  0  0  0999 V2000
    8.5619  -18.0227   20.8603 N   0  0  0  0  0  0  0  0  0  0  0  0
    9.5550  -17.0672   21.2765 C   0  0  1  0  0  0  0  0  0  0  0  0
    8.9855  -15.6993   21.0394 C   0  0  0  0  0  0  0  0  0  0  0  0
    8.3662  -15.6271   19.6610 C   0  0  0  0  0  0  0  0  0  0  0  0
    7.7157  -14.3133   19.4255 C   0  0  0  0  0  0  0  0  0  0  0  0
    7.7833  -13.3555   20.2140 O   0  0  0  0  0  0  0  0  0  0  0  0
    9.9645  -17.2660   22.6917 C   0  0  0  0  0  0  0  0  0  0  0  0
    9.1481  -17.7992   23.5094 O   0  0  0  0  0  0  0  0  0  0  0  0
    6.9926  -14.1520   18.2583 O   0  0  0  0  0  0  0  0  0  0  0  0
   11.2187  -16.8970   23.1990 N   0  0  0  0  0  0  0  0  0  0  0  0
   11.6034  -17.1572   24.6381 C   0  0  1  0  0  0  0  0  0  0  0  0
   13.0606  -17.4543   24.5518 C   0  0  0  0  0  0  0  0  0  0  0  0
   13.4751  -18.5921   23.7690 C   0  0  0  0  0  0  0  0  0  0  0  0
   12.9194  -19.6773   23.7164 O   0  0  0  0  0  0  0  0  0  0  0  0
   11.1854  -16.0052   25.4204 C   0  0  0  0  0  0  0  0  0  0  0  0
   11.0356  -14.8919   24.7870 O   0  0  0  0  0  0  0  0  0  0  0  0
   14.6462  -18.4373   22.9788 O   0  0  0  0  0  0  0  0  0  0  0  0
   10.9175  -15.9676   26.7978 N   0  0  0  0  0  0  0  0  0  0  0  0
   10.4147  -14.7637   27.4626 C   0  0  0  0  0  0  0  0  0  0  0  0
   10.2361  -15.0717   28.9029 C   0  0  0  0  0  0  0  0  0  0  0  0
   10.4846  -16.2198   29.3667 O   0  0  0  0  0  0  0  0  0  0  0  0
    9.7920  -14.1253   29.8043 O   0  0  0  0  0  0  0  0  0  0  0  0
  2  1  1  1
  2  7  1  0
  3  2  1  0
  4  3  1  0
  5  4  1  0
  5  6  2  0
  7  8  2  0
  9  5  1  0
 10  7  1  0
 10 11  1  0
 11 15  1  0
 12 13  1  0
 11 12  1  6
 13 14  2  0
 13 17  1  0
 15 18  1  0
 15 16  2  0
 18 19  1  0
 19 20  1  0
 20 22  1  0
 21 20  2  0
M  END
$$$$
