EDG.pdb
     RDKit          3D

 22 21  0  0  1  0  0  0  0  0999 V2000
   10.2765  -17.4435   16.5856 N   0  0  0  0  0  0  0  0  0  0  0  0
    9.1553  -17.4771   17.4879 C   0  0  1  0  0  0  0  0  0  0  0  0
    8.2181  -18.5408   16.9960 C   0  0  0  0  0  0  0  0  0  0  0  0
    7.0324  -17.9070   16.3025 C   0  0  0  0  0  0  0  0  0  0  0  0
    6.0418  -18.9281   15.8772 C   0  0  0  0  0  0  0  0  0  0  0  0
    6.1897  -20.1499   16.0476 O   0  0  0  0  0  0  0  0  0  0  0  0
    9.5760  -17.7080   18.8949 C   0  0  0  0  0  0  0  0  0  0  0  0
    8.7151  -17.6156   19.8276 O   0  0  0  0  0  0  0  0  0  0  0  0
    4.8887  -18.4876   15.2546 O   0  0  0  0  0  0  0  0  0  0  0  0
   10.8878  -18.0280   19.2734 N   0  0  0  0  0  0  0  0  0  0  0  0
   11.2317  -18.4323   20.6894 C   0  0  1  0  0  0  0  0  0  0  0  0
   11.8886  -19.7579   20.5141 C   0  0  0  0  0  0  0  0  0  0  0  0
   11.0782  -20.8610   20.0607 C   0  0  0  0  0  0  0  0  0  0  0  0
    9.8628  -20.9451   20.1310 O   0  0  0  0  0  0  0  0  0  0  0  0
   12.0113  -17.3551   21.2774 C   0  0  0  0  0  0  0  0  0  0  0  0
   12.8743  -16.7747   20.5150 O   0  0  0  0  0  0  0  0  0  0  0  0
   11.7596  -21.9608   19.4724 O   0  0  0  0  0  0  0  0  0  0  0  0
   11.9266  -16.8661   22.5905 N   0  0  0  0  0  0  0  0  0  0  0  0
   12.7140  -15.7198   23.0488 C   0  0  0  0  0  0  0  0  0  0  0  0
   14.0923  -16.1899   23.3329 C   0  0  0  0  0  0  0  0  0  0  0  0
   14.4435  -17.3802   23.0988 O   0  0  0  0  0  0  0  0  0  0  0  0
   15.0553  -15.3559   23.8642 O   0  0  0  0  0  0  0  0  0  0  0  0
  2  1  1  6
  2  7  1  0
  3  2  1  0
  4  3  1  0
  5  4  1  0
  5  6  2  0
  7  8  2  0
  9  5  1  0
 10  7  1  0
 10 11  1  0
 11 15  1  0
 12 13  1  0
 11 12  1  6
 13 14  2  0
 13 17  1  0
 15 18  1  0
 15 16  2  0
 18 19  1  0
 19 20  1  0
 20 22  1  0
 21 20  2  0
M  END
$$$$
