EDG.pdb
     RDKit          3D

 22 21  0  0  1  0  0  0  0  0999 V2000
    6.8557  -16.8135   20.7641 N   0  0  0  0  0  0  0  0  0  0  0  0
    8.1500  -16.3389   21.1787 C   0  0  1  0  0  0  0  0  0  0  0  0
    8.2054  -14.8704   20.8750 C   0  0  0  0  0  0  0  0  0  0  0  0
    8.0558  -14.6426   19.3869 C   0  0  0  0  0  0  0  0  0  0  0  0
    8.0648  -13.1954   19.0549 C   0  0  0  0  0  0  0  0  0  0  0  0
    8.2585  -12.2946   19.8885 O   0  0  0  0  0  0  0  0  0  0  0  0
    8.4179  -16.6249   22.6128 C   0  0  0  0  0  0  0  0  0  0  0  0
    7.4403  -16.7618   23.4159 O   0  0  0  0  0  0  0  0  0  0  0  0
    7.8432  -12.8344   17.7389 O   0  0  0  0  0  0  0  0  0  0  0  0
    9.7051  -16.7568   23.1536 N   0  0  0  0  0  0  0  0  0  0  0  0
    9.9256  -17.1480   24.5975 C   0  0  1  0  0  0  0  0  0  0  0  0
   11.1978  -17.9217   24.5493 C   0  0  0  0  0  0  0  0  0  0  0  0
   11.1739  -19.2277   23.9385 C   0  0  0  0  0  0  0  0  0  0  0  0
   12.1093  -19.7902   23.3927 O   0  0  0  0  0  0  0  0  0  0  0  0
    9.8949  -15.9312   25.3927 C   0  0  0  0  0  0  0  0  0  0  0  0
   10.6965  -14.9838   25.0423 O   0  0  0  0  0  0  0  0  0  0  0  0
    9.9403  -19.9324   23.9745 O   0  0  0  0  0  0  0  0  0  0  0  0
    9.0803  -15.6651   26.5045 N   0  0  0  0  0  0  0  0  0  0  0  0
    9.0813  -14.3658   27.1798 C   0  0  0  0  0  0  0  0  0  0  0  0
    9.9931  -14.4525   28.3469 C   0  0  0  0  0  0  0  0  0  0  0  0
   10.6740  -15.4914   28.5751 O   0  0  0  0  0  0  0  0  0  0  0  0
   10.1431  -13.4089   29.2379 O   0  0  0  0  0  0  0  0  0  0  0  0
  2  1  1  1
  2  7  1  0
  3  2  1  0
  4  3  1  0
  5  4  1  0
  5  6  2  0
  7  8  2  0
  9  5  1  0
 10  7  1  0
 10 11  1  0
 11 15  1  0
 12 13  1  0
 11 12  1  6
 13 14  2  0
 13 17  1  0
 15 18  1  0
 15 16  2  0
 18 19  1  0
 19 20  1  0
 20 22  1  0
 21 20  2  0
M  END
$$$$
