EDG.pdb
     RDKit          3D

 22 21  0  0  1  0  0  0  0  0999 V2000
   12.9378  -17.8152   18.1971 N   0  0  0  0  0  0  0  0  0  0  0  0
   13.6856  -18.4005   19.2789 C   0  0  1  0  0  0  0  0  0  0  0  0
   15.0740  -18.6607   18.7725 C   0  0  0  0  0  0  0  0  0  0  0  0
   15.1101  -18.5273   17.2660 C   0  0  0  0  0  0  0  0  0  0  0  0
   16.4591  -18.8314   16.7255 C   0  0  0  0  0  0  0  0  0  0  0  0
   17.3926  -19.2857   17.4080 O   0  0  0  0  0  0  0  0  0  0  0  0
   13.6835  -17.5396   20.4909 C   0  0  0  0  0  0  0  0  0  0  0  0
   13.7234  -16.2745   20.3587 O   0  0  0  0  0  0  0  0  0  0  0  0
   16.6845  -18.5923   15.3826 O   0  0  0  0  0  0  0  0  0  0  0  0
   13.6400  -18.0384   21.8008 N   0  0  0  0  0  0  0  0  0  0  0  0
   13.6431  -17.1208   23.0027 C   0  0  1  0  0  0  0  0  0  0  0  0
   12.2647  -17.2702   23.5478 C   0  0  0  0  0  0  0  0  0  0  0  0
   11.8030  -16.2913   24.5006 C   0  0  0  0  0  0  0  0  0  0  0  0
   12.4607  -15.3852   24.9858 O   0  0  0  0  0  0  0  0  0  0  0  0
   14.7593  -17.5088   23.8497 C   0  0  0  0  0  0  0  0  0  0  0  0
   14.5532  -18.4705   24.6837 O   0  0  0  0  0  0  0  0  0  0  0  0
   10.4477  -16.3885   24.9174 O   0  0  0  0  0  0  0  0  0  0  0  0
   16.0493  -16.9554   23.8588 N   0  0  0  0  0  0  0  0  0  0  0  0
   16.2885  -15.5378   24.1367 C   0  0  0  0  0  0  0  0  0  0  0  0
   17.7468  -15.2859   24.0304 C   0  0  0  0  0  0  0  0  0  0  0  0
   18.5553  -16.2107   23.7372 O   0  0  0  0  0  0  0  0  0  0  0  0
   18.2913  -14.0358   24.2454 O   0  0  0  0  0  0  0  0  0  0  0  0
  2  1  1  6
  2  7  1  0
  3  2  1  0
  4  3  1  0
  5  4  1  0
  5  6  2  0
  7  8  2  0
  9  5  1  0
 10  7  1  0
 10 11  1  0
 11 15  1  0
 12 13  1  0
 11 12  1  1
 13 14  2  0
 13 17  1  0
 15 18  1  0
 15 16  2  0
 18 19  1  0
 19 20  1  0
 20 22  1  0
 21 20  2  0
M  END
$$$$
