EDG.pdb
     RDKit          3D

 22 21  0  0  1  0  0  0  0  0999 V2000
   12.4065  -18.7306   17.4893 N   0  0  0  0  0  0  0  0  0  0  0  0
   11.3379  -18.4862   18.4224 C   0  0  1  0  0  0  0  0  0  0  0  0
   11.0927  -19.7664   19.1657 C   0  0  0  0  0  0  0  0  0  0  0  0
   11.1147  -20.9357   18.2061 C   0  0  0  0  0  0  0  0  0  0  0  0
   10.8540  -22.2187   18.9065 C   0  0  0  0  0  0  0  0  0  0  0  0
    9.7186  -22.6304   19.1983 O   0  0  0  0  0  0  0  0  0  0  0  0
   11.6427  -17.3559   19.3387 C   0  0  0  0  0  0  0  0  0  0  0  0
   12.8100  -17.2509   19.8347 O   0  0  0  0  0  0  0  0  0  0  0  0
   11.9428  -22.9971   19.2527 O   0  0  0  0  0  0  0  0  0  0  0  0
   10.7094  -16.3745   19.7027 N   0  0  0  0  0  0  0  0  0  0  0  0
   11.0844  -15.2098   20.5911 C   0  0  1  0  0  0  0  0  0  0  0  0
   10.4257  -14.0502   19.9271 C   0  0  0  0  0  0  0  0  0  0  0  0
   11.0359  -13.5157   18.7349 C   0  0  0  0  0  0  0  0  0  0  0  0
   12.2064  -13.6255   18.4077 O   0  0  0  0  0  0  0  0  0  0  0  0
   10.6787  -15.5423   21.9471 C   0  0  0  0  0  0  0  0  0  0  0  0
    9.5102  -16.0674   22.0954 O   0  0  0  0  0  0  0  0  0  0  0  0
   10.1930  -12.7890   17.8510 O   0  0  0  0  0  0  0  0  0  0  0  0
   11.4231  -15.3614   23.1234 N   0  0  0  0  0  0  0  0  0  0  0  0
   10.8721  -15.6529   24.4484 C   0  0  0  0  0  0  0  0  0  0  0  0
   11.2914  -17.0234   24.8318 C   0  0  0  0  0  0  0  0  0  0  0  0
   11.8768  -17.7863   24.0132 O   0  0  0  0  0  0  0  0  0  0  0  0
   11.0646  -17.5319   26.0949 O   0  0  0  0  0  0  0  0  0  0  0  0
  2  1  1  6
  2  7  1  0
  3  2  1  0
  4  3  1  0
  5  4  1  0
  5  6  2  0
  7  8  2  0
  9  5  1  0
 10  7  1  0
 10 11  1  0
 11 15  1  0
 12 13  1  0
 11 12  1  6
 13 14  2  0
 13 17  1  0
 15 18  1  0
 15 16  2  0
 18 19  1  0
 19 20  1  0
 20 22  1  0
 21 20  2  0
M  END
$$$$
