EDG.pdb
     RDKit          3D

 22 21  0  0  1  0  0  0  0  0999 V2000
    6.7898  -19.5008   21.2496 N   0  0  0  0  0  0  0  0  0  0  0  0
    7.9696  -19.9667   21.9302 C   0  0  1  0  0  0  0  0  0  0  0  0
    9.1231  -19.1420   21.4395 C   0  0  0  0  0  0  0  0  0  0  0  0
    9.8388  -19.8654   20.3201 C   0  0  0  0  0  0  0  0  0  0  0  0
   11.0282  -19.1074   19.8560 C   0  0  0  0  0  0  0  0  0  0  0  0
   12.1903  -19.3490   20.2233 O   0  0  0  0  0  0  0  0  0  0  0  0
    7.8245  -19.9036   23.4084 C   0  0  0  0  0  0  0  0  0  0  0  0
    7.1922  -18.9319   23.9333 O   0  0  0  0  0  0  0  0  0  0  0  0
   10.8246  -18.0721   18.9627 O   0  0  0  0  0  0  0  0  0  0  0  0
    8.3499  -20.8643   24.2845 N   0  0  0  0  0  0  0  0  0  0  0  0
    8.2777  -20.6970   25.7857 C   0  0  1  0  0  0  0  0  0  0  0  0
    7.9334  -22.0652   26.2639 C   0  0  0  0  0  0  0  0  0  0  0  0
    7.2054  -22.1868   27.5026 C   0  0  0  0  0  0  0  0  0  0  0  0
    6.8144  -21.2702   28.2070 O   0  0  0  0  0  0  0  0  0  0  0  0
    9.5361  -20.1157   26.2245 C   0  0  0  0  0  0  0  0  0  0  0  0
   10.4502  -19.9568   25.3290 O   0  0  0  0  0  0  0  0  0  0  0  0
    6.9121  -23.5035   27.9500 O   0  0  0  0  0  0  0  0  0  0  0  0
    9.8702  -19.6979   27.5223 N   0  0  0  0  0  0  0  0  0  0  0  0
   10.9885  -18.7903   27.7864 C   0  0  0  0  0  0  0  0  0  0  0  0
   11.1326  -18.6502   29.2564 C   0  0  0  0  0  0  0  0  0  0  0  0
   10.2649  -19.1108   30.0501 O   0  0  0  0  0  0  0  0  0  0  0  0
   12.2153  -18.0132   29.8285 O   0  0  0  0  0  0  0  0  0  0  0  0
  2  1  1  6
  2  7  1  0
  3  2  1  0
  4  3  1  0
  5  4  1  0
  5  6  2  0
  7  8  2  0
  9  5  1  0
 10  7  1  0
 10 11  1  0
 11 15  1  0
 12 13  1  0
 11 12  1  1
 13 14  2  0
 13 17  1  0
 15 18  1  0
 15 16  2  0
 18 19  1  0
 19 20  1  0
 20 22  1  0
 21 20  2  0
M  END
$$$$
