LME.pdb
     RDKit          3D

 26 25  0  0  1  0  0  0  0  0999 V2000
    6.5023  -13.9071   18.5347 C   0  0  0  0  0  0  0  0  0  0  0  0
    7.4414  -13.5343   19.6322 C   0  0  2  0  0  0  0  0  0  0  0  0
    7.8918  -12.0867   19.3897 C   0  0  0  0  0  0  0  0  0  0  0  0
    8.6765  -14.3482   19.7505 C   0  0  0  0  0  0  0  0  0  0  0  0
    8.6257  -15.5264   20.6621 C   0  0  2  0  0  0  0  0  0  0  0  0
    7.3795  -16.2292   20.4728 N   0  0  0  0  0  0  0  0  0  0  0  0
    8.8366  -15.0969   22.0746 C   0  0  0  0  0  0  0  0  0  0  0  0
    9.8751  -14.4318   22.4018 O   0  0  0  0  0  0  0  0  0  0  0  0
    6.9087  -11.9149   28.3308 C   0  0  0  0  0  0  0  0  0  0  0  0
    6.7615  -12.5236   26.6207 S   0  0  0  0  0  0  0  0  0  0  0  0
    6.8674  -14.3325   26.5843 C   0  0  0  0  0  0  0  0  0  0  0  0
    6.8056  -14.8124   25.1644 C   0  0  0  0  0  0  0  0  0  0  0  0
    8.1511  -14.9129   24.4970 C   0  0  2  0  0  0  0  0  0  0  0  0
    7.9480  -15.3728   23.1453 N   0  0  0  0  0  0  0  0  0  0  0  0
    9.0411  -15.7921   25.2867 C   0  0  0  0  0  0  0  0  0  0  0  0
    9.3401  -15.4147   26.4418 O   0  0  0  0  0  0  0  0  0  0  0  0
    9.5698  -17.0209   24.8163 N   0  0  0  0  0  0  0  0  0  0  0  0
   10.7492  -17.6465   25.4372 C   0  0  1  0  0  0  0  0  0  0  0  0
   11.9808  -17.0861   24.8133 C   0  0  0  0  0  0  0  0  0  0  0  0
   13.2830  -17.3634   25.4515 C   0  0  0  0  0  0  0  0  0  0  0  0
   14.4537  -16.6973   24.8331 C   0  0  0  0  0  0  0  0  0  0  0  0
   14.2939  -15.9207   23.8248 O   0  0  0  0  0  0  0  0  0  0  0  0
   10.6619  -17.7934   26.8643 C   0  0  0  0  0  0  0  0  0  0  0  0
   11.1876  -18.8530   27.6074 O   0  0  0  0  0  0  0  0  0  0  0  0
   15.7561  -16.8523   25.2724 O   0  0  0  0  0  0  0  0  0  0  0  0
   10.0486  -16.8957   27.5362 O   0  0  0  0  0  0  0  0  0  0  0  0
  2  4  1  0
  2  1  1  6
  3  2  1  0
  5  6  1  1
  5  4  1  0
  7  5  1  0
  8  7  2  0
 10  9  1  0
 10 11  1  0
 11 12  1  0
 13 12  1  1
 13 14  1  0
 14  7  1  0
 15 16  2  0
 15 13  1  0
 17 15  1  0
 18 19  1  1
 18 17  1  0
 19 20  1  0
 20 21  1  0
 21 22  2  0
 23 18  1  0
 24 23  1  0
 25 21  1  0
 26 23  2  0
M  END
$$$$
