LME.pdb
     RDKit          3D

 26 25  0  0  1  0  0  0  0  0999 V2000
    6.4213  -13.3500   19.9666 C   0  0  0  0  0  0  0  0  0  0  0  0
    7.9072  -13.2457   20.0472 C   0  0  2  0  0  0  0  0  0  0  0  0
    8.3405  -12.0629   19.1695 C   0  0  0  0  0  0  0  0  0  0  0  0
    8.6789  -14.4244   19.5812 C   0  0  0  0  0  0  0  0  0  0  0  0
    8.6355  -15.6434   20.4378 C   0  0  2  0  0  0  0  0  0  0  0  0
    7.3305  -16.2524   20.3440 N   0  0  0  0  0  0  0  0  0  0  0  0
    9.0139  -15.3040   21.8399 C   0  0  0  0  0  0  0  0  0  0  0  0
   10.2239  -15.0281   22.1361 O   0  0  0  0  0  0  0  0  0  0  0  0
    7.3105  -11.8630   28.4778 C   0  0  0  0  0  0  0  0  0  0  0  0
    6.8283  -12.4133   26.8101 S   0  0  0  0  0  0  0  0  0  0  0  0
    7.5800  -14.0191   26.4345 C   0  0  0  0  0  0  0  0  0  0  0  0
    7.3123  -14.3781   25.0027 C   0  0  0  0  0  0  0  0  0  0  0  0
    8.5038  -14.9567   24.2875 C   0  0  2  0  0  0  0  0  0  0  0  0
    8.1110  -15.2578   22.9329 N   0  0  0  0  0  0  0  0  0  0  0  0
    9.0114  -16.1345   25.0250 C   0  0  0  0  0  0  0  0  0  0  0  0
    8.2388  -17.1118   25.1440 O   0  0  0  0  0  0  0  0  0  0  0  0
   10.3052  -16.2187   25.5991 N   0  0  0  0  0  0  0  0  0  0  0  0
   10.8063  -17.4645   26.2033 C   0  0  1  0  0  0  0  0  0  0  0  0
   12.0975  -17.8323   25.5571 C   0  0  0  0  0  0  0  0  0  0  0  0
   13.2048  -16.8561   25.5885 C   0  0  0  0  0  0  0  0  0  0  0  0
   13.9593  -16.7030   24.3222 C   0  0  0  0  0  0  0  0  0  0  0  0
   14.4867  -15.5735   24.0199 O   0  0  0  0  0  0  0  0  0  0  0  0
   10.6661  -17.5303   27.6322 C   0  0  0  0  0  0  0  0  0  0  0  0
   10.9994  -18.6249   28.4335 O   0  0  0  0  0  0  0  0  0  0  0  0
   14.1475  -17.7196   23.4033 O   0  0  0  0  0  0  0  0  0  0  0  0
   10.1902  -16.5167   28.2484 O   0  0  0  0  0  0  0  0  0  0  0  0
  2  4  1  0
  2  1  1  6
  3  2  1  0
  5  6  1  1
  5  4  1  0
  7  5  1  0
  8  7  2  0
 10  9  1  0
 10 11  1  0
 11 12  1  0
 13 12  1  1
 13 14  1  0
 14  7  1  0
 15 16  2  0
 15 13  1  0
 17 15  1  0
 18 19  1  1
 18 17  1  0
 19 20  1  0
 20 21  1  0
 21 22  2  0
 23 18  1  0
 24 23  1  0
 25 21  1  0
 26 23  2  0
M  END
$$$$
