LME.pdb
     RDKit          3D

 26 25  0  0  1  0  0  0  0  0999 V2000
    8.3459  -14.2570   17.8620 C   0  0  0  0  0  0  0  0  0  0  0  0
    7.8534  -13.5346   19.0706 C   0  0  2  0  0  0  0  0  0  0  0  0
    7.8617  -12.0326   18.7525 C   0  0  0  0  0  0  0  0  0  0  0  0
    8.6452  -13.7089   20.3135 C   0  0  0  0  0  0  0  0  0  0  0  0
    8.6100  -15.0538   20.9552 C   0  0  2  0  0  0  0  0  0  0  0  0
    7.3237  -15.6654   20.7228 N   0  0  0  0  0  0  0  0  0  0  0  0
    8.9428  -14.9441   22.4048 C   0  0  0  0  0  0  0  0  0  0  0  0
   10.1007  -14.5583   22.7768 O   0  0  0  0  0  0  0  0  0  0  0  0
    6.9799  -11.5976   27.7567 C   0  0  0  0  0  0  0  0  0  0  0  0
    6.0499  -12.2454   26.3312 S   0  0  0  0  0  0  0  0  0  0  0  0
    7.1666  -13.0939   25.1832 C   0  0  0  0  0  0  0  0  0  0  0  0
    7.3681  -14.5113   25.6313 C   0  0  0  0  0  0  0  0  0  0  0  0
    8.4269  -15.2495   24.8568 C   0  0  2  0  0  0  0  0  0  0  0  0
    8.0495  -15.2448   23.4648 N   0  0  0  0  0  0  0  0  0  0  0  0
    8.6006  -16.6101   25.4113 C   0  0  0  0  0  0  0  0  0  0  0  0
    7.9794  -17.5403   24.8501 O   0  0  0  0  0  0  0  0  0  0  0  0
    9.4181  -16.9173   26.5284 N   0  0  0  0  0  0  0  0  0  0  0  0
   10.3444  -18.0618   26.5206 C   0  0  1  0  0  0  0  0  0  0  0  0
   11.0687  -18.0913   25.2189 C   0  0  0  0  0  0  0  0  0  0  0  0
   12.0226  -19.1898   24.9676 C   0  0  0  0  0  0  0  0  0  0  0  0
   12.7409  -19.1303   23.6727 C   0  0  0  0  0  0  0  0  0  0  0  0
   13.6044  -20.0305   23.3738 O   0  0  0  0  0  0  0  0  0  0  0  0
   11.0589  -18.2564   27.7524 C   0  0  0  0  0  0  0  0  0  0  0  0
   11.0503  -17.3861   28.8450 O   0  0  0  0  0  0  0  0  0  0  0  0
   12.5482  -18.1430   22.7232 O   0  0  0  0  0  0  0  0  0  0  0  0
   11.7790  -19.3042   27.8840 O   0  0  0  0  0  0  0  0  0  0  0  0
  2  4  1  0
  2  1  1  6
  3  2  1  0
  5  6  1  1
  5  4  1  0
  7  5  1  0
  8  7  2  0
 10  9  1  0
 10 11  1  0
 11 12  1  0
 13 12  1  1
 13 14  1  0
 14  7  1  0
 15 16  2  0
 15 13  1  0
 17 15  1  0
 18 19  1  6
 18 17  1  0
 19 20  1  0
 20 21  1  0
 21 22  2  0
 23 18  1  0
 24 23  1  0
 25 21  1  0
 26 23  2  0
M  END
$$$$
