LME.pdb
     RDKit          3D

 26 25  0  0  1  0  0  0  0  0999 V2000
    7.5444  -13.9295   18.2771 C   0  0  0  0  0  0  0  0  0  0  0  0
    7.5943  -13.4961   19.7037 C   0  0  2  0  0  0  0  0  0  0  0  0
    7.5172  -11.9629   19.7288 C   0  0  0  0  0  0  0  0  0  0  0  0
    8.8104  -13.8719   20.4666 C   0  0  0  0  0  0  0  0  0  0  0  0
    8.8091  -15.2086   21.1263 C   0  0  2  0  0  0  0  0  0  0  0  0
    7.4736  -15.7552   21.1056 N   0  0  0  0  0  0  0  0  0  0  0  0
    9.3686  -15.1054   22.5049 C   0  0  0  0  0  0  0  0  0  0  0  0
   10.6002  -14.8254   22.6854 O   0  0  0  0  0  0  0  0  0  0  0  0
    4.7942  -12.5167   26.6610 C   0  0  0  0  0  0  0  0  0  0  0  0
    6.5953  -12.7392   26.8119 S   0  0  0  0  0  0  0  0  0  0  0  0
    7.1578  -14.0787   25.7283 C   0  0  0  0  0  0  0  0  0  0  0  0
    8.6500  -14.2056   25.8170 C   0  0  0  0  0  0  0  0  0  0  0  0
    9.2124  -15.3469   25.0127 C   0  0  2  0  0  0  0  0  0  0  0  0
    8.6244  -15.3007   23.6966 N   0  0  0  0  0  0  0  0  0  0  0  0
    8.9722  -16.6260   25.7162 C   0  0  0  0  0  0  0  0  0  0  0  0
    8.1361  -17.4085   25.2114 O   0  0  0  0  0  0  0  0  0  0  0  0
    9.6244  -17.0113   26.9149 N   0  0  0  0  0  0  0  0  0  0  0  0
   10.4009  -18.2588   27.0092 C   0  0  1  0  0  0  0  0  0  0  0  0
   11.1743  -18.4456   25.7494 C   0  0  0  0  0  0  0  0  0  0  0  0
   12.1010  -19.5910   25.6545 C   0  0  0  0  0  0  0  0  0  0  0  0
   12.8837  -19.6788   24.3991 C   0  0  0  0  0  0  0  0  0  0  0  0
   12.2866  -19.6414   23.2645 O   0  0  0  0  0  0  0  0  0  0  0  0
   11.0290  -18.4728   28.2841 C   0  0  0  0  0  0  0  0  0  0  0  0
   11.3503  -19.7156   28.8351 O   0  0  0  0  0  0  0  0  0  0  0  0
   14.2604  -19.8035   24.3502 O   0  0  0  0  0  0  0  0  0  0  0  0
   11.3230  -17.4561   29.0006 O   0  0  0  0  0  0  0  0  0  0  0  0
  2  4  1  0
  2  1  1  6
  3  2  1  0
  5  6  1  1
  5  4  1  0
  7  5  1  0
  8  7  2  0
 10  9  1  0
 10 11  1  0
 11 12  1  0
 13 12  1  1
 13 14  1  0
 14  7  1  0
 15 16  2  0
 15 13  1  0
 17 15  1  0
 18 19  1  6
 18 17  1  0
 19 20  1  0
 20 21  1  0
 21 22  2  0
 23 18  1  0
 24 23  1  0
 25 21  1  0
 26 23  2  0
M  END
$$$$
