LME.pdb
     RDKit          3D

 26 25  0  0  1  0  0  0  0  0999 V2000
    7.8359  -12.5090   18.5577 C   0  0  0  0  0  0  0  0  0  0  0  0
    7.7528  -13.4589   19.7049 C   0  0  2  0  0  0  0  0  0  0  0  0
    7.1323  -12.7060   20.8904 C   0  0  0  0  0  0  0  0  0  0  0  0
    9.0362  -14.0261   20.1879 C   0  0  0  0  0  0  0  0  0  0  0  0
    8.9744  -15.3414   20.8864 C   0  0  2  0  0  0  0  0  0  0  0  0
    7.6756  -15.9361   20.6806 N   0  0  0  0  0  0  0  0  0  0  0  0
    9.3108  -15.1766   22.3300 C   0  0  0  0  0  0  0  0  0  0  0  0
   10.4417  -14.7023   22.6820 O   0  0  0  0  0  0  0  0  0  0  0  0
    9.1637  -13.2340   29.1615 C   0  0  0  0  0  0  0  0  0  0  0  0
    8.9067  -13.4578   27.3725 S   0  0  0  0  0  0  0  0  0  0  0  0
    7.8684  -14.9105   27.0619 C   0  0  0  0  0  0  0  0  0  0  0  0
    7.6134  -15.0419   25.5894 C   0  0  0  0  0  0  0  0  0  0  0  0
    8.8293  -15.4362   24.7942 C   0  0  2  0  0  0  0  0  0  0  0  0
    8.4500  -15.5161   23.4051 N   0  0  0  0  0  0  0  0  0  0  0  0
    9.3886  -16.7001   25.3217 C   0  0  0  0  0  0  0  0  0  0  0  0
    8.6302  -17.6953   25.3461 O   0  0  0  0  0  0  0  0  0  0  0  0
   10.7165  -16.8473   25.7968 N   0  0  0  0  0  0  0  0  0  0  0  0
   11.1881  -18.1024   26.4054 C   0  0  1  0  0  0  0  0  0  0  0  0
   12.3911  -18.5783   25.6662 C   0  0  0  0  0  0  0  0  0  0  0  0
   12.4130  -18.4462   24.1959 C   0  0  0  0  0  0  0  0  0  0  0  0
   13.6433  -18.9324   23.5278 C   0  0  0  0  0  0  0  0  0  0  0  0
   14.1894  -18.2360   22.5992 O   0  0  0  0  0  0  0  0  0  0  0  0
   11.1705  -18.1092   27.8426 C   0  0  0  0  0  0  0  0  0  0  0  0
   10.7626  -17.0502   28.6570 O   0  0  0  0  0  0  0  0  0  0  0  0
   14.2747  -20.1238   23.8363 O   0  0  0  0  0  0  0  0  0  0  0  0
   11.5646  -19.1595   28.4551 O   0  0  0  0  0  0  0  0  0  0  0  0
  2  4  1  0
  2  1  1  6
  3  2  1  0
  5  6  1  1
  5  4  1  0
  7  5  1  0
  8  7  2  0
 10  9  1  0
 10 11  1  0
 11 12  1  0
 13 12  1  1
 13 14  1  0
 14  7  1  0
 15 16  2  0
 15 13  1  0
 17 15  1  0
 18 19  1  1
 18 17  1  0
 19 20  1  0
 20 21  1  0
 21 22  2  0
 23 18  1  0
 24 23  1  0
 25 21  1  0
 26 23  2  0
M  END
$$$$
