LME.pdb
     RDKit          3D

 26 25  0  0  1  0  0  0  0  0999 V2000
    7.5734  -12.8099   18.3317 C   0  0  0  0  0  0  0  0  0  0  0  0
    7.8448  -13.4625   19.6454 C   0  0  2  0  0  0  0  0  0  0  0  0
    8.4884  -12.4137   20.5636 C   0  0  0  0  0  0  0  0  0  0  0  0
    8.7615  -14.6293   19.6271 C   0  0  0  0  0  0  0  0  0  0  0  0
    8.4955  -15.7144   20.6138 C   0  0  2  0  0  0  0  0  0  0  0  0
    7.0950  -16.0612   20.5832 N   0  0  0  0  0  0  0  0  0  0  0  0
    8.9585  -15.3042   21.9709 C   0  0  0  0  0  0  0  0  0  0  0  0
   10.2004  -15.1329   22.2079 O   0  0  0  0  0  0  0  0  0  0  0  0
    5.2221  -12.3439   26.7747 C   0  0  0  0  0  0  0  0  0  0  0  0
    7.0032  -12.0093   26.9536 S   0  0  0  0  0  0  0  0  0  0  0  0
    7.9697  -13.4629   26.4659 C   0  0  0  0  0  0  0  0  0  0  0  0
    7.5746  -13.8897   25.0831 C   0  0  0  0  0  0  0  0  0  0  0  0
    8.5807  -14.7863   24.4124 C   0  0  2  0  0  0  0  0  0  0  0  0
    8.1062  -15.0761   23.0816 N   0  0  0  0  0  0  0  0  0  0  0  0
    8.8013  -15.9982   25.2317 C   0  0  0  0  0  0  0  0  0  0  0  0
    7.8485  -16.8036   25.3302 O   0  0  0  0  0  0  0  0  0  0  0  0
   10.0134  -16.2956   25.9048 N   0  0  0  0  0  0  0  0  0  0  0  0
   10.2073  -17.5621   26.6304 C   0  0  1  0  0  0  0  0  0  0  0  0
   10.9707  -18.5051   25.7656 C   0  0  0  0  0  0  0  0  0  0  0  0
   12.3707  -18.1778   25.4300 C   0  0  0  0  0  0  0  0  0  0  0  0
   13.0786  -19.1755   24.5934 C   0  0  0  0  0  0  0  0  0  0  0  0
   13.8489  -20.0433   25.1402 O   0  0  0  0  0  0  0  0  0  0  0  0
   10.5552  -17.4058   28.0161 C   0  0  0  0  0  0  0  0  0  0  0  0
   10.7450  -18.4449   28.9303 O   0  0  0  0  0  0  0  0  0  0  0  0
   12.9720  -19.2490   23.2163 O   0  0  0  0  0  0  0  0  0  0  0  0
   10.7021  -16.2245   28.4814 O   0  0  0  0  0  0  0  0  0  0  0  0
  2  4  1  0
  2  1  1  6
  3  2  1  0
  5  6  1  1
  5  4  1  0
  7  5  1  0
  8  7  2  0
 10  9  1  0
 10 11  1  0
 11 12  1  0
 13 12  1  1
 13 14  1  0
 14  7  1  0
 15 16  2  0
 15 13  1  0
 17 15  1  0
 18 19  1  6
 18 17  1  0
 19 20  1  0
 20 21  1  0
 21 22  2  0
 23 18  1  0
 24 23  1  0
 25 21  1  0
 26 23  2  0
M  END
$$$$
