LME.pdb
     RDKit          3D

 26 25  0  0  1  0  0  0  0  0999 V2000
    7.2073  -12.8260   18.2481 C   0  0  0  0  0  0  0  0  0  0  0  0
    7.4783  -13.5465   19.5259 C   0  0  2  0  0  0  0  0  0  0  0  0
    7.9111  -12.5043   20.5669 C   0  0  0  0  0  0  0  0  0  0  0  0
    8.5448  -14.5778   19.4900 C   0  0  0  0  0  0  0  0  0  0  0  0
    8.3986  -15.7350   20.4181 C   0  0  2  0  0  0  0  0  0  0  0  0
    7.0743  -16.2935   20.2875 N   0  0  0  0  0  0  0  0  0  0  0  0
    8.7142  -15.3203   21.8154 C   0  0  0  0  0  0  0  0  0  0  0  0
    9.8775  -14.8920   22.1174 O   0  0  0  0  0  0  0  0  0  0  0  0
    7.4569  -11.4161   27.1797 C   0  0  0  0  0  0  0  0  0  0  0  0
    6.2466  -12.6813   26.6789 S   0  0  0  0  0  0  0  0  0  0  0  0
    7.0719  -14.2730   26.4138 C   0  0  0  0  0  0  0  0  0  0  0  0
    6.8616  -14.7197   24.9973 C   0  0  0  0  0  0  0  0  0  0  0  0
    8.1388  -15.0027   24.2526 C   0  0  2  0  0  0  0  0  0  0  0  0
    7.7981  -15.3603   22.8976 N   0  0  0  0  0  0  0  0  0  0  0  0
    8.9119  -16.0489   24.9571 C   0  0  0  0  0  0  0  0  0  0  0  0
    8.3796  -17.1760   25.0691 O   0  0  0  0  0  0  0  0  0  0  0  0
   10.2037  -15.8511   25.5073 N   0  0  0  0  0  0  0  0  0  0  0  0
   11.0253  -16.9768   25.9825 C   0  0  1  0  0  0  0  0  0  0  0  0
   12.3958  -16.8527   25.4112 C   0  0  0  0  0  0  0  0  0  0  0  0
   13.4162  -17.8444   25.8050 C   0  0  0  0  0  0  0  0  0  0  0  0
   14.7630  -17.6441   25.2199 C   0  0  0  0  0  0  0  0  0  0  0  0
   15.1356  -16.4744   24.8481 O   0  0  0  0  0  0  0  0  0  0  0  0
   10.8454  -17.2990   27.3716 C   0  0  0  0  0  0  0  0  0  0  0  0
   11.1338  -18.5298   27.9660 O   0  0  0  0  0  0  0  0  0  0  0  0
   15.6868  -18.6567   25.0344 O   0  0  0  0  0  0  0  0  0  0  0  0
   10.3745  -16.4032   28.1523 O   0  0  0  0  0  0  0  0  0  0  0  0
  2  4  1  0
  2  1  1  6
  3  2  1  0
  5  6  1  1
  5  4  1  0
  7  5  1  0
  8  7  2  0
 10  9  1  0
 10 11  1  0
 11 12  1  0
 13 12  1  1
 13 14  1  0
 14  7  1  0
 15 16  2  0
 15 13  1  0
 17 15  1  0
 18 19  1  1
 18 17  1  0
 19 20  1  0
 20 21  1  0
 21 22  2  0
 23 18  1  0
 24 23  1  0
 25 21  1  0
 26 23  2  0
M  END
$$$$
