LME.pdb
     RDKit          3D

 26 25  0  0  1  0  0  0  0  0999 V2000
    7.9776  -14.6245   17.4160 C   0  0  0  0  0  0  0  0  0  0  0  0
    7.4471  -13.9122   18.6146 C   0  0  2  0  0  0  0  0  0  0  0  0
    7.2063  -12.4484   18.2191 C   0  0  0  0  0  0  0  0  0  0  0  0
    8.3236  -13.8891   19.8117 C   0  0  0  0  0  0  0  0  0  0  0  0
    8.4752  -15.1669   20.5641 C   0  0  2  0  0  0  0  0  0  0  0  0
    7.2514  -15.9266   20.4757 N   0  0  0  0  0  0  0  0  0  0  0  0
    8.8832  -14.8927   21.9722 C   0  0  0  0  0  0  0  0  0  0  0  0
   10.0118  -14.3552   22.2271 O   0  0  0  0  0  0  0  0  0  0  0  0
    6.8919  -11.0804   27.0851 C   0  0  0  0  0  0  0  0  0  0  0  0
    6.2526  -12.7852   27.1246 S   0  0  0  0  0  0  0  0  0  0  0  0
    7.5400  -13.9531   26.6111 C   0  0  0  0  0  0  0  0  0  0  0  0
    7.2594  -14.4313   25.2171 C   0  0  0  0  0  0  0  0  0  0  0  0
    8.4879  -14.8686   24.4651 C   0  0  2  0  0  0  0  0  0  0  0  0
    8.0965  -15.1894   23.1146 N   0  0  0  0  0  0  0  0  0  0  0  0
    9.1357  -15.9965   25.1701 C   0  0  0  0  0  0  0  0  0  0  0  0
    8.4992  -17.0720   25.2350 O   0  0  0  0  0  0  0  0  0  0  0  0
   10.4186  -15.9301   25.7704 N   0  0  0  0  0  0  0  0  0  0  0  0
   11.1131  -17.1357   26.2522 C   0  0  1  0  0  0  0  0  0  0  0  0
   12.5586  -17.0345   25.9056 C   0  0  0  0  0  0  0  0  0  0  0  0
   12.9372  -16.9407   24.4816 C   0  0  0  0  0  0  0  0  0  0  0  0
   14.2024  -16.2215   24.2017 C   0  0  0  0  0  0  0  0  0  0  0  0
   15.2478  -16.4606   24.9054 O   0  0  0  0  0  0  0  0  0  0  0  0
   10.7102  -17.5702   27.5617 C   0  0  0  0  0  0  0  0  0  0  0  0
    9.7675  -16.9372   28.3754 O   0  0  0  0  0  0  0  0  0  0  0  0
   14.3526  -15.2754   23.2039 O   0  0  0  0  0  0  0  0  0  0  0  0
   11.2510  -18.6191   28.0525 O   0  0  0  0  0  0  0  0  0  0  0  0
  2  4  1  0
  2  1  1  6
  3  2  1  0
  5  6  1  1
  5  4  1  0
  7  5  1  0
  8  7  2  0
 10  9  1  0
 10 11  1  0
 11 12  1  0
 13 12  1  1
 13 14  1  0
 14  7  1  0
 15 16  2  0
 15 13  1  0
 17 15  1  0
 18 19  1  1
 18 17  1  0
 19 20  1  0
 20 21  1  0
 21 22  2  0
 23 18  1  0
 24 23  1  0
 25 21  1  0
 26 23  2  0
M  END
$$$$
