LME.pdb
     RDKit          3D

 26 25  0  0  1  0  0  0  0  0999 V2000
    7.6042  -14.5020   17.6740 C   0  0  0  0  0  0  0  0  0  0  0  0
    7.5301  -13.6465   18.8938 C   0  0  2  0  0  0  0  0  0  0  0  0
    7.5374  -12.1807   18.4372 C   0  0  0  0  0  0  0  0  0  0  0  0
    8.6373  -13.7914   19.8712 C   0  0  0  0  0  0  0  0  0  0  0  0
    8.7237  -15.0836   20.6091 C   0  0  2  0  0  0  0  0  0  0  0  0
    7.5183  -15.8461   20.3889 N   0  0  0  0  0  0  0  0  0  0  0  0
    8.9936  -14.8365   22.0549 C   0  0  0  0  0  0  0  0  0  0  0  0
   10.1059  -14.3370   22.4306 O   0  0  0  0  0  0  0  0  0  0  0  0
    7.0227  -12.0606   28.6695 C   0  0  0  0  0  0  0  0  0  0  0  0
    6.7768  -12.4988   26.9190 S   0  0  0  0  0  0  0  0  0  0  0  0
    7.1862  -14.2425   26.6424 C   0  0  0  0  0  0  0  0  0  0  0  0
    7.0484  -14.5672   25.1843 C   0  0  0  0  0  0  0  0  0  0  0  0
    8.3577  -14.8504   24.4977 C   0  0  2  0  0  0  0  0  0  0  0  0
    8.0857  -15.1201   23.1073 N   0  0  0  0  0  0  0  0  0  0  0  0
    9.0568  -15.9596   25.1829 C   0  0  0  0  0  0  0  0  0  0  0  0
    8.5534  -17.1011   25.0842 O   0  0  0  0  0  0  0  0  0  0  0  0
   10.2479  -15.8063   25.9369 N   0  0  0  0  0  0  0  0  0  0  0  0
   10.9725  -16.9642   26.4868 C   0  0  1  0  0  0  0  0  0  0  0  0
   12.3787  -16.9350   25.9951 C   0  0  0  0  0  0  0  0  0  0  0  0
   12.6249  -17.1246   24.5517 C   0  0  0  0  0  0  0  0  0  0  0  0
   14.0406  -17.0240   24.1252 C   0  0  0  0  0  0  0  0  0  0  0  0
   14.9604  -16.8083   24.9928 O   0  0  0  0  0  0  0  0  0  0  0  0
   10.6936  -17.2375   27.8700 C   0  0  0  0  0  0  0  0  0  0  0  0
   11.1279  -18.3581   28.5822 O   0  0  0  0  0  0  0  0  0  0  0  0
   14.4669  -17.1480   22.8151 O   0  0  0  0  0  0  0  0  0  0  0  0
    9.9821  -16.4041   28.5278 O   0  0  0  0  0  0  0  0  0  0  0  0
  2  4  1  0
  2  1  1  6
  3  2  1  0
  5  6  1  1
  5  4  1  0
  7  5  1  0
  8  7  2  0
 10  9  1  0
 10 11  1  0
 11 12  1  0
 13 12  1  1
 13 14  1  0
 14  7  1  0
 15 16  2  0
 15 13  1  0
 17 15  1  0
 18 19  1  1
 18 17  1  0
 19 20  1  0
 20 21  1  0
 21 22  2  0
 23 18  1  0
 24 23  1  0
 25 21  1  0
 26 23  2  0
M  END
$$$$
