LME.pdb
     RDKit          3D

 26 25  0  0  1  0  0  0  0  0999 V2000
    8.2245  -13.8995   18.2797 C   0  0  0  0  0  0  0  0  0  0  0  0
    7.5165  -13.5235   19.5377 C   0  0  2  0  0  0  0  0  0  0  0  0
    6.9216  -12.1223   19.3377 C   0  0  0  0  0  0  0  0  0  0  0  0
    8.3433  -13.4612   20.7684 C   0  0  0  0  0  0  0  0  0  0  0  0
    8.8552  -14.7539   21.3058 C   0  0  2  0  0  0  0  0  0  0  0  0
    7.9312  -15.8125   20.9769 N   0  0  0  0  0  0  0  0  0  0  0  0
    9.1055  -14.6417   22.7717 C   0  0  0  0  0  0  0  0  0  0  0  0
    9.3452  -13.5070   23.3035 O   0  0  0  0  0  0  0  0  0  0  0  0
    5.8110  -11.7615   26.9099 C   0  0  0  0  0  0  0  0  0  0  0  0
    7.3578  -12.7218   26.9513 S   0  0  0  0  0  0  0  0  0  0  0  0
    7.7751  -13.3164   25.2908 C   0  0  0  0  0  0  0  0  0  0  0  0
    7.5317  -14.7944   25.2090 C   0  0  0  0  0  0  0  0  0  0  0  0
    8.7893  -15.6118   25.0806 C   0  0  2  0  0  0  0  0  0  0  0  0
    9.1042  -15.7326   23.6784 N   0  0  0  0  0  0  0  0  0  0  0  0
    8.6136  -16.9166   25.7554 C   0  0  0  0  0  0  0  0  0  0  0  0
    8.0405  -16.9128   26.8679 O   0  0  0  0  0  0  0  0  0  0  0  0
    9.0527  -18.1551   25.2226 N   0  0  0  0  0  0  0  0  0  0  0  0
   10.4249  -18.6466   25.4314 C   0  0  1  0  0  0  0  0  0  0  0  0
   11.3314  -17.9870   24.4501 C   0  0  0  0  0  0  0  0  0  0  0  0
   12.7832  -18.2340   24.5548 C   0  0  0  0  0  0  0  0  0  0  0  0
   13.4438  -18.7040   23.3141 C   0  0  0  0  0  0  0  0  0  0  0  0
   14.3216  -19.6378   23.3665 O   0  0  0  0  0  0  0  0  0  0  0  0
   10.8111  -18.7627   26.8110 C   0  0  0  0  0  0  0  0  0  0  0  0
   10.5007  -17.8511   27.8229 O   0  0  0  0  0  0  0  0  0  0  0  0
   13.1802  -18.1962   22.0548 O   0  0  0  0  0  0  0  0  0  0  0  0
   11.5062  -19.7735   27.1696 O   0  0  0  0  0  0  0  0  0  0  0  0
  2  4  1  0
  2  1  1  6
  3  2  1  0
  5  6  1  1
  5  4  1  0
  7  5  1  0
  8  7  2  0
 10  9  1  0
 10 11  1  0
 11 12  1  0
 13 12  1  6
 13 14  1  0
 14  7  1  0
 15 16  2  0
 15 13  1  0
 17 15  1  0
 18 19  1  6
 18 17  1  0
 19 20  1  0
 20 21  1  0
 21 22  2  0
 23 18  1  0
 24 23  1  0
 25 21  1  0
 26 23  2  0
M  END
$$$$
