LME.pdb
     RDKit          3D

 26 25  0  0  1  0  0  0  0  0999 V2000
    6.2921  -20.0730   20.4148 C   0  0  0  0  0  0  0  0  0  0  0  0
    7.7647  -19.9136   20.2375 C   0  0  2  0  0  0  0  0  0  0  0  0
    8.4455  -21.1412   20.8593 C   0  0  0  0  0  0  0  0  0  0  0  0
    8.3815  -18.7212   20.8699 C   0  0  0  0  0  0  0  0  0  0  0  0
    7.7925  -17.3946   20.5308 C   0  0  2  0  0  0  0  0  0  0  0  0
    8.0379  -17.0995   19.1396 N   0  0  0  0  0  0  0  0  0  0  0  0
    8.3242  -16.3436   21.4457 C   0  0  0  0  0  0  0  0  0  0  0  0
    9.4791  -15.8377   21.2502 O   0  0  0  0  0  0  0  0  0  0  0  0
    6.8201  -12.5712   28.1823 C   0  0  0  0  0  0  0  0  0  0  0  0
    6.1419  -13.0550   26.5629 S   0  0  0  0  0  0  0  0  0  0  0  0
    7.4833  -13.3433   25.3786 C   0  0  0  0  0  0  0  0  0  0  0  0
    7.0574  -14.3751   24.3765 C   0  0  0  0  0  0  0  0  0  0  0  0
    8.1427  -14.7699   23.4110 C   0  0  2  0  0  0  0  0  0  0  0  0
    7.6338  -15.8268   22.5720 N   0  0  0  0  0  0  0  0  0  0  0  0
    9.3646  -15.1494   24.1537 C   0  0  0  0  0  0  0  0  0  0  0  0
    9.7598  -14.3642   25.0445 O   0  0  0  0  0  0  0  0  0  0  0  0
   10.1055  -16.3350   23.9170 N   0  0  0  0  0  0  0  0  0  0  0  0
   11.1815  -16.7713   24.8225 C   0  0  1  0  0  0  0  0  0  0  0  0
   10.5771  -17.2711   26.0893 C   0  0  0  0  0  0  0  0  0  0  0  0
   11.4712  -17.8171   27.1296 C   0  0  0  0  0  0  0  0  0  0  0  0
   10.8054  -18.2634   28.3762 C   0  0  0  0  0  0  0  0  0  0  0  0
    9.5276  -18.2132   28.4767 O   0  0  0  0  0  0  0  0  0  0  0  0
   12.2350  -17.5094   24.1812 C   0  0  0  0  0  0  0  0  0  0  0  0
   12.2338  -17.9433   22.8534 O   0  0  0  0  0  0  0  0  0  0  0  0
   11.4772  -18.7481   29.4839 O   0  0  0  0  0  0  0  0  0  0  0  0
   13.2712  -17.8162   24.8637 O   0  0  0  0  0  0  0  0  0  0  0  0
  2  4  1  0
  2  1  1  1
  3  2  1  0
  5  6  1  6
  5  4  1  0
  7  5  1  0
  8  7  2  0
 10  9  1  0
 10 11  1  0
 11 12  1  0
 13 12  1  1
 13 14  1  0
 14  7  1  0
 15 16  2  0
 15 13  1  0
 17 15  1  0
 18 19  1  1
 18 17  1  0
 19 20  1  0
 20 21  1  0
 21 22  2  0
 23 18  1  0
 24 23  1  0
 25 21  1  0
 26 23  2  0
M  END
$$$$
