LME.pdb
     RDKit          3D

 26 25  0  0  1  0  0  0  0  0999 V2000
    8.0783  -14.3170   17.5760 C   0  0  0  0  0  0  0  0  0  0  0  0
    7.5258  -13.5912   18.7565 C   0  0  2  0  0  0  0  0  0  0  0  0
    7.3978  -12.1094   18.3756 C   0  0  0  0  0  0  0  0  0  0  0  0
    8.3333  -13.6409   20.0005 C   0  0  0  0  0  0  0  0  0  0  0  0
    8.5307  -14.9793   20.6260 C   0  0  2  0  0  0  0  0  0  0  0  0
    7.3549  -15.7888   20.4142 N   0  0  0  0  0  0  0  0  0  0  0  0
    8.8754  -14.8298   22.0693 C   0  0  0  0  0  0  0  0  0  0  0  0
   10.0161  -14.3784   22.4201 O   0  0  0  0  0  0  0  0  0  0  0  0
    7.4716  -11.4595   27.9939 C   0  0  0  0  0  0  0  0  0  0  0  0
    6.3883  -12.6140   27.0938 S   0  0  0  0  0  0  0  0  0  0  0  0
    7.2896  -14.1311   26.6800 C   0  0  0  0  0  0  0  0  0  0  0  0
    7.0865  -14.4581   25.2301 C   0  0  0  0  0  0  0  0  0  0  0  0
    8.3338  -14.9312   24.5327 C   0  0  2  0  0  0  0  0  0  0  0  0
    8.0124  -15.1603   23.1455 N   0  0  0  0  0  0  0  0  0  0  0  0
    8.8691  -16.1298   25.2149 C   0  0  0  0  0  0  0  0  0  0  0  0
    8.0966  -17.1055   25.3476 O   0  0  0  0  0  0  0  0  0  0  0  0
   10.1889  -16.2356   25.7223 N   0  0  0  0  0  0  0  0  0  0  0  0
   10.6877  -17.4786   26.3340 C   0  0  1  0  0  0  0  0  0  0  0  0
   12.0618  -17.7517   25.8269 C   0  0  0  0  0  0  0  0  0  0  0  0
   12.3450  -17.5177   24.3969 C   0  0  0  0  0  0  0  0  0  0  0  0
   13.7333  -17.8034   23.9641 C   0  0  0  0  0  0  0  0  0  0  0  0
   14.5946  -18.2372   24.8098 O   0  0  0  0  0  0  0  0  0  0  0  0
   10.3917  -17.6124   27.7341 C   0  0  0  0  0  0  0  0  0  0  0  0
    9.7092  -16.6767   28.5151 O   0  0  0  0  0  0  0  0  0  0  0  0
   14.1936  -17.6326   22.6709 O   0  0  0  0  0  0  0  0  0  0  0  0
   10.7821  -18.6650   28.3449 O   0  0  0  0  0  0  0  0  0  0  0  0
  2  4  1  0
  2  1  1  6
  3  2  1  0
  5  6  1  1
  5  4  1  0
  7  5  1  0
  8  7  2  0
 10  9  1  0
 10 11  1  0
 11 12  1  0
 13 12  1  1
 13 14  1  0
 14  7  1  0
 15 16  2  0
 15 13  1  0
 17 15  1  0
 18 19  1  1
 18 17  1  0
 19 20  1  0
 20 21  1  0
 21 22  2  0
 23 18  1  0
 24 23  1  0
 25 21  1  0
 26 23  2  0
M  END
$$$$
