HFD.pdb
     RDKit          3D

 30 31  0  0  1  0  0  0  0  0999 V2000
   23.5828  -11.7774  -18.8591 N   0  0  0  0  0  0  0  0  0  0  0  0
   23.0308  -10.4869  -19.2024 C   0  0  1  0  0  0  0  0  0  0  0  0
   21.6471  -10.6186  -19.7666 C   0  0  0  0  0  0  0  0  0  0  0  0
   21.6951  -11.3267  -21.0773 C   0  0  0  0  0  0  0  0  0  0  0  0
   22.5275  -10.9757  -22.1404 C   0  0  0  0  0  0  0  0  0  0  0  0
   22.3099  -11.8197  -23.1608 N   0  0  0  0  0  0  0  0  0  0  0  0
   21.3629  -12.6845  -22.7546 C   0  0  0  0  0  0  0  0  0  0  0  0
   20.9886  -12.3904  -21.4967 N   0  0  0  0  0  0  0  0  0  0  0  0
   22.9776   -9.5642  -18.0228 C   0  0  0  0  0  0  0  0  0  0  0  0
   22.2835   -9.9435  -17.0509 O   0  0  0  0  0  0  0  0  0  0  0  0
   23.6822   -8.3300  -18.0254 N   0  0  0  0  0  0  0  0  0  0  0  0
   23.6026   -7.4104  -16.9146 C   0  0  1  0  0  0  0  0  0  0  0  0
   24.9791   -7.1400  -16.4142 C   0  0  0  0  0  0  0  0  0  0  0  0
   25.7411   -8.2904  -15.9608 C   0  0  0  0  0  0  0  0  0  0  0  0
   25.4956   -9.0133  -14.8239 C   0  0  0  0  0  0  0  0  0  0  0  0
   26.2673  -10.0840  -14.4555 C   0  0  0  0  0  0  0  0  0  0  0  0
   27.3358  -10.4631  -15.2467 C   0  0  0  0  0  0  0  0  0  0  0  0
   27.6011   -9.7534  -16.3908 C   0  0  0  0  0  0  0  0  0  0  0  0
   26.8211   -8.6893  -16.7418 C   0  0  0  0  0  0  0  0  0  0  0  0
   22.9043   -6.1770  -17.3676 C   0  0  0  0  0  0  0  0  0  0  0  0
   22.9589   -5.8259  -18.5710 O   0  0  0  0  0  0  0  0  0  0  0  0
   22.1609   -5.3590  -16.4748 N   0  0  0  0  0  0  0  0  0  0  0  0
   21.2769   -4.2833  -16.8648 C   0  0  1  0  0  0  0  0  0  0  0  0
   20.2585   -4.7146  -17.8974 C   0  0  0  0  0  0  0  0  0  0  0  0
   19.3319   -3.6451  -18.2647 C   0  0  0  0  0  0  0  0  0  0  0  0
   19.7499   -2.6541  -18.9074 O   0  0  0  0  0  0  0  0  0  0  0  0
   20.6312   -3.6383  -15.7076 C   0  0  0  0  0  0  0  0  0  0  0  0
   20.5002   -2.2739  -15.6607 O   0  0  0  0  0  0  0  0  0  0  0  0
   17.9909   -3.6834  -17.9270 O   0  0  0  0  0  0  0  0  0  0  0  0
   20.2033   -4.3364  -14.7685 O   0  0  0  0  0  0  0  0  0  0  0  0
  2  1  1  1
  3  4  1  0
  3  2  1  0
  4  8  1  0
  5  4  2  0
  5  6  1  0
  6  7  1  0
  8  7  2  0
  9  2  1  0
 10  9  2  0
 11  9  1  0
 12 11  1  0
 12 13  1  6
 13 14  1  0
 14 15  2  0
 15 16  1  0
 17 16  2  0
 18 17  1  0
 19 14  1  0
 19 18  2  0
 20 12  1  0
 21 20  2  0
 22 20  1  0
 23 27  1  0
 23 22  1  0
 23 24  1  6
 25 29  1  0
 25 24  1  0
 26 25  2  0
 27 28  1  0
 30 27  2  0
M  END
$$$$
