HFD.pdb
     RDKit          3D

 30 31  0  0  1  0  0  0  0  0999 V2000
   27.9516  -23.2845  -18.0509 N   0  0  0  0  0  0  0  0  0  0  0  0
   27.1300  -22.1478  -17.7035 C   0  0  1  0  0  0  0  0  0  0  0  0
   26.1582  -21.8226  -18.7991 C   0  0  0  0  0  0  0  0  0  0  0  0
   26.8876  -21.3082  -19.9928 C   0  0  0  0  0  0  0  0  0  0  0  0
   27.1401  -22.0465  -21.1493 C   0  0  0  0  0  0  0  0  0  0  0  0
   27.8177  -21.2788  -22.0167 N   0  0  0  0  0  0  0  0  0  0  0  0
   27.9906  -20.0832  -21.4246 C   0  0  0  0  0  0  0  0  0  0  0  0
   27.4303  -20.0964  -20.2020 N   0  0  0  0  0  0  0  0  0  0  0  0
   26.3609  -22.3735  -16.4373 C   0  0  0  0  0  0  0  0  0  0  0  0
   25.9507  -23.5404  -16.2362 O   0  0  0  0  0  0  0  0  0  0  0  0
   26.1195  -21.3092  -15.5269 N   0  0  0  0  0  0  0  0  0  0  0  0
   25.4168  -21.5216  -14.2830 C   0  0  1  0  0  0  0  0  0  0  0  0
   25.9480  -20.5755  -13.2628 C   0  0  0  0  0  0  0  0  0  0  0  0
   25.3619  -20.6573  -11.9362 C   0  0  0  0  0  0  0  0  0  0  0  0
   25.8779  -21.3546  -10.8767 C   0  0  0  0  0  0  0  0  0  0  0  0
   25.2603  -21.3928   -9.6540 C   0  0  0  0  0  0  0  0  0  0  0  0
   24.0735  -20.7096   -9.4642 C   0  0  0  0  0  0  0  0  0  0  0  0
   23.5373  -20.0038  -10.5118 C   0  0  0  0  0  0  0  0  0  0  0  0
   24.1671  -19.9773  -11.7229 C   0  0  0  0  0  0  0  0  0  0  0  0
   23.9591  -21.3459  -14.5245 C   0  0  0  0  0  0  0  0  0  0  0  0
   23.5390  -20.3439  -15.1521 O   0  0  0  0  0  0  0  0  0  0  0  0
   22.9986  -22.2858  -14.0631 N   0  0  0  0  0  0  0  0  0  0  0  0
   21.5679  -22.1757  -14.2405 C   0  0  1  0  0  0  0  0  0  0  0  0
   20.9244  -23.4969  -14.6010 C   0  0  0  0  0  0  0  0  0  0  0  0
   19.4892  -23.3809  -14.8543 C   0  0  0  0  0  0  0  0  0  0  0  0
   19.0686  -22.5243  -15.6661 O   0  0  0  0  0  0  0  0  0  0  0  0
   20.9040  -21.5511  -13.0824 C   0  0  0  0  0  0  0  0  0  0  0  0
   19.8818  -20.6564  -13.2711 O   0  0  0  0  0  0  0  0  0  0  0  0
   18.5618  -24.1918  -14.2249 O   0  0  0  0  0  0  0  0  0  0  0  0
   21.2738  -21.8377  -11.9276 O   0  0  0  0  0  0  0  0  0  0  0  0
  2  1  1  6
  3  4  1  0
  3  2  1  0
  4  8  1  0
  5  4  2  0
  5  6  1  0
  6  7  1  0
  8  7  2  0
  9  2  1  0
 10  9  2  0
 11  9  1  0
 12 11  1  0
 12 13  1  1
 13 14  1  0
 14 15  2  0
 15 16  1  0
 17 16  2  0
 18 17  1  0
 19 14  1  0
 19 18  2  0
 20 12  1  0
 21 20  2  0
 22 20  1  0
 23 27  1  0
 23 22  1  0
 23 24  1  1
 25 29  1  0
 25 24  1  0
 26 25  2  0
 27 28  1  0
 30 27  2  0
M  END
$$$$
