HFD.pdb
     RDKit          3D

 30 31  0  0  1  0  0  0  0  0999 V2000
   20.4247  -24.9976  -15.6489 N   0  0  0  0  0  0  0  0  0  0  0  0
   19.7400  -24.0735  -14.7744 C   0  0  1  0  0  0  0  0  0  0  0  0
   18.6963  -23.2923  -15.5166 C   0  0  0  0  0  0  0  0  0  0  0  0
   19.3370  -22.4597  -16.5738 C   0  0  0  0  0  0  0  0  0  0  0  0
   19.8174  -21.1639  -16.3829 C   0  0  0  0  0  0  0  0  0  0  0  0
   20.3258  -20.7131  -17.5401 N   0  0  0  0  0  0  0  0  0  0  0  0
   20.1715  -21.6988  -18.4425 C   0  0  0  0  0  0  0  0  0  0  0  0
   19.5747  -22.7557  -17.8632 N   0  0  0  0  0  0  0  0  0  0  0  0
   19.0827  -24.7694  -13.6214 C   0  0  0  0  0  0  0  0  0  0  0  0
   18.4548  -25.8199  -13.8906 O   0  0  0  0  0  0  0  0  0  0  0  0
   19.1771  -24.2503  -12.3018 N   0  0  0  0  0  0  0  0  0  0  0  0
   18.5744  -24.9270  -11.1771 C   0  0  1  0  0  0  0  0  0  0  0  0
   19.3820  -24.6463   -9.9576 C   0  0  0  0  0  0  0  0  0  0  0  0
   18.8645  -25.1664   -8.7040 C   0  0  0  0  0  0  0  0  0  0  0  0
   18.8865  -26.4789   -8.3141 C   0  0  0  0  0  0  0  0  0  0  0  0
   18.3679  -26.8964   -7.1164 C   0  0  0  0  0  0  0  0  0  0  0  0
   17.7981  -25.9746   -6.2579 C   0  0  0  0  0  0  0  0  0  0  0  0
   17.7647  -24.6534   -6.6274 C   0  0  0  0  0  0  0  0  0  0  0  0
   18.2864  -24.2562   -7.8249 C   0  0  0  0  0  0  0  0  0  0  0  0
   17.1638  -24.4714  -11.0484 C   0  0  0  0  0  0  0  0  0  0  0  0
   16.8853  -23.2500  -11.1203 O   0  0  0  0  0  0  0  0  0  0  0  0
   16.0922  -25.3813  -10.8416 N   0  0  0  0  0  0  0  0  0  0  0  0
   14.7014  -25.0160  -10.6919 C   0  0  1  0  0  0  0  0  0  0  0  0
   13.7634  -26.0535  -11.2692 C   0  0  0  0  0  0  0  0  0  0  0  0
   12.3540  -25.7256  -11.0612 C   0  0  0  0  0  0  0  0  0  0  0  0
   11.6409  -26.4707  -10.3497 O   0  0  0  0  0  0  0  0  0  0  0  0
   14.3523  -24.6903   -9.2975 C   0  0  0  0  0  0  0  0  0  0  0  0
   14.7618  -25.5059   -8.2737 O   0  0  0  0  0  0  0  0  0  0  0  0
   11.7661  -24.6079  -11.6259 O   0  0  0  0  0  0  0  0  0  0  0  0
   13.6822  -23.6698   -9.0491 O   0  0  0  0  0  0  0  0  0  0  0  0
  2  1  1  6
  3  4  1  0
  3  2  1  0
  4  8  1  0
  5  4  2  0
  5  6  1  0
  6  7  1  0
  8  7  2  0
  9  2  1  0
 10  9  2  0
 11  9  1  0
 12 11  1  0
 12 13  1  1
 13 14  1  0
 14 15  2  0
 15 16  1  0
 17 16  2  0
 18 17  1  0
 19 14  1  0
 19 18  2  0
 20 12  1  0
 21 20  2  0
 22 20  1  0
 23 27  1  0
 23 22  1  0
 23 24  1  1
 25 29  1  0
 25 24  1  0
 26 25  2  0
 27 28  1  0
 30 27  2  0
M  END
$$$$
