HFD.pdb
     RDKit          3D

 30 31  0  0  1  0  0  0  0  0999 V2000
   27.9727  -20.3857  -17.3523 N   0  0  0  0  0  0  0  0  0  0  0  0
   27.6593  -21.7834  -17.1626 C   0  0  1  0  0  0  0  0  0  0  0  0
   28.9029  -22.6217  -17.1335 C   0  0  0  0  0  0  0  0  0  0  0  0
   29.7448  -22.3285  -18.3280 C   0  0  0  0  0  0  0  0  0  0  0  0
   29.3112  -22.4292  -19.6502 C   0  0  0  0  0  0  0  0  0  0  0  0
   30.3227  -22.0958  -20.4667 N   0  0  0  0  0  0  0  0  0  0  0  0
   31.3717  -21.7912  -19.6814 C   0  0  0  0  0  0  0  0  0  0  0  0
   31.0271  -21.9304  -18.3888 N   0  0  0  0  0  0  0  0  0  0  0  0
   26.8944  -22.0232  -15.8965 C   0  0  0  0  0  0  0  0  0  0  0  0
   26.5791  -23.2114  -15.6537 O   0  0  0  0  0  0  0  0  0  0  0  0
   26.5537  -20.9483  -15.0314 N   0  0  0  0  0  0  0  0  0  0  0  0
   25.7693  -21.1574  -13.8367 C   0  0  1  0  0  0  0  0  0  0  0  0
   26.2990  -20.2824  -12.7541 C   0  0  0  0  0  0  0  0  0  0  0  0
   25.6476  -20.3865  -11.4601 C   0  0  0  0  0  0  0  0  0  0  0  0
   24.4125  -19.8860  -11.1451 C   0  0  0  0  0  0  0  0  0  0  0  0
   23.8664  -20.0153   -9.8950 C   0  0  0  0  0  0  0  0  0  0  0  0
   24.5721  -20.6712   -8.9035 C   0  0  0  0  0  0  0  0  0  0  0  0
   25.8121  -21.1813   -9.1959 C   0  0  0  0  0  0  0  0  0  0  0  0
   26.3400  -21.0426  -10.4474 C   0  0  0  0  0  0  0  0  0  0  0  0
   24.3415  -20.8806  -14.1510 C   0  0  0  0  0  0  0  0  0  0  0  0
   24.0160  -19.8121  -14.7226 O   0  0  0  0  0  0  0  0  0  0  0  0
   23.3050  -21.7956  -13.8231 N   0  0  0  0  0  0  0  0  0  0  0  0
   21.8901  -21.5541  -13.9960 C   0  0  1  0  0  0  0  0  0  0  0  0
   21.0977  -22.8337  -14.1521 C   0  0  0  0  0  0  0  0  0  0  0  0
   19.6945  -22.5973  -14.4873 C   0  0  0  0  0  0  0  0  0  0  0  0
   18.7931  -23.0513  -13.7448 O   0  0  0  0  0  0  0  0  0  0  0  0
   21.3310  -20.7003  -12.9327 C   0  0  0  0  0  0  0  0  0  0  0  0
   20.5774  -19.6004  -13.2537 O   0  0  0  0  0  0  0  0  0  0  0  0
   19.3150  -21.8807  -15.6081 O   0  0  0  0  0  0  0  0  0  0  0  0
   21.5448  -20.9799  -11.7374 O   0  0  0  0  0  0  0  0  0  0  0  0
  2  1  1  1
  3  4  1  0
  3  2  1  0
  4  8  1  0
  5  4  2  0
  5  6  1  0
  6  7  1  0
  8  7  2  0
  9  2  1  0
 10  9  2  0
 11  9  1  0
 12 11  1  0
 12 13  1  1
 13 14  1  0
 14 15  2  0
 15 16  1  0
 17 16  2  0
 18 17  1  0
 19 14  1  0
 19 18  2  0
 20 12  1  0
 21 20  2  0
 22 20  1  0
 23 27  1  0
 23 22  1  0
 23 24  1  1
 25 29  1  0
 25 24  1  0
 26 25  2  0
 27 28  1  0
 30 27  2  0
M  END
$$$$
