HFD.pdb
     RDKit          3D

 30 31  0  0  1  0  0  0  0  0999 V2000
   28.3937  -22.5098  -17.6014 N   0  0  0  0  0  0  0  0  0  0  0  0
   27.6623  -21.3259  -17.2125 C   0  0  1  0  0  0  0  0  0  0  0  0
   26.7646  -20.8525  -18.3171 C   0  0  0  0  0  0  0  0  0  0  0  0
   27.5801  -20.3235  -19.4470 C   0  0  0  0  0  0  0  0  0  0  0  0
   27.4714  -20.7462  -20.7721 C   0  0  0  0  0  0  0  0  0  0  0  0
   28.3530  -20.0650  -21.5201 N   0  0  0  0  0  0  0  0  0  0  0  0
   29.0046  -19.2310  -20.6897 C   0  0  0  0  0  0  0  0  0  0  0  0
   28.5409  -19.3837  -19.4365 N   0  0  0  0  0  0  0  0  0  0  0  0
   26.8296  -21.5542  -15.9877 C   0  0  0  0  0  0  0  0  0  0  0  0
   26.1394  -22.6000  -15.9713 O   0  0  0  0  0  0  0  0  0  0  0  0
   26.8351  -20.6233  -14.9138 N   0  0  0  0  0  0  0  0  0  0  0  0
   26.0751  -20.8545  -13.7075 C   0  0  1  0  0  0  0  0  0  0  0  0
   26.7057  -20.0992  -12.5895 C   0  0  0  0  0  0  0  0  0  0  0  0
   26.0897  -20.2432  -11.2819 C   0  0  0  0  0  0  0  0  0  0  0  0
   25.0586  -19.4838  -10.7969 C   0  0  0  0  0  0  0  0  0  0  0  0
   24.5351  -19.6731   -9.5448 C   0  0  0  0  0  0  0  0  0  0  0  0
   25.0529  -20.6608   -8.7276 C   0  0  0  0  0  0  0  0  0  0  0  0
   26.0867  -21.4344   -9.1924 C   0  0  0  0  0  0  0  0  0  0  0  0
   26.5954  -21.2310  -10.4430 C   0  0  0  0  0  0  0  0  0  0  0  0
   24.6640  -20.4490  -13.9496 C   0  0  0  0  0  0  0  0  0  0  0  0
   24.4068  -19.3384  -14.4739 O   0  0  0  0  0  0  0  0  0  0  0  0
   23.5683  -21.2849  -13.6037 N   0  0  0  0  0  0  0  0  0  0  0  0
   22.1726  -20.9263  -13.7215 C   0  0  1  0  0  0  0  0  0  0  0  0
   21.3985  -21.8872  -14.5974 C   0  0  0  0  0  0  0  0  0  0  0  0
   20.0111  -21.4763  -14.8058 C   0  0  0  0  0  0  0  0  0  0  0  0
   19.6142  -20.3765  -14.3555 O   0  0  0  0  0  0  0  0  0  0  0  0
   21.5241  -20.7510  -12.4097 C   0  0  0  0  0  0  0  0  0  0  0  0
   22.2040  -21.0502  -11.2569 O   0  0  0  0  0  0  0  0  0  0  0  0
   19.1041  -22.2643  -15.4915 O   0  0  0  0  0  0  0  0  0  0  0  0
   20.3532  -20.3295  -12.3491 O   0  0  0  0  0  0  0  0  0  0  0  0
  2  1  1  6
  3  4  1  0
  3  2  1  0
  4  8  1  0
  5  4  2  0
  5  6  1  0
  6  7  1  0
  8  7  2  0
  9  2  1  0
 10  9  2  0
 11  9  1  0
 12 11  1  0
 12 13  1  1
 13 14  1  0
 14 15  2  0
 15 16  1  0
 17 16  2  0
 18 17  1  0
 19 14  1  0
 19 18  2  0
 20 12  1  0
 21 20  2  0
 22 20  1  0
 23 27  1  0
 23 22  1  0
 23 24  1  1
 25 29  1  0
 25 24  1  0
 26 25  2  0
 27 28  1  0
 30 27  2  0
M  END
$$$$
