HFD.pdb
     RDKit          3D

 30 31  0  0  1  0  0  0  0  0999 V2000
   27.4512  -22.9576  -17.1986 N   0  0  0  0  0  0  0  0  0  0  0  0
   26.4600  -21.9064  -17.1795 C   0  0  1  0  0  0  0  0  0  0  0  0
   25.6079  -21.9384  -18.4137 C   0  0  0  0  0  0  0  0  0  0  0  0
   26.4276  -21.5925  -19.6096 C   0  0  0  0  0  0  0  0  0  0  0  0
   26.8227  -20.3001  -19.9558 C   0  0  0  0  0  0  0  0  0  0  0  0
   27.5440  -20.3534  -21.0862 N   0  0  0  0  0  0  0  0  0  0  0  0
   27.6046  -21.6477  -21.4478 C   0  0  0  0  0  0  0  0  0  0  0  0
   26.9316  -22.3998  -20.5587 N   0  0  0  0  0  0  0  0  0  0  0  0
   25.5649  -21.9966  -15.9811 C   0  0  0  0  0  0  0  0  0  0  0  0
   25.1431  -23.1393  -15.6868 O   0  0  0  0  0  0  0  0  0  0  0  0
   25.2236  -20.8378  -15.2325 N   0  0  0  0  0  0  0  0  0  0  0  0
   24.4498  -20.9232  -14.0158 C   0  0  1  0  0  0  0  0  0  0  0  0
   24.9313  -19.8825  -13.0655 C   0  0  0  0  0  0  0  0  0  0  0  0
   25.0660  -20.2860  -11.6766 C   0  0  0  0  0  0  0  0  0  0  0  0
   24.1114  -20.1387  -10.7059 C   0  0  0  0  0  0  0  0  0  0  0  0
   24.3160  -20.5361   -9.4106 C   0  0  0  0  0  0  0  0  0  0  0  0
   25.5225  -21.1081   -9.0519 C   0  0  0  0  0  0  0  0  0  0  0  0
   26.4942  -21.2659  -10.0078 C   0  0  0  0  0  0  0  0  0  0  0  0
   26.2722  -20.8638  -11.2935 C   0  0  0  0  0  0  0  0  0  0  0  0
   23.0098  -20.7670  -14.3563 C   0  0  0  0  0  0  0  0  0  0  0  0
   22.6474  -19.8985  -15.1863 O   0  0  0  0  0  0  0  0  0  0  0  0
   22.0024  -21.5777  -13.7675 N   0  0  0  0  0  0  0  0  0  0  0  0
   20.5845  -21.4730  -14.0302 C   0  0  1  0  0  0  0  0  0  0  0  0
   19.8901  -22.8173  -14.0121 C   0  0  0  0  0  0  0  0  0  0  0  0
   18.4687  -22.7286  -14.3423 C   0  0  0  0  0  0  0  0  0  0  0  0
   18.1183  -22.3422  -15.4815 O   0  0  0  0  0  0  0  0  0  0  0  0
   19.9166  -20.5094  -13.1372 C   0  0  0  0  0  0  0  0  0  0  0  0
   18.7461  -19.9069  -13.5217 O   0  0  0  0  0  0  0  0  0  0  0  0
   17.4790  -23.0599  -13.4344 O   0  0  0  0  0  0  0  0  0  0  0  0
   20.4185  -20.2416  -12.0287 O   0  0  0  0  0  0  0  0  0  0  0  0
  2  1  1  6
  3  4  1  0
  3  2  1  0
  4  8  1  0
  5  4  2  0
  5  6  1  0
  6  7  1  0
  8  7  2  0
  9  2  1  0
 10  9  2  0
 11  9  1  0
 12 11  1  0
 12 13  1  1
 13 14  1  0
 14 15  2  0
 15 16  1  0
 17 16  2  0
 18 17  1  0
 19 14  1  0
 19 18  2  0
 20 12  1  0
 21 20  2  0
 22 20  1  0
 23 27  1  0
 23 22  1  0
 23 24  1  1
 25 29  1  0
 25 24  1  0
 26 25  2  0
 27 28  1  0
 30 27  2  0
M  END
$$$$
