HFD.pdb
     RDKit          3D

 30 31  0  0  1  0  0  0  0  0999 V2000
   26.5087  -21.5609  -13.2550 N   0  0  0  0  0  0  0  0  0  0  0  0
   25.8234  -20.6914  -12.3266 C   0  0  1  0  0  0  0  0  0  0  0  0
   24.3395  -20.7232  -12.5440 C   0  0  0  0  0  0  0  0  0  0  0  0
   24.0077  -20.1667  -13.8863 C   0  0  0  0  0  0  0  0  0  0  0  0
   24.0872  -18.8167  -14.2290 C   0  0  0  0  0  0  0  0  0  0  0  0
   23.7155  -18.6700  -15.5101 N   0  0  0  0  0  0  0  0  0  0  0  0
   23.4078  -19.8968  -15.9683 C   0  0  0  0  0  0  0  0  0  0  0  0
   23.5829  -20.8039  -14.9909 N   0  0  0  0  0  0  0  0  0  0  0  0
   26.1030  -21.0563  -10.9003 C   0  0  0  0  0  0  0  0  0  0  0  0
   25.8577  -22.2402  -10.5708 O   0  0  0  0  0  0  0  0  0  0  0  0
   26.6175  -20.0977   -9.9860 N   0  0  0  0  0  0  0  0  0  0  0  0
   26.9272  -20.4456   -8.6188 C   0  0  1  0  0  0  0  0  0  0  0  0
   27.9398  -19.4868   -8.0959 C   0  0  0  0  0  0  0  0  0  0  0  0
   28.2601  -19.5895   -6.6829 C   0  0  0  0  0  0  0  0  0  0  0  0
   27.8213  -18.7420   -5.7008 C   0  0  0  0  0  0  0  0  0  0  0  0
   28.1755  -18.8978   -4.3863 C   0  0  0  0  0  0  0  0  0  0  0  0
   29.0043  -19.9417   -4.0190 C   0  0  0  0  0  0  0  0  0  0  0  0
   29.4565  -20.8038   -4.9861 C   0  0  0  0  0  0  0  0  0  0  0  0
   29.0930  -20.6326   -6.2909 C   0  0  0  0  0  0  0  0  0  0  0  0
   25.6664  -20.4360   -7.8285 C   0  0  0  0  0  0  0  0  0  0  0  0
   24.8194  -19.5265   -8.0013 O   0  0  0  0  0  0  0  0  0  0  0  0
   25.3731  -21.4359   -6.8626 N   0  0  0  0  0  0  0  0  0  0  0  0
   24.1798  -21.4877   -6.0478 C   0  0  1  0  0  0  0  0  0  0  0  0
   23.4365  -22.7980   -6.1897 C   0  0  0  0  0  0  0  0  0  0  0  0
   22.2248  -22.8566   -5.3739 C   0  0  0  0  0  0  0  0  0  0  0  0
   21.6913  -21.7950   -4.9763 O   0  0  0  0  0  0  0  0  0  0  0  0
   24.4500  -21.1718   -4.6338 C   0  0  0  0  0  0  0  0  0  0  0  0
   25.5850  -21.6429   -4.0248 O   0  0  0  0  0  0  0  0  0  0  0  0
   21.6331  -24.0554   -5.0180 O   0  0  0  0  0  0  0  0  0  0  0  0
   23.6432  -20.4739   -3.9900 O   0  0  0  0  0  0  0  0  0  0  0  0
  2  1  1  6
  3  4  1  0
  3  2  1  0
  4  8  1  0
  5  4  2  0
  5  6  1  0
  6  7  1  0
  8  7  2  0
  9  2  1  0
 10  9  2  0
 11  9  1  0
 12 11  1  0
 12 13  1  1
 13 14  1  0
 14 15  2  0
 15 16  1  0
 17 16  2  0
 18 17  1  0
 19 14  1  0
 19 18  2  0
 20 12  1  0
 21 20  2  0
 22 20  1  0
 23 27  1  0
 23 22  1  0
 23 24  1  1
 25 29  1  0
 25 24  1  0
 26 25  2  0
 27 28  1  0
 30 27  2  0
M  END
$$$$
