HFD.pdb
     RDKit          3D

 30 31  0  0  1  0  0  0  0  0999 V2000
   27.8653  -22.1805  -17.0602 N   0  0  0  0  0  0  0  0  0  0  0  0
   27.1582  -21.0618  -16.4805 C   0  0  1  0  0  0  0  0  0  0  0  0
   26.3478  -20.3352  -17.5127 C   0  0  0  0  0  0  0  0  0  0  0  0
   27.2498  -19.6783  -18.5009 C   0  0  0  0  0  0  0  0  0  0  0  0
   27.3009  -19.9892  -19.8600 C   0  0  0  0  0  0  0  0  0  0  0  0
   28.2213  -19.2112  -20.4503 N   0  0  0  0  0  0  0  0  0  0  0  0
   28.7409  -18.4264  -19.4892 C   0  0  0  0  0  0  0  0  0  0  0  0
   28.1570  -18.7051  -18.3101 N   0  0  0  0  0  0  0  0  0  0  0  0
   26.2448  -21.4856  -15.3706 C   0  0  0  0  0  0  0  0  0  0  0  0
   25.5677  -22.5206  -15.5721 O   0  0  0  0  0  0  0  0  0  0  0  0
   26.1641  -20.7406  -14.1630 N   0  0  0  0  0  0  0  0  0  0  0  0
   25.2354  -21.0953  -13.1152 C   0  0  1  0  0  0  0  0  0  0  0  0
   25.5641  -20.3082  -11.8943 C   0  0  0  0  0  0  0  0  0  0  0  0
   24.7408  -20.5550  -10.7234 C   0  0  0  0  0  0  0  0  0  0  0  0
   25.0782  -21.3542   -9.6638 C   0  0  0  0  0  0  0  0  0  0  0  0
   24.2417  -21.5468   -8.5957 C   0  0  0  0  0  0  0  0  0  0  0  0
   23.0094  -20.9207   -8.5688 C   0  0  0  0  0  0  0  0  0  0  0  0
   22.6495  -20.1150   -9.6197 C   0  0  0  0  0  0  0  0  0  0  0  0
   23.4963  -19.9350  -10.6755 C   0  0  0  0  0  0  0  0  0  0  0  0
   23.8516  -20.8470  -13.6025 C   0  0  0  0  0  0  0  0  0  0  0  0
   23.5640  -19.7614  -14.1621 O   0  0  0  0  0  0  0  0  0  0  0  0
   22.8160  -21.8090  -13.4572 N   0  0  0  0  0  0  0  0  0  0  0  0
   21.4398  -21.6241  -13.8600 C   0  0  1  0  0  0  0  0  0  0  0  0
   20.9268  -22.7634  -14.7135 C   0  0  0  0  0  0  0  0  0  0  0  0
   19.5691  -22.5388  -15.2069 C   0  0  0  0  0  0  0  0  0  0  0  0
   19.0402  -21.4101  -15.0794 O   0  0  0  0  0  0  0  0  0  0  0  0
   20.5485  -21.3648  -12.7152 C   0  0  0  0  0  0  0  0  0  0  0  0
   19.7608  -20.2423  -12.6926 O   0  0  0  0  0  0  0  0  0  0  0  0
   18.8330  -23.5371  -15.8196 O   0  0  0  0  0  0  0  0  0  0  0  0
   20.5116  -22.1692  -11.7644 O   0  0  0  0  0  0  0  0  0  0  0  0
  2  1  1  6
  3  4  1  0
  3  2  1  0
  4  8  1  0
  5  4  2  0
  5  6  1  0
  6  7  1  0
  8  7  2  0
  9  2  1  0
 10  9  2  0
 11  9  1  0
 12 11  1  0
 12 13  1  1
 13 14  1  0
 14 15  2  0
 15 16  1  0
 17 16  2  0
 18 17  1  0
 19 14  1  0
 19 18  2  0
 20 12  1  0
 21 20  2  0
 22 20  1  0
 23 27  1  0
 23 22  1  0
 23 24  1  1
 25 29  1  0
 25 24  1  0
 26 25  2  0
 27 28  1  0
 30 27  2  0
M  END
$$$$
