HFD.pdb
     RDKit          3D

 30 31  0  0  1  0  0  0  0  0999 V2000
   23.7823  -12.6280  -18.8565 N   0  0  0  0  0  0  0  0  0  0  0  0
   23.3205  -11.2913  -19.1525 C   0  0  1  0  0  0  0  0  0  0  0  0
   21.9280  -11.3068  -19.7102 C   0  0  0  0  0  0  0  0  0  0  0  0
   21.9210  -11.9623  -21.0488 C   0  0  0  0  0  0  0  0  0  0  0  0
   22.9364  -11.8425  -21.9980 C   0  0  0  0  0  0  0  0  0  0  0  0
   22.6042  -12.5579  -23.0837 N   0  0  0  0  0  0  0  0  0  0  0  0
   21.4077  -13.1175  -22.8291 C   0  0  0  0  0  0  0  0  0  0  0  0
   20.9912  -12.7605  -21.6010 N   0  0  0  0  0  0  0  0  0  0  0  0
   23.3384  -10.4074  -17.9426 C   0  0  0  0  0  0  0  0  0  0  0  0
   22.8440  -10.8873  -16.8959 O   0  0  0  0  0  0  0  0  0  0  0  0
   23.8896   -9.0987  -17.9991 N   0  0  0  0  0  0  0  0  0  0  0  0
   23.8626   -8.2157  -16.8564 C   0  0  1  0  0  0  0  0  0  0  0  0
   25.2523   -7.7688  -16.5609 C   0  0  0  0  0  0  0  0  0  0  0  0
   26.1977   -8.8029  -16.1780 C   0  0  0  0  0  0  0  0  0  0  0  0
   27.3066   -9.1747  -16.8902 C   0  0  0  0  0  0  0  0  0  0  0  0
   28.1490  -10.1697  -16.4683 C   0  0  0  0  0  0  0  0  0  0  0  0
   27.8866  -10.8332  -15.2841 C   0  0  0  0  0  0  0  0  0  0  0  0
   26.7809  -10.4778  -14.5533 C   0  0  0  0  0  0  0  0  0  0  0  0
   25.9529   -9.4838  -14.9897 C   0  0  0  0  0  0  0  0  0  0  0  0
   22.9463   -7.0817  -17.1535 C   0  0  0  0  0  0  0  0  0  0  0  0
   23.0496   -6.4522  -18.2340 O   0  0  0  0  0  0  0  0  0  0  0  0
   21.9351   -6.6699  -16.2442 N   0  0  0  0  0  0  0  0  0  0  0  0
   20.9616   -5.6296  -16.4904 C   0  0  1  0  0  0  0  0  0  0  0  0
   19.9664   -6.0087  -17.5653 C   0  0  0  0  0  0  0  0  0  0  0  0
   18.9435   -4.9866  -17.7803 C   0  0  0  0  0  0  0  0  0  0  0  0
   19.1751   -4.0287  -18.5540 O   0  0  0  0  0  0  0  0  0  0  0  0
   20.2828   -5.1912  -15.2579 C   0  0  0  0  0  0  0  0  0  0  0  0
   20.1173   -6.0631  -14.2122 O   0  0  0  0  0  0  0  0  0  0  0  0
   17.7103   -5.0350  -17.1553 O   0  0  0  0  0  0  0  0  0  0  0  0
   19.8578   -4.0235  -15.1667 O   0  0  0  0  0  0  0  0  0  0  0  0
  2  1  1  1
  3  4  1  0
  3  2  1  0
  4  8  1  0
  5  4  2  0
  5  6  1  0
  6  7  1  0
  8  7  2  0
  9  2  1  0
 10  9  2  0
 11  9  1  0
 12 11  1  0
 12 13  1  6
 13 14  1  0
 14 15  2  0
 15 16  1  0
 17 16  2  0
 18 17  1  0
 19 14  1  0
 19 18  2  0
 20 12  1  0
 21 20  2  0
 22 20  1  0
 23 27  1  0
 23 22  1  0
 23 24  1  6
 25 29  1  0
 25 24  1  0
 26 25  2  0
 27 28  1  0
 30 27  2  0
M  END
$$$$
