HFD.pdb
     RDKit          3D

 30 31  0  0  1  0  0  0  0  0999 V2000
    9.7529  -19.1146  -46.1267 N   0  0  0  0  0  0  0  0  0  0  0  0
   10.6274  -18.7447  -45.0376 C   0  0  1  0  0  0  0  0  0  0  0  0
   12.0031  -18.4100  -45.5330 C   0  0  0  0  0  0  0  0  0  0  0  0
   12.8311  -17.8713  -44.4167 C   0  0  0  0  0  0  0  0  0  0  0  0
   13.7182  -16.8005  -44.5299 C   0  0  0  0  0  0  0  0  0  0  0  0
   14.2954  -16.5854  -43.3376 N   0  0  0  0  0  0  0  0  0  0  0  0
   13.7867  -17.4973  -42.4895 C   0  0  0  0  0  0  0  0  0  0  0  0
   12.9018  -18.2762  -43.1370 N   0  0  0  0  0  0  0  0  0  0  0  0
   10.1019  -17.5730  -44.2652 C   0  0  0  0  0  0  0  0  0  0  0  0
   10.0236  -16.4874  -44.8862 O   0  0  0  0  0  0  0  0  0  0  0  0
    9.7191  -17.7054  -42.9029 N   0  0  0  0  0  0  0  0  0  0  0  0
   10.4621  -17.0661  -41.8421 C   0  0  1  0  0  0  0  0  0  0  0  0
    9.5434  -16.8091  -40.6985 C   0  0  0  0  0  0  0  0  0  0  0  0
    8.2644  -17.4970  -40.7278 C   0  0  0  0  0  0  0  0  0  0  0  0
    7.7208  -18.1264  -41.8157 C   0  0  0  0  0  0  0  0  0  0  0  0
    6.5002  -18.7475  -41.7689 C   0  0  0  0  0  0  0  0  0  0  0  0
    5.7771  -18.7494  -40.5905 C   0  0  0  0  0  0  0  0  0  0  0  0
    6.3019  -18.1250  -39.4870 C   0  0  0  0  0  0  0  0  0  0  0  0
    7.5197  -17.5113  -39.5527 C   0  0  0  0  0  0  0  0  0  0  0  0
   11.6087  -17.9392  -41.4718 C   0  0  0  0  0  0  0  0  0  0  0  0
   11.7023  -18.3996  -40.3083 O   0  0  0  0  0  0  0  0  0  0  0  0
   12.6277  -18.2819  -42.4009 N   0  0  0  0  0  0  0  0  0  0  0  0
   12.8372  -17.6494  -43.6841 C   0  0  1  0  0  0  0  0  0  0  0  0
   13.3819  -18.6072  -44.7211 C   0  0  0  0  0  0  0  0  0  0  0  0
   14.1658  -17.9383  -45.7581 C   0  0  0  0  0  0  0  0  0  0  0  0
   14.9616  -18.6029  -46.4615 O   0  0  0  0  0  0  0  0  0  0  0  0
   11.6326  -16.9546  -44.1721 C   0  0  0  0  0  0  0  0  0  0  0  0
   11.6882  -15.6253  -44.5049 O   0  0  0  0  0  0  0  0  0  0  0  0
   14.0627  -16.5799  -45.9989 O   0  0  0  0  0  0  0  0  0  0  0  0
   10.5597  -17.5785  -44.2822 O   0  0  0  0  0  0  0  0  0  0  0  0
  2  1  1  6
  3  4  1  0
  3  2  1  0
  4  8  1  0
  5  4  2  0
  5  6  1  0
  6  7  1  0
  8  7  2  0
  9  2  1  0
 10  9  2  0
 11  9  1  0
 12 11  1  0
 12 13  1  1
 13 14  1  0
 14 15  2  0
 15 16  1  0
 17 16  2  0
 18 17  1  0
 19 14  1  0
 19 18  2  0
 20 12  1  0
 21 20  2  0
 22 20  1  0
 23 27  1  0
 23 22  1  0
 23 24  1  6
 25 29  1  0
 25 24  1  0
 26 25  2  0
 27 28  1  0
 30 27  2  0
M  END
$$$$
