KRM.pdb
     RDKit          3D

 29 28  0  0  1  0  0  0  0  0999 V2000
   19.0388  -24.5354  -12.3526 N   0  0  0  0  0  0  0  0  0  0  0  0
   18.4227  -23.2495  -11.9623 C   0  0  1  0  0  0  0  0  0  0  0  0
   18.1097  -23.2767  -10.4889 C   0  0  0  0  0  0  0  0  0  0  0  0
   17.9458  -24.6612   -9.9426 C   0  0  0  0  0  0  0  0  0  0  0  0
   16.5698  -25.2145  -10.1985 C   0  0  0  0  0  0  0  0  0  0  0  0
   16.4012  -26.6055   -9.6298 C   0  0  0  0  0  0  0  0  0  0  0  0
   15.0402  -27.0365   -9.8827 N   0  0  0  0  0  0  0  0  0  0  0  0
   19.3005  -22.1367  -12.3518 C   0  0  0  0  0  0  0  0  0  0  0  0
   19.0154  -20.9616  -12.1015 O   0  0  0  0  0  0  0  0  0  0  0  0
   27.4361  -22.4749  -15.3112 N   0  0  0  0  0  0  0  0  0  0  0  0
   26.3292  -22.2559  -16.1649 C   0  0  0  0  0  0  0  0  0  0  0  0
   26.4057  -22.5592  -17.4081 N   0  0  0  0  0  0  0  0  0  0  0  0
   25.1002  -21.6964  -15.6844 N   0  0  0  0  0  0  0  0  0  0  0  0
   25.0645  -21.0715  -14.3925 C   0  0  0  0  0  0  0  0  0  0  0  0
   23.6446  -20.6122  -14.1267 C   0  0  0  0  0  0  0  0  0  0  0  0
   22.7974  -21.7970  -13.7647 C   0  0  0  0  0  0  0  0  0  0  0  0
   21.3876  -21.3412  -13.4894 C   0  0  2  0  0  0  0  0  0  0  0  0
   20.5201  -22.4099  -13.0395 N   0  0  0  0  0  0  0  0  0  0  0  0
   20.8439  -20.7603  -14.7480 C   0  0  0  0  0  0  0  0  0  0  0  0
   20.6767  -21.4580  -15.7798 O   0  0  0  0  0  0  0  0  0  0  0  0
   25.6203  -22.4034  -18.0739 C   0  0  0  0  0  0  0  0  0  0  0  0
   15.5939  -18.5310  -15.1054 S   0  0  0  0  0  0  0  0  0  0  0  0
   16.1805  -17.1853  -16.1797 C   0  0  0  0  0  0  0  0  0  0  0  0
   17.8336  -17.5809  -16.7479 C   0  0  0  0  0  0  0  0  0  0  0  0
   18.6084  -18.3487  -15.7564 C   0  0  1  0  0  0  0  0  0  0  0  0
   19.9857  -18.8023  -16.0976 N   0  0  0  0  0  0  0  0  0  0  0  0
   20.4947  -19.3865  -14.8204 C   0  0  0  0  0  0  0  0  0  0  0  0
   20.9641  -17.8017  -16.4878 O   0  0  0  0  0  0  0  0  0  0  0  0
   20.9393  -17.2200  -17.5952 O   0  0  0  0  0  0  0  0  0  0  0  0
  2  3  1  0
  2  1  1  1
  3  4  1  0
  4  5  1  0
  5  6  1  0
  6  7  1  0
  8  2  1  0
  8  9  2  0
 10 11  1  0
 11 12  2  0
 13 11  1  0
 13 14  1  0
 15 16  1  0
 15 14  1  0
 17 16  1  6
 17 19  1  0
 17 18  1  0
 18  8  1  0
 19 26  1  0
 20 19  2  0
 22 23  1  0
 22 21  1  0
 23 24  1  0
 25 24  1  6
 25 27  1  0
 26 25  1  0
 27 28  2  0
 27 29  1  0
M  END
$$$$
