KRM.pdb
     RDKit          3D

 29 28  0  0  1  0  0  0  0  0999 V2000
   19.1575  -19.3026  -16.0398 N   0  0  0  0  0  0  0  0  0  0  0  0
   19.2181  -20.2951  -14.9459 C   0  0  1  0  0  0  0  0  0  0  0  0
   18.0866  -21.2771  -15.1042 C   0  0  0  0  0  0  0  0  0  0  0  0
   16.7350  -20.6330  -15.0867 C   0  0  0  0  0  0  0  0  0  0  0  0
   16.7489  -19.3007  -14.3869 C   0  0  0  0  0  0  0  0  0  0  0  0
   15.3809  -18.6566  -14.3627 C   0  0  0  0  0  0  0  0  0  0  0  0
   14.5198  -19.4537  -13.5112 N   0  0  0  0  0  0  0  0  0  0  0  0
   20.5431  -20.9308  -14.9213 C   0  0  0  0  0  0  0  0  0  0  0  0
   20.8494  -21.7696  -14.0683 O   0  0  0  0  0  0  0  0  0  0  0  0
   25.2515  -24.5838  -14.8900 N   0  0  0  0  0  0  0  0  0  0  0  0
   26.1142  -24.6812  -16.0072 C   0  0  0  0  0  0  0  0  0  0  0  0
   27.1720  -25.4025  -15.9423 N   0  0  0  0  0  0  0  0  0  0  0  0
   25.8466  -23.9905  -17.2342 N   0  0  0  0  0  0  0  0  0  0  0  0
   24.5867  -23.3256  -17.4118 C   0  0  0  0  0  0  0  0  0  0  0  0
   24.8056  -21.8371  -17.2279 C   0  0  0  0  0  0  0  0  0  0  0  0
   23.4838  -21.1284  -17.2831 C   0  0  0  0  0  0  0  0  0  0  0  0
   22.8228  -21.1918  -15.9303 C   0  0  2  0  0  0  0  0  0  0  0  0
   21.5121  -20.5765  -15.9064 N   0  0  0  0  0  0  0  0  0  0  0  0
   23.7117  -20.4989  -14.9573 C   0  0  0  0  0  0  0  0  0  0  0  0
   23.8515  -19.2501  -14.9629 O   0  0  0  0  0  0  0  0  0  0  0  0
   27.8070  -25.5431  -16.7555 C   0  0  0  0  0  0  0  0  0  0  0  0
   26.6092  -20.8754   -7.7529 S   0  0  0  0  0  0  0  0  0  0  0  0
   25.5912  -21.5517   -9.1003 C   0  0  0  0  0  0  0  0  0  0  0  0
   26.0134  -20.7045  -10.6221 C   0  0  0  0  0  0  0  0  0  0  0  0
   25.1683  -21.1170  -11.7572 C   0  0  1  0  0  0  0  0  0  0  0  0
   25.4373  -20.5552  -13.1105 N   0  0  0  0  0  0  0  0  0  0  0  0
   24.4354  -21.2366  -13.9844 C   0  0  0  0  0  0  0  0  0  0  0  0
   26.7300  -20.8155  -13.7204 O   0  0  0  0  0  0  0  0  0  0  0  0
   26.9085  -21.6988  -14.5883 O   0  0  0  0  0  0  0  0  0  0  0  0
  2  3  1  0
  2  1  1  6
  3  4  1  0
  4  5  1  0
  5  6  1  0
  6  7  1  0
  8  2  1  0
  8  9  2  0
 10 11  1  0
 11 12  2  0
 13 11  1  0
 13 14  1  0
 15 16  1  0
 15 14  1  0
 17 16  1  6
 17 19  1  0
 17 18  1  0
 18  8  1  0
 19 26  1  0
 20 19  2  0
 22 23  1  0
 22 21  1  0
 23 24  1  0
 25 24  1  1
 25 27  1  0
 26 25  1  0
 27 28  2  0
 27 29  1  0
M  END
$$$$
