KRM.pdb
     RDKit          3D

 29 28  0  0  1  0  0  0  0  0999 V2000
   28.1516  -23.2705  -16.4687 N   0  0  0  0  0  0  0  0  0  0  0  0
   26.8768  -23.0980  -17.1969 C   0  0  1  0  0  0  0  0  0  0  0  0
   26.1032  -24.3902  -17.1552 C   0  0  0  0  0  0  0  0  0  0  0  0
   26.9213  -25.5841  -17.5390 C   0  0  0  0  0  0  0  0  0  0  0  0
   26.6157  -26.0584  -18.9342 C   0  0  0  0  0  0  0  0  0  0  0  0
   27.3912  -27.3059  -19.2936 C   0  0  0  0  0  0  0  0  0  0  0  0
   27.0397  -27.6833  -20.6486 N   0  0  0  0  0  0  0  0  0  0  0  0
   26.1355  -21.9562  -16.6425 C   0  0  0  0  0  0  0  0  0  0  0  0
   24.9873  -21.6840  -17.0067 O   0  0  0  0  0  0  0  0  0  0  0  0
   24.7022  -21.1717  -10.8772 N   0  0  0  0  0  0  0  0  0  0  0  0
   25.6373  -20.5496  -10.0167 C   0  0  0  0  0  0  0  0  0  0  0  0
   25.2739  -20.1470   -8.8551 N   0  0  0  0  0  0  0  0  0  0  0  0
   27.0033  -20.3474  -10.4007 N   0  0  0  0  0  0  0  0  0  0  0  0
   27.3022  -19.5674  -11.5683 C   0  0  0  0  0  0  0  0  0  0  0  0
   26.5282  -20.1457  -12.7361 C   0  0  0  0  0  0  0  0  0  0  0  0
   26.8018  -19.3317  -13.9671 C   0  0  0  0  0  0  0  0  0  0  0  0
   26.0906  -19.9469  -15.1446 C   0  0  2  0  0  0  0  0  0  0  0  0
   26.7501  -21.1311  -15.6544 N   0  0  0  0  0  0  0  0  0  0  0  0
   26.0194  -18.9195  -16.2200 C   0  0  0  0  0  0  0  0  0  0  0  0
   27.0232  -18.6175  -16.9131 O   0  0  0  0  0  0  0  0  0  0  0  0
   25.9209  -19.6576   -8.2022 C   0  0  0  0  0  0  0  0  0  0  0  0
   25.2421  -20.6100  -20.6362 S   0  0  0  0  0  0  0  0  0  0  0  0
   25.1309  -18.9905  -21.4570 C   0  0  0  0  0  0  0  0  0  0  0  0
   24.8488  -17.7322  -20.2125 C   0  0  0  0  0  0  0  0  0  0  0  0
   24.9689  -18.2526  -18.8385 C   0  0  1  0  0  0  0  0  0  0  0  0
   24.6889  -17.3489  -17.6878 N   0  0  0  0  0  0  0  0  0  0  0  0
   24.8025  -18.2435  -16.4968 C   0  0  0  0  0  0  0  0  0  0  0  0
   23.3738  -16.7384  -17.5949 O   0  0  0  0  0  0  0  0  0  0  0  0
   22.4754  -17.1674  -16.8372 O   0  0  0  0  0  0  0  0  0  0  0  0
  2  3  1  0
  2  1  1  1
  3  4  1  0
  4  5  1  0
  5  6  1  0
  6  7  1  0
  8  2  1  0
  8  9  2  0
 10 11  1  0
 11 12  2  0
 13 11  1  0
 13 14  1  0
 15 16  1  0
 15 14  1  0
 17 16  1  1
 17 19  1  0
 17 18  1  0
 18  8  1  0
 19 26  1  0
 20 19  2  0
 22 23  1  0
 22 21  1  0
 23 24  1  0
 25 24  1  1
 25 27  1  0
 26 25  1  0
 27 28  2  0
 27 29  1  0
M  END
$$$$
