KRM.pdb
     RDKit          3D

 29 28  0  0  1  0  0  0  0  0999 V2000
   26.9222  -20.8383  -17.4429 N   0  0  0  0  0  0  0  0  0  0  0  0
   27.9409  -20.6437  -18.4963 C   0  0  1  0  0  0  0  0  0  0  0  0
   27.8791  -21.7961  -19.4648 C   0  0  0  0  0  0  0  0  0  0  0  0
   28.0252  -23.1330  -18.8064 C   0  0  0  0  0  0  0  0  0  0  0  0
   29.1545  -23.1569  -17.8120 C   0  0  0  0  0  0  0  0  0  0  0  0
   29.3350  -24.5230  -17.1890 C   0  0  0  0  0  0  0  0  0  0  0  0
   30.3765  -24.4289  -16.1848 N   0  0  0  0  0  0  0  0  0  0  0  0
   27.7539  -19.3335  -19.1359 C   0  0  0  0  0  0  0  0  0  0  0  0
   28.4783  -18.9478  -20.0586 O   0  0  0  0  0  0  0  0  0  0  0  0
   19.9897  -15.5767  -19.1664 N   0  0  0  0  0  0  0  0  0  0  0  0
   20.3232  -16.6543  -20.0205 C   0  0  0  0  0  0  0  0  0  0  0  0
   19.4099  -17.2415  -20.7020 N   0  0  0  0  0  0  0  0  0  0  0  0
   21.6701  -17.1250  -20.1566 N   0  0  0  0  0  0  0  0  0  0  0  0
   22.7134  -16.5195  -19.3782 C   0  0  0  0  0  0  0  0  0  0  0  0
   24.0280  -17.1713  -19.7581 C   0  0  0  0  0  0  0  0  0  0  0  0
   25.1317  -16.5907  -18.9229 C   0  0  0  0  0  0  0  0  0  0  0  0
   26.4464  -17.2039  -19.3311 C   0  0  2  0  0  0  0  0  0  0  0  0
   26.7084  -18.4736  -18.6860 N   0  0  0  0  0  0  0  0  0  0  0  0
   27.5257  -16.2398  -18.9808 C   0  0  0  0  0  0  0  0  0  0  0  0
   27.7635  -15.9179  -17.7896 O   0  0  0  0  0  0  0  0  0  0  0  0
   19.6087  -18.0467  -21.3317 C   0  0  0  0  0  0  0  0  0  0  0  0
   34.8468  -14.9466  -19.3440 S   0  0  0  0  0  0  0  0  0  0  0  0
   33.3040  -15.9016  -19.4744 C   0  0  0  0  0  0  0  0  0  0  0  0
   31.9178  -14.7670  -19.4170 C   0  0  0  0  0  0  0  0  0  0  0  0
   30.6163  -15.4522  -19.5145 C   0  0  1  0  0  0  0  0  0  0  0  0
   29.3719  -14.6427  -19.6387 N   0  0  0  0  0  0  0  0  0  0  0  0
   28.3264  -15.6493  -19.9931 C   0  0  0  0  0  0  0  0  0  0  0  0
   29.3092  -13.6303  -20.6789 O   0  0  0  0  0  0  0  0  0  0  0  0
   28.6373  -13.7691  -21.7251 O   0  0  0  0  0  0  0  0  0  0  0  0
  2  3  1  0
  2  1  1  1
  3  4  1  0
  4  5  1  0
  5  6  1  0
  6  7  1  0
  8  2  1  0
  8  9  2  0
 10 11  1  0
 11 12  2  0
 13 11  1  0
 13 14  1  0
 15 16  1  0
 15 14  1  0
 17 16  1  1
 17 19  1  0
 17 18  1  0
 18  8  1  0
 19 26  1  0
 20 19  2  0
 22 23  1  0
 22 21  1  0
 23 24  1  0
 25 24  1  1
 25 27  1  0
 26 25  1  0
 27 28  2  0
 27 29  1  0
M  END
$$$$
