KRM.pdb
     RDKit          3D

 29 28  0  0  1  0  0  0  0  0999 V2000
   29.5241  -17.4432  -20.5349 N   0  0  0  0  0  0  0  0  0  0  0  0
   29.6364  -16.0523  -20.0471 C   0  0  1  0  0  0  0  0  0  0  0  0
   31.0008  -15.5146  -20.3922 C   0  0  0  0  0  0  0  0  0  0  0  0
   32.1193  -16.4067  -19.9507 C   0  0  0  0  0  0  0  0  0  0  0  0
   33.3645  -16.2069  -20.7720 C   0  0  0  0  0  0  0  0  0  0  0  0
   34.5064  -17.0758  -20.2946 C   0  0  0  0  0  0  0  0  0  0  0  0
   35.6620  -16.8027  -21.1266 N   0  0  0  0  0  0  0  0  0  0  0  0
   28.5360  -15.2425  -20.5892 C   0  0  0  0  0  0  0  0  0  0  0  0
   28.6606  -14.5808  -21.6244 O   0  0  0  0  0  0  0  0  0  0  0  0
   20.1672  -13.9314  -19.1557 N   0  0  0  0  0  0  0  0  0  0  0  0
   20.3767  -13.6656  -20.5295 C   0  0  0  0  0  0  0  0  0  0  0  0
   19.4865  -13.0391  -21.2066 N   0  0  0  0  0  0  0  0  0  0  0  0
   21.5699  -14.0779  -21.2081 N   0  0  0  0  0  0  0  0  0  0  0  0
   22.5735  -14.8130  -20.4916 C   0  0  0  0  0  0  0  0  0  0  0  0
   23.7707  -13.9061  -20.2874 C   0  0  0  0  0  0  0  0  0  0  0  0
   24.8854  -14.6873  -19.6552 C   0  0  0  0  0  0  0  0  0  0  0  0
   26.1565  -14.4699  -20.4350 C   0  0  2  0  0  0  0  0  0  0  0  0
   27.2828  -15.2123  -19.9084 N   0  0  0  0  0  0  0  0  0  0  0  0
   26.4660  -13.0138  -20.4026 C   0  0  0  0  0  0  0  0  0  0  0  0
   26.8620  -12.4453  -19.3541 O   0  0  0  0  0  0  0  0  0  0  0  0
   19.5944  -12.8330  -22.2216 C   0  0  0  0  0  0  0  0  0  0  0  0
   29.0830   -9.4923  -25.4120 S   0  0  0  0  0  0  0  0  0  0  0  0
   29.6435   -9.1243  -23.7210 C   0  0  0  0  0  0  0  0  0  0  0  0
   28.2275   -9.1654  -22.6232 C   0  0  0  0  0  0  0  0  0  0  0  0
   27.7753  -10.5369  -22.3276 C   0  0  1  0  0  0  0  0  0  0  0  0
   26.5489  -10.7410  -21.5068 N   0  0  0  0  0  0  0  0  0  0  0  0
   26.3213  -12.2162  -21.5677 C   0  0  0  0  0  0  0  0  0  0  0  0
   25.3084  -10.1344  -21.9585 O   0  0  0  0  0  0  0  0  0  0  0  0
   25.1216   -8.8975  -21.9759 O   0  0  0  0  0  0  0  0  0  0  0  0
  2  3  1  0
  2  1  1  6
  3  4  1  0
  4  5  1  0
  5  6  1  0
  6  7  1  0
  8  2  1  0
  8  9  2  0
 10 11  1  0
 11 12  2  0
 13 11  1  0
 13 14  1  0
 15 16  1  0
 15 14  1  0
 17 16  1  1
 17 19  1  0
 17 18  1  0
 18  8  1  0
 19 26  1  0
 20 19  2  0
 22 23  1  0
 22 21  1  0
 23 24  1  0
 25 24  1  1
 25 27  1  0
 26 25  1  0
 27 28  2  0
 27 29  1  0
M  END
$$$$
