KRM.pdb
     RDKit          3D

 29 28  0  0  1  0  0  0  0  0999 V2000
   20.6924  -19.8424  -15.9632 N   0  0  0  0  0  0  0  0  0  0  0  0
   21.0436  -18.4084  -15.8891 C   0  0  1  0  0  0  0  0  0  0  0  0
   20.0404  -17.6966  -15.0192 C   0  0  0  0  0  0  0  0  0  0  0  0
   18.6639  -18.2798  -15.1018 C   0  0  0  0  0  0  0  0  0  0  0  0
   17.8034  -17.5665  -16.1096 C   0  0  0  0  0  0  0  0  0  0  0  0
   16.3962  -18.1190  -16.1485 C   0  0  0  0  0  0  0  0  0  0  0  0
   15.7990  -17.9303  -14.8409 N   0  0  0  0  0  0  0  0  0  0  0  0
   22.4299  -18.2572  -15.4244 C   0  0  0  0  0  0  0  0  0  0  0  0
   22.9043  -17.1551  -15.1324 O   0  0  0  0  0  0  0  0  0  0  0  0
   25.8824  -23.8971  -14.8257 N   0  0  0  0  0  0  0  0  0  0  0  0
   24.6980  -24.1782  -14.1044 C   0  0  0  0  0  0  0  0  0  0  0  0
   23.9883  -25.2021  -14.4070 N   0  0  0  0  0  0  0  0  0  0  0  0
   24.2512  -23.3460  -13.0264 N   0  0  0  0  0  0  0  0  0  0  0  0
   25.0901  -22.2773  -12.5628 C   0  0  0  0  0  0  0  0  0  0  0  0
   24.5219  -20.9702  -13.0785 C   0  0  0  0  0  0  0  0  0  0  0  0
   25.2060  -20.6017  -14.3626 C   0  0  0  0  0  0  0  0  0  0  0  0
   24.6413  -19.3031  -14.8781 C   0  0  2  0  0  0  0  0  0  0  0  0
   23.2613  -19.4101  -15.3034 N   0  0  0  0  0  0  0  0  0  0  0  0
   25.4805  -18.8675  -16.0284 C   0  0  0  0  0  0  0  0  0  0  0  0
   25.3375  -19.3609  -17.1752 O   0  0  0  0  0  0  0  0  0  0  0  0
   23.1488  -25.4853  -13.8599 C   0  0  0  0  0  0  0  0  0  0  0  0
   28.8967  -13.0872  -19.2992 S   0  0  0  0  0  0  0  0  0  0  0  0
   27.8512  -13.9380  -18.0777 C   0  0  0  0  0  0  0  0  0  0  0  0
   28.7623  -15.3289  -17.4090 C   0  0  0  0  0  0  0  0  0  0  0  0
   27.9503  -16.1581  -16.5001 C   0  0  2  0  0  0  0  0  0  0  0  0
   27.2126  -17.3320  -17.0451 N   0  0  0  0  0  0  0  0  0  0  0  0
   26.4776  -17.8713  -15.8615 C   0  0  0  0  0  0  0  0  0  0  0  0
   27.9824  -18.4471  -17.5694 O   0  0  0  0  0  0  0  0  0  0  0  0
   28.4685  -19.3413  -16.8419 O   0  0  0  0  0  0  0  0  0  0  0  0
  2  3  1  0
  2  1  1  1
  3  4  1  0
  4  5  1  0
  5  6  1  0
  6  7  1  0
  8  2  1  0
  8  9  2  0
 10 11  1  0
 11 12  2  0
 13 11  1  0
 13 14  1  0
 15 16  1  0
 15 14  1  0
 17 16  1  6
 17 19  1  0
 17 18  1  0
 18  8  1  0
 19 26  1  0
 20 19  2  0
 22 23  1  0
 22 21  1  0
 23 24  1  0
 25 24  1  6
 25 27  1  0
 26 25  1  0
 27 28  2  0
 27 29  1  0
M  END
$$$$
