KRM.pdb
     RDKit          3D

 29 28  0  0  1  0  0  0  0  0999 V2000
   19.4477  -22.9353  -15.1149 N   0  0  0  0  0  0  0  0  0  0  0  0
   20.5237  -22.5232  -16.0411 C   0  0  1  0  0  0  0  0  0  0  0  0
   20.3170  -21.0828  -16.4315 C   0  0  0  0  0  0  0  0  0  0  0  0
   19.7851  -20.2364  -15.3167 C   0  0  0  0  0  0  0  0  0  0  0  0
   20.5386  -18.9412  -15.1766 C   0  0  0  0  0  0  0  0  0  0  0  0
   20.5724  -18.1598  -16.4708 C   0  0  0  0  0  0  0  0  0  0  0  0
   21.2520  -16.9031  -16.2238 N   0  0  0  0  0  0  0  0  0  0  0  0
   21.8351  -22.7791  -15.4285 C   0  0  0  0  0  0  0  0  0  0  0  0
   21.9813  -22.8508  -14.2044 O   0  0  0  0  0  0  0  0  0  0  0  0
   28.3962  -26.9031  -15.8660 N   0  0  0  0  0  0  0  0  0  0  0  0
   27.4579  -26.9008  -16.9252 C   0  0  0  0  0  0  0  0  0  0  0  0
   26.8766  -27.9895  -17.2720 N   0  0  0  0  0  0  0  0  0  0  0  0
   27.1250  -25.7042  -17.6404 N   0  0  0  0  0  0  0  0  0  0  0  0
   27.5906  -24.4363  -17.1541 C   0  0  0  0  0  0  0  0  0  0  0  0
   26.6076  -23.9371  -16.1139 C   0  0  0  0  0  0  0  0  0  0  0  0
   25.2550  -23.7750  -16.7439 C   0  0  0  0  0  0  0  0  0  0  0  0
   24.2719  -23.2962  -15.7070 C   0  0  2  0  0  0  0  0  0  0  0  0
   22.9797  -22.9515  -16.2623 N   0  0  0  0  0  0  0  0  0  0  0  0
   24.8590  -22.1002  -15.0422 C   0  0  0  0  0  0  0  0  0  0  0  0
   24.8633  -20.9719  -15.5955 O   0  0  0  0  0  0  0  0  0  0  0  0
   26.1678  -28.0299  -18.0337 C   0  0  0  0  0  0  0  0  0  0  0  0
   24.9657  -21.4199   -8.5300 S   0  0  0  0  0  0  0  0  0  0  0  0
   26.6834  -21.0633   -9.0108 C   0  0  0  0  0  0  0  0  0  0  0  0
   26.6928  -20.4314  -10.6879 C   0  0  0  0  0  0  0  0  0  0  0  0
   26.1360  -21.3889  -11.6607 C   0  0  2  0  0  0  0  0  0  0  0  0
   26.0366  -20.9987  -13.0949 N   0  0  0  0  0  0  0  0  0  0  0  0
   25.4374  -22.2003  -13.7500 C   0  0  0  0  0  0  0  0  0  0  0  0
   27.2647  -20.7278  -13.8224 O   0  0  0  0  0  0  0  0  0  0  0  0
   27.8790  -21.6030  -14.4719 O   0  0  0  0  0  0  0  0  0  0  0  0
  2  3  1  0
  2  1  1  1
  3  4  1  0
  4  5  1  0
  5  6  1  0
  6  7  1  0
  8  2  1  0
  8  9  2  0
 10 11  1  0
 11 12  2  0
 13 11  1  0
 13 14  1  0
 15 16  1  0
 15 14  1  0
 17 16  1  6
 17 19  1  0
 17 18  1  0
 18  8  1  0
 19 26  1  0
 20 19  2  0
 22 23  1  0
 22 21  1  0
 23 24  1  0
 25 24  1  1
 25 27  1  0
 26 25  1  0
 27 28  2  0
 27 29  1  0
M  END
$$$$
