KRM.pdb
     RDKit          3D

 29 28  0  0  1  0  0  0  0  0999 V2000
   25.9169  -17.9775  -17.8999 N   0  0  0  0  0  0  0  0  0  0  0  0
   24.7072  -18.7537  -18.2455 C   0  0  1  0  0  0  0  0  0  0  0  0
   24.9210  -19.4421  -19.5685 C   0  0  0  0  0  0  0  0  0  0  0  0
   25.8848  -18.7244  -20.4618 C   0  0  0  0  0  0  0  0  0  0  0  0
   25.9737  -19.3547  -21.8256 C   0  0  0  0  0  0  0  0  0  0  0  0
   27.0446  -18.7139  -22.6796 C   0  0  0  0  0  0  0  0  0  0  0  0
   27.0775  -19.4008  -23.9560 N   0  0  0  0  0  0  0  0  0  0  0  0
   24.3790  -19.6799  -17.1523 C   0  0  0  0  0  0  0  0  0  0  0  0
   23.4690  -20.5090  -17.2498 O   0  0  0  0  0  0  0  0  0  0  0  0
   29.8548  -22.9281  -15.0430 N   0  0  0  0  0  0  0  0  0  0  0  0
   29.2044  -22.2804  -16.1199 C   0  0  0  0  0  0  0  0  0  0  0  0
   29.1782  -22.8280  -17.2787 N   0  0  0  0  0  0  0  0  0  0  0  0
   28.5604  -21.0096  -15.9628 N   0  0  0  0  0  0  0  0  0  0  0  0
   28.1844  -20.5641  -14.6508 C   0  0  0  0  0  0  0  0  0  0  0  0
   27.0161  -21.4073  -14.1802 C   0  0  0  0  0  0  0  0  0  0  0  0
   25.8891  -20.5082  -13.7629 C   0  0  0  0  0  0  0  0  0  0  0  0
   24.8242  -20.5095  -14.8293 C   0  0  2  0  0  0  0  0  0  0  0  0
   25.1265  -19.6289  -15.9384 N   0  0  0  0  0  0  0  0  0  0  0  0
   23.5458  -20.0843  -14.1953 C   0  0  0  0  0  0  0  0  0  0  0  0
   23.2811  -18.8734  -13.9886 O   0  0  0  0  0  0  0  0  0  0  0  0
   28.7615  -22.3616  -18.1112 C   0  0  0  0  0  0  0  0  0  0  0  0
   17.2600  -17.7205  -15.8865 S   0  0  0  0  0  0  0  0  0  0  0  0
   18.9633  -18.3441  -16.0236 C   0  0  0  0  0  0  0  0  0  0  0  0
   19.3088  -19.3912  -14.6107 C   0  0  0  0  0  0  0  0  0  0  0  0
   20.6877  -19.9121  -14.6111 C   0  0  1  0  0  0  0  0  0  0  0  0
   21.2041  -20.6138  -13.4027 N   0  0  0  0  0  0  0  0  0  0  0  0
   22.5779  -21.0448  -13.8012 C   0  0  0  0  0  0  0  0  0  0  0  0
   20.5263  -21.8220  -12.9649 O   0  0  0  0  0  0  0  0  0  0  0  0
   20.7391  -22.9450  -13.4735 O   0  0  0  0  0  0  0  0  0  0  0  0
  2  3  1  0
  2  1  1  1
  3  4  1  0
  4  5  1  0
  5  6  1  0
  6  7  1  0
  8  2  1  0
  8  9  2  0
 10 11  1  0
 11 12  2  0
 13 11  1  0
 13 14  1  0
 15 16  1  0
 15 14  1  0
 17 16  1  1
 17 19  1  0
 17 18  1  0
 18  8  1  0
 19 26  1  0
 20 19  2  0
 22 23  1  0
 22 21  1  0
 23 24  1  0
 25 24  1  1
 25 27  1  0
 26 25  1  0
 27 28  2  0
 27 29  1  0
M  END
$$$$
