KRM.pdb
     RDKit          3D

 29 28  0  0  1  0  0  0  0  0999 V2000
   24.1908  -12.4515  -15.9948 N   0  0  0  0  0  0  0  0  0  0  0  0
   24.1302  -11.7872  -17.3140 C   0  0  1  0  0  0  0  0  0  0  0  0
   23.7179  -12.7931  -18.3571 C   0  0  0  0  0  0  0  0  0  0  0  0
   24.5425  -14.0426  -18.3352 C   0  0  0  0  0  0  0  0  0  0  0  0
   24.1049  -15.0314  -19.3820 C   0  0  0  0  0  0  0  0  0  0  0  0
   24.9874  -16.2591  -19.4090 C   0  0  0  0  0  0  0  0  0  0  0  0
   24.4412  -17.1884  -20.3787 N   0  0  0  0  0  0  0  0  0  0  0  0
   23.2396  -10.6200  -17.2448 C   0  0  0  0  0  0  0  0  0  0  0  0
   23.0511   -9.8837  -18.2182 O   0  0  0  0  0  0  0  0  0  0  0  0
   15.6930  -11.8597  -14.1030 N   0  0  0  0  0  0  0  0  0  0  0  0
   16.2262  -12.3768  -15.3073 C   0  0  0  0  0  0  0  0  0  0  0  0
   15.5609  -13.2344  -15.9895 N   0  0  0  0  0  0  0  0  0  0  0  0
   17.5077  -11.9711  -15.8048 N   0  0  0  0  0  0  0  0  0  0  0  0
   18.2850  -11.0180  -15.0642 C   0  0  0  0  0  0  0  0  0  0  0  0
   19.5040  -10.6565  -15.8892 C   0  0  0  0  0  0  0  0  0  0  0  0
   20.3591   -9.6931  -15.1190 C   0  0  0  0  0  0  0  0  0  0  0  0
   21.5464   -9.2943  -15.9569 C   0  0  2  0  0  0  0  0  0  0  0  0
   22.5679  -10.3186  -16.0230 N   0  0  0  0  0  0  0  0  0  0  0  0
   22.1254   -8.0568  -15.3648 C   0  0  0  0  0  0  0  0  0  0  0  0
   22.9407   -8.1000  -14.4095 O   0  0  0  0  0  0  0  0  0  0  0  0
   15.9300  -13.6666  -16.8620 C   0  0  0  0  0  0  0  0  0  0  0  0
   22.7253   -0.3316  -16.9579 S   0  0  0  0  0  0  0  0  0  0  0  0
   22.2326   -2.0201  -17.4220 C   0  0  0  0  0  0  0  0  0  0  0  0
   22.5452   -3.1127  -16.0362 C   0  0  0  0  0  0  0  0  0  0  0  0
   22.1911   -4.5143  -16.3245 C   0  0  1  0  0  0  0  0  0  0  0  0
   22.3380   -5.5400  -15.2542 N   0  0  0  0  0  0  0  0  0  0  0  0
   21.7694   -6.7780  -15.8672 C   0  0  0  0  0  0  0  0  0  0  0  0
   21.6101   -5.3486  -14.0115 O   0  0  0  0  0  0  0  0  0  0  0  0
   20.4450   -5.7680  -13.8327 O   0  0  0  0  0  0  0  0  0  0  0  0
  2  3  1  0
  2  1  1  1
  3  4  1  0
  4  5  1  0
  5  6  1  0
  6  7  1  0
  8  2  1  0
  8  9  2  0
 10 11  1  0
 11 12  2  0
 13 11  1  0
 13 14  1  0
 15 16  1  0
 15 14  1  0
 17 16  1  1
 17 19  1  0
 17 18  1  0
 18  8  1  0
 19 26  1  0
 20 19  2  0
 22 23  1  0
 22 21  1  0
 23 24  1  0
 25 24  1  6
 25 27  1  0
 26 25  1  0
 27 28  2  0
 27 29  1  0
M  END
$$$$
