KRM.pdb
     RDKit          3D

 29 28  0  0  1  0  0  0  0  0999 V2000
   26.2355  -23.7735  -15.9959 N   0  0  0  0  0  0  0  0  0  0  0  0
   25.2709  -22.6630  -16.1430 C   0  0  1  0  0  0  0  0  0  0  0  0
   24.4930  -22.8479  -17.4199 C   0  0  0  0  0  0  0  0  0  0  0  0
   25.1785  -23.7394  -18.4085 C   0  0  0  0  0  0  0  0  0  0  0  0
   26.1372  -22.9825  -19.2877 C   0  0  0  0  0  0  0  0  0  0  0  0
   26.7305  -23.8582  -20.3684 C   0  0  0  0  0  0  0  0  0  0  0  0
   27.6613  -23.0580  -21.1399 N   0  0  0  0  0  0  0  0  0  0  0  0
   24.4193  -22.5796  -14.9479 C   0  0  0  0  0  0  0  0  0  0  0  0
   23.8595  -23.5732  -14.4743 O   0  0  0  0  0  0  0  0  0  0  0  0
   28.0794  -20.0427  -10.9205 N   0  0  0  0  0  0  0  0  0  0  0  0
   27.1622  -21.0415  -10.5168 C   0  0  0  0  0  0  0  0  0  0  0  0
   27.4078  -22.2762  -10.7590 N   0  0  0  0  0  0  0  0  0  0  0  0
   25.9438  -20.7205   -9.8336 N   0  0  0  0  0  0  0  0  0  0  0  0
   24.6972  -20.7823  -10.5430 C   0  0  0  0  0  0  0  0  0  0  0  0
   24.7777  -19.8391  -11.7268 C   0  0  0  0  0  0  0  0  0  0  0  0
   23.4730  -19.8578  -12.4684 C   0  0  0  0  0  0  0  0  0  0  0  0
   23.3219  -21.1742  -13.1862 C   0  0  2  0  0  0  0  0  0  0  0  0
   24.2263  -21.3195  -14.3078 N   0  0  0  0  0  0  0  0  0  0  0  0
   21.9167  -21.2698  -13.6691 C   0  0  0  0  0  0  0  0  0  0  0  0
   21.5219  -20.6410  -14.6830 O   0  0  0  0  0  0  0  0  0  0  0  0
   26.7528  -23.0416  -10.4953 C   0  0  0  0  0  0  0  0  0  0  0  0
   17.6068  -24.5007   -9.9864 S   0  0  0  0  0  0  0  0  0  0  0  0
   16.9748  -24.8325  -11.6595 C   0  0  0  0  0  0  0  0  0  0  0  0
   17.5125  -23.5156  -12.7499 C   0  0  0  0  0  0  0  0  0  0  0  0
   18.9488  -23.2136  -12.6135 C   0  0  1  0  0  0  0  0  0  0  0  0
   19.5574  -22.1559  -13.4680 N   0  0  0  0  0  0  0  0  0  0  0  0
   20.9713  -22.0828  -12.9910 C   0  0  0  0  0  0  0  0  0  0  0  0
   19.0388  -20.8027  -13.3642 O   0  0  0  0  0  0  0  0  0  0  0  0
   18.3321  -20.2740  -14.2509 O   0  0  0  0  0  0  0  0  0  0  0  0
  2  3  1  0
  2  1  1  1
  3  4  1  0
  4  5  1  0
  5  6  1  0
  6  7  1  0
  8  2  1  0
  8  9  2  0
 10 11  1  0
 11 12  2  0
 13 11  1  0
 13 14  1  0
 15 16  1  0
 15 14  1  0
 17 16  1  6
 17 19  1  0
 17 18  1  0
 18  8  1  0
 19 26  1  0
 20 19  2  0
 22 23  1  0
 22 21  1  0
 23 24  1  0
 25 24  1  6
 25 27  1  0
 26 25  1  0
 27 28  2  0
 27 29  1  0
M  END
$$$$
