KRR.pdb
     RDKit          3D

 32 31  0  0  1  0  0  0  0  0999 V2000
   10.0021  -21.4150   19.1376 N   0  0  0  0  0  0  0  0  0  0  0  0
    9.1574  -20.8365   20.1640 C   0  0  1  0  0  0  0  0  0  0  0  0
    9.1336  -21.6954   21.4120 C   0  0  0  0  0  0  0  0  0  0  0  0
    8.5654  -23.0665   21.1312 C   0  0  0  0  0  0  0  0  0  0  0  0
    8.3894  -23.8916   22.3575 C   0  0  0  0  0  0  0  0  0  0  0  0
    7.7847  -25.2457   22.0870 C   0  0  0  0  0  0  0  0  0  0  0  0
    7.5968  -26.0195   23.2921 N   0  0  0  0  0  0  0  0  0  0  0  0
    9.5709  -19.4379   20.4508 C   0  0  0  0  0  0  0  0  0  0  0  0
   10.8250  -19.1785   20.4987 O   0  0  0  0  0  0  0  0  0  0  0  0
    9.3055  -12.8672   18.7593 N   0  0  0  0  0  0  0  0  0  0  0  0
    8.0243  -12.4343   19.2164 C   0  0  0  0  0  0  0  0  0  0  0  0
    7.7813  -11.1648   19.1589 N   0  0  0  0  0  0  0  0  0  0  0  0
    7.0471  -13.3294   19.7173 N   0  0  0  0  0  0  0  0  0  0  0  0
    7.1491  -13.7431   21.0984 C   0  0  0  0  0  0  0  0  0  0  0  0
    8.2974  -14.7322   21.3200 C   0  0  0  0  0  0  0  0  0  0  0  0
    7.9061  -16.0930   20.8162 C   0  0  0  0  0  0  0  0  0  0  0  0
    8.9798  -17.0837   21.1209 C   0  0  2  0  0  0  0  0  0  0  0  0
    8.6157  -18.4187   20.6631 N   0  0  0  0  0  0  0  0  0  0  0  0
    9.4199  -17.1692   22.5086 C   0  0  0  0  0  0  0  0  0  0  0  0
    8.7734  -17.7077   23.4460 O   0  0  0  0  0  0  0  0  0  0  0  0
    6.8666  -10.7832   19.5291 N   0  0  0  0  0  0  0  0  0  0  0  0
   14.8360  -22.3582   24.8972 C   0  0  0  0  0  0  0  0  0  0  0  0
   14.3586  -21.9551   26.1762 N   0  0  0  0  0  0  0  0  0  0  0  0
   14.9062  -22.4341   27.2279 N   0  0  0  0  0  0  0  0  0  0  0  0
   13.2820  -21.0228   26.2770 C   0  0  0  0  0  0  0  0  0  0  0  0
   12.5529  -20.6249   25.0955 C   0  0  0  0  0  0  0  0  0  0  0  0
   12.4099  -19.0844   25.1748 C   0  0  0  0  0  0  0  0  0  0  0  0
   11.6396  -18.5850   23.9837 C   0  0  2  0  0  0  0  0  0  0  0  0
   11.4304  -17.1229   24.0561 N   0  0  0  0  0  0  0  0  0  0  0  0
   10.6790  -16.6174   22.9088 C   0  0  0  0  0  0  0  0  0  0  0  0
   12.6664  -16.3397   24.2435 O   0  0  0  0  0  0  0  0  0  0  0  0
   13.0809  -15.4632   23.2233 O   0  0  0  0  0  0  0  0  0  0  0  0
  2  1  1  6
  3  2  1  0
  4  3  1  0
  5  4  1  0
  6  7  1  0
  6  5  1  0
  8  9  2  0
  8  2  1  0
 11 10  1  0
 12 11  2  0
 13 11  1  0
 14 13  1  0
 15 14  1  0
 15 16  1  0
 17 16  1  1
 17 18  1  0
 18  8  1  0
 19 17  1  0
 19 20  2  0
 22 21  1  0
 23 22  2  0
 24 22  1  0
 25 24  1  0
 26 27  1  0
 26 25  1  0
 28 27  1  1
 29 28  1  0
 29 19  1  0
 30 28  1  0
 31 30  1  0
 32 30  2  0
M  END
$$$$
