KRR.pdb
     RDKit          3D

 32 31  0  0  1  0  0  0  0  0999 V2000
    9.3160  -20.6440   16.5955 N   0  0  0  0  0  0  0  0  0  0  0  0
    8.9990  -20.6398   18.0100 C   0  0  1  0  0  0  0  0  0  0  0  0
    9.4866  -21.9021   18.6916 C   0  0  0  0  0  0  0  0  0  0  0  0
    9.6041  -23.0494   17.7161 C   0  0  0  0  0  0  0  0  0  0  0  0
   10.1467  -24.2909   18.3323 C   0  0  0  0  0  0  0  0  0  0  0  0
   10.3046  -25.4263   17.3533 C   0  0  0  0  0  0  0  0  0  0  0  0
   11.0010  -26.5564   17.9228 N   0  0  0  0  0  0  0  0  0  0  0  0
    9.5268  -19.4104   18.6578 C   0  0  0  0  0  0  0  0  0  0  0  0
   10.6067  -18.9008   18.1926 O   0  0  0  0  0  0  0  0  0  0  0  0
    6.1085  -12.8160   18.4160 N   0  0  0  0  0  0  0  0  0  0  0  0
    6.8609  -13.1743   19.5751 C   0  0  0  0  0  0  0  0  0  0  0  0
    7.9482  -12.5084   19.7953 N   0  0  0  0  0  0  0  0  0  0  0  0
    6.4618  -14.2077   20.4581 N   0  0  0  0  0  0  0  0  0  0  0  0
    7.3223  -14.5140   21.5784 C   0  0  0  0  0  0  0  0  0  0  0  0
    8.5368  -15.3483   21.1605 C   0  0  0  0  0  0  0  0  0  0  0  0
    8.0935  -16.7168   20.7252 C   0  0  0  0  0  0  0  0  0  0  0  0
    9.2731  -17.5361   20.3202 C   0  0  2  0  0  0  0  0  0  0  0  0
    8.8621  -18.8142   19.7527 N   0  0  0  0  0  0  0  0  0  0  0  0
   10.2841  -17.7817   21.3419 C   0  0  0  0  0  0  0  0  0  0  0  0
   10.1205  -18.4844   22.3745 O   0  0  0  0  0  0  0  0  0  0  0  0
    8.6065  -12.8091   20.5669 N   0  0  0  0  0  0  0  0  0  0  0  0
   18.1994  -15.4736   23.1499 C   0  0  0  0  0  0  0  0  0  0  0  0
   18.1105  -16.7144   23.8417 N   0  0  0  0  0  0  0  0  0  0  0  0
   18.9253  -16.9580   24.7968 N   0  0  0  0  0  0  0  0  0  0  0  0
   17.1178  -17.6711   23.4708 C   0  0  0  0  0  0  0  0  0  0  0  0
   16.2353  -17.4077   22.3584 C   0  0  0  0  0  0  0  0  0  0  0  0
   14.9168  -16.8723   22.9706 C   0  0  0  0  0  0  0  0  0  0  0  0
   13.8849  -16.7099   21.8888 C   0  0  2  0  0  0  0  0  0  0  0  0
   12.6043  -17.3429   22.2710 N   0  0  0  0  0  0  0  0  0  0  0  0
   11.5912  -17.2090   21.2260 C   0  0  0  0  0  0  0  0  0  0  0  0
   12.0650  -16.8907   23.5675 O   0  0  0  0  0  0  0  0  0  0  0  0
   12.3197  -17.6594   24.7187 O   0  0  0  0  0  0  0  0  0  0  0  0
  2  1  1  6
  3  2  1  0
  4  3  1  0
  5  4  1  0
  6  7  1  0
  6  5  1  0
  8  9  2  0
  8  2  1  0
 11 10  1  0
 12 11  2  0
 13 11  1  0
 14 13  1  0
 15 14  1  0
 15 16  1  0
 17 16  1  1
 17 18  1  0
 18  8  1  0
 19 17  1  0
 19 20  2  0
 22 21  1  0
 23 22  2  0
 24 22  1  0
 25 24  1  0
 26 27  1  0
 26 25  1  0
 28 27  1  6
 29 28  1  0
 29 19  1  0
 30 28  1  0
 31 30  1  0
 32 30  2  0
M  END
$$$$
