KRR.pdb
     RDKit          3D

 32 31  0  0  1  0  0  0  0  0999 V2000
   10.2434  -16.0284   12.8738 N   0  0  0  0  0  0  0  0  0  0  0  0
    9.7290  -16.5042   14.1428 C   0  0  1  0  0  0  0  0  0  0  0  0
   10.1299  -17.9426   14.3997 C   0  0  0  0  0  0  0  0  0  0  0  0
   11.5019  -18.2438   13.8442 C   0  0  0  0  0  0  0  0  0  0  0  0
   12.5650  -18.2670   14.8858 C   0  0  0  0  0  0  0  0  0  0  0  0
   13.9169  -18.6687   14.3533 C   0  0  0  0  0  0  0  0  0  0  0  0
   14.1006  -20.1013   14.3315 N   0  0  0  0  0  0  0  0  0  0  0  0
   10.1449  -15.5983   15.2454 C   0  0  0  0  0  0  0  0  0  0  0  0
   11.3654  -15.2088   15.2769 O   0  0  0  0  0  0  0  0  0  0  0  0
    6.8588  -15.4821   20.4239 N   0  0  0  0  0  0  0  0  0  0  0  0
    7.2552  -14.7274   21.5690 C   0  0  0  0  0  0  0  0  0  0  0  0
    7.1048  -15.2931   22.7229 N   0  0  0  0  0  0  0  0  0  0  0  0
    7.7877  -13.4179   21.4765 N   0  0  0  0  0  0  0  0  0  0  0  0
    7.6776  -12.7276   20.2114 C   0  0  0  0  0  0  0  0  0  0  0  0
    8.8638  -13.0231   19.2887 C   0  0  0  0  0  0  0  0  0  0  0  0
    8.4454  -13.9773   18.2055 C   0  0  0  0  0  0  0  0  0  0  0  0
    9.6264  -14.3747   17.3843 C   0  0  2  0  0  0  0  0  0  0  0  0
    9.2273  -15.1730   16.2320 N   0  0  0  0  0  0  0  0  0  0  0  0
   10.7072  -15.0644   18.0790 C   0  0  0  0  0  0  0  0  0  0  0  0
   10.7585  -16.3039   18.2977 O   0  0  0  0  0  0  0  0  0  0  0  0
    7.3228  -14.7566   23.6083 N   0  0  0  0  0  0  0  0  0  0  0  0
   17.4828  -14.4797   22.8682 C   0  0  0  0  0  0  0  0  0  0  0  0
   18.2383  -14.4369   21.6626 N   0  0  0  0  0  0  0  0  0  0  0  0
   19.4495  -14.0281   21.6973 N   0  0  0  0  0  0  0  0  0  0  0  0
   17.6455  -14.8509   20.4315 C   0  0  0  0  0  0  0  0  0  0  0  0
   16.6000  -14.0593   19.8266 C   0  0  0  0  0  0  0  0  0  0  0  0
   15.2990  -14.8902   19.9571 C   0  0  0  0  0  0  0  0  0  0  0  0
   14.1779  -14.1930   19.2369 C   0  0  2  0  0  0  0  0  0  0  0  0
   12.9270  -14.9787   19.3055 N   0  0  0  0  0  0  0  0  0  0  0  0
   11.8332  -14.3356   18.5798 C   0  0  0  0  0  0  0  0  0  0  0  0
   12.4995  -15.3241   20.6745 O   0  0  0  0  0  0  0  0  0  0  0  0
   11.3487  -14.7119   21.2055 O   0  0  0  0  0  0  0  0  0  0  0  0
  2  1  1  6
  3  2  1  0
  4  3  1  0
  5  4  1  0
  6  7  1  0
  6  5  1  0
  8  9  2  0
  8  2  1  0
 11 10  1  0
 12 11  2  0
 13 11  1  0
 14 13  1  0
 15 14  1  0
 15 16  1  0
 17 16  1  1
 17 18  1  0
 18  8  1  0
 19 17  1  0
 19 20  2  0
 22 21  1  0
 23 22  2  0
 24 22  1  0
 25 24  1  0
 26 27  1  0
 26 25  1  0
 28 27  1  6
 29 28  1  0
 29 19  1  0
 30 28  1  0
 31 30  1  0
 32 30  2  0
M  END
$$$$
