KRR.pdb
     RDKit          3D

 32 31  0  0  1  0  0  0  0  0999 V2000
    5.2616  -21.6207   21.0821 N   0  0  0  0  0  0  0  0  0  0  0  0
    5.3085  -20.6584   22.1652 C   0  0  1  0  0  0  0  0  0  0  0  0
    5.5172  -21.3386   23.5029 C   0  0  0  0  0  0  0  0  0  0  0  0
    4.3968  -22.3020   23.8163 C   0  0  0  0  0  0  0  0  0  0  0  0
    4.5152  -22.9219   25.1644 C   0  0  0  0  0  0  0  0  0  0  0  0
    3.3154  -23.7484   25.5514 C   0  0  0  0  0  0  0  0  0  0  0  0
    3.4589  -24.3580   26.8530 N   0  0  0  0  0  0  0  0  0  0  0  0
    6.3374  -19.6204   21.8948 C   0  0  0  0  0  0  0  0  0  0  0  0
    7.5070  -20.0089   21.5434 O   0  0  0  0  0  0  0  0  0  0  0  0
    8.5295  -12.6827   17.1386 N   0  0  0  0  0  0  0  0  0  0  0  0
    7.7256  -13.4174   18.0617 C   0  0  0  0  0  0  0  0  0  0  0  0
    7.3088  -14.5804   17.6773 N   0  0  0  0  0  0  0  0  0  0  0  0
    7.3821  -12.9201   19.3429 N   0  0  0  0  0  0  0  0  0  0  0  0
    6.5636  -13.7507   20.1970 C   0  0  0  0  0  0  0  0  0  0  0  0
    7.2857  -15.0353   20.6144 C   0  0  0  0  0  0  0  0  0  0  0  0
    6.3617  -15.9035   21.4216 C   0  0  0  0  0  0  0  0  0  0  0  0
    7.0232  -17.2023   21.7414 C   0  0  2  0  0  0  0  0  0  0  0  0
    6.0419  -18.2442   22.0170 N   0  0  0  0  0  0  0  0  0  0  0  0
    8.0073  -17.1906   22.8175 C   0  0  0  0  0  0  0  0  0  0  0  0
    7.7411  -17.1402   24.0476 O   0  0  0  0  0  0  0  0  0  0  0  0
    6.6488  -15.1357   18.2900 N   0  0  0  0  0  0  0  0  0  0  0  0
   15.3803  -15.3569   23.6900 C   0  0  0  0  0  0  0  0  0  0  0  0
   15.2905  -16.1087   22.4847 N   0  0  0  0  0  0  0  0  0  0  0  0
   16.0400  -15.7980   21.4962 N   0  0  0  0  0  0  0  0  0  0  0  0
   14.3741  -17.1992   22.3879 C   0  0  0  0  0  0  0  0  0  0  0  0
   14.1689  -18.0775   23.5158 C   0  0  0  0  0  0  0  0  0  0  0  0
   12.7946  -17.6927   24.1184 C   0  0  0  0  0  0  0  0  0  0  0  0
   11.7654  -17.6152   23.0246 C   0  0  2  0  0  0  0  0  0  0  0  0
   10.4290  -17.2920   23.5689 N   0  0  0  0  0  0  0  0  0  0  0  0
    9.4079  -17.2386   22.5243 C   0  0  0  0  0  0  0  0  0  0  0  0
   10.3860  -16.0669   24.3896 O   0  0  0  0  0  0  0  0  0  0  0  0
   10.7325  -16.1447   25.7515 O   0  0  0  0  0  0  0  0  0  0  0  0
  2  1  1  6
  3  2  1  0
  4  3  1  0
  5  4  1  0
  6  7  1  0
  6  5  1  0
  8  9  2  0
  8  2  1  0
 11 10  1  0
 12 11  2  0
 13 11  1  0
 14 13  1  0
 15 14  1  0
 15 16  1  0
 17 16  1  1
 17 18  1  0
 18  8  1  0
 19 17  1  0
 19 20  2  0
 22 21  1  0
 23 22  2  0
 24 22  1  0
 25 24  1  0
 26 27  1  0
 26 25  1  0
 28 27  1  1
 29 28  1  0
 29 19  1  0
 30 28  1  0
 31 30  1  0
 32 30  2  0
M  END
$$$$
