KRR.pdb
     RDKit          3D

 32 31  0  0  1  0  0  0  0  0999 V2000
    7.7293  -20.2353   16.9459 N   0  0  0  0  0  0  0  0  0  0  0  0
    7.2415  -20.1450   18.3080 C   0  0  1  0  0  0  0  0  0  0  0  0
    7.3751  -21.4682   19.0339 C   0  0  0  0  0  0  0  0  0  0  0  0
    7.8959  -22.5523   18.1200 C   0  0  0  0  0  0  0  0  0  0  0  0
    8.0289  -23.8736   18.7925 C   0  0  0  0  0  0  0  0  0  0  0  0
    8.5133  -24.9670   17.8748 C   0  0  0  0  0  0  0  0  0  0  0  0
    8.7370  -26.2141   18.5684 N   0  0  0  0  0  0  0  0  0  0  0  0
    7.9177  -19.0358   19.0304 C   0  0  0  0  0  0  0  0  0  0  0  0
    9.1939  -18.9536   18.9488 O   0  0  0  0  0  0  0  0  0  0  0  0
    8.1349  -10.7696   20.0295 N   0  0  0  0  0  0  0  0  0  0  0  0
    8.9244  -11.9360   19.7964 C   0  0  0  0  0  0  0  0  0  0  0  0
   10.1563  -11.8965   20.1900 N   0  0  0  0  0  0  0  0  0  0  0  0
    8.4107  -13.0947   19.1636 N   0  0  0  0  0  0  0  0  0  0  0  0
    7.2257  -13.7052   19.7225 C   0  0  0  0  0  0  0  0  0  0  0  0
    7.5487  -14.5906   20.9298 C   0  0  0  0  0  0  0  0  0  0  0  0
    6.8374  -15.9086   20.8038 C   0  0  0  0  0  0  0  0  0  0  0  0
    7.8150  -16.9950   20.5019 C   0  0  2  0  0  0  0  0  0  0  0  0
    7.1819  -18.0946   19.7848 N   0  0  0  0  0  0  0  0  0  0  0  0
    8.5600  -17.5403   21.6307 C   0  0  0  0  0  0  0  0  0  0  0  0
    8.2547  -18.5819   22.2699 O   0  0  0  0  0  0  0  0  0  0  0  0
   10.7754  -12.7472   20.0790 N   0  0  0  0  0  0  0  0  0  0  0  0
   15.1078  -22.1935   23.3833 C   0  0  0  0  0  0  0  0  0  0  0  0
   13.8101  -22.6106   23.7934 N   0  0  0  0  0  0  0  0  0  0  0  0
   13.6809  -23.7032   24.4452 N   0  0  0  0  0  0  0  0  0  0  0  0
   12.6693  -21.8112   23.4804 C   0  0  0  0  0  0  0  0  0  0  0  0
   12.7605  -20.7772   22.4763 C   0  0  0  0  0  0  0  0  0  0  0  0
   12.2825  -19.4706   23.1575 C   0  0  0  0  0  0  0  0  0  0  0  0
   11.1942  -18.8387   22.3342 C   0  0  1  0  0  0  0  0  0  0  0  0
   10.7347  -17.5693   22.9379 N   0  0  0  0  0  0  0  0  0  0  0  0
    9.7447  -16.8904   22.1039 C   0  0  0  0  0  0  0  0  0  0  0  0
   11.8211  -16.6400   23.3016 O   0  0  0  0  0  0  0  0  0  0  0  0
   12.6139  -16.9241   24.4293 O   0  0  0  0  0  0  0  0  0  0  0  0
  2  1  1  6
  3  2  1  0
  4  3  1  0
  5  4  1  0
  6  7  1  0
  6  5  1  0
  8  9  2  0
  8  2  1  0
 11 10  1  0
 12 11  2  0
 13 11  1  0
 14 13  1  0
 15 14  1  0
 15 16  1  0
 17 16  1  1
 17 18  1  0
 18  8  1  0
 19 17  1  0
 19 20  2  0
 22 21  1  0
 23 22  2  0
 24 22  1  0
 25 24  1  0
 26 27  1  0
 26 25  1  0
 28 27  1  1
 29 28  1  0
 29 19  1  0
 30 28  1  0
 31 30  1  0
 32 30  2  0
M  END
$$$$
