KRR.pdb
     RDKit          3D

 32 31  0  0  1  0  0  0  0  0999 V2000
    3.3453  -20.6116   22.0061 N   0  0  0  0  0  0  0  0  0  0  0  0
    4.4670  -21.0672   22.8034 C   0  0  1  0  0  0  0  0  0  0  0  0
    5.0108  -22.3862   22.2932 C   0  0  0  0  0  0  0  0  0  0  0  0
    3.9315  -23.2149   21.6374 C   0  0  0  0  0  0  0  0  0  0  0  0
    3.1725  -24.0588   22.6005 C   0  0  0  0  0  0  0  0  0  0  0  0
    2.9514  -25.4692   22.1164 C   0  0  0  0  0  0  0  0  0  0  0  0
    2.5566  -25.5232   20.7280 N   0  0  0  0  0  0  0  0  0  0  0  0
    5.5154  -20.0160   22.8751 C   0  0  0  0  0  0  0  0  0  0  0  0
    6.6845  -20.3576   23.2734 O   0  0  0  0  0  0  0  0  0  0  0  0
    8.9650  -11.6492   19.3983 N   0  0  0  0  0  0  0  0  0  0  0  0
    8.3009  -12.9128   19.4115 C   0  0  0  0  0  0  0  0  0  0  0  0
    7.9209  -13.3856   18.2687 N   0  0  0  0  0  0  0  0  0  0  0  0
    8.0533  -13.6355   20.6046 N   0  0  0  0  0  0  0  0  0  0  0  0
    7.0167  -14.6426   20.5859 C   0  0  0  0  0  0  0  0  0  0  0  0
    6.8653  -15.3385   21.9419 C   0  0  0  0  0  0  0  0  0  0  0  0
    5.8061  -16.4015   21.8571 C   0  0  0  0  0  0  0  0  0  0  0  0
    6.2354  -17.6179   22.6073 C   0  0  2  0  0  0  0  0  0  0  0  0
    5.2396  -18.6781   22.5143 N   0  0  0  0  0  0  0  0  0  0  0  0
    6.5919  -17.4331   24.0092 C   0  0  0  0  0  0  0  0  0  0  0  0
    5.7826  -17.1708   24.9381 O   0  0  0  0  0  0  0  0  0  0  0  0
    7.3982  -14.3043   18.2228 N   0  0  0  0  0  0  0  0  0  0  0  0
   11.4165  -19.3657   30.0248 C   0  0  0  0  0  0  0  0  0  0  0  0
   10.2307  -19.6775   30.7479 N   0  0  0  0  0  0  0  0  0  0  0  0
   10.3231  -20.0721   31.9609 N   0  0  0  0  0  0  0  0  0  0  0  0
    8.9548  -19.5454   30.1213 C   0  0  0  0  0  0  0  0  0  0  0  0
    8.8010  -19.8450   28.7169 C   0  0  0  0  0  0  0  0  0  0  0  0
    8.8301  -18.4830   27.9792 C   0  0  0  0  0  0  0  0  0  0  0  0
    8.3127  -18.6546   26.5777 C   0  0  1  0  0  0  0  0  0  0  0  0
    8.3583  -17.3794   25.8302 N   0  0  0  0  0  0  0  0  0  0  0  0
    7.9542  -17.5449   24.4353 C   0  0  0  0  0  0  0  0  0  0  0  0
    9.6517  -16.6743   25.9081 O   0  0  0  0  0  0  0  0  0  0  0  0
   10.3653  -16.4234   24.7212 O   0  0  0  0  0  0  0  0  0  0  0  0
  2  1  1  6
  3  2  1  0
  4  3  1  0
  5  4  1  0
  6  7  1  0
  6  5  1  0
  8  9  2  0
  8  2  1  0
 11 10  1  0
 12 11  2  0
 13 11  1  0
 14 13  1  0
 15 14  1  0
 15 16  1  0
 17 16  1  1
 17 18  1  0
 18  8  1  0
 19 17  1  0
 19 20  2  0
 22 21  1  0
 23 22  2  0
 24 22  1  0
 25 24  1  0
 26 27  1  0
 26 25  1  0
 28 27  1  1
 29 28  1  0
 29 19  1  0
 30 28  1  0
 31 30  1  0
 32 30  2  0
M  END
$$$$
