KRR.pdb
     RDKit          3D

 32 31  0  0  1  0  0  0  0  0999 V2000
    7.4078  -19.4530   17.8846 N   0  0  0  0  0  0  0  0  0  0  0  0
    8.5227  -19.0256   18.7065 C   0  0  1  0  0  0  0  0  0  0  0  0
    9.2011  -17.8006   18.1277 C   0  0  0  0  0  0  0  0  0  0  0  0
    9.8414  -18.0997   16.7927 C   0  0  0  0  0  0  0  0  0  0  0  0
   11.2489  -17.6250   16.6971 C   0  0  0  0  0  0  0  0  0  0  0  0
   11.8866  -17.9062   15.3604 C   0  0  0  0  0  0  0  0  0  0  0  0
   13.2288  -17.3809   15.2652 N   0  0  0  0  0  0  0  0  0  0  0  0
    8.0833  -18.8151   20.1108 C   0  0  0  0  0  0  0  0  0  0  0  0
    7.1528  -17.9614   20.3291 O   0  0  0  0  0  0  0  0  0  0  0  0
    6.2202  -22.5168   26.9648 N   0  0  0  0  0  0  0  0  0  0  0  0
    7.0410  -21.5128   27.5617 C   0  0  0  0  0  0  0  0  0  0  0  0
    6.5332  -20.8563   28.5542 N   0  0  0  0  0  0  0  0  0  0  0  0
    8.3518  -21.2253   27.1075 N   0  0  0  0  0  0  0  0  0  0  0  0
    8.6492  -21.4422   25.7098 C   0  0  0  0  0  0  0  0  0  0  0  0
    8.2298  -20.2530   24.8404 C   0  0  0  0  0  0  0  0  0  0  0  0
    8.5727  -20.5233   23.4023 C   0  0  0  0  0  0  0  0  0  0  0  0
    8.2897  -19.3177   22.5696 C   0  0  2  0  0  0  0  0  0  0  0  0
    8.6676  -19.5327   21.1784 N   0  0  0  0  0  0  0  0  0  0  0  0
    8.8672  -18.0572   23.0214 C   0  0  0  0  0  0  0  0  0  0  0  0
   10.0992  -17.8053   23.0949 O   0  0  0  0  0  0  0  0  0  0  0  0
    7.0545  -20.0336   28.9673 N   0  0  0  0  0  0  0  0  0  0  0  0
    8.5640  -11.3640   19.8565 C   0  0  0  0  0  0  0  0  0  0  0  0
    8.3939  -12.6920   19.3734 N   0  0  0  0  0  0  0  0  0  0  0  0
    9.2386  -13.1674   18.5393 N   0  0  0  0  0  0  0  0  0  0  0  0
    7.2919  -13.4811   19.8221 C   0  0  0  0  0  0  0  0  0  0  0  0
    6.9616  -13.5350   21.2269 C   0  0  0  0  0  0  0  0  0  0  0  0
    8.1335  -14.2762   21.9178 C   0  0  0  0  0  0  0  0  0  0  0  0
    7.7842  -14.5481   23.3550 C   0  0  2  0  0  0  0  0  0  0  0  0
    8.5562  -15.6920   23.8864 N   0  0  0  0  0  0  0  0  0  0  0  0
    8.0241  -16.9744   23.4294 C   0  0  0  0  0  0  0  0  0  0  0  0
    8.7080  -15.6947   25.3538 O   0  0  0  0  0  0  0  0  0  0  0  0
    9.4103  -14.6418   25.9696 O   0  0  0  0  0  0  0  0  0  0  0  0
  2  1  1  6
  3  2  1  0
  4  3  1  0
  5  4  1  0
  6  7  1  0
  6  5  1  0
  8  9  2  0
  8  2  1  0
 11 10  1  0
 12 11  2  0
 13 11  1  0
 14 13  1  0
 15 14  1  0
 15 16  1  0
 17 16  1  1
 17 18  1  0
 18  8  1  0
 19 17  1  0
 19 20  2  0
 22 21  1  0
 23 22  2  0
 24 22  1  0
 25 24  1  0
 26 27  1  0
 26 25  1  0
 28 27  1  6
 29 28  1  0
 29 19  1  0
 30 28  1  0
 31 30  1  0
 32 30  2  0
M  END
$$$$
