GKN.pdb
     RDKit          3D

 22 21  0  0  1  0  0  0  0  0999 V2000
   18.0270   -9.1620  -18.9910 N   0  0  0  0  0  0  0  0  0  0  0  0
   18.0748   -9.9909  -17.8092 C   0  0  0  0  0  0  0  0  0  0  0  0
   19.2430   -9.6734  -16.9236 C   0  0  0  0  0  0  0  0  0  0  0  0
   19.0041   -9.4140  -15.7444 O   0  0  0  0  0  0  0  0  0  0  0  0
   20.5691   -9.6554  -17.3837 N   0  0  0  0  0  0  0  0  0  0  0  0
   21.7486   -9.3767  -16.6952 C   0  0  1  0  0  0  0  0  0  0  0  0
   23.0399  -10.0804  -17.0781 C   0  0  0  0  0  0  0  0  0  0  0  0
   24.1978   -9.8344  -16.1937 C   0  0  0  0  0  0  0  0  0  0  0  0
   25.3785  -10.7069  -16.6394 C   0  0  0  0  0  0  0  0  0  0  0  0
   26.6127  -10.4635  -15.8330 C   0  0  0  0  0  0  0  0  0  0  0  0
   27.6177  -11.3674  -16.3554 N   0  0  0  0  0  0  0  0  0  0  0  0
   22.1335   -7.9656  -16.5830 C   0  0  0  0  0  0  0  0  0  0  0  0
   22.3089   -7.3944  -17.7329 O   0  0  0  0  0  0  0  0  0  0  0  0
   21.5850   -3.0183  -15.6850 N   0  0  0  0  0  0  0  0  0  0  0  0
   20.5909   -3.9420  -16.1455 C   0  0  0  0  0  0  0  0  0  0  0  0
   19.5324   -3.4286  -16.5875 O   0  0  0  0  0  0  0  0  0  0  0  0
   20.7792   -5.3942  -16.1067 C   0  0  0  0  0  0  0  0  0  0  0  0
   22.1388   -5.7445  -15.5467 C   0  0  2  0  0  0  0  0  0  0  0  0
   22.3218   -7.1808  -15.4621 N   0  0  0  0  0  0  0  0  0  0  0  0
   22.3034   -5.0756  -14.2170 C   0  0  0  0  0  0  0  0  0  0  0  0
   22.3883   -5.7687  -13.0472 O   0  0  0  0  0  0  0  0  0  0  0  0
   22.3616   -3.8098  -14.2395 O   0  0  0  0  0  0  0  0  0  0  0  0
  1  2  1  0
  2  3  1  0
  3  4  2  0
  3  5  1  0
  5  6  1  0
  6 12  1  0
  6  7  1  6
  8  7  1  0
  9  8  1  0
 10  9  1  0
 10 11  1  0
 12 13  2  0
 12 19  1  0
 15 17  1  0
 15 14  1  0
 16 15  2  0
 18 20  1  0
 18 17  1  1
 19 18  1  0
 20 21  1  0
 22 20  2  0
M  END
$$$$
