GKN.pdb
     RDKit          3D

 22 21  0  0  1  0  0  0  0  0999 V2000
   21.1288  -14.5346  -17.9724 N   0  0  0  0  0  0  0  0  0  0  0  0
   21.2036  -13.6525  -16.8312 C   0  0  0  0  0  0  0  0  0  0  0  0
   21.7179  -12.2883  -17.1841 C   0  0  0  0  0  0  0  0  0  0  0  0
   21.9669  -12.0674  -18.3691 O   0  0  0  0  0  0  0  0  0  0  0  0
   21.9271  -11.2794  -16.2309 N   0  0  0  0  0  0  0  0  0  0  0  0
   22.3660   -9.9675  -16.4019 C   0  0  1  0  0  0  0  0  0  0  0  0
   21.9019   -8.8776  -15.4500 C   0  0  0  0  0  0  0  0  0  0  0  0
   22.2649   -7.4947  -15.8232 C   0  0  0  0  0  0  0  0  0  0  0  0
   21.5722   -6.5083  -14.8740 C   0  0  0  0  0  0  0  0  0  0  0  0
   21.9464   -5.0873  -15.1448 C   0  0  0  0  0  0  0  0  0  0  0  0
   21.2890   -4.2978  -14.1228 N   0  0  0  0  0  0  0  0  0  0  0  0
   23.8150   -9.7602  -16.4991 C   0  0  0  0  0  0  0  0  0  0  0  0
   24.4234   -9.8889  -15.3622 O   0  0  0  0  0  0  0  0  0  0  0  0
   28.7803   -9.1101  -17.0348 N   0  0  0  0  0  0  0  0  0  0  0  0
   28.2399  -10.3034  -17.6155 C   0  0  0  0  0  0  0  0  0  0  0  0
   29.0784  -11.1854  -17.9291 O   0  0  0  0  0  0  0  0  0  0  0  0
   26.8053  -10.4967  -17.8398 C   0  0  0  0  0  0  0  0  0  0  0  0
   26.0275   -9.2669  -17.4310 C   0  0  2  0  0  0  0  0  0  0  0  0
   24.6001   -9.4647  -17.5963 N   0  0  0  0  0  0  0  0  0  0  0  0
   26.5286   -8.0927  -18.2139 C   0  0  0  0  0  0  0  0  0  0  0  0
   27.8038   -7.6249  -18.1086 O   0  0  0  0  0  0  0  0  0  0  0  0
   25.6891   -7.5501  -18.9929 O   0  0  0  0  0  0  0  0  0  0  0  0
  1  2  1  0
  2  3  1  0
  3  4  2  0
  3  5  1  0
  5  6  1  0
  6 12  1  0
  6  7  1  1
  8  7  1  0
  9  8  1  0
 10  9  1  0
 10 11  1  0
 12 13  2  0
 12 19  1  0
 15 17  1  0
 15 14  1  0
 16 15  2  0
 18 20  1  0
 18 17  1  6
 19 18  1  0
 20 21  1  0
 22 20  2  0
M  END
$$$$
