GKN.pdb
     RDKit          3D

 22 21  0  0  1  0  0  0  0  0999 V2000
   14.6582  -11.8290  -10.9653 N   0  0  0  0  0  0  0  0  0  0  0  0
   15.3468  -11.0530   -9.9604 C   0  0  0  0  0  0  0  0  0  0  0  0
   15.3539   -9.5842  -10.2646 C   0  0  0  0  0  0  0  0  0  0  0  0
   15.2510   -9.2511  -11.4451 O   0  0  0  0  0  0  0  0  0  0  0  0
   15.4779   -8.5982   -9.2732 N   0  0  0  0  0  0  0  0  0  0  0  0
   15.4750   -7.2092   -9.3909 C   0  0  1  0  0  0  0  0  0  0  0  0
   15.0897   -6.3438   -8.2028 C   0  0  0  0  0  0  0  0  0  0  0  0
   14.8690   -4.9112   -8.4900 C   0  0  0  0  0  0  0  0  0  0  0  0
   14.2493   -4.2311   -7.2624 C   0  0  0  0  0  0  0  0  0  0  0  0
   13.8949   -2.8012   -7.5123 C   0  0  0  0  0  0  0  0  0  0  0  0
   13.2974   -2.3158   -6.2846 N   0  0  0  0  0  0  0  0  0  0  0  0
   16.6997   -6.5844   -9.9025 C   0  0  0  0  0  0  0  0  0  0  0  0
   17.6463   -6.5254   -9.0195 O   0  0  0  0  0  0  0  0  0  0  0  0
   21.6532   -6.1227  -11.5475 N   0  0  0  0  0  0  0  0  0  0  0  0
   20.5001   -6.1714  -12.3968 C   0  0  0  0  0  0  0  0  0  0  0  0
   20.6606   -5.7249  -13.5605 O   0  0  0  0  0  0  0  0  0  0  0  0
   19.2089   -6.7006  -11.9512 C   0  0  0  0  0  0  0  0  0  0  0  0
   18.3160   -5.5878  -11.4521 C   0  0  2  0  0  0  0  0  0  0  0  0
   16.9821   -6.0733  -11.1542 N   0  0  0  0  0  0  0  0  0  0  0  0
   18.3016   -4.4851  -12.4652 C   0  0  0  0  0  0  0  0  0  0  0  0
   19.2384   -3.4963  -12.4939 O   0  0  0  0  0  0  0  0  0  0  0  0
   17.3564   -4.5229  -13.3086 O   0  0  0  0  0  0  0  0  0  0  0  0
  1  2  1  0
  2  3  1  0
  3  4  2  0
  3  5  1  0
  5  6  1  0
  6 12  1  0
  6  7  1  1
  8  7  1  0
  9  8  1  0
 10  9  1  0
 10 11  1  0
 12 13  2  0
 12 19  1  0
 15 17  1  0
 15 14  1  0
 16 15  2  0
 18 20  1  0
 18 17  1  6
 19 18  1  0
 20 21  1  0
 22 20  2  0
M  END
$$$$
