GKN.pdb
     RDKit          3D

 22 21  0  0  1  0  0  0  0  0999 V2000
   22.8787  -12.9359  -19.0300 N   0  0  0  0  0  0  0  0  0  0  0  0
   22.9727  -12.2148  -17.7821 C   0  0  0  0  0  0  0  0  0  0  0  0
   21.9410  -11.1331  -17.6570 C   0  0  0  0  0  0  0  0  0  0  0  0
   22.0271  -10.1782  -18.4289 O   0  0  0  0  0  0  0  0  0  0  0  0
   20.9079  -11.1674  -16.7074 N   0  0  0  0  0  0  0  0  0  0  0  0
   19.8908  -10.2464  -16.4619 C   0  0  1  0  0  0  0  0  0  0  0  0
   18.5270  -10.7235  -15.9911 C   0  0  0  0  0  0  0  0  0  0  0  0
   17.7719  -11.5652  -16.9424 C   0  0  0  0  0  0  0  0  0  0  0  0
   16.4215  -11.9520  -16.3256 C   0  0  0  0  0  0  0  0  0  0  0  0
   15.6717  -12.9441  -17.1538 C   0  0  0  0  0  0  0  0  0  0  0  0
   14.4663  -13.2560  -16.4123 N   0  0  0  0  0  0  0  0  0  0  0  0
   20.2075   -9.1329  -15.5608 C   0  0  0  0  0  0  0  0  0  0  0  0
   20.5020   -9.5201  -14.3597 O   0  0  0  0  0  0  0  0  0  0  0  0
   22.6316   -3.8928  -14.2253 N   0  0  0  0  0  0  0  0  0  0  0  0
   22.3270   -5.2704  -13.9747 C   0  0  0  0  0  0  0  0  0  0  0  0
   22.3957   -5.6344  -12.7738 O   0  0  0  0  0  0  0  0  0  0  0  0
   21.9613   -6.2081  -15.0390 C   0  0  0  0  0  0  0  0  0  0  0  0
   20.6297   -6.8605  -14.7456 C   0  0  2  0  0  0  0  0  0  0  0  0
   20.2436   -7.7738  -15.8041 N   0  0  0  0  0  0  0  0  0  0  0  0
   19.6045   -5.7923  -14.5204 C   0  0  0  0  0  0  0  0  0  0  0  0
   19.6413   -4.9468  -13.4528 O   0  0  0  0  0  0  0  0  0  0  0  0
   18.6871   -5.7156  -15.3913 O   0  0  0  0  0  0  0  0  0  0  0  0
  1  2  1  0
  2  3  1  0
  3  4  2  0
  3  5  1  0
  5  6  1  0
  6 12  1  0
  6  7  1  1
  8  7  1  0
  9  8  1  0
 10  9  1  0
 10 11  1  0
 12 13  2  0
 12 19  1  0
 15 17  1  0
 15 14  1  0
 16 15  2  0
 18 20  1  0
 18 17  1  6
 19 18  1  0
 20 21  1  0
 22 20  2  0
M  END
$$$$
