GKN.pdb
     RDKit          3D

 22 21  0  0  1  0  0  0  0  0999 V2000
   14.9836   -7.5500   -8.3964 N   0  0  0  0  0  0  0  0  0  0  0  0
   15.9750   -6.7006   -9.0144 C   0  0  0  0  0  0  0  0  0  0  0  0
   16.8213   -7.4291  -10.0160 C   0  0  0  0  0  0  0  0  0  0  0  0
   17.8738   -7.9238   -9.6130 O   0  0  0  0  0  0  0  0  0  0  0  0
   16.4665   -7.5577  -11.3680 N   0  0  0  0  0  0  0  0  0  0  0  0
   17.1426   -8.1873  -12.4118 C   0  0  1  0  0  0  0  0  0  0  0  0
   16.3643   -8.9091  -13.4992 C   0  0  0  0  0  0  0  0  0  0  0  0
   15.4280   -9.9555  -13.0389 C   0  0  0  0  0  0  0  0  0  0  0  0
   16.0998  -11.3303  -13.1498 C   0  0  0  0  0  0  0  0  0  0  0  0
   15.1648  -12.4557  -12.8469 C   0  0  0  0  0  0  0  0  0  0  0  0
   15.9509  -13.6688  -12.9498 N   0  0  0  0  0  0  0  0  0  0  0  0
   18.1198   -7.3808  -13.1510 C   0  0  0  0  0  0  0  0  0  0  0  0
   17.6499   -6.2333  -13.5274 O   0  0  0  0  0  0  0  0  0  0  0  0
   21.9011   -4.6385  -15.1274 N   0  0  0  0  0  0  0  0  0  0  0  0
   21.2089   -4.3986  -13.8959 C   0  0  0  0  0  0  0  0  0  0  0  0
   21.4060   -3.2745  -13.3695 O   0  0  0  0  0  0  0  0  0  0  0  0
   20.3280   -5.3907  -13.2750 C   0  0  0  0  0  0  0  0  0  0  0  0
   20.2442   -6.6394  -14.1227 C   0  0  2  0  0  0  0  0  0  0  0  0
   19.4310   -7.6575  -13.4857 N   0  0  0  0  0  0  0  0  0  0  0  0
   21.6313   -7.1244  -14.4114 C   0  0  0  0  0  0  0  0  0  0  0  0
   22.3358   -6.7356  -15.5108 O   0  0  0  0  0  0  0  0  0  0  0  0
   22.1225   -7.9281  -13.5635 O   0  0  0  0  0  0  0  0  0  0  0  0
  1  2  1  0
  2  3  1  0
  3  4  2  0
  3  5  1  0
  5  6  1  0
  6 12  1  0
  6  7  1  6
  8  7  1  0
  9  8  1  0
 10  9  1  0
 10 11  1  0
 12 13  2  0
 12 19  1  0
 15 17  1  0
 15 14  1  0
 16 15  2  0
 18 20  1  0
 18 17  1  1
 19 18  1  0
 20 21  1  0
 22 20  2  0
M  END
$$$$
