GKN.pdb
     RDKit          3D

 22 21  0  0  1  0  0  0  0  0999 V2000
   14.0985   -7.6044   -7.2595 N   0  0  0  0  0  0  0  0  0  0  0  0
   14.9814   -6.7870   -8.0585 C   0  0  0  0  0  0  0  0  0  0  0  0
   15.8133   -7.5915   -9.0127 C   0  0  0  0  0  0  0  0  0  0  0  0
   16.4014   -8.5735   -8.5602 O   0  0  0  0  0  0  0  0  0  0  0  0
   15.9474   -7.2673  -10.3719 N   0  0  0  0  0  0  0  0  0  0  0  0
   16.6219   -7.9424  -11.3879 C   0  0  1  0  0  0  0  0  0  0  0  0
   15.8948   -8.3159  -12.6689 C   0  0  0  0  0  0  0  0  0  0  0  0
   14.6675   -9.1222  -12.5050 C   0  0  0  0  0  0  0  0  0  0  0  0
   15.0233  -10.6139  -12.5509 C   0  0  0  0  0  0  0  0  0  0  0  0
   13.8274  -11.4973  -12.4031 C   0  0  0  0  0  0  0  0  0  0  0  0
   14.3357  -12.8529  -12.3397 N   0  0  0  0  0  0  0  0  0  0  0  0
   17.8813   -7.3521  -11.8541 C   0  0  0  0  0  0  0  0  0  0  0  0
   17.7498   -6.1267  -12.2547 O   0  0  0  0  0  0  0  0  0  0  0  0
   20.9168   -5.4982   -9.4815 N   0  0  0  0  0  0  0  0  0  0  0  0
   21.2345   -5.6264  -10.8729 C   0  0  0  0  0  0  0  0  0  0  0  0
   21.3954   -4.5477  -11.4972 O   0  0  0  0  0  0  0  0  0  0  0  0
   21.3631   -6.9239  -11.5406 C   0  0  0  0  0  0  0  0  0  0  0  0
   20.2308   -7.1389  -12.5185 C   0  0  2  0  0  0  0  0  0  0  0  0
   19.1493   -7.8958  -11.9174 N   0  0  0  0  0  0  0  0  0  0  0  0
   20.7698   -7.8040  -13.7472 C   0  0  0  0  0  0  0  0  0  0  0  0
   21.6293   -7.1858  -14.6048 O   0  0  0  0  0  0  0  0  0  0  0  0
   20.3778   -8.9922  -13.9486 O   0  0  0  0  0  0  0  0  0  0  0  0
  1  2  1  0
  2  3  1  0
  3  4  2  0
  3  5  1  0
  5  6  1  0
  6 12  1  0
  6  7  1  6
  8  7  1  0
  9  8  1  0
 10  9  1  0
 10 11  1  0
 12 13  2  0
 12 19  1  0
 15 17  1  0
 15 14  1  0
 16 15  2  0
 18 20  1  0
 18 17  1  1
 19 18  1  0
 20 21  1  0
 22 20  2  0
M  END
$$$$
