GKN.pdb
     RDKit          3D

 22 21  0  0  1  0  0  0  0  0999 V2000
   16.2021  -13.8800  -16.9155 N   0  0  0  0  0  0  0  0  0  0  0  0
   16.5064  -13.2915  -15.6320 C   0  0  0  0  0  0  0  0  0  0  0  0
   17.9014  -12.7449  -15.5596 C   0  0  0  0  0  0  0  0  0  0  0  0
   18.3037  -12.3667  -14.4595 O   0  0  0  0  0  0  0  0  0  0  0  0
   18.7431  -12.6452  -16.6785 N   0  0  0  0  0  0  0  0  0  0  0  0
   20.0706  -12.2284  -16.7621 C   0  0  1  0  0  0  0  0  0  0  0  0
   20.9173  -12.6149  -17.9632 C   0  0  0  0  0  0  0  0  0  0  0  0
   22.3510  -12.2660  -17.8837 C   0  0  0  0  0  0  0  0  0  0  0  0
   23.0521  -12.6763  -19.1852 C   0  0  0  0  0  0  0  0  0  0  0  0
   24.5064  -12.3331  -19.1902 C   0  0  0  0  0  0  0  0  0  0  0  0
   25.0374  -12.8562  -20.4330 N   0  0  0  0  0  0  0  0  0  0  0  0
   20.3271  -10.7938  -16.5943 C   0  0  0  0  0  0  0  0  0  0  0  0
   19.6380  -10.0565  -17.4072 O   0  0  0  0  0  0  0  0  0  0  0  0
   21.4249   -5.9198  -15.4662 N   0  0  0  0  0  0  0  0  0  0  0  0
   21.4486   -6.7052  -14.2678 C   0  0  0  0  0  0  0  0  0  0  0  0
   21.5594   -6.0600  -13.1951 O   0  0  0  0  0  0  0  0  0  0  0  0
   21.3549   -8.1670  -14.2758 C   0  0  0  0  0  0  0  0  0  0  0  0
   21.1876   -8.6866  -15.6854 C   0  0  2  0  0  0  0  0  0  0  0  0
   21.1658  -10.1365  -15.7155 N   0  0  0  0  0  0  0  0  0  0  0  0
   22.2763   -8.1209  -16.5440 C   0  0  0  0  0  0  0  0  0  0  0  0
   23.1508   -8.9020  -17.2377 O   0  0  0  0  0  0  0  0  0  0  0  0
   22.3403   -6.8561  -16.5920 O   0  0  0  0  0  0  0  0  0  0  0  0
  1  2  1  0
  2  3  1  0
  3  4  2  0
  3  5  1  0
  5  6  1  0
  6 12  1  0
  6  7  1  6
  8  7  1  0
  9  8  1  0
 10  9  1  0
 10 11  1  0
 12 13  2  0
 12 19  1  0
 15 17  1  0
 15 14  1  0
 16 15  2  0
 18 20  1  0
 18 17  1  1
 19 18  1  0
 20 21  1  0
 22 20  2  0
M  END
$$$$
