GKN.pdb
     RDKit          3D

 22 21  0  0  1  0  0  0  0  0999 V2000
   18.7289  -12.1195  -15.0616 N   0  0  0  0  0  0  0  0  0  0  0  0
   19.6988  -12.0821  -16.1312 C   0  0  0  0  0  0  0  0  0  0  0  0
   19.9432  -10.6944  -16.6456 C   0  0  0  0  0  0  0  0  0  0  0  0
   21.1140  -10.3449  -16.7941 O   0  0  0  0  0  0  0  0  0  0  0  0
   18.9069   -9.7979  -16.9501 N   0  0  0  0  0  0  0  0  0  0  0  0
   18.9660   -8.5234  -17.5115 C   0  0  1  0  0  0  0  0  0  0  0  0
   17.7788   -7.9748  -18.2852 C   0  0  0  0  0  0  0  0  0  0  0  0
   17.4456   -8.6762  -19.5423 C   0  0  0  0  0  0  0  0  0  0  0  0
   15.9415   -8.9766  -19.5795 C   0  0  0  0  0  0  0  0  0  0  0  0
   15.5173   -9.6437  -20.8474 C   0  0  0  0  0  0  0  0  0  0  0  0
   14.0997   -9.9088  -20.7061 N   0  0  0  0  0  0  0  0  0  0  0  0
   19.3473   -7.4228  -16.6196 C   0  0  0  0  0  0  0  0  0  0  0  0
   18.6911   -7.4247  -15.5021 O   0  0  0  0  0  0  0  0  0  0  0  0
   21.2587   -3.6319  -13.7572 N   0  0  0  0  0  0  0  0  0  0  0  0
   22.1523   -4.7146  -14.0448 C   0  0  0  0  0  0  0  0  0  0  0  0
   23.1782   -4.7816  -13.3220 O   0  0  0  0  0  0  0  0  0  0  0  0
   21.9027   -5.6867  -15.1117 C   0  0  0  0  0  0  0  0  0  0  0  0
   20.5350   -5.4768  -15.7201 C   0  0  2  0  0  0  0  0  0  0  0  0
   20.2823   -6.4210  -16.7917 N   0  0  0  0  0  0  0  0  0  0  0  0
   20.4213   -4.0565  -16.1812 C   0  0  0  0  0  0  0  0  0  0  0  0
   19.7665   -3.0986  -15.4672 O   0  0  0  0  0  0  0  0  0  0  0  0
   20.9768   -3.7897  -17.2885 O   0  0  0  0  0  0  0  0  0  0  0  0
  1  2  1  0
  2  3  1  0
  3  4  2  0
  3  5  1  0
  5  6  1  0
  6 12  1  0
  6  7  1  1
  8  7  1  0
  9  8  1  0
 10  9  1  0
 10 11  1  0
 12 13  2  0
 12 19  1  0
 15 17  1  0
 15 14  1  0
 16 15  2  0
 18 20  1  0
 18 17  1  6
 19 18  1  0
 20 21  1  0
 22 20  2  0
M  END
$$$$
