GKN.pdb
     RDKit          3D

 22 21  0  0  1  0  0  0  0  0999 V2000
   25.4541  -22.0043  -11.4598 N   0  0  0  0  0  0  0  0  0  0  0  0
   24.4365  -21.0051  -11.6880 C   0  0  0  0  0  0  0  0  0  0  0  0
   24.4284  -20.4957  -13.0988 C   0  0  0  0  0  0  0  0  0  0  0  0
   25.3893  -20.7877  -13.8105 O   0  0  0  0  0  0  0  0  0  0  0  0
   23.3901  -19.7095  -13.6224 N   0  0  0  0  0  0  0  0  0  0  0  0
   23.2252  -19.1882  -14.9046 C   0  0  1  0  0  0  0  0  0  0  0  0
   21.8409  -19.1187  -15.5276 C   0  0  0  0  0  0  0  0  0  0  0  0
   21.2163  -20.4152  -15.8630 C   0  0  0  0  0  0  0  0  0  0  0  0
   20.3445  -20.8835  -14.6906 C   0  0  0  0  0  0  0  0  0  0  0  0
   19.6155  -22.1541  -14.9850 C   0  0  0  0  0  0  0  0  0  0  0  0
   18.8925  -22.4911  -13.7752 N   0  0  0  0  0  0  0  0  0  0  0  0
   23.7959  -17.8611  -15.1595 C   0  0  0  0  0  0  0  0  0  0  0  0
   23.4024  -16.9673  -14.3076 O   0  0  0  0  0  0  0  0  0  0  0  0
   26.3502  -13.5544  -16.0949 N   0  0  0  0  0  0  0  0  0  0  0  0
   27.1769  -14.6844  -16.3997 C   0  0  0  0  0  0  0  0  0  0  0  0
   28.3939  -14.4345  -16.5891 O   0  0  0  0  0  0  0  0  0  0  0  0
   26.6521  -16.0489  -16.4925 C   0  0  0  0  0  0  0  0  0  0  0  0
   25.1876  -16.0872  -16.1206 C   0  0  2  0  0  0  0  0  0  0  0  0
   24.6717  -17.4427  -16.1421 N   0  0  0  0  0  0  0  0  0  0  0  0
   24.4291  -15.1804  -17.0398 C   0  0  0  0  0  0  0  0  0  0  0  0
   24.1961  -13.8684  -16.7563 O   0  0  0  0  0  0  0  0  0  0  0  0
   24.0100  -15.7079  -18.1132 O   0  0  0  0  0  0  0  0  0  0  0  0
  1  2  1  0
  2  3  1  0
  3  4  2  0
  3  5  1  0
  5  6  1  0
  6 12  1  0
  6  7  1  1
  8  7  1  0
  9  8  1  0
 10  9  1  0
 10 11  1  0
 12 13  2  0
 12 19  1  0
 15 17  1  0
 15 14  1  0
 16 15  2  0
 18 20  1  0
 18 17  1  6
 19 18  1  0
 20 21  1  0
 22 20  2  0
M  END
$$$$
