GKN.pdb
     RDKit          3D

 22 21  0  0  1  0  0  0  0  0999 V2000
   16.5909  -14.4733  -14.7379 N   0  0  0  0  0  0  0  0  0  0  0  0
   17.3687  -13.5037  -14.0023 C   0  0  0  0  0  0  0  0  0  0  0  0
   17.0274  -12.0890  -14.3654 C   0  0  0  0  0  0  0  0  0  0  0  0
   17.3937  -11.6847  -15.4687 O   0  0  0  0  0  0  0  0  0  0  0  0
   16.3266  -11.2267  -13.5075 N   0  0  0  0  0  0  0  0  0  0  0  0
   15.9258   -9.9060  -13.7024 C   0  0  1  0  0  0  0  0  0  0  0  0
   14.6286   -9.4042  -13.0904 C   0  0  0  0  0  0  0  0  0  0  0  0
   14.0984  -10.1941  -11.9598 C   0  0  0  0  0  0  0  0  0  0  0  0
   12.7350   -9.6325  -11.5359 C   0  0  0  0  0  0  0  0  0  0  0  0
   12.1206  -10.3979  -10.4093 C   0  0  0  0  0  0  0  0  0  0  0  0
   10.8422   -9.7678  -10.1468 N   0  0  0  0  0  0  0  0  0  0  0  0
   16.9012   -8.8613  -13.3721 C   0  0  0  0  0  0  0  0  0  0  0  0
   17.5720   -9.1161  -12.2930 O   0  0  0  0  0  0  0  0  0  0  0  0
   21.5071   -6.8955  -12.7834 N   0  0  0  0  0  0  0  0  0  0  0  0
   20.9086   -7.2312  -14.0414 C   0  0  0  0  0  0  0  0  0  0  0  0
   21.5467   -6.8708  -15.0623 O   0  0  0  0  0  0  0  0  0  0  0  0
   19.6337   -7.9446  -14.1478 C   0  0  0  0  0  0  0  0  0  0  0  0
   18.4785   -7.0344  -13.7985 C   0  0  2  0  0  0  0  0  0  0  0  0
   17.2034   -7.6854  -14.0307 N   0  0  0  0  0  0  0  0  0  0  0  0
   18.6114   -5.7609  -14.5752 C   0  0  0  0  0  0  0  0  0  0  0  0
   17.7193   -5.3839  -15.5334 O   0  0  0  0  0  0  0  0  0  0  0  0
   19.6139   -5.0412  -14.2874 O   0  0  0  0  0  0  0  0  0  0  0  0
  1  2  1  0
  2  3  1  0
  3  4  2  0
  3  5  1  0
  5  6  1  0
  6 12  1  0
  6  7  1  1
  8  7  1  0
  9  8  1  0
 10  9  1  0
 10 11  1  0
 12 13  2  0
 12 19  1  0
 15 17  1  0
 15 14  1  0
 16 15  2  0
 18 20  1  0
 18 17  1  6
 19 18  1  0
 20 21  1  0
 22 20  2  0
M  END
$$$$
