GKN.pdb
     RDKit          3D

 22 21  0  0  1  0  0  0  0  0999 V2000
   19.8540  -16.5089  -15.6468 N   0  0  0  0  0  0  0  0  0  0  0  0
   20.5596  -17.2003  -14.5931 C   0  0  0  0  0  0  0  0  0  0  0  0
   20.6337  -18.6814  -14.8181 C   0  0  0  0  0  0  0  0  0  0  0  0
   19.6546  -19.2250  -15.3289 O   0  0  0  0  0  0  0  0  0  0  0  0
   21.7526  -19.4534  -14.4682 N   0  0  0  0  0  0  0  0  0  0  0  0
   21.9428  -20.8324  -14.5396 C   0  0  1  0  0  0  0  0  0  0  0  0
   23.3486  -21.4092  -14.5468 C   0  0  0  0  0  0  0  0  0  0  0  0
   24.2360  -20.9378  -15.6303 C   0  0  0  0  0  0  0  0  0  0  0  0
   25.6156  -21.5931  -15.4855 C   0  0  0  0  0  0  0  0  0  0  0  0
   25.6008  -23.0494  -15.8195 C   0  0  0  0  0  0  0  0  0  0  0  0
   26.9768  -23.4951  -15.7306 N   0  0  0  0  0  0  0  0  0  0  0  0
   21.2281  -21.6523  -13.5553 C   0  0  0  0  0  0  0  0  0  0  0  0
   21.4857  -21.3150  -12.3309 O   0  0  0  0  0  0  0  0  0  0  0  0
   16.6768  -22.8140  -10.6853 N   0  0  0  0  0  0  0  0  0  0  0  0
   18.1083  -22.8011  -10.7486 C   0  0  0  0  0  0  0  0  0  0  0  0
   18.7019  -23.3322   -9.7765 O   0  0  0  0  0  0  0  0  0  0  0  0
   18.8474  -22.2075  -11.8653 C   0  0  0  0  0  0  0  0  0  0  0  0
   19.6424  -23.2604  -12.6030 C   0  0  2  0  0  0  0  0  0  0  0  0
   20.3411  -22.6947  -13.7412 N   0  0  0  0  0  0  0  0  0  0  0  0
   18.7227  -24.3729  -13.0017 C   0  0  0  0  0  0  0  0  0  0  0  0
   18.2195  -25.2709  -12.1092 O   0  0  0  0  0  0  0  0  0  0  0  0
   18.4324  -24.4340  -14.2338 O   0  0  0  0  0  0  0  0  0  0  0  0
  1  2  1  0
  2  3  1  0
  3  4  2  0
  3  5  1  0
  5  6  1  0
  6 12  1  0
  6  7  1  1
  8  7  1  0
  9  8  1  0
 10  9  1  0
 10 11  1  0
 12 13  2  0
 12 19  1  0
 15 17  1  0
 15 14  1  0
 16 15  2  0
 18 20  1  0
 18 17  1  6
 19 18  1  0
 20 21  1  0
 22 20  2  0
M  END
$$$$
