GKN.pdb
     RDKit          3D

 22 21  0  0  1  0  0  0  0  0999 V2000
   15.1050  -13.0704  -14.5064 N   0  0  0  0  0  0  0  0  0  0  0  0
   15.2234  -11.6471  -14.7218 C   0  0  0  0  0  0  0  0  0  0  0  0
   16.6135  -11.1369  -14.4824 C   0  0  0  0  0  0  0  0  0  0  0  0
   17.0577  -11.2230  -13.3377 O   0  0  0  0  0  0  0  0  0  0  0  0
   17.4055  -10.5709  -15.4937 N   0  0  0  0  0  0  0  0  0  0  0  0
   18.6759  -10.0023  -15.4190 C   0  0  1  0  0  0  0  0  0  0  0  0
   19.4996   -9.8067  -16.6809 C   0  0  0  0  0  0  0  0  0  0  0  0
   20.8877   -9.3410  -16.4821 C   0  0  0  0  0  0  0  0  0  0  0  0
   21.6046   -9.2707  -17.8366 C   0  0  0  0  0  0  0  0  0  0  0  0
   23.0124   -8.7838  -17.7200 C   0  0  0  0  0  0  0  0  0  0  0  0
   23.5623   -8.8223  -19.0602 N   0  0  0  0  0  0  0  0  0  0  0  0
   18.7874   -8.7174  -14.7200 C   0  0  0  0  0  0  0  0  0  0  0  0
   17.9172   -7.8446  -15.1206 O   0  0  0  0  0  0  0  0  0  0  0  0
   18.6809   -5.4762   -9.7896 N   0  0  0  0  0  0  0  0  0  0  0  0
   18.7187   -5.7279  -11.1998 C   0  0  0  0  0  0  0  0  0  0  0  0
   18.5904   -4.7186  -11.9375 O   0  0  0  0  0  0  0  0  0  0  0  0
   18.8907   -7.0698  -11.7615 C   0  0  0  0  0  0  0  0  0  0  0  0
   19.5228   -7.0007  -13.1328 C   0  0  2  0  0  0  0  0  0  0  0  0
   19.6547   -8.3198  -13.7214 N   0  0  0  0  0  0  0  0  0  0  0  0
   20.8401   -6.2966  -13.0256 C   0  0  0  0  0  0  0  0  0  0  0  0
   20.9878   -4.9648  -13.2721 O   0  0  0  0  0  0  0  0  0  0  0  0
   21.8254   -7.0179  -12.6867 O   0  0  0  0  0  0  0  0  0  0  0  0
  1  2  1  0
  2  3  1  0
  3  4  2  0
  3  5  1  0
  5  6  1  0
  6 12  1  0
  6  7  1  6
  8  7  1  0
  9  8  1  0
 10  9  1  0
 10 11  1  0
 12 13  2  0
 12 19  1  0
 15 17  1  0
 15 14  1  0
 16 15  2  0
 18 20  1  0
 18 17  1  1
 19 18  1  0
 20 21  1  0
 22 20  2  0
M  END
$$$$
