GKN.pdb
     RDKit          3D

 22 21  0  0  1  0  0  0  0  0999 V2000
   13.0384  -21.8626   -3.3918 N   0  0  0  0  0  0  0  0  0  0  0  0
   14.2941  -22.0634   -2.7068 C   0  0  0  0  0  0  0  0  0  0  0  0
   14.1240  -22.2720   -1.2312 C   0  0  0  0  0  0  0  0  0  0  0  0
   13.1651  -21.7224   -0.6896 O   0  0  0  0  0  0  0  0  0  0  0  0
   15.0043  -23.0491   -0.4619 N   0  0  0  0  0  0  0  0  0  0  0  0
   14.9662  -23.3593    0.8965 C   0  0  1  0  0  0  0  0  0  0  0  0
   15.5532  -24.6686    1.3967 C   0  0  0  0  0  0  0  0  0  0  0  0
   15.2007  -25.0492    2.7803 C   0  0  0  0  0  0  0  0  0  0  0  0
   15.8184  -26.4142    3.1104 C   0  0  0  0  0  0  0  0  0  0  0  0
   15.4501  -26.8996    4.4747 C   0  0  0  0  0  0  0  0  0  0  0  0
   16.0964  -28.1873    4.6301 N   0  0  0  0  0  0  0  0  0  0  0  0
   15.5012  -22.3543    1.8216 C   0  0  0  0  0  0  0  0  0  0  0  0
   16.7424  -22.0620    1.5910 O   0  0  0  0  0  0  0  0  0  0  0  0
   16.6644  -18.2240    2.9092 N   0  0  0  0  0  0  0  0  0  0  0  0
   15.3723  -18.2750    3.5266 C   0  0  0  0  0  0  0  0  0  0  0  0
   14.7813  -17.1724    3.6468 O   0  0  0  0  0  0  0  0  0  0  0  0
   14.7668  -19.5233    3.9966 C   0  0  0  0  0  0  0  0  0  0  0  0
   15.6310  -20.7091    3.6336 C   0  0  2  0  0  0  0  0  0  0  0  0
   14.8879  -21.6898    2.8656 N   0  0  0  0  0  0  0  0  0  0  0  0
   16.2064  -21.2927    4.8871 C   0  0  0  0  0  0  0  0  0  0  0  0
   15.8015  -22.4888    5.3983 O   0  0  0  0  0  0  0  0  0  0  0  0
   17.1054  -20.6030    5.4546 O   0  0  0  0  0  0  0  0  0  0  0  0
  1  2  1  0
  2  3  1  0
  3  4  2  0
  3  5  1  0
  5  6  1  0
  6 12  1  0
  6  7  1  6
  8  7  1  0
  9  8  1  0
 10  9  1  0
 10 11  1  0
 12 13  2  0
 12 19  1  0
 15 17  1  0
 15 14  1  0
 16 15  2  0
 18 20  1  0
 18 17  1  1
 19 18  1  0
 20 21  1  0
 22 20  2  0
M  END
$$$$
