GKN.pdb
     RDKit          3D

 22 21  0  0  1  0  0  0  0  0999 V2000
   28.6189  -23.3605  -16.4493 N   0  0  0  0  0  0  0  0  0  0  0  0
   28.1559  -22.0048  -16.2654 C   0  0  0  0  0  0  0  0  0  0  0  0
   26.8195  -21.9342  -15.5879 C   0  0  0  0  0  0  0  0  0  0  0  0
   25.9160  -22.6332  -16.0462 O   0  0  0  0  0  0  0  0  0  0  0  0
   26.5667  -21.1120  -14.4786 N   0  0  0  0  0  0  0  0  0  0  0  0
   25.3780  -20.8897  -13.7853 C   0  0  1  0  0  0  0  0  0  0  0  0
   25.4133  -20.3716  -12.3572 C   0  0  0  0  0  0  0  0  0  0  0  0
   25.0256  -21.3377  -11.3085 C   0  0  0  0  0  0  0  0  0  0  0  0
   25.1900  -20.6897   -9.9276 C   0  0  0  0  0  0  0  0  0  0  0  0
   24.7959  -21.6017   -8.8115 C   0  0  0  0  0  0  0  0  0  0  0  0
   24.9902  -20.8472   -7.5896 N   0  0  0  0  0  0  0  0  0  0  0  0
   24.3739  -20.0468  -14.4436 C   0  0  0  0  0  0  0  0  0  0  0  0
   24.8946  -19.1525  -15.2236 O   0  0  0  0  0  0  0  0  0  0  0  0
   24.1231  -19.4956  -18.6596 N   0  0  0  0  0  0  0  0  0  0  0  0
   22.9295  -19.6160  -17.8758 C   0  0  0  0  0  0  0  0  0  0  0  0
   21.9803  -18.8626  -18.2085 O   0  0  0  0  0  0  0  0  0  0  0  0
   22.8089  -20.5493  -16.7532 C   0  0  0  0  0  0  0  0  0  0  0  0
   22.1952  -19.8675  -15.5518 C   0  0  2  0  0  0  0  0  0  0  0  0
   22.9955  -20.0747  -14.3601 N   0  0  0  0  0  0  0  0  0  0  0  0
   20.7905  -20.3575  -15.3802 C   0  0  0  0  0  0  0  0  0  0  0  0
   19.7025  -19.5564  -15.5548 O   0  0  0  0  0  0  0  0  0  0  0  0
   20.6669  -21.5773  -15.0596 O   0  0  0  0  0  0  0  0  0  0  0  0
  1  2  1  0
  2  3  1  0
  3  4  2  0
  3  5  1  0
  5  6  1  0
  6 12  1  0
  6  7  1  1
  8  7  1  0
  9  8  1  0
 10  9  1  0
 10 11  1  0
 12 13  2  0
 12 19  1  0
 15 17  1  0
 15 14  1  0
 16 15  2  0
 18 20  1  0
 18 17  1  6
 19 18  1  0
 20 21  1  0
 22 20  2  0
M  END
$$$$
