DTF.pdb
     RDKit          3D

 27 27  0  0  1  0  0  0  0  0999 V2000
   10.6917  -18.1900   14.6034 N   0  0  0  0  0  0  0  0  0  0  0  0
   11.3422  -18.0251   15.8976 C   0  0  1  0  0  0  0  0  0  0  0  0
   12.3304  -16.8979   15.8658 C   0  0  0  0  0  0  0  0  0  0  0  0
   13.4620  -17.2832   15.0010 C   0  0  0  0  0  0  0  0  0  0  0  0
   13.4986  -16.8752   13.8195 O   0  0  0  0  0  0  0  0  0  0  0  0
   10.3036  -17.8653   16.9178 C   0  0  0  0  0  0  0  0  0  0  0  0
    9.0877  -17.6594   16.5910 O   0  0  0  0  0  0  0  0  0  0  0  0
   14.4983  -18.0874   15.4474 O   0  0  0  0  0  0  0  0  0  0  0  0
    9.0300  -20.3260   18.7155 C   0  0  0  0  0  0  0  0  0  0  0  0
    9.5790  -19.4195   19.7647 C   0  0  1  0  0  0  0  0  0  0  0  0
   10.9217  -19.8144   19.9962 O   0  0  0  0  0  0  0  0  0  0  0  0
    9.6710  -17.9673   19.3657 C   0  0  2  0  0  0  0  0  0  0  0  0
   10.6681  -17.9429   18.2850 N   0  0  0  0  0  0  0  0  0  0  0  0
   10.1104  -17.0698   20.4436 C   0  0  0  0  0  0  0  0  0  0  0  0
   11.3247  -16.7047   20.4553 O   0  0  0  0  0  0  0  0  0  0  0  0
    9.3004  -16.5673   21.4805 N   0  0  0  0  0  0  0  0  0  0  0  0
    9.8274  -15.6170   22.4515 C   0  0  1  0  0  0  0  0  0  0  0  0
    8.8403  -14.5489   22.7786 C   0  0  0  0  0  0  0  0  0  0  0  0
    8.2801  -13.9334   21.5642 C   0  0  0  0  0  0  0  0  0  0  0  0
    9.0565  -12.9583   20.9385 C   0  0  0  0  0  0  0  0  0  0  0  0
    8.5956  -12.3617   19.7906 C   0  0  0  0  0  0  0  0  0  0  0  0
    7.3803  -12.7044   19.2402 C   0  0  0  0  0  0  0  0  0  0  0  0
    6.5954  -13.6616   19.8353 C   0  0  0  0  0  0  0  0  0  0  0  0
    7.0712  -14.2554   20.9915 C   0  0  0  0  0  0  0  0  0  0  0  0
   10.1874  -16.3596   23.6694 C   0  0  0  0  0  0  0  0  0  0  0  0
    9.8586  -17.5432   23.9149 O   0  0  0  0  0  0  0  0  0  0  0  0
   10.9502  -15.7278   24.6413 O   0  0  0  0  0  0  0  0  0  0  0  0
  2  1  1  6
  2  3  1  0
  3  4  1  0
  4  5  2  0
  6  2  1  0
  7  6  2  0
  8  4  1  0
 10  9  1  6
 10 12  1  0
 11 10  1  0
 12 13  1  6
 13  6  1  0
 14 16  1  0
 14 12  1  0
 15 14  2  0
 17 16  1  0
 18 19  1  0
 17 18  1  1
 19 24  2  0
 19 20  1  0
 20 21  2  0
 21 22  1  0
 23 22  2  0
 24 23  1  0
 25 27  1  0
 25 17  1  0
 26 25  2  0
M  END
$$$$
