DTF.pdb
     RDKit          3D

 27 27  0  0  1  0  0  0  0  0999 V2000
    6.3155  -19.0301   22.1480 N   0  0  0  0  0  0  0  0  0  0  0  0
    7.3659  -19.0632   21.1374 C   0  0  1  0  0  0  0  0  0  0  0  0
    6.7998  -19.3504   19.7791 C   0  0  0  0  0  0  0  0  0  0  0  0
    6.3180  -20.7447   19.7509 C   0  0  0  0  0  0  0  0  0  0  0  0
    5.0949  -20.9692   19.6191 O   0  0  0  0  0  0  0  0  0  0  0  0
    8.1118  -17.8048   21.2074 C   0  0  0  0  0  0  0  0  0  0  0  0
    9.1551  -17.6189   20.4970 O   0  0  0  0  0  0  0  0  0  0  0  0
    7.1731  -21.8290   19.8658 O   0  0  0  0  0  0  0  0  0  0  0  0
    6.7449  -14.4389   20.4759 C   0  0  0  0  0  0  0  0  0  0  0  0
    7.2126  -14.4791   21.8913 C   0  0  1  0  0  0  0  0  0  0  0  0
    6.1199  -14.9232   22.6793 O   0  0  0  0  0  0  0  0  0  0  0  0
    8.3133  -15.4730   22.1693 C   0  0  2  0  0  0  0  0  0  0  0  0
    7.6571  -16.7862   22.0814 N   0  0  0  0  0  0  0  0  0  0  0  0
    8.9333  -15.3349   23.4949 C   0  0  0  0  0  0  0  0  0  0  0  0
    9.8620  -14.4823   23.6310 O   0  0  0  0  0  0  0  0  0  0  0  0
    8.5897  -16.0689   24.6469 N   0  0  0  0  0  0  0  0  0  0  0  0
    9.3636  -15.9438   25.8754 C   0  0  1  0  0  0  0  0  0  0  0  0
    8.5066  -15.5805   27.0396 C   0  0  0  0  0  0  0  0  0  0  0  0
    7.9453  -14.2264   26.9023 C   0  0  0  0  0  0  0  0  0  0  0  0
    8.8155  -13.1598   27.1259 C   0  0  0  0  0  0  0  0  0  0  0  0
    8.3547  -11.8728   26.9936 C   0  0  0  0  0  0  0  0  0  0  0  0
    7.0487  -11.6091   26.6442 C   0  0  0  0  0  0  0  0  0  0  0  0
    6.1702  -12.6403   26.4179 C   0  0  0  0  0  0  0  0  0  0  0  0
    6.6470  -13.9325   26.5542 C   0  0  0  0  0  0  0  0  0  0  0  0
   10.0346  -17.2288   26.1260 C   0  0  0  0  0  0  0  0  0  0  0  0
   10.7819  -17.4730   27.1013 O   0  0  0  0  0  0  0  0  0  0  0  0
    9.8454  -18.2720   25.2307 O   0  0  0  0  0  0  0  0  0  0  0  0
  2  1  1  1
  2  3  1  0
  3  4  1  0
  4  5  2  0
  6  2  1  0
  7  6  2  0
  8  4  1  0
 10  9  1  6
 10 12  1  0
 11 10  1  0
 12 13  1  1
 13  6  1  0
 14 16  1  0
 14 12  1  0
 15 14  2  0
 17 16  1  0
 18 19  1  0
 17 18  1  1
 19 24  2  0
 19 20  1  0
 20 21  2  0
 21 22  1  0
 23 22  2  0
 24 23  1  0
 25 27  1  0
 25 17  1  0
 26 25  2  0
M  END
$$$$
