DTF.pdb
     RDKit          3D

 27 27  0  0  1  0  0  0  0  0999 V2000
   10.7399  -17.0744   17.8385 N   0  0  0  0  0  0  0  0  0  0  0  0
   10.0601  -17.4675   19.0668 C   0  0  1  0  0  0  0  0  0  0  0  0
   10.8642  -18.4771   19.8299 C   0  0  0  0  0  0  0  0  0  0  0  0
   12.0372  -18.8592   19.0206 C   0  0  0  0  0  0  0  0  0  0  0  0
   11.8791  -19.5851   18.0146 O   0  0  0  0  0  0  0  0  0  0  0  0
    9.7593  -16.2569   19.8341 C   0  0  0  0  0  0  0  0  0  0  0  0
    9.9023  -15.0990   19.3176 O   0  0  0  0  0  0  0  0  0  0  0  0
   13.3218  -18.4432   19.3313 O   0  0  0  0  0  0  0  0  0  0  0  0
    7.7068  -14.4464   19.8318 C   0  0  0  0  0  0  0  0  0  0  0  0
    7.5552  -14.8091   21.2703 C   0  0  1  0  0  0  0  0  0  0  0  0
    6.7148  -15.9505   21.3265 O   0  0  0  0  0  0  0  0  0  0  0  0
    8.8292  -15.2383   21.9555 C   0  0  2  0  0  0  0  0  0  0  0  0
    9.3031  -16.3873   21.1694 N   0  0  0  0  0  0  0  0  0  0  0  0
    8.6539  -15.6544   23.3543 C   0  0  0  0  0  0  0  0  0  0  0  0
    7.8636  -16.6166   23.5939 O   0  0  0  0  0  0  0  0  0  0  0  0
    9.2895  -15.0792   24.4719 N   0  0  0  0  0  0  0  0  0  0  0  0
    8.8681  -15.4089   25.8275 C   0  0  1  0  0  0  0  0  0  0  0  0
    7.4002  -15.2292   26.0143 C   0  0  0  0  0  0  0  0  0  0  0  0
    7.0664  -13.8545   26.4219 C   0  0  0  0  0  0  0  0  0  0  0  0
    8.1310  -12.9647   26.5626 C   0  0  0  0  0  0  0  0  0  0  0  0
    7.8807  -11.6631   26.9219 C   0  0  0  0  0  0  0  0  0  0  0  0
    6.5985  -11.2134   27.1476 C   0  0  0  0  0  0  0  0  0  0  0  0
    5.5313  -12.0679   27.0161 C   0  0  0  0  0  0  0  0  0  0  0  0
    5.7969  -13.3770   26.6534 C   0  0  0  0  0  0  0  0  0  0  0  0
    9.2423  -16.8061   26.0957 C   0  0  0  0  0  0  0  0  0  0  0  0
    9.1442  -17.7481   25.2757 O   0  0  0  0  0  0  0  0  0  0  0  0
    9.7464  -17.1393   27.3449 O   0  0  0  0  0  0  0  0  0  0  0  0
  2  1  1  6
  2  3  1  0
  3  4  1  0
  4  5  2  0
  6  2  1  0
  7  6  2  0
  8  4  1  0
 10  9  1  6
 10 12  1  0
 11 10  1  0
 12 13  1  6
 13  6  1  0
 14 16  1  0
 14 12  1  0
 15 14  2  0
 17 16  1  0
 18 19  1  0
 17 18  1  6
 19 24  2  0
 19 20  1  0
 20 21  2  0
 21 22  1  0
 23 22  2  0
 24 23  1  0
 25 27  1  0
 25 17  1  0
 26 25  2  0
M  END
$$$$
