DTF.pdb
     RDKit          3D

 27 27  0  0  1  0  0  0  0  0999 V2000
    8.6236  -16.0649   18.5982 N   0  0  0  0  0  0  0  0  0  0  0  0
    8.5775  -14.7110   19.1370 C   0  0  1  0  0  0  0  0  0  0  0  0
    7.7725  -13.8053   18.2540 C   0  0  0  0  0  0  0  0  0  0  0  0
    8.1799  -14.0237   16.8529 C   0  0  0  0  0  0  0  0  0  0  0  0
    8.9625  -14.9602   16.5798 O   0  0  0  0  0  0  0  0  0  0  0  0
    8.0817  -14.7800   20.5133 C   0  0  0  0  0  0  0  0  0  0  0  0
    7.9104  -13.7210   21.2040 O   0  0  0  0  0  0  0  0  0  0  0  0
    7.7271  -13.2261   15.8142 O   0  0  0  0  0  0  0  0  0  0  0  0
    5.4207  -17.6451   21.3799 C   0  0  0  0  0  0  0  0  0  0  0  0
    6.5176  -17.5375   22.3844 C   0  0  1  0  0  0  0  0  0  0  0  0
    7.5243  -18.4614   22.0034 O   0  0  0  0  0  0  0  0  0  0  0  0
    7.2183  -16.2017   22.4202 C   0  0  2  0  0  0  0  0  0  0  0  0
    7.7916  -16.0484   21.0746 N   0  0  0  0  0  0  0  0  0  0  0  0
    8.2973  -16.1104   23.4141 C   0  0  0  0  0  0  0  0  0  0  0  0
    9.4877  -16.2959   23.0182 O   0  0  0  0  0  0  0  0  0  0  0  0
    8.1348  -15.8314   24.7851 N   0  0  0  0  0  0  0  0  0  0  0  0
    9.2822  -15.7804   25.6821 C   0  0  1  0  0  0  0  0  0  0  0  0
    9.5787  -14.3898   26.1296 C   0  0  0  0  0  0  0  0  0  0  0  0
    8.3500  -13.6502   26.4625 C   0  0  0  0  0  0  0  0  0  0  0  0
    7.6531  -13.0781   25.3985 C   0  0  0  0  0  0  0  0  0  0  0  0
    6.4891  -12.3921   25.6442 C   0  0  0  0  0  0  0  0  0  0  0  0
    5.9912  -12.2549   26.9212 C   0  0  0  0  0  0  0  0  0  0  0  0
    6.6568  -12.8083   27.9875 C   0  0  0  0  0  0  0  0  0  0  0  0
    7.8286  -13.4973   27.7266 C   0  0  0  0  0  0  0  0  0  0  0  0
    8.9911  -16.6322   26.8457 C   0  0  0  0  0  0  0  0  0  0  0  0
    9.7551  -16.8006   27.8241 O   0  0  0  0  0  0  0  0  0  0  0  0
    7.7846  -17.3160   26.8934 O   0  0  0  0  0  0  0  0  0  0  0  0
  2  1  1  6
  2  3  1  0
  3  4  1  0
  4  5  2  0
  6  2  1  0
  7  6  2  0
  8  4  1  0
 10  9  1  6
 10 12  1  0
 11 10  1  0
 12 13  1  6
 13  6  1  0
 14 16  1  0
 14 12  1  0
 15 14  2  0
 17 16  1  0
 18 19  1  0
 17 18  1  1
 19 24  2  0
 19 20  1  0
 20 21  2  0
 21 22  1  0
 23 22  2  0
 24 23  1  0
 25 27  1  0
 25 17  1  0
 26 25  2  0
M  END
$$$$
