DTF.pdb
     RDKit          3D

 27 27  0  0  1  0  0  0  0  0999 V2000
   12.2760  -17.1118   20.0928 N   0  0  0  0  0  0  0  0  0  0  0  0
   11.9846  -15.7162   20.3978 C   0  0  1  0  0  0  0  0  0  0  0  0
   12.0138  -14.8747   19.1572 C   0  0  0  0  0  0  0  0  0  0  0  0
   13.3461  -14.9933   18.5346 C   0  0  0  0  0  0  0  0  0  0  0  0
   14.3370  -15.2579   19.2503 O   0  0  0  0  0  0  0  0  0  0  0  0
   10.7092  -15.6585   21.1152 C   0  0  0  0  0  0  0  0  0  0  0  0
    9.8184  -14.7998   20.8040 O   0  0  0  0  0  0  0  0  0  0  0  0
   13.5489  -14.8221   17.1747 O   0  0  0  0  0  0  0  0  0  0  0  0
    8.2495  -18.2300   21.2193 C   0  0  0  0  0  0  0  0  0  0  0  0
    8.6425  -17.9851   22.6369 C   0  0  1  0  0  0  0  0  0  0  0  0
    9.7056  -18.8758   22.9349 O   0  0  0  0  0  0  0  0  0  0  0  0
    9.2051  -16.6125   22.9127 C   0  0  2  0  0  0  0  0  0  0  0  0
   10.4734  -16.5761   22.1691 N   0  0  0  0  0  0  0  0  0  0  0  0
    9.4740  -16.3423   24.3322 C   0  0  0  0  0  0  0  0  0  0  0  0
   10.6821  -16.3335   24.7174 O   0  0  0  0  0  0  0  0  0  0  0  0
    8.5045  -16.0871   25.3215 N   0  0  0  0  0  0  0  0  0  0  0  0
    8.8863  -15.8918   26.7143 C   0  0  1  0  0  0  0  0  0  0  0  0
    7.8436  -15.1508   27.4796 C   0  0  0  0  0  0  0  0  0  0  0  0
    7.4520  -13.9041   26.8016 C   0  0  0  0  0  0  0  0  0  0  0  0
    8.3364  -12.8303   26.9009 C   0  0  0  0  0  0  0  0  0  0  0  0
    8.0351  -11.6466   26.2731 C   0  0  0  0  0  0  0  0  0  0  0  0
    6.8760  -11.4937   25.5448 C   0  0  0  0  0  0  0  0  0  0  0  0
    5.9874  -12.5347   25.4301 C   0  0  0  0  0  0  0  0  0  0  0  0
    6.3027  -13.7223   26.0673 C   0  0  0  0  0  0  0  0  0  0  0  0
    9.1081  -17.2151   27.3176 C   0  0  0  0  0  0  0  0  0  0  0  0
    9.5334  -17.4151   28.4788 O   0  0  0  0  0  0  0  0  0  0  0  0
    8.8344  -18.3503   26.5678 O   0  0  0  0  0  0  0  0  0  0  0  0
  2  1  1  6
  2  3  1  0
  3  4  1  0
  4  5  2  0
  6  2  1  0
  7  6  2  0
  8  4  1  0
 10  9  1  6
 10 12  1  0
 11 10  1  0
 12 13  1  6
 13  6  1  0
 14 16  1  0
 14 12  1  0
 15 14  2  0
 17 16  1  0
 18 19  1  0
 17 18  1  1
 19 24  2  0
 19 20  1  0
 20 21  2  0
 21 22  1  0
 23 22  2  0
 24 23  1  0
 25 27  1  0
 25 17  1  0
 26 25  2  0
M  END
$$$$
