DTF.pdb
     RDKit          3D

 27 27  0  0  1  0  0  0  0  0999 V2000
   12.8502  -19.1613   19.2232 N   0  0  0  0  0  0  0  0  0  0  0  0
   12.8987  -17.9587   20.0460 C   0  0  1  0  0  0  0  0  0  0  0  0
   13.7417  -16.8982   19.4035 C   0  0  0  0  0  0  0  0  0  0  0  0
   15.1634  -17.2526   19.5768 C   0  0  0  0  0  0  0  0  0  0  0  0
   15.9812  -16.9702   18.6738 O   0  0  0  0  0  0  0  0  0  0  0  0
   11.5246  -17.5307   20.3170 C   0  0  0  0  0  0  0  0  0  0  0  0
   10.9222  -16.7214   19.5361 O   0  0  0  0  0  0  0  0  0  0  0  0
   15.6370  -17.8926   20.7109 O   0  0  0  0  0  0  0  0  0  0  0  0
    8.8092  -20.0665   20.8462 C   0  0  0  0  0  0  0  0  0  0  0  0
    8.8627  -19.1455   22.0178 C   0  0  1  0  0  0  0  0  0  0  0  0
    9.7539  -19.7204   22.9600 O   0  0  0  0  0  0  0  0  0  0  0  0
    9.4396  -17.7816   21.7288 C   0  0  2  0  0  0  0  0  0  0  0  0
   10.8652  -18.0306   21.4675 N   0  0  0  0  0  0  0  0  0  0  0  0
    9.3156  -16.8243   22.8372 C   0  0  0  0  0  0  0  0  0  0  0  0
   10.3329  -16.6255   23.5677 O   0  0  0  0  0  0  0  0  0  0  0  0
    8.1584  -16.0943   23.1713 N   0  0  0  0  0  0  0  0  0  0  0  0
    8.1547  -15.1655   24.2943 C   0  0  1  0  0  0  0  0  0  0  0  0
    6.9554  -14.2803   24.2817 C   0  0  0  0  0  0  0  0  0  0  0  0
    6.9857  -13.3050   25.3841 C   0  0  0  0  0  0  0  0  0  0  0  0
    8.1961  -13.1599   26.0616 C   0  0  0  0  0  0  0  0  0  0  0  0
    8.2916  -12.2513   27.0870 C   0  0  0  0  0  0  0  0  0  0  0  0
    7.2168  -11.4767   27.4638 C   0  0  0  0  0  0  0  0  0  0  0  0
    6.0130  -11.5988   26.8138 C   0  0  0  0  0  0  0  0  0  0  0  0
    5.9298  -12.5178   25.7822 C   0  0  0  0  0  0  0  0  0  0  0  0
    8.1873  -15.9511   25.5376 C   0  0  0  0  0  0  0  0  0  0  0  0
    7.4126  -16.8962   25.8130 O   0  0  0  0  0  0  0  0  0  0  0  0
    9.1388  -15.6463   26.5007 O   0  0  0  0  0  0  0  0  0  0  0  0
  2  1  1  6
  2  3  1  0
  3  4  1  0
  4  5  2  0
  6  2  1  0
  7  6  2  0
  8  4  1  0
 10  9  1  6
 10 12  1  0
 11 10  1  0
 12 13  1  1
 13  6  1  0
 14 16  1  0
 14 12  1  0
 15 14  2  0
 17 16  1  0
 18 19  1  0
 17 18  1  1
 19 24  2  0
 19 20  1  0
 20 21  2  0
 21 22  1  0
 23 22  2  0
 24 23  1  0
 25 27  1  0
 25 17  1  0
 26 25  2  0
M  END
$$$$
