DTF.pdb
     RDKit          3D

 27 27  0  0  1  0  0  0  0  0999 V2000
    8.6577  -17.1455   17.3566 N   0  0  0  0  0  0  0  0  0  0  0  0
    9.1977  -17.5653   18.6441 C   0  0  1  0  0  0  0  0  0  0  0  0
   10.6919  -17.4442   18.6686 C   0  0  0  0  0  0  0  0  0  0  0  0
   11.2535  -18.2812   17.5911 C   0  0  0  0  0  0  0  0  0  0  0  0
   10.7784  -19.4199   17.3872 O   0  0  0  0  0  0  0  0  0  0  0  0
    8.5300  -16.7959   19.6962 C   0  0  0  0  0  0  0  0  0  0  0  0
    7.9209  -15.7073   19.4283 O   0  0  0  0  0  0  0  0  0  0  0  0
   12.2973  -17.8545   16.7859 O   0  0  0  0  0  0  0  0  0  0  0  0
    5.7207  -17.7069   21.2864 C   0  0  0  0  0  0  0  0  0  0  0  0
    6.6800  -17.5346   22.4151 C   0  0  1  0  0  0  0  0  0  0  0  0
    7.2695  -18.8016   22.6588 O   0  0  0  0  0  0  0  0  0  0  0  0
    7.8448  -16.6202   22.1258 C   0  0  2  0  0  0  0  0  0  0  0  0
    8.5684  -17.2789   21.0279 N   0  0  0  0  0  0  0  0  0  0  0  0
    8.7620  -16.4308   23.2586 C   0  0  0  0  0  0  0  0  0  0  0  0
    9.8656  -17.0550   23.2409 O   0  0  0  0  0  0  0  0  0  0  0  0
    8.5306  -15.6094   24.3791 N   0  0  0  0  0  0  0  0  0  0  0  0
    9.5372  -15.4616   25.4225 C   0  0  1  0  0  0  0  0  0  0  0  0
    9.7091  -14.0392   25.8339 C   0  0  0  0  0  0  0  0  0  0  0  0
    8.4218  -13.4096   26.1714 C   0  0  0  0  0  0  0  0  0  0  0  0
    8.2537  -12.9915   27.4912 C   0  0  0  0  0  0  0  0  0  0  0  0
    7.0814  -12.3796   27.8620 C   0  0  0  0  0  0  0  0  0  0  0  0
    6.0637  -12.1681   26.9582 C   0  0  0  0  0  0  0  0  0  0  0  0
    6.2024  -12.5695   25.6521 C   0  0  0  0  0  0  0  0  0  0  0  0
    7.3886  -13.1847   25.2911 C   0  0  0  0  0  0  0  0  0  0  0  0
    9.1214  -16.2727   26.5773 C   0  0  0  0  0  0  0  0  0  0  0  0
    9.7376  -16.3454   27.6656 O   0  0  0  0  0  0  0  0  0  0  0  0
    7.9606  -17.0275   26.4858 O   0  0  0  0  0  0  0  0  0  0  0  0
  2  1  1  6
  2  3  1  0
  3  4  1  0
  4  5  2  0
  6  2  1  0
  7  6  2  0
  8  4  1  0
 10  9  1  6
 10 12  1  0
 11 10  1  0
 12 13  1  6
 13  6  1  0
 14 16  1  0
 14 12  1  0
 15 14  2  0
 17 16  1  0
 18 19  1  0
 17 18  1  1
 19 24  2  0
 19 20  1  0
 20 21  2  0
 21 22  1  0
 23 22  2  0
 24 23  1  0
 25 27  1  0
 25 17  1  0
 26 25  2  0
M  END
$$$$
