DTF.pdb
     RDKit          3D

 27 27  0  0  1  0  0  0  0  0999 V2000
    9.7347  -13.4156   19.9294 N   0  0  0  0  0  0  0  0  0  0  0  0
    8.3112  -13.1010   19.9300 C   0  0  1  0  0  0  0  0  0  0  0  0
    7.7502  -13.1331   18.5399 C   0  0  0  0  0  0  0  0  0  0  0  0
    8.2319  -14.3518   17.8619 C   0  0  0  0  0  0  0  0  0  0  0  0
    9.4465  -14.6448   17.9152 O   0  0  0  0  0  0  0  0  0  0  0  0
    7.6381  -14.0156   20.8548 C   0  0  0  0  0  0  0  0  0  0  0  0
    6.3736  -13.9716   21.0187 O   0  0  0  0  0  0  0  0  0  0  0  0
    7.3860  -15.1956   17.1602 O   0  0  0  0  0  0  0  0  0  0  0  0
    7.1552  -17.4657   20.7095 C   0  0  0  0  0  0  0  0  0  0  0  0
    7.9691  -17.2444   21.9393 C   0  0  1  0  0  0  0  0  0  0  0  0
    9.3329  -17.3242   21.5570 O   0  0  0  0  0  0  0  0  0  0  0  0
    7.8253  -15.8764   22.5594 C   0  0  2  0  0  0  0  0  0  0  0  0
    8.4146  -14.9590   21.5725 N   0  0  0  0  0  0  0  0  0  0  0  0
    8.5262  -15.7158   23.8413 C   0  0  0  0  0  0  0  0  0  0  0  0
    9.6536  -15.1354   23.8340 O   0  0  0  0  0  0  0  0  0  0  0  0
    8.0591  -16.1503   25.0971 N   0  0  0  0  0  0  0  0  0  0  0  0
    8.8843  -16.0203   26.2912 C   0  0  1  0  0  0  0  0  0  0  0  0
    8.1322  -15.4118   27.4252 C   0  0  0  0  0  0  0  0  0  0  0  0
    7.5701  -14.0996   27.0652 C   0  0  0  0  0  0  0  0  0  0  0  0
    8.4483  -13.0162   27.0730 C   0  0  0  0  0  0  0  0  0  0  0  0
    7.9867  -11.7698   26.7273 C   0  0  0  0  0  0  0  0  0  0  0  0
    6.6722  -11.5631   26.3716 C   0  0  0  0  0  0  0  0  0  0  0  0
    5.7857  -12.6120   26.3551 C   0  0  0  0  0  0  0  0  0  0  0  0
    6.2633  -13.8630   26.7053 C   0  0  0  0  0  0  0  0  0  0  0  0
    9.3615  -17.3606   26.6654 C   0  0  0  0  0  0  0  0  0  0  0  0
   10.0734  -17.6191   27.6633 O   0  0  0  0  0  0  0  0  0  0  0  0
    9.0132  -18.4443   25.8716 O   0  0  0  0  0  0  0  0  0  0  0  0
  2  1  1  6
  2  3  1  0
  3  4  1  0
  4  5  2  0
  6  2  1  0
  7  6  2  0
  8  4  1  0
 10  9  1  6
 10 12  1  0
 11 10  1  0
 12 13  1  6
 13  6  1  0
 14 16  1  0
 14 12  1  0
 15 14  2  0
 17 16  1  0
 18 19  1  0
 17 18  1  1
 19 24  2  0
 19 20  1  0
 20 21  2  0
 21 22  1  0
 23 22  2  0
 24 23  1  0
 25 27  1  0
 25 17  1  0
 26 25  2  0
M  END
$$$$
