DTF.pdb
     RDKit          3D

 27 27  0  0  1  0  0  0  0  0999 V2000
   10.9077  -17.9769   19.9946 N   0  0  0  0  0  0  0  0  0  0  0  0
   11.3801  -16.6042   20.1297 C   0  0  1  0  0  0  0  0  0  0  0  0
   11.7809  -16.0375   18.8008 C   0  0  0  0  0  0  0  0  0  0  0  0
   13.1286  -16.5326   18.4608 C   0  0  0  0  0  0  0  0  0  0  0  0
   13.7739  -17.1877   19.3083 O   0  0  0  0  0  0  0  0  0  0  0  0
   10.3431  -15.8255   20.8102 C   0  0  0  0  0  0  0  0  0  0  0  0
   10.4153  -14.5536   20.8792 O   0  0  0  0  0  0  0  0  0  0  0  0
   13.7168  -16.2998   17.2280 O   0  0  0  0  0  0  0  0  0  0  0  0
    6.5490  -16.1363   20.3732 C   0  0  0  0  0  0  0  0  0  0  0  0
    6.9257  -16.4122   21.7895 C   0  0  1  0  0  0  0  0  0  0  0  0
    7.1044  -17.8144   21.9081 O   0  0  0  0  0  0  0  0  0  0  0  0
    8.2441  -15.8207   22.2236 C   0  0  2  0  0  0  0  0  0  0  0  0
    9.2479  -16.5073   21.3967 N   0  0  0  0  0  0  0  0  0  0  0  0
    8.5654  -16.0330   23.6421 C   0  0  0  0  0  0  0  0  0  0  0  0
    9.7086  -16.5003   23.9294 O   0  0  0  0  0  0  0  0  0  0  0  0
    7.7133  -15.7624   24.7305 N   0  0  0  0  0  0  0  0  0  0  0  0
    8.1448  -16.0068   26.1008 C   0  0  1  0  0  0  0  0  0  0  0  0
    7.3288  -15.2429   27.0870 C   0  0  0  0  0  0  0  0  0  0  0  0
    7.3103  -13.8030   26.7808 C   0  0  0  0  0  0  0  0  0  0  0  0
    6.0768  -13.2489   26.4395 C   0  0  0  0  0  0  0  0  0  0  0  0
    5.9928  -11.9065   26.1621 C   0  0  0  0  0  0  0  0  0  0  0  0
    7.1016  -11.0910   26.2130 C   0  0  0  0  0  0  0  0  0  0  0  0
    8.3287  -11.6100   26.5465 C   0  0  0  0  0  0  0  0  0  0  0  0
    8.4001  -12.9641   26.8240 C   0  0  0  0  0  0  0  0  0  0  0  0
    8.0328  -17.4497   26.3651 C   0  0  0  0  0  0  0  0  0  0  0  0
    8.4266  -18.0238   27.4065 O   0  0  0  0  0  0  0  0  0  0  0  0
    7.4502  -18.2657   25.4058 O   0  0  0  0  0  0  0  0  0  0  0  0
  2  1  1  6
  2  3  1  0
  3  4  1  0
  4  5  2  0
  6  2  1  0
  7  6  2  0
  8  4  1  0
 10  9  1  6
 10 12  1  0
 11 10  1  0
 12 13  1  6
 13  6  1  0
 14 16  1  0
 14 12  1  0
 15 14  2  0
 17 16  1  0
 18 19  1  0
 17 18  1  1
 19 24  2  0
 19 20  1  0
 20 21  2  0
 21 22  1  0
 23 22  2  0
 24 23  1  0
 25 27  1  0
 25 17  1  0
 26 25  2  0
M  END
$$$$
