DTF.pdb
     RDKit          3D

 27 27  0  0  1  0  0  0  0  0999 V2000
    9.4411  -14.5606   19.2826 N   0  0  0  0  0  0  0  0  0  0  0  0
    8.2134  -13.8417   19.6013 C   0  0  1  0  0  0  0  0  0  0  0  0
    7.3477  -13.6865   18.3870 C   0  0  0  0  0  0  0  0  0  0  0  0
    8.2011  -13.7467   17.1849 C   0  0  0  0  0  0  0  0  0  0  0  0
    7.7828  -13.2634   16.1100 O   0  0  0  0  0  0  0  0  0  0  0  0
    7.5502  -14.5321   20.7096 C   0  0  0  0  0  0  0  0  0  0  0  0
    6.3743  -14.2030   21.0793 O   0  0  0  0  0  0  0  0  0  0  0  0
    9.4612  -14.3228   17.1962 O   0  0  0  0  0  0  0  0  0  0  0  0
    6.8239  -18.0815   20.8717 C   0  0  0  0  0  0  0  0  0  0  0  0
    7.6758  -17.7658   22.0542 C   0  0  1  0  0  0  0  0  0  0  0  0
    9.0225  -17.9937   21.6711 O   0  0  0  0  0  0  0  0  0  0  0  0
    7.6426  -16.3231   22.4948 C   0  0  2  0  0  0  0  0  0  0  0  0
    8.2360  -15.5798   21.3730 N   0  0  0  0  0  0  0  0  0  0  0  0
    8.4132  -16.0446   23.7151 C   0  0  0  0  0  0  0  0  0  0  0  0
    9.5678  -15.5363   23.5862 O   0  0  0  0  0  0  0  0  0  0  0  0
    7.9863  -16.2907   25.0345 N   0  0  0  0  0  0  0  0  0  0  0  0
    8.8531  -16.0029   26.1702 C   0  0  1  0  0  0  0  0  0  0  0  0
    8.1178  -15.3238   27.2747 C   0  0  0  0  0  0  0  0  0  0  0  0
    7.7030  -13.9624   26.8977 C   0  0  0  0  0  0  0  0  0  0  0  0
    6.3684  -13.7911   26.5308 C   0  0  0  0  0  0  0  0  0  0  0  0
    5.9173  -12.5403   26.1874 C   0  0  0  0  0  0  0  0  0  0  0  0
    6.7545  -11.4465   26.1966 C   0  0  0  0  0  0  0  0  0  0  0  0
    8.0733  -11.5863   26.5539 C   0  0  0  0  0  0  0  0  0  0  0  0
    8.5154  -12.8520   26.8980 C   0  0  0  0  0  0  0  0  0  0  0  0
    9.4175  -17.2745   26.6485 C   0  0  0  0  0  0  0  0  0  0  0  0
    9.0913  -18.4096   26.2310 O   0  0  0  0  0  0  0  0  0  0  0  0
   10.3890  -17.2485   27.6391 O   0  0  0  0  0  0  0  0  0  0  0  0
  2  1  1  6
  2  3  1  0
  3  4  1  0
  4  5  2  0
  6  2  1  0
  7  6  2  0
  8  4  1  0
 10  9  1  6
 10 12  1  0
 11 10  1  0
 12 13  1  6
 13  6  1  0
 14 16  1  0
 14 12  1  0
 15 14  2  0
 17 16  1  0
 18 19  1  0
 17 18  1  1
 19 24  2  0
 19 20  1  0
 20 21  2  0
 21 22  1  0
 23 22  2  0
 24 23  1  0
 25 27  1  0
 25 17  1  0
 26 25  2  0
M  END
$$$$
