DTF.pdb
     RDKit          3D

 27 27  0  0  1  0  0  0  0  0999 V2000
    7.3439  -12.8397   19.6220 N   0  0  0  0  0  0  0  0  0  0  0  0
    8.1126  -14.0783   19.6421 C   0  0  1  0  0  0  0  0  0  0  0  0
    9.5721  -13.8050   19.8502 C   0  0  0  0  0  0  0  0  0  0  0  0
   10.3208  -15.0634   19.6697 C   0  0  0  0  0  0  0  0  0  0  0  0
   11.0527  -15.4804   20.5941 O   0  0  0  0  0  0  0  0  0  0  0  0
    7.5321  -14.9639   20.6538 C   0  0  0  0  0  0  0  0  0  0  0  0
    6.4146  -15.5462   20.4542 O   0  0  0  0  0  0  0  0  0  0  0  0
   10.2470  -15.8119   18.5060 O   0  0  0  0  0  0  0  0  0  0  0  0
    7.0552  -17.5084   20.9980 C   0  0  0  0  0  0  0  0  0  0  0  0
    7.6944  -17.4142   22.3420 C   0  0  1  0  0  0  0  0  0  0  0  0
    9.0620  -17.7535   22.1783 O   0  0  0  0  0  0  0  0  0  0  0  0
    7.7130  -16.0298   22.9416 C   0  0  2  0  0  0  0  0  0  0  0  0
    8.2325  -15.1687   21.8686 N   0  0  0  0  0  0  0  0  0  0  0  0
    8.5746  -15.8938   24.1246 C   0  0  0  0  0  0  0  0  0  0  0  0
    9.8125  -15.6914   23.9385 O   0  0  0  0  0  0  0  0  0  0  0  0
    8.1517  -15.9667   25.4661 N   0  0  0  0  0  0  0  0  0  0  0  0
    9.0583  -15.6365   26.5583 C   0  0  1  0  0  0  0  0  0  0  0  0
    8.3644  -14.9075   27.6579 C   0  0  0  0  0  0  0  0  0  0  0  0
    7.5883  -13.7643   27.1497 C   0  0  0  0  0  0  0  0  0  0  0  0
    8.2937  -12.5878   26.8985 C   0  0  0  0  0  0  0  0  0  0  0  0
    7.6276  -11.4929   26.4051 C   0  0  0  0  0  0  0  0  0  0  0  0
    6.2743  -11.5288   26.1512 C   0  0  0  0  0  0  0  0  0  0  0  0
    5.5549  -12.6743   26.3891 C   0  0  0  0  0  0  0  0  0  0  0  0
    6.2378  -13.7708   26.8862 C   0  0  0  0  0  0  0  0  0  0  0  0
    9.6335  -16.8900   27.0701 C   0  0  0  0  0  0  0  0  0  0  0  0
    9.2689  -18.0402   26.7331 O   0  0  0  0  0  0  0  0  0  0  0  0
   10.6618  -16.8276   27.9998 O   0  0  0  0  0  0  0  0  0  0  0  0
  2  1  1  1
  2  3  1  0
  3  4  1  0
  4  5  2  0
  6  2  1  0
  7  6  2  0
  8  4  1  0
 10  9  1  6
 10 12  1  0
 11 10  1  0
 12 13  1  6
 13  6  1  0
 14 16  1  0
 14 12  1  0
 15 14  2  0
 17 16  1  0
 18 19  1  0
 17 18  1  1
 19 24  2  0
 19 20  1  0
 20 21  2  0
 21 22  1  0
 23 22  2  0
 24 23  1  0
 25 27  1  0
 25 17  1  0
 26 25  2  0
M  END
$$$$
