DTF.pdb
     RDKit          3D

 27 27  0  0  1  0  0  0  0  0999 V2000
    9.2944  -16.2443   17.1037 N   0  0  0  0  0  0  0  0  0  0  0  0
    9.6390  -16.7595   18.4233 C   0  0  1  0  0  0  0  0  0  0  0  0
   11.1103  -16.6357   18.6841 C   0  0  0  0  0  0  0  0  0  0  0  0
   11.8370  -17.4713   17.7092 C   0  0  0  0  0  0  0  0  0  0  0  0
   11.4025  -18.6109   17.4328 O   0  0  0  0  0  0  0  0  0  0  0  0
    8.8082  -16.0749   19.4161 C   0  0  0  0  0  0  0  0  0  0  0  0
    7.8919  -15.2622   19.0583 O   0  0  0  0  0  0  0  0  0  0  0  0
   12.9942  -17.0423   17.0793 O   0  0  0  0  0  0  0  0  0  0  0  0
    6.3088  -16.3084   20.1466 C   0  0  0  0  0  0  0  0  0  0  0  0
    6.8069  -16.5079   21.5380 C   0  0  1  0  0  0  0  0  0  0  0  0
    7.0576  -17.8951   21.6965 O   0  0  0  0  0  0  0  0  0  0  0  0
    8.1271  -15.8437   21.8422 C   0  0  2  0  0  0  0  0  0  0  0  0
    9.0355  -16.3276   20.7918 N   0  0  0  0  0  0  0  0  0  0  0  0
    8.6887  -16.1862   23.1566 C   0  0  0  0  0  0  0  0  0  0  0  0
    9.5026  -17.1564   23.2210 O   0  0  0  0  0  0  0  0  0  0  0  0
    8.4066  -15.5301   24.3706 N   0  0  0  0  0  0  0  0  0  0  0  0
    9.2157  -15.7690   25.5589 C   0  0  1  0  0  0  0  0  0  0  0  0
    9.5034  -14.5082   26.3002 C   0  0  0  0  0  0  0  0  0  0  0  0
    8.3492  -13.5944   26.2909 C   0  0  0  0  0  0  0  0  0  0  0  0
    8.2519  -12.7159   25.2121 C   0  0  0  0  0  0  0  0  0  0  0  0
    7.1866  -11.8524   25.1379 C   0  0  0  0  0  0  0  0  0  0  0  0
    6.2080  -11.8330   26.1070 C   0  0  0  0  0  0  0  0  0  0  0  0
    6.2785  -12.6873   27.1801 C   0  0  0  0  0  0  0  0  0  0  0  0
    7.3569  -13.5526   27.2431 C   0  0  0  0  0  0  0  0  0  0  0  0
    8.4881  -16.7081   26.4265 C   0  0  0  0  0  0  0  0  0  0  0  0
    8.9007  -17.1382   27.5283 O   0  0  0  0  0  0  0  0  0  0  0  0
    7.2447  -17.1724   26.0212 O   0  0  0  0  0  0  0  0  0  0  0  0
  2  1  1  6
  2  3  1  0
  3  4  1  0
  4  5  2  0
  6  2  1  0
  7  6  2  0
  8  4  1  0
 10  9  1  6
 10 12  1  0
 11 10  1  0
 12 13  1  6
 13  6  1  0
 14 16  1  0
 14 12  1  0
 15 14  2  0
 17 16  1  0
 18 19  1  0
 17 18  1  1
 19 24  2  0
 19 20  1  0
 20 21  2  0
 21 22  1  0
 23 22  2  0
 24 23  1  0
 25 27  1  0
 25 17  1  0
 26 25  2  0
M  END
$$$$
