FGM.pdb
     RDKit          3D

 24 24  0  0  1  0  0  0  0  0999 V2000
    7.2599  -17.0930   25.2785 N   0  0  0  0  0  0  0  0  0  0  0  0
    7.0831  -16.8990   23.8564 C   0  0  1  0  0  0  0  0  0  0  0  0
    6.2030  -15.6818   23.6630 C   0  0  0  0  0  0  0  0  0  0  0  0
    6.6835  -14.5893   24.5169 C   0  0  0  0  0  0  0  0  0  0  0  0
    7.4557  -13.5843   23.9992 C   0  0  0  0  0  0  0  0  0  0  0  0
    7.9212  -12.5359   24.8004 C   0  0  0  0  0  0  0  0  0  0  0  0
    7.5782  -12.5351   26.1561 C   0  0  0  0  0  0  0  0  0  0  0  0
    6.8052  -13.5408   26.6755 C   0  0  0  0  0  0  0  0  0  0  0  0
    6.3654  -14.5575   25.8522 C   0  0  0  0  0  0  0  0  0  0  0  0
    8.4131  -16.7269   23.2368 C   0  0  0  0  0  0  0  0  0  0  0  0
    8.6952  -17.3697   22.1996 O   0  0  0  0  0  0  0  0  0  0  0  0
    9.3974  -15.8580   23.7671 N   0  0  0  0  0  0  0  0  0  0  0  0
   10.7736  -15.9471   23.3112 C   0  0  0  0  0  0  0  0  0  0  0  0
   11.6481  -16.3892   24.4065 C   0  0  0  0  0  0  0  0  0  0  0  0
   12.8913  -16.4470   24.2275 O   0  0  0  0  0  0  0  0  0  0  0  0
    8.9718  -13.0081   28.1752 C   0  0  0  0  0  0  0  0  0  0  0  0
   10.5772  -13.8448   28.3116 S   0  0  0  0  0  0  0  0  0  0  0  0
   10.3554  -15.5711   28.0100 C   0  0  0  0  0  0  0  0  0  0  0  0
   11.4989  -16.4719   28.0145 C   0  0  0  0  0  0  0  0  0  0  0  0
   11.9367  -17.1782   26.8053 C   0  0  2  0  0  0  0  0  0  0  0  0
   11.1072  -16.7497   25.6572 N   0  0  0  0  0  0  0  0  0  0  0  0
   11.9744  -18.6277   26.8007 C   0  0  0  0  0  0  0  0  0  0  0  0
   11.2863  -19.4009   26.0861 O   0  0  0  0  0  0  0  0  0  0  0  0
   12.8597  -19.2983   27.6714 O   0  0  0  0  0  0  0  0  0  0  0  0
  2  1  1  1
  3  4  1  0
  3  2  1  0
  4  5  2  0
  5  6  1  0
  7  6  2  0
  8  7  1  0
  9  4  1  0
  9  8  2  0
 10  2  1  0
 10 12  1  0
 11 10  2  0
 13 14  1  0
 13 12  1  0
 14 21  1  0
 15 14  2  0
 17 16  1  0
 18 19  1  0
 18 17  1  0
 20 19  1  1
 20 22  1  0
 21 20  1  0
 22 23  2  0
 22 24  1  0
M  END
$$$$
