FGM.pdb
     RDKit          3D

 24 24  0  0  1  0  0  0  0  0999 V2000
    6.1575  -18.2617   20.5882 N   0  0  0  0  0  0  0  0  0  0  0  0
    6.8718  -17.0312   20.8461 C   0  0  1  0  0  0  0  0  0  0  0  0
    5.8502  -15.9181   20.9500 C   0  0  0  0  0  0  0  0  0  0  0  0
    6.5391  -14.6229   20.9890 C   0  0  0  0  0  0  0  0  0  0  0  0
    6.6076  -13.9014   22.1505 C   0  0  0  0  0  0  0  0  0  0  0  0
    7.2608  -12.6652   22.2036 C   0  0  0  0  0  0  0  0  0  0  0  0
    7.8491  -12.1756   21.0331 C   0  0  0  0  0  0  0  0  0  0  0  0
    7.7811  -12.8971   19.8698 C   0  0  0  0  0  0  0  0  0  0  0  0
    7.1276  -14.1127   19.8582 C   0  0  0  0  0  0  0  0  0  0  0  0
    7.6478  -17.1910   22.0930 C   0  0  0  0  0  0  0  0  0  0  0  0
    7.0963  -16.9602   23.1935 O   0  0  0  0  0  0  0  0  0  0  0  0
    9.0041  -17.5981   22.1031 N   0  0  0  0  0  0  0  0  0  0  0  0
   10.0652  -16.6078   22.0479 C   0  0  0  0  0  0  0  0  0  0  0  0
   10.2974  -16.0316   23.3798 C   0  0  0  0  0  0  0  0  0  0  0  0
   11.3927  -15.4687   23.6336 O   0  0  0  0  0  0  0  0  0  0  0  0
    7.3505  -10.7521   25.4267 C   0  0  0  0  0  0  0  0  0  0  0  0
    7.0298  -12.4334   26.0318 S   0  0  0  0  0  0  0  0  0  0  0  0
    8.4879  -13.4088   25.8250 C   0  0  0  0  0  0  0  0  0  0  0  0
    8.5042  -14.8048   26.2377 C   0  0  0  0  0  0  0  0  0  0  0  0
    9.5463  -15.7355   25.7898 C   0  0  2  0  0  0  0  0  0  0  0  0
    9.3039  -16.1034   24.3771 N   0  0  0  0  0  0  0  0  0  0  0  0
    9.7715  -16.9626   26.5288 C   0  0  0  0  0  0  0  0  0  0  0  0
    9.4417  -18.1261   26.1832 O   0  0  0  0  0  0  0  0  0  0  0  0
   10.4271  -16.9065   27.7772 O   0  0  0  0  0  0  0  0  0  0  0  0
  2  1  1  1
  3  4  1  0
  3  2  1  0
  4  5  2  0
  5  6  1  0
  7  6  2  0
  8  7  1  0
  9  4  1  0
  9  8  2  0
 10  2  1  0
 10 12  1  0
 11 10  2  0
 13 14  1  0
 13 12  1  0
 14 21  1  0
 15 14  2  0
 17 16  1  0
 18 19  1  0
 18 17  1  0
 20 19  1  1
 20 22  1  0
 21 20  1  0
 22 23  2  0
 22 24  1  0
M  END
$$$$
