FGM.pdb
     RDKit          3D

 24 24  0  0  1  0  0  0  0  0999 V2000
    7.1953  -16.0495   24.2794 N   0  0  0  0  0  0  0  0  0  0  0  0
    8.2397  -15.1820   23.7817 C   0  0  1  0  0  0  0  0  0  0  0  0
    8.7074  -14.3162   24.9328 C   0  0  0  0  0  0  0  0  0  0  0  0
    7.6491  -13.3652   25.2921 C   0  0  0  0  0  0  0  0  0  0  0  0
    6.6343  -13.7329   26.1344 C   0  0  0  0  0  0  0  0  0  0  0  0
    5.6182  -12.8377   26.4863 C   0  0  0  0  0  0  0  0  0  0  0  0
    5.6602  -11.5450   25.9544 C   0  0  0  0  0  0  0  0  0  0  0  0
    6.6756  -11.1758   25.1110 C   0  0  0  0  0  0  0  0  0  0  0  0
    7.6597  -12.0882   24.7879 C   0  0  0  0  0  0  0  0  0  0  0  0
    9.3283  -16.0206   23.2394 C   0  0  0  0  0  0  0  0  0  0  0  0
   10.1701  -15.5093   22.4658 O   0  0  0  0  0  0  0  0  0  0  0  0
    9.4670  -17.3936   23.5569 N   0  0  0  0  0  0  0  0  0  0  0  0
   10.7801  -18.0145   23.5592 C   0  0  0  0  0  0  0  0  0  0  0  0
   11.5260  -17.6301   24.7657 C   0  0  0  0  0  0  0  0  0  0  0  0
   12.6170  -17.0151   24.6550 O   0  0  0  0  0  0  0  0  0  0  0  0
   10.1480  -13.9719   27.2432 C   0  0  0  0  0  0  0  0  0  0  0  0
   10.2282  -14.9637   28.7616 S   0  0  0  0  0  0  0  0  0  0  0  0
    9.9581  -16.6617   28.3565 C   0  0  0  0  0  0  0  0  0  0  0  0
   11.0521  -17.6192   28.4310 C   0  0  0  0  0  0  0  0  0  0  0  0
   11.8750  -17.9516   27.2626 C   0  0  2  0  0  0  0  0  0  0  0  0
   11.0307  -17.9441   26.0474 N   0  0  0  0  0  0  0  0  0  0  0  0
   12.6394  -19.1838   27.2564 C   0  0  0  0  0  0  0  0  0  0  0  0
   13.6973  -19.4220   27.8937 O   0  0  0  0  0  0  0  0  0  0  0  0
   12.1962  -20.2675   26.4685 O   0  0  0  0  0  0  0  0  0  0  0  0
  2  1  1  1
  3  4  1  0
  3  2  1  0
  4  5  2  0
  5  6  1  0
  7  6  2  0
  8  7  1  0
  9  4  1  0
  9  8  2  0
 10  2  1  0
 10 12  1  0
 11 10  2  0
 13 14  1  0
 13 12  1  0
 14 21  1  0
 15 14  2  0
 17 16  1  0
 18 19  1  0
 18 17  1  0
 20 19  1  1
 20 22  1  0
 21 20  1  0
 22 23  2  0
 22 24  1  0
M  END
$$$$
