FGM.pdb
     RDKit          3D

 24 24  0  0  1  0  0  0  0  0999 V2000
    5.9874  -16.7525   24.6847 N   0  0  0  0  0  0  0  0  0  0  0  0
    7.1763  -16.0340   24.2831 C   0  0  1  0  0  0  0  0  0  0  0  0
    7.5595  -15.1063   25.4172 C   0  0  0  0  0  0  0  0  0  0  0  0
    6.6692  -13.9398   25.4180 C   0  0  0  0  0  0  0  0  0  0  0  0
    6.8867  -12.8928   24.5631 C   0  0  0  0  0  0  0  0  0  0  0  0
    6.0468  -11.7738   24.5520 C   0  0  0  0  0  0  0  0  0  0  0  0
    4.9682  -11.7458   25.4417 C   0  0  0  0  0  0  0  0  0  0  0  0
    4.7494  -12.7935   26.2980 C   0  0  0  0  0  0  0  0  0  0  0  0
    5.6008  -13.8796   26.2784 C   0  0  0  0  0  0  0  0  0  0  0  0
    8.2397  -17.0150   23.9845 C   0  0  0  0  0  0  0  0  0  0  0  0
    8.5572  -17.8599   24.8528 O   0  0  0  0  0  0  0  0  0  0  0  0
    8.9263  -17.0459   22.7465 N   0  0  0  0  0  0  0  0  0  0  0  0
   10.0128  -16.1167   22.4896 C   0  0  0  0  0  0  0  0  0  0  0  0
   11.0462  -16.2379   23.5275 C   0  0  0  0  0  0  0  0  0  0  0  0
   11.9423  -15.3608   23.6209 O   0  0  0  0  0  0  0  0  0  0  0  0
   12.9378  -13.8689   28.3383 C   0  0  0  0  0  0  0  0  0  0  0  0
   11.2781  -14.5518   28.6117 S   0  0  0  0  0  0  0  0  0  0  0  0
   11.2405  -16.2228   28.0403 C   0  0  0  0  0  0  0  0  0  0  0  0
   10.8258  -16.5258   26.6781 C   0  0  0  0  0  0  0  0  0  0  0  0
   11.6795  -17.2832   25.7560 C   0  0  2  0  0  0  0  0  0  0  0  0
   11.0434  -17.3283   24.4207 N   0  0  0  0  0  0  0  0  0  0  0  0
   12.0742  -18.6358   26.0983 C   0  0  0  0  0  0  0  0  0  0  0  0
   13.0997  -18.9870   26.7363 O   0  0  0  0  0  0  0  0  0  0  0  0
   11.2580  -19.7155   25.6985 O   0  0  0  0  0  0  0  0  0  0  0  0
  2  1  1  1
  3  4  1  0
  3  2  1  0
  4  5  2  0
  5  6  1  0
  7  6  2  0
  8  7  1  0
  9  4  1  0
  9  8  2  0
 10  2  1  0
 10 12  1  0
 11 10  2  0
 13 14  1  0
 13 12  1  0
 14 21  1  0
 15 14  2  0
 17 16  1  0
 18 19  1  0
 18 17  1  0
 20 19  1  1
 20 22  1  0
 21 20  1  0
 22 23  2  0
 22 24  1  0
M  END
$$$$
