FGM.pdb
     RDKit          3D

 24 24  0  0  1  0  0  0  0  0999 V2000
    9.1327  -14.6473   24.3952 N   0  0  0  0  0  0  0  0  0  0  0  0
    8.0310  -15.3890   23.8231 C   0  0  1  0  0  0  0  0  0  0  0  0
    6.9647  -14.3923   23.4191 C   0  0  0  0  0  0  0  0  0  0  0  0
    6.6579  -13.5156   24.5552 C   0  0  0  0  0  0  0  0  0  0  0  0
    5.7787  -13.9115   25.5272 C   0  0  0  0  0  0  0  0  0  0  0  0
    5.4761  -13.0869   26.6163 C   0  0  0  0  0  0  0  0  0  0  0  0
    6.0966  -11.8360   26.6932 C   0  0  0  0  0  0  0  0  0  0  0  0
    6.9769  -11.4387   25.7207 C   0  0  0  0  0  0  0  0  0  0  0  0
    7.2493  -12.2810   24.6618 C   0  0  0  0  0  0  0  0  0  0  0  0
    8.5342  -16.1624   22.6694 C   0  0  0  0  0  0  0  0  0  0  0  0
    7.9083  -17.1794   22.2920 O   0  0  0  0  0  0  0  0  0  0  0  0
    9.7063  -15.8036   21.9605 N   0  0  0  0  0  0  0  0  0  0  0  0
   10.8074  -16.7437   21.8447 C   0  0  0  0  0  0  0  0  0  0  0  0
   11.6969  -16.6361   23.0096 C   0  0  0  0  0  0  0  0  0  0  0  0
   12.4264  -15.6212   23.1458 O   0  0  0  0  0  0  0  0  0  0  0  0
   10.8123  -13.7170   28.9452 C   0  0  0  0  0  0  0  0  0  0  0  0
   11.3185  -14.4168   27.3484 S   0  0  0  0  0  0  0  0  0  0  0  0
   10.4925  -15.9594   27.1069 C   0  0  0  0  0  0  0  0  0  0  0  0
   10.5835  -16.6509   25.8291 C   0  0  0  0  0  0  0  0  0  0  0  0
   11.7828  -17.3976   25.4330 C   0  0  2  0  0  0  0  0  0  0  0  0
   11.7410  -17.6601   23.9773 N   0  0  0  0  0  0  0  0  0  0  0  0
   12.0934  -18.6500   26.0945 C   0  0  0  0  0  0  0  0  0  0  0  0
   11.5259  -19.7590   25.9212 O   0  0  0  0  0  0  0  0  0  0  0  0
   13.1357  -18.6890   27.0451 O   0  0  0  0  0  0  0  0  0  0  0  0
  2  1  1  6
  3  4  1  0
  3  2  1  0
  4  5  2  0
  5  6  1  0
  7  6  2  0
  8  7  1  0
  9  4  1  0
  9  8  2  0
 10  2  1  0
 10 12  1  0
 11 10  2  0
 13 14  1  0
 13 12  1  0
 14 21  1  0
 15 14  2  0
 17 16  1  0
 18 19  1  0
 18 17  1  0
 20 19  1  1
 20 22  1  0
 21 20  1  0
 22 23  2  0
 22 24  1  0
M  END
$$$$
