FGM.pdb
     RDKit          3D

 24 24  0  0  1  0  0  0  0  0999 V2000
    7.2511  -16.2366   24.0795 N   0  0  0  0  0  0  0  0  0  0  0  0
    8.2710  -15.2449   23.8200 C   0  0  1  0  0  0  0  0  0  0  0  0
    8.5439  -14.5136   25.1178 C   0  0  0  0  0  0  0  0  0  0  0  0
    7.4661  -13.5512   25.3738 C   0  0  0  0  0  0  0  0  0  0  0  0
    6.2977  -13.9500   25.9654 C   0  0  0  0  0  0  0  0  0  0  0  0
    5.2610  -13.0444   26.2160 C   0  0  0  0  0  0  0  0  0  0  0  0
    5.4442  -11.7083   25.8459 C   0  0  0  0  0  0  0  0  0  0  0  0
    6.6136  -11.3078   25.2536 C   0  0  0  0  0  0  0  0  0  0  0  0
    7.6127  -12.2318   25.0231 C   0  0  0  0  0  0  0  0  0  0  0  0
    9.4737  -15.9314   23.3057 C   0  0  0  0  0  0  0  0  0  0  0  0
   10.5821  -15.3508   23.3589 O   0  0  0  0  0  0  0  0  0  0  0  0
    9.4323  -17.2323   22.7478 N   0  0  0  0  0  0  0  0  0  0  0  0
    9.8052  -18.3842   23.5502 C   0  0  0  0  0  0  0  0  0  0  0  0
   11.0513  -18.1165   24.2818 C   0  0  0  0  0  0  0  0  0  0  0  0
   11.9058  -17.3342   23.7933 O   0  0  0  0  0  0  0  0  0  0  0  0
    9.2909  -14.3483   27.6779 C   0  0  0  0  0  0  0  0  0  0  0  0
   11.0398  -14.2696   28.1586 S   0  0  0  0  0  0  0  0  0  0  0  0
   11.7620  -15.8708   27.9718 C   0  0  0  0  0  0  0  0  0  0  0  0
   11.3797  -16.7252   26.8568 C   0  0  0  0  0  0  0  0  0  0  0  0
   11.9878  -18.0433   26.6436 C   0  0  2  0  0  0  0  0  0  0  0  0
   11.2992  -18.7284   25.5272 N   0  0  0  0  0  0  0  0  0  0  0  0
   12.0670  -18.9789   27.7485 C   0  0  0  0  0  0  0  0  0  0  0  0
   13.0750  -19.2293   28.4579 O   0  0  0  0  0  0  0  0  0  0  0  0
   10.9202  -19.7163   28.1127 O   0  0  0  0  0  0  0  0  0  0  0  0
  2  1  1  1
  3  4  1  0
  3  2  1  0
  4  5  2  0
  5  6  1  0
  7  6  2  0
  8  7  1  0
  9  4  1  0
  9  8  2  0
 10  2  1  0
 10 12  1  0
 11 10  2  0
 13 14  1  0
 13 12  1  0
 14 21  1  0
 15 14  2  0
 17 16  1  0
 18 19  1  0
 18 17  1  0
 20 19  1  1
 20 22  1  0
 21 20  1  0
 22 23  2  0
 22 24  1  0
M  END
$$$$
