FGM.pdb
     RDKit          3D

 24 24  0  0  1  0  0  0  0  0999 V2000
    7.3214  -17.0103   17.8176 N   0  0  0  0  0  0  0  0  0  0  0  0
    8.3614  -17.2588   18.7911 C   0  0  1  0  0  0  0  0  0  0  0  0
    9.3885  -16.1535   18.6609 C   0  0  0  0  0  0  0  0  0  0  0  0
    8.8407  -14.9085   19.2118 C   0  0  0  0  0  0  0  0  0  0  0  0
    9.2124  -14.4699   20.4543 C   0  0  0  0  0  0  0  0  0  0  0  0
    8.6990  -13.2851   20.9931 C   0  0  0  0  0  0  0  0  0  0  0  0
    7.7881  -12.5493   20.2284 C   0  0  0  0  0  0  0  0  0  0  0  0
    7.4153  -12.9874   18.9844 C   0  0  0  0  0  0  0  0  0  0  0  0
    7.9443  -14.1616   18.4879 C   0  0  0  0  0  0  0  0  0  0  0  0
    7.7488  -17.2923   20.1349 C   0  0  0  0  0  0  0  0  0  0  0  0
    6.5099  -17.1486   20.2488 O   0  0  0  0  0  0  0  0  0  0  0  0
    8.5061  -17.4817   21.3164 N   0  0  0  0  0  0  0  0  0  0  0  0
    7.8499  -17.4887   22.6123 C   0  0  0  0  0  0  0  0  0  0  0  0
    8.6530  -16.7499   23.5966 C   0  0  0  0  0  0  0  0  0  0  0  0
    9.8528  -16.4737   23.3417 O   0  0  0  0  0  0  0  0  0  0  0  0
    5.2242  -12.5846   27.1897 C   0  0  0  0  0  0  0  0  0  0  0  0
    6.8968  -11.8790   27.1680 S   0  0  0  0  0  0  0  0  0  0  0  0
    8.0665  -13.1758   26.9028 C   0  0  0  0  0  0  0  0  0  0  0  0
    7.7471  -14.2853   26.0160 C   0  0  0  0  0  0  0  0  0  0  0  0
    8.7189  -15.3413   25.7112 C   0  0  2  0  0  0  0  0  0  0  0  0
    8.0917  -16.3469   24.8251 N   0  0  0  0  0  0  0  0  0  0  0  0
    9.3599  -16.0555   26.7983 C   0  0  0  0  0  0  0  0  0  0  0  0
    8.9903  -17.1422   27.3125 O   0  0  0  0  0  0  0  0  0  0  0  0
   10.5285  -15.5209   27.3816 O   0  0  0  0  0  0  0  0  0  0  0  0
  2  1  1  6
  3  4  1  0
  3  2  1  0
  4  5  2  0
  5  6  1  0
  7  6  2  0
  8  7  1  0
  9  4  1  0
  9  8  2  0
 10  2  1  0
 10 12  1  0
 11 10  2  0
 13 14  1  0
 13 12  1  0
 14 21  1  0
 15 14  2  0
 17 16  1  0
 18 19  1  0
 18 17  1  0
 20 19  1  1
 20 22  1  0
 21 20  1  0
 22 23  2  0
 22 24  1  0
M  END
$$$$
