FGM.pdb
     RDKit          3D

 24 24  0  0  1  0  0  0  0  0999 V2000
    7.7386  -17.6156   19.5456 N   0  0  0  0  0  0  0  0  0  0  0  0
    8.1029  -16.4441   20.3111 C   0  0  1  0  0  0  0  0  0  0  0  0
    6.8336  -15.6720   20.6046 C   0  0  0  0  0  0  0  0  0  0  0  0
    7.1683  -14.4278   21.3069 C   0  0  0  0  0  0  0  0  0  0  0  0
    7.7600  -13.3868   20.6431 C   0  0  0  0  0  0  0  0  0  0  0  0
    8.0852  -12.1944   21.2988 C   0  0  0  0  0  0  0  0  0  0  0  0
    7.7904  -12.0857   22.6615 C   0  0  0  0  0  0  0  0  0  0  0  0
    7.1980  -13.1271   23.3272 C   0  0  0  0  0  0  0  0  0  0  0  0
    6.8928  -14.2873   22.6447 C   0  0  0  0  0  0  0  0  0  0  0  0
    8.7841  -16.8831   21.5462 C   0  0  0  0  0  0  0  0  0  0  0  0
    8.1660  -17.5989   22.3672 O   0  0  0  0  0  0  0  0  0  0  0  0
   10.1209  -16.5282   21.8500 N   0  0  0  0  0  0  0  0  0  0  0  0
   10.8206  -17.1814   22.9425 C   0  0  0  0  0  0  0  0  0  0  0  0
   10.8496  -16.3101   24.1255 C   0  0  0  0  0  0  0  0  0  0  0  0
   11.8681  -15.6112   24.3606 O   0  0  0  0  0  0  0  0  0  0  0  0
    7.5014  -11.5324   26.2632 C   0  0  0  0  0  0  0  0  0  0  0  0
    6.9789  -13.2696   26.3324 S   0  0  0  0  0  0  0  0  0  0  0  0
    8.1265  -14.1782   27.3212 C   0  0  0  0  0  0  0  0  0  0  0  0
    8.5200  -15.5270   26.9402 C   0  0  0  0  0  0  0  0  0  0  0  0
    9.8565  -15.8277   26.4148 C   0  0  2  0  0  0  0  0  0  0  0  0
    9.7464  -16.2493   25.0007 N   0  0  0  0  0  0  0  0  0  0  0  0
   10.6887  -16.7993   27.0974 C   0  0  0  0  0  0  0  0  0  0  0  0
   11.5158  -16.5745   28.0178 O   0  0  0  0  0  0  0  0  0  0  0  0
   10.6038  -18.1596   26.7314 O   0  0  0  0  0  0  0  0  0  0  0  0
  2  1  1  6
  3  4  1  0
  3  2  1  0
  4  5  2  0
  5  6  1  0
  7  6  2  0
  8  7  1  0
  9  4  1  0
  9  8  2  0
 10  2  1  0
 10 12  1  0
 11 10  2  0
 13 14  1  0
 13 12  1  0
 14 21  1  0
 15 14  2  0
 17 16  1  0
 18 19  1  0
 18 17  1  0
 20 19  1  1
 20 22  1  0
 21 20  1  0
 22 23  2  0
 22 24  1  0
M  END
$$$$
