FGM.pdb
     RDKit          3D

 24 24  0  0  1  0  0  0  0  0999 V2000
    7.7773  -18.2251   20.9011 N   0  0  0  0  0  0  0  0  0  0  0  0
    7.9533  -16.7915   20.9689 C   0  0  1  0  0  0  0  0  0  0  0  0
    7.1326  -16.1730   19.8565 C   0  0  0  0  0  0  0  0  0  0  0  0
    7.3643  -14.7243   19.8240 C   0  0  0  0  0  0  0  0  0  0  0  0
    8.3413  -14.1895   19.0280 C   0  0  0  0  0  0  0  0  0  0  0  0
    8.5743  -12.8105   18.9863 C   0  0  0  0  0  0  0  0  0  0  0  0
    7.7801  -11.9797   19.7830 C   0  0  0  0  0  0  0  0  0  0  0  0
    6.8016  -12.5140   20.5803 C   0  0  0  0  0  0  0  0  0  0  0  0
    6.6028  -13.8798   20.5936 C   0  0  0  0  0  0  0  0  0  0  0  0
    7.5200  -16.3275   22.3027 C   0  0  0  0  0  0  0  0  0  0  0  0
    7.7510  -15.1456   22.6468 O   0  0  0  0  0  0  0  0  0  0  0  0
    6.8467  -17.1669   23.2232 N   0  0  0  0  0  0  0  0  0  0  0  0
    6.4667  -16.6616   24.5309 C   0  0  0  0  0  0  0  0  0  0  0  0
    7.6585  -16.4523   25.3649 C   0  0  0  0  0  0  0  0  0  0  0  0
    7.5272  -16.0725   26.5564 O   0  0  0  0  0  0  0  0  0  0  0  0
   10.2452  -14.5634   29.9274 C   0  0  0  0  0  0  0  0  0  0  0  0
    9.7660  -13.4648   28.5639 S   0  0  0  0  0  0  0  0  0  0  0  0
   10.1440  -14.2523   27.0286 C   0  0  0  0  0  0  0  0  0  0  0  0
    9.8481  -15.6642   26.8331 C   0  0  0  0  0  0  0  0  0  0  0  0
   10.1886  -16.3648   25.5897 C   0  0  2  0  0  0  0  0  0  0  0  0
    8.9489  -16.6731   24.8428 N   0  0  0  0  0  0  0  0  0  0  0  0
   10.9769  -17.5804   25.6495 C   0  0  0  0  0  0  0  0  0  0  0  0
   10.5570  -18.7613   25.5439 O   0  0  0  0  0  0  0  0  0  0  0  0
   12.3716  -17.4901   25.8456 O   0  0  0  0  0  0  0  0  0  0  0  0
  2  1  1  1
  3  4  1  0
  3  2  1  0
  4  5  2  0
  5  6  1  0
  7  6  2  0
  8  7  1  0
  9  4  1  0
  9  8  2  0
 10  2  1  0
 10 12  1  0
 11 10  2  0
 13 14  1  0
 13 12  1  0
 14 21  1  0
 15 14  2  0
 17 16  1  0
 18 19  1  0
 18 17  1  0
 20 19  1  1
 20 22  1  0
 21 20  1  0
 22 23  2  0
 22 24  1  0
M  END
$$$$
