FGM.pdb
     RDKit          3D

 24 24  0  0  1  0  0  0  0  0999 V2000
    6.8138  -18.8594   20.6351 N   0  0  0  0  0  0  0  0  0  0  0  0
    7.2115  -17.4842   20.8389 C   0  0  1  0  0  0  0  0  0  0  0  0
    6.6342  -16.6643   19.7040 C   0  0  0  0  0  0  0  0  0  0  0  0
    7.0991  -15.2769   19.8162 C   0  0  0  0  0  0  0  0  0  0  0  0
    6.4222  -14.3724   20.5895 C   0  0  0  0  0  0  0  0  0  0  0  0
    6.8530  -13.0463   20.7064 C   0  0  0  0  0  0  0  0  0  0  0  0
    8.0019  -12.6587   20.0097 C   0  0  0  0  0  0  0  0  0  0  0  0
    8.6804  -13.5634   19.2352 C   0  0  0  0  0  0  0  0  0  0  0  0
    8.2234  -14.8627   19.1456 C   0  0  0  0  0  0  0  0  0  0  0  0
    6.7101  -17.0403   22.1557 C   0  0  0  0  0  0  0  0  0  0  0  0
    5.4765  -17.0301   22.3716 O   0  0  0  0  0  0  0  0  0  0  0  0
    7.5698  -16.6202   23.1996 N   0  0  0  0  0  0  0  0  0  0  0  0
    7.3281  -15.3621   23.8842 C   0  0  0  0  0  0  0  0  0  0  0  0
    8.2695  -15.1978   25.0006 C   0  0  0  0  0  0  0  0  0  0  0  0
    8.1896  -14.1839   25.7399 O   0  0  0  0  0  0  0  0  0  0  0  0
    7.7609  -12.2554   28.4093 C   0  0  0  0  0  0  0  0  0  0  0  0
    9.3749  -13.0833   28.4828 S   0  0  0  0  0  0  0  0  0  0  0  0
    9.3121  -14.5569   27.5109 C   0  0  0  0  0  0  0  0  0  0  0  0
   10.5399  -15.1776   27.0349 C   0  0  0  0  0  0  0  0  0  0  0  0
   10.6242  -15.8268   25.7218 C   0  0  2  0  0  0  0  0  0  0  0  0
    9.2626  -16.1660   25.2518 N   0  0  0  0  0  0  0  0  0  0  0  0
   11.4488  -17.0088   25.5627 C   0  0  0  0  0  0  0  0  0  0  0  0
   11.0547  -18.1843   25.3507 O   0  0  0  0  0  0  0  0  0  0  0  0
   12.8525  -16.8877   25.6448 O   0  0  0  0  0  0  0  0  0  0  0  0
  2  1  1  6
  3  4  1  0
  3  2  1  0
  4  5  2  0
  5  6  1  0
  7  6  2  0
  8  7  1  0
  9  4  1  0
  9  8  2  0
 10  2  1  0
 10 12  1  0
 11 10  2  0
 13 14  1  0
 13 12  1  0
 14 21  1  0
 15 14  2  0
 17 16  1  0
 18 19  1  0
 18 17  1  0
 20 19  1  1
 20 22  1  0
 21 20  1  0
 22 23  2  0
 22 24  1  0
M  END
$$$$
