FGM.pdb
     RDKit          3D

 24 24  0  0  1  0  0  0  0  0999 V2000
    7.5318  -16.2331   24.7156 N   0  0  0  0  0  0  0  0  0  0  0  0
    7.5432  -15.3209   23.5937 C   0  0  1  0  0  0  0  0  0  0  0  0
    8.3753  -14.1179   23.9860 C   0  0  0  0  0  0  0  0  0  0  0  0
    7.6750  -13.3561   25.0265 C   0  0  0  0  0  0  0  0  0  0  0  0
    8.0428  -12.0703   25.3196 C   0  0  0  0  0  0  0  0  0  0  0  0
    7.3849  -11.3312   26.3088 C   0  0  0  0  0  0  0  0  0  0  0  0
    6.3320  -11.9389   27.0002 C   0  0  0  0  0  0  0  0  0  0  0  0
    5.9630  -13.2261   26.7076 C   0  0  0  0  0  0  0  0  0  0  0  0
    6.6370  -13.9222   25.7246 C   0  0  0  0  0  0  0  0  0  0  0  0
    8.1024  -16.0248   22.4215 C   0  0  0  0  0  0  0  0  0  0  0  0
    7.8329  -15.6110   21.2705 O   0  0  0  0  0  0  0  0  0  0  0  0
    8.9401  -17.1604   22.5390 N   0  0  0  0  0  0  0  0  0  0  0  0
   10.3371  -17.0820   22.1491 C   0  0  0  0  0  0  0  0  0  0  0  0
   11.2032  -17.1337   23.3352 C   0  0  0  0  0  0  0  0  0  0  0  0
   12.4393  -16.9376   23.2140 O   0  0  0  0  0  0  0  0  0  0  0  0
    9.6777  -13.0838   28.2070 C   0  0  0  0  0  0  0  0  0  0  0  0
    9.7993  -14.7301   28.9624 S   0  0  0  0  0  0  0  0  0  0  0  0
   10.8963  -15.7264   28.0009 C   0  0  0  0  0  0  0  0  0  0  0  0
   10.5187  -16.1550   26.6619 C   0  0  0  0  0  0  0  0  0  0  0  0
   11.3570  -17.0631   25.8712 C   0  0  2  0  0  0  0  0  0  0  0  0
   10.6624  -17.4010   24.6091 N   0  0  0  0  0  0  0  0  0  0  0  0
   11.8179  -18.3042   26.4626 C   0  0  0  0  0  0  0  0  0  0  0  0
   12.5079  -18.4357   27.5060 O   0  0  0  0  0  0  0  0  0  0  0  0
   11.4866  -19.5288   25.8442 O   0  0  0  0  0  0  0  0  0  0  0  0
  2  1  1  1
  3  4  1  0
  3  2  1  0
  4  5  2  0
  5  6  1  0
  7  6  2  0
  8  7  1  0
  9  4  1  0
  9  8  2  0
 10  2  1  0
 10 12  1  0
 11 10  2  0
 13 14  1  0
 13 12  1  0
 14 21  1  0
 15 14  2  0
 17 16  1  0
 18 19  1  0
 18 17  1  0
 20 19  1  1
 20 22  1  0
 21 20  1  0
 22 23  2  0
 22 24  1  0
M  END
$$$$
