IGS.pdb
     RDKit          3D

 19 18  0  0  1  0  0  0  0  0999 V2000
    7.5229  -12.4729   19.3566 C   0  0  0  0  0  0  0  0  0  0  0  0
    8.2557  -13.6427   19.9668 C   0  0  0  0  0  0  0  0  0  0  0  0
    7.5564  -14.0077   21.2805 C   0  0  2  0  0  0  0  0  0  0  0  0
    7.6938  -12.8660   22.2807 C   0  0  0  0  0  0  0  0  0  0  0  0
    8.2973  -15.2018   21.8341 C   0  0  2  0  0  0  0  0  0  0  0  0
    8.0744  -16.3242   20.9456 N   0  0  0  0  0  0  0  0  0  0  0  0
    7.7832  -15.5026   23.2115 C   0  0  0  0  0  0  0  0  0  0  0  0
    8.1603  -14.8170   24.1944 O   0  0  0  0  0  0  0  0  0  0  0  0
    6.8729  -16.5555   23.4202 N   0  0  0  0  0  0  0  0  0  0  0  0
    6.3614  -16.7975   24.7396 C   0  0  0  0  0  0  0  0  0  0  0  0
    7.2852  -17.6938   25.4930 C   0  0  0  0  0  0  0  0  0  0  0  0
    6.9069  -18.2430   26.5583 O   0  0  0  0  0  0  0  0  0  0  0  0
   11.2556  -18.1506   24.4056 O   0  0  0  0  0  0  0  0  0  0  0  0
   10.6506  -19.3097   24.8695 C   0  0  0  0  0  0  0  0  0  0  0  0
    9.4756  -18.8978   25.7250 C   0  0  2  0  0  0  0  0  0  0  0  0
    8.6079  -17.9622   25.0497 N   0  0  0  0  0  0  0  0  0  0  0  0
   10.0276  -18.2695   26.9516 C   0  0  0  0  0  0  0  0  0  0  0  0
    9.8004  -16.9351   27.2555 O   0  0  0  0  0  0  0  0  0  0  0  0
   10.7184  -18.9546   27.7393 O   0  0  0  0  0  0  0  0  0  0  0  0
  2  1  1  0
  3  2  1  0
  3  4  1  1
  5  3  1  0
  5  6  1  6
  7  5  1  0
  8  7  2  0
  9  7  1  0
 10  9  1  0
 10 11  1  0
 11 16  1  0
 12 11  2  0
 14 13  1  0
 15 17  1  0
 15 14  1  6
 16 15  1  0
 17 18  1  0
 19 17  2  0
M  END
$$$$
