IGS.pdb
     RDKit          3D

 19 18  0  0  1  0  0  0  0  0999 V2000
    7.2494  -11.2382   27.4984 C   0  0  0  0  0  0  0  0  0  0  0  0
    7.1749  -12.7348   27.3184 C   0  0  0  0  0  0  0  0  0  0  0  0
    7.2837  -13.0385   25.8204 C   0  0  2  0  0  0  0  0  0  0  0  0
    6.0502  -12.5200   25.0908 C   0  0  0  0  0  0  0  0  0  0  0  0
    7.2984  -14.5437   25.6959 C   0  0  2  0  0  0  0  0  0  0  0  0
    8.3812  -15.0545   26.5116 N   0  0  0  0  0  0  0  0  0  0  0  0
    7.4957  -14.9149   24.2554 C   0  0  0  0  0  0  0  0  0  0  0  0
    6.5073  -15.1748   23.5249 O   0  0  0  0  0  0  0  0  0  0  0  0
    8.7893  -14.9767   23.7043 N   0  0  0  0  0  0  0  0  0  0  0  0
    8.9653  -15.4626   22.3649 C   0  0  0  0  0  0  0  0  0  0  0  0
    9.7321  -16.7417   22.3785 C   0  0  0  0  0  0  0  0  0  0  0  0
    9.3497  -17.7025   23.0928 O   0  0  0  0  0  0  0  0  0  0  0  0
   13.1631  -19.5255   20.4367 O   0  0  0  0  0  0  0  0  0  0  0  0
   12.5775  -18.2683   20.4037 C   0  0  0  0  0  0  0  0  0  0  0  0
   11.6256  -18.1798   21.5735 C   0  0  2  0  0  0  0  0  0  0  0  0
   10.9059  -16.9286   21.6003 N   0  0  0  0  0  0  0  0  0  0  0  0
   12.4382  -18.3139   22.8086 C   0  0  0  0  0  0  0  0  0  0  0  0
   12.9812  -19.5296   23.1984 O   0  0  0  0  0  0  0  0  0  0  0  0
   12.6447  -17.3080   23.5246 O   0  0  0  0  0  0  0  0  0  0  0  0
  2  1  1  0
  3  2  1  0
  3  4  1  6
  5  3  1  0
  5  6  1  1
  7  5  1  0
  8  7  2  0
  9  7  1  0
 10  9  1  0
 10 11  1  0
 11 16  1  0
 12 11  2  0
 14 13  1  0
 15 17  1  0
 15 14  1  6
 16 15  1  0
 17 18  1  0
 19 17  2  0
M  END
$$$$
