IGS.pdb
     RDKit          3D

 19 18  0  0  1  0  0  0  0  0999 V2000
    7.1495  -12.1879   19.3202 C   0  0  0  0  0  0  0  0  0  0  0  0
    7.6351  -13.5886   19.6030 C   0  0  0  0  0  0  0  0  0  0  0  0
    7.5944  -13.8079   21.1191 C   0  0  2  0  0  0  0  0  0  0  0  0
    8.5239  -12.8210   21.8152 C   0  0  0  0  0  0  0  0  0  0  0  0
    8.1314  -15.1992   21.3578 C   0  0  2  0  0  0  0  0  0  0  0  0
    7.1781  -16.1500   20.8230 N   0  0  0  0  0  0  0  0  0  0  0  0
    8.3200  -15.4060   22.8321 C   0  0  0  0  0  0  0  0  0  0  0  0
    9.2505  -14.8223   23.4418 O   0  0  0  0  0  0  0  0  0  0  0  0
    7.4580  -16.2556   23.5504 N   0  0  0  0  0  0  0  0  0  0  0  0
    7.5467  -16.3070   24.9824 C   0  0  0  0  0  0  0  0  0  0  0  0
    8.6118  -17.2650   25.3976 C   0  0  0  0  0  0  0  0  0  0  0  0
    9.2653  -17.9003   24.5322 O   0  0  0  0  0  0  0  0  0  0  0  0
    9.5167  -17.2579   29.1554 O   0  0  0  0  0  0  0  0  0  0  0  0
   10.3431  -18.2386   28.6265 C   0  0  0  0  0  0  0  0  0  0  0  0
    9.9800  -18.4012   27.1691 C   0  0  2  0  0  0  0  0  0  0  0  0
    8.9296  -17.4981   26.7624 N   0  0  0  0  0  0  0  0  0  0  0  0
    9.5302  -19.8040   26.9852 C   0  0  0  0  0  0  0  0  0  0  0  0
   10.3895  -20.8776   27.1687 O   0  0  0  0  0  0  0  0  0  0  0  0
    8.3448  -20.0345   26.6555 O   0  0  0  0  0  0  0  0  0  0  0  0
  2  1  1  0
  3  2  1  0
  3  4  1  1
  5  3  1  0
  5  6  1  1
  7  5  1  0
  8  7  2  0
  9  7  1  0
 10  9  1  0
 10 11  1  0
 11 16  1  0
 12 11  2  0
 14 13  1  0
 15 17  1  0
 15 14  1  1
 16 15  1  0
 17 18  1  0
 19 17  2  0
M  END
$$$$
