IGS.pdb
     RDKit          3D

 19 18  0  0  1  0  0  0  0  0999 V2000
    6.8922  -12.7076   18.9516 C   0  0  0  0  0  0  0  0  0  0  0  0
    7.8640  -13.7327   19.4832 C   0  0  0  0  0  0  0  0  0  0  0  0
    7.5827  -13.9231   20.9775 C   0  0  2  0  0  0  0  0  0  0  0  0
    7.9161  -12.6458   21.7392 C   0  0  0  0  0  0  0  0  0  0  0  0
    8.5257  -15.0046   21.4490 C   0  0  2  0  0  0  0  0  0  0  0  0
    8.1667  -16.2399   20.7828 N   0  0  0  0  0  0  0  0  0  0  0  0
    8.4033  -15.1473   22.9378 C   0  0  0  0  0  0  0  0  0  0  0  0
    8.7783  -14.2201   23.6981 O   0  0  0  0  0  0  0  0  0  0  0  0
    7.8674  -16.3204   23.5014 N   0  0  0  0  0  0  0  0  0  0  0  0
    7.6225  -16.3783   24.9148 C   0  0  0  0  0  0  0  0  0  0  0  0
    8.8998  -16.2075   25.6655 C   0  0  0  0  0  0  0  0  0  0  0  0
    9.9554  -16.7501   25.2521 O   0  0  0  0  0  0  0  0  0  0  0  0
    8.9778  -13.8700   29.0039 O   0  0  0  0  0  0  0  0  0  0  0  0
   10.1987  -13.9166   28.3467 C   0  0  0  0  0  0  0  0  0  0  0  0
   10.2299  -15.1911   27.5361 C   0  0  2  0  0  0  0  0  0  0  0  0
    8.9798  -15.4394   26.8580 N   0  0  0  0  0  0  0  0  0  0  0  0
   10.5144  -16.3016   28.4794 C   0  0  0  0  0  0  0  0  0  0  0  0
    9.6311  -17.3570   28.6543 O   0  0  0  0  0  0  0  0  0  0  0  0
   11.5779  -16.2943   29.1395 O   0  0  0  0  0  0  0  0  0  0  0  0
  2  1  1  0
  3  2  1  0
  3  4  1  1
  5  3  1  0
  5  6  1  6
  7  5  1  0
  8  7  2  0
  9  7  1  0
 10  9  1  0
 10 11  1  0
 11 16  1  0
 12 11  2  0
 14 13  1  0
 15 17  1  0
 15 14  1  1
 16 15  1  0
 17 18  1  0
 19 17  2  0
M  END
$$$$
