IGS.pdb
     RDKit          3D

 19 18  0  0  1  0  0  0  0  0999 V2000
    8.3814  -12.2560   19.0646 C   0  0  0  0  0  0  0  0  0  0  0  0
    7.7908  -13.6401   18.9501 C   0  0  0  0  0  0  0  0  0  0  0  0
    7.5579  -14.1753   20.3669 C   0  0  2  0  0  0  0  0  0  0  0  0
    6.9112  -13.1002   21.2322 C   0  0  0  0  0  0  0  0  0  0  0  0
    8.9257  -14.4690   20.9362 C   0  0  2  0  0  0  0  0  0  0  0  0
    9.5060  -15.5596   20.1794 N   0  0  0  0  0  0  0  0  0  0  0  0
    8.7854  -14.8403   22.3834 C   0  0  0  0  0  0  0  0  0  0  0  0
    8.3749  -13.9968   23.2190 O   0  0  0  0  0  0  0  0  0  0  0  0
    9.1115  -16.1369   22.8232 N   0  0  0  0  0  0  0  0  0  0  0  0
    8.8563  -16.5066   24.1867 C   0  0  0  0  0  0  0  0  0  0  0  0
    9.7819  -15.7757   25.0996 C   0  0  0  0  0  0  0  0  0  0  0  0
   10.8687  -15.3169   24.6660 O   0  0  0  0  0  0  0  0  0  0  0  0
    8.4984  -13.7126   28.0667 O   0  0  0  0  0  0  0  0  0  0  0  0
    9.8566  -13.5585   27.8295 C   0  0  0  0  0  0  0  0  0  0  0  0
   10.3918  -14.8943   27.3695 C   0  0  2  0  0  0  0  0  0  0  0  0
    9.4833  -15.5689   26.4731 N   0  0  0  0  0  0  0  0  0  0  0  0
   10.6006  -15.7225   28.5838 C   0  0  0  0  0  0  0  0  0  0  0  0
   11.4316  -15.3109   29.6157 O   0  0  0  0  0  0  0  0  0  0  0  0
   10.0152  -16.8239   28.6886 O   0  0  0  0  0  0  0  0  0  0  0  0
  2  1  1  0
  3  2  1  0
  3  4  1  1
  5  3  1  0
  5  6  1  6
  7  5  1  0
  8  7  2  0
  9  7  1  0
 10  9  1  0
 10 11  1  0
 11 16  1  0
 12 11  2  0
 14 13  1  0
 15 17  1  0
 15 14  1  1
 16 15  1  0
 17 18  1  0
 19 17  2  0
M  END
$$$$
