IGS.pdb
     RDKit          3D

 19 18  0  0  1  0  0  0  0  0999 V2000
    7.5281  -11.5095   27.7362 C   0  0  0  0  0  0  0  0  0  0  0  0
    7.2630  -12.9721   27.4752 C   0  0  0  0  0  0  0  0  0  0  0  0
    7.2214  -13.1834   25.9580 C   0  0  2  0  0  0  0  0  0  0  0  0
    6.0366  -12.4355   25.3583 C   0  0  0  0  0  0  0  0  0  0  0  0
    6.9938  -14.6612   25.7448 C   0  0  2  0  0  0  0  0  0  0  0  0
    8.0089  -15.3862   26.4816 N   0  0  0  0  0  0  0  0  0  0  0  0
    7.0819  -14.9645   24.2778 C   0  0  0  0  0  0  0  0  0  0  0  0
    6.0947  -14.7642   23.5270 O   0  0  0  0  0  0  0  0  0  0  0  0
    8.2702  -15.4768   23.7242 N   0  0  0  0  0  0  0  0  0  0  0  0
    8.3683  -15.6577   22.3035 C   0  0  0  0  0  0  0  0  0  0  0  0
    9.7363  -16.1261   21.9379 C   0  0  0  0  0  0  0  0  0  0  0  0
   10.0211  -16.3777   20.7399 O   0  0  0  0  0  0  0  0  0  0  0  0
   12.6479  -16.0491   24.7210 O   0  0  0  0  0  0  0  0  0  0  0  0
   13.1480  -16.0990   23.4280 C   0  0  0  0  0  0  0  0  0  0  0  0
   12.0913  -16.7364   22.5565 C   0  0  2  0  0  0  0  0  0  0  0  0
   10.7590  -16.3055   22.9076 N   0  0  0  0  0  0  0  0  0  0  0  0
   12.2039  -18.2056   22.7379 C   0  0  0  0  0  0  0  0  0  0  0  0
   13.3637  -18.8955   22.4157 O   0  0  0  0  0  0  0  0  0  0  0  0
   11.2311  -18.8483   23.1934 O   0  0  0  0  0  0  0  0  0  0  0  0
  2  1  1  0
  3  2  1  0
  3  4  1  1
  5  3  1  0
  5  6  1  1
  7  5  1  0
  8  7  2  0
  9  7  1  0
 10  9  1  0
 10 11  1  0
 11 16  1  0
 12 11  2  0
 14 13  1  0
 15 17  1  0
 15 14  1  1
 16 15  1  0
 17 18  1  0
 19 17  2  0
M  END
$$$$
