IGS.pdb
     RDKit          3D

 19 18  0  0  1  0  0  0  0  0999 V2000
    6.8854  -12.2755   19.6307 C   0  0  0  0  0  0  0  0  0  0  0  0
    7.0438  -13.7192   20.0412 C   0  0  0  0  0  0  0  0  0  0  0  0
    8.1839  -13.7998   21.0619 C   0  0  2  0  0  0  0  0  0  0  0  0
    9.5023  -13.4086   20.4052 C   0  0  0  0  0  0  0  0  0  0  0  0
    8.2812  -15.2506   21.4706 C   0  0  2  0  0  0  0  0  0  0  0  0
    7.0507  -15.6147   22.1431 N   0  0  0  0  0  0  0  0  0  0  0  0
    9.4590  -15.4250   22.3840 C   0  0  0  0  0  0  0  0  0  0  0  0
   10.6287  -15.3866   21.9272 O   0  0  0  0  0  0  0  0  0  0  0  0
    9.2691  -15.6337   23.7629 N   0  0  0  0  0  0  0  0  0  0  0  0
   10.4108  -15.8016   24.6169 C   0  0  0  0  0  0  0  0  0  0  0  0
   10.4676  -17.2008   25.1303 C   0  0  0  0  0  0  0  0  0  0  0  0
    9.4104  -17.8627   25.2848 O   0  0  0  0  0  0  0  0  0  0  0  0
   13.6199  -19.5511   24.5422 O   0  0  0  0  0  0  0  0  0  0  0  0
   13.1573  -19.7710   25.8315 C   0  0  0  0  0  0  0  0  0  0  0  0
   11.7591  -19.2051   25.9151 C   0  0  2  0  0  0  0  0  0  0  0  0
   11.6943  -17.8361   25.4613 N   0  0  0  0  0  0  0  0  0  0  0  0
   11.3428  -19.2787   27.3382 C   0  0  0  0  0  0  0  0  0  0  0  0
   11.1829  -20.4921   27.9916 O   0  0  0  0  0  0  0  0  0  0  0  0
   11.1279  -18.2223   27.9745 O   0  0  0  0  0  0  0  0  0  0  0  0
  2  1  1  0
  3  2  1  0
  3  4  1  6
  5  3  1  0
  5  6  1  1
  7  5  1  0
  8  7  2  0
  9  7  1  0
 10  9  1  0
 10 11  1  0
 11 16  1  0
 12 11  2  0
 14 13  1  0
 15 17  1  0
 15 14  1  1
 16 15  1  0
 17 18  1  0
 19 17  2  0
M  END
$$$$
