IGS.pdb
     RDKit          3D

 19 18  0  0  1  0  0  0  0  0999 V2000
    5.8217  -11.4190   26.9818 C   0  0  0  0  0  0  0  0  0  0  0  0
    5.6316  -12.6864   26.1848 C   0  0  0  0  0  0  0  0  0  0  0  0
    7.0169  -13.2240   25.8107 C   0  0  2  0  0  0  0  0  0  0  0  0
    7.7668  -12.1973   24.9703 C   0  0  0  0  0  0  0  0  0  0  0  0
    6.7775  -14.4424   24.9508 C   0  0  2  0  0  0  0  0  0  0  0  0
    6.1558  -15.4609   25.7724 N   0  0  0  0  0  0  0  0  0  0  0  0
    8.0904  -14.9248   24.4072 C   0  0  0  0  0  0  0  0  0  0  0  0
    8.7174  -14.2410   23.5601 O   0  0  0  0  0  0  0  0  0  0  0  0
    8.6363  -16.1483   24.8388 N   0  0  0  0  0  0  0  0  0  0  0  0
    9.9481  -16.5318   24.3997 C   0  0  0  0  0  0  0  0  0  0  0  0
   10.9193  -16.4248   25.5265 C   0  0  0  0  0  0  0  0  0  0  0  0
   12.1394  -16.6591   25.3362 O   0  0  0  0  0  0  0  0  0  0  0  0
    9.8209  -14.5266   28.7481 O   0  0  0  0  0  0  0  0  0  0  0  0
   11.1666  -14.8418   28.8681 C   0  0  0  0  0  0  0  0  0  0  0  0
   11.4447  -16.0049   27.9449 C   0  0  2  0  0  0  0  0  0  0  0  0
   10.5177  -16.0605   26.8396 N   0  0  0  0  0  0  0  0  0  0  0  0
   11.3285  -17.2431   28.7557 C   0  0  0  0  0  0  0  0  0  0  0  0
   10.4281  -18.2476   28.4317 O   0  0  0  0  0  0  0  0  0  0  0  0
   12.0588  -17.3941   29.7611 O   0  0  0  0  0  0  0  0  0  0  0  0
  2  1  1  0
  3  2  1  0
  3  4  1  6
  5  3  1  0
  5  6  1  1
  7  5  1  0
  8  7  2  0
  9  7  1  0
 10  9  1  0
 10 11  1  0
 11 16  1  0
 12 11  2  0
 14 13  1  0
 15 17  1  0
 15 14  1  1
 16 15  1  0
 17 18  1  0
 19 17  2  0
M  END
$$$$
