IGS.pdb
     RDKit          3D

 19 18  0  0  1  0  0  0  0  0999 V2000
    6.3269  -11.5462   27.4714 C   0  0  0  0  0  0  0  0  0  0  0  0
    6.1243  -12.9312   26.9070 C   0  0  0  0  0  0  0  0  0  0  0  0
    7.1542  -13.1448   25.7926 C   0  0  2  0  0  0  0  0  0  0  0  0
    6.9139  -12.1523   24.6613 C   0  0  0  0  0  0  0  0  0  0  0  0
    6.9078  -14.5335   25.2522 C   0  0  2  0  0  0  0  0  0  0  0  0
    7.0532  -15.4758   26.3430 N   0  0  0  0  0  0  0  0  0  0  0  0
    7.9014  -14.8201   24.1648 C   0  0  0  0  0  0  0  0  0  0  0  0
    9.1318  -14.8422   24.4178 O   0  0  0  0  0  0  0  0  0  0  0  0
    7.4686  -15.0678   22.8486 N   0  0  0  0  0  0  0  0  0  0  0  0
    8.4385  -15.2091   21.7996 C   0  0  0  0  0  0  0  0  0  0  0  0
    9.1875  -16.4887   21.9607 C   0  0  0  0  0  0  0  0  0  0  0  0
    8.6493  -17.4707   22.5314 O   0  0  0  0  0  0  0  0  0  0  0  0
   11.2623  -17.7281   19.2581 O   0  0  0  0  0  0  0  0  0  0  0  0
   11.9843  -18.2404   20.3262 C   0  0  0  0  0  0  0  0  0  0  0  0
   11.2261  -17.9055   21.5893 C   0  0  2  0  0  0  0  0  0  0  0  0
   10.5164  -16.6526   21.4860 N   0  0  0  0  0  0  0  0  0  0  0  0
   12.2217  -17.8254   22.6876 C   0  0  0  0  0  0  0  0  0  0  0  0
   12.8968  -18.9474   23.1461 O   0  0  0  0  0  0  0  0  0  0  0  0
   12.4655  -16.7195   23.2211 O   0  0  0  0  0  0  0  0  0  0  0  0
  2  1  1  0
  3  2  1  0
  3  4  1  6
  5  3  1  0
  5  6  1  1
  7  5  1  0
  8  7  2  0
  9  7  1  0
 10  9  1  0
 10 11  1  0
 11 16  1  0
 12 11  2  0
 14 13  1  0
 15 17  1  0
 15 14  1  6
 16 15  1  0
 17 18  1  0
 19 17  2  0
M  END
$$$$
