IGS.pdb
     RDKit          3D

 19 18  0  0  1  0  0  0  0  0999 V2000
    7.1055  -11.6347   27.9540 C   0  0  0  0  0  0  0  0  0  0  0  0
    7.1041  -13.0767   27.5083 C   0  0  0  0  0  0  0  0  0  0  0  0
    7.2484  -13.1021   25.9830 C   0  0  2  0  0  0  0  0  0  0  0  0
    6.0058  -12.5083   25.3304 C   0  0  0  0  0  0  0  0  0  0  0  0
    7.3273  -14.5588   25.5918 C   0  0  2  0  0  0  0  0  0  0  0  0
    8.3514  -15.1893   26.3996 N   0  0  0  0  0  0  0  0  0  0  0  0
    7.6640  -14.6573   24.1328 C   0  0  0  0  0  0  0  0  0  0  0  0
    6.7797  -14.4625   23.2619 O   0  0  0  0  0  0  0  0  0  0  0  0
    8.9734  -14.9689   23.7211 N   0  0  0  0  0  0  0  0  0  0  0  0
    9.2984  -14.9518   22.3229 C   0  0  0  0  0  0  0  0  0  0  0  0
    8.9524  -16.2612   21.6984 C   0  0  0  0  0  0  0  0  0  0  0  0
    9.1512  -17.3336   22.3230 O   0  0  0  0  0  0  0  0  0  0  0  0
    6.8659  -18.6839   18.0680 O   0  0  0  0  0  0  0  0  0  0  0  0
    7.3161  -17.4364   18.4750 C   0  0  0  0  0  0  0  0  0  0  0  0
    8.0000  -17.6138   19.8103 C   0  0  2  0  0  0  0  0  0  0  0  0
    8.3935  -16.3541   20.3956 N   0  0  0  0  0  0  0  0  0  0  0  0
    9.2028  -18.4521   19.5767 C   0  0  0  0  0  0  0  0  0  0  0  0
    9.1213  -19.8324   19.4627 O   0  0  0  0  0  0  0  0  0  0  0  0
   10.3257  -17.9078   19.4785 O   0  0  0  0  0  0  0  0  0  0  0  0
  2  1  1  0
  3  2  1  0
  3  4  1  6
  5  3  1  0
  5  6  1  1
  7  5  1  0
  8  7  2  0
  9  7  1  0
 10  9  1  0
 10 11  1  0
 11 16  1  0
 12 11  2  0
 14 13  1  0
 15 17  1  0
 15 14  1  6
 16 15  1  0
 17 18  1  0
 19 17  2  0
M  END
$$$$
