IGS.pdb
     RDKit          3D

 19 18  0  0  1  0  0  0  0  0999 V2000
    6.5605  -10.9673   27.7067 C   0  0  0  0  0  0  0  0  0  0  0  0
    5.9311  -12.0452   26.8583 C   0  0  0  0  0  0  0  0  0  0  0  0
    6.9598  -13.1660   26.6750 C   0  0  2  0  0  0  0  0  0  0  0  0
    8.2435  -12.6047   26.0752 C   0  0  0  0  0  0  0  0  0  0  0  0
    6.3616  -14.1272   25.6752 C   0  0  2  0  0  0  0  0  0  0  0  0
    5.1297  -14.6494   26.2309 N   0  0  0  0  0  0  0  0  0  0  0  0
    7.3396  -15.2349   25.4138 C   0  0  0  0  0  0  0  0  0  0  0  0
    8.4535  -14.9883   24.8878 O   0  0  0  0  0  0  0  0  0  0  0  0
    7.0224  -16.5633   25.7541 N   0  0  0  0  0  0  0  0  0  0  0  0
    7.9859  -17.6021   25.5235 C   0  0  0  0  0  0  0  0  0  0  0  0
    8.1098  -17.8737   24.0623 C   0  0  0  0  0  0  0  0  0  0  0  0
    7.8551  -19.0168   23.6061 O   0  0  0  0  0  0  0  0  0  0  0  0
    9.3931  -14.9337   21.4250 O   0  0  0  0  0  0  0  0  0  0  0  0
    8.5870  -15.9212   20.8777 C   0  0  0  0  0  0  0  0  0  0  0  0
    8.7307  -17.1540   21.7390 C   0  0  2  0  0  0  0  0  0  0  0  0
    8.5131  -16.8728   23.1382 N   0  0  0  0  0  0  0  0  0  0  0  0
   10.1104  -17.6656   21.5422 C   0  0  0  0  0  0  0  0  0  0  0  0
   10.5640  -18.0867   20.3005 O   0  0  0  0  0  0  0  0  0  0  0  0
   10.8933  -17.7223   22.5173 O   0  0  0  0  0  0  0  0  0  0  0  0
  2  1  1  0
  3  2  1  0
  3  4  1  6
  5  3  1  0
  5  6  1  1
  7  5  1  0
  8  7  2  0
  9  7  1  0
 10  9  1  0
 10 11  1  0
 11 16  1  0
 12 11  2  0
 14 13  1  0
 15 17  1  0
 15 14  1  6
 16 15  1  0
 17 18  1  0
 19 17  2  0
M  END
$$$$
