IGS.pdb
     RDKit          3D

 19 18  0  0  1  0  0  0  0  0999 V2000
    7.9016  -11.8047   19.0261 C   0  0  0  0  0  0  0  0  0  0  0  0
    7.4843  -13.2492   18.8947 C   0  0  0  0  0  0  0  0  0  0  0  0
    8.5139  -14.1098   19.6344 C   0  0  2  0  0  0  0  0  0  0  0  0
    8.7185  -13.5803   21.0488 C   0  0  0  0  0  0  0  0  0  0  0  0
    9.8151  -13.9469   18.8849 C   0  0  2  0  0  0  0  0  0  0  0  0
    9.6045  -14.3708   17.5157 N   0  0  0  0  0  0  0  0  0  0  0  0
   10.8701  -14.7849   19.5456 C   0  0  0  0  0  0  0  0  0  0  0  0
   10.9826  -16.0038   19.2633 O   0  0  0  0  0  0  0  0  0  0  0  0
   11.7464  -14.2170   20.4893 N   0  0  0  0  0  0  0  0  0  0  0  0
   12.8059  -15.0138   21.0402 C   0  0  0  0  0  0  0  0  0  0  0  0
   12.2460  -16.0612   21.9423 C   0  0  0  0  0  0  0  0  0  0  0  0
   11.0187  -16.0748   22.2127 O   0  0  0  0  0  0  0  0  0  0  0  0
   13.6897  -19.6623   22.2425 O   0  0  0  0  0  0  0  0  0  0  0  0
   12.4818  -19.4288   22.8835 C   0  0  0  0  0  0  0  0  0  0  0  0
   12.5380  -18.0355   23.4648 C   0  0  2  0  0  0  0  0  0  0  0  0
   13.0580  -17.0707   22.5252 N   0  0  0  0  0  0  0  0  0  0  0  0
   13.4202  -18.0953   24.6574 C   0  0  0  0  0  0  0  0  0  0  0  0
   13.1103  -18.8818   25.7575 O   0  0  0  0  0  0  0  0  0  0  0  0
   14.4747  -17.4213   24.6803 O   0  0  0  0  0  0  0  0  0  0  0  0
  2  1  1  0
  3  2  1  0
  3  4  1  1
  5  3  1  0
  5  6  1  6
  7  5  1  0
  8  7  2  0
  9  7  1  0
 10  9  1  0
 10 11  1  0
 11 16  1  0
 12 11  2  0
 14 13  1  0
 15 17  1  0
 15 14  1  6
 16 15  1  0
 17 18  1  0
 19 17  2  0
M  END
$$$$
