IGS.pdb
     RDKit          3D

 19 18  0  0  1  0  0  0  0  0999 V2000
    5.8623  -11.0929   25.8305 C   0  0  0  0  0  0  0  0  0  0  0  0
    6.8840  -12.1350   25.4460 C   0  0  0  0  0  0  0  0  0  0  0  0
    6.8244  -13.2627   26.4818 C   0  0  2  0  0  0  0  0  0  0  0  0
    7.3453  -12.7666   27.8254 C   0  0  0  0  0  0  0  0  0  0  0  0
    7.7633  -14.3379   25.9880 C   0  0  2  0  0  0  0  0  0  0  0  0
    9.0730  -13.7461   25.8058 N   0  0  0  0  0  0  0  0  0  0  0  0
    7.2421  -14.8871   24.6924 C   0  0  0  0  0  0  0  0  0  0  0  0
    6.2472  -15.6542   24.6817 O   0  0  0  0  0  0  0  0  0  0  0  0
    7.8602  -14.5507   23.4735 N   0  0  0  0  0  0  0  0  0  0  0  0
    7.3441  -15.0881   22.2464 C   0  0  0  0  0  0  0  0  0  0  0  0
    8.1594  -16.2601   21.8152 C   0  0  0  0  0  0  0  0  0  0  0  0
    7.8303  -16.9215   20.7983 O   0  0  0  0  0  0  0  0  0  0  0  0
   11.7949  -16.1648   21.6965 O   0  0  0  0  0  0  0  0  0  0  0  0
   11.2582  -17.3271   21.1621 C   0  0  0  0  0  0  0  0  0  0  0  0
   10.1433  -17.7754   22.0777 C   0  0  2  0  0  0  0  0  0  0  0  0
    9.3214  -16.6740   22.5198 N   0  0  0  0  0  0  0  0  0  0  0  0
   10.7777  -18.4265   23.2515 C   0  0  0  0  0  0  0  0  0  0  0  0
   11.5421  -19.5774   23.1250 O   0  0  0  0  0  0  0  0  0  0  0  0
   10.6244  -17.9309   24.3907 O   0  0  0  0  0  0  0  0  0  0  0  0
  2  1  1  0
  3  2  1  0
  3  4  1  1
  5  3  1  0
  5  6  1  6
  7  5  1  0
  8  7  2  0
  9  7  1  0
 10  9  1  0
 10 11  1  0
 11 16  1  0
 12 11  2  0
 14 13  1  0
 15 17  1  0
 15 14  1  6
 16 15  1  0
 17 18  1  0
 19 17  2  0
M  END
$$$$
