ASM.pdb
     RDKit          3D

 20 19  0  0  1  0  0  0  0  0999 V2000
    8.6494  -12.2657   19.1320 C   0  0  0  0  0  0  0  0  0  0  0  0
    8.7481  -13.6874   18.6764 C   0  0  2  0  0  0  0  0  0  0  0  0
    7.9399  -13.9084   17.4735 N   0  0  0  0  0  0  0  0  0  0  0  0
    8.2831  -14.5846   19.7664 C   0  0  0  0  0  0  0  0  0  0  0  0
    7.0669  -14.7154   19.9909 O   0  0  0  0  0  0  0  0  0  0  0  0
   11.1326  -16.7969   21.7173 O   0  0  0  0  0  0  0  0  0  0  0  0
    9.8706  -17.3531   21.5083 C   0  0  0  0  0  0  0  0  0  0  0  0
    8.8746  -16.2157   21.5941 C   0  0  2  0  0  0  0  0  0  0  0  0
    9.2172  -15.2821   20.5401 N   0  0  0  0  0  0  0  0  0  0  0  0
    8.9872  -15.4822   22.8895 C   0  0  0  0  0  0  0  0  0  0  0  0
    9.8478  -14.5676   23.0453 O   0  0  0  0  0  0  0  0  0  0  0  0
    6.5206  -10.9071   28.0010 C   0  0  0  0  0  0  0  0  0  0  0  0
    6.3211  -11.9196   26.5145 S   0  0  0  0  0  0  0  0  0  0  0  0
    6.9421  -13.6101   26.8426 C   0  0  0  0  0  0  0  0  0  0  0  0
    6.8748  -14.4518   25.6031 C   0  0  0  0  0  0  0  0  0  0  0  0
    8.2288  -14.8960   25.1927 C   0  0  2  0  0  0  0  0  0  0  0  0
    8.1521  -15.7636   23.9972 N   0  0  0  0  0  0  0  0  0  0  0  0
    8.8484  -15.7300   26.2334 C   0  0  0  0  0  0  0  0  0  0  0  0
    9.1638  -15.2909   27.3386 O   0  0  0  0  0  0  0  0  0  0  0  0
    9.0963  -17.0898   25.9667 O   0  0  0  0  0  0  0  0  0  0  0  0
  2  1  1  1
  2  4  1  0
  3  2  1  0
  4  5  2  0
  8  7  1  1
  7  6  1  0
  9  4  1  0
  9  8  1  0
 10  8  1  0
 10 11  2  0
 12 13  1  0
 13 14  1  0
 14 15  1  0
 16 15  1  1
 16 17  1  0
 16 18  1  0
 17 10  1  0
 18 20  1  0
 19 18  2  0
M  END
$$$$
