ASM.pdb
     RDKit          3D

 20 19  0  0  1  0  0  0  0  0999 V2000
    8.5462  -12.1807   19.4092 C   0  0  0  0  0  0  0  0  0  0  0  0
    8.4819  -13.5831   18.8920 C   0  0  2  0  0  0  0  0  0  0  0  0
    7.3886  -13.7352   17.9273 N   0  0  0  0  0  0  0  0  0  0  0  0
    8.2809  -14.5168   20.0310 C   0  0  0  0  0  0  0  0  0  0  0  0
    7.1506  -14.6579   20.5303 O   0  0  0  0  0  0  0  0  0  0  0  0
   11.5809  -16.4282   21.8747 O   0  0  0  0  0  0  0  0  0  0  0  0
   10.4654  -17.1441   21.4403 C   0  0  0  0  0  0  0  0  0  0  0  0
    9.2716  -16.2255   21.5960 C   0  0  2  0  0  0  0  0  0  0  0  0
    9.3668  -15.2369   20.5408 N   0  0  0  0  0  0  0  0  0  0  0  0
    9.3080  -15.4914   22.8954 C   0  0  0  0  0  0  0  0  0  0  0  0
    9.6274  -14.2678   22.9414 O   0  0  0  0  0  0  0  0  0  0  0  0
    6.6846  -11.3224   27.7237 C   0  0  0  0  0  0  0  0  0  0  0  0
    7.0208  -12.1805   26.1665 S   0  0  0  0  0  0  0  0  0  0  0  0
    6.9029  -13.9881   26.4307 C   0  0  0  0  0  0  0  0  0  0  0  0
    7.2870  -14.7339   25.1875 C   0  0  0  0  0  0  0  0  0  0  0  0
    8.6676  -15.2645   25.2958 C   0  0  2  0  0  0  0  0  0  0  0  0
    8.9928  -16.1120   24.1279 N   0  0  0  0  0  0  0  0  0  0  0  0
    8.8025  -16.1497   26.4623 C   0  0  0  0  0  0  0  0  0  0  0  0
    8.6784  -15.7503   27.6193 O   0  0  0  0  0  0  0  0  0  0  0  0
    9.0854  -17.5139   26.2603 O   0  0  0  0  0  0  0  0  0  0  0  0
  2  1  1  1
  2  4  1  0
  3  2  1  0
  4  5  2  0
  8  7  1  1
  7  6  1  0
  9  4  1  0
  9  8  1  0
 10  8  1  0
 10 11  2  0
 12 13  1  0
 13 14  1  0
 14 15  1  0
 16 15  1  6
 16 17  1  0
 16 18  1  0
 17 10  1  0
 18 20  1  0
 19 18  2  0
M  END
$$$$
