ASM.pdb
     RDKit          3D

 20 19  0  0  1  0  0  0  0  0999 V2000
    8.5497  -12.4777   18.5803 C   0  0  0  0  0  0  0  0  0  0  0  0
    8.7140  -13.9128   18.1905 C   0  0  2  0  0  0  0  0  0  0  0  0
    8.0089  -14.1985   16.9374 N   0  0  0  0  0  0  0  0  0  0  0  0
    8.1824  -14.7791   19.2752 C   0  0  0  0  0  0  0  0  0  0  0  0
    6.9803  -15.0979   19.2867 O   0  0  0  0  0  0  0  0  0  0  0  0
   10.8101  -16.9930   21.2784 O   0  0  0  0  0  0  0  0  0  0  0  0
    9.4744  -17.3866   21.1977 C   0  0  0  0  0  0  0  0  0  0  0  0
    8.6413  -16.1315   21.3516 C   0  0  2  0  0  0  0  0  0  0  0  0
    9.0378  -15.2353   20.2841 N   0  0  0  0  0  0  0  0  0  0  0  0
    8.9260  -15.4367   22.6419 C   0  0  0  0  0  0  0  0  0  0  0  0
    9.9809  -14.7543   22.7931 O   0  0  0  0  0  0  0  0  0  0  0  0
    6.2555  -10.8770   28.2502 C   0  0  0  0  0  0  0  0  0  0  0  0
    5.8767  -11.9779   26.8649 S   0  0  0  0  0  0  0  0  0  0  0  0
    7.3546  -12.9813   26.4642 C   0  0  0  0  0  0  0  0  0  0  0  0
    7.1117  -13.8243   25.2479 C   0  0  0  0  0  0  0  0  0  0  0  0
    8.3074  -14.6393   24.9233 C   0  0  2  0  0  0  0  0  0  0  0  0
    8.0472  -15.5011   23.7497 N   0  0  0  0  0  0  0  0  0  0  0  0
    8.6262  -15.5675   26.0184 C   0  0  0  0  0  0  0  0  0  0  0  0
    8.2952  -16.7524   26.0048 O   0  0  0  0  0  0  0  0  0  0  0  0
    9.3399  -15.0930   27.1352 O   0  0  0  0  0  0  0  0  0  0  0  0
  2  1  1  1
  2  4  1  0
  3  2  1  0
  4  5  2  0
  8  7  1  1
  7  6  1  0
  9  4  1  0
  9  8  1  0
 10  8  1  0
 10 11  2  0
 12 13  1  0
 13 14  1  0
 14 15  1  0
 16 15  1  1
 16 17  1  0
 16 18  1  0
 17 10  1  0
 18 20  1  0
 19 18  2  0
M  END
$$$$
