ASM.pdb
     RDKit          3D

 20 19  0  0  1  0  0  0  0  0999 V2000
    8.6941  -12.2694   19.4878 C   0  0  0  0  0  0  0  0  0  0  0  0
    8.6649  -13.6427   18.8948 C   0  0  2  0  0  0  0  0  0  0  0  0
    7.7415  -13.7018   17.7578 N   0  0  0  0  0  0  0  0  0  0  0  0
    8.2440  -14.6170   19.9355 C   0  0  0  0  0  0  0  0  0  0  0  0
    7.0407  -14.7409   20.2242 O   0  0  0  0  0  0  0  0  0  0  0  0
   11.1838  -16.8680   21.7422 O   0  0  0  0  0  0  0  0  0  0  0  0
    9.9229  -17.4390   21.5700 C   0  0  0  0  0  0  0  0  0  0  0  0
    8.9172  -16.3117   21.6749 C   0  0  2  0  0  0  0  0  0  0  0  0
    9.2052  -15.3949   20.5903 N   0  0  0  0  0  0  0  0  0  0  0  0
    9.0733  -15.5519   22.9504 C   0  0  0  0  0  0  0  0  0  0  0  0
    9.9336  -14.6300   23.0561 O   0  0  0  0  0  0  0  0  0  0  0  0
    6.4335  -10.9978   28.2990 C   0  0  0  0  0  0  0  0  0  0  0  0
    6.2120  -11.9477   26.7749 S   0  0  0  0  0  0  0  0  0  0  0  0
    7.2551  -13.4507   26.8382 C   0  0  0  0  0  0  0  0  0  0  0  0
    7.1642  -14.2162   25.5518 C   0  0  0  0  0  0  0  0  0  0  0  0
    8.4260  -14.9475   25.2826 C   0  0  2  0  0  0  0  0  0  0  0  0
    8.2813  -15.8154   24.0936 N   0  0  0  0  0  0  0  0  0  0  0  0
    8.7522  -15.8611   26.3878 C   0  0  0  0  0  0  0  0  0  0  0  0
    8.9269  -15.4740   27.5424 O   0  0  0  0  0  0  0  0  0  0  0  0
    8.8723  -17.2393   26.1270 O   0  0  0  0  0  0  0  0  0  0  0  0
  2  1  1  1
  2  4  1  0
  3  2  1  0
  4  5  2  0
  8  7  1  1
  7  6  1  0
  9  4  1  0
  9  8  1  0
 10  8  1  0
 10 11  2  0
 12 13  1  0
 13 14  1  0
 14 15  1  0
 16 15  1  1
 16 17  1  0
 16 18  1  0
 17 10  1  0
 18 20  1  0
 19 18  2  0
M  END
$$$$
