ASM.pdb
     RDKit          3D

 20 19  0  0  1  0  0  0  0  0999 V2000
    8.7034  -12.3724   18.8522 C   0  0  0  0  0  0  0  0  0  0  0  0
    8.7543  -13.7857   18.3638 C   0  0  2  0  0  0  0  0  0  0  0  0
    7.9415  -13.9508   17.1551 N   0  0  0  0  0  0  0  0  0  0  0  0
    8.2565  -14.6915   19.4320 C   0  0  0  0  0  0  0  0  0  0  0  0
    7.0469  -14.9733   19.4979 O   0  0  0  0  0  0  0  0  0  0  0  0
   10.9248  -17.1188   21.2118 O   0  0  0  0  0  0  0  0  0  0  0  0
    9.5743  -17.4486   21.0981 C   0  0  0  0  0  0  0  0  0  0  0  0
    8.7922  -16.1851   21.3898 C   0  0  2  0  0  0  0  0  0  0  0  0
    9.1521  -15.2267   20.3643 N   0  0  0  0  0  0  0  0  0  0  0  0
    9.1758  -15.5917   22.7049 C   0  0  0  0  0  0  0  0  0  0  0  0
   10.2110  -14.8724   22.8157 O   0  0  0  0  0  0  0  0  0  0  0  0
    6.3637  -11.3767   28.4671 C   0  0  0  0  0  0  0  0  0  0  0  0
    6.0941  -12.3588   26.9714 S   0  0  0  0  0  0  0  0  0  0  0  0
    7.5883  -13.3569   26.6220 C   0  0  0  0  0  0  0  0  0  0  0  0
    7.4508  -14.0820   25.3164 C   0  0  0  0  0  0  0  0  0  0  0  0
    8.6470  -14.9162   25.0474 C   0  0  2  0  0  0  0  0  0  0  0  0
    8.4163  -15.7968   23.8817 N   0  0  0  0  0  0  0  0  0  0  0  0
    8.9179  -15.8273   26.1696 C   0  0  0  0  0  0  0  0  0  0  0  0
    8.5618  -17.0049   26.1721 O   0  0  0  0  0  0  0  0  0  0  0  0
    9.6131  -15.3440   27.2942 O   0  0  0  0  0  0  0  0  0  0  0  0
  2  1  1  1
  2  4  1  0
  3  2  1  0
  4  5  2  0
  8  7  1  6
  7  6  1  0
  9  4  1  0
  9  8  1  0
 10  8  1  0
 10 11  2  0
 12 13  1  0
 13 14  1  0
 14 15  1  0
 16 15  1  1
 16 17  1  0
 16 18  1  0
 17 10  1  0
 18 20  1  0
 19 18  2  0
M  END
$$$$
