ASM.pdb
     RDKit          3D

 20 19  0  0  1  0  0  0  0  0999 V2000
    8.8974  -12.0702   19.6279 C   0  0  0  0  0  0  0  0  0  0  0  0
    8.6518  -13.3840   18.9554 C   0  0  2  0  0  0  0  0  0  0  0  0
    7.7786  -13.2195   17.7895 N   0  0  0  0  0  0  0  0  0  0  0  0
    8.0254  -14.3210   19.9244 C   0  0  0  0  0  0  0  0  0  0  0  0
    6.9560  -14.8891   19.6411 O   0  0  0  0  0  0  0  0  0  0  0  0
    9.9269  -17.1771   21.2835 O   0  0  0  0  0  0  0  0  0  0  0  0
    8.5534  -16.9369   21.2462 C   0  0  0  0  0  0  0  0  0  0  0  0
    8.3126  -15.6671   22.0355 C   0  0  2  0  0  0  0  0  0  0  0  0
    8.6417  -14.5625   21.1572 N   0  0  0  0  0  0  0  0  0  0  0  0
    9.2165  -15.5757   23.2200 C   0  0  0  0  0  0  0  0  0  0  0  0
   10.2140  -14.7970   23.2174 O   0  0  0  0  0  0  0  0  0  0  0  0
    7.5328  -11.4833   26.6063 C   0  0  0  0  0  0  0  0  0  0  0  0
    6.1848  -12.6836   26.4780 S   0  0  0  0  0  0  0  0  0  0  0  0
    6.8427  -14.3689   26.7574 C   0  0  0  0  0  0  0  0  0  0  0  0
    7.3013  -14.9819   25.4677 C   0  0  0  0  0  0  0  0  0  0  0  0
    8.6126  -15.6529   25.6393 C   0  0  2  0  0  0  0  0  0  0  0  0
    9.0121  -16.3416   24.3927 N   0  0  0  0  0  0  0  0  0  0  0  0
    8.5338  -16.7129   26.6555 C   0  0  0  0  0  0  0  0  0  0  0  0
    7.9535  -17.7802   26.4610 O   0  0  0  0  0  0  0  0  0  0  0  0
    9.1439  -16.5105   27.9079 O   0  0  0  0  0  0  0  0  0  0  0  0
  2  1  1  1
  2  4  1  0
  3  2  1  0
  4  5  2  0
  8  7  1  6
  7  6  1  0
  9  4  1  0
  9  8  1  0
 10  8  1  0
 10 11  2  0
 12 13  1  0
 13 14  1  0
 14 15  1  0
 16 15  1  6
 16 17  1  0
 16 18  1  0
 17 10  1  0
 18 20  1  0
 19 18  2  0
M  END
$$$$
