ASM.pdb
     RDKit          3D

 20 19  0  0  1  0  0  0  0  0999 V2000
   10.2508  -13.3178   18.7949 C   0  0  0  0  0  0  0  0  0  0  0  0
    8.9928  -14.0227   18.3961 C   0  0  2  0  0  0  0  0  0  0  0  0
    8.2160  -13.2128   17.4529 N   0  0  0  0  0  0  0  0  0  0  0  0
    8.1800  -14.2989   19.6096 C   0  0  0  0  0  0  0  0  0  0  0  0
    7.4890  -13.3976   20.1165 O   0  0  0  0  0  0  0  0  0  0  0  0
    8.4850  -18.0180   21.4839 O   0  0  0  0  0  0  0  0  0  0  0  0
    7.2245  -17.5014   21.1841 C   0  0  0  0  0  0  0  0  0  0  0  0
    7.3398  -15.9941   21.2743 C   0  0  2  0  0  0  0  0  0  0  0  0
    8.1942  -15.5760   20.1811 N   0  0  0  0  0  0  0  0  0  0  0  0
    8.0024  -15.5678   22.5423 C   0  0  0  0  0  0  0  0  0  0  0  0
    9.2523  -15.3761   22.5895 O   0  0  0  0  0  0  0  0  0  0  0  0
    5.3564  -11.8240   27.4596 C   0  0  0  0  0  0  0  0  0  0  0  0
    7.1304  -11.5421   27.2413 S   0  0  0  0  0  0  0  0  0  0  0  0
    7.9274  -13.0912   26.6789 C   0  0  0  0  0  0  0  0  0  0  0  0
    7.3126  -13.5715   25.3980 C   0  0  0  0  0  0  0  0  0  0  0  0
    7.9894  -14.7997   24.9158 C   0  0  2  0  0  0  0  0  0  0  0  0
    7.2821  -15.3575   23.7426 N   0  0  0  0  0  0  0  0  0  0  0  0
    7.9433  -15.8612   25.9326 C   0  0  0  0  0  0  0  0  0  0  0  0
    7.0934  -16.7506   25.9287 O   0  0  0  0  0  0  0  0  0  0  0  0
    8.9068  -15.8714   26.9589 O   0  0  0  0  0  0  0  0  0  0  0  0
  2  1  1  1
  2  4  1  0
  3  2  1  0
  4  5  2  0
  8  7  1  1
  7  6  1  0
  9  4  1  0
  9  8  1  0
 10  8  1  0
 10 11  2  0
 12 13  1  0
 13 14  1  0
 14 15  1  0
 16 15  1  1
 16 17  1  0
 16 18  1  0
 17 10  1  0
 18 20  1  0
 19 18  2  0
M  END
$$$$
