ASM.pdb
     RDKit          3D

 20 19  0  0  1  0  0  0  0  0999 V2000
   12.4525  -16.0026   19.7287 C   0  0  0  0  0  0  0  0  0  0  0  0
   11.4095  -17.0694   19.8408 C   0  0  2  0  0  0  0  0  0  0  0  0
   10.9119  -17.4555   18.5170 N   0  0  0  0  0  0  0  0  0  0  0  0
   10.2849  -16.5696   20.6745 C   0  0  0  0  0  0  0  0  0  0  0  0
    9.6170  -15.5900   20.2990 O   0  0  0  0  0  0  0  0  0  0  0  0
    8.8116  -19.0715   23.4076 O   0  0  0  0  0  0  0  0  0  0  0  0
    8.0023  -18.0607   22.8890 C   0  0  0  0  0  0  0  0  0  0  0  0
    8.8771  -16.8327   22.7480 C   0  0  2  0  0  0  0  0  0  0  0  0
    9.9792  -17.2040   21.8836 N   0  0  0  0  0  0  0  0  0  0  0  0
    9.4614  -16.4199   24.0583 C   0  0  0  0  0  0  0  0  0  0  0  0
   10.2063  -17.2053   24.7136 O   0  0  0  0  0  0  0  0  0  0  0  0
    6.9912  -10.9768   25.4013 C   0  0  0  0  0  0  0  0  0  0  0  0
    6.2545  -12.1911   26.5226 S   0  0  0  0  0  0  0  0  0  0  0  0
    7.5559  -13.3271   27.1285 C   0  0  0  0  0  0  0  0  0  0  0  0
    7.5655  -14.5982   26.3326 C   0  0  0  0  0  0  0  0  0  0  0  0
    8.9544  -15.0545   26.0837 C   0  0  2  0  0  0  0  0  0  0  0  0
    9.2191  -15.1485   24.6315 N   0  0  0  0  0  0  0  0  0  0  0  0
    9.1634  -16.4150   26.6011 C   0  0  0  0  0  0  0  0  0  0  0  0
    8.7371  -17.4177   26.0297 O   0  0  0  0  0  0  0  0  0  0  0  0
    9.8801  -16.5914   27.8000 O   0  0  0  0  0  0  0  0  0  0  0  0
  2  1  1  6
  2  4  1  0
  3  2  1  0
  4  5  2  0
  8  7  1  1
  7  6  1  0
  9  4  1  0
  9  8  1  0
 10  8  1  0
 10 11  2  0
 12 13  1  0
 13 14  1  0
 14 15  1  0
 16 15  1  6
 16 17  1  0
 16 18  1  0
 17 10  1  0
 18 20  1  0
 19 18  2  0
M  END
$$$$
