ASM.pdb
     RDKit          3D

 20 19  0  0  1  0  0  0  0  0999 V2000
    7.6572  -12.9318   18.2467 C   0  0  0  0  0  0  0  0  0  0  0  0
    8.8269  -13.4416   19.0279 C   0  0  2  0  0  0  0  0  0  0  0  0
    9.6778  -14.2981   18.1965 N   0  0  0  0  0  0  0  0  0  0  0  0
    8.3351  -14.2094   20.2018 C   0  0  0  0  0  0  0  0  0  0  0  0
    7.4579  -13.7273   20.9399 O   0  0  0  0  0  0  0  0  0  0  0  0
   10.3951  -17.5026   21.5727 O   0  0  0  0  0  0  0  0  0  0  0  0
    9.0449  -17.7041   21.2865 C   0  0  0  0  0  0  0  0  0  0  0  0
    8.3533  -16.3730   21.4939 C   0  0  2  0  0  0  0  0  0  0  0  0
    8.8616  -15.4767   20.4750 N   0  0  0  0  0  0  0  0  0  0  0  0
    8.6943  -15.7762   22.8191 C   0  0  0  0  0  0  0  0  0  0  0  0
    9.8215  -15.2365   23.0177 O   0  0  0  0  0  0  0  0  0  0  0  0
    6.8943  -11.1446   28.4545 C   0  0  0  0  0  0  0  0  0  0  0  0
    6.4265  -12.0251   26.9444 S   0  0  0  0  0  0  0  0  0  0  0  0
    7.1217  -13.7180   26.9876 C   0  0  0  0  0  0  0  0  0  0  0  0
    6.8355  -14.4438   25.7068 C   0  0  0  0  0  0  0  0  0  0  0  0
    8.0892  -14.9419   25.0909 C   0  0  2  0  0  0  0  0  0  0  0  0
    7.7915  -15.7803   23.9093 N   0  0  0  0  0  0  0  0  0  0  0  0
    8.8164  -15.8248   26.0152 C   0  0  0  0  0  0  0  0  0  0  0  0
    8.7362  -17.0514   25.9660 O   0  0  0  0  0  0  0  0  0  0  0  0
    9.6426  -15.2549   27.0023 O   0  0  0  0  0  0  0  0  0  0  0  0
  2  1  1  6
  2  4  1  0
  3  2  1  0
  4  5  2  0
  8  7  1  6
  7  6  1  0
  9  4  1  0
  9  8  1  0
 10  8  1  0
 10 11  2  0
 12 13  1  0
 13 14  1  0
 14 15  1  0
 16 15  1  1
 16 17  1  0
 16 18  1  0
 17 10  1  0
 18 20  1  0
 19 18  2  0
M  END
$$$$
