ASM.pdb
     RDKit          3D

 20 19  0  0  1  0  0  0  0  0999 V2000
    8.5285  -12.2003   19.2322 C   0  0  0  0  0  0  0  0  0  0  0  0
    8.6443  -13.6133   18.7543 C   0  0  2  0  0  0  0  0  0  0  0  0
    7.8217  -13.8307   17.5605 N   0  0  0  0  0  0  0  0  0  0  0  0
    8.2111  -14.5342   19.8377 C   0  0  0  0  0  0  0  0  0  0  0  0
    7.0112  -14.8395   19.9547 O   0  0  0  0  0  0  0  0  0  0  0  0
   11.0981  -16.7146   21.7613 O   0  0  0  0  0  0  0  0  0  0  0  0
    9.8109  -17.1982   21.5273 C   0  0  0  0  0  0  0  0  0  0  0  0
    8.8633  -16.0384   21.7515 C   0  0  2  0  0  0  0  0  0  0  0  0
    9.1568  -15.0570   20.7265 N   0  0  0  0  0  0  0  0  0  0  0  0
    9.0983  -15.3833   23.0723 C   0  0  0  0  0  0  0  0  0  0  0  0
   10.0195  -14.5281   23.2184 O   0  0  0  0  0  0  0  0  0  0  0  0
    6.4389  -10.8721   26.2209 C   0  0  0  0  0  0  0  0  0  0  0  0
    6.4381  -12.1465   27.5055 S   0  0  0  0  0  0  0  0  0  0  0  0
    7.7462  -13.3750   27.1439 C   0  0  0  0  0  0  0  0  0  0  0  0
    7.4770  -14.0721   25.8436 C   0  0  0  0  0  0  0  0  0  0  0  0
    8.6028  -14.9669   25.4815 C   0  0  2  0  0  0  0  0  0  0  0  0
    8.3173  -15.6769   24.2158 N   0  0  0  0  0  0  0  0  0  0  0  0
    8.7780  -16.0270   26.4856 C   0  0  0  0  0  0  0  0  0  0  0  0
    8.4558  -17.1967   26.2822 O   0  0  0  0  0  0  0  0  0  0  0  0
    9.3370  -15.7028   27.7363 O   0  0  0  0  0  0  0  0  0  0  0  0
  2  1  1  1
  2  4  1  0
  3  2  1  0
  4  5  2  0
  8  7  1  6
  7  6  1  0
  9  4  1  0
  9  8  1  0
 10  8  1  0
 10 11  2  0
 12 13  1  0
 13 14  1  0
 14 15  1  0
 16 15  1  1
 16 17  1  0
 16 18  1  0
 17 10  1  0
 18 20  1  0
 19 18  2  0
M  END
$$$$
