ASM.pdb
     RDKit          3D

 20 19  0  0  1  0  0  0  0  0999 V2000
   10.4486  -19.0401   19.9900 C   0  0  0  0  0  0  0  0  0  0  0  0
   10.3240  -17.6955   19.3457 C   0  0  2  0  0  0  0  0  0  0  0  0
   11.4842  -17.4137   18.4951 N   0  0  0  0  0  0  0  0  0  0  0  0
   10.2100  -16.6551   20.4011 C   0  0  0  0  0  0  0  0  0  0  0  0
   11.2280  -16.2457   20.9866 O   0  0  0  0  0  0  0  0  0  0  0  0
    6.4566  -15.6196   21.6728 O   0  0  0  0  0  0  0  0  0  0  0  0
    7.3382  -14.5570   21.4746 C   0  0  0  0  0  0  0  0  0  0  0  0
    8.7317  -15.0969   21.7194 C   0  0  2  0  0  0  0  0  0  0  0  0
    8.9539  -16.1369   20.7351 N   0  0  0  0  0  0  0  0  0  0  0  0
    8.8479  -15.7298   23.0664 C   0  0  0  0  0  0  0  0  0  0  0  0
    8.9029  -16.9879   23.1904 O   0  0  0  0  0  0  0  0  0  0  0  0
   11.0402  -12.9560   28.7705 C   0  0  0  0  0  0  0  0  0  0  0  0
    9.8368  -14.2012   29.2956 S   0  0  0  0  0  0  0  0  0  0  0  0
    9.5771  -15.4049   27.9411 C   0  0  0  0  0  0  0  0  0  0  0  0
    9.2957  -14.6988   26.6482 C   0  0  0  0  0  0  0  0  0  0  0  0
    9.0924  -15.6727   25.5485 C   0  0  2  0  0  0  0  0  0  0  0  0
    8.9022  -14.9712   24.2603 N   0  0  0  0  0  0  0  0  0  0  0  0
    7.8582  -16.4464   25.7504 C   0  0  0  0  0  0  0  0  0  0  0  0
    6.7579  -16.0591   25.3593 O   0  0  0  0  0  0  0  0  0  0  0  0
    7.9249  -17.6841   26.4179 O   0  0  0  0  0  0  0  0  0  0  0  0
  2  1  1  1
  2  4  1  0
  3  2  1  0
  4  5  2  0
  8  7  1  6
  7  6  1  0
  9  4  1  0
  9  8  1  0
 10  8  1  0
 10 11  2  0
 12 13  1  0
 13 14  1  0
 14 15  1  0
 16 15  1  1
 16 17  1  0
 16 18  1  0
 17 10  1  0
 18 20  1  0
 19 18  2  0
M  END
$$$$
