NIR.pdb
     RDKit          3D

 28 27  0  0  1  0  0  0  0  0999 V2000
    7.8109  -17.8956   13.7054 N   0  0  0  0  0  0  0  0  0  0  0  0
    8.9253  -18.0437   14.5646 C   0  0  0  0  0  0  0  0  0  0  0  0
    9.7176  -19.0046   14.4099 O   0  0  0  0  0  0  0  0  0  0  0  0
    9.1772  -17.0751   15.6555 C   0  0  0  0  0  0  0  0  0  0  0  0
    9.0637  -17.7624   17.0033 C   0  0  2  0  0  0  0  0  0  0  0  0
    7.6753  -18.1406   17.2244 N   0  0  0  0  0  0  0  0  0  0  0  0
    9.4587  -16.8659   18.1070 C   0  0  0  0  0  0  0  0  0  0  0  0
   10.6190  -16.4510   18.2594 O   0  0  0  0  0  0  0  0  0  0  0  0
    6.7095  -12.5611   19.8649 C   0  0  0  0  0  0  0  0  0  0  0  0
    7.8184  -13.5557   19.5123 C   0  0  0  0  0  0  0  0  0  0  0  0
    7.9957  -14.5653   20.6164 C   0  0  2  0  0  0  0  0  0  0  0  0
    8.2106  -13.8067   21.8823 C   0  0  0  0  0  0  0  0  0  0  0  0
    8.8794  -15.6378   20.2388 C   0  0  2  0  0  0  0  0  0  0  0  0
    8.4860  -16.4247   19.0783 N   0  0  0  0  0  0  0  0  0  0  0  0
    9.6029  -16.4448   21.2400 C   0  0  0  0  0  0  0  0  0  0  0  0
    9.1536  -17.5256   21.7422 O   0  0  0  0  0  0  0  0  0  0  0  0
   17.0224  -16.4449   25.9514 N   0  0  0  0  0  0  0  0  0  0  0  0
   17.2931  -16.5212   24.5720 C   0  0  0  0  0  0  0  0  0  0  0  0
   18.2521  -15.8366   24.0501 N   0  0  0  0  0  0  0  0  0  0  0  0
   16.5052  -17.3638   23.7202 N   0  0  0  0  0  0  0  0  0  0  0  0
   15.4731  -16.6807   22.9381 C   0  0  0  0  0  0  0  0  0  0  0  0
   14.0918  -17.2005   23.3311 C   0  0  0  0  0  0  0  0  0  0  0  0
   13.1163  -16.5352   22.4284 C   0  0  0  0  0  0  0  0  0  0  0  0
   11.6742  -16.9312   22.6347 C   0  0  2  0  0  0  0  0  0  0  0  0
   10.8815  -16.0920   21.7476 N   0  0  0  0  0  0  0  0  0  0  0  0
   11.2271  -16.8325   24.0249 C   0  0  0  0  0  0  0  0  0  0  0  0
   10.7275  -15.7664   24.4603 O   0  0  0  0  0  0  0  0  0  0  0  0
   11.3521  -17.9165   24.8666 O   0  0  0  0  0  0  0  0  0  0  0  0
  2  1  1  0
  2  3  2  0
  4  2  1  0
  5  4  1  0
  5  6  1  1
  7  5  1  0
  8  7  2  0
  9 10  1  0
 11 13  1  0
 11 10  1  0
 11 12  1  1
 13 14  1  1
 14  7  1  0
 15 25  1  0
 15 13  1  0
 16 15  2  0
 17 18  1  0
 18 19  2  0
 20 18  1  0
 21 20  1  0
 22 21  1  0
 23 22  1  0
 24 23  1  1
 24 25  1  0
 26 28  1  0
 26 24  1  0
 27 26  2  0
M  END
$$$$
