NIR.pdb
     RDKit          3D

 28 27  0  0  1  0  0  0  0  0999 V2000
    7.1975  -17.3049   18.8254 N   0  0  0  0  0  0  0  0  0  0  0  0
    8.0064  -16.1531   18.6791 C   0  0  0  0  0  0  0  0  0  0  0  0
    8.3238  -15.7467   17.5350 O   0  0  0  0  0  0  0  0  0  0  0  0
    8.4908  -15.4099   19.8642 C   0  0  0  0  0  0  0  0  0  0  0  0
    8.0529  -16.1099   21.1370 C   0  0  2  0  0  0  0  0  0  0  0  0
    6.6061  -16.0034   21.2600 N   0  0  0  0  0  0  0  0  0  0  0  0
    8.6456  -15.4839   22.3347 C   0  0  0  0  0  0  0  0  0  0  0  0
    9.8706  -15.3712   22.5033 O   0  0  0  0  0  0  0  0  0  0  0  0
    6.7937  -11.9410   26.8773 C   0  0  0  0  0  0  0  0  0  0  0  0
    6.7720  -13.1529   25.9422 C   0  0  0  0  0  0  0  0  0  0  0  0
    7.9724  -13.1416   25.0319 C   0  0  2  0  0  0  0  0  0  0  0  0
    7.7513  -12.0707   24.0177 C   0  0  0  0  0  0  0  0  0  0  0  0
    8.3668  -14.4676   24.6321 C   0  0  2  0  0  0  0  0  0  0  0  0
    7.8023  -14.9643   23.3849 N   0  0  0  0  0  0  0  0  0  0  0  0
    8.5872  -15.5476   25.6130 C   0  0  0  0  0  0  0  0  0  0  0  0
    7.7417  -16.4673   25.8609 O   0  0  0  0  0  0  0  0  0  0  0  0
   14.1872  -21.5444   24.6988 N   0  0  0  0  0  0  0  0  0  0  0  0
   13.5281  -20.6818   23.8026 C   0  0  0  0  0  0  0  0  0  0  0  0
   13.3555  -21.0186   22.5708 N   0  0  0  0  0  0  0  0  0  0  0  0
   13.0355  -19.4096   24.2445 N   0  0  0  0  0  0  0  0  0  0  0  0
   12.7067  -19.3211   25.6684 C   0  0  0  0  0  0  0  0  0  0  0  0
   11.2806  -18.8026   25.8429 C   0  0  0  0  0  0  0  0  0  0  0  0
   11.3955  -17.4057   26.3375 C   0  0  0  0  0  0  0  0  0  0  0  0
   10.1863  -16.8820   27.0741 C   0  0  2  0  0  0  0  0  0  0  0  0
    9.7732  -15.6679   26.3850 N   0  0  0  0  0  0  0  0  0  0  0  0
   10.4179  -16.6493   28.5005 C   0  0  0  0  0  0  0  0  0  0  0  0
   10.6049  -15.4866   28.9351 O   0  0  0  0  0  0  0  0  0  0  0  0
   10.4301  -17.7118   29.3779 O   0  0  0  0  0  0  0  0  0  0  0  0
  2  1  1  0
  2  3  2  0
  4  2  1  0
  5  4  1  0
  5  6  1  1
  7  5  1  0
  8  7  2  0
  9 10  1  0
 11 13  1  0
 11 10  1  0
 11 12  1  6
 13 14  1  6
 14  7  1  0
 15 25  1  0
 15 13  1  0
 16 15  2  0
 17 18  1  0
 18 19  2  0
 20 18  1  0
 21 20  1  0
 22 21  1  0
 23 22  1  0
 24 23  1  6
 24 25  1  0
 26 28  1  0
 26 24  1  0
 27 26  2  0
M  END
$$$$
