NIR.pdb
     RDKit          3D

 28 27  0  0  1  0  0  0  0  0999 V2000
    9.9248  -19.5083   15.6212 N   0  0  0  0  0  0  0  0  0  0  0  0
   11.0847  -19.2205   16.3789 C   0  0  0  0  0  0  0  0  0  0  0  0
   12.2002  -19.6692   16.0194 O   0  0  0  0  0  0  0  0  0  0  0  0
   11.0060  -18.3903   17.6021 C   0  0  0  0  0  0  0  0  0  0  0  0
   10.8477  -16.9272   17.2333 C   0  0  2  0  0  0  0  0  0  0  0  0
   12.0540  -16.4794   16.5521 N   0  0  0  0  0  0  0  0  0  0  0  0
   10.6747  -16.0797   18.4290 C   0  0  0  0  0  0  0  0  0  0  0  0
   11.6169  -15.4907   18.9830 O   0  0  0  0  0  0  0  0  0  0  0  0
    7.0089  -12.0886   19.1232 C   0  0  0  0  0  0  0  0  0  0  0  0
    8.2733  -12.9452   19.2278 C   0  0  0  0  0  0  0  0  0  0  0  0
    8.0311  -14.1425   20.1096 C   0  0  2  0  0  0  0  0  0  0  0  0
    7.3857  -13.6500   21.3607 C   0  0  0  0  0  0  0  0  0  0  0  0
    9.1710  -15.0209   20.1627 C   0  0  2  0  0  0  0  0  0  0  0  0
    9.3688  -15.8974   19.0167 N   0  0  0  0  0  0  0  0  0  0  0  0
    9.6229  -15.6409   21.4231 C   0  0  0  0  0  0  0  0  0  0  0  0
    9.6377  -15.0405   22.5462 O   0  0  0  0  0  0  0  0  0  0  0  0
   11.7122  -24.0269   23.1278 N   0  0  0  0  0  0  0  0  0  0  0  0
   11.6214  -23.1427   22.0362 C   0  0  0  0  0  0  0  0  0  0  0  0
   11.4852  -23.5904   20.8355 N   0  0  0  0  0  0  0  0  0  0  0  0
   11.6790  -21.7245   22.2402 N   0  0  0  0  0  0  0  0  0  0  0  0
   11.4668  -20.9065   21.0446 C   0  0  0  0  0  0  0  0  0  0  0  0
   10.4966  -19.7689   21.3569 C   0  0  0  0  0  0  0  0  0  0  0  0
   11.1578  -18.9172   22.3799 C   0  0  0  0  0  0  0  0  0  0  0  0
   10.4081  -17.6616   22.7545 C   0  0  2  0  0  0  0  0  0  0  0  0
   10.0914  -16.9790   21.5082 N   0  0  0  0  0  0  0  0  0  0  0  0
   11.1342  -16.7945   23.6836 C   0  0  0  0  0  0  0  0  0  0  0  0
   11.4966  -15.6449   23.3327 O   0  0  0  0  0  0  0  0  0  0  0  0
   11.4236  -17.2383   24.9557 O   0  0  0  0  0  0  0  0  0  0  0  0
  2  1  1  0
  2  3  2  0
  4  2  1  0
  5  4  1  0
  5  6  1  1
  7  5  1  0
  8  7  2  0
  9 10  1  0
 11 13  1  0
 11 10  1  0
 11 12  1  1
 13 14  1  6
 14  7  1  0
 15 25  1  0
 15 13  1  0
 16 15  2  0
 17 18  1  0
 18 19  2  0
 20 18  1  0
 21 20  1  0
 22 21  1  0
 23 22  1  0
 24 23  1  6
 24 25  1  0
 26 28  1  0
 26 24  1  0
 27 26  2  0
M  END
$$$$
