NIR.pdb
     RDKit          3D

 28 27  0  0  1  0  0  0  0  0999 V2000
    7.5548  -19.6511   15.6809 N   0  0  0  0  0  0  0  0  0  0  0  0
    7.1707  -19.3762   17.0148 C   0  0  0  0  0  0  0  0  0  0  0  0
    7.4059  -20.2095   17.9232 O   0  0  0  0  0  0  0  0  0  0  0  0
    6.4885  -18.1093   17.3628 C   0  0  0  0  0  0  0  0  0  0  0  0
    7.3288  -16.9242   16.9255 C   0  0  2  0  0  0  0  0  0  0  0  0
    8.1554  -17.3235   15.7955 N   0  0  0  0  0  0  0  0  0  0  0  0
    8.2355  -16.4734   17.9990 C   0  0  0  0  0  0  0  0  0  0  0  0
    9.4500  -16.7311   18.0117 O   0  0  0  0  0  0  0  0  0  0  0  0
    7.3033  -12.5574   22.5156 C   0  0  0  0  0  0  0  0  0  0  0  0
    7.3614  -13.9115   21.8040 C   0  0  0  0  0  0  0  0  0  0  0  0
    8.3146  -13.8574   20.6386 C   0  0  2  0  0  0  0  0  0  0  0  0
    7.8441  -12.7730   19.7293 C   0  0  0  0  0  0  0  0  0  0  0  0
    8.6265  -15.1669   20.1271 C   0  0  2  0  0  0  0  0  0  0  0  0
    7.7326  -15.6945   19.1057 N   0  0  0  0  0  0  0  0  0  0  0  0
    9.1807  -16.2310   20.9861 C   0  0  0  0  0  0  0  0  0  0  0  0
    8.5615  -17.3053   21.2771 O   0  0  0  0  0  0  0  0  0  0  0  0
   14.8950  -18.2456   19.7576 N   0  0  0  0  0  0  0  0  0  0  0  0
   15.1702  -19.5644   20.1659 C   0  0  0  0  0  0  0  0  0  0  0  0
   16.3205  -20.0983   19.9371 N   0  0  0  0  0  0  0  0  0  0  0  0
   14.1736  -20.3399   20.8455 N   0  0  0  0  0  0  0  0  0  0  0  0
   12.8926  -19.6661   21.0659 C   0  0  0  0  0  0  0  0  0  0  0  0
   12.9692  -18.7979   22.3202 C   0  0  0  0  0  0  0  0  0  0  0  0
   12.4211  -17.4673   21.9484 C   0  0  0  0  0  0  0  0  0  0  0  0
   11.0282  -17.1805   22.4549 C   0  0  2  0  0  0  0  0  0  0  0  0
   10.4692  -16.1605   21.5792 N   0  0  0  0  0  0  0  0  0  0  0  0
   10.9817  -16.7786   23.8616 C   0  0  0  0  0  0  0  0  0  0  0  0
   10.8138  -15.5750   24.1761 O   0  0  0  0  0  0  0  0  0  0  0  0
   11.1214  -17.7258   24.8527 O   0  0  0  0  0  0  0  0  0  0  0  0
  2  1  1  0
  2  3  2  0
  4  2  1  0
  5  4  1  0
  5  6  1  6
  7  5  1  0
  8  7  2  0
  9 10  1  0
 11 13  1  0
 11 10  1  0
 11 12  1  6
 13 14  1  1
 14  7  1  0
 15 25  1  0
 15 13  1  0
 16 15  2  0
 17 18  1  0
 18 19  2  0
 20 18  1  0
 21 20  1  0
 22 21  1  0
 23 22  1  0
 24 23  1  6
 24 25  1  0
 26 28  1  0
 26 24  1  0
 27 26  2  0
M  END
$$$$
