NIR.pdb
     RDKit          3D

 28 27  0  0  1  0  0  0  0  0999 V2000
   10.5625  -18.6291   14.3901 N   0  0  0  0  0  0  0  0  0  0  0  0
    9.6066  -17.6359   14.7093 C   0  0  0  0  0  0  0  0  0  0  0  0
    8.5991  -17.4725   13.9791 O   0  0  0  0  0  0  0  0  0  0  0  0
    9.7747  -16.7757   15.9024 C   0  0  0  0  0  0  0  0  0  0  0  0
    9.3318  -17.5171   17.1497 C   0  0  2  0  0  0  0  0  0  0  0  0
    7.9016  -17.7748   17.0624 N   0  0  0  0  0  0  0  0  0  0  0  0
    9.5635  -16.7188   18.3691 C   0  0  0  0  0  0  0  0  0  0  0  0
   10.6976  -16.4639   18.8057 O   0  0  0  0  0  0  0  0  0  0  0  0
    7.1229  -12.1342   19.6599 C   0  0  0  0  0  0  0  0  0  0  0  0
    8.1206  -13.2879   19.5297 C   0  0  0  0  0  0  0  0  0  0  0  0
    7.8930  -14.3104   20.6125 C   0  0  2  0  0  0  0  0  0  0  0  0
    7.9494  -13.5940   21.9194 C   0  0  0  0  0  0  0  0  0  0  0  0
    8.6541  -15.5135   20.3960 C   0  0  2  0  0  0  0  0  0  0  0  0
    8.4514  -16.1892   19.1221 N   0  0  0  0  0  0  0  0  0  0  0  0
    8.9481  -16.4606   21.4886 C   0  0  0  0  0  0  0  0  0  0  0  0
    8.0898  -17.2569   21.9903 O   0  0  0  0  0  0  0  0  0  0  0  0
   15.7068  -19.5653   24.3366 N   0  0  0  0  0  0  0  0  0  0  0  0
   15.5909  -19.4805   22.9362 C   0  0  0  0  0  0  0  0  0  0  0  0
   16.6406  -19.4326   22.1902 N   0  0  0  0  0  0  0  0  0  0  0  0
   14.3002  -19.4458   22.3125 N   0  0  0  0  0  0  0  0  0  0  0  0
   13.2365  -20.1563   23.0248 C   0  0  0  0  0  0  0  0  0  0  0  0
   12.3580  -19.1597   23.7784 C   0  0  0  0  0  0  0  0  0  0  0  0
   11.7991  -18.2330   22.7596 C   0  0  0  0  0  0  0  0  0  0  0  0
   10.5447  -17.5020   23.1734 C   0  0  2  0  0  0  0  0  0  0  0  0
   10.2272  -16.5774   22.0945 N   0  0  0  0  0  0  0  0  0  0  0  0
   10.6566  -16.8193   24.4633 C   0  0  0  0  0  0  0  0  0  0  0  0
   10.7427  -15.5681   24.5176 O   0  0  0  0  0  0  0  0  0  0  0  0
   10.6664  -17.5514   25.6307 O   0  0  0  0  0  0  0  0  0  0  0  0
  2  1  1  0
  2  3  2  0
  4  2  1  0
  5  4  1  0
  5  6  1  6
  7  5  1  0
  8  7  2  0
  9 10  1  0
 11 13  1  0
 11 10  1  0
 11 12  1  1
 13 14  1  6
 14  7  1  0
 15 25  1  0
 15 13  1  0
 16 15  2  0
 17 18  1  0
 18 19  2  0
 20 18  1  0
 21 20  1  0
 22 21  1  0
 23 22  1  0
 24 23  1  6
 24 25  1  0
 26 28  1  0
 26 24  1  0
 27 26  2  0
M  END
$$$$
