NIR.pdb
     RDKit          3D

 28 27  0  0  1  0  0  0  0  0999 V2000
   11.6488  -18.4588   15.7323 N   0  0  0  0  0  0  0  0  0  0  0  0
   11.1886  -17.1490   15.4584 C   0  0  0  0  0  0  0  0  0  0  0  0
   11.4393  -16.6108   14.3529 O   0  0  0  0  0  0  0  0  0  0  0  0
   10.4077  -16.3929   16.4635 C   0  0  0  0  0  0  0  0  0  0  0  0
   10.2926  -17.1925   17.7478 C   0  0  2  0  0  0  0  0  0  0  0  0
    9.0858  -18.0048   17.6910 N   0  0  0  0  0  0  0  0  0  0  0  0
   10.1792  -16.3141   18.9281 C   0  0  0  0  0  0  0  0  0  0  0  0
   11.1632  -15.8129   19.4958 O   0  0  0  0  0  0  0  0  0  0  0  0
    6.9314  -12.1886   19.4486 C   0  0  0  0  0  0  0  0  0  0  0  0
    8.1026  -13.1606   19.6124 C   0  0  0  0  0  0  0  0  0  0  0  0
    7.8226  -14.1468   20.7163 C   0  0  2  0  0  0  0  0  0  0  0  0
    7.5536  -13.3623   21.9558 C   0  0  0  0  0  0  0  0  0  0  0  0
    8.7602  -15.2398   20.7228 C   0  0  2  0  0  0  0  0  0  0  0  0
    8.8856  -15.9946   19.4838 N   0  0  0  0  0  0  0  0  0  0  0  0
    8.9680  -16.0855   21.9139 C   0  0  0  0  0  0  0  0  0  0  0  0
    8.7016  -17.3302   21.9581 O   0  0  0  0  0  0  0  0  0  0  0  0
    6.7670  -18.6342   28.4291 N   0  0  0  0  0  0  0  0  0  0  0  0
    7.4325  -19.8486   28.1758 C   0  0  0  0  0  0  0  0  0  0  0  0
    7.6166  -20.7078   29.1184 N   0  0  0  0  0  0  0  0  0  0  0  0
    7.9188  -20.1528   26.8616 N   0  0  0  0  0  0  0  0  0  0  0  0
    7.7247  -19.1036   25.8591 C   0  0  0  0  0  0  0  0  0  0  0  0
    9.0361  -18.3558   25.6266 C   0  0  0  0  0  0  0  0  0  0  0  0
    8.7592  -17.3278   24.5894 C   0  0  0  0  0  0  0  0  0  0  0  0
    9.9228  -16.4291   24.2468 C   0  0  2  0  0  0  0  0  0  0  0  0
    9.4883  -15.5903   23.1391 N   0  0  0  0  0  0  0  0  0  0  0  0
   11.1562  -17.1524   23.9338 C   0  0  0  0  0  0  0  0  0  0  0  0
   11.1521  -18.0892   23.0982 O   0  0  0  0  0  0  0  0  0  0  0  0
   12.3348  -16.8049   24.5577 O   0  0  0  0  0  0  0  0  0  0  0  0
  2  1  1  0
  2  3  2  0
  4  2  1  0
  5  4  1  0
  5  6  1  6
  7  5  1  0
  8  7  2  0
  9 10  1  0
 11 13  1  0
 11 10  1  0
 11 12  1  1
 13 14  1  6
 14  7  1  0
 15 25  1  0
 15 13  1  0
 16 15  2  0
 17 18  1  0
 18 19  2  0
 20 18  1  0
 21 20  1  0
 22 21  1  0
 23 22  1  0
 24 23  1  6
 24 25  1  0
 26 28  1  0
 26 24  1  0
 27 26  2  0
M  END
$$$$
