NIR.pdb
     RDKit          3D

 28 27  0  0  1  0  0  0  0  0999 V2000
   11.4713  -19.4029   16.9882 N   0  0  0  0  0  0  0  0  0  0  0  0
   12.2907  -18.3605   17.4827 C   0  0  0  0  0  0  0  0  0  0  0  0
   13.5380  -18.4283   17.3632 O   0  0  0  0  0  0  0  0  0  0  0  0
   11.6970  -17.1777   18.1460 C   0  0  0  0  0  0  0  0  0  0  0  0
   11.0160  -17.5881   19.4382 C   0  0  2  0  0  0  0  0  0  0  0  0
    9.8237  -18.3600   19.1185 N   0  0  0  0  0  0  0  0  0  0  0  0
   10.5858  -16.4151   20.2237 C   0  0  0  0  0  0  0  0  0  0  0  0
   11.3792  -15.5676   20.6640 O   0  0  0  0  0  0  0  0  0  0  0  0
    7.2272  -11.7674   20.3148 C   0  0  0  0  0  0  0  0  0  0  0  0
    7.8535  -12.7835   21.2733 C   0  0  0  0  0  0  0  0  0  0  0  0
    7.8098  -14.1680   20.6809 C   0  0  2  0  0  0  0  0  0  0  0  0
    6.3740  -14.5451   20.5374 C   0  0  0  0  0  0  0  0  0  0  0  0
    8.7487  -15.0607   21.3095 C   0  0  2  0  0  0  0  0  0  0  0  0
    9.1888  -16.2016   20.5187 N   0  0  0  0  0  0  0  0  0  0  0  0
    8.6884  -15.3717   22.7506 C   0  0  0  0  0  0  0  0  0  0  0  0
    8.3193  -14.5411   23.6430 O   0  0  0  0  0  0  0  0  0  0  0  0
    8.8829  -20.6976   27.2634 N   0  0  0  0  0  0  0  0  0  0  0  0
    7.7669  -20.5031   28.0991 C   0  0  0  0  0  0  0  0  0  0  0  0
    7.7944  -20.8764   29.3322 N   0  0  0  0  0  0  0  0  0  0  0  0
    6.5763  -19.8846   27.5929 N   0  0  0  0  0  0  0  0  0  0  0  0
    6.5827  -19.5836   26.1601 C   0  0  0  0  0  0  0  0  0  0  0  0
    6.9479  -18.1174   25.9371 C   0  0  0  0  0  0  0  0  0  0  0  0
    7.7640  -18.0683   24.6958 C   0  0  0  0  0  0  0  0  0  0  0  0
    8.8510  -17.0208   24.6810 C   0  0  2  0  0  0  0  0  0  0  0  0
    9.0403  -16.6378   23.2892 N   0  0  0  0  0  0  0  0  0  0  0  0
   10.1018  -17.4580   25.3028 C   0  0  0  0  0  0  0  0  0  0  0  0
   10.1827  -17.5913   26.5484 O   0  0  0  0  0  0  0  0  0  0  0  0
   11.2023  -17.7284   24.5186 O   0  0  0  0  0  0  0  0  0  0  0  0
  2  1  1  0
  2  3  2  0
  4  2  1  0
  5  4  1  0
  5  6  1  6
  7  5  1  0
  8  7  2  0
  9 10  1  0
 11 13  1  0
 11 10  1  0
 11 12  1  1
 13 14  1  6
 14  7  1  0
 15 25  1  0
 15 13  1  0
 16 15  2  0
 17 18  1  0
 18 19  2  0
 20 18  1  0
 21 20  1  0
 22 21  1  0
 23 22  1  0
 24 23  1  6
 24 25  1  0
 26 28  1  0
 26 24  1  0
 27 26  2  0
M  END
$$$$
