NIR.pdb
     RDKit          3D

 28 27  0  0  1  0  0  0  0  0999 V2000
    6.8979  -16.1170   18.5132 N   0  0  0  0  0  0  0  0  0  0  0  0
    6.7484  -17.0579   19.5595 C   0  0  0  0  0  0  0  0  0  0  0  0
    6.1585  -18.1456   19.3499 O   0  0  0  0  0  0  0  0  0  0  0  0
    7.2809  -16.7799   20.9125 C   0  0  0  0  0  0  0  0  0  0  0  0
    7.7478  -15.3394   21.0063 C   0  0  2  0  0  0  0  0  0  0  0  0
    8.8455  -15.1376   20.0715 N   0  0  0  0  0  0  0  0  0  0  0  0
    8.2511  -15.0166   22.3555 C   0  0  0  0  0  0  0  0  0  0  0  0
    9.4235  -15.2234   22.7078 O   0  0  0  0  0  0  0  0  0  0  0  0
    7.1738  -11.6021   27.4123 C   0  0  0  0  0  0  0  0  0  0  0  0
    7.8732  -12.7694   26.7111 C   0  0  0  0  0  0  0  0  0  0  0  0
    7.2520  -13.0270   25.3629 C   0  0  2  0  0  0  0  0  0  0  0  0
    5.7735  -12.9191   25.5266 C   0  0  0  0  0  0  0  0  0  0  0  0
    7.8409  -14.1604   24.6980 C   0  0  2  0  0  0  0  0  0  0  0  0
    7.3768  -14.4322   23.3447 N   0  0  0  0  0  0  0  0  0  0  0  0
    8.1971  -15.3950   25.4234 C   0  0  0  0  0  0  0  0  0  0  0  0
    7.3728  -16.3306   25.6833 O   0  0  0  0  0  0  0  0  0  0  0  0
   15.0408  -19.7876   23.7340 N   0  0  0  0  0  0  0  0  0  0  0  0
   14.3350  -20.7450   24.4870 C   0  0  0  0  0  0  0  0  0  0  0  0
   14.6383  -21.9952   24.4131 N   0  0  0  0  0  0  0  0  0  0  0  0
   13.2633  -20.3460   25.3521 N   0  0  0  0  0  0  0  0  0  0  0  0
   12.9678  -18.9121   25.3696 C   0  0  0  0  0  0  0  0  0  0  0  0
   11.7545  -18.6407   26.2569 C   0  0  0  0  0  0  0  0  0  0  0  0
   11.1272  -17.3936   25.7465 C   0  0  0  0  0  0  0  0  0  0  0  0
    9.9152  -16.9222   26.5132 C   0  0  2  0  0  0  0  0  0  0  0  0
    9.5046  -15.6631   25.9087 N   0  0  0  0  0  0  0  0  0  0  0  0
   10.1415  -16.7892   27.9532 C   0  0  0  0  0  0  0  0  0  0  0  0
   10.2900  -15.6567   28.4738 O   0  0  0  0  0  0  0  0  0  0  0  0
   10.1911  -17.9134   28.7487 O   0  0  0  0  0  0  0  0  0  0  0  0
  2  1  1  0
  2  3  2  0
  4  2  1  0
  5  4  1  0
  5  6  1  6
  7  5  1  0
  8  7  2  0
  9 10  1  0
 11 13  1  0
 11 10  1  0
 11 12  1  1
 13 14  1  6
 14  7  1  0
 15 25  1  0
 15 13  1  0
 16 15  2  0
 17 18  1  0
 18 19  2  0
 20 18  1  0
 21 20  1  0
 22 21  1  0
 23 22  1  0
 24 23  1  6
 24 25  1  0
 26 28  1  0
 26 24  1  0
 27 26  2  0
M  END
$$$$
