NIR.pdb
     RDKit          3D

 28 27  0  0  1  0  0  0  0  0999 V2000
    6.7500  -13.4232   18.1616 N   0  0  0  0  0  0  0  0  0  0  0  0
    7.3465  -14.6401   18.5683 C   0  0  0  0  0  0  0  0  0  0  0  0
    7.3779  -15.6198   17.7848 O   0  0  0  0  0  0  0  0  0  0  0  0
    7.9412  -14.7809   19.9167 C   0  0  0  0  0  0  0  0  0  0  0  0
    7.5421  -13.6068   20.7908 C   0  0  2  0  0  0  0  0  0  0  0  0
    8.0447  -12.3794   20.1904 N   0  0  0  0  0  0  0  0  0  0  0  0
    8.1269  -13.7098   22.1418 C   0  0  0  0  0  0  0  0  0  0  0  0
    9.3504  -13.7594   22.3476 O   0  0  0  0  0  0  0  0  0  0  0  0
    5.8569  -12.1706   27.3275 C   0  0  0  0  0  0  0  0  0  0  0  0
    6.0866  -13.0743   26.1134 C   0  0  0  0  0  0  0  0  0  0  0  0
    7.5063  -12.9535   25.6237 C   0  0  2  0  0  0  0  0  0  0  0  0
    7.7642  -11.5085   25.3597 C   0  0  0  0  0  0  0  0  0  0  0  0
    7.8315  -13.9537   24.6401 C   0  0  2  0  0  0  0  0  0  0  0  0
    7.2770  -13.7581   23.3078 N   0  0  0  0  0  0  0  0  0  0  0  0
    7.9549  -15.3823   24.9881 C   0  0  0  0  0  0  0  0  0  0  0  0
    7.2961  -16.3126   24.4199 O   0  0  0  0  0  0  0  0  0  0  0  0
   12.9356  -18.1896   20.4584 N   0  0  0  0  0  0  0  0  0  0  0  0
   13.2612  -19.2058   21.3766 C   0  0  0  0  0  0  0  0  0  0  0  0
   14.1192  -20.1180   21.0727 N   0  0  0  0  0  0  0  0  0  0  0  0
   12.6428  -19.2451   22.6698 N   0  0  0  0  0  0  0  0  0  0  0  0
   11.8214  -18.0822   23.0112 C   0  0  0  0  0  0  0  0  0  0  0  0
   11.2791  -18.2260   24.4318 C   0  0  0  0  0  0  0  0  0  0  0  0
   10.4008  -17.0510   24.6708 C   0  0  0  0  0  0  0  0  0  0  0  0
    9.5615  -17.1189   25.9238 C   0  0  2  0  0  0  0  0  0  0  0  0
    8.8266  -15.8644   26.0004 N   0  0  0  0  0  0  0  0  0  0  0  0
   10.3345  -17.3748   27.1400 C   0  0  0  0  0  0  0  0  0  0  0  0
   10.6908  -16.4263   27.8810 O   0  0  0  0  0  0  0  0  0  0  0  0
   10.6752  -18.6662   27.4798 O   0  0  0  0  0  0  0  0  0  0  0  0
  2  1  1  0
  2  3  2  0
  4  2  1  0
  5  4  1  0
  5  6  1  6
  7  5  1  0
  8  7  2  0
  9 10  1  0
 11 13  1  0
 11 10  1  0
 11 12  1  6
 13 14  1  6
 14  7  1  0
 15 25  1  0
 15 13  1  0
 16 15  2  0
 17 18  1  0
 18 19  2  0
 20 18  1  0
 21 20  1  0
 22 21  1  0
 23 22  1  0
 24 23  1  6
 24 25  1  0
 26 28  1  0
 26 24  1  0
 27 26  2  0
M  END
$$$$
