NIR.pdb
     RDKit          3D

 28 27  0  0  1  0  0  0  0  0999 V2000
    7.6355  -21.0014   18.8914 N   0  0  0  0  0  0  0  0  0  0  0  0
    7.3918  -20.3240   17.6733 C   0  0  0  0  0  0  0  0  0  0  0  0
    6.7614  -20.8939   16.7500 O   0  0  0  0  0  0  0  0  0  0  0  0
    7.8722  -18.9392   17.4653 C   0  0  0  0  0  0  0  0  0  0  0  0
    8.7432  -18.5060   18.6295 C   0  0  2  0  0  0  0  0  0  0  0  0
    7.9029  -18.3214   19.8040 N   0  0  0  0  0  0  0  0  0  0  0  0
    9.4138  -17.2196   18.3592 C   0  0  0  0  0  0  0  0  0  0  0  0
   10.0857  -17.0085   17.3366 O   0  0  0  0  0  0  0  0  0  0  0  0
    8.0932  -11.8001   20.3285 C   0  0  0  0  0  0  0  0  0  0  0  0
    8.8903  -13.1050   20.4005 C   0  0  0  0  0  0  0  0  0  0  0  0
    9.0714  -13.6921   19.0248 C   0  0  2  0  0  0  0  0  0  0  0  0
    7.7246  -13.7550   18.3874 C   0  0  0  0  0  0  0  0  0  0  0  0
    9.9400  -14.8406   19.0314 C   0  0  2  0  0  0  0  0  0  0  0  0
    9.3124  -16.1274   19.2978 N   0  0  0  0  0  0  0  0  0  0  0  0
   11.3196  -14.7754   19.5508 C   0  0  0  0  0  0  0  0  0  0  0  0
   11.6337  -14.9946   20.7655 O   0  0  0  0  0  0  0  0  0  0  0  0
   15.8882  -17.4705   24.2336 N   0  0  0  0  0  0  0  0  0  0  0  0
   16.5084  -16.2705   23.8372 C   0  0  0  0  0  0  0  0  0  0  0  0
   17.3058  -15.6466   24.6345 N   0  0  0  0  0  0  0  0  0  0  0  0
   16.2641  -15.7189   22.5363 N   0  0  0  0  0  0  0  0  0  0  0  0
   15.4968  -16.5699   21.6248 C   0  0  0  0  0  0  0  0  0  0  0  0
   15.5278  -15.9841   20.2146 C   0  0  0  0  0  0  0  0  0  0  0  0
   14.1128  -15.7633   19.8167 C   0  0  0  0  0  0  0  0  0  0  0  0
   13.8153  -14.4081   19.2217 C   0  0  2  0  0  0  0  0  0  0  0  0
   12.4421  -14.4574   18.7409 N   0  0  0  0  0  0  0  0  0  0  0  0
   14.7493  -14.0069   18.1686 C   0  0  0  0  0  0  0  0  0  0  0  0
   14.3679  -13.9232   16.9755 O   0  0  0  0  0  0  0  0  0  0  0  0
   16.0587  -13.7159   18.4843 O   0  0  0  0  0  0  0  0  0  0  0  0
  2  1  1  0
  2  3  2  0
  4  2  1  0
  5  4  1  0
  5  6  1  1
  7  5  1  0
  8  7  2  0
  9 10  1  0
 11 13  1  0
 11 10  1  0
 11 12  1  1
 13 14  1  1
 14  7  1  0
 15 25  1  0
 15 13  1  0
 16 15  2  0
 17 18  1  0
 18 19  2  0
 20 18  1  0
 21 20  1  0
 22 21  1  0
 23 22  1  0
 24 23  1  6
 24 25  1  0
 26 28  1  0
 26 24  1  0
 27 26  2  0
M  END
$$$$
