NIR.pdb
     RDKit          3D

 28 27  0  0  1  0  0  0  0  0999 V2000
    7.6808  -18.0291   18.4507 N   0  0  0  0  0  0  0  0  0  0  0  0
    6.9891  -17.2498   19.4080 C   0  0  0  0  0  0  0  0  0  0  0  0
    5.8260  -16.8436   19.1689 O   0  0  0  0  0  0  0  0  0  0  0  0
    7.6191  -16.9005   20.7013 C   0  0  0  0  0  0  0  0  0  0  0  0
    7.6873  -15.3933   20.8611 C   0  0  2  0  0  0  0  0  0  0  0  0
    8.5554  -14.8482   19.8273 N   0  0  0  0  0  0  0  0  0  0  0  0
    8.2589  -15.0092   22.1662 C   0  0  0  0  0  0  0  0  0  0  0  0
    9.4730  -15.0731   22.4184 O   0  0  0  0  0  0  0  0  0  0  0  0
    7.5153  -11.4406   27.1031 C   0  0  0  0  0  0  0  0  0  0  0  0
    8.1287  -12.6833   26.4528 C   0  0  0  0  0  0  0  0  0  0  0  0
    7.3981  -13.0321   25.1822 C   0  0  2  0  0  0  0  0  0  0  0  0
    5.9376  -12.9311   25.4671 C   0  0  0  0  0  0  0  0  0  0  0  0
    7.9465  -14.1983   24.5397 C   0  0  2  0  0  0  0  0  0  0  0  0
    7.4065  -14.5314   23.2289 N   0  0  0  0  0  0  0  0  0  0  0  0
    8.3406  -15.3989   25.3015 C   0  0  0  0  0  0  0  0  0  0  0  0
    7.5295  -16.3149   25.6558 O   0  0  0  0  0  0  0  0  0  0  0  0
   14.3416  -20.3000   23.6540 N   0  0  0  0  0  0  0  0  0  0  0  0
   13.7795  -21.1704   24.6069 C   0  0  0  0  0  0  0  0  0  0  0  0
   14.1725  -22.3946   24.6935 N   0  0  0  0  0  0  0  0  0  0  0  0
   12.7571  -20.7102   25.5009 N   0  0  0  0  0  0  0  0  0  0  0  0
   12.0246  -19.5209   25.0619 C   0  0  0  0  0  0  0  0  0  0  0  0
   12.1936  -18.3981   26.0835 C   0  0  0  0  0  0  0  0  0  0  0  0
   11.4482  -17.2269   25.5527 C   0  0  0  0  0  0  0  0  0  0  0  0
   10.1419  -16.9264   26.2472 C   0  0  2  0  0  0  0  0  0  0  0  0
    9.6739  -15.6527   25.7197 N   0  0  0  0  0  0  0  0  0  0  0  0
   10.2387  -16.9109   27.7076 C   0  0  0  0  0  0  0  0  0  0  0  0
   10.3499  -15.8254   28.3282 O   0  0  0  0  0  0  0  0  0  0  0  0
   10.2064  -18.0949   28.4119 O   0  0  0  0  0  0  0  0  0  0  0  0
  2  1  1  0
  2  3  2  0
  4  2  1  0
  5  4  1  0
  5  6  1  6
  7  5  1  0
  8  7  2  0
  9 10  1  0
 11 13  1  0
 11 10  1  0
 11 12  1  1
 13 14  1  6
 14  7  1  0
 15 25  1  0
 15 13  1  0
 16 15  2  0
 17 18  1  0
 18 19  2  0
 20 18  1  0
 21 20  1  0
 22 21  1  0
 23 22  1  0
 24 23  1  6
 24 25  1  0
 26 28  1  0
 26 24  1  0
 27 26  2  0
M  END
$$$$
