NIR.pdb
     RDKit          3D

 28 27  0  0  1  0  0  0  0  0999 V2000
   10.1958  -21.6014   17.3412 N   0  0  0  0  0  0  0  0  0  0  0  0
    9.5383  -20.3506   17.2670 C   0  0  0  0  0  0  0  0  0  0  0  0
    8.8775  -20.0453   16.2448 O   0  0  0  0  0  0  0  0  0  0  0  0
    9.6163  -19.3842   18.3857 C   0  0  0  0  0  0  0  0  0  0  0  0
    9.5537  -17.9637   17.8567 C   0  0  2  0  0  0  0  0  0  0  0  0
   10.6441  -17.7633   16.9131 N   0  0  0  0  0  0  0  0  0  0  0  0
    9.7165  -16.9721   18.9374 C   0  0  0  0  0  0  0  0  0  0  0  0
   10.8258  -16.5945   19.3479 O   0  0  0  0  0  0  0  0  0  0  0  0
    6.7963  -12.4382   19.6864 C   0  0  0  0  0  0  0  0  0  0  0  0
    7.8993  -13.4991   19.6485 C   0  0  0  0  0  0  0  0  0  0  0  0
    7.7929  -14.4171   20.8384 C   0  0  2  0  0  0  0  0  0  0  0  0
    7.7529  -13.5605   22.0586 C   0  0  0  0  0  0  0  0  0  0  0  0
    8.6978  -15.5337   20.7490 C   0  0  2  0  0  0  0  0  0  0  0  0
    8.5619  -16.3869   19.5767 N   0  0  0  0  0  0  0  0  0  0  0  0
    9.1286  -16.2891   21.9410 C   0  0  0  0  0  0  0  0  0  0  0  0
    8.4401  -17.2119   22.4858 O   0  0  0  0  0  0  0  0  0  0  0  0
   16.5871  -14.8435   21.9077 N   0  0  0  0  0  0  0  0  0  0  0  0
   16.0849  -16.1493   21.7511 C   0  0  0  0  0  0  0  0  0  0  0  0
   15.9942  -16.6843   20.5823 N   0  0  0  0  0  0  0  0  0  0  0  0
   15.6641  -16.9100   22.8915 N   0  0  0  0  0  0  0  0  0  0  0  0
   14.5764  -16.3215   23.6752 C   0  0  0  0  0  0  0  0  0  0  0  0
   13.2498  -16.9803   23.3027 C   0  0  0  0  0  0  0  0  0  0  0  0
   12.1981  -16.2942   24.0980 C   0  0  0  0  0  0  0  0  0  0  0  0
   10.7841  -16.7430   23.8186 C   0  0  2  0  0  0  0  0  0  0  0  0
   10.3628  -16.0585   22.6047 N   0  0  0  0  0  0  0  0  0  0  0  0
    9.8590  -16.5076   24.9282 C   0  0  0  0  0  0  0  0  0  0  0  0
    9.5781  -17.4304   25.7315 O   0  0  0  0  0  0  0  0  0  0  0  0
    9.2902  -15.2638   25.0978 O   0  0  0  0  0  0  0  0  0  0  0  0
  2  1  1  0
  2  3  2  0
  4  2  1  0
  5  4  1  0
  5  6  1  6
  7  5  1  0
  8  7  2  0
  9 10  1  0
 11 13  1  0
 11 10  1  0
 11 12  1  1
 13 14  1  6
 14  7  1  0
 15 25  1  0
 15 13  1  0
 16 15  2  0
 17 18  1  0
 18 19  2  0
 20 18  1  0
 21 20  1  0
 22 21  1  0
 23 22  1  0
 24 23  1  1
 24 25  1  0
 26 28  1  0
 26 24  1  0
 27 26  2  0
M  END
$$$$
