NIR.pdb
     RDKit          3D

 28 27  0  0  1  0  0  0  0  0999 V2000
    6.9664  -12.5857   18.5178 N   0  0  0  0  0  0  0  0  0  0  0  0
    7.7756  -13.5435   19.1735 C   0  0  0  0  0  0  0  0  0  0  0  0
    8.1852  -14.5542   18.5526 O   0  0  0  0  0  0  0  0  0  0  0  0
    8.1525  -13.3736   20.5950 C   0  0  0  0  0  0  0  0  0  0  0  0
    7.8692  -14.6477   21.3684 C   0  0  2  0  0  0  0  0  0  0  0  0
    6.4282  -14.8373   21.4534 N   0  0  0  0  0  0  0  0  0  0  0  0
    8.3876  -14.5743   22.7481 C   0  0  0  0  0  0  0  0  0  0  0  0
    9.5969  -14.4774   23.0123 O   0  0  0  0  0  0  0  0  0  0  0  0
    6.6827  -11.2458   26.2026 C   0  0  0  0  0  0  0  0  0  0  0  0
    7.5048  -12.2557   25.3978 C   0  0  0  0  0  0  0  0  0  0  0  0
    7.5584  -13.5826   26.1094 C   0  0  2  0  0  0  0  0  0  0  0  0
    8.2226  -13.3550   27.4252 C   0  0  0  0  0  0  0  0  0  0  0  0
    7.9839  -14.6505   25.2420 C   0  0  2  0  0  0  0  0  0  0  0  0
    7.4852  -14.6134   23.8743 N   0  0  0  0  0  0  0  0  0  0  0  0
    8.1664  -16.0305   25.7314 C   0  0  0  0  0  0  0  0  0  0  0  0
    7.2072  -16.8349   25.9661 O   0  0  0  0  0  0  0  0  0  0  0  0
   12.0315  -19.8144   20.8329 N   0  0  0  0  0  0  0  0  0  0  0  0
   12.6333  -18.8908   21.7083 C   0  0  0  0  0  0  0  0  0  0  0  0
   13.6790  -18.2285   21.3499 N   0  0  0  0  0  0  0  0  0  0  0  0
   12.0928  -18.6691   23.0179 N   0  0  0  0  0  0  0  0  0  0  0  0
   10.9822  -19.5442   23.3980 C   0  0  0  0  0  0  0  0  0  0  0  0
    9.9597  -18.7619   24.2196 C   0  0  0  0  0  0  0  0  0  0  0  0
   10.4889  -18.7007   25.6072 C   0  0  0  0  0  0  0  0  0  0  0  0
    9.6462  -17.9162   26.5836 C   0  0  2  0  0  0  0  0  0  0  0  0
    9.4401  -16.6018   25.9926 N   0  0  0  0  0  0  0  0  0  0  0  0
   10.2242  -17.8278   27.9255 C   0  0  0  0  0  0  0  0  0  0  0  0
   10.7011  -16.7450   28.3447 O   0  0  0  0  0  0  0  0  0  0  0  0
   10.2461  -18.9393   28.7398 O   0  0  0  0  0  0  0  0  0  0  0  0
  2  1  1  0
  2  3  2  0
  4  2  1  0
  5  4  1  0
  5  6  1  1
  7  5  1  0
  8  7  2  0
  9 10  1  0
 11 13  1  0
 11 10  1  0
 11 12  1  1
 13 14  1  6
 14  7  1  0
 15 25  1  0
 15 13  1  0
 16 15  2  0
 17 18  1  0
 18 19  2  0
 20 18  1  0
 21 20  1  0
 22 21  1  0
 23 22  1  0
 24 23  1  6
 24 25  1  0
 26 28  1  0
 26 24  1  0
 27 26  2  0
M  END
$$$$
