NIR.pdb
     RDKit          3D

 28 27  0  0  1  0  0  0  0  0999 V2000
   10.9120  -17.4241   13.6057 N   0  0  0  0  0  0  0  0  0  0  0  0
   10.8433  -16.0117   13.6587 C   0  0  0  0  0  0  0  0  0  0  0  0
   11.0840  -15.3298   12.6331 O   0  0  0  0  0  0  0  0  0  0  0  0
   10.4888  -15.3154   14.9161 C   0  0  0  0  0  0  0  0  0  0  0  0
   10.3490  -16.3159   16.0480 C   0  0  2  0  0  0  0  0  0  0  0  0
    9.0780  -17.0120   15.9079 N   0  0  0  0  0  0  0  0  0  0  0  0
   10.3461  -15.6512   17.3655 C   0  0  0  0  0  0  0  0  0  0  0  0
   11.3352  -15.0595   17.8271 O   0  0  0  0  0  0  0  0  0  0  0  0
    6.4063  -12.5206   19.1611 C   0  0  0  0  0  0  0  0  0  0  0  0
    7.7815  -13.1506   18.9259 C   0  0  0  0  0  0  0  0  0  0  0  0
    8.0126  -14.2914   19.8825 C   0  0  2  0  0  0  0  0  0  0  0  0
    7.8531  -13.7525   21.2639 C   0  0  0  0  0  0  0  0  0  0  0  0
    9.1639  -15.0789   19.5250 C   0  0  2  0  0  0  0  0  0  0  0  0
    9.1618  -15.6632   18.1911 N   0  0  0  0  0  0  0  0  0  0  0  0
    9.8642  -15.9308   20.5053 C   0  0  0  0  0  0  0  0  0  0  0  0
    9.5121  -17.1203   20.7943 O   0  0  0  0  0  0  0  0  0  0  0  0
   14.6485  -14.0536   18.9294 N   0  0  0  0  0  0  0  0  0  0  0  0
   15.5912  -15.0715   18.6908 C   0  0  0  0  0  0  0  0  0  0  0  0
   16.1478  -15.1960   17.5352 N   0  0  0  0  0  0  0  0  0  0  0  0
   15.9505  -15.9906   19.7312 N   0  0  0  0  0  0  0  0  0  0  0  0
   15.2524  -15.8053   21.0047 C   0  0  0  0  0  0  0  0  0  0  0  0
   13.7830  -16.1943   20.8551 C   0  0  0  0  0  0  0  0  0  0  0  0
   13.1442  -15.9518   22.1750 C   0  0  0  0  0  0  0  0  0  0  0  0
   11.6764  -16.2964   22.2530 C   0  0  2  0  0  0  0  0  0  0  0  0
   11.0085  -15.5042   21.2304 N   0  0  0  0  0  0  0  0  0  0  0  0
   11.0895  -16.0865   23.5773 C   0  0  0  0  0  0  0  0  0  0  0  0
   10.3497  -15.0966   23.7978 O   0  0  0  0  0  0  0  0  0  0  0  0
   11.3467  -16.9809   24.5936 O   0  0  0  0  0  0  0  0  0  0  0  0
  2  1  1  0
  2  3  2  0
  4  2  1  0
  5  4  1  0
  5  6  1  6
  7  5  1  0
  8  7  2  0
  9 10  1  0
 11 13  1  0
 11 10  1  0
 11 12  1  1
 13 14  1  6
 14  7  1  0
 15 25  1  0
 15 13  1  0
 16 15  2  0
 17 18  1  0
 18 19  2  0
 20 18  1  0
 21 20  1  0
 22 21  1  0
 23 22  1  0
 24 23  1  1
 24 25  1  0
 26 28  1  0
 26 24  1  0
 27 26  2  0
M  END
$$$$
