TFQ.pdb
     RDKit          3D

 28 28  0  0  1  0  0  0  0  0999 V2000
   24.5573  -10.9232  -21.1144 C   0  0  0  0  0  0  0  0  0  0  0  0
   23.6304  -10.3802  -20.0535 C   0  0  1  0  0  0  0  0  0  0  0  0
   22.2990  -10.5365  -20.4265 O   0  0  0  0  0  0  0  0  0  0  0  0
   23.9242  -11.0904  -18.7462 C   0  0  2  0  0  0  0  0  0  0  0  0
   23.6270  -12.4909  -18.9584 N   0  0  0  0  0  0  0  0  0  0  0  0
   23.0292  -10.5889  -17.6813 C   0  0  0  0  0  0  0  0  0  0  0  0
   22.0345  -11.2732  -17.3496 O   0  0  0  0  0  0  0  0  0  0  0  0
   23.2287   -9.3638  -17.0016 N   0  0  0  0  0  0  0  0  0  0  0  0
   22.3244   -8.8116  -16.0191 C   0  0  1  0  0  0  0  0  0  0  0  0
   23.1379   -8.2928  -14.8605 C   0  0  0  0  0  0  0  0  0  0  0  0
   23.6542   -6.9383  -15.0582 C   0  0  0  0  0  0  0  0  0  0  0  0
   24.7781   -6.7034  -15.8117 C   0  0  0  0  0  0  0  0  0  0  0  0
   25.2797   -5.4202  -16.0078 C   0  0  0  0  0  0  0  0  0  0  0  0
   24.6496   -4.3377  -15.4408 C   0  0  0  0  0  0  0  0  0  0  0  0
   23.5238   -4.5594  -14.6843 C   0  0  0  0  0  0  0  0  0  0  0  0
   23.0405   -5.8397  -14.5006 C   0  0  0  0  0  0  0  0  0  0  0  0
   21.4301   -7.7836  -16.5950 C   0  0  0  0  0  0  0  0  0  0  0  0
   21.8914   -7.0314  -17.4825 O   0  0  0  0  0  0  0  0  0  0  0  0
   15.3023   -8.1922  -16.0050 N   0  0  0  0  0  0  0  0  0  0  0  0
   15.5480   -6.8346  -15.7124 C   0  0  0  0  0  0  0  0  0  0  0  0
   14.6719   -6.1776  -15.0909 O   0  0  0  0  0  0  0  0  0  0  0  0
   16.7927   -6.1891  -16.1097 C   0  0  0  0  0  0  0  0  0  0  0  0
   17.8024   -7.0407  -16.7979 C   0  0  0  0  0  0  0  0  0  0  0  0
   19.2087   -6.5855  -16.8246 C   0  0  2  0  0  0  0  0  0  0  0  0
   20.0850   -7.6027  -16.2004 N   0  0  0  0  0  0  0  0  0  0  0  0
   19.5637   -5.2835  -16.2955 C   0  0  0  0  0  0  0  0  0  0  0  0
   19.6592   -5.0549  -15.0339 O   0  0  0  0  0  0  0  0  0  0  0  0
   19.8419   -4.1654  -17.0833 O   0  0  0  0  0  0  0  0  0  0  0  0
  2  1  1  6
  2  3  1  0
  4  2  1  0
  4  5  1  6
  6  7  2  0
  6  4  1  0
  8  6  1  0
  9  8  1  0
  9 10  1  1
 10 11  1  0
 11 16  2  0
 11 12  1  0
 12 13  2  0
 13 14  1  0
 15 14  2  0
 16 15  1  0
 17 18  2  0
 17  9  1  0
 20 19  1  0
 21 20  2  0
 22 20  1  0
 24 23  1  1
 23 22  1  0
 24 25  1  0
 25 17  1  0
 26 24  1  0
 27 26  2  0
 28 26  1  0
M  END
$$$$
