TFQ.pdb
     RDKit          3D

 28 28  0  0  1  0  0  0  0  0999 V2000
   27.3900  -18.5580  -13.3012 C   0  0  0  0  0  0  0  0  0  0  0  0
   27.4807  -19.8379  -14.0970 C   0  0  1  0  0  0  0  0  0  0  0  0
   27.8407  -19.5807  -15.4163 O   0  0  0  0  0  0  0  0  0  0  0  0
   28.4803  -20.7567  -13.4214 C   0  0  2  0  0  0  0  0  0  0  0  0
   28.5117  -21.9783  -14.1970 N   0  0  0  0  0  0  0  0  0  0  0  0
   28.0219  -21.0928  -12.0564 C   0  0  0  0  0  0  0  0  0  0  0  0
   27.1120  -21.9407  -11.9112 O   0  0  0  0  0  0  0  0  0  0  0  0
   28.5551  -20.5074  -10.8836 N   0  0  0  0  0  0  0  0  0  0  0  0
   28.0456  -20.7277   -9.5495 C   0  0  1  0  0  0  0  0  0  0  0  0
   29.0108  -20.1194   -8.5638 C   0  0  0  0  0  0  0  0  0  0  0  0
   28.5346  -20.1362   -7.1806 C   0  0  0  0  0  0  0  0  0  0  0  0
   27.7006  -19.1574   -6.6985 C   0  0  0  0  0  0  0  0  0  0  0  0
   27.2403  -19.1615   -5.3852 C   0  0  0  0  0  0  0  0  0  0  0  0
   27.6172  -20.1646   -4.5239 C   0  0  0  0  0  0  0  0  0  0  0  0
   28.4517  -21.1503   -4.9940 C   0  0  0  0  0  0  0  0  0  0  0  0
   28.8984  -21.1299   -6.3003 C   0  0  0  0  0  0  0  0  0  0  0  0
   26.6657  -20.2206   -9.3852 C   0  0  0  0  0  0  0  0  0  0  0  0
   26.4182  -19.0529   -9.7611 O   0  0  0  0  0  0  0  0  0  0  0  0
   24.0500  -20.9286  -13.1677 N   0  0  0  0  0  0  0  0  0  0  0  0
   23.0897  -20.0904  -12.5640 C   0  0  0  0  0  0  0  0  0  0  0  0
   22.4183  -19.3117  -13.2907 O   0  0  0  0  0  0  0  0  0  0  0  0
   22.8610  -20.1173  -11.1249 C   0  0  0  0  0  0  0  0  0  0  0  0
   23.7054  -21.0492  -10.3268 C   0  0  0  0  0  0  0  0  0  0  0  0
   24.1898  -20.6039   -9.0030 C   0  0  2  0  0  0  0  0  0  0  0  0
   25.6113  -20.9795   -8.8282 N   0  0  0  0  0  0  0  0  0  0  0  0
   23.4655  -20.9679   -7.8013 C   0  0  0  0  0  0  0  0  0  0  0  0
   23.9794  -21.7082   -6.8844 O   0  0  0  0  0  0  0  0  0  0  0  0
   22.1634  -20.5551   -7.5144 O   0  0  0  0  0  0  0  0  0  0  0  0
  2  1  1  1
  2  3  1  0
  4  2  1  0
  4  5  1  6
  6  7  2  0
  6  4  1  0
  8  6  1  0
  9  8  1  0
  9 10  1  1
 10 11  1  0
 11 16  2  0
 11 12  1  0
 12 13  2  0
 13 14  1  0
 15 14  2  0
 16 15  1  0
 17 18  2  0
 17  9  1  0
 20 19  1  0
 21 20  2  0
 22 20  1  0
 24 23  1  6
 23 22  1  0
 24 25  1  0
 25 17  1  0
 26 24  1  0
 27 26  2  0
 28 26  1  0
M  END
$$$$
