TFQ.pdb
     RDKit          3D

 28 28  0  0  1  0  0  0  0  0999 V2000
   20.2814  -11.9264  -21.6141 C   0  0  0  0  0  0  0  0  0  0  0  0
   20.0392  -11.2470  -20.2878 C   0  0  1  0  0  0  0  0  0  0  0  0
   18.6962  -11.3151  -19.9301 O   0  0  0  0  0  0  0  0  0  0  0  0
   20.9224  -11.9002  -19.2423 C   0  0  2  0  0  0  0  0  0  0  0  0
   20.4544  -13.2618  -19.0952 N   0  0  0  0  0  0  0  0  0  0  0  0
   20.7613  -11.2176  -17.9405 C   0  0  0  0  0  0  0  0  0  0  0  0
   20.0111  -11.7250  -17.0758 O   0  0  0  0  0  0  0  0  0  0  0  0
   21.4120  -10.0070  -17.6038 N   0  0  0  0  0  0  0  0  0  0  0  0
   21.1630   -9.2462  -16.4009 C   0  0  1  0  0  0  0  0  0  0  0  0
   22.4819   -8.9904  -15.7167 C   0  0  0  0  0  0  0  0  0  0  0  0
   22.3703   -8.1989  -14.4913 C   0  0  0  0  0  0  0  0  0  0  0  0
   22.1073   -8.7890  -13.2794 C   0  0  0  0  0  0  0  0  0  0  0  0
   21.9986   -8.0480  -12.1064 C   0  0  0  0  0  0  0  0  0  0  0  0
   22.1551   -6.6824  -12.1345 C   0  0  0  0  0  0  0  0  0  0  0  0
   22.4186   -6.0797  -13.3413 C   0  0  0  0  0  0  0  0  0  0  0  0
   22.5230   -6.8310  -14.4950 C   0  0  0  0  0  0  0  0  0  0  0  0
   20.4081   -8.0027  -16.6697 C   0  0  0  0  0  0  0  0  0  0  0  0
   20.8051   -7.2610  -17.5962 O   0  0  0  0  0  0  0  0  0  0  0  0
   14.5649   -7.9416  -15.7083 N   0  0  0  0  0  0  0  0  0  0  0  0
   15.2796   -8.3246  -16.8623 C   0  0  0  0  0  0  0  0  0  0  0  0
   14.8053   -9.2278  -17.6004 O   0  0  0  0  0  0  0  0  0  0  0  0
   16.5445   -7.6913  -17.2128 C   0  0  0  0  0  0  0  0  0  0  0  0
   17.0592   -6.6533  -16.2769 C   0  0  0  0  0  0  0  0  0  0  0  0
   18.5106   -6.3725  -16.2640 C   0  0  2  0  0  0  0  0  0  0  0  0
   19.2647   -7.6049  -15.9403 N   0  0  0  0  0  0  0  0  0  0  0  0
   19.0360   -5.2860  -15.4610 C   0  0  0  0  0  0  0  0  0  0  0  0
   18.6785   -4.0637  -15.6370 O   0  0  0  0  0  0  0  0  0  0  0  0
   19.9602   -5.4493  -14.4280 O   0  0  0  0  0  0  0  0  0  0  0  0
  2  1  1  6
  2  3  1  0
  4  2  1  0
  4  5  1  1
  6  7  2  0
  6  4  1  0
  8  6  1  0
  9  8  1  0
  9 10  1  6
 10 11  1  0
 11 16  2  0
 11 12  1  0
 12 13  2  0
 13 14  1  0
 15 14  2  0
 16 15  1  0
 17 18  2  0
 17  9  1  0
 20 19  1  0
 21 20  2  0
 22 20  1  0
 24 23  1  1
 23 22  1  0
 24 25  1  0
 25 17  1  0
 26 24  1  0
 27 26  2  0
 28 26  1  0
M  END
$$$$
