TFQ.pdb
     RDKit          3D

 28 28  0  0  1  0  0  0  0  0999 V2000
   26.0046  -19.0187  -15.0791 C   0  0  0  0  0  0  0  0  0  0  0  0
   26.9220  -20.1890  -15.3407 C   0  0  1  0  0  0  0  0  0  0  0  0
   27.8428  -19.8877  -16.3394 O   0  0  0  0  0  0  0  0  0  0  0  0
   27.6156  -20.5581  -14.0436 C   0  0  2  0  0  0  0  0  0  0  0  0
   28.5004  -21.6629  -14.3456 N   0  0  0  0  0  0  0  0  0  0  0  0
   26.6244  -21.0238  -13.0501 C   0  0  0  0  0  0  0  0  0  0  0  0
   26.2464  -22.2172  -13.0805 O   0  0  0  0  0  0  0  0  0  0  0  0
   26.0662  -20.1927  -12.0501 N   0  0  0  0  0  0  0  0  0  0  0  0
   25.1506  -20.6398  -11.0256 C   0  0  1  0  0  0  0  0  0  0  0  0
   25.2885  -19.7290   -9.8320 C   0  0  0  0  0  0  0  0  0  0  0  0
   26.4647  -20.0066   -9.0074 C   0  0  0  0  0  0  0  0  0  0  0  0
   26.7427  -19.2663   -7.8846 C   0  0  0  0  0  0  0  0  0  0  0  0
   27.8578  -19.5199   -7.0915 C   0  0  0  0  0  0  0  0  0  0  0  0
   28.7230  -20.5365   -7.4201 C   0  0  0  0  0  0  0  0  0  0  0  0
   28.4560  -21.2849   -8.5416 C   0  0  0  0  0  0  0  0  0  0  0  0
   27.3447  -21.0189   -9.3166 C   0  0  0  0  0  0  0  0  0  0  0  0
   23.7585  -20.7299  -11.5178 C   0  0  0  0  0  0  0  0  0  0  0  0
   23.4175  -19.9819  -12.4614 O   0  0  0  0  0  0  0  0  0  0  0  0
   19.2098  -24.9317   -9.6868 N   0  0  0  0  0  0  0  0  0  0  0  0
   18.5103  -24.0022  -10.4844 C   0  0  0  0  0  0  0  0  0  0  0  0
   17.2709  -24.1516  -10.6482 O   0  0  0  0  0  0  0  0  0  0  0  0
   19.1944  -22.8779  -11.1104 C   0  0  0  0  0  0  0  0  0  0  0  0
   20.6232  -22.6711  -10.7441 C   0  0  0  0  0  0  0  0  0  0  0  0
   21.3841  -21.6125  -11.4412 C   0  0  2  0  0  0  0  0  0  0  0  0
   22.7921  -21.6121  -10.9834 N   0  0  0  0  0  0  0  0  0  0  0  0
   20.8990  -20.2465  -11.4425 C   0  0  0  0  0  0  0  0  0  0  0  0
   21.1034  -19.4417  -10.4609 O   0  0  0  0  0  0  0  0  0  0  0  0
   20.1808  -19.6697  -12.4910 O   0  0  0  0  0  0  0  0  0  0  0  0
  2  1  1  1
  2  3  1  0
  4  2  1  0
  4  5  1  6
  6  7  2  0
  6  4  1  0
  8  6  1  0
  9  8  1  0
  9 10  1  1
 10 11  1  0
 11 16  2  0
 11 12  1  0
 12 13  2  0
 13 14  1  0
 15 14  2  0
 16 15  1  0
 17 18  2  0
 17  9  1  0
 20 19  1  0
 21 20  2  0
 22 20  1  0
 24 23  1  1
 23 22  1  0
 24 25  1  0
 25 17  1  0
 26 24  1  0
 27 26  2  0
 28 26  1  0
M  END
$$$$
