TFQ.pdb
     RDKit          3D

 28 28  0  0  1  0  0  0  0  0999 V2000
   25.9358  -19.3973  -17.9782 C   0  0  0  0  0  0  0  0  0  0  0  0
   26.7310  -20.5658  -18.5090 C   0  0  1  0  0  0  0  0  0  0  0  0
   27.2792  -20.2722  -19.7537 O   0  0  0  0  0  0  0  0  0  0  0  0
   27.8080  -20.9149  -17.5001 C   0  0  2  0  0  0  0  0  0  0  0  0
   28.4708  -22.1029  -17.9944 N   0  0  0  0  0  0  0  0  0  0  0  0
   27.1964  -21.2419  -16.1941 C   0  0  0  0  0  0  0  0  0  0  0  0
   26.5268  -22.2940  -16.0818 O   0  0  0  0  0  0  0  0  0  0  0  0
   27.3218  -20.4277  -15.0436 N   0  0  0  0  0  0  0  0  0  0  0  0
   26.6927  -20.6990  -13.7714 C   0  0  1  0  0  0  0  0  0  0  0  0
   27.5036  -20.0356  -12.6872 C   0  0  0  0  0  0  0  0  0  0  0  0
   26.9328  -20.1798  -11.3478 C   0  0  0  0  0  0  0  0  0  0  0  0
   27.1905  -21.2855  -10.5750 C   0  0  0  0  0  0  0  0  0  0  0  0
   26.6541  -21.4351   -9.2996 C   0  0  0  0  0  0  0  0  0  0  0  0
   25.8385  -20.4610   -8.7742 C   0  0  0  0  0  0  0  0  0  0  0  0
   25.5728  -19.3495   -9.5376 C   0  0  0  0  0  0  0  0  0  0  0  0
   26.1139  -19.2181  -10.8010 C   0  0  0  0  0  0  0  0  0  0  0  0
   25.2705  -20.2926  -13.7509 C   0  0  0  0  0  0  0  0  0  0  0  0
   24.9867  -19.1232  -14.0945 O   0  0  0  0  0  0  0  0  0  0  0  0
   20.9921  -22.1220  -16.9677 N   0  0  0  0  0  0  0  0  0  0  0  0
   21.3487  -20.7613  -16.8650 C   0  0  0  0  0  0  0  0  0  0  0  0
   21.2200  -20.0203  -17.8748 O   0  0  0  0  0  0  0  0  0  0  0  0
   21.8533  -20.2045  -15.6163 C   0  0  0  0  0  0  0  0  0  0  0  0
   22.0663  -21.1579  -14.4920 C   0  0  0  0  0  0  0  0  0  0  0  0
   22.8082  -20.6904  -13.3018 C   0  0  2  0  0  0  0  0  0  0  0  0
   24.2144  -21.1494  -13.3656 N   0  0  0  0  0  0  0  0  0  0  0  0
   22.2959  -20.9569  -11.9722 C   0  0  0  0  0  0  0  0  0  0  0  0
   21.1414  -20.5462  -11.5834 O   0  0  0  0  0  0  0  0  0  0  0  0
   22.9840  -21.6795  -10.9963 O   0  0  0  0  0  0  0  0  0  0  0  0
  2  1  1  1
  2  3  1  0
  4  2  1  0
  4  5  1  6
  6  7  2  0
  6  4  1  0
  8  6  1  0
  9  8  1  0
  9 10  1  1
 10 11  1  0
 11 16  2  0
 11 12  1  0
 12 13  2  0
 13 14  1  0
 15 14  2  0
 16 15  1  0
 17 18  2  0
 17  9  1  0
 20 19  1  0
 21 20  2  0
 22 20  1  0
 24 23  1  6
 23 22  1  0
 24 25  1  0
 25 17  1  0
 26 24  1  0
 27 26  2  0
 28 26  1  0
M  END
$$$$
