TFQ.pdb
     RDKit          3D

 28 28  0  0  1  0  0  0  0  0999 V2000
   18.4452  -25.3252  -16.9650 C   0  0  0  0  0  0  0  0  0  0  0  0
   19.8816  -25.3333  -17.4301 C   0  0  1  0  0  0  0  0  0  0  0  0
   19.9660  -25.6420  -18.7842 O   0  0  0  0  0  0  0  0  0  0  0  0
   20.4927  -23.9773  -17.1341 C   0  0  2  0  0  0  0  0  0  0  0  0
   21.8735  -24.0415  -17.5630 N   0  0  0  0  0  0  0  0  0  0  0  0
   20.4772  -23.7181  -15.6784 C   0  0  0  0  0  0  0  0  0  0  0  0
   21.3299  -24.2768  -14.9514 O   0  0  0  0  0  0  0  0  0  0  0  0
   19.5441  -22.8642  -15.0438 N   0  0  0  0  0  0  0  0  0  0  0  0
   19.5617  -22.5259  -13.6391 C   0  0  1  0  0  0  0  0  0  0  0  0
   19.5948  -21.0241  -13.5105 C   0  0  0  0  0  0  0  0  0  0  0  0
   20.8582  -20.4206  -13.9350 C   0  0  0  0  0  0  0  0  0  0  0  0
   20.9889  -19.8235  -15.1648 C   0  0  0  0  0  0  0  0  0  0  0  0
   22.1846  -19.2458  -15.5808 C   0  0  0  0  0  0  0  0  0  0  0  0
   23.2833  -19.2598  -14.7545 C   0  0  0  0  0  0  0  0  0  0  0  0
   23.1655  -19.8543  -13.5210 C   0  0  0  0  0  0  0  0  0  0  0  0
   21.9711  -20.4226  -13.1250 C   0  0  0  0  0  0  0  0  0  0  0  0
   18.4355  -23.1379  -12.9005 C   0  0  0  0  0  0  0  0  0  0  0  0
   17.2763  -22.9522  -13.3339 O   0  0  0  0  0  0  0  0  0  0  0  0
   18.7713  -27.7822   -8.4798 N   0  0  0  0  0  0  0  0  0  0  0  0
   19.6250  -27.3243   -9.5049 C   0  0  0  0  0  0  0  0  0  0  0  0
   20.7431  -27.8819   -9.6605 O   0  0  0  0  0  0  0  0  0  0  0  0
   19.2323  -26.2292  -10.3826 C   0  0  0  0  0  0  0  0  0  0  0  0
   17.9126  -25.5926  -10.1149 C   0  0  0  0  0  0  0  0  0  0  0  0
   17.4434  -24.5302  -11.0297 C   0  0  2  0  0  0  0  0  0  0  0  0
   18.5940  -23.9202  -11.7340 N   0  0  0  0  0  0  0  0  0  0  0  0
   16.5888  -23.4683  -10.5364 C   0  0  0  0  0  0  0  0  0  0  0  0
   17.0176  -22.2715  -10.3448 O   0  0  0  0  0  0  0  0  0  0  0  0
   15.2362  -23.6273  -10.2314 O   0  0  0  0  0  0  0  0  0  0  0  0
  2  1  1  6
  2  3  1  0
  4  2  1  0
  4  5  1  1
  6  7  2  0
  6  4  1  0
  8  6  1  0
  9  8  1  0
  9 10  1  6
 10 11  1  0
 11 16  2  0
 11 12  1  0
 12 13  2  0
 13 14  1  0
 15 14  2  0
 16 15  1  0
 17 18  2  0
 17  9  1  0
 20 19  1  0
 21 20  2  0
 22 20  1  0
 24 23  1  1
 23 22  1  0
 24 25  1  0
 25 17  1  0
 26 24  1  0
 27 26  2  0
 28 26  1  0
M  END
$$$$
