TFQ.pdb
     RDKit          3D

 28 28  0  0  1  0  0  0  0  0999 V2000
   24.2575  -21.8587   -8.5479 C   0  0  0  0  0  0  0  0  0  0  0  0
   24.3725  -20.9569   -9.7533 C   0  0  1  0  0  0  0  0  0  0  0  0
   23.4180  -19.9452   -9.7125 O   0  0  0  0  0  0  0  0  0  0  0  0
   25.7776  -20.3883   -9.7987 C   0  0  2  0  0  0  0  0  0  0  0  0
   25.9340  -19.5724   -8.6135 N   0  0  0  0  0  0  0  0  0  0  0  0
   25.9356  -19.5137  -10.9805 C   0  0  0  0  0  0  0  0  0  0  0  0
   25.6122  -18.3073  -10.8928 O   0  0  0  0  0  0  0  0  0  0  0  0
   26.4377  -19.9610  -12.2256 N   0  0  0  0  0  0  0  0  0  0  0  0
   26.5123  -19.1524  -13.4208 C   0  0  1  0  0  0  0  0  0  0  0  0
   27.9196  -19.2226  -13.9571 C   0  0  0  0  0  0  0  0  0  0  0  0
   28.1071  -18.5153  -15.2240 C   0  0  0  0  0  0  0  0  0  0  0  0
   27.8644  -17.1680  -15.3345 C   0  0  0  0  0  0  0  0  0  0  0  0
   28.0388  -16.4831  -16.5333 C   0  0  0  0  0  0  0  0  0  0  0  0
   28.4661  -17.1522  -17.6558 C   0  0  0  0  0  0  0  0  0  0  0  0
   28.7125  -18.5008  -17.5584 C   0  0  0  0  0  0  0  0  0  0  0  0
   28.5340  -19.1638  -16.3605 C   0  0  0  0  0  0  0  0  0  0  0  0
   25.4981  -19.5408  -14.4251 C   0  0  0  0  0  0  0  0  0  0  0  0
   25.3796  -20.7551  -14.7039 O   0  0  0  0  0  0  0  0  0  0  0  0
   19.7654  -17.1936  -15.2323 N   0  0  0  0  0  0  0  0  0  0  0  0
   20.2382  -18.1935  -14.3571 C   0  0  0  0  0  0  0  0  0  0  0  0
   19.5213  -18.5365  -13.3805 O   0  0  0  0  0  0  0  0  0  0  0  0
   21.5300  -18.8341  -14.5689 C   0  0  0  0  0  0  0  0  0  0  0  0
   22.3315  -18.3634  -15.7328 C   0  0  0  0  0  0  0  0  0  0  0  0
   23.6045  -19.0509  -16.0368 C   0  0  2  0  0  0  0  0  0  0  0  0
   24.6555  -18.6193  -15.0874 N   0  0  0  0  0  0  0  0  0  0  0  0
   24.1513  -19.0131  -17.3787 C   0  0  0  0  0  0  0  0  0  0  0  0
   24.7271  -17.9688  -17.8591 O   0  0  0  0  0  0  0  0  0  0  0  0
   24.1185  -20.0866  -18.2701 O   0  0  0  0  0  0  0  0  0  0  0  0
  2  1  1  1
  2  3  1  0
  4  2  1  0
  4  5  1  1
  6  7  2  0
  6  4  1  0
  8  6  1  0
  9  8  1  0
  9 10  1  6
 10 11  1  0
 11 16  2  0
 11 12  1  0
 12 13  2  0
 13 14  1  0
 15 14  2  0
 16 15  1  0
 17 18  2  0
 17  9  1  0
 20 19  1  0
 21 20  2  0
 22 20  1  0
 24 23  1  6
 23 22  1  0
 24 25  1  0
 25 17  1  0
 26 24  1  0
 27 26  2  0
 28 26  1  0
M  END
$$$$
