TFQ.pdb
     RDKit          3D

 28 28  0  0  1  0  0  0  0  0999 V2000
   27.0968  -18.6844  -13.2856 C   0  0  0  0  0  0  0  0  0  0  0  0
   26.9143  -20.0115  -13.9820 C   0  0  1  0  0  0  0  0  0  0  0  0
   27.1984  -19.9056  -15.3400 O   0  0  0  0  0  0  0  0  0  0  0  0
   27.8072  -21.0364  -13.3097 C   0  0  2  0  0  0  0  0  0  0  0  0
   27.6132  -22.2840  -14.0173 N   0  0  0  0  0  0  0  0  0  0  0  0
   27.3868  -21.2361  -11.9062 C   0  0  0  0  0  0  0  0  0  0  0  0
   26.3921  -21.9575  -11.6652 O   0  0  0  0  0  0  0  0  0  0  0  0
   28.0484  -20.6539  -10.7990 N   0  0  0  0  0  0  0  0  0  0  0  0
   27.5829  -20.7237   -9.4328 C   0  0  1  0  0  0  0  0  0  0  0  0
   28.6800  -20.2215   -8.5288 C   0  0  0  0  0  0  0  0  0  0  0  0
   28.2555  -20.0045   -7.1457 C   0  0  0  0  0  0  0  0  0  0  0  0
   27.7386  -18.7998   -6.7360 C   0  0  0  0  0  0  0  0  0  0  0  0
   27.3310  -18.5801   -5.4237 C   0  0  0  0  0  0  0  0  0  0  0  0
   27.4385  -19.5831   -4.4895 C   0  0  0  0  0  0  0  0  0  0  0  0
   27.9542  -20.7935   -4.8868 C   0  0  0  0  0  0  0  0  0  0  0  0
   28.3535  -20.9933   -6.1933 C   0  0  0  0  0  0  0  0  0  0  0  0
   26.3064  -20.0021   -9.2375 C   0  0  0  0  0  0  0  0  0  0  0  0
   26.2792  -18.7754   -9.4835 O   0  0  0  0  0  0  0  0  0  0  0  0
   23.3321  -19.0915  -13.1623 N   0  0  0  0  0  0  0  0  0  0  0  0
   22.7483  -20.2660  -12.6440 C   0  0  0  0  0  0  0  0  0  0  0  0
   22.1502  -21.0468  -13.4301 O   0  0  0  0  0  0  0  0  0  0  0  0
   22.8323  -20.5892  -11.2254 C   0  0  0  0  0  0  0  0  0  0  0  0
   23.5573  -19.6207  -10.3565 C   0  0  0  0  0  0  0  0  0  0  0  0
   23.7895  -19.9794   -8.9413 C   0  0  2  0  0  0  0  0  0  0  0  0
   25.1162  -20.6189   -8.7893 N   0  0  0  0  0  0  0  0  0  0  0  0
   22.8115  -20.7689   -8.2192 C   0  0  0  0  0  0  0  0  0  0  0  0
   23.1238  -21.8456   -7.5899 O   0  0  0  0  0  0  0  0  0  0  0  0
   21.4568  -20.4462   -8.1259 O   0  0  0  0  0  0  0  0  0  0  0  0
  2  1  1  1
  2  3  1  0
  4  2  1  0
  4  5  1  6
  6  7  2  0
  6  4  1  0
  8  6  1  0
  9  8  1  0
  9 10  1  1
 10 11  1  0
 11 16  2  0
 11 12  1  0
 12 13  2  0
 13 14  1  0
 15 14  2  0
 16 15  1  0
 17 18  2  0
 17  9  1  0
 20 19  1  0
 21 20  2  0
 22 20  1  0
 24 23  1  6
 23 22  1  0
 24 25  1  0
 25 17  1  0
 26 24  1  0
 27 26  2  0
 28 26  1  0
M  END
$$$$
