TFQ.pdb
     RDKit          3D

 28 28  0  0  1  0  0  0  0  0999 V2000
   25.8028  -18.9246  -13.0106 C   0  0  0  0  0  0  0  0  0  0  0  0
   26.2372  -20.2152  -13.6627 C   0  0  1  0  0  0  0  0  0  0  0  0
   26.3888  -20.0538  -15.0365 O   0  0  0  0  0  0  0  0  0  0  0  0
   27.5298  -20.6724  -13.0148 C   0  0  2  0  0  0  0  0  0  0  0  0
   27.9232  -21.8918  -13.6880 N   0  0  0  0  0  0  0  0  0  0  0  0
   27.3007  -20.9903  -11.5890 C   0  0  0  0  0  0  0  0  0  0  0  0
   26.7121  -22.0540  -11.2893 O   0  0  0  0  0  0  0  0  0  0  0  0
   27.7112  -20.1545  -10.5234 N   0  0  0  0  0  0  0  0  0  0  0  0
   27.4487  -20.4142   -9.1264 C   0  0  1  0  0  0  0  0  0  0  0  0
   28.3831  -19.5672   -8.3001 C   0  0  0  0  0  0  0  0  0  0  0  0
   28.1965  -19.7145   -6.8566 C   0  0  0  0  0  0  0  0  0  0  0  0
   27.6585  -18.7043   -6.0975 C   0  0  0  0  0  0  0  0  0  0  0  0
   27.4755  -18.8313   -4.7238 C   0  0  0  0  0  0  0  0  0  0  0  0
   27.8359  -19.9931   -4.0830 C   0  0  0  0  0  0  0  0  0  0  0  0
   28.3754  -21.0117   -4.8314 C   0  0  0  0  0  0  0  0  0  0  0  0
   28.5496  -20.8678   -6.1935 C   0  0  0  0  0  0  0  0  0  0  0  0
   26.0271  -20.2062   -8.7745 C   0  0  0  0  0  0  0  0  0  0  0  0
   25.4854  -19.1323   -9.1201 O   0  0  0  0  0  0  0  0  0  0  0  0
   20.5984  -21.3638  -10.5517 N   0  0  0  0  0  0  0  0  0  0  0  0
   21.6135  -20.4484  -10.8990 C   0  0  0  0  0  0  0  0  0  0  0  0
   21.4049  -19.6350  -11.8372 O   0  0  0  0  0  0  0  0  0  0  0  0
   22.8864  -20.4264  -10.1897 C   0  0  0  0  0  0  0  0  0  0  0  0
   23.0544  -21.4043   -9.0788 C   0  0  0  0  0  0  0  0  0  0  0  0
   23.7894  -20.9779   -7.8690 C   0  0  2  0  0  0  0  0  0  0  0  0
   25.2459  -21.1508   -8.0707 N   0  0  0  0  0  0  0  0  0  0  0  0
   23.4358  -21.5203   -6.5720 C   0  0  0  0  0  0  0  0  0  0  0  0
   24.0908  -22.4820   -6.0253 O   0  0  0  0  0  0  0  0  0  0  0  0
   22.3738  -21.0601   -5.7920 O   0  0  0  0  0  0  0  0  0  0  0  0
  2  1  1  1
  2  3  1  0
  4  2  1  0
  4  5  1  6
  6  7  2  0
  6  4  1  0
  8  6  1  0
  9  8  1  0
  9 10  1  1
 10 11  1  0
 11 16  2  0
 11 12  1  0
 12 13  2  0
 13 14  1  0
 15 14  2  0
 16 15  1  0
 17 18  2  0
 17  9  1  0
 20 19  1  0
 21 20  2  0
 22 20  1  0
 24 23  1  6
 23 22  1  0
 24 25  1  0
 25 17  1  0
 26 24  1  0
 27 26  2  0
 28 26  1  0
M  END
$$$$
