TFQ.pdb
     RDKit          3D

 28 28  0  0  1  0  0  0  0  0999 V2000
   22.2110  -11.3905  -20.0530 C   0  0  0  0  0  0  0  0  0  0  0  0
   22.7908  -12.7266  -19.6554 C   0  0  1  0  0  0  0  0  0  0  0  0
   22.7206  -13.6342  -20.7078 O   0  0  0  0  0  0  0  0  0  0  0  0
   24.2229  -12.5162  -19.2030 C   0  0  2  0  0  0  0  0  0  0  0  0
   24.7291  -13.8137  -18.8095 N   0  0  0  0  0  0  0  0  0  0  0  0
   24.2583  -11.6325  -18.0180 C   0  0  0  0  0  0  0  0  0  0  0  0
   23.8310  -12.0646  -16.9232 O   0  0  0  0  0  0  0  0  0  0  0  0
   24.7529  -10.3068  -18.0427 N   0  0  0  0  0  0  0  0  0  0  0  0
   24.7782   -9.4170  -16.9045 C   0  0  1  0  0  0  0  0  0  0  0  0
   26.2031   -8.9840  -16.6692 C   0  0  0  0  0  0  0  0  0  0  0  0
   27.1158  -10.0871  -16.3684 C   0  0  0  0  0  0  0  0  0  0  0  0
   27.9986  -10.5622  -17.3071 C   0  0  0  0  0  0  0  0  0  0  0  0
   28.8720  -11.6107  -17.0341 C   0  0  0  0  0  0  0  0  0  0  0  0
   28.8712  -12.2061  -15.7948 C   0  0  0  0  0  0  0  0  0  0  0  0
   27.9925  -11.7398  -14.8465 C   0  0  0  0  0  0  0  0  0  0  0  0
   27.1330  -10.6985  -15.1353 C   0  0  0  0  0  0  0  0  0  0  0  0
   23.8528   -8.2742  -17.0651 C   0  0  0  0  0  0  0  0  0  0  0  0
   23.4737   -7.9808  -18.2211 O   0  0  0  0  0  0  0  0  0  0  0  0
   18.6939   -8.9947  -16.6960 N   0  0  0  0  0  0  0  0  0  0  0  0
   18.5539   -7.5918  -16.7350 C   0  0  0  0  0  0  0  0  0  0  0  0
   17.3968   -7.0957  -16.7523 O   0  0  0  0  0  0  0  0  0  0  0  0
   19.7187   -6.7161  -16.7489 C   0  0  0  0  0  0  0  0  0  0  0  0
   21.0545   -7.3725  -16.6911 C   0  0  0  0  0  0  0  0  0  0  0  0
   22.1872   -6.6171  -16.1150 C   0  0  2  0  0  0  0  0  0  0  0  0
   23.3726   -7.4951  -15.9880 N   0  0  0  0  0  0  0  0  0  0  0  0
   22.0201   -5.8854  -14.8748 C   0  0  0  0  0  0  0  0  0  0  0  0
   21.5049   -4.7083  -14.8332 O   0  0  0  0  0  0  0  0  0  0  0  0
   22.3858   -6.3744  -13.6198 O   0  0  0  0  0  0  0  0  0  0  0  0
  2  1  1  6
  2  3  1  0
  4  2  1  0
  4  5  1  1
  6  7  2  0
  6  4  1  0
  8  6  1  0
  9  8  1  0
  9 10  1  6
 10 11  1  0
 11 16  2  0
 11 12  1  0
 12 13  2  0
 13 14  1  0
 15 14  2  0
 16 15  1  0
 17 18  2  0
 17  9  1  0
 20 19  1  0
 21 20  2  0
 22 20  1  0
 24 23  1  1
 23 22  1  0
 24 25  1  0
 25 17  1  0
 26 24  1  0
 27 26  2  0
 28 26  1  0
M  END
$$$$
