TFQ.pdb
     RDKit          3D

 28 28  0  0  1  0  0  0  0  0999 V2000
   21.4495  -22.4853  -13.1978 C   0  0  0  0  0  0  0  0  0  0  0  0
   20.6935  -21.5163  -12.3208 C   0  0  1  0  0  0  0  0  0  0  0  0
   19.7882  -22.1854  -11.5029 O   0  0  0  0  0  0  0  0  0  0  0  0
   21.6944  -20.7232  -11.5029 C   0  0  2  0  0  0  0  0  0  0  0  0
   20.9270  -19.8560  -10.6347 N   0  0  0  0  0  0  0  0  0  0  0  0
   22.5166  -19.8721  -12.3894 C   0  0  0  0  0  0  0  0  0  0  0  0
   22.0091  -18.8402  -12.8850 O   0  0  0  0  0  0  0  0  0  0  0  0
   23.8636  -20.1541  -12.7191 N   0  0  0  0  0  0  0  0  0  0  0  0
   24.6508  -19.4066  -13.6728 C   0  0  1  0  0  0  0  0  0  0  0  0
   26.1050  -19.5354  -13.2961 C   0  0  0  0  0  0  0  0  0  0  0  0
   27.0157  -18.8305  -14.1983 C   0  0  0  0  0  0  0  0  0  0  0  0
   27.9116  -19.5107  -14.9863 C   0  0  0  0  0  0  0  0  0  0  0  0
   28.7832  -18.8526  -15.8488 C   0  0  0  0  0  0  0  0  0  0  0  0
   28.7671  -17.4805  -15.9334 C   0  0  0  0  0  0  0  0  0  0  0  0
   27.8750  -16.7880  -15.1500 C   0  0  0  0  0  0  0  0  0  0  0  0
   27.0176  -17.4578  -14.3000 C   0  0  0  0  0  0  0  0  0  0  0  0
   24.3831  -19.8201  -15.0677 C   0  0  0  0  0  0  0  0  0  0  0  0
   24.3693  -21.0442  -15.3272 O   0  0  0  0  0  0  0  0  0  0  0  0
   19.9479  -19.4038  -19.1218 N   0  0  0  0  0  0  0  0  0  0  0  0
   20.0796  -19.5644  -17.7268 C   0  0  0  0  0  0  0  0  0  0  0  0
   19.0616  -19.8659  -17.0499 O   0  0  0  0  0  0  0  0  0  0  0  0
   21.3666  -19.3943  -17.0646 C   0  0  0  0  0  0  0  0  0  0  0  0
   22.5121  -18.9731  -17.9185 C   0  0  0  0  0  0  0  0  0  0  0  0
   23.8780  -19.3628  -17.5087 C   0  0  2  0  0  0  0  0  0  0  0  0
   24.1421  -18.9117  -16.1235 N   0  0  0  0  0  0  0  0  0  0  0  0
   25.0158  -19.0086  -18.3341 C   0  0  0  0  0  0  0  0  0  0  0  0
   25.2437  -17.8010  -18.7119 O   0  0  0  0  0  0  0  0  0  0  0  0
   25.9691  -19.9205  -18.7897 O   0  0  0  0  0  0  0  0  0  0  0  0
  2  1  1  1
  2  3  1  0
  4  2  1  0
  4  5  1  1
  6  7  2  0
  6  4  1  0
  8  6  1  0
  9  8  1  0
  9 10  1  1
 10 11  1  0
 11 16  2  0
 11 12  1  0
 12 13  2  0
 13 14  1  0
 15 14  2  0
 16 15  1  0
 17 18  2  0
 17  9  1  0
 20 19  1  0
 21 20  2  0
 22 20  1  0
 24 23  1  6
 23 22  1  0
 24 25  1  0
 25 17  1  0
 26 24  1  0
 27 26  2  0
 28 26  1  0
M  END
$$$$
