GEH.pdb
     RDKit          3D

 24 24  0  0  1  0  0  0  0  0999 V2000
   26.8206  -35.1271  -10.7671 N   0  0  0  0  0  0  0  0  0  0  0  0
   26.8038  -34.8410   -9.3476 C   0  0  0  0  0  0  0  0  0  0  0  0
   25.4489  -34.3801   -8.9382 C   0  0  0  0  0  0  0  0  0  0  0  0
   24.6745  -33.8749   -9.8255 O   0  0  0  0  0  0  0  0  0  0  0  0
   25.0141  -34.4949   -7.5900 N   0  0  0  0  0  0  0  0  0  0  0  0
   23.7211  -34.0779   -7.1375 C   0  0  1  0  0  0  0  0  0  0  0  0
   22.7284  -35.1695   -7.0163 C   0  0  0  0  0  0  0  0  0  0  0  0
   21.3282  -34.8950   -6.7191 C   0  0  0  0  0  0  0  0  0  0  0  0
   20.3968  -36.0101   -6.5964 C   0  0  0  0  0  0  0  0  0  0  0  0
   19.8281  -36.5609   -7.5521 O   0  0  0  0  0  0  0  0  0  0  0  0
   23.7032  -33.1304   -6.0161 C   0  0  0  0  0  0  0  0  0  0  0  0
   24.1810  -33.4977   -4.8839 O   0  0  0  0  0  0  0  0  0  0  0  0
   20.0697  -36.5554   -5.3375 O   0  0  0  0  0  0  0  0  0  0  0  0
   23.1931  -31.8096   -6.0632 N   0  0  0  0  0  0  0  0  0  0  0  0
   23.0404  -30.9670   -4.8629 C   0  0  1  0  0  0  0  0  0  0  0  0
   21.6429  -30.9121   -4.3924 C   0  0  0  0  0  0  0  0  0  0  0  0
   21.5064  -29.9174   -3.3126 C   0  0  0  0  0  0  0  0  0  0  0  0
   22.2815  -28.8354   -2.9605 C   0  0  0  0  0  0  0  0  0  0  0  0
   21.7937  -28.2177   -1.8671 N   0  0  0  0  0  0  0  0  0  0  0  0
   20.6976  -28.9047   -1.5105 C   0  0  0  0  0  0  0  0  0  0  0  0
   20.5166  -29.9224   -2.3672 N   0  0  0  0  0  0  0  0  0  0  0  0
   23.9143  -31.5341   -3.8334 C   0  0  0  0  0  0  0  0  0  0  0  0
   23.7448  -32.7081   -3.4273 O   0  0  0  0  0  0  0  0  0  0  0  0
   24.9527  -30.8272   -3.2664 O   0  0  0  0  0  0  0  0  0  0  0  0
  2  3  1  0
  2  1  1  0
  3  5  1  0
  4  3  2  0
  5  6  1  0
  6 11  1  0
  6  7  1  1
  7  8  1  0
  9 13  1  0
  9  8  1  0
 10  9  2  0
 11 14  1  0
 11 12  2  0
 14 15  1  0
 15 22  1  0
 15 16  1  1
 16 17  1  0
 17 18  2  0
 19 18  1  0
 20 19  1  0
 21 20  2  0
 21 17  1  0
 22 24  1  0
 23 22  2  0
M  END
$$$$
