GEH.pdb
     RDKit          3D

 24 24  0  0  1  0  0  0  0  0999 V2000
   17.1766  -13.3137  -15.4525 N   0  0  0  0  0  0  0  0  0  0  0  0
   16.6297  -11.9905  -15.6697 C   0  0  0  0  0  0  0  0  0  0  0  0
   17.7229  -11.0378  -16.0059 C   0  0  0  0  0  0  0  0  0  0  0  0
   18.4854  -11.2999  -17.0020 O   0  0  0  0  0  0  0  0  0  0  0  0
   17.9240   -9.8567  -15.2415 N   0  0  0  0  0  0  0  0  0  0  0  0
   18.8423   -8.8219  -15.6109 C   0  0  1  0  0  0  0  0  0  0  0  0
   18.3843   -7.4497  -15.2966 C   0  0  0  0  0  0  0  0  0  0  0  0
   17.1440   -6.9170  -15.8462 C   0  0  0  0  0  0  0  0  0  0  0  0
   16.7670   -5.5413  -15.5440 C   0  0  0  0  0  0  0  0  0  0  0  0
   16.6942   -4.6305  -16.3838 O   0  0  0  0  0  0  0  0  0  0  0  0
   20.2543   -9.0659  -15.2903 C   0  0  0  0  0  0  0  0  0  0  0  0
   20.5787   -9.3406  -14.0802 O   0  0  0  0  0  0  0  0  0  0  0  0
   16.4489   -5.1415  -14.2294 O   0  0  0  0  0  0  0  0  0  0  0  0
   21.3267   -9.0251  -16.2151 N   0  0  0  0  0  0  0  0  0  0  0  0
   22.7262   -9.2840  -15.8299 C   0  0  1  0  0  0  0  0  0  0  0  0
   23.3662  -10.2943  -16.6941 C   0  0  0  0  0  0  0  0  0  0  0  0
   24.7631  -10.5130  -16.2758 C   0  0  0  0  0  0  0  0  0  0  0  0
   25.4667  -10.0847  -15.1727 C   0  0  0  0  0  0  0  0  0  0  0  0
   26.7483  -10.4972  -15.2179 N   0  0  0  0  0  0  0  0  0  0  0  0
   26.8737  -11.1955  -16.3568 C   0  0  0  0  0  0  0  0  0  0  0  0
   25.6936  -11.2113  -16.9969 N   0  0  0  0  0  0  0  0  0  0  0  0
   23.4326   -8.0038  -15.9147 C   0  0  0  0  0  0  0  0  0  0  0  0
   22.8436   -6.9749  -16.3229 O   0  0  0  0  0  0  0  0  0  0  0  0
   24.7551   -7.8580  -15.5553 O   0  0  0  0  0  0  0  0  0  0  0  0
  2  3  1  0
  2  1  1  0
  3  5  1  0
  4  3  2  0
  5  6  1  0
  6 11  1  0
  6  7  1  1
  7  8  1  0
  9 13  1  0
  9  8  1  0
 10  9  2  0
 11 14  1  0
 11 12  2  0
 14 15  1  0
 15 22  1  0
 15 16  1  6
 16 17  1  0
 17 18  2  0
 19 18  1  0
 20 19  1  0
 21 20  2  0
 21 17  1  0
 22 24  1  0
 23 22  2  0
M  END
$$$$
