GEH.pdb
     RDKit          3D

 24 24  0  0  1  0  0  0  0  0999 V2000
   12.9798   -8.4332  -16.0063 N   0  0  0  0  0  0  0  0  0  0  0  0
   13.8612   -8.9954  -17.0085 C   0  0  0  0  0  0  0  0  0  0  0  0
   15.2130   -9.2209  -16.4274 C   0  0  0  0  0  0  0  0  0  0  0  0
   15.3927   -8.9986  -15.1783 O   0  0  0  0  0  0  0  0  0  0  0  0
   16.2899   -9.6746  -17.2362 N   0  0  0  0  0  0  0  0  0  0  0  0
   17.5904   -9.9825  -16.7221 C   0  0  1  0  0  0  0  0  0  0  0  0
   18.0325  -11.3757  -16.9567 C   0  0  0  0  0  0  0  0  0  0  0  0
   17.1788  -12.5104  -16.6283 C   0  0  0  0  0  0  0  0  0  0  0  0
   17.6860  -13.8623  -16.8309 C   0  0  0  0  0  0  0  0  0  0  0  0
   17.6977  -14.7477  -15.9615 O   0  0  0  0  0  0  0  0  0  0  0  0
   18.6347   -8.9786  -16.9620 C   0  0  0  0  0  0  0  0  0  0  0  0
   18.6387   -8.3390  -18.0737 O   0  0  0  0  0  0  0  0  0  0  0  0
   18.2158  -14.2665  -18.0740 O   0  0  0  0  0  0  0  0  0  0  0  0
   19.6711   -8.6376  -16.0583 N   0  0  0  0  0  0  0  0  0  0  0  0
   20.7095   -7.6386  -16.3712 C   0  0  1  0  0  0  0  0  0  0  0  0
   21.2411   -6.9864  -15.1590 C   0  0  0  0  0  0  0  0  0  0  0  0
   21.6912   -8.0014  -14.1888 C   0  0  0  0  0  0  0  0  0  0  0  0
   22.0818   -9.3119  -14.3488 C   0  0  0  0  0  0  0  0  0  0  0  0
   22.3800   -9.8827  -13.1655 N   0  0  0  0  0  0  0  0  0  0  0  0
   22.1806   -8.9359  -12.2358 C   0  0  0  0  0  0  0  0  0  0  0  0
   21.7688   -7.8078  -12.8360 N   0  0  0  0  0  0  0  0  0  0  0  0
   21.7721   -8.3435  -17.0916 C   0  0  0  0  0  0  0  0  0  0  0  0
   21.7122   -9.5838  -17.2652 O   0  0  0  0  0  0  0  0  0  0  0  0
   22.8732   -7.6985  -17.6121 O   0  0  0  0  0  0  0  0  0  0  0  0
  2  3  1  0
  2  1  1  0
  3  5  1  0
  4  3  2  0
  5  6  1  0
  6 11  1  0
  6  7  1  6
  7  8  1  0
  9 13  1  0
  9  8  1  0
 10  9  2  0
 11 14  1  0
 11 12  2  0
 14 15  1  0
 15 22  1  0
 15 16  1  1
 16 17  1  0
 17 18  2  0
 19 18  1  0
 20 19  1  0
 21 20  2  0
 21 17  1  0
 22 24  1  0
 23 22  2  0
M  END
$$$$
