GEH.pdb
     RDKit          3D

 24 24  0  0  1  0  0  0  0  0999 V2000
   14.6006  -11.0644    8.2865 N   0  0  0  0  0  0  0  0  0  0  0  0
   14.6180  -12.4877    8.0196 C   0  0  0  0  0  0  0  0  0  0  0  0
   15.7726  -13.1207    8.7139 C   0  0  0  0  0  0  0  0  0  0  0  0
   16.7066  -12.3701    9.1683 O   0  0  0  0  0  0  0  0  0  0  0  0
   15.8454  -14.5309    8.8743 N   0  0  0  0  0  0  0  0  0  0  0  0
   16.9641  -15.2036    9.4629 C   0  0  1  0  0  0  0  0  0  0  0  0
   16.6442  -16.5130   10.0752 C   0  0  0  0  0  0  0  0  0  0  0  0
   17.6326  -17.2523   10.8502 C   0  0  0  0  0  0  0  0  0  0  0  0
   17.2678  -18.5455   11.4165 C   0  0  0  0  0  0  0  0  0  0  0  0
   16.1873  -19.1221   11.2166 O   0  0  0  0  0  0  0  0  0  0  0  0
   18.2056  -15.2008    8.6791 C   0  0  0  0  0  0  0  0  0  0  0  0
   18.1543  -14.8969    7.4341 O   0  0  0  0  0  0  0  0  0  0  0  0
   18.1518  -19.2510   12.2591 O   0  0  0  0  0  0  0  0  0  0  0  0
   19.4944  -15.5117    9.1785 N   0  0  0  0  0  0  0  0  0  0  0  0
   20.7358  -15.1589    8.4654 C   0  0  1  0  0  0  0  0  0  0  0  0
   20.8619  -13.7049    8.2482 C   0  0  0  0  0  0  0  0  0  0  0  0
   20.2298  -13.3226    6.9720 C   0  0  0  0  0  0  0  0  0  0  0  0
   19.5959  -14.0686    6.0041 C   0  0  0  0  0  0  0  0  0  0  0  0
   19.1985  -13.2982    4.9730 N   0  0  0  0  0  0  0  0  0  0  0  0
   19.5781  -12.0474    5.2761 C   0  0  0  0  0  0  0  0  0  0  0  0
   20.1954  -12.0503    6.4683 N   0  0  0  0  0  0  0  0  0  0  0  0
   21.8473  -15.6624    9.2754 C   0  0  0  0  0  0  0  0  0  0  0  0
   23.0266  -15.5941    8.8549 O   0  0  0  0  0  0  0  0  0  0  0  0
   21.6661  -16.2247   10.5206 O   0  0  0  0  0  0  0  0  0  0  0  0
  2  3  1  0
  2  1  1  0
  3  5  1  0
  4  3  2  0
  5  6  1  0
  6 11  1  0
  6  7  1  6
  7  8  1  0
  9 13  1  0
  9  8  1  0
 10  9  2  0
 11 14  1  0
 11 12  2  0
 14 15  1  0
 15 22  1  0
 15 16  1  1
 16 17  1  0
 17 18  2  0
 19 18  1  0
 20 19  1  0
 21 20  2  0
 21 17  1  0
 22 24  1  0
 23 22  2  0
M  END
$$$$
