GEH.pdb
     RDKit          3D

 24 24  0  0  1  0  0  0  0  0999 V2000
   25.2394  -21.7344  -15.4885 N   0  0  0  0  0  0  0  0  0  0  0  0
   25.0339  -20.9202  -14.3087 C   0  0  0  0  0  0  0  0  0  0  0  0
   23.5780  -20.7951  -14.0249 C   0  0  0  0  0  0  0  0  0  0  0  0
   22.7450  -20.9726  -14.9825 O   0  0  0  0  0  0  0  0  0  0  0  0
   23.1118  -20.4850  -12.7187 N   0  0  0  0  0  0  0  0  0  0  0  0
   21.7502  -20.1557  -12.4220 C   0  0  1  0  0  0  0  0  0  0  0  0
   21.3612  -20.3561  -11.0077 C   0  0  0  0  0  0  0  0  0  0  0  0
   19.9756  -20.2283  -10.5742 C   0  0  0  0  0  0  0  0  0  0  0  0
   19.0698  -21.3573  -10.7504 C   0  0  0  0  0  0  0  0  0  0  0  0
   17.9755  -21.2978  -11.3325 O   0  0  0  0  0  0  0  0  0  0  0  0
   21.2448  -18.9073  -13.0067 C   0  0  0  0  0  0  0  0  0  0  0  0
   22.0840  -18.0297  -13.4196 O   0  0  0  0  0  0  0  0  0  0  0  0
   19.3903  -22.6373  -10.2524 O   0  0  0  0  0  0  0  0  0  0  0  0
   19.8788  -18.5661  -13.1632 N   0  0  0  0  0  0  0  0  0  0  0  0
   19.3770  -17.7730  -14.3005 C   0  0  1  0  0  0  0  0  0  0  0  0
   20.0096  -18.1617  -15.5756 C   0  0  0  0  0  0  0  0  0  0  0  0
   19.5268  -17.2984  -16.6691 C   0  0  0  0  0  0  0  0  0  0  0  0
   18.5959  -16.2844  -16.6928 C   0  0  0  0  0  0  0  0  0  0  0  0
   18.4422  -15.7887  -17.9359 N   0  0  0  0  0  0  0  0  0  0  0  0
   19.2782  -16.4865  -18.7200 C   0  0  0  0  0  0  0  0  0  0  0  0
   19.9312  -17.3914  -17.9735 N   0  0  0  0  0  0  0  0  0  0  0  0
   17.9280  -17.9795  -14.3542 C   0  0  0  0  0  0  0  0  0  0  0  0
   17.4188  -19.0467  -13.9374 O   0  0  0  0  0  0  0  0  0  0  0  0
   17.0590  -17.0324  -14.8514 O   0  0  0  0  0  0  0  0  0  0  0  0
  2  3  1  0
  2  1  1  0
  3  5  1  0
  4  3  2  0
  5  6  1  0
  6 11  1  0
  6  7  1  1
  7  8  1  0
  9 13  1  0
  9  8  1  0
 10  9  2  0
 11 14  1  0
 11 12  2  0
 14 15  1  0
 15 22  1  0
 15 16  1  6
 16 17  1  0
 17 18  2  0
 19 18  1  0
 20 19  1  0
 21 20  2  0
 21 17  1  0
 22 24  1  0
 23 22  2  0
M  END
$$$$
