GEH.pdb
     RDKit          3D

 24 24  0  0  1  0  0  0  0  0999 V2000
   22.3233  -18.6632  -18.2155 N   0  0  0  0  0  0  0  0  0  0  0  0
   23.0188  -19.7904  -17.6299 C   0  0  0  0  0  0  0  0  0  0  0  0
   23.0039  -19.6811  -16.1455 C   0  0  0  0  0  0  0  0  0  0  0  0
   23.5923  -18.6852  -15.5940 O   0  0  0  0  0  0  0  0  0  0  0  0
   22.3511  -20.6589  -15.3470 N   0  0  0  0  0  0  0  0  0  0  0  0
   22.4056  -20.6768  -13.9162 C   0  0  1  0  0  0  0  0  0  0  0  0
   21.2070  -21.2470  -13.2604 C   0  0  0  0  0  0  0  0  0  0  0  0
   19.8619  -20.8438  -13.6506 C   0  0  0  0  0  0  0  0  0  0  0  0
   18.7165  -21.4992  -13.0305 C   0  0  0  0  0  0  0  0  0  0  0  0
   18.0715  -22.4258  -13.5455 O   0  0  0  0  0  0  0  0  0  0  0  0
   23.6744  -21.1172  -13.3230 C   0  0  0  0  0  0  0  0  0  0  0  0
   24.1396  -22.2709  -13.6354 O   0  0  0  0  0  0  0  0  0  0  0  0
   18.2500  -21.1082  -11.7582 O   0  0  0  0  0  0  0  0  0  0  0  0
   24.4589  -20.3700  -12.4102 N   0  0  0  0  0  0  0  0  0  0  0  0
   25.7205  -20.8753  -11.8383 C   0  0  1  0  0  0  0  0  0  0  0  0
   26.8233  -19.9040  -11.9716 C   0  0  0  0  0  0  0  0  0  0  0  0
   27.1089  -19.6479  -13.3953 C   0  0  0  0  0  0  0  0  0  0  0  0
   26.6181  -20.2229  -14.5459 C   0  0  0  0  0  0  0  0  0  0  0  0
   27.1955  -19.6953  -15.6427 N   0  0  0  0  0  0  0  0  0  0  0  0
   28.0645  -18.7745  -15.1984 C   0  0  0  0  0  0  0  0  0  0  0  0
   28.0211  -18.7378  -13.8570 N   0  0  0  0  0  0  0  0  0  0  0  0
   25.4572  -21.1736  -10.4288 C   0  0  0  0  0  0  0  0  0  0  0  0
   24.3546  -20.8803   -9.9089 O   0  0  0  0  0  0  0  0  0  0  0  0
   26.3839  -21.7837   -9.6113 O   0  0  0  0  0  0  0  0  0  0  0  0
  2  3  1  0
  2  1  1  0
  3  5  1  0
  4  3  2  0
  5  6  1  0
  6 11  1  0
  6  7  1  1
  7  8  1  0
  9 13  1  0
  9  8  1  0
 10  9  2  0
 11 14  1  0
 11 12  2  0
 14 15  1  0
 15 22  1  0
 15 16  1  1
 16 17  1  0
 17 18  2  0
 19 18  1  0
 20 19  1  0
 21 20  2  0
 21 17  1  0
 22 24  1  0
 23 22  2  0
M  END
$$$$
