GEH.pdb
     RDKit          3D

 24 24  0  0  1  0  0  0  0  0999 V2000
   34.4131  -33.6524  -14.0046 N   0  0  0  0  0  0  0  0  0  0  0  0
   34.3056  -33.7433  -15.4460 C   0  0  0  0  0  0  0  0  0  0  0  0
   33.6488  -32.5210  -15.9846 C   0  0  0  0  0  0  0  0  0  0  0  0
   32.7561  -31.9363  -15.2751 O   0  0  0  0  0  0  0  0  0  0  0  0
   33.9997  -32.0050  -17.2615 N   0  0  0  0  0  0  0  0  0  0  0  0
   33.3690  -30.8643  -17.8545 C   0  0  1  0  0  0  0  0  0  0  0  0
   34.1776  -30.1808  -18.8892 C   0  0  0  0  0  0  0  0  0  0  0  0
   35.5195  -29.6885  -18.6040 C   0  0  0  0  0  0  0  0  0  0  0  0
   36.2388  -28.9505  -19.6354 C   0  0  0  0  0  0  0  0  0  0  0  0
   35.8537  -27.8816  -20.1346 O   0  0  0  0  0  0  0  0  0  0  0  0
   31.9539  -31.0214  -18.2130 C   0  0  0  0  0  0  0  0  0  0  0  0
   31.5916  -32.0586  -18.8748 O   0  0  0  0  0  0  0  0  0  0  0  0
   37.4641  -29.4206  -20.1519 O   0  0  0  0  0  0  0  0  0  0  0  0
   30.9176  -30.1109  -17.8906 N   0  0  0  0  0  0  0  0  0  0  0  0
   29.5071  -30.3426  -18.2522 C   0  0  1  0  0  0  0  0  0  0  0  0
   28.5884  -30.0517  -17.1347 C   0  0  0  0  0  0  0  0  0  0  0  0
   28.4697  -31.2269  -16.2521 C   0  0  0  0  0  0  0  0  0  0  0  0
   29.0049  -32.4926  -16.3351 C   0  0  0  0  0  0  0  0  0  0  0  0
   28.5948  -33.2665  -15.3115 N   0  0  0  0  0  0  0  0  0  0  0  0
   27.7898  -32.4967  -14.5633 C   0  0  0  0  0  0  0  0  0  0  0  0
   27.7079  -31.2760  -15.1160 N   0  0  0  0  0  0  0  0  0  0  0  0
   29.2176  -29.4822  -19.4015 C   0  0  0  0  0  0  0  0  0  0  0  0
   28.1200  -29.5661  -20.0019 O   0  0  0  0  0  0  0  0  0  0  0  0
   30.1131  -28.5489  -19.8771 O   0  0  0  0  0  0  0  0  0  0  0  0
  2  3  1  0
  2  1  1  0
  3  5  1  0
  4  3  2  0
  5  6  1  0
  6 11  1  0
  6  7  1  6
  7  8  1  0
  9 13  1  0
  9  8  1  0
 10  9  2  0
 11 14  1  0
 11 12  2  0
 14 15  1  0
 15 22  1  0
 15 16  1  1
 16 17  1  0
 17 18  2  0
 19 18  1  0
 20 19  1  0
 21 20  2  0
 21 17  1  0
 22 24  1  0
 23 22  2  0
M  END
$$$$
