GEH.pdb
     RDKit          3D

 24 24  0  0  1  0  0  0  0  0999 V2000
   21.7834  -22.0936  -16.5931 N   0  0  0  0  0  0  0  0  0  0  0  0
   22.5062  -20.8415  -16.5098 C   0  0  0  0  0  0  0  0  0  0  0  0
   23.7066  -21.0044  -15.6447 C   0  0  0  0  0  0  0  0  0  0  0  0
   23.8452  -22.0909  -14.9795 O   0  0  0  0  0  0  0  0  0  0  0  0
   24.6858  -19.9785  -15.5525 N   0  0  0  0  0  0  0  0  0  0  0  0
   25.8390  -20.0592  -14.7074 C   0  0  1  0  0  0  0  0  0  0  0  0
   27.0362  -19.3621  -15.2294 C   0  0  0  0  0  0  0  0  0  0  0  0
   27.5693  -19.6536  -16.5542 C   0  0  0  0  0  0  0  0  0  0  0  0
   28.6166  -18.7996  -17.1015 C   0  0  0  0  0  0  0  0  0  0  0  0
   29.2164  -19.0153  -18.1663 O   0  0  0  0  0  0  0  0  0  0  0  0
   25.6056  -19.8479  -13.2733 C   0  0  0  0  0  0  0  0  0  0  0  0
   25.1666  -18.7102  -12.8758 O   0  0  0  0  0  0  0  0  0  0  0  0
   29.0316  -17.6298  -16.4318 O   0  0  0  0  0  0  0  0  0  0  0  0
   25.8258  -20.8068  -12.2540 N   0  0  0  0  0  0  0  0  0  0  0  0
   25.5079  -20.5555  -10.8363 C   0  0  1  0  0  0  0  0  0  0  0  0
   24.4435  -21.4463  -10.3356 C   0  0  0  0  0  0  0  0  0  0  0  0
   23.1592  -21.1214  -10.9831 C   0  0  0  0  0  0  0  0  0  0  0  0
   22.8264  -20.1922  -11.9429 C   0  0  0  0  0  0  0  0  0  0  0  0
   21.5074  -20.2196  -12.2155 N   0  0  0  0  0  0  0  0  0  0  0  0
   20.9850  -21.1714  -11.4272 C   0  0  0  0  0  0  0  0  0  0  0  0
   21.9629  -21.7168  -10.6866 N   0  0  0  0  0  0  0  0  0  0  0  0
   26.7483  -20.7520  -10.0828 C   0  0  0  0  0  0  0  0  0  0  0  0
   27.8013  -21.1032  -10.6660 O   0  0  0  0  0  0  0  0  0  0  0  0
   26.8295  -20.5631   -8.7201 O   0  0  0  0  0  0  0  0  0  0  0  0
  2  3  1  0
  2  1  1  0
  3  5  1  0
  4  3  2  0
  5  6  1  0
  6 11  1  0
  6  7  1  6
  7  8  1  0
  9 13  1  0
  9  8  1  0
 10  9  2  0
 11 14  1  0
 11 12  2  0
 14 15  1  0
 15 22  1  0
 15 16  1  1
 16 17  1  0
 17 18  2  0
 19 18  1  0
 20 19  1  0
 21 20  2  0
 21 17  1  0
 22 24  1  0
 23 22  2  0
M  END
$$$$
