GEH.pdb
     RDKit          3D

 24 24  0  0  1  0  0  0  0  0999 V2000
   18.9668  -12.9121  -16.3040 N   0  0  0  0  0  0  0  0  0  0  0  0
   18.1507  -11.9314  -15.6187 C   0  0  0  0  0  0  0  0  0  0  0  0
   18.4587  -10.5677  -16.1298 C   0  0  0  0  0  0  0  0  0  0  0  0
   19.5899  -10.3614  -16.6955 O   0  0  0  0  0  0  0  0  0  0  0  0
   17.5207   -9.5082  -15.9971 N   0  0  0  0  0  0  0  0  0  0  0  0
   17.7977   -8.1546  -16.3732 C   0  0  1  0  0  0  0  0  0  0  0  0
   16.6055   -7.3639  -16.7540 C   0  0  0  0  0  0  0  0  0  0  0  0
   15.6026   -7.8926  -17.6699 C   0  0  0  0  0  0  0  0  0  0  0  0
   14.5365   -7.0152  -18.1384 C   0  0  0  0  0  0  0  0  0  0  0  0
   13.9870   -7.1050  -19.2474 O   0  0  0  0  0  0  0  0  0  0  0  0
   18.7459   -7.4276  -15.5197 C   0  0  0  0  0  0  0  0  0  0  0  0
   18.5353   -7.3814  -14.2554 O   0  0  0  0  0  0  0  0  0  0  0  0
   14.0422   -5.9690  -17.3320 O   0  0  0  0  0  0  0  0  0  0  0  0
   19.9058   -6.7504  -15.9701 N   0  0  0  0  0  0  0  0  0  0  0  0
   20.8548   -6.0918  -15.0537 C   0  0  1  0  0  0  0  0  0  0  0  0
   22.2420   -6.5502  -15.2612 C   0  0  0  0  0  0  0  0  0  0  0  0
   22.3234   -8.0149  -15.1122 C   0  0  0  0  0  0  0  0  0  0  0  0
   22.4436   -9.0248  -16.0401 C   0  0  0  0  0  0  0  0  0  0  0  0
   22.4430  -10.2357  -15.4499 N   0  0  0  0  0  0  0  0  0  0  0  0
   22.3213  -10.0071  -14.1333 C   0  0  0  0  0  0  0  0  0  0  0  0
   22.2489   -8.6835  -13.9202 N   0  0  0  0  0  0  0  0  0  0  0  0
   20.7418   -4.6509  -15.2906 C   0  0  0  0  0  0  0  0  0  0  0  0
   21.4663   -3.8417  -14.6642 O   0  0  0  0  0  0  0  0  0  0  0  0
   19.8551   -4.1130  -16.1982 O   0  0  0  0  0  0  0  0  0  0  0  0
  2  3  1  0
  2  1  1  0
  3  5  1  0
  4  3  2  0
  5  6  1  0
  6 11  1  0
  6  7  1  1
  7  8  1  0
  9 13  1  0
  9  8  1  0
 10  9  2  0
 11 14  1  0
 11 12  2  0
 14 15  1  0
 15 22  1  0
 15 16  1  6
 16 17  1  0
 17 18  2  0
 19 18  1  0
 20 19  1  0
 21 20  2  0
 21 17  1  0
 22 24  1  0
 23 22  2  0
M  END
$$$$
