GEH.pdb
     RDKit          3D

 24 24  0  0  1  0  0  0  0  0999 V2000
   20.0600  -10.3398  -20.8693 N   0  0  0  0  0  0  0  0  0  0  0  0
   20.0318   -8.8955  -20.7661 C   0  0  0  0  0  0  0  0  0  0  0  0
   19.6285   -8.4922  -19.3911 C   0  0  0  0  0  0  0  0  0  0  0  0
   18.4723   -8.8385  -18.9604 O   0  0  0  0  0  0  0  0  0  0  0  0
   20.5039   -7.7370  -18.5646 N   0  0  0  0  0  0  0  0  0  0  0  0
   20.2551   -7.4767  -17.1786 C   0  0  1  0  0  0  0  0  0  0  0  0
   19.9326   -8.6766  -16.3737 C   0  0  0  0  0  0  0  0  0  0  0  0
   20.7968   -9.8502  -16.3777 C   0  0  0  0  0  0  0  0  0  0  0  0
   20.4076  -11.0208  -15.6003 C   0  0  0  0  0  0  0  0  0  0  0  0
   21.0308  -12.0937  -15.5832 O   0  0  0  0  0  0  0  0  0  0  0  0
   21.1824   -6.5492  -16.5185 C   0  0  0  0  0  0  0  0  0  0  0  0
   22.3983   -6.4928  -16.9227 O   0  0  0  0  0  0  0  0  0  0  0  0
   19.2550  -11.0093  -14.7874 O   0  0  0  0  0  0  0  0  0  0  0  0
   20.8558   -5.6845  -15.4448 N   0  0  0  0  0  0  0  0  0  0  0  0
   21.8219   -4.7389  -14.8561 C   0  0  1  0  0  0  0  0  0  0  0  0
   21.2335   -3.4040  -14.6346 C   0  0  0  0  0  0  0  0  0  0  0  0
   20.9173   -2.7648  -15.9252 C   0  0  0  0  0  0  0  0  0  0  0  0
   21.6687   -2.5783  -17.0635 C   0  0  0  0  0  0  0  0  0  0  0  0
   20.9784   -1.9011  -18.0014 N   0  0  0  0  0  0  0  0  0  0  0  0
   19.7743   -1.6483  -17.4659 C   0  0  0  0  0  0  0  0  0  0  0  0
   19.7268   -2.1598  -16.2255 N   0  0  0  0  0  0  0  0  0  0  0  0
   22.2722   -5.3256  -13.5920 C   0  0  0  0  0  0  0  0  0  0  0  0
   21.8166   -6.4260  -13.2002 O   0  0  0  0  0  0  0  0  0  0  0  0
   23.2047   -4.7176  -12.7795 O   0  0  0  0  0  0  0  0  0  0  0  0
  2  3  1  0
  2  1  1  0
  3  5  1  0
  4  3  2  0
  5  6  1  0
  6 11  1  0
  6  7  1  1
  7  8  1  0
  9 13  1  0
  9  8  1  0
 10  9  2  0
 11 14  1  0
 11 12  2  0
 14 15  1  0
 15 22  1  0
 15 16  1  1
 16 17  1  0
 17 18  2  0
 19 18  1  0
 20 19  1  0
 21 20  2  0
 21 17  1  0
 22 24  1  0
 23 22  2  0
M  END
$$$$
