GEH.pdb
     RDKit          3D

 24 24  0  0  1  0  0  0  0  0999 V2000
   28.4403  -21.6501  -16.9940 N   0  0  0  0  0  0  0  0  0  0  0  0
   28.1829  -20.6491  -15.9797 C   0  0  0  0  0  0  0  0  0  0  0  0
   27.1079  -21.1190  -15.0634 C   0  0  0  0  0  0  0  0  0  0  0  0
   26.2502  -21.9648  -15.5007 O   0  0  0  0  0  0  0  0  0  0  0  0
   27.0273  -20.6435  -13.7266 N   0  0  0  0  0  0  0  0  0  0  0  0
   25.9041  -20.8777  -12.8699 C   0  0  1  0  0  0  0  0  0  0  0  0
   26.1943  -20.7512  -11.4237 C   0  0  0  0  0  0  0  0  0  0  0  0
   25.1956  -21.0828  -10.4153 C   0  0  0  0  0  0  0  0  0  0  0  0
   25.5304  -20.9230   -9.0053 C   0  0  0  0  0  0  0  0  0  0  0  0
   26.5380  -20.3343   -8.5832 O   0  0  0  0  0  0  0  0  0  0  0  0
   24.6383  -20.2564  -13.2791 C   0  0  0  0  0  0  0  0  0  0  0  0
   24.5642  -18.9773  -13.3390 O   0  0  0  0  0  0  0  0  0  0  0  0
   24.7005  -21.4463   -7.9921 O   0  0  0  0  0  0  0  0  0  0  0  0
   23.4537  -20.9528  -13.6239 N   0  0  0  0  0  0  0  0  0  0  0  0
   22.2233  -20.2703  -14.0645 C   0  0  1  0  0  0  0  0  0  0  0  0
   21.9169  -20.5313  -15.4841 C   0  0  0  0  0  0  0  0  0  0  0  0
   22.8314  -19.7676  -16.3527 C   0  0  0  0  0  0  0  0  0  0  0  0
   23.1810  -18.4361  -16.3689 C   0  0  0  0  0  0  0  0  0  0  0  0
   24.0345  -18.1653  -17.3754 N   0  0  0  0  0  0  0  0  0  0  0  0
   24.2372  -19.3283  -18.0133 C   0  0  0  0  0  0  0  0  0  0  0  0
   23.5232  -20.2924  -17.4108 N   0  0  0  0  0  0  0  0  0  0  0  0
   21.1410  -20.7493  -13.2018 C   0  0  0  0  0  0  0  0  0  0  0  0
   21.3225  -21.7190  -12.4280 O   0  0  0  0  0  0  0  0  0  0  0  0
   19.8893  -20.1728  -13.1881 O   0  0  0  0  0  0  0  0  0  0  0  0
  2  3  1  0
  2  1  1  0
  3  5  1  0
  4  3  2  0
  5  6  1  0
  6 11  1  0
  6  7  1  1
  7  8  1  0
  9 13  1  0
  9  8  1  0
 10  9  2  0
 11 14  1  0
 11 12  2  0
 14 15  1  0
 15 22  1  0
 15 16  1  6
 16 17  1  0
 17 18  2  0
 19 18  1  0
 20 19  1  0
 21 20  2  0
 21 17  1  0
 22 24  1  0
 23 22  2  0
M  END
$$$$
