GEH.pdb
     RDKit          3D

 24 24  0  0  1  0  0  0  0  0999 V2000
   15.4619  -12.0414  -15.1084 N   0  0  0  0  0  0  0  0  0  0  0  0
   16.3290  -11.1222  -14.4010 C   0  0  0  0  0  0  0  0  0  0  0  0
   17.2304  -10.4314  -15.3634 C   0  0  0  0  0  0  0  0  0  0  0  0
   17.1138  -10.6903  -16.6131 O   0  0  0  0  0  0  0  0  0  0  0  0
   18.2050   -9.5003  -14.9129 N   0  0  0  0  0  0  0  0  0  0  0  0
   19.1466   -8.8586  -15.7803 C   0  0  1  0  0  0  0  0  0  0  0  0
   18.8066   -7.4620  -16.1345 C   0  0  0  0  0  0  0  0  0  0  0  0
   18.2809   -6.5319  -15.1431 C   0  0  0  0  0  0  0  0  0  0  0  0
   17.9267   -5.1793  -15.5564 C   0  0  0  0  0  0  0  0  0  0  0  0
   18.7046   -4.2125  -15.5429 O   0  0  0  0  0  0  0  0  0  0  0  0
   20.5646   -9.0624  -15.4588 C   0  0  0  0  0  0  0  0  0  0  0  0
   20.9503   -8.9393  -14.2418 O   0  0  0  0  0  0  0  0  0  0  0  0
   16.6293   -4.8704  -16.0152 O   0  0  0  0  0  0  0  0  0  0  0  0
   21.5803   -9.3908  -16.3903 N   0  0  0  0  0  0  0  0  0  0  0  0
   22.9909   -9.5776  -16.0039 C   0  0  1  0  0  0  0  0  0  0  0  0
   23.6875  -10.5403  -16.8787 C   0  0  0  0  0  0  0  0  0  0  0  0
   25.1063  -10.6476  -16.4921 C   0  0  0  0  0  0  0  0  0  0  0  0
   25.7721  -11.5484  -15.6918 C   0  0  0  0  0  0  0  0  0  0  0  0
   27.0786  -11.2377  -15.5852 N   0  0  0  0  0  0  0  0  0  0  0  0
   27.2579  -10.1297  -16.3205 C   0  0  0  0  0  0  0  0  0  0  0  0
   26.0860   -9.7682  -16.8668 N   0  0  0  0  0  0  0  0  0  0  0  0
   23.6264   -8.2596  -16.0704 C   0  0  0  0  0  0  0  0  0  0  0  0
   23.1258   -7.3433  -16.7645 O   0  0  0  0  0  0  0  0  0  0  0  0
   24.7836   -7.9558  -15.3864 O   0  0  0  0  0  0  0  0  0  0  0  0
  2  3  1  0
  2  1  1  0
  3  5  1  0
  4  3  2  0
  5  6  1  0
  6 11  1  0
  6  7  1  1
  7  8  1  0
  9 13  1  0
  9  8  1  0
 10  9  2  0
 11 14  1  0
 11 12  2  0
 14 15  1  0
 15 22  1  0
 15 16  1  6
 16 17  1  0
 17 18  2  0
 19 18  1  0
 20 19  1  0
 21 20  2  0
 21 17  1  0
 22 24  1  0
 23 22  2  0
M  END
$$$$
