DNY.pdb
     RDKit          3D

 29 29  0  0  1  0  0  0  0  0999 V2000
   25.1437  -20.3071  -20.6966 N   0  0  0  0  0  0  0  0  0  0  0  0
   25.6017  -19.5026  -19.5998 C   0  0  1  0  0  0  0  0  0  0  0  0
   26.4072  -18.3180  -20.0141 C   0  0  0  0  0  0  0  0  0  0  0  0
   26.9226  -18.3896  -21.3876 C   0  0  0  0  0  0  0  0  0  0  0  0
   26.6981  -19.3564  -22.1309 O   0  0  0  0  0  0  0  0  0  0  0  0
   24.5405  -19.0962  -18.6679 C   0  0  0  0  0  0  0  0  0  0  0  0
   24.7283  -18.1482  -17.8804 O   0  0  0  0  0  0  0  0  0  0  0  0
   27.6946  -17.3537  -21.9108 O   0  0  0  0  0  0  0  0  0  0  0  0
   21.0567  -17.3905  -19.0108 N   0  0  0  0  0  0  0  0  0  0  0  0
   20.3550  -18.6183  -18.9769 C   0  0  0  0  0  0  0  0  0  0  0  0
   19.2460  -18.6965  -19.5520 O   0  0  0  0  0  0  0  0  0  0  0  0
   20.9184  -19.7857  -18.2784 C   0  0  0  0  0  0  0  0  0  0  0  0
   22.2561  -19.4527  -17.7239 C   0  0  2  0  0  0  0  0  0  0  0  0
   23.3034  -19.7770  -18.6511 N   0  0  0  0  0  0  0  0  0  0  0  0
   22.5459  -20.2025  -16.4652 C   0  0  0  0  0  0  0  0  0  0  0  0
   22.5966  -21.4533  -16.4688 O   0  0  0  0  0  0  0  0  0  0  0  0
   25.5650  -21.7525   -8.2864 O   0  0  0  0  0  0  0  0  0  0  0  0
   25.1889  -21.1598   -9.5065 C   0  0  0  0  0  0  0  0  0  0  0  0
   24.1470  -20.2648   -9.5719 C   0  0  0  0  0  0  0  0  0  0  0  0
   23.7535  -19.6625  -10.7684 C   0  0  0  0  0  0  0  0  0  0  0  0
   24.4303  -19.9733  -11.9267 C   0  0  0  0  0  0  0  0  0  0  0  0
   24.0508  -19.3637  -13.2106 C   0  0  0  0  0  0  0  0  0  0  0  0
   23.0739  -20.2138  -14.0006 C   0  0  2  0  0  0  0  0  0  0  0  0
   22.7729  -19.5424  -15.2301 N   0  0  0  0  0  0  0  0  0  0  0  0
   21.8985  -20.4796  -13.1726 C   0  0  0  0  0  0  0  0  0  0  0  0
   21.8545  -21.6376  -12.4136 O   0  0  0  0  0  0  0  0  0  0  0  0
   25.4794  -20.8772  -11.8489 C   0  0  0  0  0  0  0  0  0  0  0  0
   25.8646  -21.4718  -10.6547 C   0  0  0  0  0  0  0  0  0  0  0  0
   20.9223  -19.6950  -13.1229 O   0  0  0  0  0  0  0  0  0  0  0  0
  2  1  1  6
  2  3  1  0
  4  8  1  0
  4  3  1  0
  5  4  2  0
  6  2  1  0
  7  6  2  0
  9 10  1  0
 10 12  1  0
 11 10  2  0
 13 12  1  6
 13 14  1  0
 14  6  1  0
 15 13  1  0
 15 16  2  0
 17 18  1  0
 18 28  2  0
 19 18  1  0
 19 20  2  0
 20 21  1  0
 21 27  2  0
 21 22  1  0
 23 24  1  0
 23 22  1  1
 23 25  1  0
 24 15  1  0
 25 26  1  0
 28 27  1  0
 29 25  2  0
M  END
$$$$
