DNY.pdb
     RDKit          3D

 29 29  0  0  1  0  0  0  0  0999 V2000
   22.6259   -8.1984  -17.7558 N   0  0  0  0  0  0  0  0  0  0  0  0
   22.1817   -7.6336  -16.5134 C   0  0  1  0  0  0  0  0  0  0  0  0
   22.3471   -8.5424  -15.3427 C   0  0  0  0  0  0  0  0  0  0  0  0
   21.6785   -9.8420  -15.4889 C   0  0  0  0  0  0  0  0  0  0  0  0
   20.7161  -10.0108  -16.2523 O   0  0  0  0  0  0  0  0  0  0  0  0
   22.7509   -6.3116  -16.2164 C   0  0  0  0  0  0  0  0  0  0  0  0
   22.4286   -5.7117  -15.1722 O   0  0  0  0  0  0  0  0  0  0  0  0
   22.1123  -10.9490  -14.7615 O   0  0  0  0  0  0  0  0  0  0  0  0
   26.0635   -2.7497  -15.6712 N   0  0  0  0  0  0  0  0  0  0  0  0
   26.4719   -3.3710  -16.8747 C   0  0  0  0  0  0  0  0  0  0  0  0
   27.5999   -3.0975  -17.3433 O   0  0  0  0  0  0  0  0  0  0  0  0
   25.5869   -4.3240  -17.5652 C   0  0  0  0  0  0  0  0  0  0  0  0
   24.3023   -4.4533  -16.8298 C   0  0  2  0  0  0  0  0  0  0  0  0
   23.6614   -5.7071  -17.1106 N   0  0  0  0  0  0  0  0  0  0  0  0
   23.3320   -3.3798  -17.1992 C   0  0  0  0  0  0  0  0  0  0  0  0
   22.6589   -3.4670  -18.2510 O   0  0  0  0  0  0  0  0  0  0  0  0
   17.3608    2.9891  -16.9639 O   0  0  0  0  0  0  0  0  0  0  0  0
   18.2896    1.9733  -16.6690 C   0  0  0  0  0  0  0  0  0  0  0  0
   18.2076    0.7380  -17.2673 C   0  0  0  0  0  0  0  0  0  0  0  0
   19.1153   -0.2867  -16.9931 C   0  0  0  0  0  0  0  0  0  0  0  0
   20.1305   -0.0562  -16.0917 C   0  0  0  0  0  0  0  0  0  0  0  0
   21.1098   -1.1060  -15.7713 C   0  0  0  0  0  0  0  0  0  0  0  0
   22.2781   -1.1369  -16.7383 C   0  0  2  0  0  0  0  0  0  0  0  0
   23.1330   -2.2324  -16.3886 N   0  0  0  0  0  0  0  0  0  0  0  0
   22.9481    0.1625  -16.7150 C   0  0  0  0  0  0  0  0  0  0  0  0
   22.5646    1.1368  -17.6221 O   0  0  0  0  0  0  0  0  0  0  0  0
   20.2036    1.1935  -15.4944 C   0  0  0  0  0  0  0  0  0  0  0  0
   19.2966    2.2074  -15.7727 C   0  0  0  0  0  0  0  0  0  0  0  0
   23.8624    0.4307  -15.9007 O   0  0  0  0  0  0  0  0  0  0  0  0
  2  1  1  6
  2  3  1  0
  4  8  1  0
  4  3  1  0
  5  4  2  0
  6  2  1  0
  7  6  2  0
  9 10  1  0
 10 12  1  0
 11 10  2  0
 13 12  1  6
 13 14  1  0
 14  6  1  0
 15 13  1  0
 15 16  2  0
 17 18  1  0
 18 28  2  0
 19 18  1  0
 19 20  2  0
 20 21  1  0
 21 27  2  0
 21 22  1  0
 23 24  1  0
 23 22  1  1
 23 25  1  0
 24 15  1  0
 25 26  1  0
 28 27  1  0
 29 25  2  0
M  END
$$$$
