DNY.pdb
     RDKit          3D

 29 29  0  0  1  0  0  0  0  0999 V2000
   16.8722  -16.7556  -15.3279 N   0  0  0  0  0  0  0  0  0  0  0  0
   16.6612  -15.3468  -15.5029 C   0  0  1  0  0  0  0  0  0  0  0  0
   16.0921  -14.6672  -14.3037 C   0  0  0  0  0  0  0  0  0  0  0  0
   14.8491  -15.2684  -13.8030 C   0  0  0  0  0  0  0  0  0  0  0  0
   14.3345  -16.2652  -14.3312 O   0  0  0  0  0  0  0  0  0  0  0  0
   17.8411  -14.6180  -15.9893 C   0  0  0  0  0  0  0  0  0  0  0  0
   18.9149  -15.2218  -16.1804 O   0  0  0  0  0  0  0  0  0  0  0  0
   14.1953  -14.7287  -12.6965 O   0  0  0  0  0  0  0  0  0  0  0  0
   19.6049  -10.6108  -19.7940 N   0  0  0  0  0  0  0  0  0  0  0  0
   19.8216  -11.7027  -18.9212 C   0  0  0  0  0  0  0  0  0  0  0  0
   20.9973  -12.0471  -18.6648 O   0  0  0  0  0  0  0  0  0  0  0  0
   18.6848  -12.4225  -18.3229 C   0  0  0  0  0  0  0  0  0  0  0  0
   18.8485  -12.5004  -16.8482 C   0  0  2  0  0  0  0  0  0  0  0  0
   17.7721  -13.2297  -16.2391 N   0  0  0  0  0  0  0  0  0  0  0  0
   18.8692  -11.1492  -16.2123 C   0  0  0  0  0  0  0  0  0  0  0  0
   17.8045  -10.5160  -16.0324 O   0  0  0  0  0  0  0  0  0  0  0  0
   22.3852   -3.5026  -13.3226 O   0  0  0  0  0  0  0  0  0  0  0  0
   22.1988   -4.8187  -13.7859 C   0  0  0  0  0  0  0  0  0  0  0  0
   22.4539   -5.1557  -15.0944 C   0  0  0  0  0  0  0  0  0  0  0  0
   22.2776   -6.4528  -15.5798 C   0  0  0  0  0  0  0  0  0  0  0  0
   21.8324   -7.4326  -14.7208 C   0  0  0  0  0  0  0  0  0  0  0  0
   21.6317   -8.8130  -15.1876 C   0  0  0  0  0  0  0  0  0  0  0  0
   20.1666   -9.1893  -15.3017 C   0  0  2  0  0  0  0  0  0  0  0  0
   20.0758  -10.5331  -15.7908 N   0  0  0  0  0  0  0  0  0  0  0  0
   19.4891   -8.2084  -16.1483 C   0  0  0  0  0  0  0  0  0  0  0  0
   18.6689   -7.2598  -15.5597 O   0  0  0  0  0  0  0  0  0  0  0  0
   21.5784   -7.0814  -13.4032 C   0  0  0  0  0  0  0  0  0  0  0  0
   21.7564   -5.7888  -12.9283 C   0  0  0  0  0  0  0  0  0  0  0  0
   19.6224   -8.1927  -17.3944 O   0  0  0  0  0  0  0  0  0  0  0  0
  2  1  1  1
  2  3  1  0
  4  8  1  0
  4  3  1  0
  5  4  2  0
  6  2  1  0
  7  6  2  0
  9 10  1  0
 10 12  1  0
 11 10  2  0
 13 12  1  6
 13 14  1  0
 14  6  1  0
 15 13  1  0
 15 16  2  0
 17 18  1  0
 18 28  2  0
 19 18  1  0
 19 20  2  0
 20 21  1  0
 21 27  2  0
 21 22  1  0
 23 24  1  0
 23 22  1  6
 23 25  1  0
 24 15  1  0
 25 26  1  0
 28 27  1  0
 29 25  2  0
M  END
$$$$
