DNY.pdb
     RDKit          3D

 29 29  0  0  1  0  0  0  0  0999 V2000
   26.5372  -19.8697  -17.0152 N   0  0  0  0  0  0  0  0  0  0  0  0
   27.0618  -21.1798  -16.7539 C   0  0  1  0  0  0  0  0  0  0  0  0
   28.5253  -21.3072  -17.0101 C   0  0  0  0  0  0  0  0  0  0  0  0
   28.9648  -20.7400  -18.2917 C   0  0  0  0  0  0  0  0  0  0  0  0
   28.4241  -21.0347  -19.3679 O   0  0  0  0  0  0  0  0  0  0  0  0
   26.7302  -21.7056  -15.4222 C   0  0  0  0  0  0  0  0  0  0  0  0
   27.1893  -22.8034  -15.0506 O   0  0  0  0  0  0  0  0  0  0  0  0
   30.0231  -19.8343  -18.3411 O   0  0  0  0  0  0  0  0  0  0  0  0
   25.5780  -22.1327  -10.5175 N   0  0  0  0  0  0  0  0  0  0  0  0
   25.1047  -20.8668  -10.9352 C   0  0  0  0  0  0  0  0  0  0  0  0
   24.3937  -20.1987  -10.1511 O   0  0  0  0  0  0  0  0  0  0  0  0
   25.4425  -20.3419  -12.2689 C   0  0  0  0  0  0  0  0  0  0  0  0
   25.5233  -21.4546  -13.2504 C   0  0  2  0  0  0  0  0  0  0  0  0
   25.8863  -20.9775  -14.5550 N   0  0  0  0  0  0  0  0  0  0  0  0
   24.2204  -22.1694  -13.3988 C   0  0  0  0  0  0  0  0  0  0  0  0
   24.1403  -23.3973  -13.1692 O   0  0  0  0  0  0  0  0  0  0  0  0
   16.3169  -25.2659  -12.5263 O   0  0  0  0  0  0  0  0  0  0  0  0
   17.5558  -24.5976  -12.5248 C   0  0  0  0  0  0  0  0  0  0  0  0
   18.7176  -25.2509  -12.8631 C   0  0  0  0  0  0  0  0  0  0  0  0
   19.9590  -24.6123  -12.8701 C   0  0  0  0  0  0  0  0  0  0  0  0
   20.0269  -23.2806  -12.5263 C   0  0  0  0  0  0  0  0  0  0  0  0
   21.3129  -22.5664  -12.5190 C   0  0  0  0  0  0  0  0  0  0  0  0
   21.7512  -22.1279  -13.9035 C   0  0  2  0  0  0  0  0  0  0  0  0
   23.0352  -21.5005  -13.8000 N   0  0  0  0  0  0  0  0  0  0  0  0
   20.7195  -21.2648  -14.4768 C   0  0  0  0  0  0  0  0  0  0  0  0
   20.9661  -19.9071  -14.5998 O   0  0  0  0  0  0  0  0  0  0  0  0
   18.8490  -22.6317  -12.1869 C   0  0  0  0  0  0  0  0  0  0  0  0
   17.6180  -23.2743  -12.1826 C   0  0  0  0  0  0  0  0  0  0  0  0
   19.6130  -21.7086  -14.8634 O   0  0  0  0  0  0  0  0  0  0  0  0
  2  1  1  1
  2  3  1  0
  4  8  1  0
  4  3  1  0
  5  4  2  0
  6  2  1  0
  7  6  2  0
  9 10  1  0
 10 12  1  0
 11 10  2  0
 13 12  1  1
 13 14  1  0
 14  6  1  0
 15 13  1  0
 15 16  2  0
 17 18  1  0
 18 28  2  0
 19 18  1  0
 19 20  2  0
 20 21  1  0
 21 27  2  0
 21 22  1  0
 23 24  1  0
 23 22  1  1
 23 25  1  0
 24 15  1  0
 25 26  1  0
 28 27  1  0
 29 25  2  0
M  END
$$$$
