DNY.pdb
     RDKit          3D

 29 29  0  0  1  0  0  0  0  0999 V2000
   25.4540  -22.4387  -20.0787 N   0  0  0  0  0  0  0  0  0  0  0  0
   24.3351  -21.7338  -19.5209 C   0  0  1  0  0  0  0  0  0  0  0  0
   23.0754  -22.5311  -19.4847 C   0  0  0  0  0  0  0  0  0  0  0  0
   22.1316  -22.2170  -20.5654 C   0  0  0  0  0  0  0  0  0  0  0  0
   22.3852  -21.3814  -21.4458 O   0  0  0  0  0  0  0  0  0  0  0  0
   24.5972  -21.1353  -18.2045 C   0  0  0  0  0  0  0  0  0  0  0  0
   25.0823  -21.8271  -17.2879 O   0  0  0  0  0  0  0  0  0  0  0  0
   20.8973  -22.8603  -20.6388 O   0  0  0  0  0  0  0  0  0  0  0  0
   27.2013  -18.8731  -17.0621 N   0  0  0  0  0  0  0  0  0  0  0  0
   26.4296  -17.6876  -17.0679 C   0  0  0  0  0  0  0  0  0  0  0  0
   27.0060  -16.5923  -17.2548 O   0  0  0  0  0  0  0  0  0  0  0  0
   24.9729  -17.7392  -16.8586 C   0  0  0  0  0  0  0  0  0  0  0  0
   24.5301  -19.1479  -16.6938 C   0  0  2  0  0  0  0  0  0  0  0  0
   24.2979  -19.7764  -17.9637 N   0  0  0  0  0  0  0  0  0  0  0  0
   23.2559  -19.2504  -15.9216 C   0  0  0  0  0  0  0  0  0  0  0  0
   22.1664  -18.9321  -16.4494 O   0  0  0  0  0  0  0  0  0  0  0  0
   17.9918  -20.5358   -8.8572 O   0  0  0  0  0  0  0  0  0  0  0  0
   19.0972  -20.3812   -9.7150 C   0  0  0  0  0  0  0  0  0  0  0  0
   19.9400  -19.3005   -9.6025 C   0  0  0  0  0  0  0  0  0  0  0  0
   21.0430  -19.1229  -10.4397 C   0  0  0  0  0  0  0  0  0  0  0  0
   21.2996  -20.0612  -11.4143 C   0  0  0  0  0  0  0  0  0  0  0  0
   22.4499  -19.9157  -12.3196 C   0  0  0  0  0  0  0  0  0  0  0  0
   22.0404  -19.7513  -13.7710 C   0  0  2  0  0  0  0  0  0  0  0  0
   23.2235  -19.7053  -14.5781 N   0  0  0  0  0  0  0  0  0  0  0  0
   21.1977  -18.5628  -13.8947 C   0  0  0  0  0  0  0  0  0  0  0  0
   19.8329  -18.7181  -14.0753 O   0  0  0  0  0  0  0  0  0  0  0  0
   20.4430  -21.1471  -11.5186 C   0  0  0  0  0  0  0  0  0  0  0  0
   19.3480  -21.3164  -10.6818 C   0  0  0  0  0  0  0  0  0  0  0  0
   21.6654  -17.4012  -13.8437 O   0  0  0  0  0  0  0  0  0  0  0  0
  2  1  1  1
  2  3  1  0
  4  8  1  0
  4  3  1  0
  5  4  2  0
  6  2  1  0
  7  6  2  0
  9 10  1  0
 10 12  1  0
 11 10  2  0
 13 12  1  6
 13 14  1  0
 14  6  1  0
 15 13  1  0
 15 16  2  0
 17 18  1  0
 18 28  2  0
 19 18  1  0
 19 20  2  0
 20 21  1  0
 21 27  2  0
 21 22  1  0
 23 24  1  0
 23 22  1  1
 23 25  1  0
 24 15  1  0
 25 26  1  0
 28 27  1  0
 29 25  2  0
M  END
$$$$
