DNY.pdb
     RDKit          3D

 29 29  0  0  1  0  0  0  0  0999 V2000
   21.9115   -3.6298  -21.8739 N   0  0  0  0  0  0  0  0  0  0  0  0
   22.9651   -4.4823  -21.4018 C   0  0  1  0  0  0  0  0  0  0  0  0
   24.2608   -4.2942  -22.1157 C   0  0  0  0  0  0  0  0  0  0  0  0
   24.2068   -4.5940  -23.5525 C   0  0  0  0  0  0  0  0  0  0  0  0
   23.1517   -4.9013  -24.1269 O   0  0  0  0  0  0  0  0  0  0  0  0
   23.1728   -4.4325  -19.9478 C   0  0  0  0  0  0  0  0  0  0  0  0
   24.0272   -5.1655  -19.4121 O   0  0  0  0  0  0  0  0  0  0  0  0
   25.3609   -4.5410  -24.3323 O   0  0  0  0  0  0  0  0  0  0  0  0
   23.0094   -3.0728  -15.0738 N   0  0  0  0  0  0  0  0  0  0  0  0
   22.2687   -2.0775  -15.7534 C   0  0  0  0  0  0  0  0  0  0  0  0
   21.8652   -1.0812  -15.1122 O   0  0  0  0  0  0  0  0  0  0  0  0
   21.9772   -2.2093  -17.1908 C   0  0  0  0  0  0  0  0  0  0  0  0
   22.5950   -3.4502  -17.7256 C   0  0  2  0  0  0  0  0  0  0  0  0
   22.4052   -3.5607  -19.1446 N   0  0  0  0  0  0  0  0  0  0  0  0
   22.0077   -4.6797  -17.1141 C   0  0  0  0  0  0  0  0  0  0  0  0
   20.7979   -4.9552  -17.2797 O   0  0  0  0  0  0  0  0  0  0  0  0
   21.3517  -12.9900  -14.4468 O   0  0  0  0  0  0  0  0  0  0  0  0
   21.8438  -11.7179  -14.7946 C   0  0  0  0  0  0  0  0  0  0  0  0
   23.0517  -11.2668  -14.3165 C   0  0  0  0  0  0  0  0  0  0  0  0
   23.5632  -10.0101  -14.6456 C   0  0  0  0  0  0  0  0  0  0  0  0
   22.8351   -9.1899  -15.4782 C   0  0  0  0  0  0  0  0  0  0  0  0
   23.3338   -7.8574  -15.8518 C   0  0  0  0  0  0  0  0  0  0  0  0
   22.2720   -6.7794  -15.7448 C   0  0  2  0  0  0  0  0  0  0  0  0
   22.7812   -5.5753  -16.3314 N   0  0  0  0  0  0  0  0  0  0  0  0
   21.8847   -6.6322  -14.3426 C   0  0  0  0  0  0  0  0  0  0  0  0
   20.9024   -7.4593  -13.8226 O   0  0  0  0  0  0  0  0  0  0  0  0
   21.6183   -9.6551  -15.9544 C   0  0  0  0  0  0  0  0  0  0  0  0
   21.1167  -10.9066  -15.6224 C   0  0  0  0  0  0  0  0  0  0  0  0
   22.4102   -5.7808  -13.5878 O   0  0  0  0  0  0  0  0  0  0  0  0
  2  1  1  6
  2  3  1  0
  4  8  1  0
  4  3  1  0
  5  4  2  0
  6  2  1  0
  7  6  2  0
  9 10  1  0
 10 12  1  0
 11 10  2  0
 13 12  1  1
 13 14  1  0
 14  6  1  0
 15 13  1  0
 15 16  2  0
 17 18  1  0
 18 28  2  0
 19 18  1  0
 19 20  2  0
 20 21  1  0
 21 27  2  0
 21 22  1  0
 23 24  1  0
 23 22  1  1
 23 25  1  0
 24 15  1  0
 25 26  1  0
 28 27  1  0
 29 25  2  0
M  END
$$$$
