DNY.pdb
     RDKit          3D

 29 29  0  0  1  0  0  0  0  0999 V2000
   28.2151  -22.3311  -16.7943 N   0  0  0  0  0  0  0  0  0  0  0  0
   27.7781  -21.1811  -16.0550 C   0  0  1  0  0  0  0  0  0  0  0  0
   27.3449  -20.0403  -16.9121 C   0  0  0  0  0  0  0  0  0  0  0  0
   28.4095  -19.4815  -17.7556 C   0  0  0  0  0  0  0  0  0  0  0  0
   28.6075  -19.8681  -18.9170 O   0  0  0  0  0  0  0  0  0  0  0  0
   26.7564  -21.4719  -15.0394 C   0  0  0  0  0  0  0  0  0  0  0  0
   25.8567  -22.3017  -15.2764 O   0  0  0  0  0  0  0  0  0  0  0  0
   29.2473  -18.4790  -17.2697 O   0  0  0  0  0  0  0  0  0  0  0  0
   25.5049  -21.6125   -9.3079 N   0  0  0  0  0  0  0  0  0  0  0  0
   25.2249  -20.7955  -10.4282 C   0  0  0  0  0  0  0  0  0  0  0  0
   24.0858  -20.2882  -10.5364 O   0  0  0  0  0  0  0  0  0  0  0  0
   26.2549  -20.5443  -11.4502 C   0  0  0  0  0  0  0  0  0  0  0  0
   25.8028  -21.0593  -12.7685 C   0  0  2  0  0  0  0  0  0  0  0  0
   26.7802  -20.8124  -13.7909 N   0  0  0  0  0  0  0  0  0  0  0  0
   24.5336  -20.4141  -13.2193 C   0  0  0  0  0  0  0  0  0  0  0  0
   24.5268  -19.2196  -13.5937 O   0  0  0  0  0  0  0  0  0  0  0  0
   17.2610  -18.3072  -17.3132 O   0  0  0  0  0  0  0  0  0  0  0  0
   18.4294  -18.8888  -16.7859 C   0  0  0  0  0  0  0  0  0  0  0  0
   19.5714  -18.1464  -16.5972 C   0  0  0  0  0  0  0  0  0  0  0  0
   20.7434  -18.6979  -16.0761 C   0  0  0  0  0  0  0  0  0  0  0  0
   20.7605  -20.0326  -15.7378 C   0  0  0  0  0  0  0  0  0  0  0  0
   21.9726  -20.6570  -15.1857 C   0  0  0  0  0  0  0  0  0  0  0  0
   22.0580  -20.5441  -13.6754 C   0  0  2  0  0  0  0  0  0  0  0  0
   23.2996  -21.1139  -13.2431 N   0  0  0  0  0  0  0  0  0  0  0  0
   20.8816  -21.1805  -13.0846 C   0  0  0  0  0  0  0  0  0  0  0  0
   20.8575  -22.5586  -12.9449 O   0  0  0  0  0  0  0  0  0  0  0  0
   19.6030  -20.7716  -15.9323 C   0  0  0  0  0  0  0  0  0  0  0  0
   18.4413  -20.2154  -16.4511 C   0  0  0  0  0  0  0  0  0  0  0  0
   19.8873  -20.5231  -12.6974 O   0  0  0  0  0  0  0  0  0  0  0  0
  2  1  1  6
  2  3  1  0
  4  8  1  0
  4  3  1  0
  5  4  2  0
  6  2  1  0
  7  6  2  0
  9 10  1  0
 10 12  1  0
 11 10  2  0
 13 12  1  1
 13 14  1  0
 14  6  1  0
 15 13  1  0
 15 16  2  0
 17 18  1  0
 18 28  2  0
 19 18  1  0
 19 20  2  0
 20 21  1  0
 21 27  2  0
 21 22  1  0
 23 24  1  0
 23 22  1  6
 23 25  1  0
 24 15  1  0
 25 26  1  0
 28 27  1  0
 29 25  2  0
M  END
$$$$
