DNY.pdb
     RDKit          3D

 29 29  0  0  1  0  0  0  0  0999 V2000
   15.1195  -10.1268  -13.2323 N   0  0  0  0  0  0  0  0  0  0  0  0
   16.0437   -9.8123  -12.1803 C   0  0  1  0  0  0  0  0  0  0  0  0
   17.4750   -9.9876  -12.5605 C   0  0  0  0  0  0  0  0  0  0  0  0
   17.8271  -11.3534  -12.9703 C   0  0  0  0  0  0  0  0  0  0  0  0
   17.1212  -12.3333  -12.6890 O   0  0  0  0  0  0  0  0  0  0  0  0
   15.8363   -8.4901  -11.5732 C   0  0  0  0  0  0  0  0  0  0  0  0
   15.6549   -7.4908  -12.2962 O   0  0  0  0  0  0  0  0  0  0  0  0
   18.9873  -11.5975  -13.7032 O   0  0  0  0  0  0  0  0  0  0  0  0
   14.8288   -4.8106   -8.2412 N   0  0  0  0  0  0  0  0  0  0  0  0
   14.4178   -6.0280   -7.6496 C   0  0  0  0  0  0  0  0  0  0  0  0
   13.7304   -5.9900   -6.6042 O   0  0  0  0  0  0  0  0  0  0  0  0
   14.7904   -7.3189   -8.2522 C   0  0  0  0  0  0  0  0  0  0  0  0
   15.5236   -7.0956   -9.5252 C   0  0  2  0  0  0  0  0  0  0  0  0
   15.8459   -8.3377  -10.1692 N   0  0  0  0  0  0  0  0  0  0  0  0
   16.8126   -6.3720   -9.3124 C   0  0  0  0  0  0  0  0  0  0  0  0
   17.4544   -6.5181   -8.2477 O   0  0  0  0  0  0  0  0  0  0  0  0
   21.6226   -7.7188  -15.0639 O   0  0  0  0  0  0  0  0  0  0  0  0
   21.1490   -7.2641  -13.8188 C   0  0  0  0  0  0  0  0  0  0  0  0
   21.4442   -6.0008  -13.3630 C   0  0  0  0  0  0  0  0  0  0  0  0
   20.9874   -5.5247  -12.1327 C   0  0  0  0  0  0  0  0  0  0  0  0
   20.2134   -6.3466  -11.3442 C   0  0  0  0  0  0  0  0  0  0  0  0
   19.7101   -5.8881  -10.0402 C   0  0  0  0  0  0  0  0  0  0  0  0
   18.6223   -4.8382  -10.1645 C   0  0  2  0  0  0  0  0  0  0  0  0
   17.3583   -5.5012  -10.2907 N   0  0  0  0  0  0  0  0  0  0  0  0
   18.9390   -3.9572  -11.2877 C   0  0  0  0  0  0  0  0  0  0  0  0
   18.1023   -3.9427  -12.3917 O   0  0  0  0  0  0  0  0  0  0  0  0
   19.9219   -7.6186  -11.8139 C   0  0  0  0  0  0  0  0  0  0  0  0
   20.3801   -8.0845  -13.0391 C   0  0  0  0  0  0  0  0  0  0  0  0
   19.9451   -3.2099  -11.2905 O   0  0  0  0  0  0  0  0  0  0  0  0
  2  1  1  6
  2  3  1  0
  4  8  1  0
  4  3  1  0
  5  4  2  0
  6  2  1  0
  7  6  2  0
  9 10  1  0
 10 12  1  0
 11 10  2  0
 13 12  1  1
 13 14  1  0
 14  6  1  0
 15 13  1  0
 15 16  2  0
 17 18  1  0
 18 28  2  0
 19 18  1  0
 19 20  2  0
 20 21  1  0
 21 27  2  0
 21 22  1  0
 23 24  1  0
 23 22  1  6
 23 25  1  0
 24 15  1  0
 25 26  1  0
 28 27  1  0
 29 25  2  0
M  END
$$$$
