DNY.pdb
     RDKit          3D

 29 29  0  0  1  0  0  0  0  0999 V2000
   22.4214  -11.2548  -17.3433 N   0  0  0  0  0  0  0  0  0  0  0  0
   21.0585  -11.2016  -16.8965 C   0  0  1  0  0  0  0  0  0  0  0  0
   20.5869  -12.4568  -16.2439 C   0  0  0  0  0  0  0  0  0  0  0  0
   20.8295  -13.6733  -17.0304 C   0  0  0  0  0  0  0  0  0  0  0  0
   20.9917  -13.6475  -18.2594 O   0  0  0  0  0  0  0  0  0  0  0  0
   20.7478  -10.0403  -16.0513 C   0  0  0  0  0  0  0  0  0  0  0  0
   19.6907  -10.0116  -15.3910 O   0  0  0  0  0  0  0  0  0  0  0  0
   20.8873  -14.9199  -16.4095 O   0  0  0  0  0  0  0  0  0  0  0  0
   22.8219   -4.6376  -14.2027 N   0  0  0  0  0  0  0  0  0  0  0  0
   22.2983   -5.9260  -13.9444 C   0  0  0  0  0  0  0  0  0  0  0  0
   21.5664   -6.0911  -12.9425 O   0  0  0  0  0  0  0  0  0  0  0  0
   22.6071   -7.0548  -14.8382 C   0  0  0  0  0  0  0  0  0  0  0  0
   21.3585   -7.7706  -15.2072 C   0  0  2  0  0  0  0  0  0  0  0  0
   21.6380   -8.9461  -15.9830 N   0  0  0  0  0  0  0  0  0  0  0  0
   20.4434   -6.9202  -16.0256 C   0  0  0  0  0  0  0  0  0  0  0  0
   20.7186   -6.6568  -17.2180 O   0  0  0  0  0  0  0  0  0  0  0  0
   13.3995   -3.0140  -19.4268 O   0  0  0  0  0  0  0  0  0  0  0  0
   14.2939   -3.7808  -18.6565 C   0  0  0  0  0  0  0  0  0  0  0  0
   15.2779   -4.5361  -19.2498 C   0  0  0  0  0  0  0  0  0  0  0  0
   16.1779   -5.3052  -18.5098 C   0  0  0  0  0  0  0  0  0  0  0  0
   16.0800   -5.3105  -17.1363 C   0  0  0  0  0  0  0  0  0  0  0  0
   17.0059   -6.1059  -16.3155 C   0  0  0  0  0  0  0  0  0  0  0  0
   18.3831   -5.4793  -16.2057 C   0  0  2  0  0  0  0  0  0  0  0  0
   19.2416   -6.3818  -15.4975 N   0  0  0  0  0  0  0  0  0  0  0  0
   18.2585   -4.1673  -15.5725 C   0  0  0  0  0  0  0  0  0  0  0  0
   18.3281   -3.0285  -16.3583 O   0  0  0  0  0  0  0  0  0  0  0  0
   15.0839   -4.5449  -16.5486 C   0  0  0  0  0  0  0  0  0  0  0  0
   14.1927   -3.7825  -17.2919 C   0  0  0  0  0  0  0  0  0  0  0  0
   18.0904   -4.0321  -14.3379 O   0  0  0  0  0  0  0  0  0  0  0  0
  2  1  1  1
  2  3  1  0
  4  8  1  0
  4  3  1  0
  5  4  2  0
  6  2  1  0
  7  6  2  0
  9 10  1  0
 10 12  1  0
 11 10  2  0
 13 12  1  6
 13 14  1  0
 14  6  1  0
 15 13  1  0
 15 16  2  0
 17 18  1  0
 18 28  2  0
 19 18  1  0
 19 20  2  0
 20 21  1  0
 21 27  2  0
 21 22  1  0
 23 24  1  0
 23 22  1  1
 23 25  1  0
 24 15  1  0
 25 26  1  0
 28 27  1  0
 29 25  2  0
M  END
$$$$
