DNY.pdb
     RDKit          3D

 29 29  0  0  1  0  0  0  0  0999 V2000
   35.8934   -5.0654  -14.2920 N   0  0  0  0  0  0  0  0  0  0  0  0
   36.7567   -6.1252  -13.8545 C   0  0  1  0  0  0  0  0  0  0  0  0
   37.0558   -7.1358  -14.9095 C   0  0  0  0  0  0  0  0  0  0  0  0
   35.8797   -7.5820  -15.6679 C   0  0  0  0  0  0  0  0  0  0  0  0
   35.0111   -8.3161  -15.1739 O   0  0  0  0  0  0  0  0  0  0  0  0
   38.0011   -5.6648  -13.2227 C   0  0  0  0  0  0  0  0  0  0  0  0
   38.8259   -6.4926  -12.7882 O   0  0  0  0  0  0  0  0  0  0  0  0
   35.6976   -7.1869  -16.9921 O   0  0  0  0  0  0  0  0  0  0  0  0
   42.6341   -2.1002  -13.5987 N   0  0  0  0  0  0  0  0  0  0  0  0
   41.6853   -2.8617  -12.8769 C   0  0  0  0  0  0  0  0  0  0  0  0
   41.9186   -3.1391  -11.6788 O   0  0  0  0  0  0  0  0  0  0  0  0
   40.4436   -3.3204  -13.5219 C   0  0  0  0  0  0  0  0  0  0  0  0
   39.4761   -3.7857  -12.4947 C   0  0  2  0  0  0  0  0  0  0  0  0
   38.2718   -4.2846  -13.0968 N   0  0  0  0  0  0  0  0  0  0  0  0
   39.0721   -2.6891  -11.5648 C   0  0  0  0  0  0  0  0  0  0  0  0
   37.9915   -2.0801  -11.7330 O   0  0  0  0  0  0  0  0  0  0  0  0
   34.0223    1.0698   -7.0160 O   0  0  0  0  0  0  0  0  0  0  0  0
   35.0793    0.2363   -7.4276 C   0  0  0  0  0  0  0  0  0  0  0  0
   36.1186   -0.0668   -6.5797 C   0  0  0  0  0  0  0  0  0  0  0  0
   37.1789   -0.8905   -6.9621 C   0  0  0  0  0  0  0  0  0  0  0  0
   37.1882   -1.4204   -8.2330 C   0  0  0  0  0  0  0  0  0  0  0  0
   38.2847   -2.2930   -8.6802 C   0  0  0  0  0  0  0  0  0  0  0  0
   39.4092   -1.5287   -9.3528 C   0  0  2  0  0  0  0  0  0  0  0  0
   39.8810   -2.2951  -10.4677 N   0  0  0  0  0  0  0  0  0  0  0  0
   40.4431   -1.2353   -8.3613 C   0  0  0  0  0  0  0  0  0  0  0  0
   40.1749   -0.3208   -7.3558 O   0  0  0  0  0  0  0  0  0  0  0  0
   36.1349   -1.1081   -9.0797 C   0  0  0  0  0  0  0  0  0  0  0  0
   35.0838   -0.2879   -8.6914 C   0  0  0  0  0  0  0  0  0  0  0  0
   41.5703   -1.7825   -8.3863 O   0  0  0  0  0  0  0  0  0  0  0  0
  2  1  1  6
  2  3  1  0
  4  8  1  0
  4  3  1  0
  5  4  2  0
  6  2  1  0
  7  6  2  0
  9 10  1  0
 10 12  1  0
 11 10  2  0
 13 12  1  6
 13 14  1  0
 14  6  1  0
 15 13  1  0
 15 16  2  0
 17 18  1  0
 18 28  2  0
 19 18  1  0
 19 20  2  0
 20 21  1  0
 21 27  2  0
 21 22  1  0
 23 24  1  0
 23 22  1  1
 23 25  1  0
 24 15  1  0
 25 26  1  0
 28 27  1  0
 29 25  2  0
M  END
$$$$
