DNY.pdb
     RDKit          3D

 29 29  0  0  1  0  0  0  0  0999 V2000
   18.6053   -4.7776  -15.0478 N   0  0  0  0  0  0  0  0  0  0  0  0
   17.6725   -5.3565  -14.1234 C   0  0  1  0  0  0  0  0  0  0  0  0
   16.2715   -4.8763  -14.2978 C   0  0  0  0  0  0  0  0  0  0  0  0
   16.1088   -3.4241  -14.1493 C   0  0  0  0  0  0  0  0  0  0  0  0
   16.6585   -2.7845  -13.2404 O   0  0  0  0  0  0  0  0  0  0  0  0
   17.7055   -6.8249  -14.0762 C   0  0  0  0  0  0  0  0  0  0  0  0
   17.4010   -7.4906  -15.0853 O   0  0  0  0  0  0  0  0  0  0  0  0
   15.3172   -2.7038  -15.0422 O   0  0  0  0  0  0  0  0  0  0  0  0
   21.6253   -8.6256  -14.0564 N   0  0  0  0  0  0  0  0  0  0  0  0
   20.3485   -9.2268  -13.9591 C   0  0  0  0  0  0  0  0  0  0  0  0
   19.8185   -9.6903  -14.9939 O   0  0  0  0  0  0  0  0  0  0  0  0
   19.6538   -9.3075  -12.6633 C   0  0  0  0  0  0  0  0  0  0  0  0
   18.2281   -8.9209  -12.8231 C   0  0  2  0  0  0  0  0  0  0  0  0
   18.0759   -7.4948  -12.8894 N   0  0  0  0  0  0  0  0  0  0  0  0
   17.3861   -9.3928  -11.6833 C   0  0  0  0  0  0  0  0  0  0  0  0
   17.7990   -9.2942  -10.5057 O   0  0  0  0  0  0  0  0  0  0  0  0
   15.3712   -4.5988   -8.5323 O   0  0  0  0  0  0  0  0  0  0  0  0
   15.0556   -5.8723   -9.0423 C   0  0  0  0  0  0  0  0  0  0  0  0
   14.6949   -6.0429  -10.3582 C   0  0  0  0  0  0  0  0  0  0  0  0
   14.3772   -7.2942  -10.8897 C   0  0  0  0  0  0  0  0  0  0  0  0
   14.4254   -8.3996  -10.0700 C   0  0  0  0  0  0  0  0  0  0  0  0
   14.0986   -9.7379  -10.5858 C   0  0  0  0  0  0  0  0  0  0  0  0
   15.3293  -10.5856  -10.8466 C   0  0  2  0  0  0  0  0  0  0  0  0
   16.1025   -9.9641  -11.8806 N   0  0  0  0  0  0  0  0  0  0  0  0
   14.9077  -11.9487  -11.1663 C   0  0  0  0  0  0  0  0  0  0  0  0
   14.3073  -12.7182  -10.1832 O   0  0  0  0  0  0  0  0  0  0  0  0
   14.7904   -8.2158   -8.7446 C   0  0  0  0  0  0  0  0  0  0  0  0
   15.1051   -6.9677   -8.2238 C   0  0  0  0  0  0  0  0  0  0  0  0
   15.0700  -12.4514  -12.3028 O   0  0  0  0  0  0  0  0  0  0  0  0
  2  1  1  6
  2  3  1  0
  4  8  1  0
  4  3  1  0
  5  4  2  0
  6  2  1  0
  7  6  2  0
  9 10  1  0
 10 12  1  0
 11 10  2  0
 13 12  1  1
 13 14  1  0
 14  6  1  0
 15 13  1  0
 15 16  2  0
 17 18  1  0
 18 28  2  0
 19 18  1  0
 19 20  2  0
 20 21  1  0
 21 27  2  0
 21 22  1  0
 23 24  1  0
 23 22  1  6
 23 25  1  0
 24 15  1  0
 25 26  1  0
 28 27  1  0
 29 25  2  0
M  END
$$$$
