DNY.pdb
     RDKit          3D

 29 29  0  0  1  0  0  0  0  0999 V2000
   24.5623  -10.5193  -18.1896 N   0  0  0  0  0  0  0  0  0  0  0  0
   23.7619   -9.9883  -19.2561 C   0  0  1  0  0  0  0  0  0  0  0  0
   23.2443  -11.0235  -20.1965 C   0  0  0  0  0  0  0  0  0  0  0  0
   24.2763  -11.9195  -20.7345 C   0  0  0  0  0  0  0  0  0  0  0  0
   24.1726  -13.1543  -20.6883 O   0  0  0  0  0  0  0  0  0  0  0  0
   22.6685   -9.1139  -18.8093 C   0  0  0  0  0  0  0  0  0  0  0  0
   21.9421   -8.5428  -19.6461 O   0  0  0  0  0  0  0  0  0  0  0  0
   25.4271  -11.4017  -21.3264 O   0  0  0  0  0  0  0  0  0  0  0  0
   19.2059   -9.5409  -17.5997 N   0  0  0  0  0  0  0  0  0  0  0  0
   19.5293   -9.4520  -16.2254 C   0  0  0  0  0  0  0  0  0  0  0  0
   18.8097  -10.0518  -15.3953 O   0  0  0  0  0  0  0  0  0  0  0  0
   20.6928   -8.6686  -15.7774 C   0  0  0  0  0  0  0  0  0  0  0  0
   21.3808   -8.0617  -16.9462 C   0  0  2  0  0  0  0  0  0  0  0  0
   22.4341   -8.9078  -17.4320 N   0  0  0  0  0  0  0  0  0  0  0  0
   22.0031   -6.7458  -16.6118 C   0  0  0  0  0  0  0  0  0  0  0  0
   22.9007   -6.6708  -15.7426 O   0  0  0  0  0  0  0  0  0  0  0  0
   24.0972    1.8553  -17.3022 O   0  0  0  0  0  0  0  0  0  0  0  0
   23.5868    0.5609  -17.5155 C   0  0  0  0  0  0  0  0  0  0  0  0
   22.2589    0.2750  -17.3010 C   0  0  0  0  0  0  0  0  0  0  0  0
   21.7267   -0.9995  -17.5049 C   0  0  0  0  0  0  0  0  0  0  0  0
   22.5579   -2.0092  -17.9360 C   0  0  0  0  0  0  0  0  0  0  0  0
   22.0417   -3.3677  -18.1638 C   0  0  0  0  0  0  0  0  0  0  0  0
   22.1406   -4.2496  -16.9336 C   0  0  2  0  0  0  0  0  0  0  0  0
   21.6116   -5.5423  -17.2532 N   0  0  0  0  0  0  0  0  0  0  0  0
   21.4551   -3.5922  -15.8219 C   0  0  0  0  0  0  0  0  0  0  0  0
   22.1787   -2.7706  -14.9730 O   0  0  0  0  0  0  0  0  0  0  0  0
   23.8952   -1.7094  -18.1491 C   0  0  0  0  0  0  0  0  0  0  0  0
   24.4167   -0.4389  -17.9441 C   0  0  0  0  0  0  0  0  0  0  0  0
   20.2301   -3.7445  -15.6056 O   0  0  0  0  0  0  0  0  0  0  0  0
  2  1  1  1
  2  3  1  0
  4  8  1  0
  4  3  1  0
  5  4  2  0
  6  2  1  0
  7  6  2  0
  9 10  1  0
 10 12  1  0
 11 10  2  0
 13 12  1  1
 13 14  1  0
 14  6  1  0
 15 13  1  0
 15 16  2  0
 17 18  1  0
 18 28  2  0
 19 18  1  0
 19 20  2  0
 20 21  1  0
 21 27  2  0
 21 22  1  0
 23 24  1  0
 23 22  1  6
 23 25  1  0
 24 15  1  0
 25 26  1  0
 28 27  1  0
 29 25  2  0
M  END
$$$$
