DNY.pdb
     RDKit          3D

 29 29  0  0  1  0  0  0  0  0999 V2000
   28.2567  -20.7665  -17.6906 N   0  0  0  0  0  0  0  0  0  0  0  0
   28.1864  -22.1755  -17.4268 C   0  0  1  0  0  0  0  0  0  0  0  0
   29.4623  -22.7606  -16.9233 C   0  0  0  0  0  0  0  0  0  0  0  0
   29.8295  -24.0369  -17.5507 C   0  0  0  0  0  0  0  0  0  0  0  0
   29.1632  -24.5420  -18.4664 O   0  0  0  0  0  0  0  0  0  0  0  0
   27.0679  -22.5697  -16.5588 C   0  0  0  0  0  0  0  0  0  0  0  0
   27.0582  -22.2328  -15.3586 O   0  0  0  0  0  0  0  0  0  0  0  0
   30.9603  -24.7349  -17.1302 O   0  0  0  0  0  0  0  0  0  0  0  0
   22.7519  -23.2435  -14.0817 N   0  0  0  0  0  0  0  0  0  0  0  0
   22.6555  -23.1386  -15.4891 C   0  0  0  0  0  0  0  0  0  0  0  0
   21.5722  -23.4308  -16.0439 O   0  0  0  0  0  0  0  0  0  0  0  0
   23.8083  -22.6926  -16.2893 C   0  0  0  0  0  0  0  0  0  0  0  0
   24.8742  -23.7277  -16.2707 C   0  0  2  0  0  0  0  0  0  0  0  0
   25.9990  -23.3363  -17.0726 N   0  0  0  0  0  0  0  0  0  0  0  0
   24.3961  -25.0371  -16.8066 C   0  0  0  0  0  0  0  0  0  0  0  0
   24.2600  -25.2069  -18.0394 O   0  0  0  0  0  0  0  0  0  0  0  0
   29.7921  -29.0537  -17.4562 O   0  0  0  0  0  0  0  0  0  0  0  0
   28.4649  -28.9120  -17.0090 C   0  0  0  0  0  0  0  0  0  0  0  0
   27.5366  -29.9067  -17.2079 C   0  0  0  0  0  0  0  0  0  0  0  0
   26.2144  -29.7923  -16.7746 C   0  0  0  0  0  0  0  0  0  0  0  0
   25.8218  -28.6437  -16.1244 C   0  0  0  0  0  0  0  0  0  0  0  0
   24.4391  -28.4784  -15.6504 C   0  0  0  0  0  0  0  0  0  0  0  0
   23.6735  -27.4213  -16.4235 C   0  0  2  0  0  0  0  0  0  0  0  0
   24.0801  -26.1288  -15.9574 N   0  0  0  0  0  0  0  0  0  0  0  0
   22.2404  -27.6738  -16.2810 C   0  0  0  0  0  0  0  0  0  0  0  0
   21.6899  -28.7976  -16.8754 O   0  0  0  0  0  0  0  0  0  0  0  0
   26.7664  -27.6470  -15.9292 C   0  0  0  0  0  0  0  0  0  0  0  0
   28.0798  -27.7688  -16.3632 C   0  0  0  0  0  0  0  0  0  0  0  0
   21.4855  -26.9076  -15.6378 O   0  0  0  0  0  0  0  0  0  0  0  0
  2  1  1  1
  2  3  1  0
  4  8  1  0
  4  3  1  0
  5  4  2  0
  6  2  1  0
  7  6  2  0
  9 10  1  0
 10 12  1  0
 11 10  2  0
 13 12  1  6
 13 14  1  0
 14  6  1  0
 15 13  1  0
 15 16  2  0
 17 18  1  0
 18 28  2  0
 19 18  1  0
 19 20  2  0
 20 21  1  0
 21 27  2  0
 21 22  1  0
 23 24  1  0
 23 22  1  1
 23 25  1  0
 24 15  1  0
 25 26  1  0
 28 27  1  0
 29 25  2  0
M  END
$$$$
