FGS.pdb
     RDKit          3D

 22 22  0  0  1  0  0  0  0  0999 V2000
    6.7399  -15.8173   25.3039 N   0  0  0  0  0  0  0  0  0  0  0  0
    7.2731  -15.3421   24.0420 C   0  0  1  0  0  0  0  0  0  0  0  0
    7.7400  -13.9261   24.1077 C   0  0  0  0  0  0  0  0  0  0  0  0
    7.1977  -13.1905   25.2817 C   0  0  0  0  0  0  0  0  0  0  0  0
    5.9054  -12.7120   25.1906 C   0  0  0  0  0  0  0  0  0  0  0  0
    5.3272  -12.0131   26.2433 C   0  0  0  0  0  0  0  0  0  0  0  0
    6.0743  -11.8077   27.3833 C   0  0  0  0  0  0  0  0  0  0  0  0
    7.3638  -12.2807   27.4843 C   0  0  0  0  0  0  0  0  0  0  0  0
    7.9001  -12.9675   26.4211 C   0  0  0  0  0  0  0  0  0  0  0  0
    8.3693  -16.2151   23.6171 C   0  0  0  0  0  0  0  0  0  0  0  0
    9.1178  -15.9063   22.6407 O   0  0  0  0  0  0  0  0  0  0  0  0
    8.6545  -17.4495   24.2704 N   0  0  0  0  0  0  0  0  0  0  0  0
    9.7535  -18.2952   23.9287 C   0  0  0  0  0  0  0  0  0  0  0  0
   10.7848  -18.3227   25.0134 C   0  0  0  0  0  0  0  0  0  0  0  0
   11.8324  -18.9905   24.8342 O   0  0  0  0  0  0  0  0  0  0  0  0
   11.0162  -15.5830   28.2580 O   0  0  0  0  0  0  0  0  0  0  0  0
   12.0362  -16.3750   27.7917 C   0  0  0  0  0  0  0  0  0  0  0  0
   11.5577  -17.7349   27.3045 C   0  0  2  0  0  0  0  0  0  0  0  0
   10.6148  -17.6209   26.2307 N   0  0  0  0  0  0  0  0  0  0  0  0
   11.0657  -18.5663   28.4230 C   0  0  0  0  0  0  0  0  0  0  0  0
   11.9296  -18.8115   29.4807 O   0  0  0  0  0  0  0  0  0  0  0  0
    9.9155  -19.0672   28.4809 O   0  0  0  0  0  0  0  0  0  0  0  0
  2  1  1  1
  3  2  1  0
  3  4  1  0
  4  5  2  0
  5  6  1  0
  7  6  2  0
  8  7  1  0
  9  4  1  0
  9  8  2  0
 10  2  1  0
 10 12  1  0
 11 10  2  0
 13 12  1  0
 13 14  1  0
 14 19  1  0
 15 14  2  0
 16 17  1  0
 18 20  1  0
 18 17  1  1
 19 18  1  0
 20 21  1  0
 22 20  2  0
M  END
$$$$
