FGS.pdb
     RDKit          3D

 22 22  0  0  1  0  0  0  0  0999 V2000
    6.2874  -16.6823   26.4147 N   0  0  0  0  0  0  0  0  0  0  0  0
    6.5482  -16.3437   25.0292 C   0  0  1  0  0  0  0  0  0  0  0  0
    7.6598  -15.3602   24.8733 C   0  0  0  0  0  0  0  0  0  0  0  0
    7.4158  -14.0883   25.6057 C   0  0  0  0  0  0  0  0  0  0  0  0
    8.3788  -13.6790   26.5070 C   0  0  0  0  0  0  0  0  0  0  0  0
    8.2243  -12.5036   27.2320 C   0  0  0  0  0  0  0  0  0  0  0  0
    7.0854  -11.7537   27.0308 C   0  0  0  0  0  0  0  0  0  0  0  0
    6.1191  -12.1529   26.1343 C   0  0  0  0  0  0  0  0  0  0  0  0
    6.3089  -13.3218   25.4364 C   0  0  0  0  0  0  0  0  0  0  0  0
    6.8462  -17.5645   24.2774 C   0  0  0  0  0  0  0  0  0  0  0  0
    6.1070  -18.5914   24.3673 O   0  0  0  0  0  0  0  0  0  0  0  0
    7.9730  -17.6669   23.4104 N   0  0  0  0  0  0  0  0  0  0  0  0
    7.8875  -18.0451   22.0358 C   0  0  0  0  0  0  0  0  0  0  0  0
    9.2428  -18.1553   21.4099 C   0  0  0  0  0  0  0  0  0  0  0  0
    9.3241  -18.4544   20.1936 O   0  0  0  0  0  0  0  0  0  0  0  0
   10.9786  -14.5601   21.5849 O   0  0  0  0  0  0  0  0  0  0  0  0
   10.7297  -15.7817   21.0094 C   0  0  0  0  0  0  0  0  0  0  0  0
   11.3836  -16.9349   21.7563 C   0  0  2  0  0  0  0  0  0  0  0  0
   10.4313  -17.9332   22.1458 N   0  0  0  0  0  0  0  0  0  0  0  0
   12.2090  -16.4497   22.8822 C   0  0  0  0  0  0  0  0  0  0  0  0
   11.6009  -16.3078   24.1213 O   0  0  0  0  0  0  0  0  0  0  0  0
   13.4269  -16.1564   22.7930 O   0  0  0  0  0  0  0  0  0  0  0  0
  2  1  1  1
  3  2  1  0
  3  4  1  0
  4  5  2  0
  5  6  1  0
  7  6  2  0
  8  7  1  0
  9  4  1  0
  9  8  2  0
 10  2  1  0
 10 12  1  0
 11 10  2  0
 13 12  1  0
 13 14  1  0
 14 19  1  0
 15 14  2  0
 16 17  1  0
 18 20  1  0
 18 17  1  1
 19 18  1  0
 20 21  1  0
 22 20  2  0
M  END
$$$$
