FGS.pdb
     RDKit          3D

 22 22  0  0  1  0  0  0  0  0999 V2000
    7.0213  -15.9251   24.7829 N   0  0  0  0  0  0  0  0  0  0  0  0
    7.7110  -14.9088   24.0124 C   0  0  1  0  0  0  0  0  0  0  0  0
    8.4472  -13.9333   24.8691 C   0  0  0  0  0  0  0  0  0  0  0  0
    7.5437  -13.1042   25.7116 C   0  0  0  0  0  0  0  0  0  0  0  0
    6.8627  -12.0753   25.0913 C   0  0  0  0  0  0  0  0  0  0  0  0
    6.0016  -11.2543   25.8094 C   0  0  0  0  0  0  0  0  0  0  0  0
    5.8421  -11.4907   27.1579 C   0  0  0  0  0  0  0  0  0  0  0  0
    6.5165  -12.5141   27.7860 C   0  0  0  0  0  0  0  0  0  0  0  0
    7.3593  -13.3042   27.0410 C   0  0  0  0  0  0  0  0  0  0  0  0
    8.6332  -15.5515   23.0738 C   0  0  0  0  0  0  0  0  0  0  0  0
    9.3749  -14.8676   22.3052 O   0  0  0  0  0  0  0  0  0  0  0  0
    8.7483  -16.9687   22.9720 N   0  0  0  0  0  0  0  0  0  0  0  0
    9.5202  -17.6344   21.9717 C   0  0  0  0  0  0  0  0  0  0  0  0
   10.9079  -17.9267   22.4513 C   0  0  0  0  0  0  0  0  0  0  0  0
   11.0798  -18.2240   23.6586 O   0  0  0  0  0  0  0  0  0  0  0  0
   13.3628  -19.6961   19.9860 O   0  0  0  0  0  0  0  0  0  0  0  0
   14.1156  -18.9136   20.8265 C   0  0  0  0  0  0  0  0  0  0  0  0
   13.3161  -18.3570   21.9954 C   0  0  2  0  0  0  0  0  0  0  0  0
   12.0279  -17.8781   21.5873 N   0  0  0  0  0  0  0  0  0  0  0  0
   14.0945  -17.3548   22.7530 C   0  0  0  0  0  0  0  0  0  0  0  0
   15.2273  -17.7855   23.4286 O   0  0  0  0  0  0  0  0  0  0  0  0
   13.7991  -16.1364   22.8269 O   0  0  0  0  0  0  0  0  0  0  0  0
  2  1  1  1
  3  2  1  0
  3  4  1  0
  4  5  2  0
  5  6  1  0
  7  6  2  0
  8  7  1  0
  9  4  1  0
  9  8  2  0
 10  2  1  0
 10 12  1  0
 11 10  2  0
 13 12  1  0
 13 14  1  0
 14 19  1  0
 15 14  2  0
 16 17  1  0
 18 20  1  0
 18 17  1  6
 19 18  1  0
 20 21  1  0
 22 20  2  0
M  END
$$$$
