FGS.pdb
     RDKit          3D

 22 22  0  0  1  0  0  0  0  0999 V2000
    7.3738  -15.5781   23.6786 N   0  0  0  0  0  0  0  0  0  0  0  0
    8.6575  -14.9931   24.0137 C   0  0  1  0  0  0  0  0  0  0  0  0
    8.7544  -14.5934   25.4483 C   0  0  0  0  0  0  0  0  0  0  0  0
    7.8349  -13.4788   25.8031 C   0  0  0  0  0  0  0  0  0  0  0  0
    6.5633  -13.8137   26.2253 C   0  0  0  0  0  0  0  0  0  0  0  0
    5.6446  -12.8307   26.5727 C   0  0  0  0  0  0  0  0  0  0  0  0
    6.0320  -11.5108   26.4864 C   0  0  0  0  0  0  0  0  0  0  0  0
    7.2976  -11.1662   26.0667 C   0  0  0  0  0  0  0  0  0  0  0  0
    8.1775  -12.1678   25.7317 C   0  0  0  0  0  0  0  0  0  0  0  0
    9.7251  -15.9385   23.6807 C   0  0  0  0  0  0  0  0  0  0  0  0
   10.9463  -15.6412   23.8513 O   0  0  0  0  0  0  0  0  0  0  0  0
    9.4548  -17.2341   23.1511 N   0  0  0  0  0  0  0  0  0  0  0  0
    9.4934  -18.4339   23.9249 C   0  0  0  0  0  0  0  0  0  0  0  0
   10.5983  -18.4024   24.9344 C   0  0  0  0  0  0  0  0  0  0  0  0
   11.7693  -18.6498   24.5563 O   0  0  0  0  0  0  0  0  0  0  0  0
   10.2115  -16.4422   28.3143 O   0  0  0  0  0  0  0  0  0  0  0  0
   11.3537  -17.2033   28.3515 C   0  0  0  0  0  0  0  0  0  0  0  0
   11.3711  -18.3008   27.2976 C   0  0  2  0  0  0  0  0  0  0  0  0
   10.3630  -18.1033   26.2976 N   0  0  0  0  0  0  0  0  0  0  0  0
   11.3210  -19.6427   27.9150 C   0  0  0  0  0  0  0  0  0  0  0  0
   10.3367  -20.5208   27.4845 O   0  0  0  0  0  0  0  0  0  0  0  0
   12.1112  -20.0429   28.8053 O   0  0  0  0  0  0  0  0  0  0  0  0
  2  1  1  1
  3  2  1  0
  3  4  1  0
  4  5  2  0
  5  6  1  0
  7  6  2  0
  8  7  1  0
  9  4  1  0
  9  8  2  0
 10  2  1  0
 10 12  1  0
 11 10  2  0
 13 12  1  0
 13 14  1  0
 14 19  1  0
 15 14  2  0
 16 17  1  0
 18 20  1  0
 18 17  1  1
 19 18  1  0
 20 21  1  0
 22 20  2  0
M  END
$$$$
