FGS.pdb
     RDKit          3D

 22 22  0  0  1  0  0  0  0  0999 V2000
    6.8095  -17.4074   24.1759 N   0  0  0  0  0  0  0  0  0  0  0  0
    7.2230  -16.0930   24.6274 C   0  0  1  0  0  0  0  0  0  0  0  0
    6.1264  -15.3436   25.3080 C   0  0  0  0  0  0  0  0  0  0  0  0
    6.4312  -13.8973   25.4781 C   0  0  0  0  0  0  0  0  0  0  0  0
    6.0561  -13.3042   26.6676 C   0  0  0  0  0  0  0  0  0  0  0  0
    6.3034  -11.9571   26.9026 C   0  0  0  0  0  0  0  0  0  0  0  0
    6.9330  -11.2244   25.9194 C   0  0  0  0  0  0  0  0  0  0  0  0
    7.3111  -11.8063   24.7298 C   0  0  0  0  0  0  0  0  0  0  0  0
    7.0488  -13.1415   24.5354 C   0  0  0  0  0  0  0  0  0  0  0  0
    8.3740  -16.2256   25.5229 C   0  0  0  0  0  0  0  0  0  0  0  0
    8.2592  -16.0546   26.7744 O   0  0  0  0  0  0  0  0  0  0  0  0
    9.6763  -16.5514   25.0432 N   0  0  0  0  0  0  0  0  0  0  0  0
   10.7226  -15.5950   24.8699 C   0  0  0  0  0  0  0  0  0  0  0  0
   11.9528  -16.2234   24.2931 C   0  0  0  0  0  0  0  0  0  0  0  0
   12.9611  -15.5037   24.0914 O   0  0  0  0  0  0  0  0  0  0  0  0
   13.2834  -19.5720   25.4138 O   0  0  0  0  0  0  0  0  0  0  0  0
   14.0385  -18.8727   24.5048 C   0  0  0  0  0  0  0  0  0  0  0  0
   13.1997  -18.1965   23.4303 C   0  0  2  0  0  0  0  0  0  0  0  0
   12.0129  -17.6000   23.9695 N   0  0  0  0  0  0  0  0  0  0  0  0
   12.9281  -19.1118   22.3021 C   0  0  0  0  0  0  0  0  0  0  0  0
   11.6117  -19.2664   21.8918 O   0  0  0  0  0  0  0  0  0  0  0  0
   13.8106  -19.7609   21.6881 O   0  0  0  0  0  0  0  0  0  0  0  0
  2  1  1  1
  3  2  1  0
  3  4  1  0
  4  5  2  0
  5  6  1  0
  7  6  2  0
  8  7  1  0
  9  4  1  0
  9  8  2  0
 10  2  1  0
 10 12  1  0
 11 10  2  0
 13 12  1  0
 13 14  1  0
 14 19  1  0
 15 14  2  0
 16 17  1  0
 18 20  1  0
 18 17  1  1
 19 18  1  0
 20 21  1  0
 22 20  2  0
M  END
$$$$
