FGS.pdb
     RDKit          3D

 22 22  0  0  1  0  0  0  0  0999 V2000
    7.1446  -16.4461   25.8120 N   0  0  0  0  0  0  0  0  0  0  0  0
    7.5181  -15.7701   24.5849 C   0  0  1  0  0  0  0  0  0  0  0  0
    8.3414  -14.5487   24.8247 C   0  0  0  0  0  0  0  0  0  0  0  0
    7.6481  -13.5385   25.6688 C   0  0  0  0  0  0  0  0  0  0  0  0
    6.5063  -12.9561   25.1544 C   0  0  0  0  0  0  0  0  0  0  0  0
    5.8026  -12.0024   25.8799 C   0  0  0  0  0  0  0  0  0  0  0  0
    6.2709  -11.6499   27.1274 C   0  0  0  0  0  0  0  0  0  0  0  0
    7.4084  -12.2247   27.6495 C   0  0  0  0  0  0  0  0  0  0  0  0
    8.0764  -13.1642   26.9008 C   0  0  0  0  0  0  0  0  0  0  0  0
    8.2399  -16.7019   23.7160 C   0  0  0  0  0  0  0  0  0  0  0  0
    8.5973  -17.8467   24.1291 O   0  0  0  0  0  0  0  0  0  0  0  0
    8.5786  -16.3783   22.3697 N   0  0  0  0  0  0  0  0  0  0  0  0
    9.2723  -17.2631   21.4891 C   0  0  0  0  0  0  0  0  0  0  0  0
   10.7398  -17.2932   21.7827 C   0  0  0  0  0  0  0  0  0  0  0  0
   11.4624  -18.1147   21.1675 O   0  0  0  0  0  0  0  0  0  0  0  0
   14.5580  -15.3899   24.1450 O   0  0  0  0  0  0  0  0  0  0  0  0
   13.2423  -15.2867   23.7662 C   0  0  0  0  0  0  0  0  0  0  0  0
   12.7135  -16.5505   23.1039 C   0  0  2  0  0  0  0  0  0  0  0  0
   11.3351  -16.4263   22.7301 N   0  0  0  0  0  0  0  0  0  0  0  0
   12.9856  -17.7463   23.9287 C   0  0  0  0  0  0  0  0  0  0  0  0
   14.1971  -18.3986   23.7497 O   0  0  0  0  0  0  0  0  0  0  0  0
   12.1922  -18.2133   24.7830 O   0  0  0  0  0  0  0  0  0  0  0  0
  2  1  1  1
  3  2  1  0
  3  4  1  0
  4  5  2  0
  5  6  1  0
  7  6  2  0
  8  7  1  0
  9  4  1  0
  9  8  2  0
 10  2  1  0
 10 12  1  0
 11 10  2  0
 13 12  1  0
 13 14  1  0
 14 19  1  0
 15 14  2  0
 16 17  1  0
 18 20  1  0
 18 17  1  1
 19 18  1  0
 20 21  1  0
 22 20  2  0
M  END
$$$$
