FGS.pdb
     RDKit          3D

 22 22  0  0  1  0  0  0  0  0999 V2000
    5.9231  -16.0866   24.1840 N   0  0  0  0  0  0  0  0  0  0  0  0
    7.3274  -16.1662   24.5363 C   0  0  1  0  0  0  0  0  0  0  0  0
    7.6331  -15.5185   25.8455 C   0  0  0  0  0  0  0  0  0  0  0  0
    7.1878  -14.1002   25.9088 C   0  0  0  0  0  0  0  0  0  0  0  0
    8.0571  -13.1392   25.4312 C   0  0  0  0  0  0  0  0  0  0  0  0
    7.7162  -11.7923   25.4572 C   0  0  0  0  0  0  0  0  0  0  0  0
    6.4880  -11.4362   25.9716 C   0  0  0  0  0  0  0  0  0  0  0  0
    5.6139  -12.3867   26.4503 C   0  0  0  0  0  0  0  0  0  0  0  0
    5.9880  -13.7088   26.4072 C   0  0  0  0  0  0  0  0  0  0  0  0
    7.7448  -17.5696   24.5586 C   0  0  0  0  0  0  0  0  0  0  0  0
    6.8951  -18.5110   24.5331 O   0  0  0  0  0  0  0  0  0  0  0  0
    9.1167  -17.9536   24.6099 N   0  0  0  0  0  0  0  0  0  0  0  0
    9.5674  -19.3069   24.5382 C   0  0  0  0  0  0  0  0  0  0  0  0
   11.0601  -19.3943   24.6080 C   0  0  0  0  0  0  0  0  0  0  0  0
   11.5905  -20.5114   24.8235 O   0  0  0  0  0  0  0  0  0  0  0  0
   13.2918  -15.9023   24.3724 O   0  0  0  0  0  0  0  0  0  0  0  0
   14.0204  -17.0613   24.2662 C   0  0  0  0  0  0  0  0  0  0  0  0
   13.2778  -18.2806   24.7927 C   0  0  2  0  0  0  0  0  0  0  0  0
   11.8887  -18.2593   24.4391 N   0  0  0  0  0  0  0  0  0  0  0  0
   13.5051  -18.4671   26.2411 C   0  0  0  0  0  0  0  0  0  0  0  0
   14.8144  -18.5859   26.6845 O   0  0  0  0  0  0  0  0  0  0  0  0
   12.5906  -18.5253   27.1000 O   0  0  0  0  0  0  0  0  0  0  0  0
  2  1  1  1
  3  2  1  0
  3  4  1  0
  4  5  2  0
  5  6  1  0
  7  6  2  0
  8  7  1  0
  9  4  1  0
  9  8  2  0
 10  2  1  0
 10 12  1  0
 11 10  2  0
 13 12  1  0
 13 14  1  0
 14 19  1  0
 15 14  2  0
 16 17  1  0
 18 20  1  0
 18 17  1  1
 19 18  1  0
 20 21  1  0
 22 20  2  0
M  END
$$$$
