FGS.pdb
     RDKit          3D

 22 22  0  0  1  0  0  0  0  0999 V2000
    6.3870  -16.3860   25.9970 N   0  0  0  0  0  0  0  0  0  0  0  0
    7.2949  -15.9421   24.9572 C   0  0  1  0  0  0  0  0  0  0  0  0
    8.1917  -14.8367   25.4054 C   0  0  0  0  0  0  0  0  0  0  0  0
    7.4460  -13.6653   25.9396 C   0  0  0  0  0  0  0  0  0  0  0  0
    6.9427  -12.7612   25.0249 C   0  0  0  0  0  0  0  0  0  0  0  0
    6.2365  -11.6401   25.4439 C   0  0  0  0  0  0  0  0  0  0  0  0
    6.0491  -11.4504   26.7961 C   0  0  0  0  0  0  0  0  0  0  0  0
    6.5467  -12.3460   27.7165 C   0  0  0  0  0  0  0  0  0  0  0  0
    7.2400  -13.4426   27.2622 C   0  0  0  0  0  0  0  0  0  0  0  0
    8.0909  -17.0783   24.4884 C   0  0  0  0  0  0  0  0  0  0  0  0
    7.8597  -18.2577   24.8939 O   0  0  0  0  0  0  0  0  0  0  0  0
    9.1603  -16.9246   23.5584 N   0  0  0  0  0  0  0  0  0  0  0  0
    9.1341  -17.4339   22.2244 C   0  0  0  0  0  0  0  0  0  0  0  0
   10.3648  -17.0491   21.4640 C   0  0  0  0  0  0  0  0  0  0  0  0
   10.5800  -17.5871   20.3506 O   0  0  0  0  0  0  0  0  0  0  0  0
   13.5310  -13.9956   19.9591 O   0  0  0  0  0  0  0  0  0  0  0  0
   12.3806  -14.3716   20.6075 C   0  0  0  0  0  0  0  0  0  0  0  0
   12.4773  -15.7539   21.2364 C   0  0  2  0  0  0  0  0  0  0  0  0
   11.2899  -16.1001   21.9611 N   0  0  0  0  0  0  0  0  0  0  0  0
   13.7096  -15.8961   22.0399 C   0  0  0  0  0  0  0  0  0  0  0  0
   14.9288  -15.7730   21.3890 O   0  0  0  0  0  0  0  0  0  0  0  0
   13.7279  -16.1214   23.2753 O   0  0  0  0  0  0  0  0  0  0  0  0
  2  1  1  1
  3  2  1  0
  3  4  1  0
  4  5  2  0
  5  6  1  0
  7  6  2  0
  8  7  1  0
  9  4  1  0
  9  8  2  0
 10  2  1  0
 10 12  1  0
 11 10  2  0
 13 12  1  0
 13 14  1  0
 14 19  1  0
 15 14  2  0
 16 17  1  0
 18 20  1  0
 18 17  1  1
 19 18  1  0
 20 21  1  0
 22 20  2  0
M  END
$$$$
