FGS.pdb
     RDKit          3D

 22 22  0  0  1  0  0  0  0  0999 V2000
    7.5639  -16.1378   25.0618 N   0  0  0  0  0  0  0  0  0  0  0  0
    7.5145  -15.3374   23.8538 C   0  0  1  0  0  0  0  0  0  0  0  0
    8.1468  -13.9961   24.0221 C   0  0  0  0  0  0  0  0  0  0  0  0
    7.5684  -13.2201   25.1521 C   0  0  0  0  0  0  0  0  0  0  0  0
    8.3550  -13.0493   26.2744 C   0  0  0  0  0  0  0  0  0  0  0  0
    7.8866  -12.3388   27.3729 C   0  0  0  0  0  0  0  0  0  0  0  0
    6.6162  -11.8070   27.3171 C   0  0  0  0  0  0  0  0  0  0  0  0
    5.8238  -11.9714   26.2028 C   0  0  0  0  0  0  0  0  0  0  0  0
    6.3233  -12.6808   25.1365 C   0  0  0  0  0  0  0  0  0  0  0  0
    8.1613  -16.0658   22.7604 C   0  0  0  0  0  0  0  0  0  0  0  0
    8.3609  -15.5213   21.6323 O   0  0  0  0  0  0  0  0  0  0  0  0
    8.5990  -17.4152   22.9006 N   0  0  0  0  0  0  0  0  0  0  0  0
    9.2087  -18.1670   21.8505 C   0  0  0  0  0  0  0  0  0  0  0  0
   10.7026  -18.1098   21.9284 C   0  0  0  0  0  0  0  0  0  0  0  0
   11.3762  -18.8169   21.1399 O   0  0  0  0  0  0  0  0  0  0  0  0
   13.2393  -15.1107   22.6652 O   0  0  0  0  0  0  0  0  0  0  0  0
   13.6130  -16.4023   22.3866 C   0  0  0  0  0  0  0  0  0  0  0  0
   12.7767  -17.4358   23.1268 C   0  0  2  0  0  0  0  0  0  0  0  0
   11.3760  -17.2854   22.8613 N   0  0  0  0  0  0  0  0  0  0  0  0
   13.0950  -17.4542   24.5700 C   0  0  0  0  0  0  0  0  0  0  0  0
   14.4080  -17.7025   24.9438 O   0  0  0  0  0  0  0  0  0  0  0  0
   12.2552  -17.2599   25.4833 O   0  0  0  0  0  0  0  0  0  0  0  0
  2  1  1  1
  3  2  1  0
  3  4  1  0
  4  5  2  0
  5  6  1  0
  7  6  2  0
  8  7  1  0
  9  4  1  0
  9  8  2  0
 10  2  1  0
 10 12  1  0
 11 10  2  0
 13 12  1  0
 13 14  1  0
 14 19  1  0
 15 14  2  0
 16 17  1  0
 18 20  1  0
 18 17  1  6
 19 18  1  0
 20 21  1  0
 22 20  2  0
M  END
$$$$
