SFM.pdb
     RDKit          3D

 26 26  0  0  1  0  0  0  0  0999 V2000
   11.8677  -19.1644   20.3437 O   0  0  0  0  0  0  0  0  0  0  0  0
   10.4960  -19.1220   20.0340 C   0  0  0  0  0  0  0  0  0  0  0  0
   10.1436  -17.7132   19.5654 C   0  0  2  0  0  0  0  0  0  0  0  0
   11.1851  -17.2289   18.6863 N   0  0  0  0  0  0  0  0  0  0  0  0
   10.0496  -16.8451   20.7495 C   0  0  0  0  0  0  0  0  0  0  0  0
   10.9671  -16.0482   21.0490 O   0  0  0  0  0  0  0  0  0  0  0  0
    8.8885  -16.9122   21.5748 N   0  0  0  0  0  0  0  0  0  0  0  0
    8.7533  -16.0042   22.6648 C   0  0  1  0  0  0  0  0  0  0  0  0
    7.3137  -15.6756   22.9946 C   0  0  0  0  0  0  0  0  0  0  0  0
    7.2090  -14.6810   24.0847 C   0  0  0  0  0  0  0  0  0  0  0  0
    6.6615  -15.0367   25.3113 C   0  0  0  0  0  0  0  0  0  0  0  0
    6.5657  -14.0920   26.3380 C   0  0  0  0  0  0  0  0  0  0  0  0
    6.9984  -12.8037   26.1804 C   0  0  0  0  0  0  0  0  0  0  0  0
    7.5395  -12.4557   24.9652 C   0  0  0  0  0  0  0  0  0  0  0  0
    7.6404  -13.3793   23.9414 C   0  0  0  0  0  0  0  0  0  0  0  0
    9.3906  -16.5447   23.9192 C   0  0  0  0  0  0  0  0  0  0  0  0
    9.2781  -17.7725   24.2351 O   0  0  0  0  0  0  0  0  0  0  0  0
   10.0311  -12.4179   28.6755 C   0  0  0  0  0  0  0  0  0  0  0  0
   10.4357  -13.9512   29.5473 S   0  0  0  0  0  0  0  0  0  0  0  0
   10.7267  -15.2948   28.4136 C   0  0  0  0  0  0  0  0  0  0  0  0
   10.4566  -15.0532   26.9854 C   0  0  0  0  0  0  0  0  0  0  0  0
   10.7905  -16.0969   25.9891 C   0  0  2  0  0  0  0  0  0  0  0  0
   10.1169  -15.6598   24.7394 N   0  0  0  0  0  0  0  0  0  0  0  0
   10.2922  -17.4543   26.2351 C   0  0  0  0  0  0  0  0  0  0  0  0
    8.9344  -17.7561   26.4720 O   0  0  0  0  0  0  0  0  0  0  0  0
   11.0550  -18.4395   26.2494 O   0  0  0  0  0  0  0  0  0  0  0  0
  2  1  1  0
  3  2  1  0
  3  5  1  0
  3  4  1  6
  5  6  2  0
  7  8  1  0
  7  5  1  0
  8  9  1  1
  9 10  1  0
 10 15  2  0
 11 10  1  0
 11 12  2  0
 12 13  1  0
 13 14  2  0
 15 14  1  0
 16  8  1  0
 16 17  2  0
 19 18  1  0
 19 20  1  0
 20 21  1  0
 22 21  1  1
 22 23  1  0
 22 24  1  0
 23 16  1  0
 24 26  2  0
 24 25  1  0
M  END
$$$$
