SFM.pdb
     RDKit          3D

 26 26  0  0  1  0  0  0  0  0999 V2000
    7.4537  -20.4888   22.5647 O   0  0  0  0  0  0  0  0  0  0  0  0
    6.8001  -20.9871   23.7065 C   0  0  0  0  0  0  0  0  0  0  0  0
    5.5177  -20.1890   23.9235 C   0  0  2  0  0  0  0  0  0  0  0  0
    4.5975  -20.4623   22.8416 N   0  0  0  0  0  0  0  0  0  0  0  0
    5.8626  -18.7588   23.9330 C   0  0  0  0  0  0  0  0  0  0  0  0
    5.6791  -18.0365   22.9274 O   0  0  0  0  0  0  0  0  0  0  0  0
    6.4183  -18.1818   25.1129 N   0  0  0  0  0  0  0  0  0  0  0  0
    6.7425  -16.7941   25.1253 C   0  0  1  0  0  0  0  0  0  0  0  0
    6.9079  -16.2310   26.5198 C   0  0  0  0  0  0  0  0  0  0  0  0
    7.0946  -14.7635   26.5053 C   0  0  0  0  0  0  0  0  0  0  0  0
    5.9950  -13.9148   26.4690 C   0  0  0  0  0  0  0  0  0  0  0  0
    6.1781  -12.5284   26.4559 C   0  0  0  0  0  0  0  0  0  0  0  0
    7.4230  -11.9613   26.4778 C   0  0  0  0  0  0  0  0  0  0  0  0
    8.5085  -12.8046   26.5137 C   0  0  0  0  0  0  0  0  0  0  0  0
    8.3423  -14.1770   26.5270 C   0  0  0  0  0  0  0  0  0  0  0  0
    8.0187  -16.5161   24.3731 C   0  0  0  0  0  0  0  0  0  0  0  0
    8.9892  -17.3391   24.4016 O   0  0  0  0  0  0  0  0  0  0  0  0
    6.7496  -12.5591   19.1481 C   0  0  0  0  0  0  0  0  0  0  0  0
    8.4471  -12.1633   19.6346 S   0  0  0  0  0  0  0  0  0  0  0  0
    9.2021  -13.5031   20.5346 C   0  0  0  0  0  0  0  0  0  0  0  0
    8.5521  -13.9384   21.7832 C   0  0  0  0  0  0  0  0  0  0  0  0
    8.9996  -15.1843   22.4473 C   0  0  2  0  0  0  0  0  0  0  0  0
    8.1170  -15.3213   23.6342 N   0  0  0  0  0  0  0  0  0  0  0  0
   10.3647  -15.2155   22.9827 C   0  0  0  0  0  0  0  0  0  0  0  0
   11.5048  -15.4880   22.1974 O   0  0  0  0  0  0  0  0  0  0  0  0
   10.6012  -14.9985   24.1867 O   0  0  0  0  0  0  0  0  0  0  0  0
  2  1  1  0
  3  2  1  0
  3  5  1  0
  3  4  1  6
  5  6  2  0
  7  8  1  0
  7  5  1  0
  8  9  1  1
  9 10  1  0
 10 15  2  0
 11 10  1  0
 11 12  2  0
 12 13  1  0
 13 14  2  0
 15 14  1  0
 16  8  1  0
 16 17  2  0
 19 18  1  0
 19 20  1  0
 20 21  1  0
 22 21  1  1
 22 23  1  0
 22 24  1  0
 23 16  1  0
 24 26  2  0
 24 25  1  0
M  END
$$$$
