SFM.pdb
     RDKit          3D

 26 26  0  0  1  0  0  0  0  0999 V2000
   10.8447  -19.4799   18.7143 O   0  0  0  0  0  0  0  0  0  0  0  0
   10.9377  -18.7044   19.8844 C   0  0  0  0  0  0  0  0  0  0  0  0
   10.6404  -17.2497   19.5321 C   0  0  2  0  0  0  0  0  0  0  0  0
   11.7792  -16.6841   18.8426 N   0  0  0  0  0  0  0  0  0  0  0  0
   10.4013  -16.5135   20.7832 C   0  0  0  0  0  0  0  0  0  0  0  0
   11.3369  -15.9610   21.4044 O   0  0  0  0  0  0  0  0  0  0  0  0
    9.0751  -16.4271   21.3006 N   0  0  0  0  0  0  0  0  0  0  0  0
    8.8446  -15.7191   22.5158 C   0  0  1  0  0  0  0  0  0  0  0  0
    7.4216  -15.2259   22.6600 C   0  0  0  0  0  0  0  0  0  0  0  0
    7.2217  -14.4735   23.9180 C   0  0  0  0  0  0  0  0  0  0  0  0
    6.5839  -15.0685   24.9997 C   0  0  0  0  0  0  0  0  0  0  0  0
    6.3982  -14.3522   26.1863 C   0  0  0  0  0  0  0  0  0  0  0  0
    6.8284  -13.0613   26.3287 C   0  0  0  0  0  0  0  0  0  0  0  0
    7.4590  -12.4761   25.2561 C   0  0  0  0  0  0  0  0  0  0  0  0
    7.6493  -13.1724   24.0769 C   0  0  0  0  0  0  0  0  0  0  0  0
    9.1500  -16.5716   23.7207 C   0  0  0  0  0  0  0  0  0  0  0  0
    8.9676  -17.8310   23.6960 O   0  0  0  0  0  0  0  0  0  0  0  0
    9.8775  -12.8437   28.9864 C   0  0  0  0  0  0  0  0  0  0  0  0
   10.9895  -14.2477   29.2456 S   0  0  0  0  0  0  0  0  0  0  0  0
   10.5458  -15.6356   28.2200 C   0  0  0  0  0  0  0  0  0  0  0  0
   10.9504  -15.5946   26.8038 C   0  0  0  0  0  0  0  0  0  0  0  0
   10.4863  -16.6530   25.8776 C   0  0  2  0  0  0  0  0  0  0  0  0
    9.6437  -15.9440   24.8806 N   0  0  0  0  0  0  0  0  0  0  0  0
    9.6232  -17.7044   26.4262 C   0  0  0  0  0  0  0  0  0  0  0  0
    8.2303  -17.7625   26.2095 O   0  0  0  0  0  0  0  0  0  0  0  0
   10.0799  -18.6260   27.1296 O   0  0  0  0  0  0  0  0  0  0  0  0
  2  1  1  0
  3  2  1  0
  3  5  1  0
  3  4  1  1
  5  6  2  0
  7  8  1  0
  7  5  1  0
  8  9  1  1
  9 10  1  0
 10 15  2  0
 11 10  1  0
 11 12  2  0
 12 13  1  0
 13 14  2  0
 15 14  1  0
 16  8  1  0
 16 17  2  0
 19 18  1  0
 19 20  1  0
 20 21  1  0
 22 21  1  1
 22 23  1  0
 22 24  1  0
 23 16  1  0
 24 26  2  0
 24 25  1  0
M  END
$$$$
