SFM.pdb
     RDKit          3D

 26 26  0  0  1  0  0  0  0  0999 V2000
   10.3211  -19.2630   20.6167 O   0  0  0  0  0  0  0  0  0  0  0  0
   11.1929  -18.4908   19.8274 C   0  0  0  0  0  0  0  0  0  0  0  0
   10.4889  -17.1906   19.4498 C   0  0  2  0  0  0  0  0  0  0  0  0
   11.3460  -16.4212   18.5750 N   0  0  0  0  0  0  0  0  0  0  0  0
   10.2302  -16.4329   20.6842 C   0  0  0  0  0  0  0  0  0  0  0  0
   11.1353  -15.7800   21.2509 O   0  0  0  0  0  0  0  0  0  0  0  0
    8.9205  -16.4420   21.2483 N   0  0  0  0  0  0  0  0  0  0  0  0
    8.6750  -15.7243   22.4548 C   0  0  1  0  0  0  0  0  0  0  0  0
    7.2443  -15.2510   22.5887 C   0  0  0  0  0  0  0  0  0  0  0  0
    7.0212  -14.5144   23.8521 C   0  0  0  0  0  0  0  0  0  0  0  0
    6.2959  -15.0943   24.8858 C   0  0  0  0  0  0  0  0  0  0  0  0
    6.0887  -14.3930   26.0779 C   0  0  0  0  0  0  0  0  0  0  0  0
    6.5819  -13.1317   26.2721 C   0  0  0  0  0  0  0  0  0  0  0  0
    7.2991  -12.5614   25.2468 C   0  0  0  0  0  0  0  0  0  0  0  0
    7.5116  -13.2432   24.0629 C   0  0  0  0  0  0  0  0  0  0  0  0
    8.9889  -16.5590   23.6700 C   0  0  0  0  0  0  0  0  0  0  0  0
    8.6731  -17.7910   23.7186 O   0  0  0  0  0  0  0  0  0  0  0  0
   10.6798  -12.6551   29.1942 C   0  0  0  0  0  0  0  0  0  0  0  0
   11.7145  -14.0617   28.7190 S   0  0  0  0  0  0  0  0  0  0  0  0
   10.7595  -15.3439   27.9321 C   0  0  0  0  0  0  0  0  0  0  0  0
   11.1343  -15.7295   26.5604 C   0  0  0  0  0  0  0  0  0  0  0  0
   10.3154  -16.7230   25.8282 C   0  0  2  0  0  0  0  0  0  0  0  0
    9.6418  -15.9456   24.7566 N   0  0  0  0  0  0  0  0  0  0  0  0
    9.2287  -17.3800   26.5622 C   0  0  0  0  0  0  0  0  0  0  0  0
    7.8645  -17.0698   26.3792 O   0  0  0  0  0  0  0  0  0  0  0  0
    9.4522  -18.2683   27.4070 O   0  0  0  0  0  0  0  0  0  0  0  0
  2  1  1  0
  3  2  1  0
  3  5  1  0
  3  4  1  6
  5  6  2  0
  7  8  1  0
  7  5  1  0
  8  9  1  1
  9 10  1  0
 10 15  2  0
 11 10  1  0
 11 12  2  0
 12 13  1  0
 13 14  2  0
 15 14  1  0
 16  8  1  0
 16 17  2  0
 19 18  1  0
 19 20  1  0
 20 21  1  0
 22 21  1  1
 22 23  1  0
 22 24  1  0
 23 16  1  0
 24 26  2  0
 24 25  1  0
M  END
$$$$
