SFM.pdb
     RDKit          3D

 26 26  0  0  1  0  0  0  0  0999 V2000
   11.3614  -19.2706   20.9434 O   0  0  0  0  0  0  0  0  0  0  0  0
   10.0479  -19.0117   20.5110 C   0  0  0  0  0  0  0  0  0  0  0  0
   10.0072  -17.6264   19.8723 C   0  0  2  0  0  0  0  0  0  0  0  0
   11.2032  -17.4302   19.0829 N   0  0  0  0  0  0  0  0  0  0  0  0
    9.9529  -16.6254   20.9491 C   0  0  0  0  0  0  0  0  0  0  0  0
   10.9490  -15.9257   21.2405 O   0  0  0  0  0  0  0  0  0  0  0  0
    8.7398  -16.4476   21.6776 N   0  0  0  0  0  0  0  0  0  0  0  0
    8.6829  -15.4672   22.7103 C   0  0  1  0  0  0  0  0  0  0  0  0
    7.3345  -15.3947   23.3926 C   0  0  0  0  0  0  0  0  0  0  0  0
    7.2296  -14.2213   24.2874 C   0  0  0  0  0  0  0  0  0  0  0  0
    6.5171  -14.3056   25.4774 C   0  0  0  0  0  0  0  0  0  0  0  0
    6.4220  -13.1930   26.3192 C   0  0  0  0  0  0  0  0  0  0  0  0
    7.0148  -11.9988   26.0122 C   0  0  0  0  0  0  0  0  0  0  0  0
    7.7189  -11.9194   24.8338 C   0  0  0  0  0  0  0  0  0  0  0  0
    7.8212  -13.0114   23.9920 C   0  0  0  0  0  0  0  0  0  0  0  0
    9.7146  -15.7263   23.7782 C   0  0  0  0  0  0  0  0  0  0  0  0
   10.7807  -15.0339   23.8417 O   0  0  0  0  0  0  0  0  0  0  0  0
   10.5192  -13.6562   30.4662 C   0  0  0  0  0  0  0  0  0  0  0  0
   10.2555  -13.7545   28.6785 S   0  0  0  0  0  0  0  0  0  0  0  0
    9.6732  -15.3655   28.1877 C   0  0  0  0  0  0  0  0  0  0  0  0
    9.4265  -15.5941   26.7532 C   0  0  0  0  0  0  0  0  0  0  0  0
   10.0573  -16.7502   26.0757 C   0  0  2  0  0  0  0  0  0  0  0  0
    9.4747  -16.7552   24.7093 N   0  0  0  0  0  0  0  0  0  0  0  0
    9.7790  -18.0864   26.6129 C   0  0  0  0  0  0  0  0  0  0  0  0
   10.6307  -18.7573   27.5158 O   0  0  0  0  0  0  0  0  0  0  0  0
    8.7533  -18.7190   26.2962 O   0  0  0  0  0  0  0  0  0  0  0  0
  2  1  1  0
  3  2  1  0
  3  5  1  0
  3  4  1  1
  5  6  2  0
  7  8  1  0
  7  5  1  0
  8  9  1  1
  9 10  1  0
 10 15  2  0
 11 10  1  0
 11 12  2  0
 12 13  1  0
 13 14  2  0
 15 14  1  0
 16  8  1  0
 16 17  2  0
 19 18  1  0
 19 20  1  0
 20 21  1  0
 22 21  1  1
 22 23  1  0
 22 24  1  0
 23 16  1  0
 24 26  2  0
 24 25  1  0
M  END
$$$$
