SFM.pdb
     RDKit          3D

 26 26  0  0  1  0  0  0  0  0999 V2000
   10.2466  -19.5150   20.1339 O   0  0  0  0  0  0  0  0  0  0  0  0
   11.2595  -18.5489   19.9925 C   0  0  0  0  0  0  0  0  0  0  0  0
   10.6232  -17.2338   19.5517 C   0  0  2  0  0  0  0  0  0  0  0  0
   11.5406  -16.5274   18.6849 N   0  0  0  0  0  0  0  0  0  0  0  0
   10.3545  -16.4280   20.7529 C   0  0  0  0  0  0  0  0  0  0  0  0
   11.2561  -15.7570   21.3038 O   0  0  0  0  0  0  0  0  0  0  0  0
    9.0387  -16.4102   21.3027 N   0  0  0  0  0  0  0  0  0  0  0  0
    8.7915  -15.6752   22.4983 C   0  0  1  0  0  0  0  0  0  0  0  0
    7.3385  -15.2922   22.6754 C   0  0  0  0  0  0  0  0  0  0  0  0
    7.1154  -14.5305   23.9238 C   0  0  0  0  0  0  0  0  0  0  0  0
    6.4540  -15.1160   24.9964 C   0  0  0  0  0  0  0  0  0  0  0  0
    6.2465  -14.3909   26.1741 C   0  0  0  0  0  0  0  0  0  0  0  0
    6.6776  -13.1003   26.3162 C   0  0  0  0  0  0  0  0  0  0  0  0
    7.3316  -12.5244   25.2526 C   0  0  0  0  0  0  0  0  0  0  0  0
    7.5436  -13.2295   24.0824 C   0  0  0  0  0  0  0  0  0  0  0  0
    9.2049  -16.4518   23.7221 C   0  0  0  0  0  0  0  0  0  0  0  0
    9.2029  -17.7246   23.7226 O   0  0  0  0  0  0  0  0  0  0  0  0
   10.3818  -12.7259   28.8246 C   0  0  0  0  0  0  0  0  0  0  0  0
   10.9528  -14.2815   29.5519 S   0  0  0  0  0  0  0  0  0  0  0  0
   10.9889  -15.5954   28.3487 C   0  0  0  0  0  0  0  0  0  0  0  0
   10.5149  -15.2878   26.9880 C   0  0  0  0  0  0  0  0  0  0  0  0
   10.2331  -16.3924   26.0424 C   0  0  2  0  0  0  0  0  0  0  0  0
    9.5953  -15.7378   24.8714 N   0  0  0  0  0  0  0  0  0  0  0  0
    9.2805  -17.4234   26.4675 C   0  0  0  0  0  0  0  0  0  0  0  0
    9.6577  -18.6037   27.1422 O   0  0  0  0  0  0  0  0  0  0  0  0
    8.0579  -17.3141   26.2529 O   0  0  0  0  0  0  0  0  0  0  0  0
  2  1  1  0
  3  2  1  0
  3  5  1  0
  3  4  1  6
  5  6  2  0
  7  8  1  0
  7  5  1  0
  8  9  1  1
  9 10  1  0
 10 15  2  0
 11 10  1  0
 11 12  2  0
 12 13  1  0
 13 14  2  0
 15 14  1  0
 16  8  1  0
 16 17  2  0
 19 18  1  0
 19 20  1  0
 20 21  1  0
 22 21  1  1
 22 23  1  0
 22 24  1  0
 23 16  1  0
 24 26  2  0
 24 25  1  0
M  END
$$$$
