SFM.pdb
     RDKit          3D

 26 26  0  0  1  0  0  0  0  0999 V2000
   11.5789  -18.9559   20.4210 O   0  0  0  0  0  0  0  0  0  0  0  0
   10.4333  -18.5037   19.7409 C   0  0  0  0  0  0  0  0  0  0  0  0
   10.5417  -16.9935   19.5504 C   0  0  2  0  0  0  0  0  0  0  0  0
   11.8632  -16.6686   19.0604 N   0  0  0  0  0  0  0  0  0  0  0  0
   10.3231  -16.3490   20.8547 C   0  0  0  0  0  0  0  0  0  0  0  0
   11.2732  -15.8677   21.5122 O   0  0  0  0  0  0  0  0  0  0  0  0
    9.0006  -16.2704   21.3825 N   0  0  0  0  0  0  0  0  0  0  0  0
    8.7731  -15.5513   22.5916 C   0  0  1  0  0  0  0  0  0  0  0  0
    7.3178  -15.2032   22.8158 C   0  0  0  0  0  0  0  0  0  0  0  0
    7.1304  -14.3515   24.0108 C   0  0  0  0  0  0  0  0  0  0  0  0
    7.5528  -13.0277   24.0044 C   0  0  0  0  0  0  0  0  0  0  0  0
    7.3725  -12.2275   25.1370 C   0  0  0  0  0  0  0  0  0  0  0  0
    6.7843  -12.7055   26.2761 C   0  0  0  0  0  0  0  0  0  0  0  0
    6.3677  -14.0159   26.2784 C   0  0  0  0  0  0  0  0  0  0  0  0
    6.5397  -14.8184   25.1658 C   0  0  0  0  0  0  0  0  0  0  0  0
    9.2407  -16.3286   23.7954 C   0  0  0  0  0  0  0  0  0  0  0  0
    9.1880  -17.6001   23.8158 O   0  0  0  0  0  0  0  0  0  0  0  0
   10.0840  -13.2681   29.9476 C   0  0  0  0  0  0  0  0  0  0  0  0
   11.5940  -14.1036   29.4027 S   0  0  0  0  0  0  0  0  0  0  0  0
   11.2329  -15.4822   28.3330 C   0  0  0  0  0  0  0  0  0  0  0  0
   10.7980  -15.1829   26.9574 C   0  0  0  0  0  0  0  0  0  0  0  0
   10.3791  -16.2874   26.0641 C   0  0  2  0  0  0  0  0  0  0  0  0
    9.7396  -15.6166   24.9032 N   0  0  0  0  0  0  0  0  0  0  0  0
    9.3671  -17.2217   26.5684 C   0  0  0  0  0  0  0  0  0  0  0  0
    7.9788  -16.9801   26.4993 O   0  0  0  0  0  0  0  0  0  0  0  0
    9.6817  -18.3050   27.0979 O   0  0  0  0  0  0  0  0  0  0  0  0
  2  1  1  0
  3  2  1  0
  3  5  1  0
  3  4  1  1
  5  6  2  0
  7  8  1  0
  7  5  1  0
  8  9  1  1
  9 10  1  0
 10 15  2  0
 11 10  1  0
 11 12  2  0
 12 13  1  0
 13 14  2  0
 15 14  1  0
 16  8  1  0
 16 17  2  0
 19 18  1  0
 19 20  1  0
 20 21  1  0
 22 21  1  1
 22 23  1  0
 22 24  1  0
 23 16  1  0
 24 26  2  0
 24 25  1  0
M  END
$$$$
