SFM.pdb
     RDKit          3D

 26 26  0  0  1  0  0  0  0  0999 V2000
   11.1710  -18.9455   21.1749 O   0  0  0  0  0  0  0  0  0  0  0  0
   10.4711  -18.1652   20.2366 C   0  0  0  0  0  0  0  0  0  0  0  0
   10.9602  -16.7232   20.3373 C   0  0  2  0  0  0  0  0  0  0  0  0
   12.4027  -16.7009   20.2340 N   0  0  0  0  0  0  0  0  0  0  0  0
   10.5473  -16.1882   21.6441 C   0  0  0  0  0  0  0  0  0  0  0  0
   11.3705  -16.0283   22.5734 O   0  0  0  0  0  0  0  0  0  0  0  0
    9.1800  -15.8441   21.8582 N   0  0  0  0  0  0  0  0  0  0  0  0
    8.7763  -15.3462   23.1310 C   0  0  1  0  0  0  0  0  0  0  0  0
    7.4018  -14.7141   23.1175 C   0  0  0  0  0  0  0  0  0  0  0  0
    7.1461  -13.9200   24.3392 C   0  0  0  0  0  0  0  0  0  0  0  0
    6.2890  -14.3985   25.3227 C   0  0  0  0  0  0  0  0  0  0  0  0
    6.0516  -13.6433   26.4755 C   0  0  0  0  0  0  0  0  0  0  0  0
    6.6419  -12.4258   26.6789 C   0  0  0  0  0  0  0  0  0  0  0  0
    7.4893  -11.9558   25.7034 C   0  0  0  0  0  0  0  0  0  0  0  0
    7.7331  -12.6918   24.5587 C   0  0  0  0  0  0  0  0  0  0  0  0
    8.7610  -16.4352   24.1729 C   0  0  0  0  0  0  0  0  0  0  0  0
    8.4135  -17.6228   23.8750 O   0  0  0  0  0  0  0  0  0  0  0  0
    9.1559  -13.2496   29.2023 C   0  0  0  0  0  0  0  0  0  0  0  0
   10.7302  -14.1332   29.0769 S   0  0  0  0  0  0  0  0  0  0  0  0
   10.7358  -15.2749   27.7088 C   0  0  0  0  0  0  0  0  0  0  0  0
    9.7647  -16.3825   27.7403 C   0  0  0  0  0  0  0  0  0  0  0  0
    9.4802  -17.1438   26.5021 C   0  0  2  0  0  0  0  0  0  0  0  0
    9.1407  -16.1112   25.4898 N   0  0  0  0  0  0  0  0  0  0  0  0
    8.3317  -18.0561   26.5150 C   0  0  0  0  0  0  0  0  0  0  0  0
    8.3584  -19.3359   27.1083 O   0  0  0  0  0  0  0  0  0  0  0  0
    7.2438  -17.7469   25.9919 O   0  0  0  0  0  0  0  0  0  0  0  0
  2  1  1  0
  3  2  1  0
  3  5  1  0
  3  4  1  1
  5  6  2  0
  7  8  1  0
  7  5  1  0
  8  9  1  6
  9 10  1  0
 10 15  2  0
 11 10  1  0
 11 12  2  0
 12 13  1  0
 13 14  2  0
 15 14  1  0
 16  8  1  0
 16 17  2  0
 19 18  1  0
 19 20  1  0
 20 21  1  0
 22 21  1  1
 22 23  1  0
 22 24  1  0
 23 16  1  0
 24 26  2  0
 24 25  1  0
M  END
$$$$
