SFM.pdb
     RDKit          3D

 26 26  0  0  1  0  0  0  0  0999 V2000
    8.9244  -22.0808   23.3955 O   0  0  0  0  0  0  0  0  0  0  0  0
    9.0400  -20.6869   23.5472 C   0  0  0  0  0  0  0  0  0  0  0  0
    8.0776  -20.0078   22.5769 C   0  0  2  0  0  0  0  0  0  0  0  0
    8.4543  -20.3407   21.2207 N   0  0  0  0  0  0  0  0  0  0  0  0
    8.1741  -18.5534   22.7765 C   0  0  0  0  0  0  0  0  0  0  0  0
    8.7948  -17.8238   21.9707 O   0  0  0  0  0  0  0  0  0  0  0  0
    7.5476  -17.9607   23.9123 N   0  0  0  0  0  0  0  0  0  0  0  0
    7.5577  -16.5428   24.0545 C   0  0  1  0  0  0  0  0  0  0  0  0
    6.4056  -16.0164   24.8820 C   0  0  0  0  0  0  0  0  0  0  0  0
    6.5214  -14.5625   25.1298 C   0  0  0  0  0  0  0  0  0  0  0  0
    6.9444  -13.7080   24.1190 C   0  0  0  0  0  0  0  0  0  0  0  0
    7.0514  -12.3346   24.3594 C   0  0  0  0  0  0  0  0  0  0  0  0
    6.7500  -11.7859   25.5759 C   0  0  0  0  0  0  0  0  0  0  0  0
    6.3318  -12.6347   26.5736 C   0  0  0  0  0  0  0  0  0  0  0  0
    6.2215  -13.9947   26.3499 C   0  0  0  0  0  0  0  0  0  0  0  0
    8.8321  -16.0591   24.6978 C   0  0  0  0  0  0  0  0  0  0  0  0
    8.9544  -14.8528   25.0849 O   0  0  0  0  0  0  0  0  0  0  0  0
   10.1057  -12.4149   28.8023 C   0  0  0  0  0  0  0  0  0  0  0  0
   10.5960  -14.1565   28.7639 S   0  0  0  0  0  0  0  0  0  0  0  0
   11.0474  -14.6760   27.1202 C   0  0  0  0  0  0  0  0  0  0  0  0
   10.9122  -16.1068   26.7955 C   0  0  0  0  0  0  0  0  0  0  0  0
   11.2088  -16.5785   25.4232 C   0  0  2  0  0  0  0  0  0  0  0  0
    9.8908  -16.9729   24.8630 N   0  0  0  0  0  0  0  0  0  0  0  0
   12.0537  -17.7692   25.2826 C   0  0  0  0  0  0  0  0  0  0  0  0
   13.4610  -17.7213   25.1944 O   0  0  0  0  0  0  0  0  0  0  0  0
   11.5672  -18.9153   25.2320 O   0  0  0  0  0  0  0  0  0  0  0  0
  2  1  1  0
  3  2  1  0
  3  5  1  0
  3  4  1  6
  5  6  2  0
  7  8  1  0
  7  5  1  0
  8  9  1  1
  9 10  1  0
 10 15  2  0
 11 10  1  0
 11 12  2  0
 12 13  1  0
 13 14  2  0
 15 14  1  0
 16  8  1  0
 16 17  2  0
 19 18  1  0
 19 20  1  0
 20 21  1  0
 22 21  1  1
 22 23  1  0
 22 24  1  0
 23 16  1  0
 24 26  2  0
 24 25  1  0
M  END
$$$$
