SFM.pdb
     RDKit          3D

 26 26  0  0  1  0  0  0  0  0999 V2000
   11.8975  -18.8329   20.9007 O   0  0  0  0  0  0  0  0  0  0  0  0
   10.6103  -18.4426   21.3130 C   0  0  0  0  0  0  0  0  0  0  0  0
   10.3413  -17.0292   20.8045 C   0  0  2  0  0  0  0  0  0  0  0  0
   11.4634  -16.5885   20.0054 N   0  0  0  0  0  0  0  0  0  0  0  0
   10.1829  -16.1443   21.9691 C   0  0  0  0  0  0  0  0  0  0  0  0
   11.1716  -15.6198   22.5296 O   0  0  0  0  0  0  0  0  0  0  0  0
    8.8751  -15.8776   22.4715 N   0  0  0  0  0  0  0  0  0  0  0  0
    8.7283  -15.1150   23.6664 C   0  0  1  0  0  0  0  0  0  0  0  0
    7.3271  -14.5806   23.8666 C   0  0  0  0  0  0  0  0  0  0  0  0
    7.2511  -13.6405   25.0064 C   0  0  0  0  0  0  0  0  0  0  0  0
    7.8618  -12.3945   24.9324 C   0  0  0  0  0  0  0  0  0  0  0  0
    7.7860  -11.5101   26.0130 C   0  0  0  0  0  0  0  0  0  0  0  0
    7.1206  -11.8286   27.1653 C   0  0  0  0  0  0  0  0  0  0  0  0
    6.5177  -13.0625   27.2345 C   0  0  0  0  0  0  0  0  0  0  0  0
    6.5846  -13.9468   26.1738 C   0  0  0  0  0  0  0  0  0  0  0  0
    9.0802  -15.9250   24.8879 C   0  0  0  0  0  0  0  0  0  0  0  0
    8.5895  -17.0854   25.0688 O   0  0  0  0  0  0  0  0  0  0  0  0
   13.2317  -18.7020   24.6059 C   0  0  0  0  0  0  0  0  0  0  0  0
   14.0042  -17.7809   25.9585 S   0  0  0  0  0  0  0  0  0  0  0  0
   12.8022  -17.2477   27.1611 C   0  0  0  0  0  0  0  0  0  0  0  0
   11.9769  -16.0738   26.8269 C   0  0  0  0  0  0  0  0  0  0  0  0
   10.5052  -16.1453   26.9772 C   0  0  2  0  0  0  0  0  0  0  0  0
    9.9672  -15.3697   25.8302 N   0  0  0  0  0  0  0  0  0  0  0  0
    9.9135  -15.5246   28.1672 C   0  0  0  0  0  0  0  0  0  0  0  0
    9.5680  -16.2425   29.3316 O   0  0  0  0  0  0  0  0  0  0  0  0
    9.6770  -14.3022   28.2194 O   0  0  0  0  0  0  0  0  0  0  0  0
  2  1  1  0
  3  2  1  0
  3  5  1  0
  3  4  1  6
  5  6  2  0
  7  8  1  0
  7  5  1  0
  8  9  1  1
  9 10  1  0
 10 15  2  0
 11 10  1  0
 11 12  2  0
 12 13  1  0
 13 14  2  0
 15 14  1  0
 16  8  1  0
 16 17  2  0
 19 18  1  0
 19 20  1  0
 20 21  1  0
 22 21  1  1
 22 23  1  0
 22 24  1  0
 23 16  1  0
 24 26  2  0
 24 25  1  0
M  END
$$$$
