SFM.pdb
     RDKit          3D

 26 26  0  0  1  0  0  0  0  0999 V2000
   11.8283  -18.9887   21.5335 O   0  0  0  0  0  0  0  0  0  0  0  0
   10.4616  -19.1993   21.2750 C   0  0  0  0  0  0  0  0  0  0  0  0
    9.9339  -18.0295   20.4494 C   0  0  2  0  0  0  0  0  0  0  0  0
   10.8796  -17.7226   19.3990 N   0  0  0  0  0  0  0  0  0  0  0  0
    9.7864  -16.8680   21.3401 C   0  0  0  0  0  0  0  0  0  0  0  0
   10.6515  -15.9644   21.3830 O   0  0  0  0  0  0  0  0  0  0  0  0
    8.6334  -16.7682   22.1735 N   0  0  0  0  0  0  0  0  0  0  0  0
    8.4558  -15.6095   22.9838 C   0  0  1  0  0  0  0  0  0  0  0  0
    7.0798  -15.5201   23.6064 C   0  0  0  0  0  0  0  0  0  0  0  0
    6.9619  -14.3662   24.5246 C   0  0  0  0  0  0  0  0  0  0  0  0
    7.4398  -13.1166   24.1490 C   0  0  0  0  0  0  0  0  0  0  0  0
    7.3251  -12.0296   25.0212 C   0  0  0  0  0  0  0  0  0  0  0  0
    6.7488  -12.1488   26.2564 C   0  0  0  0  0  0  0  0  0  0  0  0
    6.2772  -13.3869   26.6244 C   0  0  0  0  0  0  0  0  0  0  0  0
    6.3840  -14.4703   25.7721 C   0  0  0  0  0  0  0  0  0  0  0  0
    9.4617  -15.5576   24.1051 C   0  0  0  0  0  0  0  0  0  0  0  0
   10.0373  -14.4669   24.4197 O   0  0  0  0  0  0  0  0  0  0  0  0
   10.1861  -12.7599   28.2809 C   0  0  0  0  0  0  0  0  0  0  0  0
   10.2935  -14.2830   29.2522 S   0  0  0  0  0  0  0  0  0  0  0  0
   10.7786  -15.6714   28.2461 C   0  0  0  0  0  0  0  0  0  0  0  0
   10.1652  -15.7948   26.9121 C   0  0  0  0  0  0  0  0  0  0  0  0
   10.6939  -16.7900   25.9511 C   0  0  2  0  0  0  0  0  0  0  0  0
    9.7540  -16.7461   24.8017 N   0  0  0  0  0  0  0  0  0  0  0  0
   10.7153  -18.1950   26.3717 C   0  0  0  0  0  0  0  0  0  0  0  0
   11.8029  -18.7918   27.0436 O   0  0  0  0  0  0  0  0  0  0  0  0
    9.7543  -18.9582   26.1553 O   0  0  0  0  0  0  0  0  0  0  0  0
  2  1  1  0
  3  2  1  0
  3  5  1  0
  3  4  1  6
  5  6  2  0
  7  8  1  0
  7  5  1  0
  8  9  1  1
  9 10  1  0
 10 15  2  0
 11 10  1  0
 11 12  2  0
 12 13  1  0
 13 14  2  0
 15 14  1  0
 16  8  1  0
 16 17  2  0
 19 18  1  0
 19 20  1  0
 20 21  1  0
 22 21  1  1
 22 23  1  0
 22 24  1  0
 23 16  1  0
 24 26  2  0
 24 25  1  0
M  END
$$$$
