SFM.pdb
     RDKit          3D

 26 26  0  0  1  0  0  0  0  0999 V2000
   12.0238  -18.7698   20.5648 O   0  0  0  0  0  0  0  0  0  0  0  0
   10.7616  -18.5972   19.9680 C   0  0  0  0  0  0  0  0  0  0  0  0
   10.5779  -17.1204   19.6303 C   0  0  2  0  0  0  0  0  0  0  0  0
   11.7812  -16.6220   19.0014 N   0  0  0  0  0  0  0  0  0  0  0  0
   10.3331  -16.3895   20.8835 C   0  0  0  0  0  0  0  0  0  0  0  0
   11.2762  -15.9270   21.5642 O   0  0  0  0  0  0  0  0  0  0  0  0
    8.9927  -16.2035   21.3336 N   0  0  0  0  0  0  0  0  0  0  0  0
    8.7562  -15.5004   22.5505 C   0  0  1  0  0  0  0  0  0  0  0  0
    7.3094  -15.0996   22.7382 C   0  0  0  0  0  0  0  0  0  0  0  0
    7.1084  -14.3170   23.9774 C   0  0  0  0  0  0  0  0  0  0  0  0
    7.6108  -13.0258   24.0833 C   0  0  0  0  0  0  0  0  0  0  0  0
    7.4172  -12.2910   25.2572 C   0  0  0  0  0  0  0  0  0  0  0  0
    6.7385  -12.8027   26.3292 C   0  0  0  0  0  0  0  0  0  0  0  0
    6.2429  -14.0807   26.2206 C   0  0  0  0  0  0  0  0  0  0  0  0
    6.4269  -14.8187   25.0660 C   0  0  0  0  0  0  0  0  0  0  0  0
    9.1559  -16.3197   23.7509 C   0  0  0  0  0  0  0  0  0  0  0  0
    9.0581  -17.5887   23.7406 O   0  0  0  0  0  0  0  0  0  0  0  0
   10.7858  -12.7425   28.8698 C   0  0  0  0  0  0  0  0  0  0  0  0
   11.3118  -14.3419   29.5332 S   0  0  0  0  0  0  0  0  0  0  0  0
   10.9865  -15.6676   28.3878 C   0  0  0  0  0  0  0  0  0  0  0  0
   10.5711  -15.3028   27.0220 C   0  0  0  0  0  0  0  0  0  0  0  0
   10.2310  -16.3673   26.0500 C   0  0  2  0  0  0  0  0  0  0  0  0
    9.6422  -15.6500   24.8902 N   0  0  0  0  0  0  0  0  0  0  0  0
    9.2155  -17.3488   26.4459 C   0  0  0  0  0  0  0  0  0  0  0  0
    7.8273  -17.1274   26.3245 O   0  0  0  0  0  0  0  0  0  0  0  0
    9.5265  -18.4575   26.9221 O   0  0  0  0  0  0  0  0  0  0  0  0
  2  1  1  0
  3  2  1  0
  3  5  1  0
  3  4  1  1
  5  6  2  0
  7  8  1  0
  7  5  1  0
  8  9  1  1
  9 10  1  0
 10 15  2  0
 11 10  1  0
 11 12  2  0
 12 13  1  0
 13 14  2  0
 15 14  1  0
 16  8  1  0
 16 17  2  0
 19 18  1  0
 19 20  1  0
 20 21  1  0
 22 21  1  1
 22 23  1  0
 22 24  1  0
 23 16  1  0
 24 26  2  0
 24 25  1  0
M  END
$$$$
