SFM.pdb
     RDKit          3D

 26 26  0  0  1  0  0  0  0  0999 V2000
   10.8683  -19.1321   20.9428 O   0  0  0  0  0  0  0  0  0  0  0  0
   11.6386  -18.3102   20.1000 C   0  0  0  0  0  0  0  0  0  0  0  0
   10.8125  -17.0832   19.7249 C   0  0  2  0  0  0  0  0  0  0  0  0
   11.5702  -16.2607   18.8077 N   0  0  0  0  0  0  0  0  0  0  0  0
   10.5303  -16.3260   20.9543 C   0  0  0  0  0  0  0  0  0  0  0  0
   11.4083  -15.6237   21.5043 O   0  0  0  0  0  0  0  0  0  0  0  0
    9.2285  -16.3928   21.5330 N   0  0  0  0  0  0  0  0  0  0  0  0
    8.9325  -15.5993   22.6791 C   0  0  1  0  0  0  0  0  0  0  0  0
    7.4652  -15.2521   22.8035 C   0  0  0  0  0  0  0  0  0  0  0  0
    7.2060  -14.3449   23.9430 C   0  0  0  0  0  0  0  0  0  0  0  0
    6.5965  -14.8216   25.0971 C   0  0  0  0  0  0  0  0  0  0  0  0
    6.3545  -13.9592   26.1711 C   0  0  0  0  0  0  0  0  0  0  0  0
    6.7011  -12.6363   26.1308 C   0  0  0  0  0  0  0  0  0  0  0  0
    7.3040  -12.1684   24.9870 C   0  0  0  0  0  0  0  0  0  0  0  0
    7.5492  -13.0098   23.9176 C   0  0  0  0  0  0  0  0  0  0  0  0
    9.3409  -16.2924   23.9538 C   0  0  0  0  0  0  0  0  0  0  0  0
    9.3034  -17.5609   24.0515 O   0  0  0  0  0  0  0  0  0  0  0  0
   11.4106  -14.1955   31.3615 C   0  0  0  0  0  0  0  0  0  0  0  0
   11.1510  -13.7352   29.6307 S   0  0  0  0  0  0  0  0  0  0  0  0
   10.8889  -15.1665   28.6022 C   0  0  0  0  0  0  0  0  0  0  0  0
   10.5201  -14.9369   27.1943 C   0  0  0  0  0  0  0  0  0  0  0  0
   10.2999  -16.0936   26.2959 C   0  0  2  0  0  0  0  0  0  0  0  0
    9.7668  -15.5047   25.0407 N   0  0  0  0  0  0  0  0  0  0  0  0
    9.3025  -17.0890   26.7028 C   0  0  0  0  0  0  0  0  0  0  0  0
    9.6141  -18.2472   27.4458 O   0  0  0  0  0  0  0  0  0  0  0  0
    8.0975  -16.9665   26.4098 O   0  0  0  0  0  0  0  0  0  0  0  0
  2  1  1  0
  3  2  1  0
  3  5  1  0
  3  4  1  6
  5  6  2  0
  7  8  1  0
  7  5  1  0
  8  9  1  1
  9 10  1  0
 10 15  2  0
 11 10  1  0
 11 12  2  0
 12 13  1  0
 13 14  2  0
 15 14  1  0
 16  8  1  0
 16 17  2  0
 19 18  1  0
 19 20  1  0
 20 21  1  0
 22 21  1  1
 22 23  1  0
 22 24  1  0
 23 16  1  0
 24 26  2  0
 24 25  1  0
M  END
$$$$
