KWY.pdb
     RDKit          3D

 36 38  0  0  1  0  0  0  0  0999 V2000
   23.9240  -21.8881  -14.9163 N   0  0  0  0  0  0  0  0  0  0  0  0
   23.8407  -21.2881  -16.2224 C   0  0  1  0  0  0  0  0  0  0  0  0
   22.6729  -20.3597  -16.3166 C   0  0  0  0  0  0  0  0  0  0  0  0
   21.3538  -20.9896  -16.0492 C   0  0  0  0  0  0  0  0  0  0  0  0
   21.1627  -21.5963  -14.7032 C   0  0  0  0  0  0  0  0  0  0  0  0
   19.7493  -22.2100  -14.6846 C   0  0  0  0  0  0  0  0  0  0  0  0
   19.4812  -22.7531  -13.3749 N   0  0  0  0  0  0  0  0  0  0  0  0
   25.1246  -20.6510  -16.6089 C   0  0  0  0  0  0  0  0  0  0  0  0
   25.1124  -19.9237  -17.6283 O   0  0  0  0  0  0  0  0  0  0  0  0
   26.3038  -20.8538  -15.8620 N   0  0  0  0  0  0  0  0  0  0  0  0
   27.5652  -20.0959  -16.2664 C   0  0  1  0  0  0  0  0  0  0  0  0
   27.8028  -19.1263  -15.1964 C   0  0  0  0  0  0  0  0  0  0  0  0
   27.0081  -17.9144  -15.0973 C   0  0  0  0  0  0  0  0  0  0  0  0
   25.9402  -17.5811  -14.3130 C   0  0  0  0  0  0  0  0  0  0  0  0
   25.5812  -16.3245  -14.5866 N   0  0  0  0  0  0  0  0  0  0  0  0
   26.3831  -15.7890  -15.5428 C   0  0  0  0  0  0  0  0  0  0  0  0
   26.4129  -14.5466  -16.1336 C   0  0  0  0  0  0  0  0  0  0  0  0
   27.3585  -14.2620  -17.0784 C   0  0  0  0  0  0  0  0  0  0  0  0
   28.2737  -15.2277  -17.4295 C   0  0  0  0  0  0  0  0  0  0  0  0
   28.2306  -16.4632  -16.8326 C   0  0  0  0  0  0  0  0  0  0  0  0
   27.2838  -16.7703  -15.8755 C   0  0  0  0  0  0  0  0  0  0  0  0
   28.5096  -21.1333  -16.6093 C   0  0  0  0  0  0  0  0  0  0  0  0
   28.4803  -22.2495  -15.9028 O   0  0  0  0  0  0  0  0  0  0  0  0
   27.6154  -27.9200  -15.5714 O   0  0  0  0  0  0  0  0  0  0  0  0
   27.9724  -26.7949  -16.3212 C   0  0  0  0  0  0  0  0  0  0  0  0
   27.0952  -25.7244  -16.3418 C   0  0  0  0  0  0  0  0  0  0  0  0
   27.3967  -24.5913  -17.0659 C   0  0  0  0  0  0  0  0  0  0  0  0
   28.5835  -24.4722  -17.8010 C   0  0  0  0  0  0  0  0  0  0  0  0
   28.7958  -23.2190  -18.5257 C   0  0  0  0  0  0  0  0  0  0  0  0
   30.0115  -22.4495  -18.1280 C   0  0  2  0  0  0  0  0  0  0  0  0
   29.4796  -21.1577  -17.5993 N   0  0  0  0  0  0  0  0  0  0  0  0
   30.9263  -22.1090  -19.2234 C   0  0  0  0  0  0  0  0  0  0  0  0
   31.0058  -20.9898  -19.7391 O   0  0  0  0  0  0  0  0  0  0  0  0
   29.4303  -25.5447  -17.7618 C   0  0  0  0  0  0  0  0  0  0  0  0
   29.1387  -26.6948  -17.0351 C   0  0  0  0  0  0  0  0  0  0  0  0
   31.7743  -23.1120  -19.7333 O   0  0  0  0  0  0  0  0  0  0  0  0
  2  1  1  1
  2  3  1  0
  4  3  1  0
  5  4  1  0
  6  5  1  0
  7  6  1  0
  8  9  2  0
  8  2  1  0
 10  8  1  0
 11 10  1  0
 11 12  1  1
 13 12  1  0
 14 13  2  0
 15 14  1  0
 16 15  1  0
 16 21  2  0
 17 16  1  0
 18 17  2  0
 18 19  1  0
 19 20  2  0
 20 21  1  0
 21 13  1  0
 22 23  2  0
 22 11  1  0
 25 24  1  0
 26 25  2  0
 27 26  1  0
 28 34  1  0
 28 27  2  0
 29 28  1  0
 30 29  1  6
 30 31  1  0
 31 22  1  0
 32 30  1  0
 33 32  2  0
 34 35  2  0
 35 25  1  0
 36 32  1  0
M  END
$$$$
