KWY.pdb
     RDKit          3D

 36 38  0  0  1  0  0  0  0  0999 V2000
   29.3646  -20.4632  -14.4093 N   0  0  0  0  0  0  0  0  0  0  0  0
   27.9402  -20.4750  -14.6189 C   0  0  1  0  0  0  0  0  0  0  0  0
   27.5910  -21.1284  -15.9173 C   0  0  0  0  0  0  0  0  0  0  0  0
   27.9235  -20.3296  -17.1254 C   0  0  0  0  0  0  0  0  0  0  0  0
   27.4042  -18.9351  -17.1693 C   0  0  0  0  0  0  0  0  0  0  0  0
   27.8010  -18.3518  -18.5393 C   0  0  0  0  0  0  0  0  0  0  0  0
   27.4392  -16.9557  -18.5873 N   0  0  0  0  0  0  0  0  0  0  0  0
   27.2266  -21.0651  -13.4587 C   0  0  0  0  0  0  0  0  0  0  0  0
   26.2270  -21.7765  -13.7100 O   0  0  0  0  0  0  0  0  0  0  0  0
   27.6549  -20.8368  -12.1344 N   0  0  0  0  0  0  0  0  0  0  0  0
   26.7658  -21.3072  -10.9867 C   0  0  1  0  0  0  0  0  0  0  0  0
   27.5908  -21.2073   -9.7822 C   0  0  0  0  0  0  0  0  0  0  0  0
   26.9844  -21.0199   -8.4756 C   0  0  0  0  0  0  0  0  0  0  0  0
   25.7065  -21.1956   -8.0255 C   0  0  0  0  0  0  0  0  0  0  0  0
   25.6666  -20.9098   -6.7218 N   0  0  0  0  0  0  0  0  0  0  0  0
   26.8929  -20.5426   -6.2688 C   0  0  0  0  0  0  0  0  0  0  0  0
   27.3454  -20.1766   -5.0218 C   0  0  0  0  0  0  0  0  0  0  0  0
   28.6632  -19.8650   -4.8376 C   0  0  0  0  0  0  0  0  0  0  0  0
   29.5259  -19.9209   -5.9080 C   0  0  0  0  0  0  0  0  0  0  0  0
   29.0597  -20.2862   -7.1466 C   0  0  0  0  0  0  0  0  0  0  0  0
   27.7323  -20.6055   -7.3534 C   0  0  0  0  0  0  0  0  0  0  0  0
   25.5382  -20.5668  -11.1607 C   0  0  0  0  0  0  0  0  0  0  0  0
   25.6084  -19.2474  -11.1456 O   0  0  0  0  0  0  0  0  0  0  0  0
   22.8632  -21.8451  -17.4149 O   0  0  0  0  0  0  0  0  0  0  0  0
   23.0214  -21.1609  -16.2057 C   0  0  0  0  0  0  0  0  0  0  0  0
   22.0107  -21.2635  -15.2656 C   0  0  0  0  0  0  0  0  0  0  0  0
   22.1145  -20.6084  -14.0575 C   0  0  0  0  0  0  0  0  0  0  0  0
   23.2276  -19.8228  -13.7308 C   0  0  0  0  0  0  0  0  0  0  0  0
   23.2273  -19.1804  -12.4162 C   0  0  0  0  0  0  0  0  0  0  0  0
   23.0740  -20.1045  -11.2539 C   0  0  2  0  0  0  0  0  0  0  0  0
   24.2447  -21.0268  -11.3532 N   0  0  0  0  0  0  0  0  0  0  0  0
   21.8734  -20.9476  -11.2751 C   0  0  0  0  0  0  0  0  0  0  0  0
   20.7190  -20.5135  -11.2118 O   0  0  0  0  0  0  0  0  0  0  0  0
   24.2097  -19.7401  -14.6782 C   0  0  0  0  0  0  0  0  0  0  0  0
   24.1181  -20.3961  -15.9017 C   0  0  0  0  0  0  0  0  0  0  0  0
   22.0291  -22.3446  -11.3714 O   0  0  0  0  0  0  0  0  0  0  0  0
  2  1  1  1
  2  3  1  0
  4  3  1  0
  5  4  1  0
  6  5  1  0
  7  6  1  0
  8  9  2  0
  8  2  1  0
 10  8  1  0
 11 10  1  0
 11 12  1  1
 13 12  1  0
 14 13  2  0
 15 14  1  0
 16 15  1  0
 16 21  2  0
 17 16  1  0
 18 17  2  0
 18 19  1  0
 19 20  2  0
 20 21  1  0
 21 13  1  0
 22 23  2  0
 22 11  1  0
 25 24  1  0
 26 25  2  0
 27 26  1  0
 28 34  1  0
 28 27  2  0
 29 28  1  0
 30 29  1  6
 30 31  1  0
 31 22  1  0
 32 30  1  0
 33 32  2  0
 34 35  2  0
 35 25  1  0
 36 32  1  0
M  END
$$$$
