KWY.pdb
     RDKit          3D

 36 38  0  0  1  0  0  0  0  0999 V2000
   27.4012  -21.9014  -15.0724 N   0  0  0  0  0  0  0  0  0  0  0  0
   27.1979  -20.7402  -14.2459 C   0  0  1  0  0  0  0  0  0  0  0  0
   26.1742  -19.8272  -14.8400 C   0  0  0  0  0  0  0  0  0  0  0  0
   26.6866  -18.9265  -15.9050 C   0  0  0  0  0  0  0  0  0  0  0  0
   28.0952  -18.4639  -15.7695 C   0  0  0  0  0  0  0  0  0  0  0  0
   28.3954  -17.5767  -16.9931 C   0  0  0  0  0  0  0  0  0  0  0  0
   29.7939  -17.2210  -16.9941 N   0  0  0  0  0  0  0  0  0  0  0  0
   26.8964  -21.1198  -12.8428 C   0  0  0  0  0  0  0  0  0  0  0  0
   26.0510  -22.0274  -12.6702 O   0  0  0  0  0  0  0  0  0  0  0  0
   27.5335  -20.4889  -11.7540 N   0  0  0  0  0  0  0  0  0  0  0  0
   27.1403  -20.9002  -10.3380 C   0  0  1  0  0  0  0  0  0  0  0  0
   28.2942  -20.5760   -9.4984 C   0  0  0  0  0  0  0  0  0  0  0  0
   28.3075  -20.9131   -8.0855 C   0  0  0  0  0  0  0  0  0  0  0  0
   28.5213  -22.0910   -7.4271 C   0  0  0  0  0  0  0  0  0  0  0  0
   28.4516  -21.8677   -6.1125 N   0  0  0  0  0  0  0  0  0  0  0  0
   28.1952  -20.5590   -5.8565 C   0  0  0  0  0  0  0  0  0  0  0  0
   28.0500  -19.8591   -4.6806 C   0  0  0  0  0  0  0  0  0  0  0  0
   27.8069  -18.5146   -4.7115 C   0  0  0  0  0  0  0  0  0  0  0  0
   27.7093  -17.8741   -5.9254 C   0  0  0  0  0  0  0  0  0  0  0  0
   27.8549  -18.5858   -7.0903 C   0  0  0  0  0  0  0  0  0  0  0  0
   28.1016  -19.9444   -7.0807 C   0  0  0  0  0  0  0  0  0  0  0  0
   25.8375  -20.3083  -10.1439 C   0  0  0  0  0  0  0  0  0  0  0  0
   25.7186  -19.0065  -10.3368 O   0  0  0  0  0  0  0  0  0  0  0  0
   21.7565  -22.8036  -15.2412 O   0  0  0  0  0  0  0  0  0  0  0  0
   22.0420  -22.0097  -14.1260 C   0  0  0  0  0  0  0  0  0  0  0  0
   23.0750  -21.0942  -14.2291 C   0  0  0  0  0  0  0  0  0  0  0  0
   23.3997  -20.2877  -13.1599 C   0  0  0  0  0  0  0  0  0  0  0  0
   22.7118  -20.3555  -11.9412 C   0  0  0  0  0  0  0  0  0  0  0  0
   23.1436  -19.4450  -10.8804 C   0  0  0  0  0  0  0  0  0  0  0  0
   23.4082  -20.0849   -9.5580 C   0  0  2  0  0  0  0  0  0  0  0  0
   24.6393  -20.9017   -9.7780 N   0  0  0  0  0  0  0  0  0  0  0  0
   22.3703  -21.0095   -9.0882 C   0  0  0  0  0  0  0  0  0  0  0  0
   21.1934  -20.6908   -8.8929 O   0  0  0  0  0  0  0  0  0  0  0  0
   21.6967  -21.2684  -11.8688 C   0  0  0  0  0  0  0  0  0  0  0  0
   21.3581  -22.0888  -12.9402 C   0  0  0  0  0  0  0  0  0  0  0  0
   22.7222  -22.3504   -8.8365 O   0  0  0  0  0  0  0  0  0  0  0  0
  2  1  1  6
  2  3  1  0
  4  3  1  0
  5  4  1  0
  6  5  1  0
  7  6  1  0
  8  9  2  0
  8  2  1  0
 10  8  1  0
 11 10  1  0
 11 12  1  1
 13 12  1  0
 14 13  2  0
 15 14  1  0
 16 15  1  0
 16 21  2  0
 17 16  1  0
 18 17  2  0
 18 19  1  0
 19 20  2  0
 20 21  1  0
 21 13  1  0
 22 23  2  0
 22 11  1  0
 25 24  1  0
 26 25  2  0
 27 26  1  0
 28 34  1  0
 28 27  2  0
 29 28  1  0
 30 29  1  6
 30 31  1  0
 31 22  1  0
 32 30  1  0
 33 32  2  0
 34 35  2  0
 35 25  1  0
 36 32  1  0
M  END
$$$$
