KWY.pdb
     RDKit          3D

 36 38  0  0  1  0  0  0  0  0999 V2000
   28.6814  -24.7035  -18.7035 N   0  0  0  0  0  0  0  0  0  0  0  0
   27.4189  -24.5741  -18.0236 C   0  0  1  0  0  0  0  0  0  0  0  0
   27.1610  -25.7488  -17.1358 C   0  0  0  0  0  0  0  0  0  0  0  0
   27.5684  -27.0599  -17.7042 C   0  0  0  0  0  0  0  0  0  0  0  0
   28.2651  -28.0005  -16.7843 C   0  0  0  0  0  0  0  0  0  0  0  0
   27.3800  -29.2570  -16.6730 C   0  0  0  0  0  0  0  0  0  0  0  0
   28.0810  -30.2705  -15.9222 N   0  0  0  0  0  0  0  0  0  0  0  0
   27.3159  -23.2738  -17.3148 C   0  0  0  0  0  0  0  0  0  0  0  0
   28.3903  -22.6997  -17.0244 O   0  0  0  0  0  0  0  0  0  0  0  0
   26.0659  -22.7098  -16.9848 N   0  0  0  0  0  0  0  0  0  0  0  0
   26.0351  -21.3301  -16.3333 C   0  0  1  0  0  0  0  0  0  0  0  0
   25.2199  -20.4951  -17.2162 C   0  0  0  0  0  0  0  0  0  0  0  0
   25.8208  -19.4320  -18.0028 C   0  0  0  0  0  0  0  0  0  0  0  0
   25.3512  -18.6893  -19.0490 C   0  0  0  0  0  0  0  0  0  0  0  0
   26.2907  -17.8115  -19.4093 N   0  0  0  0  0  0  0  0  0  0  0  0
   27.3953  -17.9371  -18.6294 C   0  0  0  0  0  0  0  0  0  0  0  0
   28.5932  -17.2602  -18.6091 C   0  0  0  0  0  0  0  0  0  0  0  0
   29.5470  -17.5871  -17.6865 C   0  0  0  0  0  0  0  0  0  0  0  0
   29.2960  -18.5957  -16.7847 C   0  0  0  0  0  0  0  0  0  0  0  0
   28.0968  -19.2633  -16.8182 C   0  0  0  0  0  0  0  0  0  0  0  0
   27.1200  -18.9476  -17.7418 C   0  0  0  0  0  0  0  0  0  0  0  0
   25.6839  -21.5936  -14.9575 C   0  0  0  0  0  0  0  0  0  0  0  0
   24.6716  -22.4110  -14.7271 O   0  0  0  0  0  0  0  0  0  0  0  0
   25.1133  -20.9680   -6.0150 O   0  0  0  0  0  0  0  0  0  0  0  0
   25.5109  -21.0321   -7.3541 C   0  0  0  0  0  0  0  0  0  0  0  0
   25.4841  -19.8633   -8.0951 C   0  0  0  0  0  0  0  0  0  0  0  0
   25.8643  -19.8700   -9.4197 C   0  0  0  0  0  0  0  0  0  0  0  0
   26.2880  -21.0387  -10.0660 C   0  0  0  0  0  0  0  0  0  0  0  0
   26.6720  -20.9205  -11.4729 C   0  0  0  0  0  0  0  0  0  0  0  0
   25.6777  -21.4491  -12.4528 C   0  0  2  0  0  0  0  0  0  0  0  0
   26.2569  -21.1166  -13.7888 N   0  0  0  0  0  0  0  0  0  0  0  0
   24.3519  -20.8226  -12.4031 C   0  0  0  0  0  0  0  0  0  0  0  0
   23.3609  -21.3358  -11.8744 O   0  0  0  0  0  0  0  0  0  0  0  0
   26.3044  -22.1772   -9.3093 C   0  0  0  0  0  0  0  0  0  0  0  0
   25.9234  -22.1849   -7.9712 C   0  0  0  0  0  0  0  0  0  0  0  0
   24.1799  -19.5550  -12.9936 O   0  0  0  0  0  0  0  0  0  0  0  0
  2  1  1  1
  2  3  1  0
  4  3  1  0
  5  4  1  0
  6  5  1  0
  7  6  1  0
  8  9  2  0
  8  2  1  0
 10  8  1  0
 11 10  1  0
 11 12  1  6
 13 12  1  0
 14 13  2  0
 15 14  1  0
 16 15  1  0
 16 21  2  0
 17 16  1  0
 18 17  2  0
 18 19  1  0
 19 20  2  0
 20 21  1  0
 21 13  1  0
 22 23  2  0
 22 11  1  0
 25 24  1  0
 26 25  2  0
 27 26  1  0
 28 34  1  0
 28 27  2  0
 29 28  1  0
 30 29  1  1
 30 31  1  0
 31 22  1  0
 32 30  1  0
 33 32  2  0
 34 35  2  0
 35 25  1  0
 36 32  1  0
M  END
$$$$
