KWY.pdb
     RDKit          3D

 36 38  0  0  1  0  0  0  0  0999 V2000
   29.3539  -22.2967  -16.9050 N   0  0  0  0  0  0  0  0  0  0  0  0
   28.5846  -21.1306  -16.5568 C   0  0  1  0  0  0  0  0  0  0  0  0
   27.8896  -20.5652  -17.7533 C   0  0  0  0  0  0  0  0  0  0  0  0
   28.7941  -20.1005  -18.8369 C   0  0  0  0  0  0  0  0  0  0  0  0
   29.1715  -21.1040  -19.8698 C   0  0  0  0  0  0  0  0  0  0  0  0
   29.9999  -20.3608  -20.9355 C   0  0  0  0  0  0  0  0  0  0  0  0
   30.4398  -21.2994  -21.9394 N   0  0  0  0  0  0  0  0  0  0  0  0
   27.6651  -21.4063  -15.4245 C   0  0  0  0  0  0  0  0  0  0  0  0
   26.6276  -22.0584  -15.6825 O   0  0  0  0  0  0  0  0  0  0  0  0
   27.9470  -20.9560  -14.1178 N   0  0  0  0  0  0  0  0  0  0  0  0
   27.0412  -21.4097  -12.9765 C   0  0  1  0  0  0  0  0  0  0  0  0
   27.7857  -21.1314  -11.7477 C   0  0  0  0  0  0  0  0  0  0  0  0
   27.1550  -21.2663  -10.4462 C   0  0  0  0  0  0  0  0  0  0  0  0
   26.6622  -22.3497   -9.7753 C   0  0  0  0  0  0  0  0  0  0  0  0
   26.2033  -21.9477   -8.5875 N   0  0  0  0  0  0  0  0  0  0  0  0
   26.3728  -20.6096   -8.4304 C   0  0  0  0  0  0  0  0  0  0  0  0
   26.0758  -19.7566   -7.3922 C   0  0  0  0  0  0  0  0  0  0  0  0
   26.3750  -18.4270   -7.4936 C   0  0  0  0  0  0  0  0  0  0  0  0
   26.9725  -17.9552   -8.6398 C   0  0  0  0  0  0  0  0  0  0  0  0
   27.2615  -18.8179   -9.6679 C   0  0  0  0  0  0  0  0  0  0  0  0
   26.9679  -20.1646   -9.5849 C   0  0  0  0  0  0  0  0  0  0  0  0
   25.7637  -20.8055  -13.2740 C   0  0  0  0  0  0  0  0  0  0  0  0
   25.7643  -19.5929  -13.7990 O   0  0  0  0  0  0  0  0  0  0  0  0
   22.7176  -26.1852  -16.2860 O   0  0  0  0  0  0  0  0  0  0  0  0
   22.6913  -24.8495  -15.8730 C   0  0  0  0  0  0  0  0  0  0  0  0
   23.7784  -24.0523  -16.1868 C   0  0  0  0  0  0  0  0  0  0  0  0
   23.8052  -22.7290  -15.8028 C   0  0  0  0  0  0  0  0  0  0  0  0
   22.7525  -22.1399  -15.0902 C   0  0  0  0  0  0  0  0  0  0  0  0
   22.8921  -20.7255  -14.7427 C   0  0  0  0  0  0  0  0  0  0  0  0
   23.2805  -20.4510  -13.3278 C   0  0  2  0  0  0  0  0  0  0  0  0
   24.4832  -21.3065  -13.0979 N   0  0  0  0  0  0  0  0  0  0  0  0
   22.2904  -20.8397  -12.3172 C   0  0  0  0  0  0  0  0  0  0  0  0
   21.1734  -20.3253  -12.2058 O   0  0  0  0  0  0  0  0  0  0  0  0
   21.6925  -22.9512  -14.7948 C   0  0  0  0  0  0  0  0  0  0  0  0
   21.6522  -24.2886  -15.1762 C   0  0  0  0  0  0  0  0  0  0  0  0
   22.6194  -21.8627  -11.4059 O   0  0  0  0  0  0  0  0  0  0  0  0
  2  1  1  6
  2  3  1  0
  4  3  1  0
  5  4  1  0
  6  5  1  0
  7  6  1  0
  8  9  2  0
  8  2  1  0
 10  8  1  0
 11 10  1  0
 11 12  1  1
 13 12  1  0
 14 13  2  0
 15 14  1  0
 16 15  1  0
 16 21  2  0
 17 16  1  0
 18 17  2  0
 18 19  1  0
 19 20  2  0
 20 21  1  0
 21 13  1  0
 22 23  2  0
 22 11  1  0
 25 24  1  0
 26 25  2  0
 27 26  1  0
 28 34  1  0
 28 27  2  0
 29 28  1  0
 30 29  1  6
 30 31  1  0
 31 22  1  0
 32 30  1  0
 33 32  2  0
 34 35  2  0
 35 25  1  0
 36 32  1  0
M  END
$$$$
