KWY.pdb
     RDKit          3D

 36 38  0  0  1  0  0  0  0  0999 V2000
   14.0538  -20.1150    1.4504 N   0  0  0  0  0  0  0  0  0  0  0  0
   13.7424  -19.5418    2.7339 C   0  0  1  0  0  0  0  0  0  0  0  0
   13.2281  -20.5801    3.6784 C   0  0  0  0  0  0  0  0  0  0  0  0
   12.0244  -21.3113    3.2044 C   0  0  0  0  0  0  0  0  0  0  0  0
   12.2609  -22.4985    2.3378 C   0  0  0  0  0  0  0  0  0  0  0  0
   12.2617  -23.7334    3.2596 C   0  0  0  0  0  0  0  0  0  0  0  0
   12.4122  -24.9258    2.4612 N   0  0  0  0  0  0  0  0  0  0  0  0
   14.8916  -18.7761    3.2786 C   0  0  0  0  0  0  0  0  0  0  0  0
   16.0336  -19.1179    2.8948 O   0  0  0  0  0  0  0  0  0  0  0  0
   14.7064  -17.7118    4.1855 N   0  0  0  0  0  0  0  0  0  0  0  0
   15.9188  -16.8801    4.5946 C   0  0  1  0  0  0  0  0  0  0  0  0
   15.4954  -15.4838    4.4817 C   0  0  0  0  0  0  0  0  0  0  0  0
   16.4560  -14.4007    4.6005 C   0  0  0  0  0  0  0  0  0  0  0  0
   16.6510  -13.4511    5.5633 C   0  0  0  0  0  0  0  0  0  0  0  0
   17.6925  -12.6920    5.2140 N   0  0  0  0  0  0  0  0  0  0  0  0
   18.2164  -13.1035    4.0307 C   0  0  0  0  0  0  0  0  0  0  0  0
   19.2820  -12.6526    3.2858 C   0  0  0  0  0  0  0  0  0  0  0  0
   19.6079  -13.2748    2.1135 C   0  0  0  0  0  0  0  0  0  0  0  0
   18.8614  -14.3503    1.6900 C   0  0  0  0  0  0  0  0  0  0  0  0
   17.8001  -14.7878    2.4429 C   0  0  0  0  0  0  0  0  0  0  0  0
   17.4549  -14.1735    3.6305 C   0  0  0  0  0  0  0  0  0  0  0  0
   16.3523  -17.4705    5.8391 C   0  0  0  0  0  0  0  0  0  0  0  0
   15.4214  -17.8939    6.6760 O   0  0  0  0  0  0  0  0  0  0  0  0
   19.5632  -23.9189    5.2785 O   0  0  0  0  0  0  0  0  0  0  0  0
   18.8978  -22.8193    5.8293 C   0  0  0  0  0  0  0  0  0  0  0  0
   19.3479  -22.3305    7.0435 C   0  0  0  0  0  0  0  0  0  0  0  0
   18.7275  -21.2497    7.6319 C   0  0  0  0  0  0  0  0  0  0  0  0
   17.6328  -20.6070    7.0390 C   0  0  0  0  0  0  0  0  0  0  0  0
   17.0611  -19.4666    7.7557 C   0  0  0  0  0  0  0  0  0  0  0  0
   17.8643  -18.2096    7.6998 C   0  0  2  0  0  0  0  0  0  0  0  0
   17.6346  -17.6806    6.3220 N   0  0  0  0  0  0  0  0  0  0  0  0
   19.3139  -18.3827    7.8460 C   0  0  0  0  0  0  0  0  0  0  0  0
   19.8604  -18.8384    8.8553 O   0  0  0  0  0  0  0  0  0  0  0  0
   17.2106  -21.1113    5.8405 C   0  0  0  0  0  0  0  0  0  0  0  0
   17.8274  -22.2017    5.2352 C   0  0  0  0  0  0  0  0  0  0  0  0
   20.1513  -18.0081    6.7767 O   0  0  0  0  0  0  0  0  0  0  0  0
  2  1  1  6
  2  3  1  0
  4  3  1  0
  5  4  1  0
  6  5  1  0
  7  6  1  0
  8  9  2  0
  8  2  1  0
 10  8  1  0
 11 10  1  0
 11 12  1  1
 13 12  1  0
 14 13  2  0
 15 14  1  0
 16 15  1  0
 16 21  2  0
 17 16  1  0
 18 17  2  0
 18 19  1  0
 19 20  2  0
 20 21  1  0
 21 13  1  0
 22 23  2  0
 22 11  1  0
 25 24  1  0
 26 25  2  0
 27 26  1  0
 28 34  1  0
 28 27  2  0
 29 28  1  0
 30 29  1  6
 30 31  1  0
 31 22  1  0
 32 30  1  0
 33 32  2  0
 34 35  2  0
 35 25  1  0
 36 32  1  0
M  END
$$$$
