KWY.pdb
     RDKit          3D

 36 38  0  0  1  0  0  0  0  0999 V2000
   28.7731  -21.4910  -14.0189 N   0  0  0  0  0  0  0  0  0  0  0  0
   27.9735  -20.4170  -13.4897 C   0  0  1  0  0  0  0  0  0  0  0  0
   27.2449  -19.6987  -14.5795 C   0  0  0  0  0  0  0  0  0  0  0  0
   28.1172  -19.1108  -15.6291 C   0  0  0  0  0  0  0  0  0  0  0  0
   28.3751  -19.9495  -16.8317 C   0  0  0  0  0  0  0  0  0  0  0  0
   29.1632  -19.0759  -17.8269 C   0  0  0  0  0  0  0  0  0  0  0  0
   29.5269  -19.8696  -18.9758 N   0  0  0  0  0  0  0  0  0  0  0  0
   27.0787  -20.8915  -12.4044 C   0  0  0  0  0  0  0  0  0  0  0  0
   26.4957  -21.9846  -12.5875 O   0  0  0  0  0  0  0  0  0  0  0  0
   26.8944  -20.1468  -11.2208 N   0  0  0  0  0  0  0  0  0  0  0  0
   25.9485  -20.6911  -10.1540 C   0  0  1  0  0  0  0  0  0  0  0  0
   26.4376  -20.1556   -8.8830 C   0  0  0  0  0  0  0  0  0  0  0  0
   27.7277  -20.5583   -8.3504 C   0  0  0  0  0  0  0  0  0  0  0  0
   28.7287  -21.3335   -8.8639 C   0  0  0  0  0  0  0  0  0  0  0  0
   29.7312  -21.3804   -7.9831 N   0  0  0  0  0  0  0  0  0  0  0  0
   29.4374  -20.6512   -6.8758 C   0  0  0  0  0  0  0  0  0  0  0  0
   30.1468  -20.3924   -5.7254 C   0  0  0  0  0  0  0  0  0  0  0  0
   29.6083  -19.5938   -4.7559 C   0  0  0  0  0  0  0  0  0  0  0  0
   28.3556  -19.0561   -4.9433 C   0  0  0  0  0  0  0  0  0  0  0  0
   27.6591  -19.3245   -6.0956 C   0  0  0  0  0  0  0  0  0  0  0  0
   28.1858  -20.1281   -7.0873 C   0  0  0  0  0  0  0  0  0  0  0  0
   24.6295  -20.4077  -10.6693 C   0  0  0  0  0  0  0  0  0  0  0  0
   24.5299  -19.5391  -11.6601 O   0  0  0  0  0  0  0  0  0  0  0  0
   18.3366  -20.7947  -16.3570 O   0  0  0  0  0  0  0  0  0  0  0  0
   19.2931  -20.8410  -15.3380 C   0  0  0  0  0  0  0  0  0  0  0  0
   20.5360  -21.3707  -15.6390 C   0  0  0  0  0  0  0  0  0  0  0  0
   21.5152  -21.4416  -14.6718 C   0  0  0  0  0  0  0  0  0  0  0  0
   21.3021  -20.9889  -13.3631 C   0  0  0  0  0  0  0  0  0  0  0  0
   22.4187  -21.1112  -12.4254 C   0  0  0  0  0  0  0  0  0  0  0  0
   22.1566  -20.5946  -11.0496 C   0  0  2  0  0  0  0  0  0  0  0  0
   23.3990  -20.9184  -10.2862 N   0  0  0  0  0  0  0  0  0  0  0  0
   21.0473  -21.2382  -10.3371 C   0  0  0  0  0  0  0  0  0  0  0  0
   21.1442  -22.3019   -9.7174 O   0  0  0  0  0  0  0  0  0  0  0  0
   20.0657  -20.4707  -13.0953 C   0  0  0  0  0  0  0  0  0  0  0  0
   19.0680  -20.3930  -14.0618 C   0  0  0  0  0  0  0  0  0  0  0  0
   19.7825  -20.6176  -10.3523 O   0  0  0  0  0  0  0  0  0  0  0  0
  2  1  1  6
  2  3  1  0
  4  3  1  0
  5  4  1  0
  6  5  1  0
  7  6  1  0
  8  9  2  0
  8  2  1  0
 10  8  1  0
 11 10  1  0
 11 12  1  1
 13 12  1  0
 14 13  2  0
 15 14  1  0
 16 15  1  0
 16 21  2  0
 17 16  1  0
 18 17  2  0
 18 19  1  0
 19 20  2  0
 20 21  1  0
 21 13  1  0
 22 23  2  0
 22 11  1  0
 25 24  1  0
 26 25  2  0
 27 26  1  0
 28 34  1  0
 28 27  2  0
 29 28  1  0
 30 29  1  6
 30 31  1  0
 31 22  1  0
 32 30  1  0
 33 32  2  0
 34 35  2  0
 35 25  1  0
 36 32  1  0
M  END
$$$$
