KWY.pdb
     RDKit          3D

 36 38  0  0  1  0  0  0  0  0999 V2000
   15.7508  -10.6639  -16.8533 N   0  0  0  0  0  0  0  0  0  0  0  0
   16.6323   -9.5270  -16.7966 C   0  0  1  0  0  0  0  0  0  0  0  0
   16.2865   -8.5227  -17.8484 C   0  0  0  0  0  0  0  0  0  0  0  0
   16.1602   -9.0774  -19.2212 C   0  0  0  0  0  0  0  0  0  0  0  0
   15.9424   -8.0981  -20.3211 C   0  0  0  0  0  0  0  0  0  0  0  0
   15.8268   -8.9085  -21.6266 C   0  0  0  0  0  0  0  0  0  0  0  0
   15.5161   -8.0162  -22.7173 N   0  0  0  0  0  0  0  0  0  0  0  0
   16.6820   -8.9474  -15.4309 C   0  0  0  0  0  0  0  0  0  0  0  0
   15.6608   -9.0849  -14.7191 O   0  0  0  0  0  0  0  0  0  0  0  0
   17.8266   -8.2740  -14.9556 N   0  0  0  0  0  0  0  0  0  0  0  0
   17.7595   -7.5891  -13.5935 C   0  0  1  0  0  0  0  0  0  0  0  0
   18.8552   -8.1612  -12.8100 C   0  0  0  0  0  0  0  0  0  0  0  0
   19.2155   -7.6083  -11.5160 C   0  0  0  0  0  0  0  0  0  0  0  0
   18.7146   -7.8125  -10.2614 C   0  0  0  0  0  0  0  0  0  0  0  0
   19.4151   -7.0779   -9.3939 N   0  0  0  0  0  0  0  0  0  0  0  0
   20.3875   -6.3745  -10.0292 C   0  0  0  0  0  0  0  0  0  0  0  0
   21.3510   -5.5069   -9.5681 C   0  0  0  0  0  0  0  0  0  0  0  0
   22.2335   -4.9385  -10.4431 C   0  0  0  0  0  0  0  0  0  0  0  0
   22.1465   -5.2423  -11.7823 C   0  0  0  0  0  0  0  0  0  0  0  0
   21.1790   -6.1085  -12.2279 C   0  0  0  0  0  0  0  0  0  0  0  0
   20.2784   -6.6938  -11.3600 C   0  0  0  0  0  0  0  0  0  0  0  0
   17.6697   -6.1821  -13.9063 C   0  0  0  0  0  0  0  0  0  0  0  0
   18.3742   -5.7336  -14.9303 O   0  0  0  0  0  0  0  0  0  0  0  0
   14.0284   -4.2362  -19.3467 O   0  0  0  0  0  0  0  0  0  0  0  0
   14.3949   -4.0671  -18.0079 C   0  0  0  0  0  0  0  0  0  0  0  0
   15.2580   -3.0304  -17.6978 C   0  0  0  0  0  0  0  0  0  0  0  0
   15.6528   -2.8195  -16.3944 C   0  0  0  0  0  0  0  0  0  0  0  0
   15.2069   -3.6297  -15.3419 C   0  0  0  0  0  0  0  0  0  0  0  0
   15.6904   -3.3048  -13.9997 C   0  0  0  0  0  0  0  0  0  0  0  0
   17.0820   -3.7520  -13.6966 C   0  0  2  0  0  0  0  0  0  0  0  0
   16.9345   -5.1816  -13.2897 N   0  0  0  0  0  0  0  0  0  0  0  0
   17.7341   -3.0629  -12.5775 C   0  0  0  0  0  0  0  0  0  0  0  0
   18.0178   -3.5996  -11.5021 O   0  0  0  0  0  0  0  0  0  0  0  0
   14.3555   -4.6451  -15.6781 C   0  0  0  0  0  0  0  0  0  0  0  0
   13.9487   -4.8695  -16.9895 C   0  0  0  0  0  0  0  0  0  0  0  0
   18.0630   -1.7004  -12.7209 O   0  0  0  0  0  0  0  0  0  0  0  0
  2  1  1  1
  2  3  1  0
  4  3  1  0
  5  4  1  0
  6  5  1  0
  7  6  1  0
  8  9  2  0
  8  2  1  0
 10  8  1  0
 11 10  1  0
 11 12  1  1
 13 12  1  0
 14 13  2  0
 15 14  1  0
 16 15  1  0
 16 21  2  0
 17 16  1  0
 18 17  2  0
 18 19  1  0
 19 20  2  0
 20 21  1  0
 21 13  1  0
 22 23  2  0
 22 11  1  0
 25 24  1  0
 26 25  2  0
 27 26  1  0
 28 34  1  0
 28 27  2  0
 29 28  1  0
 30 29  1  1
 30 31  1  0
 31 22  1  0
 32 30  1  0
 33 32  2  0
 34 35  2  0
 35 25  1  0
 36 32  1  0
M  END
$$$$
