KWY.pdb
     RDKit          3D

 36 38  0  0  1  0  0  0  0  0999 V2000
   27.8319  -20.8494  -15.9471 N   0  0  0  0  0  0  0  0  0  0  0  0
   27.1567  -22.1115  -15.7915 C   0  0  1  0  0  0  0  0  0  0  0  0
   28.1318  -23.2438  -15.7500 C   0  0  0  0  0  0  0  0  0  0  0  0
   28.9123  -23.4392  -16.9994 C   0  0  0  0  0  0  0  0  0  0  0  0
   30.2276  -22.7470  -17.0817 C   0  0  0  0  0  0  0  0  0  0  0  0
   30.7685  -22.9797  -18.5057 C   0  0  0  0  0  0  0  0  0  0  0  0
   32.0098  -22.2621  -18.6689 N   0  0  0  0  0  0  0  0  0  0  0  0
   26.2349  -22.0931  -14.6281 C   0  0  0  0  0  0  0  0  0  0  0  0
   25.7804  -23.1962  -14.2473 O   0  0  0  0  0  0  0  0  0  0  0  0
   25.8876  -20.8893  -13.9801 N   0  0  0  0  0  0  0  0  0  0  0  0
   25.0007  -20.9556  -12.7400 C   0  0  1  0  0  0  0  0  0  0  0  0
   25.6510  -20.1031  -11.7440 C   0  0  0  0  0  0  0  0  0  0  0  0
   26.8899  -20.5126  -11.1057 C   0  0  0  0  0  0  0  0  0  0  0  0
   28.0680  -20.9848  -11.6114 C   0  0  0  0  0  0  0  0  0  0  0  0
   28.9163  -21.1941  -10.6017 N   0  0  0  0  0  0  0  0  0  0  0  0
   28.3430  -20.8733   -9.4132 C   0  0  0  0  0  0  0  0  0  0  0  0
   28.8154  -20.9062   -8.1212 C   0  0  0  0  0  0  0  0  0  0  0  0
   28.0139  -20.5031   -7.0903 C   0  0  0  0  0  0  0  0  0  0  0  0
   26.7366  -20.0675   -7.3590 C   0  0  0  0  0  0  0  0  0  0  0  0
   26.2785  -20.0418   -8.6530 C   0  0  0  0  0  0  0  0  0  0  0  0
   27.0728  -20.4440   -9.7085 C   0  0  0  0  0  0  0  0  0  0  0  0
   23.6697  -20.7032  -13.2401 C   0  0  0  0  0  0  0  0  0  0  0  0
   23.5301  -19.7870  -14.1820 O   0  0  0  0  0  0  0  0  0  0  0  0
   17.7086  -24.5961   -9.5835 O   0  0  0  0  0  0  0  0  0  0  0  0
   18.4363  -24.0217  -10.6303 C   0  0  0  0  0  0  0  0  0  0  0  0
   17.9354  -22.8705  -11.2131 C   0  0  0  0  0  0  0  0  0  0  0  0
   18.6116  -22.2639  -12.2495 C   0  0  0  0  0  0  0  0  0  0  0  0
   19.8156  -22.7749  -12.7519 C   0  0  0  0  0  0  0  0  0  0  0  0
   20.4442  -22.0409  -13.8506 C   0  0  0  0  0  0  0  0  0  0  0  0
   21.1718  -20.7990  -13.4549 C   0  0  2  0  0  0  0  0  0  0  0  0
   22.4636  -21.2880  -12.8864 N   0  0  0  0  0  0  0  0  0  0  0  0
   20.5280  -20.0003  -12.4059 C   0  0  0  0  0  0  0  0  0  0  0  0
   20.9430  -19.9137  -11.2461 O   0  0  0  0  0  0  0  0  0  0  0  0
   20.2860  -23.9122  -12.1569 C   0  0  0  0  0  0  0  0  0  0  0  0
   19.6139  -24.5350  -11.1100 C   0  0  0  0  0  0  0  0  0  0  0  0
   19.3589  -19.2813  -12.7244 O   0  0  0  0  0  0  0  0  0  0  0  0
  2  1  1  1
  2  3  1  0
  4  3  1  0
  5  4  1  0
  6  5  1  0
  7  6  1  0
  8  9  2  0
  8  2  1  0
 10  8  1  0
 11 10  1  0
 11 12  1  1
 13 12  1  0
 14 13  2  0
 15 14  1  0
 16 15  1  0
 16 21  2  0
 17 16  1  0
 18 17  2  0
 18 19  1  0
 19 20  2  0
 20 21  1  0
 21 13  1  0
 22 23  2  0
 22 11  1  0
 25 24  1  0
 26 25  2  0
 27 26  1  0
 28 34  1  0
 28 27  2  0
 29 28  1  0
 30 29  1  1
 30 31  1  0
 31 22  1  0
 32 30  1  0
 33 32  2  0
 34 35  2  0
 35 25  1  0
 36 32  1  0
M  END
$$$$
