KWY.pdb
     RDKit          3D

 36 38  0  0  1  0  0  0  0  0999 V2000
   29.4977  -22.6466  -15.2238 N   0  0  0  0  0  0  0  0  0  0  0  0
   28.9027  -21.4296  -14.7363 C   0  0  1  0  0  0  0  0  0  0  0  0
   28.1968  -20.6972  -15.8318 C   0  0  0  0  0  0  0  0  0  0  0  0
   28.5156  -21.1713  -17.2035 C   0  0  0  0  0  0  0  0  0  0  0  0
   27.9359  -20.3926  -18.3322 C   0  0  0  0  0  0  0  0  0  0  0  0
   28.4078  -21.0699  -19.6334 C   0  0  0  0  0  0  0  0  0  0  0  0
   27.9096  -20.3281  -20.7663 N   0  0  0  0  0  0  0  0  0  0  0  0
   28.0405  -21.6833  -13.5548 C   0  0  0  0  0  0  0  0  0  0  0  0
   27.0295  -22.4003  -13.7342 O   0  0  0  0  0  0  0  0  0  0  0  0
   28.3462  -21.1433  -12.2881 N   0  0  0  0  0  0  0  0  0  0  0  0
   27.3373  -21.3168  -11.1563 C   0  0  1  0  0  0  0  0  0  0  0  0
   28.0349  -20.9009   -9.9389 C   0  0  0  0  0  0  0  0  0  0  0  0
   27.3001  -20.3874   -8.7960 C   0  0  0  0  0  0  0  0  0  0  0  0
   25.9682  -20.1640   -8.5889 C   0  0  0  0  0  0  0  0  0  0  0  0
   25.7975  -19.7030   -7.3474 N   0  0  0  0  0  0  0  0  0  0  0  0
   26.9866  -19.6070   -6.6986 C   0  0  0  0  0  0  0  0  0  0  0  0
   27.3134  -19.2042   -5.4240 C   0  0  0  0  0  0  0  0  0  0  0  0
   28.6173  -19.2216   -5.0154 C   0  0  0  0  0  0  0  0  0  0  0  0
   29.5929  -19.6436   -5.8892 C   0  0  0  0  0  0  0  0  0  0  0  0
   29.2519  -20.0410   -7.1583 C   0  0  0  0  0  0  0  0  0  0  0  0
   27.9404  -20.0315   -7.5902 C   0  0  0  0  0  0  0  0  0  0  0  0
   26.1440  -20.6623  -11.6393 C   0  0  0  0  0  0  0  0  0  0  0  0
   26.2944  -19.6235  -12.4420 O   0  0  0  0  0  0  0  0  0  0  0  0
   22.9814  -25.6702  -15.4022 O   0  0  0  0  0  0  0  0  0  0  0  0
   23.1335  -24.3635  -14.9281 C   0  0  0  0  0  0  0  0  0  0  0  0
   24.4185  -23.8648  -14.8023 C   0  0  0  0  0  0  0  0  0  0  0  0
   24.6257  -22.5837  -14.3385 C   0  0  0  0  0  0  0  0  0  0  0  0
   23.5647  -21.7419  -13.9797 C   0  0  0  0  0  0  0  0  0  0  0  0
   23.9086  -20.4010  -13.5059 C   0  0  0  0  0  0  0  0  0  0  0  0
   23.7169  -20.1718  -12.0434 C   0  0  2  0  0  0  0  0  0  0  0  0
   24.8112  -20.9556  -11.3959 N   0  0  0  0  0  0  0  0  0  0  0  0
   22.4556  -20.6753  -11.4881 C   0  0  0  0  0  0  0  0  0  0  0  0
   21.3410  -20.2363  -11.7875 O   0  0  0  0  0  0  0  0  0  0  0  0
   22.3073  -22.2612  -14.1147 C   0  0  0  0  0  0  0  0  0  0  0  0
   22.0835  -23.5526  -14.5815 C   0  0  0  0  0  0  0  0  0  0  0  0
   22.5008  -21.7257  -10.5501 O   0  0  0  0  0  0  0  0  0  0  0  0
  2  1  1  6
  2  3  1  0
  4  3  1  0
  5  4  1  0
  6  5  1  0
  7  6  1  0
  8  9  2  0
  8  2  1  0
 10  8  1  0
 11 10  1  0
 11 12  1  1
 13 12  1  0
 14 13  2  0
 15 14  1  0
 16 15  1  0
 16 21  2  0
 17 16  1  0
 18 17  2  0
 18 19  1  0
 19 20  2  0
 20 21  1  0
 21 13  1  0
 22 23  2  0
 22 11  1  0
 25 24  1  0
 26 25  2  0
 27 26  1  0
 28 34  1  0
 28 27  2  0
 29 28  1  0
 30 29  1  6
 30 31  1  0
 31 22  1  0
 32 30  1  0
 33 32  2  0
 34 35  2  0
 35 25  1  0
 36 32  1  0
M  END
$$$$
