KWY.pdb
     RDKit          3D

 36 38  0  0  1  0  0  0  0  0999 V2000
   41.2191   -3.8544   -5.9434 N   0  0  0  0  0  0  0  0  0  0  0  0
   42.0762   -4.6539   -6.7794 C   0  0  1  0  0  0  0  0  0  0  0  0
   43.5086   -4.5127   -6.3756 C   0  0  0  0  0  0  0  0  0  0  0  0
   44.1025   -3.1774   -6.6449 C   0  0  0  0  0  0  0  0  0  0  0  0
   45.5397   -3.0022   -6.2985 C   0  0  0  0  0  0  0  0  0  0  0  0
   45.9185   -1.5566   -6.6743 C   0  0  0  0  0  0  0  0  0  0  0  0
   47.3413   -1.3780   -6.5133 N   0  0  0  0  0  0  0  0  0  0  0  0
   41.6210   -6.0660   -6.8290 C   0  0  0  0  0  0  0  0  0  0  0  0
   41.2110   -6.5675   -5.7572 O   0  0  0  0  0  0  0  0  0  0  0  0
   41.6473   -6.8086   -8.0280 N   0  0  0  0  0  0  0  0  0  0  0  0
   41.1908   -8.2645   -7.9967 C   0  0  1  0  0  0  0  0  0  0  0  0
   39.9965   -8.3215   -8.8406 C   0  0  0  0  0  0  0  0  0  0  0  0
   38.7105   -7.8619   -8.3458 C   0  0  0  0  0  0  0  0  0  0  0  0
   37.9903   -6.7257   -8.5847 C   0  0  0  0  0  0  0  0  0  0  0  0
   36.8453   -6.7905   -7.9008 N   0  0  0  0  0  0  0  0  0  0  0  0
   36.7658   -7.9499   -7.1983 C   0  0  0  0  0  0  0  0  0  0  0  0
   35.7925   -8.4647   -6.3728 C   0  0  0  0  0  0  0  0  0  0  0  0
   35.9661   -9.6904   -5.7939 C   0  0  0  0  0  0  0  0  0  0  0  0
   37.1191  -10.3982   -6.0448 C   0  0  0  0  0  0  0  0  0  0  0  0
   38.0820   -9.8711   -6.8694 C   0  0  0  0  0  0  0  0  0  0  0  0
   37.9255   -8.6349   -7.4645 C   0  0  0  0  0  0  0  0  0  0  0  0
   42.3887   -9.0195   -8.2802 C   0  0  0  0  0  0  0  0  0  0  0  0
   43.2799   -8.4773   -9.0913 O   0  0  0  0  0  0  0  0  0  0  0  0
   45.9200   -9.0598   -2.3508 O   0  0  0  0  0  0  0  0  0  0  0  0
   45.6627   -9.2095   -3.7171 C   0  0  0  0  0  0  0  0  0  0  0  0
   46.4421  -10.1044   -4.4295 C   0  0  0  0  0  0  0  0  0  0  0  0
   46.2322  -10.2897   -5.7789 C   0  0  0  0  0  0  0  0  0  0  0  0
   45.2383   -9.5937   -6.4794 C   0  0  0  0  0  0  0  0  0  0  0  0
   45.1065   -9.8786   -7.9085 C   0  0  0  0  0  0  0  0  0  0  0  0
   44.0647  -10.8865   -8.2653 C   0  0  2  0  0  0  0  0  0  0  0  0
   42.7794  -10.2681   -7.8218 N   0  0  0  0  0  0  0  0  0  0  0  0
   44.1719  -12.1743   -7.5706 C   0  0  0  0  0  0  0  0  0  0  0  0
   43.3807  -12.5651   -6.7068 O   0  0  0  0  0  0  0  0  0  0  0  0
   44.4843   -8.7172   -5.7500 C   0  0  0  0  0  0  0  0  0  0  0  0
   44.6851   -8.5202   -4.3874 C   0  0  0  0  0  0  0  0  0  0  0  0
   45.2413  -13.0319   -7.8961 O   0  0  0  0  0  0  0  0  0  0  0  0
  2  1  1  1
  2  3  1  0
  4  3  1  0
  5  4  1  0
  6  5  1  0
  7  6  1  0
  8  9  2  0
  8  2  1  0
 10  8  1  0
 11 10  1  0
 11 12  1  6
 13 12  1  0
 14 13  2  0
 15 14  1  0
 16 15  1  0
 16 21  2  0
 17 16  1  0
 18 17  2  0
 18 19  1  0
 19 20  2  0
 20 21  1  0
 21 13  1  0
 22 23  2  0
 22 11  1  0
 25 24  1  0
 26 25  2  0
 27 26  1  0
 28 34  1  0
 28 27  2  0
 29 28  1  0
 30 29  1  1
 30 31  1  0
 31 22  1  0
 32 30  1  0
 33 32  2  0
 34 35  2  0
 35 25  1  0
 36 32  1  0
M  END
$$$$
