KWY.pdb
     RDKit          3D

 36 38  0  0  1  0  0  0  0  0999 V2000
   28.3238  -21.8835  -16.4604 N   0  0  0  0  0  0  0  0  0  0  0  0
   27.3222  -22.8915  -16.2284 C   0  0  1  0  0  0  0  0  0  0  0  0
   27.9062  -24.2644  -16.3213 C   0  0  0  0  0  0  0  0  0  0  0  0
   28.9535  -24.4262  -17.3630 C   0  0  0  0  0  0  0  0  0  0  0  0
   30.2084  -25.1120  -16.9493 C   0  0  0  0  0  0  0  0  0  0  0  0
   30.5562  -26.1199  -18.0619 C   0  0  0  0  0  0  0  0  0  0  0  0
   31.8075  -26.7662  -17.7474 N   0  0  0  0  0  0  0  0  0  0  0  0
   26.5965  -22.6514  -14.9559 C   0  0  0  0  0  0  0  0  0  0  0  0
   26.1506  -23.6580  -14.3589 O   0  0  0  0  0  0  0  0  0  0  0  0
   26.4183  -21.3502  -14.4415 N   0  0  0  0  0  0  0  0  0  0  0  0
   25.7672  -21.1883  -13.0708 C   0  0  1  0  0  0  0  0  0  0  0  0
   26.5535  -20.1662  -12.3790 C   0  0  0  0  0  0  0  0  0  0  0  0
   27.6915  -20.5319  -11.5536 C   0  0  0  0  0  0  0  0  0  0  0  0
   28.9745  -20.8823  -11.8663 C   0  0  0  0  0  0  0  0  0  0  0  0
   29.6481  -21.1029  -10.7347 N   0  0  0  0  0  0  0  0  0  0  0  0
   28.8520  -20.9093   -9.6517 C   0  0  0  0  0  0  0  0  0  0  0  0
   29.0930  -21.0012   -8.3000 C   0  0  0  0  0  0  0  0  0  0  0  0
   28.0936  -20.7305   -7.4080 C   0  0  0  0  0  0  0  0  0  0  0  0
   26.8514  -20.3681   -7.8758 C   0  0  0  0  0  0  0  0  0  0  0  0
   26.6253  -20.2821   -9.2272 C   0  0  0  0  0  0  0  0  0  0  0  0
   27.6218  -20.5508  -10.1446 C   0  0  0  0  0  0  0  0  0  0  0  0
   24.3608  -21.0338  -13.3606 C   0  0  0  0  0  0  0  0  0  0  0  0
   24.0265  -20.3283  -14.4266 O   0  0  0  0  0  0  0  0  0  0  0  0
   15.6056  -21.8616  -14.4521 O   0  0  0  0  0  0  0  0  0  0  0  0
   16.9456  -21.9797  -14.0702 C   0  0  0  0  0  0  0  0  0  0  0  0
   17.8857  -22.1988  -15.0622 C   0  0  0  0  0  0  0  0  0  0  0  0
   19.2201  -22.3243  -14.7412 C   0  0  0  0  0  0  0  0  0  0  0  0
   19.6786  -22.2374  -13.4202 C   0  0  0  0  0  0  0  0  0  0  0  0
   21.1185  -22.3812  -13.2037 C   0  0  0  0  0  0  0  0  0  0  0  0
   21.8721  -21.1018  -13.0504 C   0  0  2  0  0  0  0  0  0  0  0  0
   23.2563  -21.5254  -12.6823 N   0  0  0  0  0  0  0  0  0  0  0  0
   21.4034  -20.2211  -11.9745 C   0  0  0  0  0  0  0  0  0  0  0  0
   21.9040  -20.1759  -10.8466 O   0  0  0  0  0  0  0  0  0  0  0  0
   18.7279  -22.0205  -12.4621 C   0  0  0  0  0  0  0  0  0  0  0  0
   17.3776  -21.8918  -12.7718 C   0  0  0  0  0  0  0  0  0  0  0  0
   20.3116  -19.3670  -12.2266 O   0  0  0  0  0  0  0  0  0  0  0  0
  2  1  1  1
  2  3  1  0
  4  3  1  0
  5  4  1  0
  6  5  1  0
  7  6  1  0
  8  9  2  0
  8  2  1  0
 10  8  1  0
 11 10  1  0
 11 12  1  6
 13 12  1  0
 14 13  2  0
 15 14  1  0
 16 15  1  0
 16 21  2  0
 17 16  1  0
 18 17  2  0
 18 19  1  0
 19 20  2  0
 20 21  1  0
 21 13  1  0
 22 23  2  0
 22 11  1  0
 25 24  1  0
 26 25  2  0
 27 26  1  0
 28 34  1  0
 28 27  2  0
 29 28  1  0
 30 29  1  1
 30 31  1  0
 31 22  1  0
 32 30  1  0
 33 32  2  0
 34 35  2  0
 35 25  1  0
 36 32  1  0
M  END
$$$$
