KWY.pdb
     RDKit          3D

 36 38  0  0  1  0  0  0  0  0999 V2000
   27.1656  -22.6565  -14.9384 N   0  0  0  0  0  0  0  0  0  0  0  0
   26.7902  -21.3847  -14.3776 C   0  0  1  0  0  0  0  0  0  0  0  0
   26.1332  -20.5161  -15.4015 C   0  0  0  0  0  0  0  0  0  0  0  0
   27.0384  -20.0201  -16.4704 C   0  0  0  0  0  0  0  0  0  0  0  0
   27.8028  -21.0474  -17.2298 C   0  0  0  0  0  0  0  0  0  0  0  0
   28.6378  -20.2961  -18.2848 C   0  0  0  0  0  0  0  0  0  0  0  0
   29.3399  -21.2512  -19.1075 N   0  0  0  0  0  0  0  0  0  0  0  0
   25.9765  -21.5538  -13.1476 C   0  0  0  0  0  0  0  0  0  0  0  0
   25.1922  -22.5295  -13.1163 O   0  0  0  0  0  0  0  0  0  0  0  0
   26.0825  -20.6580  -12.0632 N   0  0  0  0  0  0  0  0  0  0  0  0
   25.1900  -20.8758  -10.8446 C   0  0  1  0  0  0  0  0  0  0  0  0
   25.8709  -20.2105   -9.7332 C   0  0  0  0  0  0  0  0  0  0  0  0
   27.2093  -20.6080   -9.3324 C   0  0  0  0  0  0  0  0  0  0  0  0
   28.1724  -21.3453   -9.9612 C   0  0  0  0  0  0  0  0  0  0  0  0
   29.2499  -21.4053   -9.1749 N   0  0  0  0  0  0  0  0  0  0  0  0
   29.0447  -20.7222   -8.0193 C   0  0  0  0  0  0  0  0  0  0  0  0
   29.8497  -20.4919   -6.9272 C   0  0  0  0  0  0  0  0  0  0  0  0
   29.3874  -19.7391   -5.8845 C   0  0  0  0  0  0  0  0  0  0  0  0
   28.1149  -19.2184   -5.9400 C   0  0  0  0  0  0  0  0  0  0  0  0
   27.3228  -19.4580   -7.0354 C   0  0  0  0  0  0  0  0  0  0  0  0
   27.7714  -20.2153   -8.0994 C   0  0  0  0  0  0  0  0  0  0  0  0
   23.8716  -20.4977  -11.2966 C   0  0  0  0  0  0  0  0  0  0  0  0
   23.7655  -19.4143  -12.0456 O   0  0  0  0  0  0  0  0  0  0  0  0
   17.1884  -19.1548  -16.3825 O   0  0  0  0  0  0  0  0  0  0  0  0
   18.2348  -19.6006  -15.5691 C   0  0  0  0  0  0  0  0  0  0  0  0
   19.3249  -18.7648  -15.3986 C   0  0  0  0  0  0  0  0  0  0  0  0
   20.3845  -19.1552  -14.6087 C   0  0  0  0  0  0  0  0  0  0  0  0
   20.4071  -20.3934  -13.9533 C   0  0  0  0  0  0  0  0  0  0  0  0
   21.5840  -20.6944  -13.1378 C   0  0  0  0  0  0  0  0  0  0  0  0
   21.3905  -20.5611  -11.6637 C   0  0  2  0  0  0  0  0  0  0  0  0
   22.6476  -21.1082  -11.0709 N   0  0  0  0  0  0  0  0  0  0  0  0
   20.2858  -21.3459  -11.1010 C   0  0  0  0  0  0  0  0  0  0  0  0
   19.1577  -20.8960  -10.8781 O   0  0  0  0  0  0  0  0  0  0  0  0
   19.3173  -21.1973  -14.1399 C   0  0  0  0  0  0  0  0  0  0  0  0
   18.2407  -20.8160  -14.9344 C   0  0  0  0  0  0  0  0  0  0  0  0
   20.5097  -22.7010  -10.7871 O   0  0  0  0  0  0  0  0  0  0  0  0
  2  1  1  6
  2  3  1  0
  4  3  1  0
  5  4  1  0
  6  5  1  0
  7  6  1  0
  8  9  2  0
  8  2  1  0
 10  8  1  0
 11 10  1  0
 11 12  1  1
 13 12  1  0
 14 13  2  0
 15 14  1  0
 16 15  1  0
 16 21  2  0
 17 16  1  0
 18 17  2  0
 18 19  1  0
 19 20  2  0
 20 21  1  0
 21 13  1  0
 22 23  2  0
 22 11  1  0
 25 24  1  0
 26 25  2  0
 27 26  1  0
 28 34  1  0
 28 27  2  0
 29 28  1  0
 30 29  1  6
 30 31  1  0
 31 22  1  0
 32 30  1  0
 33 32  2  0
 34 35  2  0
 35 25  1  0
 36 32  1  0
M  END
$$$$
