KWY.pdb
     RDKit          3D

 36 38  0  0  1  0  0  0  0  0999 V2000
   29.7096  -21.4765  -20.1050 N   0  0  0  0  0  0  0  0  0  0  0  0
   28.7877  -21.9193  -19.0917 C   0  0  1  0  0  0  0  0  0  0  0  0
   29.5057  -22.5876  -17.9635 C   0  0  0  0  0  0  0  0  0  0  0  0
   29.8446  -24.0149  -18.1999 C   0  0  0  0  0  0  0  0  0  0  0  0
   28.8556  -25.0240  -17.7309 C   0  0  0  0  0  0  0  0  0  0  0  0
   29.3708  -26.4026  -18.1875 C   0  0  0  0  0  0  0  0  0  0  0  0
   28.5170  -27.4341  -17.6496 N   0  0  0  0  0  0  0  0  0  0  0  0
   27.9009  -20.8154  -18.6460 C   0  0  0  0  0  0  0  0  0  0  0  0
   28.4548  -19.8111  -18.1432 O   0  0  0  0  0  0  0  0  0  0  0  0
   26.4993  -20.8929  -18.7836 N   0  0  0  0  0  0  0  0  0  0  0  0
   25.6432  -19.7781  -18.1892 C   0  0  1  0  0  0  0  0  0  0  0  0
   24.6792  -19.4228  -19.2312 C   0  0  0  0  0  0  0  0  0  0  0  0
   23.5788  -18.5166  -18.9524 C   0  0  0  0  0  0  0  0  0  0  0  0
   23.5454  -17.2334  -18.4845 C   0  0  0  0  0  0  0  0  0  0  0  0
   22.2739  -16.8298  -18.4262 N   0  0  0  0  0  0  0  0  0  0  0  0
   21.4346  -17.8112  -18.8462 C   0  0  0  0  0  0  0  0  0  0  0  0
   20.0656  -17.8629  -18.9757 C   0  0  0  0  0  0  0  0  0  0  0  0
   19.4666  -18.9962  -19.4496 C   0  0  0  0  0  0  0  0  0  0  0  0
   20.2448  -20.0779  -19.7926 C   0  0  0  0  0  0  0  0  0  0  0  0
   21.6093  -20.0122  -19.6565 C   0  0  0  0  0  0  0  0  0  0  0  0
   22.2338  -18.8764  -19.1803 C   0  0  0  0  0  0  0  0  0  0  0  0
   25.2493  -20.2831  -16.8948 C   0  0  0  0  0  0  0  0  0  0  0  0
   25.1134  -21.5906  -16.7602 O   0  0  0  0  0  0  0  0  0  0  0  0
   23.3266  -21.0776   -8.1871 O   0  0  0  0  0  0  0  0  0  0  0  0
   23.7030  -20.6618   -9.4680 C   0  0  0  0  0  0  0  0  0  0  0  0
   24.8802  -21.1657   -9.9935 C   0  0  0  0  0  0  0  0  0  0  0  0
   25.2991  -20.7879  -11.2510 C   0  0  0  0  0  0  0  0  0  0  0  0
   24.5660  -19.8930  -12.0414 C   0  0  0  0  0  0  0  0  0  0  0  0
   25.1084  -19.5715  -13.3618 C   0  0  0  0  0  0  0  0  0  0  0  0
   24.4950  -20.3140  -14.5022 C   0  0  2  0  0  0  0  0  0  0  0  0
   24.9828  -19.5985  -15.7193 N   0  0  0  0  0  0  0  0  0  0  0  0
   23.0291  -20.2827  -14.5570 C   0  0  0  0  0  0  0  0  0  0  0  0
   22.3728  -19.3684  -15.0651 O   0  0  0  0  0  0  0  0  0  0  0  0
   23.4080  -19.4122  -11.4967 C   0  0  0  0  0  0  0  0  0  0  0  0
   22.9733  -19.7849  -10.2287 C   0  0  0  0  0  0  0  0  0  0  0  0
   22.3080  -21.3556  -13.9968 O   0  0  0  0  0  0  0  0  0  0  0  0
  2  1  1  6
  2  3  1  0
  4  3  1  0
  5  4  1  0
  6  5  1  0
  7  6  1  0
  8  9  2  0
  8  2  1  0
 10  8  1  0
 11 10  1  0
 11 12  1  6
 13 12  1  0
 14 13  2  0
 15 14  1  0
 16 15  1  0
 16 21  2  0
 17 16  1  0
 18 17  2  0
 18 19  1  0
 19 20  2  0
 20 21  1  0
 21 13  1  0
 22 23  2  0
 22 11  1  0
 25 24  1  0
 26 25  2  0
 27 26  1  0
 28 34  1  0
 28 27  2  0
 29 28  1  0
 30 29  1  1
 30 31  1  0
 31 22  1  0
 32 30  1  0
 33 32  2  0
 34 35  2  0
 35 25  1  0
 36 32  1  0
M  END
$$$$
