KWY.pdb
     RDKit          3D

 36 38  0  0  1  0  0  0  0  0999 V2000
   28.5004  -21.7722  -16.6810 N   0  0  0  0  0  0  0  0  0  0  0  0
   27.9184  -20.6557  -15.9828 C   0  0  1  0  0  0  0  0  0  0  0  0
   27.1268  -19.7917  -16.9110 C   0  0  0  0  0  0  0  0  0  0  0  0
   26.1080  -20.5137  -17.7166 C   0  0  0  0  0  0  0  0  0  0  0  0
   24.8120  -19.8152  -17.9376 C   0  0  0  0  0  0  0  0  0  0  0  0
   23.8231  -20.3631  -16.8906 C   0  0  0  0  0  0  0  0  0  0  0  0
   22.7231  -19.4409  -16.7434 N   0  0  0  0  0  0  0  0  0  0  0  0
   27.1433  -21.1017  -14.7980 C   0  0  0  0  0  0  0  0  0  0  0  0
   26.8222  -22.3114  -14.7531 O   0  0  0  0  0  0  0  0  0  0  0  0
   26.7860  -20.2054  -13.7691 N   0  0  0  0  0  0  0  0  0  0  0  0
   26.2296  -20.7721  -12.4659 C   0  0  1  0  0  0  0  0  0  0  0  0
   26.8562  -19.9925  -11.3976 C   0  0  0  0  0  0  0  0  0  0  0  0
   27.8723  -20.5804  -10.5422 C   0  0  0  0  0  0  0  0  0  0  0  0
   28.9627  -21.3567  -10.8160 C   0  0  0  0  0  0  0  0  0  0  0  0
   29.6012  -21.6198   -9.6732 N   0  0  0  0  0  0  0  0  0  0  0  0
   28.9703  -21.0379   -8.6209 C   0  0  0  0  0  0  0  0  0  0  0  0
   29.2513  -21.0136   -7.2740 C   0  0  0  0  0  0  0  0  0  0  0  0
   28.4400  -20.3216   -6.4193 C   0  0  0  0  0  0  0  0  0  0  0  0
   27.3453  -19.6545   -6.9194 C   0  0  0  0  0  0  0  0  0  0  0  0
   27.0767  -19.6891   -8.2653 C   0  0  0  0  0  0  0  0  0  0  0  0
   27.8844  -20.3818   -9.1454 C   0  0  0  0  0  0  0  0  0  0  0  0
   24.8013  -20.8103  -12.6753 C   0  0  0  0  0  0  0  0  0  0  0  0
   24.2487  -19.8050  -13.3311 O   0  0  0  0  0  0  0  0  0  0  0  0
   16.1704  -23.0327  -13.1043 O   0  0  0  0  0  0  0  0  0  0  0  0
   17.5516  -23.0074  -12.8877 C   0  0  0  0  0  0  0  0  0  0  0  0
   18.3786  -22.8778  -13.9899 C   0  0  0  0  0  0  0  0  0  0  0  0
   19.7476  -22.8488  -13.8336 C   0  0  0  0  0  0  0  0  0  0  0  0
   20.3546  -22.9472  -12.5747 C   0  0  0  0  0  0  0  0  0  0  0  0
   21.8164  -22.8989  -12.5339 C   0  0  0  0  0  0  0  0  0  0  0  0
   22.4081  -21.5307  -12.4551 C   0  0  2  0  0  0  0  0  0  0  0  0
   23.8739  -21.7666  -12.2915 N   0  0  0  0  0  0  0  0  0  0  0  0
   21.9820  -20.7268  -11.3041 C   0  0  0  0  0  0  0  0  0  0  0  0
   22.5822  -20.6856  -10.2257 O   0  0  0  0  0  0  0  0  0  0  0  0
   19.5130  -23.0740  -11.5048 C   0  0  0  0  0  0  0  0  0  0  0  0
   18.1295  -23.1046  -11.6480 C   0  0  0  0  0  0  0  0  0  0  0  0
   20.8139  -19.9473  -11.4183 O   0  0  0  0  0  0  0  0  0  0  0  0
  2  1  1  6
  2  3  1  0
  4  3  1  0
  5  4  1  0
  6  5  1  0
  7  6  1  0
  8  9  2  0
  8  2  1  0
 10  8  1  0
 11 10  1  0
 11 12  1  1
 13 12  1  0
 14 13  2  0
 15 14  1  0
 16 15  1  0
 16 21  2  0
 17 16  1  0
 18 17  2  0
 18 19  1  0
 19 20  2  0
 20 21  1  0
 21 13  1  0
 22 23  2  0
 22 11  1  0
 25 24  1  0
 26 25  2  0
 27 26  1  0
 28 34  1  0
 28 27  2  0
 29 28  1  0
 30 29  1  1
 30 31  1  0
 31 22  1  0
 32 30  1  0
 33 32  2  0
 34 35  2  0
 35 25  1  0
 36 32  1  0
M  END
$$$$
