CWY.pdb
     RDKit          3D

 33 35  0  0  1  0  0  0  0  0999 V2000
    9.0362  -17.2403   20.4278 N   0  0  0  0  0  0  0  0  0  0  0  0
    8.8072  -15.8265   20.1473 C   0  0  1  0  0  0  0  0  0  0  0  0
    7.4291  -15.7383   19.5359 C   0  0  0  0  0  0  0  0  0  0  0  0
    6.1926  -16.2430   20.7507 S   0  0  0  0  0  0  0  0  0  0  0  0
    8.9224  -15.0993   21.4366 C   0  0  0  0  0  0  0  0  0  0  0  0
    8.1137  -14.1435   21.7083 O   0  0  0  0  0  0  0  0  0  0  0  0
    9.8771  -15.3702   22.4359 N   0  0  0  0  0  0  0  0  0  0  0  0
    9.5857  -15.4193   23.8556 C   0  0  1  0  0  0  0  0  0  0  0  0
    8.2673  -16.0979   24.1166 C   0  0  0  0  0  0  0  0  0  0  0  0
    7.2473  -15.2677   24.7625 C   0  0  0  0  0  0  0  0  0  0  0  0
    5.9879  -15.7362   25.1720 C   0  0  0  0  0  0  0  0  0  0  0  0
    5.2927  -14.7469   25.7411 N   0  0  0  0  0  0  0  0  0  0  0  0
    6.0391  -13.6226   25.7308 C   0  0  0  0  0  0  0  0  0  0  0  0
    5.7598  -12.3628   26.1919 C   0  0  0  0  0  0  0  0  0  0  0  0
    6.7028  -11.3520   26.0612 C   0  0  0  0  0  0  0  0  0  0  0  0
    7.8906  -11.6824   25.4617 C   0  0  0  0  0  0  0  0  0  0  0  0
    8.1873  -12.9517   24.9905 C   0  0  0  0  0  0  0  0  0  0  0  0
    7.2525  -13.9581   25.1197 C   0  0  0  0  0  0  0  0  0  0  0  0
   10.7063  -15.8369   24.6957 C   0  0  0  0  0  0  0  0  0  0  0  0
   10.5502  -16.2234   25.9073 O   0  0  0  0  0  0  0  0  0  0  0  0
   10.4294  -17.2687   30.6945 O   0  0  0  0  0  0  0  0  0  0  0  0
   11.0533  -16.7100   29.5910 C   0  0  0  0  0  0  0  0  0  0  0  0
   10.7010  -15.4410   29.2369 C   0  0  0  0  0  0  0  0  0  0  0  0
   11.3093  -14.8757   28.1486 C   0  0  0  0  0  0  0  0  0  0  0  0
   12.2598  -15.6060   27.4427 C   0  0  0  0  0  0  0  0  0  0  0  0
   12.8882  -14.9855   26.2695 C   0  0  0  0  0  0  0  0  0  0  0  0
   13.1687  -16.0403   25.1809 C   0  0  2  0  0  0  0  0  0  0  0  0
   12.0624  -15.8525   24.2247 N   0  0  0  0  0  0  0  0  0  0  0  0
   13.0569  -17.3720   25.7999 C   0  0  0  0  0  0  0  0  0  0  0  0
   13.8150  -17.7751   26.7206 O   0  0  0  0  0  0  0  0  0  0  0  0
   12.6132  -16.8810   27.7988 C   0  0  0  0  0  0  0  0  0  0  0  0
   11.9914  -17.4503   28.9064 C   0  0  0  0  0  0  0  0  0  0  0  0
   12.0813  -18.2710   25.3853 O   0  0  0  0  0  0  0  0  0  0  0  0
  2  1  1  1
  3  2  1  0
  4  3  1  0
  5  2  1  0
  5  6  2  0
  7  5  1  0
  8  7  1  0
  8  9  1  6
 10  9  1  0
 10 18  1  0
 11 12  1  0
 11 10  2  0
 12 13  1  0
 13 14  2  0
 13 18  1  0
 14 15  1  0
 15 16  2  0
 17 16  1  0
 18 17  2  0
 19  8  1  0
 20 19  2  0
 22 23  2  0
 22 21  1  0
 24 23  1  0
 25 24  2  0
 27 26  1  1
 26 25  1  0
 27 28  1  0
 28 19  1  0
 29 27  1  0
 29 33  1  0
 30 29  2  0
 31 25  1  0
 31 32  2  0
 32 22  1  0
M  END
$$$$
