CWY.pdb
     RDKit          3D

 33 35  0  0  1  0  0  0  0  0999 V2000
    7.4802  -12.9294   18.6967 N   0  0  0  0  0  0  0  0  0  0  0  0
    7.8374  -14.3167   18.9748 C   0  0  1  0  0  0  0  0  0  0  0  0
    8.8441  -14.7100   17.9200 C   0  0  0  0  0  0  0  0  0  0  0  0
    7.9824  -15.2006   16.4114 S   0  0  0  0  0  0  0  0  0  0  0  0
    8.3877  -14.3601   20.3532 C   0  0  0  0  0  0  0  0  0  0  0  0
    9.2808  -13.5154   20.7140 O   0  0  0  0  0  0  0  0  0  0  0  0
    8.0060  -15.2807   21.3482 N   0  0  0  0  0  0  0  0  0  0  0  0
    8.6878  -15.4447   22.6175 C   0  0  1  0  0  0  0  0  0  0  0  0
    7.8330  -16.2001   23.6000 C   0  0  0  0  0  0  0  0  0  0  0  0
    7.0783  -15.3738   24.5458 C   0  0  0  0  0  0  0  0  0  0  0  0
    6.1564  -15.8785   25.4778 C   0  0  0  0  0  0  0  0  0  0  0  0
    5.6469  -14.8807   26.2063 N   0  0  0  0  0  0  0  0  0  0  0  0
    6.1928  -13.7156   25.7988 C   0  0  0  0  0  0  0  0  0  0  0  0
    5.9858  -12.4333   26.2353 C   0  0  0  0  0  0  0  0  0  0  0  0
    6.6735  -11.3810   25.6456 C   0  0  0  0  0  0  0  0  0  0  0  0
    7.5430  -11.6950   24.6331 C   0  0  0  0  0  0  0  0  0  0  0  0
    7.7626  -12.9867   24.1811 C   0  0  0  0  0  0  0  0  0  0  0  0
    7.0813  -14.0343   24.7657 C   0  0  0  0  0  0  0  0  0  0  0  0
   10.0822  -15.8692   22.5122 C   0  0  0  0  0  0  0  0  0  0  0  0
   10.9167  -15.2986   21.7249 O   0  0  0  0  0  0  0  0  0  0  0  0
   11.1997  -15.0469   30.7006 O   0  0  0  0  0  0  0  0  0  0  0  0
   10.8942  -15.3179   29.3768 C   0  0  0  0  0  0  0  0  0  0  0  0
   10.6980  -14.2587   28.5404 C   0  0  0  0  0  0  0  0  0  0  0  0
   10.3956  -14.5110   27.2294 C   0  0  0  0  0  0  0  0  0  0  0  0
   10.2980  -15.8284   26.7934 C   0  0  0  0  0  0  0  0  0  0  0  0
    9.9575  -16.0756   25.3866 C   0  0  0  0  0  0  0  0  0  0  0  0
   11.1559  -16.6904   24.6367 C   0  0  2  0  0  0  0  0  0  0  0  0
   10.6224  -16.9503   23.2871 N   0  0  0  0  0  0  0  0  0  0  0  0
   11.4879  -17.9708   25.2843 C   0  0  0  0  0  0  0  0  0  0  0  0
   12.5291  -18.1531   25.9682 O   0  0  0  0  0  0  0  0  0  0  0  0
   10.4949  -16.8922   27.6342 C   0  0  0  0  0  0  0  0  0  0  0  0
   10.8024  -16.6292   28.9659 C   0  0  0  0  0  0  0  0  0  0  0  0
   10.6432  -19.0684   25.1680 O   0  0  0  0  0  0  0  0  0  0  0  0
  2  1  1  6
  3  2  1  0
  4  3  1  0
  5  2  1  0
  5  6  2  0
  7  5  1  0
  8  7  1  0
  8  9  1  1
 10  9  1  0
 10 18  1  0
 11 12  1  0
 11 10  2  0
 12 13  1  0
 13 14  2  0
 13 18  1  0
 14 15  1  0
 15 16  2  0
 17 16  1  0
 18 17  2  0
 19  8  1  0
 20 19  2  0
 22 23  2  0
 22 21  1  0
 24 23  1  0
 25 24  2  0
 27 26  1  1
 26 25  1  0
 27 28  1  0
 28 19  1  0
 29 27  1  0
 29 33  1  0
 30 29  2  0
 31 25  1  0
 31 32  2  0
 32 22  1  0
M  END
$$$$
