CWY.pdb
     RDKit          3D

 33 35  0  0  1  0  0  0  0  0999 V2000
   10.0770  -18.3260   18.0299 N   0  0  0  0  0  0  0  0  0  0  0  0
    9.4695  -18.6261   19.3224 C   0  0  1  0  0  0  0  0  0  0  0  0
   10.2550  -19.7810   19.8968 C   0  0  0  0  0  0  0  0  0  0  0  0
    9.7359  -20.0810   21.5996 S   0  0  0  0  0  0  0  0  0  0  0  0
    9.5569  -17.3931   20.1450 C   0  0  0  0  0  0  0  0  0  0  0  0
   10.5283  -16.5755   19.9738 O   0  0  0  0  0  0  0  0  0  0  0  0
    8.6339  -17.0171   21.1400 N   0  0  0  0  0  0  0  0  0  0  0  0
    8.6984  -15.7784   21.8913 C   0  0  1  0  0  0  0  0  0  0  0  0
    7.3236  -15.3132   22.2914 C   0  0  0  0  0  0  0  0  0  0  0  0
    7.2775  -14.0633   23.0545 C   0  0  0  0  0  0  0  0  0  0  0  0
    7.3460  -12.7827   22.4813 C   0  0  0  0  0  0  0  0  0  0  0  0
    7.2620  -11.8485   23.4333 N   0  0  0  0  0  0  0  0  0  0  0  0
    7.1390  -12.4534   24.6333 C   0  0  0  0  0  0  0  0  0  0  0  0
    7.0251  -11.9229   25.8916 C   0  0  0  0  0  0  0  0  0  0  0  0
    6.9144  -12.7640   26.9909 C   0  0  0  0  0  0  0  0  0  0  0  0
    6.9260  -14.1129   26.7465 C   0  0  0  0  0  0  0  0  0  0  0  0
    7.0406  -14.6640   25.4799 C   0  0  0  0  0  0  0  0  0  0  0  0
    7.1500  -13.8307   24.3858 C   0  0  0  0  0  0  0  0  0  0  0  0
    9.7211  -15.7488   22.9348 C   0  0  0  0  0  0  0  0  0  0  0  0
    9.9834  -14.6920   23.6102 O   0  0  0  0  0  0  0  0  0  0  0  0
   10.6895  -14.0807   30.0825 O   0  0  0  0  0  0  0  0  0  0  0  0
   10.5801  -14.9044   28.9740 C   0  0  0  0  0  0  0  0  0  0  0  0
   10.8848  -14.3731   27.7554 C   0  0  0  0  0  0  0  0  0  0  0  0
   10.7816  -15.1751   26.6508 C   0  0  0  0  0  0  0  0  0  0  0  0
   10.3724  -16.4960   26.8029 C   0  0  0  0  0  0  0  0  0  0  0  0
   10.2539  -17.3335   25.6026 C   0  0  0  0  0  0  0  0  0  0  0  0
   11.2821  -16.9054   24.5368 C   0  0  2  0  0  0  0  0  0  0  0  0
   10.5017  -16.9014   23.2860 N   0  0  0  0  0  0  0  0  0  0  0  0
   12.3185  -17.9490   24.4611 C   0  0  0  0  0  0  0  0  0  0  0  0
   13.2560  -18.0577   25.2943 O   0  0  0  0  0  0  0  0  0  0  0  0
   10.0662  -17.0291   28.0274 C   0  0  0  0  0  0  0  0  0  0  0  0
   10.1734  -16.2088   29.1467 C   0  0  0  0  0  0  0  0  0  0  0  0
   12.3092  -18.8897   23.4379 O   0  0  0  0  0  0  0  0  0  0  0  0
  2  1  1  6
  3  2  1  0
  4  3  1  0
  5  2  1  0
  5  6  2  0
  7  5  1  0
  8  7  1  0
  8  9  1  1
 10  9  1  0
 10 18  1  0
 11 12  1  0
 11 10  2  0
 12 13  1  0
 13 14  2  0
 13 18  1  0
 14 15  1  0
 15 16  2  0
 17 16  1  0
 18 17  2  0
 19  8  1  0
 20 19  2  0
 22 23  2  0
 22 21  1  0
 24 23  1  0
 25 24  2  0
 27 26  1  1
 26 25  1  0
 27 28  1  0
 28 19  1  0
 29 27  1  0
 29 33  1  0
 30 29  2  0
 31 25  1  0
 31 32  2  0
 32 22  1  0
M  END
$$$$
