CWY.pdb
     RDKit          3D

 33 35  0  0  1  0  0  0  0  0999 V2000
    7.4586  -14.3230   18.7494 N   0  0  0  0  0  0  0  0  0  0  0  0
    8.1491  -15.5012   19.2640 C   0  0  1  0  0  0  0  0  0  0  0  0
    9.3368  -15.7205   18.3573 C   0  0  0  0  0  0  0  0  0  0  0  0
   10.2126  -17.2184   18.8556 S   0  0  0  0  0  0  0  0  0  0  0  0
    8.5320  -15.2069   20.6680 C   0  0  0  0  0  0  0  0  0  0  0  0
    9.1743  -14.1338   20.9461 O   0  0  0  0  0  0  0  0  0  0  0  0
    8.2445  -16.0292   21.7745 N   0  0  0  0  0  0  0  0  0  0  0  0
    8.6494  -15.7409   23.1368 C   0  0  1  0  0  0  0  0  0  0  0  0
    7.6551  -16.2872   24.1266 C   0  0  0  0  0  0  0  0  0  0  0  0
    6.8518  -15.2857   24.8324 C   0  0  0  0  0  0  0  0  0  0  0  0
    5.7731  -15.5895   25.6794 C   0  0  0  0  0  0  0  0  0  0  0  0
    5.2557  -14.4658   26.1849 N   0  0  0  0  0  0  0  0  0  0  0  0
    5.9478  -13.4098   25.7084 C   0  0  0  0  0  0  0  0  0  0  0  0
    5.7925  -12.0671   25.9336 C   0  0  0  0  0  0  0  0  0  0  0  0
    6.6399  -11.1579   25.3144 C   0  0  0  0  0  0  0  0  0  0  0  0
    7.6087  -11.6708   24.4911 C   0  0  0  0  0  0  0  0  0  0  0  0
    7.7779  -13.0258   24.2537 C   0  0  0  0  0  0  0  0  0  0  0  0
    6.9379  -13.9314   24.8682 C   0  0  0  0  0  0  0  0  0  0  0  0
   10.0586  -16.0011   23.4239 C   0  0  0  0  0  0  0  0  0  0  0  0
   10.6211  -17.1188   23.1481 O   0  0  0  0  0  0  0  0  0  0  0  0
    9.4178  -17.2597   29.7835 O   0  0  0  0  0  0  0  0  0  0  0  0
   10.1557  -16.5995   28.8146 C   0  0  0  0  0  0  0  0  0  0  0  0
   10.1817  -17.1358   27.5609 C   0  0  0  0  0  0  0  0  0  0  0  0
   10.9066  -16.4944   26.5929 C   0  0  0  0  0  0  0  0  0  0  0  0
   11.5891  -15.3255   26.9140 C   0  0  0  0  0  0  0  0  0  0  0  0
   12.3727  -14.6627   25.8639 C   0  0  0  0  0  0  0  0  0  0  0  0
   12.2461  -15.4230   24.5288 C   0  0  2  0  0  0  0  0  0  0  0  0
   10.9183  -15.0230   24.0282 N   0  0  0  0  0  0  0  0  0  0  0  0
   12.2403  -16.8653   24.8268 C   0  0  0  0  0  0  0  0  0  0  0  0
   11.1979  -17.5712   24.8195 O   0  0  0  0  0  0  0  0  0  0  0  0
   11.5627  -14.7873   28.1738 C   0  0  0  0  0  0  0  0  0  0  0  0
   10.8237  -15.4439   29.1536 C   0  0  0  0  0  0  0  0  0  0  0  0
   13.4188  -17.5335   25.1378 O   0  0  0  0  0  0  0  0  0  0  0  0
  2  1  1  6
  3  2  1  0
  4  3  1  0
  5  2  1  0
  5  6  2  0
  7  5  1  0
  8  7  1  0
  8  9  1  1
 10  9  1  0
 10 18  1  0
 11 12  1  0
 11 10  2  0
 12 13  1  0
 13 14  2  0
 13 18  1  0
 14 15  1  0
 15 16  2  0
 17 16  1  0
 18 17  2  0
 19  8  1  0
 20 19  2  0
 22 23  2  0
 22 21  1  0
 24 23  1  0
 25 24  2  0
 27 26  1  1
 26 25  1  0
 27 28  1  0
 28 19  1  0
 29 27  1  0
 29 33  1  0
 30 29  2  0
 31 25  1  0
 31 32  2  0
 32 22  1  0
M  END
$$$$
