CWY.pdb
     RDKit          3D

 33 35  0  0  1  0  0  0  0  0999 V2000
    7.2264  -16.3604   20.5495 N   0  0  0  0  0  0  0  0  0  0  0  0
    8.0489  -15.1590   20.4514 C   0  0  1  0  0  0  0  0  0  0  0  0
    7.0873  -13.9956   20.3993 C   0  0  0  0  0  0  0  0  0  0  0  0
    7.3812  -13.0317   18.9015 S   0  0  0  0  0  0  0  0  0  0  0  0
    8.9328  -15.1339   21.6441 C   0  0  0  0  0  0  0  0  0  0  0  0
    9.9454  -14.3497   21.6757 O   0  0  0  0  0  0  0  0  0  0  0  0
    8.7586  -15.9237   22.7971 N   0  0  0  0  0  0  0  0  0  0  0  0
    9.6687  -15.9375   23.9259 C   0  0  1  0  0  0  0  0  0  0  0  0
    8.9269  -16.1440   25.2197 C   0  0  0  0  0  0  0  0  0  0  0  0
    7.7994  -15.2378   25.4522 C   0  0  0  0  0  0  0  0  0  0  0  0
    6.4510  -15.5899   25.2757 C   0  0  0  0  0  0  0  0  0  0  0  0
    5.6623  -14.5557   25.5829 N   0  0  0  0  0  0  0  0  0  0  0  0
    6.4315  -13.5135   25.9618 C   0  0  0  0  0  0  0  0  0  0  0  0
    6.0858  -12.2490   26.3607 C   0  0  0  0  0  0  0  0  0  0  0  0
    7.0742  -11.3354   26.7018 C   0  0  0  0  0  0  0  0  0  0  0  0
    8.3738  -11.7635   26.6170 C   0  0  0  0  0  0  0  0  0  0  0  0
    8.7387  -13.0389   26.2153 C   0  0  0  0  0  0  0  0  0  0  0  0
    7.7587  -13.9489   25.8765 C   0  0  0  0  0  0  0  0  0  0  0  0
   10.8706  -16.7461   23.7325 C   0  0  0  0  0  0  0  0  0  0  0  0
   10.8208  -17.9850   23.4095 O   0  0  0  0  0  0  0  0  0  0  0  0
   12.9740  -14.7496   17.9150 O   0  0  0  0  0  0  0  0  0  0  0  0
   13.3281  -15.1222   19.2015 C   0  0  0  0  0  0  0  0  0  0  0  0
   13.8236  -14.1577   20.0285 C   0  0  0  0  0  0  0  0  0  0  0  0
   14.1777  -14.5110   21.3028 C   0  0  0  0  0  0  0  0  0  0  0  0
   14.0231  -15.8315   21.7123 C   0  0  0  0  0  0  0  0  0  0  0  0
   14.4237  -16.1911   23.0784 C   0  0  0  0  0  0  0  0  0  0  0  0
   13.3640  -17.0977   23.7352 C   0  0  2  0  0  0  0  0  0  0  0  0
   12.1947  -16.2118   23.8822 N   0  0  0  0  0  0  0  0  0  0  0  0
   13.8571  -17.4790   25.0696 C   0  0  0  0  0  0  0  0  0  0  0  0
   14.8774  -18.1930   25.2543 O   0  0  0  0  0  0  0  0  0  0  0  0
   13.5253  -16.8001   20.8808 C   0  0  0  0  0  0  0  0  0  0  0  0
   13.1669  -16.4347   19.5865 C   0  0  0  0  0  0  0  0  0  0  0  0
   13.2012  -17.0557   26.2196 O   0  0  0  0  0  0  0  0  0  0  0  0
  2  1  1  1
  3  2  1  0
  4  3  1  0
  5  2  1  0
  5  6  2  0
  7  5  1  0
  8  7  1  0
  8  9  1  1
 10  9  1  0
 10 18  1  0
 11 12  1  0
 11 10  2  0
 12 13  1  0
 13 14  2  0
 13 18  1  0
 14 15  1  0
 15 16  2  0
 17 16  1  0
 18 17  2  0
 19  8  1  0
 20 19  2  0
 22 23  2  0
 22 21  1  0
 24 23  1  0
 25 24  2  0
 27 26  1  1
 26 25  1  0
 27 28  1  0
 28 19  1  0
 29 27  1  0
 29 33  1  0
 30 29  2  0
 31 25  1  0
 31 32  2  0
 32 22  1  0
M  END
$$$$
