CWY.pdb
     RDKit          3D

 33 35  0  0  1  0  0  0  0  0999 V2000
    8.6009  -19.2920   21.7558 N   0  0  0  0  0  0  0  0  0  0  0  0
    9.8169  -18.7418   21.1657 C   0  0  1  0  0  0  0  0  0  0  0  0
    9.5539  -18.6393   19.6821 C   0  0  0  0  0  0  0  0  0  0  0  0
    9.4969  -20.2929   18.9600 S   0  0  0  0  0  0  0  0  0  0  0  0
   10.0597  -17.4257   21.8086 C   0  0  0  0  0  0  0  0  0  0  0  0
   11.1060  -16.7492   21.5100 O   0  0  0  0  0  0  0  0  0  0  0  0
    9.2134  -16.8203   22.7577 N   0  0  0  0  0  0  0  0  0  0  0  0
    9.4673  -15.5356   23.3804 C   0  0  1  0  0  0  0  0  0  0  0  0
    8.3090  -14.5952   23.1784 C   0  0  0  0  0  0  0  0  0  0  0  0
    7.7399  -14.5759   21.8284 C   0  0  0  0  0  0  0  0  0  0  0  0
    6.7221  -15.4370   21.3858 C   0  0  0  0  0  0  0  0  0  0  0  0
    6.4081  -15.1623   20.1162 N   0  0  0  0  0  0  0  0  0  0  0  0
    7.1796  -14.1432   19.6830 C   0  0  0  0  0  0  0  0  0  0  0  0
    7.2283  -13.5171   18.4651 C   0  0  0  0  0  0  0  0  0  0  0  0
    8.1258  -12.4787   18.2551 C   0  0  0  0  0  0  0  0  0  0  0  0
    8.9332  -12.1313   19.3072 C   0  0  0  0  0  0  0  0  0  0  0  0
    8.8954  -12.7551   20.5443 C   0  0  0  0  0  0  0  0  0  0  0  0
    8.0041  -13.7866   20.7560 C   0  0  0  0  0  0  0  0  0  0  0  0
   10.0127  -15.6095   24.7342 C   0  0  0  0  0  0  0  0  0  0  0  0
   10.8480  -14.7495   25.1865 O   0  0  0  0  0  0  0  0  0  0  0  0
    6.5394  -11.4356   26.7364 O   0  0  0  0  0  0  0  0  0  0  0  0
    7.1256  -12.6580   27.0216 C   0  0  0  0  0  0  0  0  0  0  0  0
    6.4632  -13.7857   26.6352 C   0  0  0  0  0  0  0  0  0  0  0  0
    7.0303  -15.0009   26.9101 C   0  0  0  0  0  0  0  0  0  0  0  0
    8.2542  -15.0488   27.5697 C   0  0  0  0  0  0  0  0  0  0  0  0
    8.8365  -16.3634   27.8679 C   0  0  0  0  0  0  0  0  0  0  0  0
   10.1262  -16.5846   27.0530 C   0  0  2  0  0  0  0  0  0  0  0  0
    9.6484  -16.6448   25.6596 N   0  0  0  0  0  0  0  0  0  0  0  0
   10.6846  -17.8932   27.4336 C   0  0  0  0  0  0  0  0  0  0  0  0
   10.6991  -18.8912   26.6662 O   0  0  0  0  0  0  0  0  0  0  0  0
    8.9192  -13.9155   27.9579 C   0  0  0  0  0  0  0  0  0  0  0  0
    8.3376  -12.6829   27.6753 C   0  0  0  0  0  0  0  0  0  0  0  0
   11.2380  -18.0930   28.6928 O   0  0  0  0  0  0  0  0  0  0  0  0
  2  1  1  1
  3  2  1  0
  4  3  1  0
  5  2  1  0
  5  6  2  0
  7  5  1  0
  8  7  1  0
  8  9  1  1
 10  9  1  0
 10 18  1  0
 11 12  1  0
 11 10  2  0
 12 13  1  0
 13 14  2  0
 13 18  1  0
 14 15  1  0
 15 16  2  0
 17 16  1  0
 18 17  2  0
 19  8  1  0
 20 19  2  0
 22 23  2  0
 22 21  1  0
 24 23  1  0
 25 24  2  0
 27 26  1  1
 26 25  1  0
 27 28  1  0
 28 19  1  0
 29 27  1  0
 29 33  1  0
 30 29  2  0
 31 25  1  0
 31 32  2  0
 32 22  1  0
M  END
$$$$
