CWY.pdb
     RDKit          3D

 33 35  0  0  1  0  0  0  0  0999 V2000
   10.8067  -16.8658   18.3938 N   0  0  0  0  0  0  0  0  0  0  0  0
    9.6089  -17.3944   19.0385 C   0  0  1  0  0  0  0  0  0  0  0  0
    9.7755  -18.8952   19.0668 C   0  0  0  0  0  0  0  0  0  0  0  0
    9.4449  -19.5735   17.4268 S   0  0  0  0  0  0  0  0  0  0  0  0
    9.5360  -16.7888   20.3922 C   0  0  0  0  0  0  0  0  0  0  0  0
   10.6121  -16.5226   21.0345 O   0  0  0  0  0  0  0  0  0  0  0  0
    8.3452  -16.4629   21.0698 N   0  0  0  0  0  0  0  0  0  0  0  0
    8.2805  -16.0388   22.4550 C   0  0  1  0  0  0  0  0  0  0  0  0
    7.0252  -15.2526   22.7247 C   0  0  0  0  0  0  0  0  0  0  0  0
    6.7822  -14.9140   24.1293 C   0  0  0  0  0  0  0  0  0  0  0  0
    6.2988  -15.8181   25.0896 C   0  0  0  0  0  0  0  0  0  0  0  0
    6.1993  -15.2157   26.2784 N   0  0  0  0  0  0  0  0  0  0  0  0
    6.5991  -13.9326   26.1559 C   0  0  0  0  0  0  0  0  0  0  0  0
    6.6714  -12.9288   27.0858 C   0  0  0  0  0  0  0  0  0  0  0  0
    7.1177  -11.6683   26.7117 C   0  0  0  0  0  0  0  0  0  0  0  0
    7.4694  -11.4970   25.3977 C   0  0  0  0  0  0  0  0  0  0  0  0
    7.4016  -12.5025   24.4461 C   0  0  0  0  0  0  0  0  0  0  0  0
    6.9592  -13.7560   24.8152 C   0  0  0  0  0  0  0  0  0  0  0  0
    8.6166  -17.0760   23.4283 C   0  0  0  0  0  0  0  0  0  0  0  0
    8.3738  -18.3170   23.2216 O   0  0  0  0  0  0  0  0  0  0  0  0
   16.6696  -18.5776   24.3065 O   0  0  0  0  0  0  0  0  0  0  0  0
   15.3850  -18.0675   24.2137 C   0  0  0  0  0  0  0  0  0  0  0  0
   14.5081  -18.3687   25.2139 C   0  0  0  0  0  0  0  0  0  0  0  0
   13.2351  -17.8715   25.1359 C   0  0  0  0  0  0  0  0  0  0  0  0
   12.8770  -17.0812   24.0485 C   0  0  0  0  0  0  0  0  0  0  0  0
   11.5017  -16.5714   23.9778 C   0  0  0  0  0  0  0  0  0  0  0  0
   10.5918  -17.3213   24.9707 C   0  0  2  0  0  0  0  0  0  0  0  0
    9.2496  -16.7833   24.6832 N   0  0  0  0  0  0  0  0  0  0  0  0
   10.9906  -16.9329   26.3342 C   0  0  0  0  0  0  0  0  0  0  0  0
   10.6798  -15.8326   26.8611 O   0  0  0  0  0  0  0  0  0  0  0  0
   13.7583  -16.7791   23.0439 C   0  0  0  0  0  0  0  0  0  0  0  0
   15.0513  -17.2873   23.1290 C   0  0  0  0  0  0  0  0  0  0  0  0
   11.7494  -17.7873   27.1254 O   0  0  0  0  0  0  0  0  0  0  0  0
  2  1  1  1
  3  2  1  0
  4  3  1  0
  5  2  1  0
  5  6  2  0
  7  5  1  0
  8  7  1  0
  8  9  1  1
 10  9  1  0
 10 18  1  0
 11 12  1  0
 11 10  2  0
 12 13  1  0
 13 14  2  0
 13 18  1  0
 14 15  1  0
 15 16  2  0
 17 16  1  0
 18 17  2  0
 19  8  1  0
 20 19  2  0
 22 23  2  0
 22 21  1  0
 24 23  1  0
 25 24  2  0
 27 26  1  6
 26 25  1  0
 27 28  1  0
 28 19  1  0
 29 27  1  0
 29 33  1  0
 30 29  2  0
 31 25  1  0
 31 32  2  0
 32 22  1  0
M  END
$$$$
