CWY.pdb
     RDKit          3D

 33 35  0  0  1  0  0  0  0  0999 V2000
    6.6286  -13.4240   19.0583 N   0  0  0  0  0  0  0  0  0  0  0  0
    7.6439  -14.4695   19.1347 C   0  0  1  0  0  0  0  0  0  0  0  0
    8.7192  -14.0827   18.1473 C   0  0  0  0  0  0  0  0  0  0  0  0
    9.9247  -15.4192   18.0080 S   0  0  0  0  0  0  0  0  0  0  0  0
    8.1265  -14.5105   20.5382 C   0  0  0  0  0  0  0  0  0  0  0  0
    8.5847  -13.4490   21.0902 O   0  0  0  0  0  0  0  0  0  0  0  0
    8.1293  -15.6544   21.3598 N   0  0  0  0  0  0  0  0  0  0  0  0
    8.7630  -15.7261   22.6621 C   0  0  1  0  0  0  0  0  0  0  0  0
    7.8290  -16.3076   23.6898 C   0  0  0  0  0  0  0  0  0  0  0  0
    7.1325  -15.3327   24.5330 C   0  0  0  0  0  0  0  0  0  0  0  0
    6.1971  -15.6693   25.5255 C   0  0  0  0  0  0  0  0  0  0  0  0
    5.7518  -14.5641   26.1306 N   0  0  0  0  0  0  0  0  0  0  0  0
    6.3543  -13.4888   25.5810 C   0  0  0  0  0  0  0  0  0  0  0  0
    6.2226  -12.1536   25.8598 C   0  0  0  0  0  0  0  0  0  0  0  0
    6.9583  -11.2199   25.1421 C   0  0  0  0  0  0  0  0  0  0  0  0
    7.7961  -11.7016   24.1697 C   0  0  0  0  0  0  0  0  0  0  0  0
    7.9398  -13.0486   23.8765 C   0  0  0  0  0  0  0  0  0  0  0  0
    7.2106  -13.9786   24.5885 C   0  0  0  0  0  0  0  0  0  0  0  0
   10.1248  -16.2565   22.6512 C   0  0  0  0  0  0  0  0  0  0  0  0
   10.4105  -17.4064   22.1634 O   0  0  0  0  0  0  0  0  0  0  0  0
   11.0431  -16.0393   30.8369 O   0  0  0  0  0  0  0  0  0  0  0  0
   10.8959  -15.8512   29.4723 C   0  0  0  0  0  0  0  0  0  0  0  0
    9.8053  -15.1551   29.0411 C   0  0  0  0  0  0  0  0  0  0  0  0
    9.6466  -14.9611   27.6953 C   0  0  0  0  0  0  0  0  0  0  0  0
   10.5937  -15.4754   26.8157 C   0  0  0  0  0  0  0  0  0  0  0  0
   10.3952  -15.2686   25.3756 C   0  0  0  0  0  0  0  0  0  0  0  0
   11.6423  -15.7120   24.5853 C   0  0  2  0  0  0  0  0  0  0  0  0
   11.2433  -15.5271   23.1782 N   0  0  0  0  0  0  0  0  0  0  0  0
   11.8588  -17.1453   24.8460 C   0  0  0  0  0  0  0  0  0  0  0  0
   12.8629  -17.5954   25.4576 O   0  0  0  0  0  0  0  0  0  0  0  0
   11.6891  -16.1749   27.2496 C   0  0  0  0  0  0  0  0  0  0  0  0
   11.8451  -16.3686   28.6191 C   0  0  0  0  0  0  0  0  0  0  0  0
   10.9382  -18.0945   24.4178 O   0  0  0  0  0  0  0  0  0  0  0  0
  2  1  1  1
  3  2  1  0
  4  3  1  0
  5  2  1  0
  5  6  2  0
  7  5  1  0
  8  7  1  0
  8  9  1  1
 10  9  1  0
 10 18  1  0
 11 12  1  0
 11 10  2  0
 12 13  1  0
 13 14  2  0
 13 18  1  0
 14 15  1  0
 15 16  2  0
 17 16  1  0
 18 17  2  0
 19  8  1  0
 20 19  2  0
 22 23  2  0
 22 21  1  0
 24 23  1  0
 25 24  2  0
 27 26  1  1
 26 25  1  0
 27 28  1  0
 28 19  1  0
 29 27  1  0
 29 33  1  0
 30 29  2  0
 31 25  1  0
 31 32  2  0
 32 22  1  0
M  END
$$$$
