CWY.pdb
     RDKit          3D

 33 35  0  0  1  0  0  0  0  0999 V2000
    8.2607  -17.0753   19.4880 N   0  0  0  0  0  0  0  0  0  0  0  0
    8.7590  -17.7701   20.6707 C   0  0  1  0  0  0  0  0  0  0  0  0
   10.0470  -18.4387   20.2526 C   0  0  0  0  0  0  0  0  0  0  0  0
   10.3924  -19.8304   21.3494 S   0  0  0  0  0  0  0  0  0  0  0  0
    8.9480  -16.7493   21.7320 C   0  0  0  0  0  0  0  0  0  0  0  0
    9.4309  -15.5997   21.4376 O   0  0  0  0  0  0  0  0  0  0  0  0
    8.6334  -16.9291   23.0930 N   0  0  0  0  0  0  0  0  0  0  0  0
    8.8747  -15.9416   24.1271 C   0  0  1  0  0  0  0  0  0  0  0  0
    7.9401  -16.1344   25.2915 C   0  0  0  0  0  0  0  0  0  0  0  0
    6.9369  -15.0827   25.4764 C   0  0  0  0  0  0  0  0  0  0  0  0
    5.5511  -15.2811   25.3608 C   0  0  0  0  0  0  0  0  0  0  0  0
    4.9019  -14.1381   25.6017 N   0  0  0  0  0  0  0  0  0  0  0  0
    5.8019  -13.1708   25.8767 C   0  0  0  0  0  0  0  0  0  0  0  0
    5.6227  -11.8465   26.1798 C   0  0  0  0  0  0  0  0  0  0  0  0
    6.7238  -11.0360   26.4225 C   0  0  0  0  0  0  0  0  0  0  0  0
    7.9596  -11.6241   26.3420 C   0  0  0  0  0  0  0  0  0  0  0  0
    8.1563  -12.9616   26.0365 C   0  0  0  0  0  0  0  0  0  0  0  0
    7.0642  -13.7694   25.7957 C   0  0  0  0  0  0  0  0  0  0  0  0
   10.2833  -15.7317   24.4553 C   0  0  0  0  0  0  0  0  0  0  0  0
   10.6602  -14.9478   25.3962 O   0  0  0  0  0  0  0  0  0  0  0  0
    9.9300  -14.8190   29.6791 O   0  0  0  0  0  0  0  0  0  0  0  0
   10.5975  -15.4612   28.6490 C   0  0  0  0  0  0  0  0  0  0  0  0
   11.2822  -14.6894   27.7572 C   0  0  0  0  0  0  0  0  0  0  0  0
   11.9468  -15.3100   26.7339 C   0  0  0  0  0  0  0  0  0  0  0  0
   11.9041  -16.6969   26.6351 C   0  0  0  0  0  0  0  0  0  0  0  0
   12.6115  -17.3403   25.5207 C   0  0  0  0  0  0  0  0  0  0  0  0
   12.7112  -16.3845   24.3153 C   0  0  2  0  0  0  0  0  0  0  0  0
   11.3477  -16.3926   23.7545 N   0  0  0  0  0  0  0  0  0  0  0  0
   13.6423  -16.9785   23.3410 C   0  0  0  0  0  0  0  0  0  0  0  0
   14.8835  -17.0665   23.5320 O   0  0  0  0  0  0  0  0  0  0  0  0
   11.2159  -17.4719   27.5312 C   0  0  0  0  0  0  0  0  0  0  0  0
   10.5424  -16.8351   28.5695 C   0  0  0  0  0  0  0  0  0  0  0  0
   13.1810  -17.4847   22.1314 O   0  0  0  0  0  0  0  0  0  0  0  0
  2  1  1  6
  3  2  1  0
  4  3  1  0
  5  2  1  0
  5  6  2  0
  7  5  1  0
  8  7  1  0
  8  9  1  1
 10  9  1  0
 10 18  1  0
 11 12  1  0
 11 10  2  0
 12 13  1  0
 13 14  2  0
 13 18  1  0
 14 15  1  0
 15 16  2  0
 17 16  1  0
 18 17  2  0
 19  8  1  0
 20 19  2  0
 22 23  2  0
 22 21  1  0
 24 23  1  0
 25 24  2  0
 27 26  1  1
 26 25  1  0
 27 28  1  0
 28 19  1  0
 29 27  1  0
 29 33  1  0
 30 29  2  0
 31 25  1  0
 31 32  2  0
 32 22  1  0
M  END
$$$$
