CWY.pdb
     RDKit          3D

 33 35  0  0  1  0  0  0  0  0999 V2000
    8.5456  -17.9429   20.3007 N   0  0  0  0  0  0  0  0  0  0  0  0
    9.2305  -16.6603   20.4259 C   0  0  1  0  0  0  0  0  0  0  0  0
    8.4159  -15.6703   19.6276 C   0  0  0  0  0  0  0  0  0  0  0  0
    9.3732  -14.1609   19.3744 S   0  0  0  0  0  0  0  0  0  0  0  0
    9.2913  -16.3350   21.8733 C   0  0  0  0  0  0  0  0  0  0  0  0
   10.1750  -15.5167   22.3102 O   0  0  0  0  0  0  0  0  0  0  0  0
    8.4330  -16.8618   22.8578 N   0  0  0  0  0  0  0  0  0  0  0  0
    8.4757  -16.4991   24.2611 C   0  0  1  0  0  0  0  0  0  0  0  0
    7.1144  -16.6132   24.8938 C   0  0  0  0  0  0  0  0  0  0  0  0
    6.6090  -15.3931   25.5282 C   0  0  0  0  0  0  0  0  0  0  0  0
    5.3507  -15.2831   26.1429 C   0  0  0  0  0  0  0  0  0  0  0  0
    5.1892  -14.0538   26.6416 N   0  0  0  0  0  0  0  0  0  0  0  0
    6.2966  -13.3263   26.3852 C   0  0  0  0  0  0  0  0  0  0  0  0
    6.5993  -12.0254   26.6914 C   0  0  0  0  0  0  0  0  0  0  0  0
    7.8225  -11.4903   26.3100 C   0  0  0  0  0  0  0  0  0  0  0  0
    8.6792  -12.3173   25.6306 C   0  0  0  0  0  0  0  0  0  0  0  0
    8.3870  -13.6347   25.3139 C   0  0  0  0  0  0  0  0  0  0  0  0
    7.1727  -14.1692   25.6922 C   0  0  0  0  0  0  0  0  0  0  0  0
    9.5882  -17.0808   25.0093 C   0  0  0  0  0  0  0  0  0  0  0  0
    9.9795  -18.2879   24.8314 O   0  0  0  0  0  0  0  0  0  0  0  0
   14.5919  -17.4273   21.4464 O   0  0  0  0  0  0  0  0  0  0  0  0
   14.1014  -17.1068   22.7018 C   0  0  0  0  0  0  0  0  0  0  0  0
   14.4248  -17.9306   23.7394 C   0  0  0  0  0  0  0  0  0  0  0  0
   13.9474  -17.6265   24.9859 C   0  0  0  0  0  0  0  0  0  0  0  0
   13.1537  -16.4967   25.1552 C   0  0  0  0  0  0  0  0  0  0  0  0
   12.6399  -16.1983   26.4981 C   0  0  0  0  0  0  0  0  0  0  0  0
   11.3685  -17.0200   26.7891 C   0  0  2  0  0  0  0  0  0  0  0  0
   10.3295  -16.3424   25.9924 N   0  0  0  0  0  0  0  0  0  0  0  0
   11.0544  -16.8781   28.2210 C   0  0  0  0  0  0  0  0  0  0  0  0
   11.7737  -17.3514   29.1394 O   0  0  0  0  0  0  0  0  0  0  0  0
   12.8289  -15.6696   24.1123 C   0  0  0  0  0  0  0  0  0  0  0  0
   13.3175  -15.9839   22.8475 C   0  0  0  0  0  0  0  0  0  0  0  0
    9.9175  -16.1952   28.6369 O   0  0  0  0  0  0  0  0  0  0  0  0
  2  1  1  1
  3  2  1  0
  4  3  1  0
  5  2  1  0
  5  6  2  0
  7  5  1  0
  8  7  1  0
  8  9  1  1
 10  9  1  0
 10 18  1  0
 11 12  1  0
 11 10  2  0
 12 13  1  0
 13 14  2  0
 13 18  1  0
 14 15  1  0
 15 16  2  0
 17 16  1  0
 18 17  2  0
 19  8  1  0
 20 19  2  0
 22 23  2  0
 22 21  1  0
 24 23  1  0
 25 24  2  0
 27 26  1  1
 26 25  1  0
 27 28  1  0
 28 19  1  0
 29 27  1  0
 29 33  1  0
 30 29  2  0
 31 25  1  0
 31 32  2  0
 32 22  1  0
M  END
$$$$
