CWY.pdb
     RDKit          3D

 33 35  0  0  1  0  0  0  0  0999 V2000
    7.2088  -17.0006   21.0630 N   0  0  0  0  0  0  0  0  0  0  0  0
    8.0576  -15.8388   20.8192 C   0  0  1  0  0  0  0  0  0  0  0  0
    7.1214  -14.6747   20.5976 C   0  0  0  0  0  0  0  0  0  0  0  0
    5.9406  -14.5775   21.9598 S   0  0  0  0  0  0  0  0  0  0  0  0
    8.9259  -15.6719   22.0119 C   0  0  0  0  0  0  0  0  0  0  0  0
    9.8890  -14.8273   21.9910 O   0  0  0  0  0  0  0  0  0  0  0  0
    8.7876  -16.3835   23.2194 N   0  0  0  0  0  0  0  0  0  0  0  0
    9.7444  -16.3432   24.3083 C   0  0  1  0  0  0  0  0  0  0  0  0
    9.0499  -16.3778   25.6437 C   0  0  0  0  0  0  0  0  0  0  0  0
    7.9263  -15.4498   25.7949 C   0  0  0  0  0  0  0  0  0  0  0  0
    6.5759  -15.8130   25.6613 C   0  0  0  0  0  0  0  0  0  0  0  0
    5.7919  -14.7515   25.8724 N   0  0  0  0  0  0  0  0  0  0  0  0
    6.5662  -13.6802   26.1446 C   0  0  0  0  0  0  0  0  0  0  0  0
    6.2263  -12.3820   26.4221 C   0  0  0  0  0  0  0  0  0  0  0  0
    7.2193  -11.4431   26.6677 C   0  0  0  0  0  0  0  0  0  0  0  0
    8.5172  -11.8815   26.6165 C   0  0  0  0  0  0  0  0  0  0  0  0
    8.8762  -13.1908   26.3371 C   0  0  0  0  0  0  0  0  0  0  0  0
    7.8917  -14.1260   26.0934 C   0  0  0  0  0  0  0  0  0  0  0  0
   10.8886  -17.2385   24.1502 C   0  0  0  0  0  0  0  0  0  0  0  0
   10.7726  -18.4261   23.6834 O   0  0  0  0  0  0  0  0  0  0  0  0
   16.0220  -13.8100   18.5565 O   0  0  0  0  0  0  0  0  0  0  0  0
   15.1838  -14.2273   19.5775 C   0  0  0  0  0  0  0  0  0  0  0  0
   13.8558  -14.3577   19.2957 C   0  0  0  0  0  0  0  0  0  0  0  0
   13.0152  -14.7694   20.2947 C   0  0  0  0  0  0  0  0  0  0  0  0
   13.5359  -15.0398   21.5560 C   0  0  0  0  0  0  0  0  0  0  0  0
   12.6136  -15.4653   22.6164 C   0  0  0  0  0  0  0  0  0  0  0  0
   13.2228  -16.6199   23.4363 C   0  0  2  0  0  0  0  0  0  0  0  0
   12.2269  -16.8524   24.4982 N   0  0  0  0  0  0  0  0  0  0  0  0
   14.4755  -16.1357   24.0407 C   0  0  0  0  0  0  0  0  0  0  0  0
   15.6061  -16.2845   23.5074 O   0  0  0  0  0  0  0  0  0  0  0  0
   14.8702  -14.9085   21.8385 C   0  0  0  0  0  0  0  0  0  0  0  0
   15.7198  -14.4898   20.8187 C   0  0  0  0  0  0  0  0  0  0  0  0
   14.4676  -15.4723   25.2621 O   0  0  0  0  0  0  0  0  0  0  0  0
  2  1  1  1
  3  2  1  0
  4  3  1  0
  5  2  1  0
  5  6  2  0
  7  5  1  0
  8  7  1  0
  8  9  1  1
 10  9  1  0
 10 18  1  0
 11 12  1  0
 11 10  2  0
 12 13  1  0
 13 14  2  0
 13 18  1  0
 14 15  1  0
 15 16  2  0
 17 16  1  0
 18 17  2  0
 19  8  1  0
 20 19  2  0
 22 23  2  0
 22 21  1  0
 24 23  1  0
 25 24  2  0
 27 26  1  6
 26 25  1  0
 27 28  1  0
 28 19  1  0
 29 27  1  0
 29 33  1  0
 30 29  2  0
 31 25  1  0
 31 32  2  0
 32 22  1  0
M  END
$$$$
