KKG.pdb
     RDKit          3D

 23 22  0  0  1  0  0  0  0  0999 V2000
    6.7063  -20.4040   24.7692 N   0  0  0  0  0  0  0  0  0  0  0  0
    7.1414  -19.0737   25.1359 C   0  0  1  0  0  0  0  0  0  0  0  0
    8.2500  -19.1622   26.1443 C   0  0  0  0  0  0  0  0  0  0  0  0
    7.8078  -19.7628   27.4259 C   0  0  0  0  0  0  0  0  0  0  0  0
    8.8263  -19.8648   28.5124 C   0  0  0  0  0  0  0  0  0  0  0  0
    8.1971  -20.5862   29.7150 C   0  0  0  0  0  0  0  0  0  0  0  0
    9.1571  -20.7325   30.7849 N   0  0  0  0  0  0  0  0  0  0  0  0
    7.6041  -18.3753   23.8966 C   0  0  0  0  0  0  0  0  0  0  0  0
    8.2495  -18.9958   23.0151 O   0  0  0  0  0  0  0  0  0  0  0  0
    7.3389  -16.9996   23.6602 N   0  0  0  0  0  0  0  0  0  0  0  0
    8.1361  -16.1955   22.7404 C   0  0  1  0  0  0  0  0  0  0  0  0
    7.3448  -15.1289   22.0791 C   0  0  0  0  0  0  0  0  0  0  0  0
    8.0892  -14.5009   20.9561 C   0  0  0  0  0  0  0  0  0  0  0  0
    7.3627  -13.5239   20.1080 C   0  0  0  0  0  0  0  0  0  0  0  0
    8.0872  -12.9693   18.9372 C   0  0  0  0  0  0  0  0  0  0  0  0
    7.3970  -11.9049   18.2747 N   0  0  0  0  0  0  0  0  0  0  0  0
    9.3623  -15.7142   23.3485 C   0  0  0  0  0  0  0  0  0  0  0  0
    9.4884  -15.0240   24.3899 O   0  0  0  0  0  0  0  0  0  0  0  0
   10.6353  -16.0369   22.7247 N   0  0  0  0  0  0  0  0  0  0  0  0
   11.8725  -15.5382   23.2514 C   0  0  0  0  0  0  0  0  0  0  0  0
   12.9951  -16.0564   22.4500 C   0  0  0  0  0  0  0  0  0  0  0  0
   14.3014  -15.6804   22.6481 O   0  0  0  0  0  0  0  0  0  0  0  0
   12.7775  -16.8883   21.5221 O   0  0  0  0  0  0  0  0  0  0  0  0
  2  1  1  6
  3  2  1  0
  4  3  1  0
  5  4  1  0
  6  5  1  0
  7  6  1  0
  8  9  2  0
  8  2  1  0
 10  8  1  0
 11 10  1  0
 11 12  1  1
 13 12  1  0
 13 14  1  0
 15 14  1  0
 16 15  1  0
 17 11  1  0
 18 17  2  0
 19 17  1  0
 20 19  1  0
 21 20  1  0
 21 22  1  0
 23 21  2  0
M  END
$$$$
