KKG.pdb
     RDKit          3D

 23 22  0  0  1  0  0  0  0  0999 V2000
    6.1219  -15.0935   23.0609 N   0  0  0  0  0  0  0  0  0  0  0  0
    7.3699  -15.0548   22.3299 C   0  0  1  0  0  0  0  0  0  0  0  0
    7.5735  -13.6870   21.7455 C   0  0  0  0  0  0  0  0  0  0  0  0
    7.3502  -13.6546   20.2799 C   0  0  0  0  0  0  0  0  0  0  0  0
    8.5583  -13.7557   19.4090 C   0  0  0  0  0  0  0  0  0  0  0  0
    8.1325  -13.5540   17.9460 C   0  0  0  0  0  0  0  0  0  0  0  0
    9.2511  -13.7559   17.0539 N   0  0  0  0  0  0  0  0  0  0  0  0
    8.4763  -15.3993   23.2757 C   0  0  0  0  0  0  0  0  0  0  0  0
    8.8157  -14.5988   24.1827 O   0  0  0  0  0  0  0  0  0  0  0  0
    9.1840  -16.6288   23.1959 N   0  0  0  0  0  0  0  0  0  0  0  0
   10.4981  -16.8162   23.8008 C   0  0  1  0  0  0  0  0  0  0  0  0
   10.5824  -18.0538   24.6148 C   0  0  0  0  0  0  0  0  0  0  0  0
    9.6955  -17.9958   25.8063 C   0  0  0  0  0  0  0  0  0  0  0  0
    9.6405  -19.1911   26.6838 C   0  0  0  0  0  0  0  0  0  0  0  0
    8.7599  -19.1186   27.8765 C   0  0  0  0  0  0  0  0  0  0  0  0
    8.6829  -20.3392   28.6199 N   0  0  0  0  0  0  0  0  0  0  0  0
   11.5739  -16.6831   22.8364 C   0  0  0  0  0  0  0  0  0  0  0  0
   11.5252  -16.8676   21.5953 O   0  0  0  0  0  0  0  0  0  0  0  0
   12.8947  -16.2902   23.2997 N   0  0  0  0  0  0  0  0  0  0  0  0
   13.9869  -16.1217   22.3857 C   0  0  0  0  0  0  0  0  0  0  0  0
   15.1205  -15.4881   23.0820 C   0  0  0  0  0  0  0  0  0  0  0  0
   16.3067  -15.1749   22.4642 O   0  0  0  0  0  0  0  0  0  0  0  0
   15.0294  -15.2093   24.3126 O   0  0  0  0  0  0  0  0  0  0  0  0
  2  1  1  1
  3  2  1  0
  4  3  1  0
  5  4  1  0
  6  5  1  0
  7  6  1  0
  8  9  2  0
  8  2  1  0
 10  8  1  0
 11 10  1  0
 11 12  1  6
 13 12  1  0
 13 14  1  0
 15 14  1  0
 16 15  1  0
 17 11  1  0
 18 17  2  0
 19 17  1  0
 20 19  1  0
 21 20  1  0
 21 22  1  0
 23 21  2  0
M  END
$$$$
