KKG.pdb
     RDKit          3D

 23 22  0  0  1  0  0  0  0  0999 V2000
    5.8927  -20.4976   21.3832 N   0  0  0  0  0  0  0  0  0  0  0  0
    5.9254  -19.5790   22.5006 C   0  0  1  0  0  0  0  0  0  0  0  0
    6.4770  -20.2730   23.7121 C   0  0  0  0  0  0  0  0  0  0  0  0
    5.6820  -21.4639   24.0978 C   0  0  0  0  0  0  0  0  0  0  0  0
    6.1870  -22.2712   25.2474 C   0  0  0  0  0  0  0  0  0  0  0  0
    5.1942  -23.4109   25.5263 C   0  0  0  0  0  0  0  0  0  0  0  0
    5.6053  -24.1784   26.6794 N   0  0  0  0  0  0  0  0  0  0  0  0
    6.7802  -18.4117   22.1209 C   0  0  0  0  0  0  0  0  0  0  0  0
    7.9083  -18.5879   21.5964 O   0  0  0  0  0  0  0  0  0  0  0  0
    6.3636  -17.0695   22.3304 N   0  0  0  0  0  0  0  0  0  0  0  0
    7.2626  -15.9343   22.1540 C   0  0  1  0  0  0  0  0  0  0  0  0
    6.5380  -14.6485   22.0020 C   0  0  0  0  0  0  0  0  0  0  0  0
    7.4188  -13.5742   21.4735 C   0  0  0  0  0  0  0  0  0  0  0  0
    7.7482  -13.6018   20.0269 C   0  0  0  0  0  0  0  0  0  0  0  0
    8.6308  -12.5260   19.5103 C   0  0  0  0  0  0  0  0  0  0  0  0
    8.9339  -12.6393   18.1161 N   0  0  0  0  0  0  0  0  0  0  0  0
    8.3065  -15.8952   23.1609 C   0  0  0  0  0  0  0  0  0  0  0  0
    8.1771  -15.7547   24.4019 O   0  0  0  0  0  0  0  0  0  0  0  0
    9.6937  -16.0302   22.7471 N   0  0  0  0  0  0  0  0  0  0  0  0
   10.7687  -15.9078   23.6884 C   0  0  0  0  0  0  0  0  0  0  0  0
   12.0574  -15.9582   22.9757 C   0  0  0  0  0  0  0  0  0  0  0  0
   13.2717  -15.8034   23.5989 O   0  0  0  0  0  0  0  0  0  0  0  0
   12.0803  -16.1483   21.7252 O   0  0  0  0  0  0  0  0  0  0  0  0
  2  1  1  6
  3  2  1  0
  4  3  1  0
  5  4  1  0
  6  5  1  0
  7  6  1  0
  8  9  2  0
  8  2  1  0
 10  8  1  0
 11 10  1  0
 11 12  1  1
 13 12  1  0
 13 14  1  0
 15 14  1  0
 16 15  1  0
 17 11  1  0
 18 17  2  0
 19 17  1  0
 20 19  1  0
 21 20  1  0
 21 22  1  0
 23 21  2  0
M  END
$$$$
