KKG.pdb
     RDKit          3D

 23 22  0  0  1  0  0  0  0  0999 V2000
    7.6078  -15.8101   19.5427 N   0  0  0  0  0  0  0  0  0  0  0  0
    8.7380  -14.9123   19.4420 C   0  0  1  0  0  0  0  0  0  0  0  0
    8.3228  -13.6502   18.7430 C   0  0  0  0  0  0  0  0  0  0  0  0
    8.3993  -13.7649   17.2666 C   0  0  0  0  0  0  0  0  0  0  0  0
    7.1779  -14.2543   16.5618 C   0  0  0  0  0  0  0  0  0  0  0  0
    7.4714  -14.3275   15.0548 C   0  0  0  0  0  0  0  0  0  0  0  0
    6.2874  -14.7086   14.3196 N   0  0  0  0  0  0  0  0  0  0  0  0
    9.2262  -14.6186   20.8250 C   0  0  0  0  0  0  0  0  0  0  0  0
   10.2392  -13.8979   21.0068 O   0  0  0  0  0  0  0  0  0  0  0  0
    8.5774  -15.1309   21.9806 N   0  0  0  0  0  0  0  0  0  0  0  0
    9.1681  -15.0471   23.3118 C   0  0  1  0  0  0  0  0  0  0  0  0
    8.2345  -14.4840   24.3180 C   0  0  0  0  0  0  0  0  0  0  0  0
    8.9274  -14.1416   25.5877 C   0  0  0  0  0  0  0  0  0  0  0  0
    8.1109  -13.5686   26.6862 C   0  0  0  0  0  0  0  0  0  0  0  0
    8.8096  -13.2460   27.9554 C   0  0  0  0  0  0  0  0  0  0  0  0
    7.9700  -12.6472   28.9478 N   0  0  0  0  0  0  0  0  0  0  0  0
    9.7790  -16.2969   23.7243 C   0  0  0  0  0  0  0  0  0  0  0  0
    9.2156  -17.3073   24.2125 O   0  0  0  0  0  0  0  0  0  0  0  0
   11.2160  -16.4632   23.5801 N   0  0  0  0  0  0  0  0  0  0  0  0
   11.9632  -17.3041   24.4697 C   0  0  0  0  0  0  0  0  0  0  0  0
   13.4039  -17.1500   24.2017 C   0  0  0  0  0  0  0  0  0  0  0  0
   13.9985  -15.9392   23.9421 O   0  0  0  0  0  0  0  0  0  0  0  0
   14.1580  -18.1657   24.1996 O   0  0  0  0  0  0  0  0  0  0  0  0
  2  1  1  1
  3  2  1  0
  4  3  1  0
  5  4  1  0
  6  5  1  0
  7  6  1  0
  8  9  2  0
  8  2  1  0
 10  8  1  0
 11 10  1  0
 11 12  1  1
 13 12  1  0
 13 14  1  0
 15 14  1  0
 16 15  1  0
 17 11  1  0
 18 17  2  0
 19 17  1  0
 20 19  1  0
 21 20  1  0
 21 22  1  0
 23 21  2  0
M  END
$$$$
