KKG.pdb
     RDKit          3D

 23 22  0  0  1  0  0  0  0  0999 V2000
    7.4618  -12.6215   19.2604 N   0  0  0  0  0  0  0  0  0  0  0  0
    8.1833  -13.7951   18.8182 C   0  0  1  0  0  0  0  0  0  0  0  0
    8.9130  -13.4913   17.5419 C   0  0  0  0  0  0  0  0  0  0  0  0
    8.3169  -14.1744   16.3684 C   0  0  0  0  0  0  0  0  0  0  0  0
    9.2542  -14.6128   15.2926 C   0  0  0  0  0  0  0  0  0  0  0  0
    8.4375  -15.2250   14.1433 C   0  0  0  0  0  0  0  0  0  0  0  0
    9.2972  -15.5897   13.0408 N   0  0  0  0  0  0  0  0  0  0  0  0
    9.1411  -14.1890   19.8976 C   0  0  0  0  0  0  0  0  0  0  0  0
    9.6777  -13.3177   20.6267 O   0  0  0  0  0  0  0  0  0  0  0  0
    9.4830  -15.5454   20.1471 N   0  0  0  0  0  0  0  0  0  0  0  0
   10.5436  -15.9276   21.0729 C   0  0  1  0  0  0  0  0  0  0  0  0
   10.0554  -16.7870   22.1793 C   0  0  0  0  0  0  0  0  0  0  0  0
   11.1496  -17.1681   23.1104 C   0  0  0  0  0  0  0  0  0  0  0  0
   10.8457  -18.1762   24.1560 C   0  0  0  0  0  0  0  0  0  0  0  0
   11.9383  -18.5309   25.0961 C   0  0  0  0  0  0  0  0  0  0  0  0
   11.8382  -17.8939   26.3738 N   0  0  0  0  0  0  0  0  0  0  0  0
   11.7047  -16.4668   20.3900 C   0  0  0  0  0  0  0  0  0  0  0  0
   11.8390  -17.6049   19.8767 O   0  0  0  0  0  0  0  0  0  0  0  0
   12.8906  -15.6377   20.2488 N   0  0  0  0  0  0  0  0  0  0  0  0
   14.0892  -16.1456   19.6472 C   0  0  0  0  0  0  0  0  0  0  0  0
   15.1252  -15.0978   19.6493 C   0  0  0  0  0  0  0  0  0  0  0  0
   16.3820  -15.2773   19.1246 O   0  0  0  0  0  0  0  0  0  0  0  0
   14.8771  -13.9656   20.1561 O   0  0  0  0  0  0  0  0  0  0  0  0
  2  1  1  1
  3  2  1  0
  4  3  1  0
  5  4  1  0
  6  5  1  0
  7  6  1  0
  8  9  2  0
  8  2  1  0
 10  8  1  0
 11 10  1  0
 11 12  1  1
 13 12  1  0
 13 14  1  0
 15 14  1  0
 16 15  1  0
 17 11  1  0
 18 17  2  0
 19 17  1  0
 20 19  1  0
 21 20  1  0
 21 22  1  0
 23 21  2  0
M  END
$$$$
