KKG.pdb
     RDKit          3D

 23 22  0  0  1  0  0  0  0  0999 V2000
    8.4371  -16.0352   18.4591 N   0  0  0  0  0  0  0  0  0  0  0  0
    8.5278  -16.7496   19.7141 C   0  0  1  0  0  0  0  0  0  0  0  0
    9.4949  -17.8900   19.5801 C   0  0  0  0  0  0  0  0  0  0  0  0
    9.0304  -18.9212   18.6210 C   0  0  0  0  0  0  0  0  0  0  0  0
    9.8582  -20.1577   18.5035 C   0  0  0  0  0  0  0  0  0  0  0  0
    9.1430  -21.1456   17.5680 C   0  0  0  0  0  0  0  0  0  0  0  0
    9.9382  -22.3364   17.3749 N   0  0  0  0  0  0  0  0  0  0  0  0
    8.9811  -15.7886   20.7670 C   0  0  0  0  0  0  0  0  0  0  0  0
   10.2042  -15.6364   21.0110 O   0  0  0  0  0  0  0  0  0  0  0  0
    8.0652  -15.0136   21.5281 N   0  0  0  0  0  0  0  0  0  0  0  0
    8.3069  -14.6635   22.9235 C   0  0  1  0  0  0  0  0  0  0  0  0
    7.0784  -14.2095   23.6207 C   0  0  0  0  0  0  0  0  0  0  0  0
    7.3765  -13.6611   24.9697 C   0  0  0  0  0  0  0  0  0  0  0  0
    6.3804  -12.7440   25.5769 C   0  0  0  0  0  0  0  0  0  0  0  0
    6.6393  -12.2809   26.9632 C   0  0  0  0  0  0  0  0  0  0  0  0
    5.5570  -11.5471   27.5448 N   0  0  0  0  0  0  0  0  0  0  0  0
    9.0272  -15.7017   23.6364 C   0  0  0  0  0  0  0  0  0  0  0  0
    8.5536  -16.7030   24.2279 O   0  0  0  0  0  0  0  0  0  0  0  0
   10.4775  -15.6326   23.7112 N   0  0  0  0  0  0  0  0  0  0  0  0
   11.1943  -16.1791   24.8267 C   0  0  0  0  0  0  0  0  0  0  0  0
   12.6353  -15.9183   24.6634 C   0  0  0  0  0  0  0  0  0  0  0  0
   13.5834  -16.3203   25.5726 O   0  0  0  0  0  0  0  0  0  0  0  0
   13.0523  -15.2913   23.6469 O   0  0  0  0  0  0  0  0  0  0  0  0
  2  1  1  6
  3  2  1  0
  4  3  1  0
  5  4  1  0
  6  5  1  0
  7  6  1  0
  8  9  2  0
  8  2  1  0
 10  8  1  0
 11 10  1  0
 11 12  1  1
 13 12  1  0
 13 14  1  0
 15 14  1  0
 16 15  1  0
 17 11  1  0
 18 17  2  0
 19 17  1  0
 20 19  1  0
 21 20  1  0
 21 22  1  0
 23 21  2  0
M  END
$$$$
