KKG.pdb
     RDKit          3D

 23 22  0  0  1  0  0  0  0  0999 V2000
    9.6893  -16.2402   19.1684 N   0  0  0  0  0  0  0  0  0  0  0  0
    8.8241  -16.7328   20.2183 C   0  0  1  0  0  0  0  0  0  0  0  0
    9.0974  -18.1892   20.4595 C   0  0  0  0  0  0  0  0  0  0  0  0
    9.0728  -18.9880   19.2104 C   0  0  0  0  0  0  0  0  0  0  0  0
    9.2177  -20.4670   19.3502 C   0  0  0  0  0  0  0  0  0  0  0  0
    9.0592  -21.1134   17.9648 C   0  0  0  0  0  0  0  0  0  0  0  0
    9.1392  -22.5531   18.0583 N   0  0  0  0  0  0  0  0  0  0  0  0
    9.0850  -15.9309   21.4536 C   0  0  0  0  0  0  0  0  0  0  0  0
   10.2562  -15.7777   21.8820 O   0  0  0  0  0  0  0  0  0  0  0  0
    8.0382  -15.3127   22.1890 N   0  0  0  0  0  0  0  0  0  0  0  0
    8.2466  -14.7345   23.5120 C   0  0  1  0  0  0  0  0  0  0  0  0
    7.1133  -13.8827   23.9495 C   0  0  0  0  0  0  0  0  0  0  0  0
    7.3781  -13.2380   25.2624 C   0  0  0  0  0  0  0  0  0  0  0  0
    6.3035  -12.3989   25.8479 C   0  0  0  0  0  0  0  0  0  0  0  0
    6.5782  -11.7604   27.1594 C   0  0  0  0  0  0  0  0  0  0  0  0
    5.4931  -10.9761   27.6652 N   0  0  0  0  0  0  0  0  0  0  0  0
    8.6361  -15.7291   24.4940 C   0  0  0  0  0  0  0  0  0  0  0  0
    8.0066  -16.7585   24.8417 O   0  0  0  0  0  0  0  0  0  0  0  0
    9.8994  -15.5728   25.1963 N   0  0  0  0  0  0  0  0  0  0  0  0
   10.3047  -16.4945   26.2176 C   0  0  0  0  0  0  0  0  0  0  0  0
   11.7299  -16.8267   26.0457 C   0  0  0  0  0  0  0  0  0  0  0  0
   12.6603  -16.7047   27.0490 O   0  0  0  0  0  0  0  0  0  0  0  0
   12.1505  -17.2446   24.9282 O   0  0  0  0  0  0  0  0  0  0  0  0
  2  1  1  6
  3  2  1  0
  4  3  1  0
  5  4  1  0
  6  5  1  0
  7  6  1  0
  8  9  2  0
  8  2  1  0
 10  8  1  0
 11 10  1  0
 11 12  1  1
 13 12  1  0
 13 14  1  0
 15 14  1  0
 16 15  1  0
 17 11  1  0
 18 17  2  0
 19 17  1  0
 20 19  1  0
 21 20  1  0
 21 22  1  0
 23 21  2  0
M  END
$$$$
