KKG.pdb
     RDKit          3D

 23 22  0  0  1  0  0  0  0  0999 V2000
    6.1555  -19.9395   24.2843 N   0  0  0  0  0  0  0  0  0  0  0  0
    6.1586  -18.5516   24.6934 C   0  0  1  0  0  0  0  0  0  0  0  0
    6.6079  -18.4447   26.1219 C   0  0  0  0  0  0  0  0  0  0  0  0
    7.7685  -19.3178   26.4209 C   0  0  0  0  0  0  0  0  0  0  0  0
    8.2924  -19.2918   27.8184 C   0  0  0  0  0  0  0  0  0  0  0  0
    9.5821  -20.1258   27.8795 C   0  0  0  0  0  0  0  0  0  0  0  0
   10.1069  -20.1608   29.2253 N   0  0  0  0  0  0  0  0  0  0  0  0
    7.0814  -17.7996   23.7877 C   0  0  0  0  0  0  0  0  0  0  0  0
    8.1184  -18.3450   23.3342 O   0  0  0  0  0  0  0  0  0  0  0  0
    6.8326  -16.4549   23.4021 N   0  0  0  0  0  0  0  0  0  0  0  0
    7.8161  -15.6520   22.6836 C   0  0  1  0  0  0  0  0  0  0  0  0
    7.2471  -14.3876   22.1556 C   0  0  0  0  0  0  0  0  0  0  0  0
    8.1534  -13.7393   21.1718 C   0  0  0  0  0  0  0  0  0  0  0  0
    7.7408  -13.7441   19.7465 C   0  0  0  0  0  0  0  0  0  0  0  0
    8.6515  -13.0911   18.7731 C   0  0  0  0  0  0  0  0  0  0  0  0
    8.1119  -12.9819   17.4520 N   0  0  0  0  0  0  0  0  0  0  0  0
    9.0373  -15.4643   23.4442 C   0  0  0  0  0  0  0  0  0  0  0  0
    9.1628  -14.9796   24.5957 O   0  0  0  0  0  0  0  0  0  0  0  0
   10.3051  -15.8670   22.8573 N   0  0  0  0  0  0  0  0  0  0  0  0
   11.5474  -15.6433   23.5380 C   0  0  0  0  0  0  0  0  0  0  0  0
   12.6658  -16.0628   22.6753 C   0  0  0  0  0  0  0  0  0  0  0  0
   13.9860  -15.8793   23.0076 O   0  0  0  0  0  0  0  0  0  0  0  0
   12.4314  -16.6195   21.5638 O   0  0  0  0  0  0  0  0  0  0  0  0
  2  1  1  6
  3  2  1  0
  4  3  1  0
  5  4  1  0
  6  5  1  0
  7  6  1  0
  8  9  2  0
  8  2  1  0
 10  8  1  0
 11 10  1  0
 11 12  1  1
 13 12  1  0
 13 14  1  0
 15 14  1  0
 16 15  1  0
 17 11  1  0
 18 17  2  0
 19 17  1  0
 20 19  1  0
 21 20  1  0
 21 22  1  0
 23 21  2  0
M  END
$$$$
