KKG.pdb
     RDKit          3D

 23 22  0  0  1  0  0  0  0  0999 V2000
    7.7530  -15.7078   20.1195 N   0  0  0  0  0  0  0  0  0  0  0  0
    8.5958  -14.5355   20.2135 C   0  0  1  0  0  0  0  0  0  0  0  0
    7.9207  -13.3706   19.5495 C   0  0  0  0  0  0  0  0  0  0  0  0
    8.2682  -13.2539   18.1127 C   0  0  0  0  0  0  0  0  0  0  0  0
    7.5794  -14.1861   17.1721 C   0  0  0  0  0  0  0  0  0  0  0  0
    8.1072  -13.9349   15.7505 C   0  0  0  0  0  0  0  0  0  0  0  0
    7.5655  -14.9022   14.8240 N   0  0  0  0  0  0  0  0  0  0  0  0
    8.8429  -14.2525   21.6614 C   0  0  0  0  0  0  0  0  0  0  0  0
    9.5880  -13.3028   22.0100 O   0  0  0  0  0  0  0  0  0  0  0  0
    8.2552  -15.0305   22.6949 N   0  0  0  0  0  0  0  0  0  0  0  0
    8.4181  -14.7061   24.1078 C   0  0  1  0  0  0  0  0  0  0  0  0
    7.1339  -14.3672   24.7691 C   0  0  0  0  0  0  0  0  0  0  0  0
    7.2058  -13.0684   25.4884 C   0  0  0  0  0  0  0  0  0  0  0  0
    5.9899  -12.6076   26.2031 C   0  0  0  0  0  0  0  0  0  0  0  0
    6.0749  -11.3128   26.9238 C   0  0  0  0  0  0  0  0  0  0  0  0
    4.8181  -10.8341   27.4134 N   0  0  0  0  0  0  0  0  0  0  0  0
    9.1888  -15.7087   24.8191 C   0  0  0  0  0  0  0  0  0  0  0  0
    9.3122  -15.8502   26.0607 O   0  0  0  0  0  0  0  0  0  0  0  0
    9.9315  -16.7008   24.0589 N   0  0  0  0  0  0  0  0  0  0  0  0
   10.6787  -17.7360   24.7121 C   0  0  0  0  0  0  0  0  0  0  0  0
   12.1188  -17.4366   24.6237 C   0  0  0  0  0  0  0  0  0  0  0  0
   13.0942  -18.2625   25.1272 O   0  0  0  0  0  0  0  0  0  0  0  0
   12.5089  -16.3708   24.0651 O   0  0  0  0  0  0  0  0  0  0  0  0
  2  1  1  1
  3  2  1  0
  4  3  1  0
  5  4  1  0
  6  5  1  0
  7  6  1  0
  8  9  2  0
  8  2  1  0
 10  8  1  0
 11 10  1  0
 11 12  1  1
 13 12  1  0
 13 14  1  0
 15 14  1  0
 16 15  1  0
 17 11  1  0
 18 17  2  0
 19 17  1  0
 20 19  1  0
 21 20  1  0
 21 22  1  0
 23 21  2  0
M  END
$$$$
