KKG.pdb
     RDKit          3D

 23 22  0  0  1  0  0  0  0  0999 V2000
    1.0524  -20.6512   21.0905 N   0  0  0  0  0  0  0  0  0  0  0  0
    1.4913  -19.5199   21.8785 C   0  0  1  0  0  0  0  0  0  0  0  0
    0.8136  -19.5409   23.2179 C   0  0  0  0  0  0  0  0  0  0  0  0
   -0.6263  -19.8825   23.1226 C   0  0  0  0  0  0  0  0  0  0  0  0
   -1.4055  -19.8907   24.3957 C   0  0  0  0  0  0  0  0  0  0  0  0
   -2.8253  -20.4022   24.1042 C   0  0  0  0  0  0  0  0  0  0  0  0
   -3.5877  -20.5229   25.3256 N   0  0  0  0  0  0  0  0  0  0  0  0
    2.9767  -19.6058   22.0325 C   0  0  0  0  0  0  0  0  0  0  0  0
    3.5501  -20.7219   22.0974 O   0  0  0  0  0  0  0  0  0  0  0  0
    3.7971  -18.4483   22.1101 N   0  0  0  0  0  0  0  0  0  0  0  0
    5.2456  -18.5246   22.2652 C   0  0  1  0  0  0  0  0  0  0  0  0
    5.9752  -17.8225   21.1808 C   0  0  0  0  0  0  0  0  0  0  0  0
    7.4148  -18.1916   21.1510 C   0  0  0  0  0  0  0  0  0  0  0  0
    8.2497  -17.6249   20.0632 C   0  0  0  0  0  0  0  0  0  0  0  0
    9.6409  -18.1280   19.9418 C   0  0  0  0  0  0  0  0  0  0  0  0
   10.3386  -17.6422   18.7905 N   0  0  0  0  0  0  0  0  0  0  0  0
    5.6791  -18.1429   23.5962 C   0  0  0  0  0  0  0  0  0  0  0  0
    5.2800  -17.1755   24.2902 O   0  0  0  0  0  0  0  0  0  0  0  0
    6.6975  -18.9374   24.2635 N   0  0  0  0  0  0  0  0  0  0  0  0
    7.1518  -18.6118   25.5842 C   0  0  0  0  0  0  0  0  0  0  0  0
    8.1595  -19.5961   26.0166 C   0  0  0  0  0  0  0  0  0  0  0  0
    8.7912  -19.5447   27.2353 O   0  0  0  0  0  0  0  0  0  0  0  0
    8.4842  -20.5466   25.2475 O   0  0  0  0  0  0  0  0  0  0  0  0
  2  1  1  6
  3  2  1  0
  4  3  1  0
  5  4  1  0
  6  5  1  0
  7  6  1  0
  8  9  2  0
  8  2  1  0
 10  8  1  0
 11 10  1  0
 11 12  1  6
 13 12  1  0
 13 14  1  0
 15 14  1  0
 16 15  1  0
 17 11  1  0
 18 17  2  0
 19 17  1  0
 20 19  1  0
 21 20  1  0
 21 22  1  0
 23 21  2  0
M  END
$$$$
