KKG.pdb
     RDKit          3D

 23 22  0  0  1  0  0  0  0  0999 V2000
    9.5540  -18.1219   18.0252 N   0  0  0  0  0  0  0  0  0  0  0  0
    9.0332  -18.2880   19.3649 C   0  0  1  0  0  0  0  0  0  0  0  0
    9.4698  -19.6134   19.9185 C   0  0  0  0  0  0  0  0  0  0  0  0
    9.5326  -20.6712   18.8812 C   0  0  0  0  0  0  0  0  0  0  0  0
    9.8293  -22.0582   19.3465 C   0  0  0  0  0  0  0  0  0  0  0  0
    9.8946  -22.9874   18.1239 C   0  0  0  0  0  0  0  0  0  0  0  0
   10.2754  -24.3249   18.5160 N   0  0  0  0  0  0  0  0  0  0  0  0
    9.5461  -17.1642   20.2083 C   0  0  0  0  0  0  0  0  0  0  0  0
   10.7552  -16.8260   20.1577 O   0  0  0  0  0  0  0  0  0  0  0  0
    8.7042  -16.4362   21.0914 N   0  0  0  0  0  0  0  0  0  0  0  0
    9.2094  -15.3801   21.9618 C   0  0  1  0  0  0  0  0  0  0  0  0
    8.1750  -14.3708   22.2970 C   0  0  0  0  0  0  0  0  0  0  0  0
    8.0576  -13.3263   21.2460 C   0  0  0  0  0  0  0  0  0  0  0  0
    7.6148  -13.7533   19.8957 C   0  0  0  0  0  0  0  0  0  0  0  0
    7.4986  -12.7018   18.8544 C   0  0  0  0  0  0  0  0  0  0  0  0
    7.1280  -13.1972   17.5639 N   0  0  0  0  0  0  0  0  0  0  0  0
    9.9028  -15.9061   23.1227 C   0  0  0  0  0  0  0  0  0  0  0  0
    9.4027  -16.4205   24.1532 O   0  0  0  0  0  0  0  0  0  0  0  0
   11.3556  -15.8623   23.1589 N   0  0  0  0  0  0  0  0  0  0  0  0
   12.0916  -16.4068   24.2628 C   0  0  0  0  0  0  0  0  0  0  0  0
   13.5358  -16.3240   23.9824 C   0  0  0  0  0  0  0  0  0  0  0  0
   14.5036  -16.6322   24.9072 O   0  0  0  0  0  0  0  0  0  0  0  0
   13.9372  -15.9496   22.8426 O   0  0  0  0  0  0  0  0  0  0  0  0
  2  1  1  6
  3  2  1  0
  4  3  1  0
  5  4  1  0
  6  5  1  0
  7  6  1  0
  8  9  2  0
  8  2  1  0
 10  8  1  0
 11 10  1  0
 11 12  1  1
 13 12  1  0
 13 14  1  0
 15 14  1  0
 16 15  1  0
 17 11  1  0
 18 17  2  0
 19 17  1  0
 20 19  1  0
 21 20  1  0
 21 22  1  0
 23 21  2  0
M  END
$$$$
