YEQ.pdb
     RDKit          3D

 31 31  0  0  1  0  0  0  0  0999 V2000
   28.5414  -12.2976  -17.8426 O   0  0  0  0  0  0  0  0  0  0  0  0
   27.9666  -13.4812  -17.3737 C   0  0  0  0  0  0  0  0  0  0  0  0
   27.6124  -14.4389  -18.2999 C   0  0  0  0  0  0  0  0  0  0  0  0
   27.0358  -15.6312  -17.8563 C   0  0  0  0  0  0  0  0  0  0  0  0
   26.8115  -15.8768  -16.5229 C   0  0  0  0  0  0  0  0  0  0  0  0
   26.2070  -17.1335  -16.0957 C   0  0  0  0  0  0  0  0  0  0  0  0
   27.1794  -18.0936  -15.4595 C   0  0  2  0  0  0  0  0  0  0  0  0
   27.9354  -18.7048  -16.5535 N   0  0  0  0  0  0  0  0  0  0  0  0
   26.3812  -19.1424  -14.7736 C   0  0  0  0  0  0  0  0  0  0  0  0
   25.9010  -20.0885  -15.4425 O   0  0  0  0  0  0  0  0  0  0  0  0
   27.1742  -14.9044  -15.6187 C   0  0  0  0  0  0  0  0  0  0  0  0
   27.7522  -13.7054  -16.0428 C   0  0  0  0  0  0  0  0  0  0  0  0
   26.1450  -19.1038  -13.3729 N   0  0  0  0  0  0  0  0  0  0  0  0
   25.2686  -20.1064  -12.7124 C   0  0  1  0  0  0  0  0  0  0  0  0
   25.4594  -19.8252  -11.2425 C   0  0  0  0  0  0  0  0  0  0  0  0
   24.5745  -20.5738  -10.3174 C   0  0  0  0  0  0  0  0  0  0  0  0
   25.3011  -21.7753   -9.7457 C   0  0  0  0  0  0  0  0  0  0  0  0
   26.3548  -22.1925  -10.2808 O   0  0  0  0  0  0  0  0  0  0  0  0
   23.9097  -19.8569  -13.1786 C   0  0  0  0  0  0  0  0  0  0  0  0
   23.5255  -18.6733  -13.4064 O   0  0  0  0  0  0  0  0  0  0  0  0
   24.8274  -22.4376   -8.6302 O   0  0  0  0  0  0  0  0  0  0  0  0
   20.7580  -17.9642  -16.2469 N   0  0  0  0  0  0  0  0  0  0  0  0
   19.8212  -19.0240  -16.3210 C   0  0  0  0  0  0  0  0  0  0  0  0
   18.6540  -18.8175  -16.7500 O   0  0  0  0  0  0  0  0  0  0  0  0
   20.1857  -20.3948  -15.9060 C   0  0  0  0  0  0  0  0  0  0  0  0
   21.5427  -20.5507  -15.3270 C   0  0  0  0  0  0  0  0  0  0  0  0
   21.5873  -20.6387  -13.8574 C   0  0  2  0  0  0  0  0  0  0  0  0
   22.9691  -20.8799  -13.4038 N   0  0  0  0  0  0  0  0  0  0  0  0
   20.6956  -21.5097  -13.1371 C   0  0  0  0  0  0  0  0  0  0  0  0
   19.3859  -21.1705  -12.8520 O   0  0  0  0  0  0  0  0  0  0  0  0
   21.0777  -22.6325  -12.7205 O   0  0  0  0  0  0  0  0  0  0  0  0
  2  1  1  0
  3  2  2  0
  4  3  1  0
  5 11  1  0
  5  4  2  0
  6  5  1  0
  7  6  1  0
  7  8  1  6
  9  7  1  0
  9 10  2  0
 11 12  2  0
 12  2  1  0
 13  9  1  0
 14 13  1  0
 14 15  1  1
 16 15  1  0
 16 17  1  0
 17 21  1  0
 17 18  2  0
 19 14  1  0
 20 19  2  0
 23 22  1  0
 23 25  1  0
 24 23  2  0
 26 25  1  0
 27 26  1  6
 27 28  1  0
 28 19  1  0
 29 27  1  0
 29 30  1  0
 31 29  2  0
M  END
$$$$
