YEQ.pdb
     RDKit          3D

 31 31  0  0  1  0  0  0  0  0999 V2000
   29.0224  -20.1634   -3.4680 O   0  0  0  0  0  0  0  0  0  0  0  0
   28.4654  -19.9734   -4.7348 C   0  0  0  0  0  0  0  0  0  0  0  0
   27.4395  -20.8092   -5.1217 C   0  0  0  0  0  0  0  0  0  0  0  0
   26.8658  -20.6395   -6.3838 C   0  0  0  0  0  0  0  0  0  0  0  0
   27.2947  -19.6633   -7.2508 C   0  0  0  0  0  0  0  0  0  0  0  0
   26.6722  -19.5152   -8.5614 C   0  0  0  0  0  0  0  0  0  0  0  0
   26.7897  -20.7381   -9.4349 C   0  0  2  0  0  0  0  0  0  0  0  0
   28.2153  -20.9113   -9.7172 N   0  0  0  0  0  0  0  0  0  0  0  0
   26.0739  -20.4460  -10.7038 C   0  0  0  0  0  0  0  0  0  0  0  0
   26.4623  -19.4977  -11.4270 O   0  0  0  0  0  0  0  0  0  0  0  0
   28.3203  -18.8422   -6.8402 C   0  0  0  0  0  0  0  0  0  0  0  0
   28.9070  -18.9961   -5.5817 C   0  0  0  0  0  0  0  0  0  0  0  0
   24.9553  -21.2152  -11.1237 N   0  0  0  0  0  0  0  0  0  0  0  0
   24.2275  -20.8928  -12.3790 C   0  0  1  0  0  0  0  0  0  0  0  0
   24.4330  -22.1220  -13.2294 C   0  0  0  0  0  0  0  0  0  0  0  0
   25.7459  -22.2287  -13.9108 C   0  0  0  0  0  0  0  0  0  0  0  0
   25.7782  -23.4491  -14.8096 C   0  0  0  0  0  0  0  0  0  0  0  0
   26.1431  -24.5597  -14.3578 O   0  0  0  0  0  0  0  0  0  0  0  0
   22.8336  -20.6653  -12.0166 C   0  0  0  0  0  0  0  0  0  0  0  0
   22.3336  -21.2597  -11.0180 O   0  0  0  0  0  0  0  0  0  0  0  0
   25.4103  -23.3726  -16.1386 O   0  0  0  0  0  0  0  0  0  0  0  0
   17.8291  -16.6140  -12.9744 N   0  0  0  0  0  0  0  0  0  0  0  0
   18.3718  -17.2280  -14.1297 C   0  0  0  0  0  0  0  0  0  0  0  0
   17.7880  -17.1266  -15.2423 O   0  0  0  0  0  0  0  0  0  0  0  0
   19.6337  -17.9945  -14.0649 C   0  0  0  0  0  0  0  0  0  0  0  0
   20.2387  -18.1221  -12.7162 C   0  0  0  0  0  0  0  0  0  0  0  0
   20.5967  -19.4951  -12.3207 C   0  0  2  0  0  0  0  0  0  0  0  0
   21.9821  -19.7961  -12.7246 N   0  0  0  0  0  0  0  0  0  0  0  0
   19.7531  -20.6109  -12.6608 C   0  0  0  0  0  0  0  0  0  0  0  0
   18.5592  -20.8714  -12.0139 O   0  0  0  0  0  0  0  0  0  0  0  0
   20.0748  -21.4168  -13.5705 O   0  0  0  0  0  0  0  0  0  0  0  0
  2  1  1  0
  3  2  2  0
  4  3  1  0
  5 11  1  0
  5  4  2  0
  6  5  1  0
  7  6  1  0
  7  8  1  6
  9  7  1  0
  9 10  2  0
 11 12  2  0
 12  2  1  0
 13  9  1  0
 14 13  1  0
 14 15  1  6
 16 15  1  0
 16 17  1  0
 17 21  1  0
 17 18  2  0
 19 14  1  0
 20 19  2  0
 23 22  1  0
 23 25  1  0
 24 23  2  0
 26 25  1  0
 27 26  1  6
 27 28  1  0
 28 19  1  0
 29 27  1  0
 29 30  1  0
 31 29  2  0
M  END
$$$$
