YEQ.pdb
     RDKit          3D

 31 31  0  0  1  0  0  0  0  0999 V2000
   23.7070   -9.6620  -24.6673 O   0  0  0  0  0  0  0  0  0  0  0  0
   23.1657   -9.6113  -23.3807 C   0  0  0  0  0  0  0  0  0  0  0  0
   22.6943  -10.7845  -22.8311 C   0  0  0  0  0  0  0  0  0  0  0  0
   22.1483  -10.7602  -21.5458 C   0  0  0  0  0  0  0  0  0  0  0  0
   22.0676   -9.6002  -20.8134 C   0  0  0  0  0  0  0  0  0  0  0  0
   21.4909   -9.6120  -19.4738 C   0  0  0  0  0  0  0  0  0  0  0  0
   22.4520   -9.1913  -18.3915 C   0  0  2  0  0  0  0  0  0  0  0  0
   23.3996  -10.2943  -18.2259 N   0  0  0  0  0  0  0  0  0  0  0  0
   21.6670   -9.0316  -17.1401 C   0  0  0  0  0  0  0  0  0  0  0  0
   21.4127  -10.0397  -16.4385 O   0  0  0  0  0  0  0  0  0  0  0  0
   22.5453   -8.4427  -21.3849 C   0  0  0  0  0  0  0  0  0  0  0  0
   23.0950   -8.4467  -22.6692 C   0  0  0  0  0  0  0  0  0  0  0  0
   21.1935   -7.7617  -16.7131 N   0  0  0  0  0  0  0  0  0  0  0  0
   20.3899   -7.6181  -15.4709 C   0  0  1  0  0  0  0  0  0  0  0  0
   20.8374   -6.2887  -14.9152 C   0  0  0  0  0  0  0  0  0  0  0  0
   22.1358   -6.2877  -14.1987 C   0  0  0  0  0  0  0  0  0  0  0  0
   22.5310   -4.8736  -13.8212 C   0  0  0  0  0  0  0  0  0  0  0  0
   23.5146   -4.3226  -14.3687 O   0  0  0  0  0  0  0  0  0  0  0  0
   18.9867   -7.6381  -15.8668 C   0  0  0  0  0  0  0  0  0  0  0  0
   18.6213   -7.0645  -16.9335 O   0  0  0  0  0  0  0  0  0  0  0  0
   21.8255   -4.1593  -12.8727 O   0  0  0  0  0  0  0  0  0  0  0  0
   14.6795  -12.1022  -14.7251 N   0  0  0  0  0  0  0  0  0  0  0  0
   13.9453  -11.0766  -15.3695 C   0  0  0  0  0  0  0  0  0  0  0  0
   12.7704  -11.2883  -15.7742 O   0  0  0  0  0  0  0  0  0  0  0  0
   14.5301   -9.7355  -15.5782 C   0  0  0  0  0  0  0  0  0  0  0  0
   15.9442   -9.5794  -15.1575 C   0  0  0  0  0  0  0  0  0  0  0  0
   16.5553   -8.2821  -15.4938 C   0  0  2  0  0  0  0  0  0  0  0  0
   17.9808   -8.2784  -15.1184 N   0  0  0  0  0  0  0  0  0  0  0  0
   15.9531   -7.0445  -15.0715 C   0  0  0  0  0  0  0  0  0  0  0  0
   16.4805   -6.2616  -14.0613 O   0  0  0  0  0  0  0  0  0  0  0  0
   14.8978   -6.6184  -15.6056 O   0  0  0  0  0  0  0  0  0  0  0  0
  2  1  1  0
  3  2  2  0
  4  3  1  0
  5 11  1  0
  5  4  2  0
  6  5  1  0
  7  6  1  0
  7  8  1  1
  9  7  1  0
  9 10  2  0
 11 12  2  0
 12  2  1  0
 13  9  1  0
 14 13  1  0
 14 15  1  6
 16 15  1  0
 16 17  1  0
 17 21  1  0
 17 18  2  0
 19 14  1  0
 20 19  2  0
 23 22  1  0
 23 25  1  0
 24 23  2  0
 26 25  1  0
 27 26  1  1
 27 28  1  0
 28 19  1  0
 29 27  1  0
 29 30  1  0
 31 29  2  0
M  END
$$$$
