YEQ.pdb
     RDKit          3D

 31 31  0  0  1  0  0  0  0  0999 V2000
   16.2650  -18.0986  -18.9062 O   0  0  0  0  0  0  0  0  0  0  0  0
   16.9256  -16.9720  -18.4107 C   0  0  0  0  0  0  0  0  0  0  0  0
   17.0657  -15.8849  -19.2469 C   0  0  0  0  0  0  0  0  0  0  0  0
   17.7225  -14.7462  -18.7750 C   0  0  0  0  0  0  0  0  0  0  0  0
   18.2330  -14.6786  -17.5009 C   0  0  0  0  0  0  0  0  0  0  0  0
   18.9133  -13.4730  -17.0417 C   0  0  0  0  0  0  0  0  0  0  0  0
   20.3715  -13.4133  -17.4190 C   0  0  2  0  0  0  0  0  0  0  0  0
   21.0415  -14.4665  -16.6548 N   0  0  0  0  0  0  0  0  0  0  0  0
   20.8881  -12.0906  -16.9818 C   0  0  0  0  0  0  0  0  0  0  0  0
   21.0529  -11.8662  -15.7588 O   0  0  0  0  0  0  0  0  0  0  0  0
   18.0799  -15.7774  -16.6861 C   0  0  0  0  0  0  0  0  0  0  0  0
   17.4260  -16.9255  -17.1399 C   0  0  0  0  0  0  0  0  0  0  0  0
   21.2025  -11.0666  -17.9154 N   0  0  0  0  0  0  0  0  0  0  0  0
   21.8341   -9.7941  -17.4780 C   0  0  1  0  0  0  0  0  0  0  0  0
   22.3925   -9.2215  -18.7574 C   0  0  0  0  0  0  0  0  0  0  0  0
   23.0774   -7.9115  -18.6386 C   0  0  0  0  0  0  0  0  0  0  0  0
   23.4572   -7.3865  -20.0092 C   0  0  0  0  0  0  0  0  0  0  0  0
   23.1828   -8.0459  -21.0391 O   0  0  0  0  0  0  0  0  0  0  0  0
   20.7807   -8.9764  -16.8884 C   0  0  0  0  0  0  0  0  0  0  0  0
   19.6246   -8.9658  -17.4021 O   0  0  0  0  0  0  0  0  0  0  0  0
   24.1100   -6.1788  -20.1604 O   0  0  0  0  0  0  0  0  0  0  0  0
   18.1704   -9.0028  -11.6061 N   0  0  0  0  0  0  0  0  0  0  0  0
   17.8066   -7.6957  -12.0124 C   0  0  0  0  0  0  0  0  0  0  0  0
   17.0116   -7.0075  -11.3172 O   0  0  0  0  0  0  0  0  0  0  0  0
   18.3506   -7.1030  -13.2521 C   0  0  0  0  0  0  0  0  0  0  0  0
   19.3219   -7.9446  -13.9934 C   0  0  0  0  0  0  0  0  0  0  0  0
   19.9295   -7.3041  -15.1725 C   0  0  2  0  0  0  0  0  0  0  0  0
   20.9705   -8.1765  -15.7456 N   0  0  0  0  0  0  0  0  0  0  0  0
   20.4258   -5.9541  -15.1124 C   0  0  0  0  0  0  0  0  0  0  0  0
   19.6145   -4.8698  -14.8336 O   0  0  0  0  0  0  0  0  0  0  0  0
   21.6380   -5.6960  -15.3235 O   0  0  0  0  0  0  0  0  0  0  0  0
  2  1  1  0
  3  2  2  0
  4  3  1  0
  5 11  1  0
  5  4  2  0
  6  5  1  0
  7  6  1  0
  7  8  1  1
  9  7  1  0
  9 10  2  0
 11 12  2  0
 12  2  1  0
 13  9  1  0
 14 13  1  0
 14 15  1  6
 16 15  1  0
 16 17  1  0
 17 21  1  0
 17 18  2  0
 19 14  1  0
 20 19  2  0
 23 22  1  0
 23 25  1  0
 24 23  2  0
 26 25  1  0
 27 26  1  1
 27 28  1  0
 28 19  1  0
 29 27  1  0
 29 30  1  0
 31 29  2  0
M  END
$$$$
