YEQ.pdb
     RDKit          3D

 31 31  0  0  1  0  0  0  0  0999 V2000
   29.5067  -19.8843   -3.2502 O   0  0  0  0  0  0  0  0  0  0  0  0
   28.8440  -19.8059   -4.4773 C   0  0  0  0  0  0  0  0  0  0  0  0
   28.1713  -20.9244   -4.9213 C   0  0  0  0  0  0  0  0  0  0  0  0
   27.5007  -20.8713   -6.1453 C   0  0  0  0  0  0  0  0  0  0  0  0
   27.4924  -19.7361   -6.9197 C   0  0  0  0  0  0  0  0  0  0  0  0
   26.7815  -19.7168   -8.1930 C   0  0  0  0  0  0  0  0  0  0  0  0
   27.1118  -20.8789   -9.0945 C   0  0  2  0  0  0  0  0  0  0  0  0
   28.5658  -20.8748   -9.2614 N   0  0  0  0  0  0  0  0  0  0  0  0
   26.4700  -20.6161  -10.4085 C   0  0  0  0  0  0  0  0  0  0  0  0
   26.9837  -19.7801  -11.1898 O   0  0  0  0  0  0  0  0  0  0  0  0
   28.1716  -18.6332   -6.4538 C   0  0  0  0  0  0  0  0  0  0  0  0
   28.8483  -18.6666   -5.2321 C   0  0  0  0  0  0  0  0  0  0  0  0
   25.2838  -21.2891  -10.8076 N   0  0  0  0  0  0  0  0  0  0  0  0
   24.6636  -21.0339  -12.1342 C   0  0  1  0  0  0  0  0  0  0  0  0
   25.0121  -22.2689  -12.9278 C   0  0  0  0  0  0  0  0  0  0  0  0
   24.4717  -22.3287  -14.3075 C   0  0  0  0  0  0  0  0  0  0  0  0
   24.9828  -23.5635  -15.0233 C   0  0  0  0  0  0  0  0  0  0  0  0
   24.1865  -24.4599  -15.3883 O   0  0  0  0  0  0  0  0  0  0  0  0
   23.2317  -20.8734  -11.9110 C   0  0  0  0  0  0  0  0  0  0  0  0
   22.6646  -21.4933  -10.9653 O   0  0  0  0  0  0  0  0  0  0  0  0
   26.3269  -23.7342  -15.2909 O   0  0  0  0  0  0  0  0  0  0  0  0
   19.5108  -16.1470  -14.1485 N   0  0  0  0  0  0  0  0  0  0  0  0
   18.6163  -17.0055  -13.4637 C   0  0  0  0  0  0  0  0  0  0  0  0
   17.3989  -16.6998  -13.3472 O   0  0  0  0  0  0  0  0  0  0  0  0
   19.0810  -18.2793  -12.8757 C   0  0  0  0  0  0  0  0  0  0  0  0
   20.5205  -18.5854  -13.0630 C   0  0  0  0  0  0  0  0  0  0  0  0
   20.9692  -19.8586  -12.4737 C   0  0  2  0  0  0  0  0  0  0  0  0
   22.4139  -20.0434  -12.7011 N   0  0  0  0  0  0  0  0  0  0  0  0
   20.2850  -21.0925  -12.7598 C   0  0  0  0  0  0  0  0  0  0  0  0
   19.2122  -21.5441  -12.0136 O   0  0  0  0  0  0  0  0  0  0  0  0
   20.6447  -21.8310  -13.7114 O   0  0  0  0  0  0  0  0  0  0  0  0
  2  1  1  0
  3  2  2  0
  4  3  1  0
  5 11  1  0
  5  4  2  0
  6  5  1  0
  7  6  1  0
  7  8  1  6
  9  7  1  0
  9 10  2  0
 11 12  2  0
 12  2  1  0
 13  9  1  0
 14 13  1  0
 14 15  1  6
 16 15  1  0
 16 17  1  0
 17 21  1  0
 17 18  2  0
 19 14  1  0
 20 19  2  0
 23 22  1  0
 23 25  1  0
 24 23  2  0
 26 25  1  0
 27 26  1  6
 27 28  1  0
 28 19  1  0
 29 27  1  0
 29 30  1  0
 31 29  2  0
M  END
$$$$
