YEQ.pdb
     RDKit          3D

 31 31  0  0  1  0  0  0  0  0999 V2000
   20.0071   -9.2800  -13.0876 O   0  0  0  0  0  0  0  0  0  0  0  0
   21.0532   -9.4852  -13.9901 C   0  0  0  0  0  0  0  0  0  0  0  0
   22.3169   -9.0785  -13.6182 C   0  0  0  0  0  0  0  0  0  0  0  0
   23.3799   -9.2726  -14.5032 C   0  0  0  0  0  0  0  0  0  0  0  0
   23.2020   -9.8575  -15.7340 C   0  0  0  0  0  0  0  0  0  0  0  0
   24.3353  -10.0442  -16.6328 C   0  0  0  0  0  0  0  0  0  0  0  0
   24.8688   -8.7614  -17.2176 C   0  0  2  0  0  0  0  0  0  0  0  0
   23.7832   -8.1839  -18.0114 N   0  0  0  0  0  0  0  0  0  0  0  0
   25.9939   -9.1203  -18.1193 C   0  0  0  0  0  0  0  0  0  0  0  0
   25.7626   -9.3623  -19.3281 O   0  0  0  0  0  0  0  0  0  0  0  0
   21.9306  -10.2545  -16.0811 C   0  0  0  0  0  0  0  0  0  0  0  0
   20.8546  -10.0689  -15.2097 C   0  0  0  0  0  0  0  0  0  0  0  0
   27.3323   -9.1974  -17.6484 N   0  0  0  0  0  0  0  0  0  0  0  0
   28.4495   -9.5570  -18.5606 C   0  0  1  0  0  0  0  0  0  0  0  0
   29.6468   -8.8914  -17.9285 C   0  0  0  0  0  0  0  0  0  0  0  0
   30.9659   -9.2379  -18.5110 C   0  0  0  0  0  0  0  0  0  0  0  0
   32.0687   -8.4521  -17.8292 C   0  0  0  0  0  0  0  0  0  0  0  0
   31.8005   -7.6698  -16.8875 O   0  0  0  0  0  0  0  0  0  0  0  0
   28.5358  -11.0125  -18.5748 C   0  0  0  0  0  0  0  0  0  0  0  0
   28.1192  -11.6815  -17.5852 O   0  0  0  0  0  0  0  0  0  0  0  0
   33.3869   -8.5748  -18.2224 O   0  0  0  0  0  0  0  0  0  0  0  0
   25.2436  -14.5029  -18.5760 N   0  0  0  0  0  0  0  0  0  0  0  0
   25.4708  -14.9089  -19.9138 C   0  0  0  0  0  0  0  0  0  0  0  0
   24.8685  -15.9087  -20.3901 O   0  0  0  0  0  0  0  0  0  0  0  0
   26.4096  -14.1723  -20.7856 C   0  0  0  0  0  0  0  0  0  0  0  0
   27.0562  -12.9851  -20.1744 C   0  0  0  0  0  0  0  0  0  0  0  0
   28.5266  -13.0405  -20.1086 C   0  0  2  0  0  0  0  0  0  0  0  0
   29.0647  -11.7456  -19.6541 N   0  0  0  0  0  0  0  0  0  0  0  0
   29.3040  -13.5082  -21.2264 C   0  0  0  0  0  0  0  0  0  0  0  0
   30.0357  -12.6600  -22.0367 O   0  0  0  0  0  0  0  0  0  0  0  0
   29.3451  -14.7285  -21.5257 O   0  0  0  0  0  0  0  0  0  0  0  0
  2  1  1  0
  3  2  2  0
  4  3  1  0
  5 11  1  0
  5  4  2  0
  6  5  1  0
  7  6  1  0
  7  8  1  6
  9  7  1  0
  9 10  2  0
 11 12  2  0
 12  2  1  0
 13  9  1  0
 14 13  1  0
 14 15  1  1
 16 15  1  0
 16 17  1  0
 17 21  1  0
 17 18  2  0
 19 14  1  0
 20 19  2  0
 23 22  1  0
 23 25  1  0
 24 23  2  0
 26 25  1  0
 27 26  1  6
 27 28  1  0
 28 19  1  0
 29 27  1  0
 29 30  1  0
 31 29  2  0
M  END
$$$$
