YEQ.pdb
     RDKit          3D

 31 31  0  0  1  0  0  0  0  0999 V2000
   21.2576  -10.0399    5.9002 O   0  0  0  0  0  0  0  0  0  0  0  0
   20.8302  -11.3085    6.2992 C   0  0  0  0  0  0  0  0  0  0  0  0
   19.8091  -11.9003    5.5866 C   0  0  0  0  0  0  0  0  0  0  0  0
   19.3637  -13.1687    5.9657 C   0  0  0  0  0  0  0  0  0  0  0  0
   19.9143  -13.8434    7.0288 C   0  0  0  0  0  0  0  0  0  0  0  0
   19.4238  -15.1668    7.3965 C   0  0  0  0  0  0  0  0  0  0  0  0
   17.9313  -15.2306    7.5980 C   0  0  2  0  0  0  0  0  0  0  0  0
   17.6177  -14.2942    8.6782 N   0  0  0  0  0  0  0  0  0  0  0  0
   17.6029  -16.6108    8.0394 C   0  0  0  0  0  0  0  0  0  0  0  0
   17.4495  -16.8476    9.2615 O   0  0  0  0  0  0  0  0  0  0  0  0
   20.9322  -13.2305    7.7236 C   0  0  0  0  0  0  0  0  0  0  0  0
   21.3915  -11.9623    7.3598 C   0  0  0  0  0  0  0  0  0  0  0  0
   17.4569  -17.6764    7.1108 N   0  0  0  0  0  0  0  0  0  0  0  0
   17.1528  -19.0581    7.5668 C   0  0  1  0  0  0  0  0  0  0  0  0
   16.5103  -19.6930    6.3583 C   0  0  0  0  0  0  0  0  0  0  0  0
   15.0560  -19.4533    6.1942 C   0  0  0  0  0  0  0  0  0  0  0  0
   14.5336  -20.1835    4.9726 C   0  0  0  0  0  0  0  0  0  0  0  0
   15.3081  -20.8677    4.2636 O   0  0  0  0  0  0  0  0  0  0  0  0
   18.4216  -19.6728    7.9387 C   0  0  0  0  0  0  0  0  0  0  0  0
   19.4951  -19.2927    7.3878 O   0  0  0  0  0  0  0  0  0  0  0  0
   13.2027  -20.1163    4.6099 O   0  0  0  0  0  0  0  0  0  0  0  0
   21.5690  -19.1013   12.6430 N   0  0  0  0  0  0  0  0  0  0  0  0
   22.2211  -20.2524   12.1372 C   0  0  0  0  0  0  0  0  0  0  0  0
   23.3162  -20.6358   12.6299 O   0  0  0  0  0  0  0  0  0  0  0  0
   21.6361  -21.0354   11.0287 C   0  0  0  0  0  0  0  0  0  0  0  0
   20.3564  -20.5194   10.4837 C   0  0  0  0  0  0  0  0  0  0  0  0
   19.8178  -21.2722    9.3380 C   0  0  2  0  0  0  0  0  0  0  0  0
   18.5344  -20.6904    8.9049 N   0  0  0  0  0  0  0  0  0  0  0  0
   19.6951  -22.7059    9.3815 C   0  0  0  0  0  0  0  0  0  0  0  0
   20.7314  -23.5566    9.0438 O   0  0  0  0  0  0  0  0  0  0  0  0
   18.6189  -23.2571    9.7256 O   0  0  0  0  0  0  0  0  0  0  0  0
  2  1  1  0
  3  2  2  0
  4  3  1  0
  5 11  1  0
  5  4  2  0
  6  5  1  0
  7  6  1  0
  7  8  1  1
  9  7  1  0
  9 10  2  0
 11 12  2  0
 12  2  1  0
 13  9  1  0
 14 13  1  0
 14 15  1  6
 16 15  1  0
 16 17  1  0
 17 21  1  0
 17 18  2  0
 19 14  1  0
 20 19  2  0
 23 22  1  0
 23 25  1  0
 24 23  2  0
 26 25  1  0
 27 26  1  1
 27 28  1  0
 28 19  1  0
 29 27  1  0
 29 30  1  0
 31 29  2  0
M  END
$$$$
