YEQ.pdb
     RDKit          3D

 31 31  0  0  1  0  0  0  0  0999 V2000
   19.7132  -15.1728  -20.6630 O   0  0  0  0  0  0  0  0  0  0  0  0
   20.4073  -16.0358  -19.8118 C   0  0  0  0  0  0  0  0  0  0  0  0
   20.1419  -17.3856  -19.9031 C   0  0  0  0  0  0  0  0  0  0  0  0
   20.8230  -18.2692  -19.0628 C   0  0  0  0  0  0  0  0  0  0  0  0
   21.7501  -17.8315  -18.1477 C   0  0  0  0  0  0  0  0  0  0  0  0
   22.4423  -18.7831  -17.2860 C   0  0  0  0  0  0  0  0  0  0  0  0
   23.6311  -19.4434  -17.9365 C   0  0  2  0  0  0  0  0  0  0  0  0
   23.0982  -20.4886  -18.8114 N   0  0  0  0  0  0  0  0  0  0  0  0
   24.4329  -20.0743  -16.8564 C   0  0  0  0  0  0  0  0  0  0  0  0
   24.1320  -21.2242  -16.4560 O   0  0  0  0  0  0  0  0  0  0  0  0
   21.9967  -16.4792  -18.0766 C   0  0  0  0  0  0  0  0  0  0  0  0
   21.3257  -15.5796  -18.9085 C   0  0  0  0  0  0  0  0  0  0  0  0
   25.5376  -19.4080  -16.2607 N   0  0  0  0  0  0  0  0  0  0  0  0
   26.3450  -20.0582  -15.1953 C   0  0  1  0  0  0  0  0  0  0  0  0
   27.6511  -19.3040  -15.2353 C   0  0  0  0  0  0  0  0  0  0  0  0
   28.7052  -19.8756  -16.1079 C   0  0  0  0  0  0  0  0  0  0  0  0
   28.3281  -21.2775  -16.5448 C   0  0  0  0  0  0  0  0  0  0  0  0
   27.8177  -21.4745  -17.6723 O   0  0  0  0  0  0  0  0  0  0  0  0
   25.6154  -19.8878  -13.9444 C   0  0  0  0  0  0  0  0  0  0  0  0
   24.7609  -18.9619  -13.8305 O   0  0  0  0  0  0  0  0  0  0  0  0
   28.5343  -22.3666  -15.7209 O   0  0  0  0  0  0  0  0  0  0  0  0
   21.3691  -19.1345  -12.2293 N   0  0  0  0  0  0  0  0  0  0  0  0
   21.3924  -20.1347  -11.2268 C   0  0  0  0  0  0  0  0  0  0  0  0
   20.5389  -20.1309  -10.2991 O   0  0  0  0  0  0  0  0  0  0  0  0
   22.4079  -21.2083  -11.2437 C   0  0  0  0  0  0  0  0  0  0  0  0
   23.4766  -21.0650  -12.2627 C   0  0  0  0  0  0  0  0  0  0  0  0
   24.8278  -20.8390  -11.7217 C   0  0  2  0  0  0  0  0  0  0  0  0
   25.8021  -20.7157  -12.8212 N   0  0  0  0  0  0  0  0  0  0  0  0
   25.3735  -21.6959  -10.7017 C   0  0  0  0  0  0  0  0  0  0  0  0
   25.4033  -21.3438   -9.3650 O   0  0  0  0  0  0  0  0  0  0  0  0
   25.8638  -22.8177  -10.9876 O   0  0  0  0  0  0  0  0  0  0  0  0
  2  1  1  0
  3  2  2  0
  4  3  1  0
  5 11  1  0
  5  4  2  0
  6  5  1  0
  7  6  1  0
  7  8  1  6
  9  7  1  0
  9 10  2  0
 11 12  2  0
 12  2  1  0
 13  9  1  0
 14 13  1  0
 14 15  1  1
 16 15  1  0
 16 17  1  0
 17 21  1  0
 17 18  2  0
 19 14  1  0
 20 19  2  0
 23 22  1  0
 23 25  1  0
 24 23  2  0
 26 25  1  0
 27 26  1  6
 27 28  1  0
 28 19  1  0
 29 27  1  0
 29 30  1  0
 31 29  2  0
M  END
$$$$
