YEQ.pdb
     RDKit          3D

 31 31  0  0  1  0  0  0  0  0999 V2000
   31.8157  -25.8283  -18.1689 O   0  0  0  0  0  0  0  0  0  0  0  0
   30.7700  -24.9738  -17.8120 C   0  0  0  0  0  0  0  0  0  0  0  0
   29.9792  -25.3323  -16.7411 C   0  0  0  0  0  0  0  0  0  0  0  0
   28.9270  -24.4946  -16.3644 C   0  0  0  0  0  0  0  0  0  0  0  0
   28.6575  -23.3233  -17.0308 C   0  0  0  0  0  0  0  0  0  0  0  0
   27.5500  -22.4729  -16.6096 C   0  0  0  0  0  0  0  0  0  0  0  0
   27.9817  -21.1467  -16.0378 C   0  0  2  0  0  0  0  0  0  0  0  0
   28.7939  -21.4477  -14.8581 N   0  0  0  0  0  0  0  0  0  0  0  0
   26.7533  -20.4271  -15.6126 C   0  0  0  0  0  0  0  0  0  0  0  0
   26.2929  -20.6192  -14.4619 O   0  0  0  0  0  0  0  0  0  0  0  0
   29.4619  -22.9885  -18.0964 C   0  0  0  0  0  0  0  0  0  0  0  0
   30.5191  -23.8132  -18.4884 C   0  0  0  0  0  0  0  0  0  0  0  0
   26.0814  -19.5220  -16.4778 N   0  0  0  0  0  0  0  0  0  0  0  0
   24.8633  -18.7946  -16.0346 C   0  0  1  0  0  0  0  0  0  0  0  0
   24.6985  -17.7175  -17.0782 C   0  0  0  0  0  0  0  0  0  0  0  0
   23.4961  -16.8600  -16.9429 C   0  0  0  0  0  0  0  0  0  0  0  0
   23.4785  -15.7984  -18.0251 C   0  0  0  0  0  0  0  0  0  0  0  0
   24.3435  -15.8031  -18.9320 O   0  0  0  0  0  0  0  0  0  0  0  0
   23.7713  -19.7608  -16.0215 C   0  0  0  0  0  0  0  0  0  0  0  0
   23.9028  -20.8732  -16.6096 O   0  0  0  0  0  0  0  0  0  0  0  0
   22.5185  -14.8057  -18.0422 O   0  0  0  0  0  0  0  0  0  0  0  0
   24.3837  -23.1561  -12.3180 N   0  0  0  0  0  0  0  0  0  0  0  0
   23.2406  -23.6960  -12.9565 C   0  0  0  0  0  0  0  0  0  0  0  0
   22.9710  -24.9233  -12.8556 O   0  0  0  0  0  0  0  0  0  0  0  0
   22.3335  -22.8395  -13.7488 C   0  0  0  0  0  0  0  0  0  0  0  0
   22.7394  -21.4180  -13.8743 C   0  0  0  0  0  0  0  0  0  0  0  0
   21.8032  -20.5663  -14.6277 C   0  0  2  0  0  0  0  0  0  0  0  0
   22.5433  -19.5316  -15.3725 N   0  0  0  0  0  0  0  0  0  0  0  0
   20.6656  -19.9620  -13.9848 C   0  0  0  0  0  0  0  0  0  0  0  0
   19.4640  -20.6238  -13.8121 O   0  0  0  0  0  0  0  0  0  0  0  0
   20.7125  -18.7823  -13.5528 O   0  0  0  0  0  0  0  0  0  0  0  0
  2  1  1  0
  3  2  2  0
  4  3  1  0
  5 11  1  0
  5  4  2  0
  6  5  1  0
  7  6  1  0
  7  8  1  1
  9  7  1  0
  9 10  2  0
 11 12  2  0
 12  2  1  0
 13  9  1  0
 14 13  1  0
 14 15  1  6
 16 15  1  0
 16 17  1  0
 17 21  1  0
 17 18  2  0
 19 14  1  0
 20 19  2  0
 23 22  1  0
 23 25  1  0
 24 23  2  0
 26 25  1  0
 27 26  1  1
 27 28  1  0
 28 19  1  0
 29 27  1  0
 29 30  1  0
 31 29  2  0
M  END
$$$$
