YEQ.pdb
     RDKit          3D

 31 31  0  0  1  0  0  0  0  0999 V2000
   31.9200  -22.5564  -10.3598 O   0  0  0  0  0  0  0  0  0  0  0  0
   30.7587  -21.9651  -10.8627 C   0  0  0  0  0  0  0  0  0  0  0  0
   30.7083  -21.6844  -12.2116 C   0  0  0  0  0  0  0  0  0  0  0  0
   29.5581  -21.0931  -12.7389 C   0  0  0  0  0  0  0  0  0  0  0  0
   28.4752  -20.7831  -11.9515 C   0  0  0  0  0  0  0  0  0  0  0  0
   27.2904  -20.1657  -12.5364 C   0  0  0  0  0  0  0  0  0  0  0  0
   27.5058  -19.6282  -13.9282 C   0  0  2  0  0  0  0  0  0  0  0  0
   28.5609  -18.6193  -13.8249 N   0  0  0  0  0  0  0  0  0  0  0  0
   26.2420  -18.9700  -14.3489 C   0  0  0  0  0  0  0  0  0  0  0  0
   25.9268  -17.8634  -13.8496 O   0  0  0  0  0  0  0  0  0  0  0  0
   28.5511  -21.0735  -10.6082 C   0  0  0  0  0  0  0  0  0  0  0  0
   29.6928  -21.6649  -10.0620 C   0  0  0  0  0  0  0  0  0  0  0  0
   25.3752  -19.5620  -15.3067 N   0  0  0  0  0  0  0  0  0  0  0  0
   24.1265  -18.8812  -15.7390 C   0  0  1  0  0  0  0  0  0  0  0  0
   24.3010  -18.7424  -17.2312 C   0  0  0  0  0  0  0  0  0  0  0  0
   25.6447  -18.3158  -17.6914 C   0  0  0  0  0  0  0  0  0  0  0  0
   25.6401  -18.0759  -19.1884 C   0  0  0  0  0  0  0  0  0  0  0  0
   24.5833  -18.2098  -19.8486 O   0  0  0  0  0  0  0  0  0  0  0  0
   23.0165  -19.7490  -15.3635 C   0  0  0  0  0  0  0  0  0  0  0  0
   23.2428  -20.8597  -14.8018 O   0  0  0  0  0  0  0  0  0  0  0  0
   26.7888  -17.7067  -19.8604 O   0  0  0  0  0  0  0  0  0  0  0  0
   21.3009  -21.4416  -11.5882 N   0  0  0  0  0  0  0  0  0  0  0  0
   20.2547  -20.5217  -11.3331 C   0  0  0  0  0  0  0  0  0  0  0  0
   19.4467  -20.7181  -10.3856 O   0  0  0  0  0  0  0  0  0  0  0  0
   20.0857  -19.3096  -12.1616 C   0  0  0  0  0  0  0  0  0  0  0  0
   21.0655  -19.1432  -13.2631 C   0  0  0  0  0  0  0  0  0  0  0  0
   20.6007  -19.5969  -14.5850 C   0  0  2  0  0  0  0  0  0  0  0  0
   21.6665  -19.4190  -15.5878 N   0  0  0  0  0  0  0  0  0  0  0  0
   19.3537  -19.1327  -15.1345 C   0  0  0  0  0  0  0  0  0  0  0  0
   19.2512  -17.9781  -15.8883 O   0  0  0  0  0  0  0  0  0  0  0  0
   18.2828  -19.7626  -14.9422 O   0  0  0  0  0  0  0  0  0  0  0  0
  2  1  1  0
  3  2  2  0
  4  3  1  0
  5 11  1  0
  5  4  2  0
  6  5  1  0
  7  6  1  0
  7  8  1  1
  9  7  1  0
  9 10  2  0
 11 12  2  0
 12  2  1  0
 13  9  1  0
 14 13  1  0
 14 15  1  6
 16 15  1  0
 16 17  1  0
 17 21  1  0
 17 18  2  0
 19 14  1  0
 20 19  2  0
 23 22  1  0
 23 25  1  0
 24 23  2  0
 26 25  1  0
 27 26  1  1
 27 28  1  0
 28 19  1  0
 29 27  1  0
 29 30  1  0
 31 29  2  0
M  END
$$$$
