YEQ.pdb
     RDKit          3D

 31 31  0  0  1  0  0  0  0  0999 V2000
    9.3939  -13.3499   -0.4169 O   0  0  0  0  0  0  0  0  0  0  0  0
    9.9795  -14.3898    0.3088 C   0  0  0  0  0  0  0  0  0  0  0  0
   10.4840  -14.1015    1.5590 C   0  0  0  0  0  0  0  0  0  0  0  0
   11.0746  -15.1243    2.3046 C   0  0  0  0  0  0  0  0  0  0  0  0
   11.1671  -16.4097    1.8276 C   0  0  0  0  0  0  0  0  0  0  0  0
   11.7908  -17.4528    2.6339 C   0  0  0  0  0  0  0  0  0  0  0  0
   11.2741  -18.8390    2.3448 C   0  0  2  0  0  0  0  0  0  0  0  0
    9.8733  -18.8568    2.7681 N   0  0  0  0  0  0  0  0  0  0  0  0
   12.0497  -19.7852    3.1879 C   0  0  0  0  0  0  0  0  0  0  0  0
   11.7285  -19.9465    4.3896 O   0  0  0  0  0  0  0  0  0  0  0  0
   10.6558  -16.6712    0.5766 C   0  0  0  0  0  0  0  0  0  0  0  0
   10.0613  -15.6617   -0.1844 C   0  0  0  0  0  0  0  0  0  0  0  0
   13.1515  -20.5169    2.6684 N   0  0  0  0  0  0  0  0  0  0  0  0
   13.8501  -21.5414    3.4882 C   0  0  1  0  0  0  0  0  0  0  0  0
   14.3896  -22.5051    2.4604 C   0  0  0  0  0  0  0  0  0  0  0  0
   15.2206  -23.6160    2.9844 C   0  0  0  0  0  0  0  0  0  0  0  0
   15.7221  -24.4841    1.8470 C   0  0  0  0  0  0  0  0  0  0  0  0
   15.5341  -24.1402    0.6566 O   0  0  0  0  0  0  0  0  0  0  0  0
   14.8923  -20.8492    4.2371 C   0  0  0  0  0  0  0  0  0  0  0  0
   15.5416  -19.9076    3.6965 O   0  0  0  0  0  0  0  0  0  0  0  0
   16.3935  -25.6667    2.0880 O   0  0  0  0  0  0  0  0  0  0  0  0
   14.4216  -17.2258    8.6471 N   0  0  0  0  0  0  0  0  0  0  0  0
   15.7935  -17.5281    8.8275 C   0  0  0  0  0  0  0  0  0  0  0  0
   16.4869  -16.8827    9.6592 O   0  0  0  0  0  0  0  0  0  0  0  0
   16.4451  -18.6064    8.0550 C   0  0  0  0  0  0  0  0  0  0  0  0
   15.5708  -19.3301    7.0995 C   0  0  0  0  0  0  0  0  0  0  0  0
   16.2252  -20.4230    6.3601 C   0  0  2  0  0  0  0  0  0  0  0  0
   15.2307  -21.1671    5.5662 N   0  0  0  0  0  0  0  0  0  0  0  0
   17.0912  -21.3589    7.0284 C   0  0  0  0  0  0  0  0  0  0  0  0
   18.3143  -20.9975    7.5623 O   0  0  0  0  0  0  0  0  0  0  0  0
   16.7722  -22.5688    7.1500 O   0  0  0  0  0  0  0  0  0  0  0  0
  2  1  1  0
  3  2  2  0
  4  3  1  0
  5 11  1  0
  5  4  2  0
  6  5  1  0
  7  6  1  0
  7  8  1  1
  9  7  1  0
  9 10  2  0
 11 12  2  0
 12  2  1  0
 13  9  1  0
 14 13  1  0
 14 15  1  6
 16 15  1  0
 16 17  1  0
 17 21  1  0
 17 18  2  0
 19 14  1  0
 20 19  2  0
 23 22  1  0
 23 25  1  0
 24 23  2  0
 26 25  1  0
 27 26  1  1
 27 28  1  0
 28 19  1  0
 29 27  1  0
 29 30  1  0
 31 29  2  0
M  END
$$$$
