YEQ.pdb
     RDKit          3D

 31 31  0  0  1  0  0  0  0  0999 V2000
   26.3447  -20.0213   -8.1647 O   0  0  0  0  0  0  0  0  0  0  0  0
   26.3169  -20.5264   -9.4666 C   0  0  0  0  0  0  0  0  0  0  0  0
   25.1003  -20.9220   -9.9806 C   0  0  0  0  0  0  0  0  0  0  0  0
   25.0460  -21.4305  -11.2803 C   0  0  0  0  0  0  0  0  0  0  0  0
   26.1707  -21.5478  -12.0613 C   0  0  0  0  0  0  0  0  0  0  0  0
   26.0765  -22.0836  -13.4146 C   0  0  0  0  0  0  0  0  0  0  0  0
   25.7505  -21.0478  -14.4601 C   0  0  2  0  0  0  0  0  0  0  0  0
   26.7757  -20.0092  -14.3495 N   0  0  0  0  0  0  0  0  0  0  0  0
   24.4287  -20.4666  -14.1103 C   0  0  0  0  0  0  0  0  0  0  0  0
   24.3275  -19.2299  -13.9272 O   0  0  0  0  0  0  0  0  0  0  0  0
   27.3727  -21.1458  -11.5246 C   0  0  0  0  0  0  0  0  0  0  0  0
   27.4475  -20.6346  -10.2267 C   0  0  0  0  0  0  0  0  0  0  0  0
   23.2690  -21.2768  -13.9764 N   0  0  0  0  0  0  0  0  0  0  0  0
   21.9300  -20.6723  -13.7500 C   0  0  1  0  0  0  0  0  0  0  0  0
   21.6435  -19.9579  -15.0476 C   0  0  0  0  0  0  0  0  0  0  0  0
   20.2863  -19.3756  -15.1830 C   0  0  0  0  0  0  0  0  0  0  0  0
   20.3195  -18.1607  -16.0892 C   0  0  0  0  0  0  0  0  0  0  0  0
   20.6472  -18.2766  -17.2933 O   0  0  0  0  0  0  0  0  0  0  0  0
   21.0086  -21.7688  -13.4765 C   0  0  0  0  0  0  0  0  0  0  0  0
   21.1022  -22.8515  -14.1242 O   0  0  0  0  0  0  0  0  0  0  0  0
   19.9927  -16.9041  -15.6184 O   0  0  0  0  0  0  0  0  0  0  0  0
   18.9555  -23.2700   -7.7953 N   0  0  0  0  0  0  0  0  0  0  0  0
   18.4079  -24.2789   -8.6250 C   0  0  0  0  0  0  0  0  0  0  0  0
   17.8752  -25.3036   -8.1198 O   0  0  0  0  0  0  0  0  0  0  0  0
   18.4398  -24.1562  -10.0974 C   0  0  0  0  0  0  0  0  0  0  0  0
   19.1261  -22.9520  -10.6265 C   0  0  0  0  0  0  0  0  0  0  0  0
   19.1699  -22.8541  -12.0955 C   0  0  2  0  0  0  0  0  0  0  0  0
   19.9925  -21.7011  -12.5044 N   0  0  0  0  0  0  0  0  0  0  0  0
   17.9620  -22.8731  -12.8785 C   0  0  0  0  0  0  0  0  0  0  0  0
   17.3966  -24.0416  -13.3546 O   0  0  0  0  0  0  0  0  0  0  0  0
   17.3626  -21.8091  -13.1768 O   0  0  0  0  0  0  0  0  0  0  0  0
  2  1  1  0
  3  2  2  0
  4  3  1  0
  5 11  1  0
  5  4  2  0
  6  5  1  0
  7  6  1  0
  7  8  1  1
  9  7  1  0
  9 10  2  0
 11 12  2  0
 12  2  1  0
 13  9  1  0
 14 13  1  0
 14 15  1  6
 16 15  1  0
 16 17  1  0
 17 21  1  0
 17 18  2  0
 19 14  1  0
 20 19  2  0
 23 22  1  0
 23 25  1  0
 24 23  2  0
 26 25  1  0
 27 26  1  1
 27 28  1  0
 28 19  1  0
 29 27  1  0
 29 30  1  0
 31 29  2  0
M  END
$$$$
