GMG.pdb
     RDKit          3D

 17 16  0  0  1  0  0  0  0  0999 V2000
   31.6581  -22.3793  -10.4270 N   0  0  0  0  0  0  0  0  0  0  0  0
   30.8620  -21.1667  -10.4654 C   0  0  0  0  0  0  0  0  0  0  0  0
   29.6420  -21.4104   -9.6694 C   0  0  0  0  0  0  0  0  0  0  0  0
   29.3173  -22.5844   -9.2817 O   0  0  0  0  0  0  0  0  0  0  0  0
   27.0345  -20.0173   -3.8524 C   0  0  0  0  0  0  0  0  0  0  0  0
   28.4361  -19.3769   -4.7958 S   0  0  0  0  0  0  0  0  0  0  0  0
   28.5649  -20.2096   -6.3956 C   0  0  0  0  0  0  0  0  0  0  0  0
   27.3731  -19.9347   -7.2770 C   0  0  0  0  0  0  0  0  0  0  0  0
   27.5065  -20.6797   -8.5912 C   0  0  2  0  0  0  0  0  0  0  0  0
   28.7438  -20.3763   -9.2761 N   0  0  0  0  0  0  0  0  0  0  0  0
   26.3945  -20.3606   -9.5164 C   0  0  0  0  0  0  0  0  0  0  0  0
   26.2903  -19.1973   -9.9755 O   0  0  0  0  0  0  0  0  0  0  0  0
   25.4347  -21.3373   -9.9035 N   0  0  0  0  0  0  0  0  0  0  0  0
   24.5753  -21.0422  -11.0233 C   0  0  0  0  0  0  0  0  0  0  0  0
   23.1663  -20.8486  -10.5962 C   0  0  0  0  0  0  0  0  0  0  0  0
   22.8867  -20.8896   -9.3689 O   0  0  0  0  0  0  0  0  0  0  0  0
   22.1900  -20.6281  -11.5437 O   0  0  0  0  0  0  0  0  0  0  0  0
  2  1  1  0
  2  3  1  0
  3  4  2  0
  6  5  1  0
  7  6  1  0
  8  7  1  0
  9  8  1  1
 10  3  1  0
 10  9  1  0
 11  9  1  0
 11 12  2  0
 13 11  1  0
 14 13  1  0
 14 15  1  0
 15 16  2  0
 15 17  1  0
M  END
$$$$
