GMG.pdb
     RDKit          3D

 17 16  0  0  1  0  0  0  0  0999 V2000
   21.6379  -20.4089   -9.1051 N   0  0  0  0  0  0  0  0  0  0  0  0
   22.6197  -21.3171   -9.6678 C   0  0  0  0  0  0  0  0  0  0  0  0
   23.8858  -20.5701   -9.8108 C   0  0  0  0  0  0  0  0  0  0  0  0
   23.9889  -19.5692  -10.5993 O   0  0  0  0  0  0  0  0  0  0  0  0
   27.5686  -19.0856   -4.2452 C   0  0  0  0  0  0  0  0  0  0  0  0
   28.1485  -19.9149   -5.7419 S   0  0  0  0  0  0  0  0  0  0  0  0
   26.9385  -19.7494   -7.0752 C   0  0  0  0  0  0  0  0  0  0  0  0
   27.3748  -20.4614   -8.3303 C   0  0  0  0  0  0  0  0  0  0  0  0
   26.3404  -20.2820   -9.4248 C   0  0  2  0  0  0  0  0  0  0  0  0
   25.0739  -20.8979   -9.0954 N   0  0  0  0  0  0  0  0  0  0  0  0
   26.7972  -20.8606  -10.7097 C   0  0  0  0  0  0  0  0  0  0  0  0
   26.7514  -22.1036  -10.8758 O   0  0  0  0  0  0  0  0  0  0  0  0
   27.2894  -20.0467  -11.7681 N   0  0  0  0  0  0  0  0  0  0  0  0
   27.8681  -20.6986  -12.9168 C   0  0  0  0  0  0  0  0  0  0  0  0
   26.8705  -20.8856  -14.0008 C   0  0  0  0  0  0  0  0  0  0  0  0
   25.9408  -20.0459  -14.1297 O   0  0  0  0  0  0  0  0  0  0  0  0
   26.9756  -21.9695  -14.8456 O   0  0  0  0  0  0  0  0  0  0  0  0
  2  1  1  0
  2  3  1  0
  3  4  2  0
  6  5  1  0
  7  6  1  0
  8  7  1  0
  9  8  1  1
 10  3  1  0
 10  9  1  0
 11  9  1  0
 11 12  2  0
 13 11  1  0
 14 13  1  0
 14 15  1  0
 15 16  2  0
 15 17  1  0
M  END
$$$$
