GMG.pdb
     RDKit          3D

 17 16  0  0  1  0  0  0  0  0999 V2000
   28.2596  -18.9934  -15.9423 N   0  0  0  0  0  0  0  0  0  0  0  0
   27.0466  -18.5199  -15.3020 C   0  0  0  0  0  0  0  0  0  0  0  0
   26.2794  -19.7060  -14.8706 C   0  0  0  0  0  0  0  0  0  0  0  0
   26.3801  -20.8270  -15.4767 O   0  0  0  0  0  0  0  0  0  0  0  0
   25.2529  -20.4187   -8.9986 C   0  0  0  0  0  0  0  0  0  0  0  0
   26.7306  -20.9733   -9.8779 S   0  0  0  0  0  0  0  0  0  0  0  0
   26.3340  -21.4026  -11.5890 C   0  0  0  0  0  0  0  0  0  0  0  0
   24.8694  -21.2201  -11.8959 C   0  0  0  0  0  0  0  0  0  0  0  0
   24.6750  -20.8954  -13.3646 C   0  0  2  0  0  0  0  0  0  0  0  0
   25.3809  -19.6980  -13.7646 N   0  0  0  0  0  0  0  0  0  0  0  0
   23.2446  -20.7025  -13.6978 C   0  0  0  0  0  0  0  0  0  0  0  0
   22.7218  -19.5732  -13.5357 O   0  0  0  0  0  0  0  0  0  0  0  0
   22.4395  -21.7635  -14.1987 N   0  0  0  0  0  0  0  0  0  0  0  0
   21.0483  -21.4954  -14.4672 C   0  0  0  0  0  0  0  0  0  0  0  0
   20.2160  -21.6461  -13.2467 C   0  0  0  0  0  0  0  0  0  0  0  0
   20.7328  -22.1392  -12.2094 O   0  0  0  0  0  0  0  0  0  0  0  0
   18.8972  -21.2464  -13.2662 O   0  0  0  0  0  0  0  0  0  0  0  0
  2  1  1  0
  2  3  1  0
  3  4  2  0
  6  5  1  0
  7  6  1  0
  8  7  1  0
  9  8  1  1
 10  3  1  0
 10  9  1  0
 11  9  1  0
 11 12  2  0
 13 11  1  0
 14 13  1  0
 14 15  1  0
 15 16  2  0
 15 17  1  0
M  END
$$$$
