GMG.pdb
     RDKit          3D

 17 16  0  0  1  0  0  0  0  0999 V2000
   27.2781  -21.7870  -14.5230 N   0  0  0  0  0  0  0  0  0  0  0  0
   27.4616  -20.7392  -13.5361 C   0  0  0  0  0  0  0  0  0  0  0  0
   26.7562  -21.1570  -12.3076 C   0  0  0  0  0  0  0  0  0  0  0  0
   25.8164  -22.0232  -12.3353 O   0  0  0  0  0  0  0  0  0  0  0  0
   27.7869  -19.0771   -5.9015 C   0  0  0  0  0  0  0  0  0  0  0  0
   26.5625  -20.4036   -5.8300 S   0  0  0  0  0  0  0  0  0  0  0  0
   25.8026  -20.6614   -7.4504 C   0  0  0  0  0  0  0  0  0  0  0  0
   26.7727  -20.4180   -8.5783 C   0  0  0  0  0  0  0  0  0  0  0  0
   26.1558  -20.8273   -9.9018 C   0  0  2  0  0  0  0  0  0  0  0  0
   27.0592  -20.6383  -11.0154 N   0  0  0  0  0  0  0  0  0  0  0  0
   24.9230  -20.0589  -10.1920 C   0  0  0  0  0  0  0  0  0  0  0  0
   25.0015  -18.8229  -10.3944 O   0  0  0  0  0  0  0  0  0  0  0  0
   23.6447  -20.6816  -10.2486 N   0  0  0  0  0  0  0  0  0  0  0  0
   22.5396  -19.9223  -10.7795 C   0  0  0  0  0  0  0  0  0  0  0  0
   21.2683  -20.6870  -10.7143 C   0  0  0  0  0  0  0  0  0  0  0  0
   21.2966  -21.8938  -10.3554 O   0  0  0  0  0  0  0  0  0  0  0  0
   20.0820  -20.0686  -11.0457 O   0  0  0  0  0  0  0  0  0  0  0  0
  2  1  1  0
  2  3  1  0
  3  4  2  0
  6  5  1  0
  7  6  1  0
  8  7  1  0
  9  8  1  1
 10  3  1  0
 10  9  1  0
 11  9  1  0
 11 12  2  0
 13 11  1  0
 14 13  1  0
 14 15  1  0
 15 16  2  0
 15 17  1  0
M  END
$$$$
