GMG.pdb
     RDKit          3D

 17 16  0  0  1  0  0  0  0  0999 V2000
   20.7848  -21.4568   -7.5023 N   0  0  0  0  0  0  0  0  0  0  0  0
   22.0098  -22.1630   -7.8283 C   0  0  0  0  0  0  0  0  0  0  0  0
   23.0595  -21.1498   -8.0583 C   0  0  0  0  0  0  0  0  0  0  0  0
   22.8100  -20.0500   -8.6605 O   0  0  0  0  0  0  0  0  0  0  0  0
   29.0917  -19.6744   -4.9402 C   0  0  0  0  0  0  0  0  0  0  0  0
   28.2919  -18.4674   -6.0208 S   0  0  0  0  0  0  0  0  0  0  0  0
   27.5886  -19.2781   -7.4760 C   0  0  0  0  0  0  0  0  0  0  0  0
   26.6285  -20.3794   -7.1047 C   0  0  0  0  0  0  0  0  0  0  0  0
   25.4405  -20.3831   -8.0474 C   0  0  2  0  0  0  0  0  0  0  0  0
   24.4109  -21.3121   -7.6363 N   0  0  0  0  0  0  0  0  0  0  0  0
   25.8389  -20.7411   -9.4285 C   0  0  0  0  0  0  0  0  0  0  0  0
   25.9622  -21.9507   -9.7395 O   0  0  0  0  0  0  0  0  0  0  0  0
   26.0879  -19.7510  -10.4198 N   0  0  0  0  0  0  0  0  0  0  0  0
   26.0404  -20.1468  -11.8056 C   0  0  0  0  0  0  0  0  0  0  0  0
   27.3697  -20.5942  -12.2934 C   0  0  0  0  0  0  0  0  0  0  0  0
   28.0360  -21.4064  -11.5988 O   0  0  0  0  0  0  0  0  0  0  0  0
   27.8528  -20.1168  -13.4926 O   0  0  0  0  0  0  0  0  0  0  0  0
  2  1  1  0
  2  3  1  0
  3  4  2  0
  6  5  1  0
  7  6  1  0
  8  7  1  0
  9  8  1  1
 10  3  1  0
 10  9  1  0
 11  9  1  0
 11 12  2  0
 13 11  1  0
 14 13  1  0
 14 15  1  0
 15 16  2  0
 15 17  1  0
M  END
$$$$
