GMG.pdb
     RDKit          3D

 17 16  0  0  1  0  0  0  0  0999 V2000
   29.3225  -26.3625    7.9104 N   0  0  0  0  0  0  0  0  0  0  0  0
   28.6091  -25.1087    8.0670 C   0  0  0  0  0  0  0  0  0  0  0  0
   27.9638  -25.1272    9.3954 C   0  0  0  0  0  0  0  0  0  0  0  0
   27.9902  -26.1663   10.1397 O   0  0  0  0  0  0  0  0  0  0  0  0
   29.9445  -21.2284   11.3239 C   0  0  0  0  0  0  0  0  0  0  0  0
   29.2028  -21.4204   12.9600 S   0  0  0  0  0  0  0  0  0  0  0  0
   28.1100  -22.8603   13.0025 C   0  0  0  0  0  0  0  0  0  0  0  0
   26.9646  -22.7334   12.0307 C   0  0  0  0  0  0  0  0  0  0  0  0
   26.7503  -24.0420   11.2946 C   0  0  2  0  0  0  0  0  0  0  0  0
   27.2716  -24.0098    9.9458 N   0  0  0  0  0  0  0  0  0  0  0  0
   25.3138  -24.3932   11.2095 C   0  0  0  0  0  0  0  0  0  0  0  0
   24.6189  -23.9212   10.2772 O   0  0  0  0  0  0  0  0  0  0  0  0
   24.6928  -25.2540   12.1573 N   0  0  0  0  0  0  0  0  0  0  0  0
   23.2936  -25.5587   11.9874 C   0  0  0  0  0  0  0  0  0  0  0  0
   23.0948  -26.7831   11.1711 C   0  0  0  0  0  0  0  0  0  0  0  0
   24.0827  -27.2910   10.5775 O   0  0  0  0  0  0  0  0  0  0  0  0
   21.8392  -27.3431   11.0750 O   0  0  0  0  0  0  0  0  0  0  0  0
  2  1  1  0
  2  3  1  0
  3  4  2  0
  6  5  1  0
  7  6  1  0
  8  7  1  0
  9  8  1  6
 10  3  1  0
 10  9  1  0
 11  9  1  0
 11 12  2  0
 13 11  1  0
 14 13  1  0
 14 15  1  0
 15 16  2  0
 15 17  1  0
M  END
$$$$
