GMG.pdb
     RDKit          3D

 17 16  0  0  1  0  0  0  0  0999 V2000
   27.2986  -10.5006  -20.8661 N   0  0  0  0  0  0  0  0  0  0  0  0
   26.8429   -9.3441  -20.1176 C   0  0  0  0  0  0  0  0  0  0  0  0
   26.0580   -9.8392  -18.9686 C   0  0  0  0  0  0  0  0  0  0  0  0
   25.0566  -10.6181  -19.1259 O   0  0  0  0  0  0  0  0  0  0  0  0
   28.0808  -14.6813  -15.6595 C   0  0  0  0  0  0  0  0  0  0  0  0
   27.5298  -13.1421  -14.8904 S   0  0  0  0  0  0  0  0  0  0  0  0
   26.6420  -12.1128  -16.0828 C   0  0  0  0  0  0  0  0  0  0  0  0
   26.2710  -10.7692  -15.5085 C   0  0  0  0  0  0  0  0  0  0  0  0
   25.5058   -9.9518  -16.5315 C   0  0  2  0  0  0  0  0  0  0  0  0
   26.3469   -9.4955  -17.6161 N   0  0  0  0  0  0  0  0  0  0  0  0
   24.8793   -8.7571  -15.9196 C   0  0  0  0  0  0  0  0  0  0  0  0
   25.5315   -7.6871  -15.8511 O   0  0  0  0  0  0  0  0  0  0  0  0
   23.5534   -8.7843  -15.4038 N   0  0  0  0  0  0  0  0  0  0  0  0
   23.0065   -7.5638  -14.8645 C   0  0  0  0  0  0  0  0  0  0  0  0
   22.1199   -6.8823  -15.8416 C   0  0  0  0  0  0  0  0  0  0  0  0
   21.9839   -7.3743  -16.9929 O   0  0  0  0  0  0  0  0  0  0  0  0
   21.4622   -5.7274  -15.4766 O   0  0  0  0  0  0  0  0  0  0  0  0
  2  1  1  0
  2  3  1  0
  3  4  2  0
  6  5  1  0
  7  6  1  0
  8  7  1  0
  9  8  1  1
 10  3  1  0
 10  9  1  0
 11  9  1  0
 11 12  2  0
 13 11  1  0
 14 13  1  0
 14 15  1  0
 15 16  2  0
 15 17  1  0
M  END
$$$$
