GMG.pdb
     RDKit          3D

 17 16  0  0  1  0  0  0  0  0999 V2000
   25.6444  -10.6023  -20.6150 N   0  0  0  0  0  0  0  0  0  0  0  0
   24.8967   -9.5160  -20.0095 C   0  0  0  0  0  0  0  0  0  0  0  0
   24.5852   -9.9106  -18.6208 C   0  0  0  0  0  0  0  0  0  0  0  0
   23.8137  -10.8961  -18.3603 O   0  0  0  0  0  0  0  0  0  0  0  0
   28.4086  -13.1642  -15.7668 C   0  0  0  0  0  0  0  0  0  0  0  0
   27.8639  -11.4614  -16.0274 S   0  0  0  0  0  0  0  0  0  0  0  0
   26.4181  -11.0885  -15.0076 C   0  0  0  0  0  0  0  0  0  0  0  0
   25.9369   -9.6729  -15.1997 C   0  0  0  0  0  0  0  0  0  0  0  0
   24.7464   -9.6437  -16.1389 C   0  0  2  0  0  0  0  0  0  0  0  0
   25.1088   -9.2376  -17.4790 N   0  0  0  0  0  0  0  0  0  0  0  0
   23.6947   -8.7165  -15.6607 C   0  0  0  0  0  0  0  0  0  0  0  0
   23.2057   -8.8781  -14.5163 O   0  0  0  0  0  0  0  0  0  0  0  0
   23.2183   -7.6420  -16.4627 N   0  0  0  0  0  0  0  0  0  0  0  0
   22.2604   -6.7323  -15.8844 C   0  0  0  0  0  0  0  0  0  0  0  0
   22.9280   -5.5912  -15.2080 C   0  0  0  0  0  0  0  0  0  0  0  0
   22.2219   -4.6672  -14.7244 O   0  0  0  0  0  0  0  0  0  0  0  0
   24.3029   -5.5597  -15.1196 O   0  0  0  0  0  0  0  0  0  0  0  0
  2  1  1  0
  2  3  1  0
  3  4  2  0
  6  5  1  0
  7  6  1  0
  8  7  1  0
  9  8  1  1
 10  3  1  0
 10  9  1  0
 11  9  1  0
 11 12  2  0
 13 11  1  0
 14 13  1  0
 14 15  1  0
 15 16  2  0
 15 17  1  0
M  END
$$$$
