GMG.pdb
     RDKit          3D

 17 16  0  0  1  0  0  0  0  0999 V2000
   28.7877  -20.8552  -12.8820 N   0  0  0  0  0  0  0  0  0  0  0  0
   27.5729  -21.3814  -13.4761 C   0  0  0  0  0  0  0  0  0  0  0  0
   26.5814  -21.5411  -12.3931 C   0  0  0  0  0  0  0  0  0  0  0  0
   25.7045  -22.4710  -12.4180 O   0  0  0  0  0  0  0  0  0  0  0  0
   28.1267  -18.6137   -6.7880 C   0  0  0  0  0  0  0  0  0  0  0  0
   27.1847  -20.1472   -6.6301 S   0  0  0  0  0  0  0  0  0  0  0  0
   26.8378  -20.8557   -8.2571 C   0  0  0  0  0  0  0  0  0  0  0  0
   25.7554  -20.1014   -8.9865 C   0  0  0  0  0  0  0  0  0  0  0  0
   25.4350  -20.7813  -10.3037 C   0  0  2  0  0  0  0  0  0  0  0  0
   26.5218  -20.6875  -11.2535 N   0  0  0  0  0  0  0  0  0  0  0  0
   24.2325  -20.1978  -10.9425 C   0  0  0  0  0  0  0  0  0  0  0  0
   24.3524  -19.1781  -11.6640 O   0  0  0  0  0  0  0  0  0  0  0  0
   22.9378  -20.7603  -10.7628 N   0  0  0  0  0  0  0  0  0  0  0  0
   21.8308  -20.1616  -11.4667 C   0  0  0  0  0  0  0  0  0  0  0  0
   21.3635  -21.0204  -12.5844 C   0  0  0  0  0  0  0  0  0  0  0  0
   22.0105  -22.0630  -12.8680 O   0  0  0  0  0  0  0  0  0  0  0  0
   20.2349  -20.6662  -13.2916 O   0  0  0  0  0  0  0  0  0  0  0  0
  2  1  1  0
  2  3  1  0
  3  4  2  0
  6  5  1  0
  7  6  1  0
  8  7  1  0
  9  8  1  1
 10  3  1  0
 10  9  1  0
 11  9  1  0
 11 12  2  0
 13 11  1  0
 14 13  1  0
 14 15  1  0
 15 16  2  0
 15 17  1  0
M  END
$$$$
