GMG.pdb
     RDKit          3D

 17 16  0  0  1  0  0  0  0  0999 V2000
   20.1740  -15.3339  -18.6353 N   0  0  0  0  0  0  0  0  0  0  0  0
   19.9501  -13.9238  -18.8940 C   0  0  0  0  0  0  0  0  0  0  0  0
   20.8283  -13.1601  -17.9846 C   0  0  0  0  0  0  0  0  0  0  0  0
   20.9604  -13.4798  -16.7540 O   0  0  0  0  0  0  0  0  0  0  0  0
   27.5513  -10.1207  -15.9477 C   0  0  0  0  0  0  0  0  0  0  0  0
   26.5355  -10.8104  -17.2731 S   0  0  0  0  0  0  0  0  0  0  0  0
   24.7857  -10.7839  -16.8185 C   0  0  0  0  0  0  0  0  0  0  0  0
   23.9132  -11.4041  -17.8799 C   0  0  0  0  0  0  0  0  0  0  0  0
   22.4541  -11.3292  -17.4731 C   0  0  2  0  0  0  0  0  0  0  0  0
   21.5858  -12.0255  -18.3967 N   0  0  0  0  0  0  0  0  0  0  0  0
   21.9814   -9.9280  -17.3862 C   0  0  0  0  0  0  0  0  0  0  0  0
   21.6251   -9.3327  -18.4319 O   0  0  0  0  0  0  0  0  0  0  0  0
   21.9183   -9.2312  -16.1471 N   0  0  0  0  0  0  0  0  0  0  0  0
   21.3515   -7.9052  -16.1387 C   0  0  0  0  0  0  0  0  0  0  0  0
   21.3198   -7.3318  -14.7693 C   0  0  0  0  0  0  0  0  0  0  0  0
   21.7189   -8.0325  -13.8020 O   0  0  0  0  0  0  0  0  0  0  0  0
   20.8565   -6.0480  -14.5774 O   0  0  0  0  0  0  0  0  0  0  0  0
  2  1  1  0
  2  3  1  0
  3  4  2  0
  6  5  1  0
  7  6  1  0
  8  7  1  0
  9  8  1  6
 10  3  1  0
 10  9  1  0
 11  9  1  0
 11 12  2  0
 13 11  1  0
 14 13  1  0
 14 15  1  0
 15 16  2  0
 15 17  1  0
M  END
$$$$
