GMG.pdb
     RDKit          3D

 17 16  0  0  1  0  0  0  0  0999 V2000
   21.5027  -15.0662  -16.8644 N   0  0  0  0  0  0  0  0  0  0  0  0
   21.1643  -13.7697  -17.4215 C   0  0  0  0  0  0  0  0  0  0  0  0
   22.0477  -12.7696  -16.7885 C   0  0  0  0  0  0  0  0  0  0  0  0
   22.1002  -12.6286  -15.5190 O   0  0  0  0  0  0  0  0  0  0  0  0
   27.4952  -13.3408  -15.2520 C   0  0  0  0  0  0  0  0  0  0  0  0
   26.3904  -11.9344  -15.5080 S   0  0  0  0  0  0  0  0  0  0  0  0
   25.9052  -11.8096  -17.2454 C   0  0  0  0  0  0  0  0  0  0  0  0
   25.0083  -10.6253  -17.5013 C   0  0  0  0  0  0  0  0  0  0  0  0
   23.6476  -10.8484  -16.8697 C   0  0  2  0  0  0  0  0  0  0  0  0
   22.8976  -11.8960  -17.5270 N   0  0  0  0  0  0  0  0  0  0  0  0
   22.8208   -9.6197  -16.9027 C   0  0  0  0  0  0  0  0  0  0  0  0
   22.3214   -9.2429  -17.9906 O   0  0  0  0  0  0  0  0  0  0  0  0
   22.5736   -8.8482  -15.7328 N   0  0  0  0  0  0  0  0  0  0  0  0
   21.7679   -7.6588  -15.8583 C   0  0  0  0  0  0  0  0  0  0  0  0
   21.6759   -6.9214  -14.5726 C   0  0  0  0  0  0  0  0  0  0  0  0
   21.1852   -5.7616  -14.5650 O   0  0  0  0  0  0  0  0  0  0  0  0
   22.1265   -7.5135  -13.4124 O   0  0  0  0  0  0  0  0  0  0  0  0
  2  1  1  0
  2  3  1  0
  3  4  2  0
  6  5  1  0
  7  6  1  0
  8  7  1  0
  9  8  1  6
 10  3  1  0
 10  9  1  0
 11  9  1  0
 11 12  2  0
 13 11  1  0
 14 13  1  0
 14 15  1  0
 15 16  2  0
 15 17  1  0
M  END
$$$$
