GMG.pdb
     RDKit          3D

 17 16  0  0  1  0  0  0  0  0999 V2000
   20.9072  -13.2335  -19.8030 N   0  0  0  0  0  0  0  0  0  0  0  0
   21.2501  -11.8308  -19.9455 C   0  0  0  0  0  0  0  0  0  0  0  0
   21.8162  -11.3784  -18.6586 C   0  0  0  0  0  0  0  0  0  0  0  0
   21.8365  -12.1380  -17.6305 O   0  0  0  0  0  0  0  0  0  0  0  0
   27.1702  -11.5268  -15.6217 C   0  0  0  0  0  0  0  0  0  0  0  0
   26.8031   -9.7606  -15.7226 S   0  0  0  0  0  0  0  0  0  0  0  0
   25.0195   -9.4825  -15.8276 C   0  0  0  0  0  0  0  0  0  0  0  0
   24.4693   -9.8296  -17.1875 C   0  0  0  0  0  0  0  0  0  0  0  0
   22.9579   -9.7040  -17.1923 C   0  0  2  0  0  0  0  0  0  0  0  0
   22.3753  -10.0826  -18.4609 N   0  0  0  0  0  0  0  0  0  0  0  0
   22.5229   -8.3190  -16.8972 C   0  0  0  0  0  0  0  0  0  0  0  0
   22.5058   -7.4693  -17.8205 O   0  0  0  0  0  0  0  0  0  0  0  0
   22.1215   -7.9191  -15.5919 N   0  0  0  0  0  0  0  0  0  0  0  0
   21.5580   -6.6021  -15.4256 C   0  0  0  0  0  0  0  0  0  0  0  0
   22.6131   -5.5756  -15.2305 C   0  0  0  0  0  0  0  0  0  0  0  0
   22.2752   -4.3941  -14.9549 O   0  0  0  0  0  0  0  0  0  0  0  0
   23.9397   -5.9284  -15.3533 O   0  0  0  0  0  0  0  0  0  0  0  0
  2  1  1  0
  2  3  1  0
  3  4  2  0
  6  5  1  0
  7  6  1  0
  8  7  1  0
  9  8  1  6
 10  3  1  0
 10  9  1  0
 11  9  1  0
 11 12  2  0
 13 11  1  0
 14 13  1  0
 14 15  1  0
 15 16  2  0
 15 17  1  0
M  END
$$$$
