GMG.pdb
     RDKit          3D

 17 16  0  0  1  0  0  0  0  0999 V2000
   17.9038  -10.4553  -12.9572 N   0  0  0  0  0  0  0  0  0  0  0  0
   18.1931   -9.7780  -11.7069 C   0  0  0  0  0  0  0  0  0  0  0  0
   17.0245   -8.9378  -11.3757 C   0  0  0  0  0  0  0  0  0  0  0  0
   16.0800   -8.7413  -12.2146 O   0  0  0  0  0  0  0  0  0  0  0  0
   11.2653   -9.9517   -7.8905 C   0  0  0  0  0  0  0  0  0  0  0  0
   12.7651   -9.0488   -7.4439 S   0  0  0  0  0  0  0  0  0  0  0  0
   13.7020   -8.5932   -8.9218 C   0  0  0  0  0  0  0  0  0  0  0  0
   14.9769   -7.8632   -8.5838 C   0  0  0  0  0  0  0  0  0  0  0  0
   15.7041   -7.4577   -9.8515 C   0  0  2  0  0  0  0  0  0  0  0  0
   16.8573   -8.2891  -10.1179 N   0  0  0  0  0  0  0  0  0  0  0  0
   16.1713   -6.0534   -9.7891 C   0  0  0  0  0  0  0  0  0  0  0  0
   15.3357   -5.1341   -9.6115 O   0  0  0  0  0  0  0  0  0  0  0  0
   17.5459   -5.7115   -9.9251 N   0  0  0  0  0  0  0  0  0  0  0  0
   17.9094   -4.3169   -9.8774 C   0  0  0  0  0  0  0  0  0  0  0  0
   17.7524   -3.6643  -11.2021 C   0  0  0  0  0  0  0  0  0  0  0  0
   17.2830   -4.3310  -12.1619 O   0  0  0  0  0  0  0  0  0  0  0  0
   18.1207   -2.3459  -11.3614 O   0  0  0  0  0  0  0  0  0  0  0  0
  2  1  1  0
  2  3  1  0
  3  4  2  0
  6  5  1  0
  7  6  1  0
  8  7  1  0
  9  8  1  1
 10  3  1  0
 10  9  1  0
 11  9  1  0
 11 12  2  0
 13 11  1  0
 14 13  1  0
 14 15  1  0
 15 16  2  0
 15 17  1  0
M  END
$$$$
