GMG.pdb
     RDKit          3D

 17 16  0  0  1  0  0  0  0  0999 V2000
   28.3024  -21.6785  -15.9981 N   0  0  0  0  0  0  0  0  0  0  0  0
   27.7212  -20.5505  -15.2941 C   0  0  0  0  0  0  0  0  0  0  0  0
   26.8231  -21.0908  -14.2535 C   0  0  0  0  0  0  0  0  0  0  0  0
   26.2049  -22.1988  -14.4100 O   0  0  0  0  0  0  0  0  0  0  0  0
   26.6180  -19.5834   -7.8302 C   0  0  0  0  0  0  0  0  0  0  0  0
   25.3752  -20.8887   -7.9554 S   0  0  0  0  0  0  0  0  0  0  0  0
   24.9656  -21.2188   -9.6854 C   0  0  0  0  0  0  0  0  0  0  0  0
   25.9636  -20.6036  -10.6331 C   0  0  0  0  0  0  0  0  0  0  0  0
   25.6164  -20.9569  -12.0665 C   0  0  2  0  0  0  0  0  0  0  0  0
   26.5763  -20.4335  -13.0134 N   0  0  0  0  0  0  0  0  0  0  0  0
   24.2828  -20.4386  -12.4503 C   0  0  0  0  0  0  0  0  0  0  0  0
   24.1289  -19.2055  -12.6255 O   0  0  0  0  0  0  0  0  0  0  0  0
   23.1639  -21.2997  -12.6275 N   0  0  0  0  0  0  0  0  0  0  0  0
   21.9294  -20.7245  -13.1016 C   0  0  0  0  0  0  0  0  0  0  0  0
   20.7834  -21.0951  -12.2331 C   0  0  0  0  0  0  0  0  0  0  0  0
   20.9984  -21.7590  -11.1847 O   0  0  0  0  0  0  0  0  0  0  0  0
   19.5078  -20.7095  -12.5846 O   0  0  0  0  0  0  0  0  0  0  0  0
  2  1  1  0
  2  3  1  0
  3  4  2  0
  6  5  1  0
  7  6  1  0
  8  7  1  0
  9  8  1  1
 10  3  1  0
 10  9  1  0
 11  9  1  0
 11 12  2  0
 13 11  1  0
 14 13  1  0
 14 15  1  0
 15 16  2  0
 15 17  1  0
M  END
$$$$
