FCA.pdb
     RDKit          3D

 23 23  0  0  1  0  0  0  0  0999 V2000
    5.8516  -18.1025   25.5484 N   0  0  0  0  0  0  0  0  0  0  0  0
    6.4520  -16.8291   25.2100 C   0  0  1  0  0  0  0  0  0  0  0  0
    7.3606  -16.4266   26.3470 C   0  0  0  0  0  0  0  0  0  0  0  0
    7.3481  -14.9435   26.4435 C   0  0  0  0  0  0  0  0  0  0  0  0
    6.1814  -14.2084   26.4053 C   0  0  0  0  0  0  0  0  0  0  0  0
    6.1776  -12.8438   26.4946 C   0  0  0  0  0  0  0  0  0  0  0  0
    7.3709  -12.1382   26.6293 C   0  0  0  0  0  0  0  0  0  0  0  0
    8.5627  -12.8558   26.6705 C   0  0  0  0  0  0  0  0  0  0  0  0
    8.5316  -14.2302   26.5779 C   0  0  0  0  0  0  0  0  0  0  0  0
    7.1875  -17.0005   23.9359 C   0  0  0  0  0  0  0  0  0  0  0  0
    7.7246  -18.0968   23.6501 O   0  0  0  0  0  0  0  0  0  0  0  0
    7.3242  -15.9472   22.9791 N   0  0  0  0  0  0  0  0  0  0  0  0
    8.0749  -16.0615   21.7657 C   0  0  1  0  0  0  0  0  0  0  0  0
    7.6789  -14.9809   20.8068 C   0  0  0  0  0  0  0  0  0  0  0  0
    7.4607  -13.3722   21.5712 S   0  0  0  0  0  0  0  0  0  0  0  0
    9.5401  -16.1296   21.9976 C   0  0  0  0  0  0  0  0  0  0  0  0
   10.3419  -16.2821   21.0393 O   0  0  0  0  0  0  0  0  0  0  0  0
   12.1178  -14.8073   24.0428 C   0  0  0  0  0  0  0  0  0  0  0  0
   11.5319  -16.0757   23.4733 C   0  0  2  0  0  0  0  0  0  0  0  0
   10.1146  -16.0264   23.3131 N   0  0  0  0  0  0  0  0  0  0  0  0
   11.9003  -17.1838   24.3623 C   0  0  0  0  0  0  0  0  0  0  0  0
   13.0982  -17.5076   24.6094 O   0  0  0  0  0  0  0  0  0  0  0  0
   10.8963  -17.9206   24.9677 O   0  0  0  0  0  0  0  0  0  0  0  0
  2  1  1  1
  2 10  1  0
  3  2  1  0
  4  3  1  0
  4  5  2  0
  6  5  1  0
  7  6  2  0
  8  9  2  0
  8  7  1  0
  9  4  1  0
 10 11  2  0
 12 10  1  0
 12 13  1  0
 13 16  1  0
 13 14  1  6
 15 14  1  0
 16 17  2  0
 19 18  1  1
 19 21  1  0
 20 19  1  0
 20 16  1  0
 21 22  2  0
 21 23  1  0
M  END
$$$$
