FCA.pdb
     RDKit          3D

 23 23  0  0  1  0  0  0  0  0999 V2000
    6.0103  -17.3032   24.3452 N   0  0  0  0  0  0  0  0  0  0  0  0
    6.9879  -16.2774   24.6433 C   0  0  1  0  0  0  0  0  0  0  0  0
    6.7388  -15.7929   26.0518 C   0  0  0  0  0  0  0  0  0  0  0  0
    6.7112  -14.3070   26.0294 C   0  0  0  0  0  0  0  0  0  0  0  0
    7.8198  -13.5502   25.7118 C   0  0  0  0  0  0  0  0  0  0  0  0
    7.7868  -12.1831   25.6932 C   0  0  0  0  0  0  0  0  0  0  0  0
    6.6138  -11.4974   25.9993 C   0  0  0  0  0  0  0  0  0  0  0  0
    5.4804  -12.2373   26.3234 C   0  0  0  0  0  0  0  0  0  0  0  0
    5.5474  -13.6134   26.3329 C   0  0  0  0  0  0  0  0  0  0  0  0
    8.3335  -16.8753   24.4840 C   0  0  0  0  0  0  0  0  0  0  0  0
    8.5748  -18.0297   24.9096 O   0  0  0  0  0  0  0  0  0  0  0  0
    9.4117  -16.1844   23.8487 N   0  0  0  0  0  0  0  0  0  0  0  0
   10.7899  -16.5394   24.0022 C   0  0  1  0  0  0  0  0  0  0  0  0
   11.5755  -16.0995   22.8050 C   0  0  0  0  0  0  0  0  0  0  0  0
   10.6266  -15.1383   21.6236 S   0  0  0  0  0  0  0  0  0  0  0  0
   11.3678  -16.0684   25.2864 C   0  0  0  0  0  0  0  0  0  0  0  0
   12.4026  -15.3519   25.3078 O   0  0  0  0  0  0  0  0  0  0  0  0
   10.8375  -14.5439   28.1649 C   0  0  0  0  0  0  0  0  0  0  0  0
   11.3671  -15.8974   27.7600 C   0  0  2  0  0  0  0  0  0  0  0  0
   10.7836  -16.4011   26.5589 N   0  0  0  0  0  0  0  0  0  0  0  0
   11.1238  -16.8289   28.8677 C   0  0  0  0  0  0  0  0  0  0  0  0
   10.4745  -17.9072   28.7390 O   0  0  0  0  0  0  0  0  0  0  0  0
   11.6244  -16.5247   30.1224 O   0  0  0  0  0  0  0  0  0  0  0  0
  2  1  1  1
  2 10  1  0
  3  2  1  0
  4  3  1  0
  4  5  2  0
  6  5  1  0
  7  6  2  0
  8  9  2  0
  8  7  1  0
  9  4  1  0
 10 11  2  0
 12 10  1  0
 12 13  1  0
 13 16  1  0
 13 14  1  6
 15 14  1  0
 16 17  2  0
 19 18  1  1
 19 21  1  0
 20 19  1  0
 20 16  1  0
 21 22  2  0
 21 23  1  0
M  END
$$$$
