FCA.pdb
     RDKit          3D

 23 23  0  0  1  0  0  0  0  0999 V2000
    5.4829  -17.7709   23.4669 N   0  0  0  0  0  0  0  0  0  0  0  0
    6.2252  -16.5990   23.8820 C   0  0  1  0  0  0  0  0  0  0  0  0
    5.4280  -15.9004   24.9576 C   0  0  0  0  0  0  0  0  0  0  0  0
    6.1760  -14.6833   25.3679 C   0  0  0  0  0  0  0  0  0  0  0  0
    6.5494  -14.4487   26.6749 C   0  0  0  0  0  0  0  0  0  0  0  0
    7.2377  -13.3264   27.0450 C   0  0  0  0  0  0  0  0  0  0  0  0
    7.5907  -12.3665   26.0995 C   0  0  0  0  0  0  0  0  0  0  0  0
    7.2260  -12.5788   24.7733 C   0  0  0  0  0  0  0  0  0  0  0  0
    6.5329  -13.7202   24.4338 C   0  0  0  0  0  0  0  0  0  0  0  0
    7.5494  -17.0511   24.3674 C   0  0  0  0  0  0  0  0  0  0  0  0
    7.6470  -18.0429   25.1282 O   0  0  0  0  0  0  0  0  0  0  0  0
    8.7666  -16.3959   24.0035 N   0  0  0  0  0  0  0  0  0  0  0  0
   10.0631  -16.8166   24.4411 C   0  0  1  0  0  0  0  0  0  0  0  0
   10.9796  -16.9787   23.2673 C   0  0  0  0  0  0  0  0  0  0  0  0
   11.1887  -15.4855   22.2943 S   0  0  0  0  0  0  0  0  0  0  0  0
   10.6238  -15.9458   25.5052 C   0  0  0  0  0  0  0  0  0  0  0  0
   11.0751  -14.8019   25.2362 O   0  0  0  0  0  0  0  0  0  0  0  0
   10.3530  -15.2413   29.0461 C   0  0  0  0  0  0  0  0  0  0  0  0
   11.2520  -15.4872   27.8596 C   0  0  2  0  0  0  0  0  0  0  0  0
   10.6807  -16.3573   26.8831 N   0  0  0  0  0  0  0  0  0  0  0  0
   12.5146  -16.0467   28.3560 C   0  0  0  0  0  0  0  0  0  0  0  0
   12.9763  -17.1626   27.9784 O   0  0  0  0  0  0  0  0  0  0  0  0
   13.2479  -15.3276   29.2849 O   0  0  0  0  0  0  0  0  0  0  0  0
  2  1  1  1
  2 10  1  0
  3  2  1  0
  4  3  1  0
  4  5  2  0
  6  5  1  0
  7  6  2  0
  8  9  2  0
  8  7  1  0
  9  4  1  0
 10 11  2  0
 12 10  1  0
 12 13  1  0
 13 16  1  0
 13 14  1  6
 15 14  1  0
 16 17  2  0
 19 18  1  1
 19 21  1  0
 20 19  1  0
 20 16  1  0
 21 22  2  0
 21 23  1  0
M  END
$$$$
