FCA.pdb
     RDKit          3D

 23 23  0  0  1  0  0  0  0  0999 V2000
    6.9855  -18.1632   20.1222 N   0  0  0  0  0  0  0  0  0  0  0  0
    7.4292  -16.9473   20.7714 C   0  0  1  0  0  0  0  0  0  0  0  0
    6.4919  -15.8349   20.3658 C   0  0  0  0  0  0  0  0  0  0  0  0
    7.0007  -14.5675   20.9521 C   0  0  0  0  0  0  0  0  0  0  0  0
    7.7471  -13.6626   20.2263 C   0  0  0  0  0  0  0  0  0  0  0  0
    8.2120  -12.4982   20.7726 C   0  0  0  0  0  0  0  0  0  0  0  0
    7.9433  -12.1812   22.1020 C   0  0  0  0  0  0  0  0  0  0  0  0
    7.1921  -13.0773   22.8568 C   0  0  0  0  0  0  0  0  0  0  0  0
    6.7388  -14.2416   22.2761 C   0  0  0  0  0  0  0  0  0  0  0  0
    7.4197  -17.1860   22.2331 C   0  0  0  0  0  0  0  0  0  0  0  0
    6.6680  -18.0553   22.7342 O   0  0  0  0  0  0  0  0  0  0  0  0
    8.2501  -16.4536   23.1373 N   0  0  0  0  0  0  0  0  0  0  0  0
    8.5476  -16.8776   24.4718 C   0  0  1  0  0  0  0  0  0  0  0  0
    9.2602  -18.1950   24.4510 C   0  0  0  0  0  0  0  0  0  0  0  0
    9.9617  -18.6692   26.0331 S   0  0  0  0  0  0  0  0  0  0  0  0
    9.2583  -15.8405   25.2620 C   0  0  0  0  0  0  0  0  0  0  0  0
   10.3566  -15.3663   24.8704 O   0  0  0  0  0  0  0  0  0  0  0  0
    8.5622  -13.3384   27.9302 C   0  0  0  0  0  0  0  0  0  0  0  0
    9.4547  -14.3185   27.2095 C   0  0  2  0  0  0  0  0  0  0  0  0
    8.7366  -15.3285   26.5017 N   0  0  0  0  0  0  0  0  0  0  0  0
   10.3451  -14.9339   28.2007 C   0  0  0  0  0  0  0  0  0  0  0  0
   10.3596  -16.1751   28.4458 O   0  0  0  0  0  0  0  0  0  0  0  0
   11.2184  -14.1272   28.9105 O   0  0  0  0  0  0  0  0  0  0  0  0
  2  1  1  6
  2 10  1  0
  3  2  1  0
  4  3  1  0
  4  5  2  0
  6  5  1  0
  7  6  2  0
  8  9  2  0
  8  7  1  0
  9  4  1  0
 10 11  2  0
 12 10  1  0
 12 13  1  0
 13 16  1  0
 13 14  1  6
 15 14  1  0
 16 17  2  0
 19 18  1  1
 19 21  1  0
 20 19  1  0
 20 16  1  0
 21 22  2  0
 21 23  1  0
M  END
$$$$
