FCA.pdb
     RDKit          3D

 23 23  0  0  1  0  0  0  0  0999 V2000
    7.0340  -17.5836   21.5733 N   0  0  0  0  0  0  0  0  0  0  0  0
    7.7987  -16.4731   22.1014 C   0  0  1  0  0  0  0  0  0  0  0  0
    6.8497  -15.3201   22.3261 C   0  0  0  0  0  0  0  0  0  0  0  0
    7.1847  -14.2512   21.3492 C   0  0  0  0  0  0  0  0  0  0  0  0
    6.7198  -14.2623   20.0505 C   0  0  0  0  0  0  0  0  0  0  0  0
    7.0322  -13.2751   19.1571 C   0  0  0  0  0  0  0  0  0  0  0  0
    7.8435  -12.2076   19.5342 C   0  0  0  0  0  0  0  0  0  0  0  0
    8.3261  -12.1722   20.8391 C   0  0  0  0  0  0  0  0  0  0  0  0
    7.9924  -13.1827   21.7143 C   0  0  0  0  0  0  0  0  0  0  0  0
    8.4429  -16.9242   23.3564 C   0  0  0  0  0  0  0  0  0  0  0  0
    7.7520  -17.3435   24.3150 O   0  0  0  0  0  0  0  0  0  0  0  0
    9.8602  -16.9074   23.5425 N   0  0  0  0  0  0  0  0  0  0  0  0
   10.5071  -17.1997   24.7856 C   0  0  1  0  0  0  0  0  0  0  0  0
   11.7978  -17.9199   24.5420 C   0  0  0  0  0  0  0  0  0  0  0  0
   12.9427  -17.0272   23.4873 S   0  0  0  0  0  0  0  0  0  0  0  0
   10.6591  -16.0036   25.6524 C   0  0  0  0  0  0  0  0  0  0  0  0
   11.3689  -15.0282   25.2929 O   0  0  0  0  0  0  0  0  0  0  0  0
    9.3058  -13.7130   27.8079 C   0  0  0  0  0  0  0  0  0  0  0  0
   10.3377  -14.8138   27.8039 C   0  0  2  0  0  0  0  0  0  0  0  0
   10.0117  -15.8966   26.9332 N   0  0  0  0  0  0  0  0  0  0  0  0
   10.4858  -15.3008   29.1803 C   0  0  0  0  0  0  0  0  0  0  0  0
   10.7442  -14.5444   30.1610 O   0  0  0  0  0  0  0  0  0  0  0  0
   10.3379  -16.6543   29.4327 O   0  0  0  0  0  0  0  0  0  0  0  0
  2  1  1  1
  2 10  1  0
  3  2  1  0
  4  3  1  0
  4  5  2  0
  6  5  1  0
  7  6  2  0
  8  9  2  0
  8  7  1  0
  9  4  1  0
 10 11  2  0
 12 10  1  0
 12 13  1  0
 13 16  1  0
 13 14  1  6
 15 14  1  0
 16 17  2  0
 19 18  1  1
 19 21  1  0
 20 19  1  0
 20 16  1  0
 21 22  2  0
 21 23  1  0
M  END
$$$$
