FCA.pdb
     RDKit          3D

 23 23  0  0  1  0  0  0  0  0999 V2000
   10.6192  -18.1200   26.5703 N   0  0  0  0  0  0  0  0  0  0  0  0
   11.2548  -17.8983   27.8524 C   0  0  1  0  0  0  0  0  0  0  0  0
   10.2146  -17.3460   28.7977 C   0  0  0  0  0  0  0  0  0  0  0  0
    9.9854  -15.9198   28.4476 C   0  0  0  0  0  0  0  0  0  0  0  0
    9.0993  -15.5316   27.4641 C   0  0  0  0  0  0  0  0  0  0  0  0
    8.8936  -14.2172   27.1474 C   0  0  0  0  0  0  0  0  0  0  0  0
    9.5828  -13.2095   27.8178 C   0  0  0  0  0  0  0  0  0  0  0  0
   10.4829  -13.5740   28.8148 C   0  0  0  0  0  0  0  0  0  0  0  0
   10.6669  -14.9073   29.1094 C   0  0  0  0  0  0  0  0  0  0  0  0
   11.8037  -19.1938   28.3149 C   0  0  0  0  0  0  0  0  0  0  0  0
   11.3070  -20.2757   27.9215 O   0  0  0  0  0  0  0  0  0  0  0  0
   12.9085  -19.2826   29.2176 N   0  0  0  0  0  0  0  0  0  0  0  0
   13.4864  -20.5169   29.6554 C   0  0  1  0  0  0  0  0  0  0  0  0
   14.0384  -21.2747   28.4870 C   0  0  0  0  0  0  0  0  0  0  0  0
   13.8071  -20.4514   26.9094 S   0  0  0  0  0  0  0  0  0  0  0  0
   14.4701  -20.3365   30.7531 C   0  0  0  0  0  0  0  0  0  0  0  0
   15.3229  -19.4114   30.7141 O   0  0  0  0  0  0  0  0  0  0  0  0
   15.1624  -21.7159   34.2132 C   0  0  0  0  0  0  0  0  0  0  0  0
   15.4598  -20.9678   32.9371 C   0  0  2  0  0  0  0  0  0  0  0  0
   14.5010  -21.1982   31.9054 N   0  0  0  0  0  0  0  0  0  0  0  0
   16.7968  -21.3648   32.4803 C   0  0  0  0  0  0  0  0  0  0  0  0
   17.0041  -21.9980   31.4048 O   0  0  0  0  0  0  0  0  0  0  0  0
   17.8958  -21.0361   33.2560 O   0  0  0  0  0  0  0  0  0  0  0  0
  2  1  1  6
  2 10  1  0
  3  2  1  0
  4  3  1  0
  4  5  2  0
  6  5  1  0
  7  6  2  0
  8  9  2  0
  8  7  1  0
  9  4  1  0
 10 11  2  0
 12 10  1  0
 12 13  1  0
 13 16  1  0
 13 14  1  6
 15 14  1  0
 16 17  2  0
 19 18  1  1
 19 21  1  0
 20 19  1  0
 20 16  1  0
 21 22  2  0
 21 23  1  0
M  END
$$$$
