FCA.pdb
     RDKit          3D

 23 23  0  0  1  0  0  0  0  0999 V2000
   10.3785  -18.2224   27.4988 N   0  0  0  0  0  0  0  0  0  0  0  0
    9.0118  -18.0486   27.0531 C   0  0  1  0  0  0  0  0  0  0  0  0
    8.3366  -17.0770   27.9916 C   0  0  0  0  0  0  0  0  0  0  0  0
    9.2209  -15.8918   28.1415 C   0  0  0  0  0  0  0  0  0  0  0  0
   10.2808  -15.8652   29.0241 C   0  0  0  0  0  0  0  0  0  0  0  0
   11.0903  -14.7709   29.1566 C   0  0  0  0  0  0  0  0  0  0  0  0
   10.8686  -13.6276   28.3926 C   0  0  0  0  0  0  0  0  0  0  0  0
    9.8056  -13.6281   27.4942 C   0  0  0  0  0  0  0  0  0  0  0  0
    9.0091  -14.7470   27.3851 C   0  0  0  0  0  0  0  0  0  0  0  0
    9.0509  -17.5493   25.6593 C   0  0  0  0  0  0  0  0  0  0  0  0
    7.9942  -17.4170   24.9975 O   0  0  0  0  0  0  0  0  0  0  0  0
   10.2708  -17.1971   25.0026 N   0  0  0  0  0  0  0  0  0  0  0  0
   10.4305  -17.1558   23.5806 C   0  0  1  0  0  0  0  0  0  0  0  0
   10.2006  -15.7654   23.0728 C   0  0  0  0  0  0  0  0  0  0  0  0
   10.6849  -15.5251   21.3617 S   0  0  0  0  0  0  0  0  0  0  0  0
   11.7190  -17.7385   23.1273 C   0  0  0  0  0  0  0  0  0  0  0  0
   12.8113  -17.3676   23.6311 O   0  0  0  0  0  0  0  0  0  0  0  0
   12.9202  -20.5004   20.8098 C   0  0  0  0  0  0  0  0  0  0  0  0
   13.0344  -19.3739   21.8071 C   0  0  2  0  0  0  0  0  0  0  0  0
   11.7873  -18.7454   22.1013 N   0  0  0  0  0  0  0  0  0  0  0  0
   13.9812  -18.3889   21.2713 C   0  0  0  0  0  0  0  0  0  0  0  0
   13.6374  -17.4341   20.5157 O   0  0  0  0  0  0  0  0  0  0  0  0
   15.3215  -18.4980   21.6015 O   0  0  0  0  0  0  0  0  0  0  0  0
  2  1  1  1
  2 10  1  0
  3  2  1  0
  4  3  1  0
  4  5  2  0
  6  5  1  0
  7  6  2  0
  8  9  2  0
  8  7  1  0
  9  4  1  0
 10 11  2  0
 12 10  1  0
 12 13  1  0
 13 16  1  0
 13 14  1  1
 15 14  1  0
 16 17  2  0
 19 18  1  6
 19 21  1  0
 20 19  1  0
 20 16  1  0
 21 22  2  0
 21 23  1  0
M  END
$$$$
