FCA.pdb
     RDKit          3D

 23 23  0  0  1  0  0  0  0  0999 V2000
    6.9073  -16.6601   26.0794 N   0  0  0  0  0  0  0  0  0  0  0  0
    7.1717  -15.6937   25.0340 C   0  0  1  0  0  0  0  0  0  0  0  0
    8.2334  -14.7444   25.5360 C   0  0  0  0  0  0  0  0  0  0  0  0
    7.5576  -13.6503   26.2813 C   0  0  0  0  0  0  0  0  0  0  0  0
    7.9556  -13.2569   27.5421 C   0  0  0  0  0  0  0  0  0  0  0  0
    7.3288  -12.2493   28.2218 C   0  0  0  0  0  0  0  0  0  0  0  0
    6.2499  -11.5750   27.6551 C   0  0  0  0  0  0  0  0  0  0  0  0
    5.8280  -11.9523   26.3836 C   0  0  0  0  0  0  0  0  0  0  0  0
    6.4813  -12.9716   25.7258 C   0  0  0  0  0  0  0  0  0  0  0  0
    7.6067  -16.4381   23.8297 C   0  0  0  0  0  0  0  0  0  0  0  0
    7.6537  -17.6910   23.8347 O   0  0  0  0  0  0  0  0  0  0  0  0
    7.9898  -15.7838   22.6179 N   0  0  0  0  0  0  0  0  0  0  0  0
    8.5013  -16.4658   21.4680 C   0  0  1  0  0  0  0  0  0  0  0  0
    8.1286  -15.7281   20.2186 C   0  0  0  0  0  0  0  0  0  0  0  0
    6.4641  -15.0581   20.2370 S   0  0  0  0  0  0  0  0  0  0  0  0
    9.9550  -16.7527   21.5663 C   0  0  0  0  0  0  0  0  0  0  0  0
   10.5543  -17.3844   20.6572 O   0  0  0  0  0  0  0  0  0  0  0  0
   13.0184  -15.6243   23.3018 C   0  0  0  0  0  0  0  0  0  0  0  0
   12.1177  -16.7157   22.7785 C   0  0  2  0  0  0  0  0  0  0  0  0
   10.7465  -16.3294   22.6912 N   0  0  0  0  0  0  0  0  0  0  0  0
   12.2580  -17.8806   23.6601 C   0  0  0  0  0  0  0  0  0  0  0  0
   11.2861  -18.4074   24.2755 O   0  0  0  0  0  0  0  0  0  0  0  0
   13.5117  -18.4414   23.8364 O   0  0  0  0  0  0  0  0  0  0  0  0
  2  1  1  1
  2 10  1  0
  3  2  1  0
  4  3  1  0
  4  5  2  0
  6  5  1  0
  7  6  2  0
  8  9  2  0
  8  7  1  0
  9  4  1  0
 10 11  2  0
 12 10  1  0
 12 13  1  0
 13 16  1  0
 13 14  1  6
 15 14  1  0
 16 17  2  0
 19 18  1  1
 19 21  1  0
 20 19  1  0
 20 16  1  0
 21 22  2  0
 21 23  1  0
M  END
$$$$
