FCA.pdb
     RDKit          3D

 23 23  0  0  1  0  0  0  0  0999 V2000
    7.4880  -14.4384   20.7297 N   0  0  0  0  0  0  0  0  0  0  0  0
    7.7885  -14.2170   22.1288 C   0  0  1  0  0  0  0  0  0  0  0  0
    6.5373  -13.6987   22.7968 C   0  0  0  0  0  0  0  0  0  0  0  0
    6.8196  -13.5464   24.2481 C   0  0  0  0  0  0  0  0  0  0  0  0
    6.4215  -14.4801   25.1822 C   0  0  0  0  0  0  0  0  0  0  0  0
    6.6849  -14.3332   26.5162 C   0  0  0  0  0  0  0  0  0  0  0  0
    7.3753  -13.2179   26.9845 C   0  0  0  0  0  0  0  0  0  0  0  0
    7.7885  -12.2605   26.0627 C   0  0  0  0  0  0  0  0  0  0  0  0
    7.5070  -12.4388   24.7258 C   0  0  0  0  0  0  0  0  0  0  0  0
    8.2405  -15.5051   22.7033 C   0  0  0  0  0  0  0  0  0  0  0  0
    7.5971  -16.5603   22.4922 O   0  0  0  0  0  0  0  0  0  0  0  0
    9.4123  -15.6163   23.5146 N   0  0  0  0  0  0  0  0  0  0  0  0
    9.9482  -16.8597   23.9793 C   0  0  1  0  0  0  0  0  0  0  0  0
   11.3089  -17.0885   23.3961 C   0  0  0  0  0  0  0  0  0  0  0  0
   12.5546  -15.9354   23.9782 S   0  0  0  0  0  0  0  0  0  0  0  0
    9.9172  -16.9847   25.4586 C   0  0  0  0  0  0  0  0  0  0  0  0
   10.2145  -16.0104   26.1982 O   0  0  0  0  0  0  0  0  0  0  0  0
    8.7506  -19.4072   28.1076 C   0  0  0  0  0  0  0  0  0  0  0  0
    9.5902  -18.2883   27.5423 C   0  0  2  0  0  0  0  0  0  0  0  0
    9.5504  -18.2104   26.1178 N   0  0  0  0  0  0  0  0  0  0  0  0
   10.9715  -18.4838   27.9980 C   0  0  0  0  0  0  0  0  0  0  0  0
   11.9513  -18.6170   27.2086 O   0  0  0  0  0  0  0  0  0  0  0  0
   11.2298  -18.5265   29.3577 O   0  0  0  0  0  0  0  0  0  0  0  0
  2  1  1  6
  2 10  1  0
  3  2  1  0
  4  3  1  0
  4  5  2  0
  6  5  1  0
  7  6  2  0
  8  9  2  0
  8  7  1  0
  9  4  1  0
 10 11  2  0
 12 10  1  0
 12 13  1  0
 13 16  1  0
 13 14  1  1
 15 14  1  0
 16 17  2  0
 19 18  1  6
 19 21  1  0
 20 19  1  0
 20 16  1  0
 21 22  2  0
 21 23  1  0
M  END
$$$$
