FCA.pdb
     RDKit          3D

 23 23  0  0  1  0  0  0  0  0999 V2000
    7.5547  -14.1447   20.6132 N   0  0  0  0  0  0  0  0  0  0  0  0
    7.7942  -13.9024   22.0206 C   0  0  1  0  0  0  0  0  0  0  0  0
    6.6004  -13.1618   22.5747 C   0  0  0  0  0  0  0  0  0  0  0  0
    6.8267  -12.9455   24.0276 C   0  0  0  0  0  0  0  0  0  0  0  0
    6.3595  -13.8183   24.9882 C   0  0  0  0  0  0  0  0  0  0  0  0
    6.5716  -13.6126   26.3235 C   0  0  0  0  0  0  0  0  0  0  0  0
    7.2780  -12.4968   26.7662 C   0  0  0  0  0  0  0  0  0  0  0  0
    7.7605  -11.6001   25.8174 C   0  0  0  0  0  0  0  0  0  0  0  0
    7.5294  -11.8368   24.4799 C   0  0  0  0  0  0  0  0  0  0  0  0
    7.9964  -15.2145   22.6771 C   0  0  0  0  0  0  0  0  0  0  0  0
    7.5024  -16.2576   22.1873 O   0  0  0  0  0  0  0  0  0  0  0  0
    8.7509  -15.3634   23.8821 N   0  0  0  0  0  0  0  0  0  0  0  0
    9.4377  -16.5635   24.2525 C   0  0  1  0  0  0  0  0  0  0  0  0
   10.3673  -16.9885   23.1574 C   0  0  0  0  0  0  0  0  0  0  0  0
   11.2731  -18.4959   23.5144 S   0  0  0  0  0  0  0  0  0  0  0  0
   10.1014  -16.4633   25.5771 C   0  0  0  0  0  0  0  0  0  0  0  0
   11.1003  -15.7165   25.7472 O   0  0  0  0  0  0  0  0  0  0  0  0
    9.4178  -17.2231   29.1681 C   0  0  0  0  0  0  0  0  0  0  0  0
   10.3233  -17.0707   27.9708 C   0  0  2  0  0  0  0  0  0  0  0  0
    9.6443  -17.2050   26.7227 N   0  0  0  0  0  0  0  0  0  0  0  0
   11.3871  -18.0762   28.0766 C   0  0  0  0  0  0  0  0  0  0  0  0
   12.1533  -18.1744   29.0787 O   0  0  0  0  0  0  0  0  0  0  0  0
   11.5727  -18.9687   27.0343 O   0  0  0  0  0  0  0  0  0  0  0  0
  2  1  1  6
  2 10  1  0
  3  2  1  0
  4  3  1  0
  4  5  2  0
  6  5  1  0
  7  6  2  0
  8  9  2  0
  8  7  1  0
  9  4  1  0
 10 11  2  0
 12 10  1  0
 12 13  1  0
 13 16  1  0
 13 14  1  6
 15 14  1  0
 16 17  2  0
 19 18  1  1
 19 21  1  0
 20 19  1  0
 20 16  1  0
 21 22  2  0
 21 23  1  0
M  END
$$$$
