GCL.pdb
     RDKit          3D

 19 18  0  0  1  0  0  0  0  0999 V2000
   15.9958  -14.6404  -16.7834 N   0  0  0  0  0  0  0  0  0  0  0  0
   16.2037  -13.4748  -15.9892 C   0  0  0  0  0  0  0  0  0  0  0  0
   17.1317  -12.5369  -16.6632 C   0  0  0  0  0  0  0  0  0  0  0  0
   17.7303  -12.9211  -17.6963 O   0  0  0  0  0  0  0  0  0  0  0  0
   17.3719  -11.2172  -16.1861 N   0  0  0  0  0  0  0  0  0  0  0  0
   18.2319  -10.2939  -16.9003 C   0  0  1  0  0  0  0  0  0  0  0  0
   17.3320   -9.4104  -17.7741 C   0  0  0  0  0  0  0  0  0  0  0  0
   15.7284   -9.1504  -17.0264 S   0  0  0  0  0  0  0  0  0  0  0  0
   18.9775   -9.4144  -15.9605 C   0  0  0  0  0  0  0  0  0  0  0  0
   18.3984   -9.0669  -14.9019 O   0  0  0  0  0  0  0  0  0  0  0  0
   22.2193  -10.1179  -13.2738 C   0  0  0  0  0  0  0  0  0  0  0  0
   22.7210   -9.8719  -14.7102 C   0  0  2  0  0  0  0  0  0  0  0  0
   24.1753  -10.2215  -14.7426 C   0  0  0  0  0  0  0  0  0  0  0  0
   22.4235   -8.4782  -15.1328 C   0  0  0  0  0  0  0  0  0  0  0  0
   20.9643   -8.1713  -15.1926 C   0  0  2  0  0  0  0  0  0  0  0  0
   20.2910   -8.9628  -16.2098 N   0  0  0  0  0  0  0  0  0  0  0  0
   20.6734   -6.7620  -15.4837 C   0  0  0  0  0  0  0  0  0  0  0  0
   20.8741   -5.7720  -14.5304 O   0  0  0  0  0  0  0  0  0  0  0  0
   20.2233   -6.4050  -16.6277 O   0  0  0  0  0  0  0  0  0  0  0  0
  1  2  1  0
  2  3  1  0
  3  4  2  0
  5  3  1  0
  5  6  1  0
  6  9  1  0
  6  7  1  6
  8  7  1  0
  9 10  2  0
 12 14  1  0
 12 11  1  1
 13 12  1  0
 15 14  1  6
 15 17  1  0
 16  9  1  0
 16 15  1  0
 17 19  2  0
 17 18  1  0
M  END
$$$$
