GCL.pdb
     RDKit          3D

 19 18  0  0  1  0  0  0  0  0999 V2000
   28.0242  -21.0805  -15.7155 N   0  0  0  0  0  0  0  0  0  0  0  0
   27.1761  -21.6793  -14.7383 C   0  0  0  0  0  0  0  0  0  0  0  0
   26.8248  -20.7056  -13.6781 C   0  0  0  0  0  0  0  0  0  0  0  0
   26.6036  -19.5149  -14.0041 O   0  0  0  0  0  0  0  0  0  0  0  0
   26.7281  -21.0664  -12.3044 N   0  0  0  0  0  0  0  0  0  0  0  0
   26.1786  -20.1595  -11.3155 C   0  0  1  0  0  0  0  0  0  0  0  0
   24.6634  -20.0916  -11.5464 C   0  0  0  0  0  0  0  0  0  0  0  0
   23.9203  -21.7182  -11.5639 S   0  0  0  0  0  0  0  0  0  0  0  0
   26.4179  -20.6579   -9.9346 C   0  0  0  0  0  0  0  0  0  0  0  0
   26.4296  -21.9008   -9.7561 O   0  0  0  0  0  0  0  0  0  0  0  0
   28.1688  -18.7961   -4.3380 C   0  0  0  0  0  0  0  0  0  0  0  0
   28.0074  -19.9677   -5.3263 C   0  0  2  0  0  0  0  0  0  0  0  0
   29.2284  -20.8242   -5.2088 C   0  0  0  0  0  0  0  0  0  0  0  0
   27.7550  -19.4578   -6.6996 C   0  0  0  0  0  0  0  0  0  0  0  0
   26.9415  -20.3845   -7.5401 C   0  0  2  0  0  0  0  0  0  0  0  0
   26.6288  -19.7999   -8.8343 N   0  0  0  0  0  0  0  0  0  0  0  0
   25.6655  -20.7676   -6.9232 C   0  0  0  0  0  0  0  0  0  0  0  0
   25.5795  -21.8486   -6.0553 O   0  0  0  0  0  0  0  0  0  0  0  0
   24.5922  -20.1150   -7.1701 O   0  0  0  0  0  0  0  0  0  0  0  0
  1  2  1  0
  2  3  1  0
  3  4  2  0
  5  3  1  0
  5  6  1  0
  6  9  1  0
  6  7  1  6
  8  7  1  0
  9 10  2  0
 12 14  1  0
 12 11  1  1
 13 12  1  0
 15 14  1  1
 15 17  1  0
 16  9  1  0
 16 15  1  0
 17 19  2  0
 17 18  1  0
M  END
$$$$
