GCL.pdb
     RDKit          3D

 19 18  0  0  1  0  0  0  0  0999 V2000
   19.4466  -11.7452  -17.6007 N   0  0  0  0  0  0  0  0  0  0  0  0
   19.4658  -10.3499  -17.8932 C   0  0  0  0  0  0  0  0  0  0  0  0
   19.9476   -9.5738  -16.7266 C   0  0  0  0  0  0  0  0  0  0  0  0
   19.1143   -8.9251  -16.0499 O   0  0  0  0  0  0  0  0  0  0  0  0
   21.3178   -9.5344  -16.3422 N   0  0  0  0  0  0  0  0  0  0  0  0
   21.7595   -8.8034  -15.1706 C   0  0  1  0  0  0  0  0  0  0  0  0
   23.0555   -9.4618  -14.6799 C   0  0  0  0  0  0  0  0  0  0  0  0
   22.8348  -10.2657  -13.0977 S   0  0  0  0  0  0  0  0  0  0  0  0
   22.0540   -7.3831  -15.5002 C   0  0  0  0  0  0  0  0  0  0  0  0
   22.8128   -7.1549  -16.4744 O   0  0  0  0  0  0  0  0  0  0  0  0
   20.4699   -2.0583  -15.6778 C   0  0  0  0  0  0  0  0  0  0  0  0
   21.0161   -3.0868  -16.6873 C   0  0  2  0  0  0  0  0  0  0  0  0
   20.3895   -2.7896  -18.0129 C   0  0  0  0  0  0  0  0  0  0  0  0
   20.7761   -4.4706  -16.2004 C   0  0  0  0  0  0  0  0  0  0  0  0
   21.7997   -4.9456  -15.2239 C   0  0  2  0  0  0  0  0  0  0  0  0
   21.5212   -6.2990  -14.7708 N   0  0  0  0  0  0  0  0  0  0  0  0
   21.9005   -4.1043  -14.0248 C   0  0  0  0  0  0  0  0  0  0  0  0
   22.6636   -2.9438  -14.0199 O   0  0  0  0  0  0  0  0  0  0  0  0
   21.2873   -4.4187  -12.9461 O   0  0  0  0  0  0  0  0  0  0  0  0
  1  2  1  0
  2  3  1  0
  3  4  2  0
  5  3  1  0
  5  6  1  0
  6  9  1  0
  6  7  1  6
  8  7  1  0
  9 10  2  0
 12 14  1  0
 12 11  1  1
 13 12  1  0
 15 14  1  6
 15 17  1  0
 16  9  1  0
 16 15  1  0
 17 19  2  0
 17 18  1  0
M  END
$$$$
