GCL.pdb
     RDKit          3D

 19 18  0  0  1  0  0  0  0  0999 V2000
   27.3169  -22.3244  -15.6502 N   0  0  0  0  0  0  0  0  0  0  0  0
   26.9714  -21.1680  -14.8911 C   0  0  0  0  0  0  0  0  0  0  0  0
   26.1344  -21.5344  -13.7247 C   0  0  0  0  0  0  0  0  0  0  0  0
   25.6935  -22.7058  -13.6448 O   0  0  0  0  0  0  0  0  0  0  0  0
   25.8101  -20.6111  -12.6907 N   0  0  0  0  0  0  0  0  0  0  0  0
   24.9771  -20.9889  -11.5658 C   0  0  1  0  0  0  0  0  0  0  0  0
   25.3400  -20.0660  -10.3951 C   0  0  0  0  0  0  0  0  0  0  0  0
   24.3654  -20.4251   -8.9392 S   0  0  0  0  0  0  0  0  0  0  0  0
   23.5344  -20.8026  -11.8764 C   0  0  0  0  0  0  0  0  0  0  0  0
   23.2067  -19.7913  -12.5448 O   0  0  0  0  0  0  0  0  0  0  0  0
   18.0991  -23.8165  -11.7753 C   0  0  0  0  0  0  0  0  0  0  0  0
   18.9484  -22.6051  -12.2072 C   0  0  2  0  0  0  0  0  0  0  0  0
   18.8825  -22.5212  -13.6995 C   0  0  0  0  0  0  0  0  0  0  0  0
   20.3285  -22.7192  -11.6673 C   0  0  0  0  0  0  0  0  0  0  0  0
   21.1757  -21.5205  -11.9363 C   0  0  2  0  0  0  0  0  0  0  0  0
   22.5352  -21.7055  -11.4548 N   0  0  0  0  0  0  0  0  0  0  0  0
   20.6652  -20.2912  -11.3168 C   0  0  0  0  0  0  0  0  0  0  0  0
   20.9809  -19.9592  -10.0056 O   0  0  0  0  0  0  0  0  0  0  0  0
   19.9107  -19.4889  -11.9693 O   0  0  0  0  0  0  0  0  0  0  0  0
  1  2  1  0
  2  3  1  0
  3  4  2  0
  5  3  1  0
  5  6  1  0
  6  9  1  0
  6  7  1  1
  8  7  1  0
  9 10  2  0
 12 14  1  0
 12 11  1  6
 13 12  1  0
 15 14  1  1
 15 17  1  0
 16  9  1  0
 16 15  1  0
 17 19  2  0
 17 18  1  0
M  END
$$$$
