GCL.pdb
     RDKit          3D

 19 18  0  0  1  0  0  0  0  0999 V2000
   22.9605  -18.8823  -14.1417 N   0  0  0  0  0  0  0  0  0  0  0  0
   24.2089  -18.6219  -13.5042 C   0  0  0  0  0  0  0  0  0  0  0  0
   24.8524  -19.8841  -13.0708 C   0  0  0  0  0  0  0  0  0  0  0  0
   24.2263  -20.9607  -13.2197 O   0  0  0  0  0  0  0  0  0  0  0  0
   26.1525  -19.9251  -12.4921 N   0  0  0  0  0  0  0  0  0  0  0  0
   26.7256  -21.1600  -11.9933 C   0  0  1  0  0  0  0  0  0  0  0  0
   28.0665  -21.3664  -12.7099 C   0  0  0  0  0  0  0  0  0  0  0  0
   28.9769  -19.8355  -12.8699 S   0  0  0  0  0  0  0  0  0  0  0  0
   26.9858  -21.0818  -10.5308 C   0  0  0  0  0  0  0  0  0  0  0  0
   28.1724  -20.9109  -10.1571 O   0  0  0  0  0  0  0  0  0  0  0  0
   27.7726  -18.2782   -6.1023 C   0  0  0  0  0  0  0  0  0  0  0  0
   27.4660  -19.7564   -6.4125 C   0  0  2  0  0  0  0  0  0  0  0  0
   28.6232  -20.5667   -5.9202 C   0  0  0  0  0  0  0  0  0  0  0  0
   27.1741  -19.9338   -7.8592 C   0  0  0  0  0  0  0  0  0  0  0  0
   26.3254  -21.1251   -8.1551 C   0  0  2  0  0  0  0  0  0  0  0  0
   25.9653  -21.1909   -9.5624 N   0  0  0  0  0  0  0  0  0  0  0  0
   25.0727  -21.1567   -7.3901 C   0  0  0  0  0  0  0  0  0  0  0  0
   25.0610  -21.4729   -6.0377 O   0  0  0  0  0  0  0  0  0  0  0  0
   23.9519  -20.8944   -7.9503 O   0  0  0  0  0  0  0  0  0  0  0  0
  1  2  1  0
  2  3  1  0
  3  4  2  0
  5  3  1  0
  5  6  1  0
  6  9  1  0
  6  7  1  6
  8  7  1  0
  9 10  2  0
 12 14  1  0
 12 11  1  6
 13 12  1  0
 15 14  1  6
 15 17  1  0
 16  9  1  0
 16 15  1  0
 17 19  2  0
 17 18  1  0
M  END
$$$$
