GCL.pdb
     RDKit          3D

 19 18  0  0  1  0  0  0  0  0999 V2000
   15.2897  -13.0935  -13.3181 N   0  0  0  0  0  0  0  0  0  0  0  0
   14.8364  -11.7900  -13.6760 C   0  0  0  0  0  0  0  0  0  0  0  0
   15.6723  -10.7475  -13.0357 C   0  0  0  0  0  0  0  0  0  0  0  0
   16.1971  -10.9960  -11.9240 O   0  0  0  0  0  0  0  0  0  0  0  0
   15.9041   -9.4752  -13.6308 N   0  0  0  0  0  0  0  0  0  0  0  0
   16.8345   -8.5235  -13.0556 C   0  0  1  0  0  0  0  0  0  0  0  0
   17.6275   -7.9002  -14.2118 C   0  0  0  0  0  0  0  0  0  0  0  0
   18.8075   -6.6884  -13.6310 S   0  0  0  0  0  0  0  0  0  0  0  0
   16.1182   -7.4334  -12.3407 C   0  0  0  0  0  0  0  0  0  0  0  0
   15.0923   -6.9544  -12.8838 O   0  0  0  0  0  0  0  0  0  0  0  0
   13.4277   -6.9841   -8.9101 C   0  0  0  0  0  0  0  0  0  0  0  0
   14.8891   -7.1916   -8.4665 C   0  0  2  0  0  0  0  0  0  0  0  0
   14.8869   -7.3538   -6.9792 C   0  0  0  0  0  0  0  0  0  0  0  0
   15.7430   -6.0765   -8.9530 C   0  0  0  0  0  0  0  0  0  0  0  0
   15.7268   -5.9157  -10.4365 C   0  0  2  0  0  0  0  0  0  0  0  0
   16.5414   -6.9249  -11.0942 N   0  0  0  0  0  0  0  0  0  0  0  0
   16.2163   -4.6077  -10.8896 C   0  0  0  0  0  0  0  0  0  0  0  0
   15.4546   -3.4574  -10.7292 O   0  0  0  0  0  0  0  0  0  0  0  0
   17.3618   -4.4906  -11.4486 O   0  0  0  0  0  0  0  0  0  0  0  0
  1  2  1  0
  2  3  1  0
  3  4  2  0
  5  3  1  0
  5  6  1  0
  6  9  1  0
  6  7  1  6
  8  7  1  0
  9 10  2  0
 12 14  1  0
 12 11  1  1
 13 12  1  0
 15 14  1  1
 15 17  1  0
 16  9  1  0
 16 15  1  0
 17 19  2  0
 17 18  1  0
M  END
$$$$
