GCL.pdb
     RDKit          3D

 19 18  0  0  1  0  0  0  0  0999 V2000
   17.2488  -15.2464  -16.7157 N   0  0  0  0  0  0  0  0  0  0  0  0
   16.9839  -13.9759  -16.1254 C   0  0  0  0  0  0  0  0  0  0  0  0
   17.7515  -12.9079  -16.8077 C   0  0  0  0  0  0  0  0  0  0  0  0
   17.5445  -12.7038  -18.0278 O   0  0  0  0  0  0  0  0  0  0  0  0
   18.7145  -12.1036  -16.1349 N   0  0  0  0  0  0  0  0  0  0  0  0
   19.2047  -10.8644  -16.7061 C   0  0  1  0  0  0  0  0  0  0  0  0
   18.0690   -9.8367  -16.6168 C   0  0  0  0  0  0  0  0  0  0  0  0
   18.6192   -8.1972  -17.0729 S   0  0  0  0  0  0  0  0  0  0  0  0
   20.3682  -10.3410  -15.9413 C   0  0  0  0  0  0  0  0  0  0  0  0
   20.2624  -10.2713  -14.6920 O   0  0  0  0  0  0  0  0  0  0  0  0
   26.4560  -10.1506  -16.2303 C   0  0  0  0  0  0  0  0  0  0  0  0
   25.1698   -9.8651  -15.4305 C   0  0  2  0  0  0  0  0  0  0  0  0
   25.2672  -10.6188  -14.1418 C   0  0  0  0  0  0  0  0  0  0  0  0
   23.9694  -10.2015  -16.2399 C   0  0  0  0  0  0  0  0  0  0  0  0
   22.7089   -9.5969  -15.7176 C   0  0  2  0  0  0  0  0  0  0  0  0
   21.5682   -9.9261  -16.5572 N   0  0  0  0  0  0  0  0  0  0  0  0
   22.7589   -8.1330  -15.6172 C   0  0  0  0  0  0  0  0  0  0  0  0
   23.1694   -7.5037  -14.4490 O   0  0  0  0  0  0  0  0  0  0  0  0
   22.4227   -7.3930  -16.6061 O   0  0  0  0  0  0  0  0  0  0  0  0
  1  2  1  0
  2  3  1  0
  3  4  2  0
  5  3  1  0
  5  6  1  0
  6  9  1  0
  6  7  1  1
  8  7  1  0
  9 10  2  0
 12 14  1  0
 12 11  1  6
 13 12  1  0
 15 14  1  6
 15 17  1  0
 16  9  1  0
 16 15  1  0
 17 19  2  0
 17 18  1  0
M  END
$$$$
