GCL.pdb
     RDKit          3D

 19 18  0  0  1  0  0  0  0  0999 V2000
   28.7862  -20.7110  -14.8309 N   0  0  0  0  0  0  0  0  0  0  0  0
   27.9881  -19.8459  -14.0263 C   0  0  0  0  0  0  0  0  0  0  0  0
   26.9037  -20.6014  -13.3565 C   0  0  0  0  0  0  0  0  0  0  0  0
   26.3874  -21.5735  -13.9579 O   0  0  0  0  0  0  0  0  0  0  0  0
   26.4236  -20.2689  -12.0582 N   0  0  0  0  0  0  0  0  0  0  0  0
   25.2490  -20.9050  -11.4944 C   0  0  1  0  0  0  0  0  0  0  0  0
   25.2166  -20.5665   -9.9984 C   0  0  0  0  0  0  0  0  0  0  0  0
   26.7707  -20.9438   -9.1979 S   0  0  0  0  0  0  0  0  0  0  0  0
   24.0024  -20.3845  -12.1172 C   0  0  0  0  0  0  0  0  0  0  0  0
   23.7971  -19.1467  -12.0666 O   0  0  0  0  0  0  0  0  0  0  0  0
   22.7516  -19.1197  -15.7768 C   0  0  0  0  0  0  0  0  0  0  0  0
   22.6942  -20.6568  -15.6794 C   0  0  2  0  0  0  0  0  0  0  0  0
   22.5137  -21.1871  -17.0667 C   0  0  0  0  0  0  0  0  0  0  0  0
   21.6332  -21.0777  -14.7272 C   0  0  0  0  0  0  0  0  0  0  0  0
   21.8665  -20.6107  -13.3292 C   0  0  2  0  0  0  0  0  0  0  0  0
   23.0563  -21.2163  -12.7529 N   0  0  0  0  0  0  0  0  0  0  0  0
   20.7522  -20.9049  -12.4195 C   0  0  0  0  0  0  0  0  0  0  0  0
   19.5821  -20.1572  -12.4466 O   0  0  0  0  0  0  0  0  0  0  0  0
   20.8288  -21.8610  -11.5717 O   0  0  0  0  0  0  0  0  0  0  0  0
  1  2  1  0
  2  3  1  0
  3  4  2  0
  5  3  1  0
  5  6  1  0
  6  9  1  0
  6  7  1  1
  8  7  1  0
  9 10  2  0
 12 14  1  0
 12 11  1  6
 13 12  1  0
 15 14  1  6
 15 17  1  0
 16  9  1  0
 16 15  1  0
 17 19  2  0
 17 18  1  0
M  END
$$$$
