GCL.pdb
     RDKit          3D

 19 18  0  0  1  0  0  0  0  0999 V2000
   23.7493  -18.6257  -15.1334 N   0  0  0  0  0  0  0  0  0  0  0  0
   24.5828  -18.3717  -14.0049 C   0  0  0  0  0  0  0  0  0  0  0  0
   25.2023  -19.6253  -13.5149 C   0  0  0  0  0  0  0  0  0  0  0  0
   24.5410  -20.6890  -13.5808 O   0  0  0  0  0  0  0  0  0  0  0  0
   26.5177  -19.6719  -12.9723 N   0  0  0  0  0  0  0  0  0  0  0  0
   27.0739  -20.8950  -12.4275 C   0  0  1  0  0  0  0  0  0  0  0  0
   28.5821  -20.8788  -12.7087 C   0  0  0  0  0  0  0  0  0  0  0  0
   28.9514  -20.1804  -14.3131 S   0  0  0  0  0  0  0  0  0  0  0  0
   26.8751  -20.9690  -10.9552 C   0  0  0  0  0  0  0  0  0  0  0  0
   27.8775  -21.2222  -10.2424 O   0  0  0  0  0  0  0  0  0  0  0  0
   27.7106  -21.1563   -6.9676 C   0  0  0  0  0  0  0  0  0  0  0  0
   27.4472  -19.8707   -7.7758 C   0  0  2  0  0  0  0  0  0  0  0  0
   27.9439  -18.7192   -6.9599 C   0  0  0  0  0  0  0  0  0  0  0  0
   26.0109  -19.7754   -8.1466 C   0  0  0  0  0  0  0  0  0  0  0  0
   25.5095  -20.9610   -8.9015 C   0  0  2  0  0  0  0  0  0  0  0  0
   25.6218  -20.7685  -10.3385 N   0  0  0  0  0  0  0  0  0  0  0  0
   24.1049  -21.2833   -8.6207 C   0  0  0  0  0  0  0  0  0  0  0  0
   23.7212  -21.8403   -7.4076 O   0  0  0  0  0  0  0  0  0  0  0  0
   23.1915  -21.0610   -9.4896 O   0  0  0  0  0  0  0  0  0  0  0  0
  1  2  1  0
  2  3  1  0
  3  4  2  0
  5  3  1  0
  5  6  1  0
  6  9  1  0
  6  7  1  1
  8  7  1  0
  9 10  2  0
 12 14  1  0
 12 11  1  1
 13 12  1  0
 15 14  1  1
 15 17  1  0
 16  9  1  0
 16 15  1  0
 17 19  2  0
 17 18  1  0
M  END
$$$$
