GCL.pdb
     RDKit          3D

 19 18  0  0  1  0  0  0  0  0999 V2000
   19.0927  -11.1850  -17.5078 N   0  0  0  0  0  0  0  0  0  0  0  0
   18.6963   -9.8156  -17.5179 C   0  0  0  0  0  0  0  0  0  0  0  0
   19.3750   -9.0628  -16.4371 C   0  0  0  0  0  0  0  0  0  0  0  0
   18.6730   -8.4333  -15.6100 O   0  0  0  0  0  0  0  0  0  0  0  0
   20.7914   -9.0248  -16.2989 N   0  0  0  0  0  0  0  0  0  0  0  0
   21.4311   -8.3251  -15.2020 C   0  0  1  0  0  0  0  0  0  0  0  0
   22.8575   -8.8760  -15.0754 C   0  0  0  0  0  0  0  0  0  0  0  0
   22.8922  -10.4360  -14.2015 S   0  0  0  0  0  0  0  0  0  0  0  0
   21.5177   -6.8647  -15.4710 C   0  0  0  0  0  0  0  0  0  0  0  0
   21.9692   -6.5019  -16.5851 O   0  0  0  0  0  0  0  0  0  0  0  0
   19.2752   -3.5634  -17.1735 C   0  0  0  0  0  0  0  0  0  0  0  0
   18.8863   -4.1882  -15.8194 C   0  0  2  0  0  0  0  0  0  0  0  0
   17.4811   -3.7705  -15.5205 C   0  0  0  0  0  0  0  0  0  0  0  0
   19.8678   -3.8069  -14.7703 C   0  0  0  0  0  0  0  0  0  0  0  0
   21.1895   -4.4845  -14.9149 C   0  0  2  0  0  0  0  0  0  0  0  0
   21.1176   -5.8866  -14.5359 N   0  0  0  0  0  0  0  0  0  0  0  0
   22.2520   -3.8755  -14.1050 C   0  0  0  0  0  0  0  0  0  0  0  0
   22.8511   -4.5692  -13.0614 O   0  0  0  0  0  0  0  0  0  0  0  0
   22.6562   -2.6834  -14.3375 O   0  0  0  0  0  0  0  0  0  0  0  0
  1  2  1  0
  2  3  1  0
  3  4  2  0
  5  3  1  0
  5  6  1  0
  6  9  1  0
  6  7  1  6
  8  7  1  0
  9 10  2  0
 12 14  1  0
 12 11  1  6
 13 12  1  0
 15 14  1  1
 15 17  1  0
 16  9  1  0
 16 15  1  0
 17 19  2  0
 17 18  1  0
M  END
$$$$
