GCL.pdb
     RDKit          3D

 19 18  0  0  1  0  0  0  0  0999 V2000
   16.8974  -12.5528  -14.9236 N   0  0  0  0  0  0  0  0  0  0  0  0
   16.2255  -11.3087  -14.7408 C   0  0  0  0  0  0  0  0  0  0  0  0
   16.7925  -10.5680  -13.5896 C   0  0  0  0  0  0  0  0  0  0  0  0
   16.7452  -11.0954  -12.4526 O   0  0  0  0  0  0  0  0  0  0  0  0
   17.3889   -9.2820  -13.7212 N   0  0  0  0  0  0  0  0  0  0  0  0
   17.8823   -8.5500  -12.5711 C   0  0  1  0  0  0  0  0  0  0  0  0
   18.8883   -7.5115  -13.0846 C   0  0  0  0  0  0  0  0  0  0  0  0
   20.4645   -8.2551  -13.4858 S   0  0  0  0  0  0  0  0  0  0  0  0
   16.7813   -7.8291  -11.8775 C   0  0  0  0  0  0  0  0  0  0  0  0
   15.8435   -7.3794  -12.5812 O   0  0  0  0  0  0  0  0  0  0  0  0
   14.5541   -6.4759   -6.2629 C   0  0  0  0  0  0  0  0  0  0  0  0
   14.3734   -6.4653   -7.7934 C   0  0  2  0  0  0  0  0  0  0  0  0
   12.9998   -6.9812   -8.0857 C   0  0  0  0  0  0  0  0  0  0  0  0
   15.4620   -7.2352   -8.4504 C   0  0  0  0  0  0  0  0  0  0  0  0
   15.6318   -6.9126   -9.8975 C   0  0  2  0  0  0  0  0  0  0  0  0
   16.7514   -7.6346  -10.4802 N   0  0  0  0  0  0  0  0  0  0  0  0
   15.8603   -5.4856  -10.1569 C   0  0  0  0  0  0  0  0  0  0  0  0
   14.8167   -4.6408  -10.5124 O   0  0  0  0  0  0  0  0  0  0  0  0
   17.0320   -4.9786  -10.0640 O   0  0  0  0  0  0  0  0  0  0  0  0
  1  2  1  0
  2  3  1  0
  3  4  2  0
  5  3  1  0
  5  6  1  0
  6  9  1  0
  6  7  1  6
  8  7  1  0
  9 10  2  0
 12 14  1  0
 12 11  1  1
 13 12  1  0
 15 14  1  1
 15 17  1  0
 16  9  1  0
 16 15  1  0
 17 19  2  0
 17 18  1  0
M  END
$$$$
