GCL.pdb
     RDKit          3D

 19 18  0  0  1  0  0  0  0  0999 V2000
   27.2607  -19.5630  -15.2523 N   0  0  0  0  0  0  0  0  0  0  0  0
   27.3642  -20.5028  -14.1852 C   0  0  0  0  0  0  0  0  0  0  0  0
   26.5699  -20.0609  -13.0151 C   0  0  0  0  0  0  0  0  0  0  0  0
   26.1509  -18.8791  -12.9841 O   0  0  0  0  0  0  0  0  0  0  0  0
   26.2628  -20.9228  -11.9245 N   0  0  0  0  0  0  0  0  0  0  0  0
   25.5318  -20.4521  -10.7642 C   0  0  1  0  0  0  0  0  0  0  0  0
   24.1679  -21.1546  -10.7645 C   0  0  0  0  0  0  0  0  0  0  0  0
   23.1737  -20.6763   -9.3570 S   0  0  0  0  0  0  0  0  0  0  0  0
   26.2372  -20.8044   -9.5028 C   0  0  0  0  0  0  0  0  0  0  0  0
   26.5771  -22.0021   -9.3387 O   0  0  0  0  0  0  0  0  0  0  0  0
   28.7406  -18.3712   -4.3721 C   0  0  0  0  0  0  0  0  0  0  0  0
   28.2854  -19.6107   -5.1669 C   0  0  2  0  0  0  0  0  0  0  0  0
   29.4361  -20.5660   -5.2046 C   0  0  0  0  0  0  0  0  0  0  0  0
   27.7845  -19.2123   -6.5085 C   0  0  0  0  0  0  0  0  0  0  0  0
   27.1161  -20.3218   -7.2496 C   0  0  2  0  0  0  0  0  0  0  0  0
   26.5344  -19.8582   -8.4990 N   0  0  0  0  0  0  0  0  0  0  0  0
   26.0394  -20.9689   -6.4896 C   0  0  0  0  0  0  0  0  0  0  0  0
   24.7085  -20.6248   -6.6883 O   0  0  0  0  0  0  0  0  0  0  0  0
   26.2979  -21.8704   -5.6182 O   0  0  0  0  0  0  0  0  0  0  0  0
  1  2  1  0
  2  3  1  0
  3  4  2  0
  5  3  1  0
  5  6  1  0
  6  9  1  0
  6  7  1  1
  8  7  1  0
  9 10  2  0
 12 14  1  0
 12 11  1  6
 13 12  1  0
 15 14  1  1
 15 17  1  0
 16  9  1  0
 16 15  1  0
 17 19  2  0
 17 18  1  0
M  END
$$$$
