GCL.pdb
     RDKit          3D

 19 18  0  0  1  0  0  0  0  0999 V2000
   18.8099  -12.5514  -16.8793 N   0  0  0  0  0  0  0  0  0  0  0  0
   19.2154  -11.2674  -17.3481 C   0  0  0  0  0  0  0  0  0  0  0  0
   20.0487  -10.5764  -16.3365 C   0  0  0  0  0  0  0  0  0  0  0  0
   19.5297  -10.2712  -15.2362 O   0  0  0  0  0  0  0  0  0  0  0  0
   21.4146  -10.2445  -16.5623 N   0  0  0  0  0  0  0  0  0  0  0  0
   22.1684   -9.4394  -15.6212 C   0  0  1  0  0  0  0  0  0  0  0  0
   23.6563   -9.7324  -15.8547 C   0  0  0  0  0  0  0  0  0  0  0  0
   24.1648  -11.2561  -15.0684 S   0  0  0  0  0  0  0  0  0  0  0  0
   21.9381   -7.9874  -15.8478 C   0  0  0  0  0  0  0  0  0  0  0  0
   21.7932   -7.5970  -17.0325 O   0  0  0  0  0  0  0  0  0  0  0  0
   18.3045   -3.7618  -15.5520 C   0  0  0  0  0  0  0  0  0  0  0  0
   19.8221   -4.0029  -15.6694 C   0  0  2  0  0  0  0  0  0  0  0  0
   20.2382   -3.5779  -17.0422 C   0  0  0  0  0  0  0  0  0  0  0  0
   20.1500   -5.4166  -15.3476 C   0  0  0  0  0  0  0  0  0  0  0  0
   21.6055   -5.6547  -15.1198 C   0  0  2  0  0  0  0  0  0  0  0  0
   21.8773   -7.0465  -14.7980 N   0  0  0  0  0  0  0  0  0  0  0  0
   22.1684   -4.8454  -14.0318 C   0  0  0  0  0  0  0  0  0  0  0  0
   22.5347   -3.5208  -14.2331 O   0  0  0  0  0  0  0  0  0  0  0  0
   22.3397   -5.3399  -12.8636 O   0  0  0  0  0  0  0  0  0  0  0  0
  1  2  1  0
  2  3  1  0
  3  4  2  0
  5  3  1  0
  5  6  1  0
  6  9  1  0
  6  7  1  6
  8  7  1  0
  9 10  2  0
 12 14  1  0
 12 11  1  6
 13 12  1  0
 15 14  1  1
 15 17  1  0
 16  9  1  0
 16 15  1  0
 17 19  2  0
 17 18  1  0
M  END
$$$$
