GCL.pdb
     RDKit          3D

 19 18  0  0  1  0  0  0  0  0999 V2000
   13.0503  -13.1416  -11.6947 N   0  0  0  0  0  0  0  0  0  0  0  0
   12.8156  -11.7387  -11.7913 C   0  0  0  0  0  0  0  0  0  0  0  0
   13.8776  -10.9776  -11.0926 C   0  0  0  0  0  0  0  0  0  0  0  0
   13.8227  -10.8762   -9.8437 O   0  0  0  0  0  0  0  0  0  0  0  0
   14.9580  -10.3566  -11.7810 N   0  0  0  0  0  0  0  0  0  0  0  0
   15.9216   -9.5217  -11.0906 C   0  0  1  0  0  0  0  0  0  0  0  0
   17.0783   -9.2551  -12.0627 C   0  0  0  0  0  0  0  0  0  0  0  0
   18.2721  -10.5867  -12.0561 S   0  0  0  0  0  0  0  0  0  0  0  0
   15.3251   -8.2143  -10.7063 C   0  0  0  0  0  0  0  0  0  0  0  0
   14.5254   -7.6778  -11.5122 O   0  0  0  0  0  0  0  0  0  0  0  0
   14.4323   -4.4436   -5.9211 C   0  0  0  0  0  0  0  0  0  0  0  0
   14.0984   -4.8326   -7.3746 C   0  0  2  0  0  0  0  0  0  0  0  0
   12.6080   -4.8389   -7.5053 C   0  0  0  0  0  0  0  0  0  0  0  0
   14.7429   -6.1245   -7.7278 C   0  0  0  0  0  0  0  0  0  0  0  0
   14.9631   -6.3007   -9.1932 C   0  0  2  0  0  0  0  0  0  0  0  0
   15.6194   -7.5642   -9.4889 N   0  0  0  0  0  0  0  0  0  0  0  0
   15.7827   -5.2411   -9.7942 C   0  0  0  0  0  0  0  0  0  0  0  0
   15.2029   -4.1052  -10.3446 O   0  0  0  0  0  0  0  0  0  0  0  0
   17.0588   -5.3353   -9.8295 O   0  0  0  0  0  0  0  0  0  0  0  0
  1  2  1  0
  2  3  1  0
  3  4  2  0
  5  3  1  0
  5  6  1  0
  6  9  1  0
  6  7  1  6
  8  7  1  0
  9 10  2  0
 12 14  1  0
 12 11  1  1
 13 12  1  0
 15 14  1  1
 15 17  1  0
 16  9  1  0
 16 15  1  0
 17 19  2  0
 17 18  1  0
M  END
$$$$
