GCL.pdb
     RDKit          3D

 19 18  0  0  1  0  0  0  0  0999 V2000
   18.1234  -11.6806  -15.3605 N   0  0  0  0  0  0  0  0  0  0  0  0
   17.4135  -10.4785  -15.0711 C   0  0  0  0  0  0  0  0  0  0  0  0
   17.8596   -9.9009  -13.7816 C   0  0  0  0  0  0  0  0  0  0  0  0
   17.6514  -10.5487  -12.7280 O   0  0  0  0  0  0  0  0  0  0  0  0
   18.5150   -8.6404  -13.6895 N   0  0  0  0  0  0  0  0  0  0  0  0
   18.7875   -8.0153  -12.4101 C   0  0  1  0  0  0  0  0  0  0  0  0
   19.8453   -6.9292  -12.6455 C   0  0  0  0  0  0  0  0  0  0  0  0
   21.4572   -7.6314  -12.9726 S   0  0  0  0  0  0  0  0  0  0  0  0
   17.5688   -7.3667  -11.8562 C   0  0  0  0  0  0  0  0  0  0  0  0
   16.7526   -6.8667  -12.6691 O   0  0  0  0  0  0  0  0  0  0  0  0
   14.4083   -6.5154   -6.6115 C   0  0  0  0  0  0  0  0  0  0  0  0
   14.4380   -6.4748   -8.1519 C   0  0  2  0  0  0  0  0  0  0  0  0
   13.1713   -7.1030   -8.6410 C   0  0  0  0  0  0  0  0  0  0  0  0
   15.6732   -7.1234   -8.6649 C   0  0  0  0  0  0  0  0  0  0  0  0
   16.0608   -6.6707  -10.0330 C   0  0  2  0  0  0  0  0  0  0  0  0
   17.2992   -7.2931  -10.4731 N   0  0  0  0  0  0  0  0  0  0  0  0
   16.2499   -5.2185  -10.1382 C   0  0  0  0  0  0  0  0  0  0  0  0
   15.2196   -4.3851  -10.5541 O   0  0  0  0  0  0  0  0  0  0  0  0
   17.3740   -4.6780   -9.8501 O   0  0  0  0  0  0  0  0  0  0  0  0
  1  2  1  0
  2  3  1  0
  3  4  2  0
  5  3  1  0
  5  6  1  0
  6  9  1  0
  6  7  1  6
  8  7  1  0
  9 10  2  0
 12 14  1  0
 12 11  1  1
 13 12  1  0
 15 14  1  1
 15 17  1  0
 16  9  1  0
 16 15  1  0
 17 19  2  0
 17 18  1  0
M  END
$$$$
