GCL.pdb
     RDKit          3D

 19 18  0  0  1  0  0  0  0  0999 V2000
   28.6027  -21.2525  -15.3462 N   0  0  0  0  0  0  0  0  0  0  0  0
   28.1802  -20.5318  -14.1909 C   0  0  0  0  0  0  0  0  0  0  0  0
   26.9491  -21.1267  -13.6201 C   0  0  0  0  0  0  0  0  0  0  0  0
   26.1989  -21.7940  -14.3718 O   0  0  0  0  0  0  0  0  0  0  0  0
   26.5826  -20.9718  -12.2532 N   0  0  0  0  0  0  0  0  0  0  0  0
   25.2648  -21.3375  -11.7717 C   0  0  1  0  0  0  0  0  0  0  0  0
   25.3129  -21.3129  -10.2384 C   0  0  0  0  0  0  0  0  0  0  0  0
   26.4470  -20.0717   -9.6289 S   0  0  0  0  0  0  0  0  0  0  0  0
   24.2362  -20.3616  -12.2215 C   0  0  0  0  0  0  0  0  0  0  0  0
   24.6285  -19.2255  -12.5852 O   0  0  0  0  0  0  0  0  0  0  0  0
   21.5148  -18.4928  -15.6231 C   0  0  0  0  0  0  0  0  0  0  0  0
   21.9815  -19.9432  -15.8552 C   0  0  2  0  0  0  0  0  0  0  0  0
   20.7691  -20.7570  -16.1814 C   0  0  0  0  0  0  0  0  0  0  0  0
   22.7446  -20.4378  -14.6794 C   0  0  0  0  0  0  0  0  0  0  0  0
   22.0642  -20.1825  -13.3759 C   0  0  2  0  0  0  0  0  0  0  0  0
   22.8573  -20.6597  -12.2545 N   0  0  0  0  0  0  0  0  0  0  0  0
   20.7450  -20.8178  -13.2692 C   0  0  0  0  0  0  0  0  0  0  0  0
   19.5820  -20.0606  -13.2124 O   0  0  0  0  0  0  0  0  0  0  0  0
   20.6291  -22.0919  -13.2235 O   0  0  0  0  0  0  0  0  0  0  0  0
  1  2  1  0
  2  3  1  0
  3  4  2  0
  5  3  1  0
  5  6  1  0
  6  9  1  0
  6  7  1  1
  8  7  1  0
  9 10  2  0
 12 14  1  0
 12 11  1  1
 13 12  1  0
 15 14  1  6
 15 17  1  0
 16  9  1  0
 16 15  1  0
 17 19  2  0
 17 18  1  0
M  END
$$$$
