KYP.pdb
     RDKit          3D

 29 30  0  0  1  0  0  0  0  0999 V2000
    5.3320  -20.4108   24.3450 N   0  0  0  0  0  0  0  0  0  0  0  0
    6.4844  -19.5977   24.0440 C   0  0  1  0  0  0  0  0  0  0  0  0
    7.1107  -19.9809   22.7113 C   0  0  0  0  0  0  0  0  0  0  0  0
    7.2664  -21.4637   22.5833 C   0  0  0  0  0  0  0  0  0  0  0  0
    8.6331  -21.9266   22.2487 C   0  0  0  0  0  0  0  0  0  0  0  0
    8.8228  -23.4073   22.1237 C   0  0  0  0  0  0  0  0  0  0  0  0
    8.7026  -23.8232   20.7680 N   0  0  0  0  0  0  0  0  0  0  0  0
    6.1117  -18.1742   24.0135 C   0  0  0  0  0  0  0  0  0  0  0  0
    4.9541  -17.7757   23.6854 O   0  0  0  0  0  0  0  0  0  0  0  0
   10.9382  -14.8680   28.8563 O   0  0  0  0  0  0  0  0  0  0  0  0
    9.9166  -14.8741   27.9161 C   0  0  0  0  0  0  0  0  0  0  0  0
    9.4863  -13.6969   27.3600 C   0  0  0  0  0  0  0  0  0  0  0  0
    8.4699  -13.7134   26.4265 C   0  0  0  0  0  0  0  0  0  0  0  0
    7.8341  -14.8698   25.9978 C   0  0  0  0  0  0  0  0  0  0  0  0
    6.7635  -14.8896   25.0027 C   0  0  0  0  0  0  0  0  0  0  0  0
    6.9443  -15.7924   23.8209 C   0  0  2  0  0  0  0  0  0  0  0  0
    7.0486  -17.1906   24.3548 N   0  0  0  0  0  0  0  0  0  0  0  0
    8.1123  -15.5855   22.9868 C   0  0  0  0  0  0  0  0  0  0  0  0
    8.9592  -16.5683   22.9382 O   0  0  0  0  0  0  0  0  0  0  0  0
    8.3093  -16.0453   26.5948 C   0  0  0  0  0  0  0  0  0  0  0  0
    9.3191  -16.0578   27.5265 C   0  0  0  0  0  0  0  0  0  0  0  0
    8.4787  -14.4838   22.2066 N   0  0  0  0  0  0  0  0  0  0  0  0
    8.1865  -13.0950   22.4786 C   0  0  0  0  0  0  0  0  0  0  0  0
    7.6170  -12.6635   21.1320 C   0  0  0  0  0  0  0  0  0  0  0  0
    8.2848  -13.5491   20.1060 C   0  0  0  0  0  0  0  0  0  0  0  0
    9.1740  -14.4407   20.9394 C   0  0  1  0  0  0  0  0  0  0  0  0
   10.5579  -13.9594   21.0114 C   0  0  0  0  0  0  0  0  0  0  0  0
   10.9171  -13.3680   22.0533 O   0  0  0  0  0  0  0  0  0  0  0  0
   11.5139  -14.1023   20.0203 O   0  0  0  0  0  0  0  0  0  0  0  0
  2  1  1  6
  2  3  1  0
  3  4  1  0
  4  5  1  0
  6  7  1  0
  6  5  1  0
  8  2  1  0
  8  9  2  0
 10 11  1  0
 11 21  2  0
 12 11  1  0
 12 13  2  0
 13 14  1  0
 14 20  2  0
 14 15  1  0
 16 15  1  1
 16 17  1  0
 17  8  1  0
 18 16  1  0
 19 18  2  0
 21 20  1  0
 22 18  1  0
 22 26  1  0
 23 24  1  0
 23 22  1  0
 24 25  1  0
 26 25  1  0
 27 29  1  0
 26 27  1  1
 28 27  2  0
M  END
$$$$
