KYP.pdb
     RDKit          3D

 29 30  0  0  1  0  0  0  0  0999 V2000
    3.7705  -20.3175   22.6943 N   0  0  0  0  0  0  0  0  0  0  0  0
    5.1838  -20.0567   22.8139 C   0  0  1  0  0  0  0  0  0  0  0  0
    5.9555  -20.5764   21.6100 C   0  0  0  0  0  0  0  0  0  0  0  0
    6.9853  -21.5854   22.0110 C   0  0  0  0  0  0  0  0  0  0  0  0
    8.3867  -21.1076   21.9637 C   0  0  0  0  0  0  0  0  0  0  0  0
    9.4049  -22.0800   21.4522 C   0  0  0  0  0  0  0  0  0  0  0  0
   10.7203  -21.5506   21.5738 N   0  0  0  0  0  0  0  0  0  0  0  0
    5.4266  -18.6124   22.9592 C   0  0  0  0  0  0  0  0  0  0  0  0
    4.9852  -17.7568   22.1349 O   0  0  0  0  0  0  0  0  0  0  0  0
    7.6122  -10.9206   26.9631 O   0  0  0  0  0  0  0  0  0  0  0  0
    7.3512  -12.2436   26.6325 C   0  0  0  0  0  0  0  0  0  0  0  0
    6.0589  -12.7001   26.5902 C   0  0  0  0  0  0  0  0  0  0  0  0
    5.8098  -14.0170   26.2609 C   0  0  0  0  0  0  0  0  0  0  0  0
    6.8025  -14.9388   25.9605 C   0  0  0  0  0  0  0  0  0  0  0  0
    6.5395  -16.3316   25.6029 C   0  0  0  0  0  0  0  0  0  0  0  0
    6.5444  -16.6764   24.1451 C   0  0  2  0  0  0  0  0  0  0  0  0
    6.1720  -18.1261   24.0408 N   0  0  0  0  0  0  0  0  0  0  0  0
    7.7905  -16.5217   23.4197 C   0  0  0  0  0  0  0  0  0  0  0  0
    8.5073  -17.5955   23.2826 O   0  0  0  0  0  0  0  0  0  0  0  0
    8.1047  -14.4241   26.0172 C   0  0  0  0  0  0  0  0  0  0  0  0
    8.3812  -13.1180   26.3423 C   0  0  0  0  0  0  0  0  0  0  0  0
    8.3530  -15.3865   22.8269 N   0  0  0  0  0  0  0  0  0  0  0  0
    7.9647  -14.0122   23.0478 C   0  0  0  0  0  0  0  0  0  0  0  0
    7.8193  -13.5313   21.6086 C   0  0  0  0  0  0  0  0  0  0  0  0
    8.7829  -14.3693   20.8010 C   0  0  0  0  0  0  0  0  0  0  0  0
    9.3970  -15.2865   21.8314 C   0  0  1  0  0  0  0  0  0  0  0  0
   10.6850  -14.7972   22.3354 C   0  0  0  0  0  0  0  0  0  0  0  0
   10.7187  -14.3295   23.4948 O   0  0  0  0  0  0  0  0  0  0  0  0
   11.8803  -14.8068   21.6370 O   0  0  0  0  0  0  0  0  0  0  0  0
  2  1  1  6
  2  3  1  0
  3  4  1  0
  4  5  1  0
  6  7  1  0
  6  5  1  0
  8  2  1  0
  8  9  2  0
 10 11  1  0
 11 21  2  0
 12 11  1  0
 12 13  2  0
 13 14  1  0
 14 20  2  0
 14 15  1  0
 16 15  1  1
 16 17  1  0
 17  8  1  0
 18 16  1  0
 19 18  2  0
 21 20  1  0
 22 18  1  0
 22 26  1  0
 23 24  1  0
 23 22  1  0
 24 25  1  0
 26 25  1  0
 27 29  1  0
 26 27  1  1
 28 27  2  0
M  END
$$$$
