KYP.pdb
     RDKit          3D

 29 30  0  0  1  0  0  0  0  0999 V2000
    9.8336  -17.2990   20.3624 N   0  0  0  0  0  0  0  0  0  0  0  0
    9.6437  -15.8820   20.1734 C   0  0  1  0  0  0  0  0  0  0  0  0
    8.3420  -15.5810   19.4453 C   0  0  0  0  0  0  0  0  0  0  0  0
    8.1929  -14.1182   19.1678 C   0  0  0  0  0  0  0  0  0  0  0  0
    8.6103  -13.6885   17.8131 C   0  0  0  0  0  0  0  0  0  0  0  0
    8.0005  -14.4286   16.6623 C   0  0  0  0  0  0  0  0  0  0  0  0
    8.4564  -13.9037   15.4205 N   0  0  0  0  0  0  0  0  0  0  0  0
    9.6451  -15.1885   21.4716 C   0  0  0  0  0  0  0  0  0  0  0  0
   10.1208  -14.0240   21.6261 O   0  0  0  0  0  0  0  0  0  0  0  0
    5.9198  -11.5488   28.4645 O   0  0  0  0  0  0  0  0  0  0  0  0
    6.3066  -12.3184   27.3756 C   0  0  0  0  0  0  0  0  0  0  0  0
    6.2786  -13.6870   27.4557 C   0  0  0  0  0  0  0  0  0  0  0  0
    6.6655  -14.4432   26.3679 C   0  0  0  0  0  0  0  0  0  0  0  0
    7.0928  -13.9019   25.1639 C   0  0  0  0  0  0  0  0  0  0  0  0
    7.4943  -14.7017   24.0081 C   0  0  0  0  0  0  0  0  0  0  0  0
    8.9427  -15.0688   23.8997 C   0  0  2  0  0  0  0  0  0  0  0  0
    9.1069  -15.8100   22.6056 N   0  0  0  0  0  0  0  0  0  0  0  0
    9.5014  -15.9204   24.9319 C   0  0  0  0  0  0  0  0  0  0  0  0
    9.8358  -17.1193   24.5623 O   0  0  0  0  0  0  0  0  0  0  0  0
    7.1034  -12.5008   25.1322 C   0  0  0  0  0  0  0  0  0  0  0  0
    6.7240  -11.7238   26.2000 C   0  0  0  0  0  0  0  0  0  0  0  0
    9.7502  -15.6547   26.2825 N   0  0  0  0  0  0  0  0  0  0  0  0
    9.2399  -14.5447   27.0544 C   0  0  0  0  0  0  0  0  0  0  0  0
   10.5278  -14.0368   27.6927 C   0  0  0  0  0  0  0  0  0  0  0  0
   11.4241  -15.2468   27.8172 C   0  0  0  0  0  0  0  0  0  0  0  0
   10.5947  -16.3591   27.2214 C   0  0  1  0  0  0  0  0  0  0  0  0
    9.8743  -17.1389   28.2339 C   0  0  0  0  0  0  0  0  0  0  0  0
    8.6248  -17.0857   28.2321 O   0  0  0  0  0  0  0  0  0  0  0  0
   10.4582  -17.9381   29.2021 O   0  0  0  0  0  0  0  0  0  0  0  0
  2  1  1  1
  2  3  1  0
  3  4  1  0
  4  5  1  0
  6  7  1  0
  6  5  1  0
  8  2  1  0
  8  9  2  0
 10 11  1  0
 11 21  2  0
 12 11  1  0
 12 13  2  0
 13 14  1  0
 14 20  2  0
 14 15  1  0
 16 15  1  1
 16 17  1  0
 17  8  1  0
 18 16  1  0
 19 18  2  0
 21 20  1  0
 22 18  1  0
 22 26  1  0
 23 24  1  0
 23 22  1  0
 24 25  1  0
 26 25  1  0
 27 29  1  0
 26 27  1  1
 28 27  2  0
M  END
$$$$
