KYP.pdb
     RDKit          3D

 29 30  0  0  1  0  0  0  0  0999 V2000
   12.0062  -16.5653   20.1249 N   0  0  0  0  0  0  0  0  0  0  0  0
   11.2231  -17.2320   21.1359 C   0  0  1  0  0  0  0  0  0  0  0  0
   11.9487  -18.4441   21.7009 C   0  0  0  0  0  0  0  0  0  0  0  0
   12.6450  -19.2182   20.6261 C   0  0  0  0  0  0  0  0  0  0  0  0
   11.7785  -20.1323   19.8465 C   0  0  0  0  0  0  0  0  0  0  0  0
   12.4540  -20.9494   18.7882 C   0  0  0  0  0  0  0  0  0  0  0  0
   11.5056  -21.7143   18.0529 N   0  0  0  0  0  0  0  0  0  0  0  0
   10.9053  -16.3023   22.2318 C   0  0  0  0  0  0  0  0  0  0  0  0
   11.7519  -15.4874   22.7066 O   0  0  0  0  0  0  0  0  0  0  0  0
    5.5734  -11.7562   27.8581 O   0  0  0  0  0  0  0  0  0  0  0  0
    6.1277  -12.5476   26.8609 C   0  0  0  0  0  0  0  0  0  0  0  0
    6.8346  -11.9702   25.8376 C   0  0  0  0  0  0  0  0  0  0  0  0
    7.3813  -12.7654   24.8510 C   0  0  0  0  0  0  0  0  0  0  0  0
    7.2638  -14.1476   24.8198 C   0  0  0  0  0  0  0  0  0  0  0  0
    7.8499  -14.9918   23.7803 C   0  0  0  0  0  0  0  0  0  0  0  0
    9.2863  -15.3835   23.9460 C   0  0  2  0  0  0  0  0  0  0  0  0
    9.6244  -16.2890   22.7984 N   0  0  0  0  0  0  0  0  0  0  0  0
    9.6555  -16.0981   25.1525 C   0  0  0  0  0  0  0  0  0  0  0  0
   10.0146  -17.3357   24.9946 O   0  0  0  0  0  0  0  0  0  0  0  0
    6.5334  -14.6892   25.8863 C   0  0  0  0  0  0  0  0  0  0  0  0
    5.9782  -13.9213   26.8813 C   0  0  0  0  0  0  0  0  0  0  0  0
    9.6957  -15.6625   26.4812 N   0  0  0  0  0  0  0  0  0  0  0  0
    9.0801  -14.4715   27.0206 C   0  0  0  0  0  0  0  0  0  0  0  0
   10.2580  -13.8712   27.7796 C   0  0  0  0  0  0  0  0  0  0  0  0
   11.1168  -15.0444   28.1906 C   0  0  0  0  0  0  0  0  0  0  0  0
   10.3816  -16.2331   27.6192 C   0  0  1  0  0  0  0  0  0  0  0  0
    9.5094  -16.8896   28.5992 C   0  0  0  0  0  0  0  0  0  0  0  0
    8.2730  -16.7702   28.4531 O   0  0  0  0  0  0  0  0  0  0  0  0
    9.9349  -17.6385   29.6832 O   0  0  0  0  0  0  0  0  0  0  0  0
  2  1  1  6
  2  3  1  0
  3  4  1  0
  4  5  1  0
  6  7  1  0
  6  5  1  0
  8  2  1  0
  8  9  2  0
 10 11  1  0
 11 21  2  0
 12 11  1  0
 12 13  2  0
 13 14  1  0
 14 20  2  0
 14 15  1  0
 16 15  1  1
 16 17  1  0
 17  8  1  0
 18 16  1  0
 19 18  2  0
 21 20  1  0
 22 18  1  0
 22 26  1  0
 23 24  1  0
 23 22  1  0
 24 25  1  0
 26 25  1  0
 27 29  1  0
 26 27  1  1
 28 27  2  0
M  END
$$$$
