KYP.pdb
     RDKit          3D

 29 30  0  0  1  0  0  0  0  0999 V2000
    7.0721  -16.0836   19.7931 N   0  0  0  0  0  0  0  0  0  0  0  0
    7.5439  -14.9580   20.5614 C   0  0  1  0  0  0  0  0  0  0  0  0
    6.9228  -13.6528   20.0865 C   0  0  0  0  0  0  0  0  0  0  0  0
    7.1882  -13.4146   18.6332 C   0  0  0  0  0  0  0  0  0  0  0  0
    8.5714  -13.7052   18.1899 C   0  0  0  0  0  0  0  0  0  0  0  0
    8.8933  -13.3890   16.7615 C   0  0  0  0  0  0  0  0  0  0  0  0
   10.2304  -13.7609   16.4467 N   0  0  0  0  0  0  0  0  0  0  0  0
    7.2390  -15.1495   21.9885 C   0  0  0  0  0  0  0  0  0  0  0  0
    6.2412  -14.6105   22.5545 O   0  0  0  0  0  0  0  0  0  0  0  0
    8.3229  -19.4906   29.8255 O   0  0  0  0  0  0  0  0  0  0  0  0
    8.2342  -19.0496   28.5120 C   0  0  0  0  0  0  0  0  0  0  0  0
    9.3600  -18.6351   27.8479 C   0  0  0  0  0  0  0  0  0  0  0  0
    9.2613  -18.1980   26.5424 C   0  0  0  0  0  0  0  0  0  0  0  0
    8.0697  -18.1469   25.8334 C   0  0  0  0  0  0  0  0  0  0  0  0
    7.9652  -17.6927   24.4478 C   0  0  0  0  0  0  0  0  0  0  0  0
    7.7324  -16.2300   24.2229 C   0  0  2  0  0  0  0  0  0  0  0  0
    8.0631  -15.9539   22.7858 N   0  0  0  0  0  0  0  0  0  0  0  0
    8.5132  -15.2943   25.0088 C   0  0  0  0  0  0  0  0  0  0  0  0
    9.7139  -15.0519   24.5787 O   0  0  0  0  0  0  0  0  0  0  0  0
    6.9493  -18.5807   26.5549 C   0  0  0  0  0  0  0  0  0  0  0  0
    7.0188  -19.0202   27.8548 C   0  0  0  0  0  0  0  0  0  0  0  0
    8.1759  -14.5922   26.1707 N   0  0  0  0  0  0  0  0  0  0  0  0
    6.8926  -14.5839   26.8351 C   0  0  0  0  0  0  0  0  0  0  0  0
    6.6764  -13.0839   26.9998 C   0  0  0  0  0  0  0  0  0  0  0  0
    8.0591  -12.4826   27.0977 C   0  0  0  0  0  0  0  0  0  0  0  0
    8.9709  -13.6783   26.9603 C   0  0  1  0  0  0  0  0  0  0  0  0
    9.4163  -14.2078   28.2540 C   0  0  0  0  0  0  0  0  0  0  0  0
    8.8703  -15.2503   28.6775 O   0  0  0  0  0  0  0  0  0  0  0  0
   10.3975  -13.6528   29.0577 O   0  0  0  0  0  0  0  0  0  0  0  0
  2  1  1  6
  2  3  1  0
  3  4  1  0
  4  5  1  0
  6  7  1  0
  6  5  1  0
  8  2  1  0
  8  9  2  0
 10 11  1  0
 11 21  2  0
 12 11  1  0
 12 13  2  0
 13 14  1  0
 14 20  2  0
 14 15  1  0
 16 15  1  1
 16 17  1  0
 17  8  1  0
 18 16  1  0
 19 18  2  0
 21 20  1  0
 22 18  1  0
 22 26  1  0
 23 24  1  0
 23 22  1  0
 24 25  1  0
 26 25  1  0
 27 29  1  0
 26 27  1  1
 28 27  2  0
M  END
$$$$
