KYP.pdb
     RDKit          3D

 29 30  0  0  1  0  0  0  0  0999 V2000
    6.0795  -19.2014   25.8200 N   0  0  0  0  0  0  0  0  0  0  0  0
    7.2776  -18.5433   25.3604 C   0  0  1  0  0  0  0  0  0  0  0  0
    8.1438  -19.4726   24.5231 C   0  0  0  0  0  0  0  0  0  0  0  0
    7.3208  -20.5041   23.8177 C   0  0  0  0  0  0  0  0  0  0  0  0
    7.2614  -20.3625   22.3444 C   0  0  0  0  0  0  0  0  0  0  0  0
    6.4041  -21.3504   21.6143 C   0  0  0  0  0  0  0  0  0  0  0  0
    6.4591  -21.1315   20.2092 N   0  0  0  0  0  0  0  0  0  0  0  0
    6.9342  -17.3530   24.5659 C   0  0  0  0  0  0  0  0  0  0  0  0
    5.7660  -17.1374   24.1241 O   0  0  0  0  0  0  0  0  0  0  0  0
    5.8558  -11.9401   28.8072 O   0  0  0  0  0  0  0  0  0  0  0  0
    6.4437  -12.4506   27.6576 C   0  0  0  0  0  0  0  0  0  0  0  0
    5.7796  -12.3888   26.4595 C   0  0  0  0  0  0  0  0  0  0  0  0
    6.3724  -12.8994   25.3225 C   0  0  0  0  0  0  0  0  0  0  0  0
    7.6290  -13.4876   25.3046 C   0  0  0  0  0  0  0  0  0  0  0  0
    8.2617  -14.0208   24.0995 C   0  0  0  0  0  0  0  0  0  0  0  0
    7.5961  -15.1875   23.4362 C   0  0  2  0  0  0  0  0  0  0  0  0
    7.9128  -16.3970   24.2656 N   0  0  0  0  0  0  0  0  0  0  0  0
    7.9930  -15.5079   22.0788 C   0  0  0  0  0  0  0  0  0  0  0  0
    8.0508  -16.7712   21.7850 O   0  0  0  0  0  0  0  0  0  0  0  0
    8.2662  -13.5264   26.5522 C   0  0  0  0  0  0  0  0  0  0  0  0
    7.6994  -13.0261   27.6995 C   0  0  0  0  0  0  0  0  0  0  0  0
    8.3223  -14.6636   21.0132 N   0  0  0  0  0  0  0  0  0  0  0  0
    8.3154  -13.2186   21.0198 C   0  0  0  0  0  0  0  0  0  0  0  0
    7.5109  -12.9403   19.7552 C   0  0  0  0  0  0  0  0  0  0  0  0
    7.7726  -14.1143   18.8408 C   0  0  0  0  0  0  0  0  0  0  0  0
    8.6918  -14.9933   19.6546 C   0  0  1  0  0  0  0  0  0  0  0  0
   10.1086  -14.7888   19.3339 C   0  0  0  0  0  0  0  0  0  0  0  0
   10.7703  -14.0262   20.0720 O   0  0  0  0  0  0  0  0  0  0  0  0
   10.7882  -15.3702   18.2770 O   0  0  0  0  0  0  0  0  0  0  0  0
  2  1  1  6
  2  3  1  0
  3  4  1  0
  4  5  1  0
  6  7  1  0
  6  5  1  0
  8  2  1  0
  8  9  2  0
 10 11  1  0
 11 21  2  0
 12 11  1  0
 12 13  2  0
 13 14  1  0
 14 20  2  0
 14 15  1  0
 16 15  1  1
 16 17  1  0
 17  8  1  0
 18 16  1  0
 19 18  2  0
 21 20  1  0
 22 18  1  0
 22 26  1  0
 23 24  1  0
 23 22  1  0
 24 25  1  0
 26 25  1  0
 27 29  1  0
 26 27  1  1
 28 27  2  0
M  END
$$$$
