KYP.pdb
     RDKit          3D

 29 30  0  0  1  0  0  0  0  0999 V2000
    6.2948  -17.8923   20.4114 N   0  0  0  0  0  0  0  0  0  0  0  0
    7.1685  -16.8245   20.8313 C   0  0  1  0  0  0  0  0  0  0  0  0
    6.7975  -15.5031   20.1746 C   0  0  0  0  0  0  0  0  0  0  0  0
    7.6948  -15.1931   19.0179 C   0  0  0  0  0  0  0  0  0  0  0  0
    7.4010  -13.9222   18.3160 C   0  0  0  0  0  0  0  0  0  0  0  0
    8.2879  -13.5802   17.1583 C   0  0  0  0  0  0  0  0  0  0  0  0
    7.9270  -12.3245   16.5942 N   0  0  0  0  0  0  0  0  0  0  0  0
    7.1201  -16.6699   22.2941 C   0  0  0  0  0  0  0  0  0  0  0  0
    6.0810  -16.9189   22.9757 O   0  0  0  0  0  0  0  0  0  0  0  0
   10.1835  -16.5717   30.6536 O   0  0  0  0  0  0  0  0  0  0  0  0
    9.9494  -16.6724   29.2888 C   0  0  0  0  0  0  0  0  0  0  0  0
    8.9646  -17.5029   28.8191 C   0  0  0  0  0  0  0  0  0  0  0  0
    8.7400  -17.5963   27.4605 C   0  0  0  0  0  0  0  0  0  0  0  0
    9.4601  -16.8890   26.5085 C   0  0  0  0  0  0  0  0  0  0  0  0
    9.2172  -16.9802   25.0698 C   0  0  0  0  0  0  0  0  0  0  0  0
    8.2176  -16.0312   24.4830 C   0  0  2  0  0  0  0  0  0  0  0  0
    8.2499  -16.2314   22.9964 N   0  0  0  0  0  0  0  0  0  0  0  0
    8.4208  -14.6133   24.7086 C   0  0  0  0  0  0  0  0  0  0  0  0
    9.2366  -14.0176   23.8930 O   0  0  0  0  0  0  0  0  0  0  0  0
   10.4538  -16.0549   27.0382 C   0  0  0  0  0  0  0  0  0  0  0  0
   10.6990  -15.9430   28.3855 C   0  0  0  0  0  0  0  0  0  0  0  0
    7.8664  -13.7659   25.6736 N   0  0  0  0  0  0  0  0  0  0  0  0
    6.9150  -14.1277   26.6994 C   0  0  0  0  0  0  0  0  0  0  0  0
    5.8698  -13.0352   26.5046 C   0  0  0  0  0  0  0  0  0  0  0  0
    6.6241  -11.8433   25.9633 C   0  0  0  0  0  0  0  0  0  0  0  0
    8.0454  -12.3439   25.8655 C   0  0  1  0  0  0  0  0  0  0  0  0
    8.8611  -11.9764   27.0282 C   0  0  0  0  0  0  0  0  0  0  0  0
    9.1492  -10.7690   27.1813 O   0  0  0  0  0  0  0  0  0  0  0  0
    9.3460  -12.8541   27.9828 O   0  0  0  0  0  0  0  0  0  0  0  0
  2  1  1  6
  2  3  1  0
  3  4  1  0
  4  5  1  0
  6  7  1  0
  6  5  1  0
  8  2  1  0
  8  9  2  0
 10 11  1  0
 11 21  2  0
 12 11  1  0
 12 13  2  0
 13 14  1  0
 14 20  2  0
 14 15  1  0
 16 15  1  1
 16 17  1  0
 17  8  1  0
 18 16  1  0
 19 18  2  0
 21 20  1  0
 22 18  1  0
 22 26  1  0
 23 24  1  0
 23 22  1  0
 24 25  1  0
 26 25  1  0
 27 29  1  0
 26 27  1  1
 28 27  2  0
M  END
$$$$
