KYP.pdb
     RDKit          3D

 29 30  0  0  1  0  0  0  0  0999 V2000
    4.5333  -20.5790   22.1484 N   0  0  0  0  0  0  0  0  0  0  0  0
    5.6276  -20.2594   23.0318 C   0  0  1  0  0  0  0  0  0  0  0  0
    6.9250  -20.9130   22.5794 C   0  0  0  0  0  0  0  0  0  0  0  0
    6.6835  -22.2724   22.0024 C   0  0  0  0  0  0  0  0  0  0  0  0
    7.8860  -22.9517   21.4668 C   0  0  0  0  0  0  0  0  0  0  0  0
    7.6653  -24.2846   20.8198 C   0  0  0  0  0  0  0  0  0  0  0  0
    7.2945  -24.1324   19.4543 N   0  0  0  0  0  0  0  0  0  0  0  0
    5.8178  -18.8017   23.1032 C   0  0  0  0  0  0  0  0  0  0  0  0
    5.4879  -18.0204   22.1613 O   0  0  0  0  0  0  0  0  0  0  0  0
    7.3074  -10.8663   27.0070 O   0  0  0  0  0  0  0  0  0  0  0  0
    7.1424  -12.2115   26.7055 C   0  0  0  0  0  0  0  0  0  0  0  0
    5.8861  -12.7600   26.6724 C   0  0  0  0  0  0  0  0  0  0  0  0
    5.7326  -14.0984   26.3721 C   0  0  0  0  0  0  0  0  0  0  0  0
    6.7893  -14.9531   26.0928 C   0  0  0  0  0  0  0  0  0  0  0  0
    6.6275  -16.3687   25.7659 C   0  0  0  0  0  0  0  0  0  0  0  0
    6.6525  -16.7433   24.3156 C   0  0  2  0  0  0  0  0  0  0  0  0
    6.3839  -18.2176   24.2435 N   0  0  0  0  0  0  0  0  0  0  0  0
    7.8823  -16.5159   23.5816 C   0  0  0  0  0  0  0  0  0  0  0  0
    8.6685  -17.5412   23.4553 O   0  0  0  0  0  0  0  0  0  0  0  0
    8.0513  -14.3455   26.1391 C   0  0  0  0  0  0  0  0  0  0  0  0
    8.2330  -13.0162   26.4356 C   0  0  0  0  0  0  0  0  0  0  0  0
    8.3650  -15.3540   22.9703 N   0  0  0  0  0  0  0  0  0  0  0  0
    7.9167  -14.0008   23.2076 C   0  0  0  0  0  0  0  0  0  0  0  0
    7.6946  -13.5282   21.7754 C   0  0  0  0  0  0  0  0  0  0  0  0
    8.6686  -14.3170   20.9317 C   0  0  0  0  0  0  0  0  0  0  0  0
    9.3654  -15.2020   21.9373 C   0  0  1  0  0  0  0  0  0  0  0  0
   10.6449  -14.6487   22.3946 C   0  0  0  0  0  0  0  0  0  0  0  0
   10.7081  -14.2144   23.5657 O   0  0  0  0  0  0  0  0  0  0  0  0
   11.8022  -14.5629   21.6395 O   0  0  0  0  0  0  0  0  0  0  0  0
  2  1  1  6
  2  3  1  0
  3  4  1  0
  4  5  1  0
  6  7  1  0
  6  5  1  0
  8  2  1  0
  8  9  2  0
 10 11  1  0
 11 21  2  0
 12 11  1  0
 12 13  2  0
 13 14  1  0
 14 20  2  0
 14 15  1  0
 16 15  1  1
 16 17  1  0
 17  8  1  0
 18 16  1  0
 19 18  2  0
 21 20  1  0
 22 18  1  0
 22 26  1  0
 23 24  1  0
 23 22  1  0
 24 25  1  0
 26 25  1  0
 27 29  1  0
 26 27  1  1
 28 27  2  0
M  END
$$$$
