KYP.pdb
     RDKit          3D

 29 30  0  0  1  0  0  0  0  0999 V2000
    6.8857  -19.2798   26.2215 N   0  0  0  0  0  0  0  0  0  0  0  0
    7.0127  -18.9869   24.8151 C   0  0  1  0  0  0  0  0  0  0  0  0
    5.8245  -19.5105   24.0220 C   0  0  0  0  0  0  0  0  0  0  0  0
    6.1774  -20.7455   23.2541 C   0  0  0  0  0  0  0  0  0  0  0  0
    5.8413  -20.7077   21.8119 C   0  0  0  0  0  0  0  0  0  0  0  0
    6.1060  -21.9598   21.0333 C   0  0  0  0  0  0  0  0  0  0  0  0
    5.7504  -21.7933   19.6655 N   0  0  0  0  0  0  0  0  0  0  0  0
    7.1351  -17.5354   24.6043 C   0  0  0  0  0  0  0  0  0  0  0  0
    6.2347  -16.7140   24.9522 O   0  0  0  0  0  0  0  0  0  0  0  0
    9.8578  -14.9536   29.9167 O   0  0  0  0  0  0  0  0  0  0  0  0
    9.7937  -14.9680   28.5299 C   0  0  0  0  0  0  0  0  0  0  0  0
    9.0980  -13.9926   27.8631 C   0  0  0  0  0  0  0  0  0  0  0  0
    9.0398  -14.0160   26.4843 C   0  0  0  0  0  0  0  0  0  0  0  0
    9.6532  -14.9840   25.7020 C   0  0  0  0  0  0  0  0  0  0  0  0
    9.5998  -15.0050   24.2413 C   0  0  0  0  0  0  0  0  0  0  0  0
    8.3581  -15.5560   23.6097 C   0  0  2  0  0  0  0  0  0  0  0  0
    8.2796  -17.0032   23.9972 N   0  0  0  0  0  0  0  0  0  0  0  0
    8.2620  -15.5146   22.1634 C   0  0  0  0  0  0  0  0  0  0  0  0
    8.1006  -16.6581   21.5700 O   0  0  0  0  0  0  0  0  0  0  0  0
   10.3510  -15.9576   26.4295 C   0  0  0  0  0  0  0  0  0  0  0  0
   10.4249  -15.9586   27.8016 C   0  0  0  0  0  0  0  0  0  0  0  0
    8.3081  -14.4245   21.2881 N   0  0  0  0  0  0  0  0  0  0  0  0
    8.3705  -13.0266   21.6491 C   0  0  0  0  0  0  0  0  0  0  0  0
    7.2486  -12.4669   20.7820 C   0  0  0  0  0  0  0  0  0  0  0  0
    7.1799  -13.3708   19.5733 C   0  0  0  0  0  0  0  0  0  0  0  0
    8.2533  -14.3980   19.8433 C   0  0  1  0  0  0  0  0  0  0  0  0
    9.5249  -14.0815   19.1836 C   0  0  0  0  0  0  0  0  0  0  0  0
   10.4372  -13.5861   19.8811 O   0  0  0  0  0  0  0  0  0  0  0  0
    9.8106  -14.2841   17.8442 O   0  0  0  0  0  0  0  0  0  0  0  0
  2  1  1  1
  2  3  1  0
  3  4  1  0
  4  5  1  0
  6  7  1  0
  6  5  1  0
  8  2  1  0
  8  9  2  0
 10 11  1  0
 11 21  2  0
 12 11  1  0
 12 13  2  0
 13 14  1  0
 14 20  2  0
 14 15  1  0
 16 15  1  6
 16 17  1  0
 17  8  1  0
 18 16  1  0
 19 18  2  0
 21 20  1  0
 22 18  1  0
 22 26  1  0
 23 24  1  0
 23 22  1  0
 24 25  1  0
 26 25  1  0
 27 29  1  0
 26 27  1  6
 28 27  2  0
M  END
$$$$
