KYP.pdb
     RDKit          3D

 29 30  0  0  1  0  0  0  0  0999 V2000
   10.9970  -16.5981   19.5492 N   0  0  0  0  0  0  0  0  0  0  0  0
   11.1534  -17.1951   20.8527 C   0  0  1  0  0  0  0  0  0  0  0  0
   12.5680  -17.7121   21.0685 C   0  0  0  0  0  0  0  0  0  0  0  0
   12.8434  -18.9241   20.2350 C   0  0  0  0  0  0  0  0  0  0  0  0
   13.4513  -20.0629   20.9615 C   0  0  0  0  0  0  0  0  0  0  0  0
   14.7648  -20.5604   20.4407 C   0  0  0  0  0  0  0  0  0  0  0  0
   15.2741  -21.6064   21.2602 N   0  0  0  0  0  0  0  0  0  0  0  0
   10.8280  -16.2184   21.9045 C   0  0  0  0  0  0  0  0  0  0  0  0
   11.4816  -15.1451   22.0692 O   0  0  0  0  0  0  0  0  0  0  0  0
    5.7299  -11.4905   27.4398 O   0  0  0  0  0  0  0  0  0  0  0  0
    6.2813  -12.3633   26.5114 C   0  0  0  0  0  0  0  0  0  0  0  0
    6.9565  -11.8735   25.4231 C   0  0  0  0  0  0  0  0  0  0  0  0
    7.5007  -12.7494   24.5056 C   0  0  0  0  0  0  0  0  0  0  0  0
    7.4109  -14.1301   24.6090 C   0  0  0  0  0  0  0  0  0  0  0  0
    7.9944  -15.0590   23.6428 C   0  0  0  0  0  0  0  0  0  0  0  0
    9.4144  -15.4793   23.8690 C   0  0  2  0  0  0  0  0  0  0  0  0
    9.7584  -16.4507   22.7786 N   0  0  0  0  0  0  0  0  0  0  0  0
    9.7306  -16.1409   25.1200 C   0  0  0  0  0  0  0  0  0  0  0  0
   10.0841  -17.3870   25.0323 O   0  0  0  0  0  0  0  0  0  0  0  0
    6.7122  -14.5805   25.7373 C   0  0  0  0  0  0  0  0  0  0  0  0
    6.1604  -13.7313   26.6658 C   0  0  0  0  0  0  0  0  0  0  0  0
    9.7241  -15.6454   26.4281 N   0  0  0  0  0  0  0  0  0  0  0  0
    9.0799  -14.4383   26.8933 C   0  0  0  0  0  0  0  0  0  0  0  0
   10.2270  -13.7912   27.6609 C   0  0  0  0  0  0  0  0  0  0  0  0
   11.0837  -14.9349   28.1516 C   0  0  0  0  0  0  0  0  0  0  0  0
   10.3789  -16.1564   27.6119 C   0  0  1  0  0  0  0  0  0  0  0  0
    9.4823  -16.7778   28.5928 C   0  0  0  0  0  0  0  0  0  0  0  0
    8.2543  -16.7573   28.3568 O   0  0  0  0  0  0  0  0  0  0  0  0
    9.8762  -17.3926   29.7691 O   0  0  0  0  0  0  0  0  0  0  0  0
  2  1  1  6
  2  3  1  0
  3  4  1  0
  4  5  1  0
  6  7  1  0
  6  5  1  0
  8  2  1  0
  8  9  2  0
 10 11  1  0
 11 21  2  0
 12 11  1  0
 12 13  2  0
 13 14  1  0
 14 20  2  0
 14 15  1  0
 16 15  1  1
 16 17  1  0
 17  8  1  0
 18 16  1  0
 19 18  2  0
 21 20  1  0
 22 18  1  0
 22 26  1  0
 23 24  1  0
 23 22  1  0
 24 25  1  0
 26 25  1  0
 27 29  1  0
 26 27  1  1
 28 27  2  0
M  END
$$$$
