KYP.pdb
     RDKit          3D

 29 30  0  0  1  0  0  0  0  0999 V2000
   11.4085  -16.4019   19.7239 N   0  0  0  0  0  0  0  0  0  0  0  0
   10.6094  -17.0479   20.7358 C   0  0  1  0  0  0  0  0  0  0  0  0
   11.2176  -18.3727   21.1718 C   0  0  0  0  0  0  0  0  0  0  0  0
   11.0862  -19.4150   20.1062 C   0  0  0  0  0  0  0  0  0  0  0  0
   10.7828  -20.7801   20.5947 C   0  0  0  0  0  0  0  0  0  0  0  0
   10.5931  -21.8351   19.5483 C   0  0  0  0  0  0  0  0  0  0  0  0
   10.3619  -23.1069   20.1438 N   0  0  0  0  0  0  0  0  0  0  0  0
   10.4640  -16.1713   21.9091 C   0  0  0  0  0  0  0  0  0  0  0  0
   11.3896  -15.4042   22.3105 O   0  0  0  0  0  0  0  0  0  0  0  0
    5.8821  -11.5279   28.0897 O   0  0  0  0  0  0  0  0  0  0  0  0
    6.3237  -12.3117   27.0321 C   0  0  0  0  0  0  0  0  0  0  0  0
    6.1186  -13.6674   27.0480 C   0  0  0  0  0  0  0  0  0  0  0  0
    6.5617  -14.4379   25.9922 C   0  0  0  0  0  0  0  0  0  0  0  0
    7.2186  -13.9238   24.8834 C   0  0  0  0  0  0  0  0  0  0  0  0
    7.6805  -14.7376   23.7603 C   0  0  0  0  0  0  0  0  0  0  0  0
    9.0843  -15.2569   23.8232 C   0  0  2  0  0  0  0  0  0  0  0  0
    9.2675  -16.1572   22.6371 N   0  0  0  0  0  0  0  0  0  0  0  0
    9.4646  -16.0329   24.9876 C   0  0  0  0  0  0  0  0  0  0  0  0
    9.6674  -17.2995   24.7869 O   0  0  0  0  0  0  0  0  0  0  0  0
    7.4037  -12.5350   24.9144 C   0  0  0  0  0  0  0  0  0  0  0  0
    6.9733  -11.7442   25.9524 C   0  0  0  0  0  0  0  0  0  0  0  0
    9.6592  -15.6319   26.3135 N   0  0  0  0  0  0  0  0  0  0  0  0
    9.1998  -14.4047   26.9229 C   0  0  0  0  0  0  0  0  0  0  0  0
   10.4877  -13.9246   27.5822 C   0  0  0  0  0  0  0  0  0  0  0  0
   11.2734  -15.1760   27.8978 C   0  0  0  0  0  0  0  0  0  0  0  0
   10.3898  -16.2843   27.3772 C   0  0  1  0  0  0  0  0  0  0  0  0
    9.5530  -16.8851   28.4218 C   0  0  0  0  0  0  0  0  0  0  0  0
    8.3196  -16.6843   28.3694 O   0  0  0  0  0  0  0  0  0  0  0  0
   10.0091  -17.6636   29.4719 O   0  0  0  0  0  0  0  0  0  0  0  0
  2  1  1  6
  2  3  1  0
  3  4  1  0
  4  5  1  0
  6  7  1  0
  6  5  1  0
  8  2  1  0
  8  9  2  0
 10 11  1  0
 11 21  2  0
 12 11  1  0
 12 13  2  0
 13 14  1  0
 14 20  2  0
 14 15  1  0
 16 15  1  1
 16 17  1  0
 17  8  1  0
 18 16  1  0
 19 18  2  0
 21 20  1  0
 22 18  1  0
 22 26  1  0
 23 24  1  0
 23 22  1  0
 24 25  1  0
 26 25  1  0
 27 29  1  0
 26 27  1  1
 28 27  2  0
M  END
$$$$
