KYP.pdb
     RDKit          3D

 29 30  0  0  1  0  0  0  0  0999 V2000
    5.9793  -19.1284   25.5997 N   0  0  0  0  0  0  0  0  0  0  0  0
    7.2193  -18.4855   25.2406 C   0  0  1  0  0  0  0  0  0  0  0  0
    8.1373  -19.4240   24.4715 C   0  0  0  0  0  0  0  0  0  0  0  0
    7.4360  -20.0445   23.3042 C   0  0  0  0  0  0  0  0  0  0  0  0
    7.9763  -19.6742   21.9756 C   0  0  0  0  0  0  0  0  0  0  0  0
    9.1215  -20.4967   21.4695 C   0  0  0  0  0  0  0  0  0  0  0  0
    9.5683  -20.0229   20.2042 N   0  0  0  0  0  0  0  0  0  0  0  0
    6.9571  -17.2880   24.4262 C   0  0  0  0  0  0  0  0  0  0  0  0
    5.8332  -17.0582   23.8872 O   0  0  0  0  0  0  0  0  0  0  0  0
    6.0582  -11.8755   28.7673 O   0  0  0  0  0  0  0  0  0  0  0  0
    6.6426  -12.3896   27.6176 C   0  0  0  0  0  0  0  0  0  0  0  0
    7.9459  -12.8153   27.6397 C   0  0  0  0  0  0  0  0  0  0  0  0
    8.5180  -13.3244   26.4914 C   0  0  0  0  0  0  0  0  0  0  0  0
    7.8489  -13.4399   25.2813 C   0  0  0  0  0  0  0  0  0  0  0  0
    8.4509  -13.9872   24.0668 C   0  0  0  0  0  0  0  0  0  0  0  0
    7.7270  -15.1111   23.3908 C   0  0  2  0  0  0  0  0  0  0  0  0
    7.9673  -16.3407   24.2161 N   0  0  0  0  0  0  0  0  0  0  0  0
    8.1179  -15.4463   22.0352 C   0  0  0  0  0  0  0  0  0  0  0  0
    8.1399  -16.7115   21.7447 O   0  0  0  0  0  0  0  0  0  0  0  0
    6.5213  -12.9921   25.3104 C   0  0  0  0  0  0  0  0  0  0  0  0
    5.9271  -12.4808   26.4388 C   0  0  0  0  0  0  0  0  0  0  0  0
    8.4744  -14.6147   20.9684 N   0  0  0  0  0  0  0  0  0  0  0  0
    8.5808  -13.1736   20.9925 C   0  0  0  0  0  0  0  0  0  0  0  0
    7.7562  -12.8151   19.7614 C   0  0  0  0  0  0  0  0  0  0  0  0
    7.8928  -13.9923   18.8242 C   0  0  0  0  0  0  0  0  0  0  0  0
    8.7686  -14.9521   19.5935 C   0  0  1  0  0  0  0  0  0  0  0  0
   10.1849  -14.8536   19.2238 C   0  0  0  0  0  0  0  0  0  0  0  0
   10.9339  -14.1717   19.9574 O   0  0  0  0  0  0  0  0  0  0  0  0
   10.7750  -15.4542   18.1247 O   0  0  0  0  0  0  0  0  0  0  0  0
  2  1  1  6
  2  3  1  0
  3  4  1  0
  4  5  1  0
  6  7  1  0
  6  5  1  0
  8  2  1  0
  8  9  2  0
 10 11  1  0
 11 21  2  0
 12 11  1  0
 12 13  2  0
 13 14  1  0
 14 20  2  0
 14 15  1  0
 16 15  1  1
 16 17  1  0
 17  8  1  0
 18 16  1  0
 19 18  2  0
 21 20  1  0
 22 18  1  0
 22 26  1  0
 23 24  1  0
 23 22  1  0
 24 25  1  0
 26 25  1  0
 27 29  1  0
 26 27  1  6
 28 27  2  0
M  END
$$$$
