KYP.pdb
     RDKit          3D

 29 30  0  0  1  0  0  0  0  0999 V2000
    3.2023  -19.8030   22.1396 N   0  0  0  0  0  0  0  0  0  0  0  0
    4.6012  -19.5471   21.9002 C   0  0  1  0  0  0  0  0  0  0  0  0
    4.9692  -19.7556   20.4387 C   0  0  0  0  0  0  0  0  0  0  0  0
    5.8464  -20.9544   20.2583 C   0  0  0  0  0  0  0  0  0  0  0  0
    6.2718  -21.2194   18.8644 C   0  0  0  0  0  0  0  0  0  0  0  0
    7.1752  -22.3959   18.6559 C   0  0  0  0  0  0  0  0  0  0  0  0
    7.4328  -22.6008   17.2713 N   0  0  0  0  0  0  0  0  0  0  0  0
    4.9441  -18.1715   22.2955 C   0  0  0  0  0  0  0  0  0  0  0  0
    4.2548  -17.1664   21.9476 O   0  0  0  0  0  0  0  0  0  0  0  0
    7.6663  -11.4420   27.3247 O   0  0  0  0  0  0  0  0  0  0  0  0
    7.4064  -12.6771   26.7462 C   0  0  0  0  0  0  0  0  0  0  0  0
    6.1128  -13.1004   26.5800 C   0  0  0  0  0  0  0  0  0  0  0  0
    5.8648  -14.3300   26.0043 C   0  0  0  0  0  0  0  0  0  0  0  0
    6.8599  -15.1933   25.5687 C   0  0  0  0  0  0  0  0  0  0  0  0
    6.5985  -16.4920   24.9507 C   0  0  0  0  0  0  0  0  0  0  0  0
    6.4769  -16.5275   23.4580 C   0  0  2  0  0  0  0  0  0  0  0  0
    6.0718  -17.9241   23.0886 N   0  0  0  0  0  0  0  0  0  0  0  0
    7.6614  -16.2260   22.6777 C   0  0  0  0  0  0  0  0  0  0  0  0
    8.3420  -17.2483   22.2566 O   0  0  0  0  0  0  0  0  0  0  0  0
    8.1634  -14.7156   25.7602 C   0  0  0  0  0  0  0  0  0  0  0  0
    8.4389  -13.4963   26.3307 C   0  0  0  0  0  0  0  0  0  0  0  0
    8.1962  -14.9925   22.2914 N   0  0  0  0  0  0  0  0  0  0  0  0
    7.8117  -13.6898   22.7849 C   0  0  0  0  0  0  0  0  0  0  0  0
    7.6083  -12.9453   21.4703 C   0  0  0  0  0  0  0  0  0  0  0  0
    8.5427  -13.6034   20.4820 C   0  0  0  0  0  0  0  0  0  0  0  0
    9.2001  -14.6932   21.2947 C   0  0  1  0  0  0  0  0  0  0  0  0
   10.5049  -14.2946   21.8339 C   0  0  0  0  0  0  0  0  0  0  0  0
   10.5839  -14.0629   23.0604 O   0  0  0  0  0  0  0  0  0  0  0  0
   11.6704  -14.1506   21.1007 O   0  0  0  0  0  0  0  0  0  0  0  0
  2  1  1  6
  2  3  1  0
  3  4  1  0
  4  5  1  0
  6  7  1  0
  6  5  1  0
  8  2  1  0
  8  9  2  0
 10 11  1  0
 11 21  2  0
 12 11  1  0
 12 13  2  0
 13 14  1  0
 14 20  2  0
 14 15  1  0
 16 15  1  1
 16 17  1  0
 17  8  1  0
 18 16  1  0
 19 18  2  0
 21 20  1  0
 22 18  1  0
 22 26  1  0
 23 24  1  0
 23 22  1  0
 24 25  1  0
 26 25  1  0
 27 29  1  0
 26 27  1  1
 28 27  2  0
M  END
$$$$
