KYP.pdb
     RDKit          3D

 29 30  0  0  1  0  0  0  0  0999 V2000
   12.4800  -16.8925   20.5177 N   0  0  0  0  0  0  0  0  0  0  0  0
   11.2954  -17.3125   21.2251 C   0  0  1  0  0  0  0  0  0  0  0  0
   11.4520  -18.7110   21.8037 C   0  0  0  0  0  0  0  0  0  0  0  0
   11.9210  -19.6847   20.7687 C   0  0  0  0  0  0  0  0  0  0  0  0
   10.9016  -20.0819   19.7701 C   0  0  0  0  0  0  0  0  0  0  0  0
   10.6585  -21.5519   19.6149 C   0  0  0  0  0  0  0  0  0  0  0  0
    9.6026  -21.7987   18.6933 N   0  0  0  0  0  0  0  0  0  0  0  0
   10.9879  -16.3692   22.3122 C   0  0  0  0  0  0  0  0  0  0  0  0
   11.8816  -15.7005   22.9126 O   0  0  0  0  0  0  0  0  0  0  0  0
    5.6849  -11.3027   27.5329 O   0  0  0  0  0  0  0  0  0  0  0  0
    6.2314  -12.1599   26.5872 C   0  0  0  0  0  0  0  0  0  0  0  0
    6.1589  -13.5175   26.7658 C   0  0  0  0  0  0  0  0  0  0  0  0
    6.7057  -14.3612   25.8202 C   0  0  0  0  0  0  0  0  0  0  0  0
    7.3416  -13.9211   24.6682 C   0  0  0  0  0  0  0  0  0  0  0  0
    7.9132  -14.8137   23.6615 C   0  0  0  0  0  0  0  0  0  0  0  0
    9.3279  -15.2612   23.8678 C   0  0  2  0  0  0  0  0  0  0  0  0
    9.6643  -16.1764   22.7276 N   0  0  0  0  0  0  0  0  0  0  0  0
    9.6335  -15.9923   25.0823 C   0  0  0  0  0  0  0  0  0  0  0  0
    9.8717  -17.2605   24.9393 O   0  0  0  0  0  0  0  0  0  0  0  0
    7.3895  -12.5271   24.5317 C   0  0  0  0  0  0  0  0  0  0  0  0
    6.8540  -11.6643   25.4573 C   0  0  0  0  0  0  0  0  0  0  0  0
    9.7225  -15.5455   26.4048 N   0  0  0  0  0  0  0  0  0  0  0  0
    9.2259  -14.2945   26.9310 C   0  0  0  0  0  0  0  0  0  0  0  0
   10.4597  -13.7992   27.6768 C   0  0  0  0  0  0  0  0  0  0  0  0
   11.2056  -15.0433   28.0995 C   0  0  0  0  0  0  0  0  0  0  0  0
   10.3576  -16.1640   27.5472 C   0  0  1  0  0  0  0  0  0  0  0  0
    9.4326  -16.7221   28.5398 C   0  0  0  0  0  0  0  0  0  0  0  0
    8.2100  -16.5109   28.3824 O   0  0  0  0  0  0  0  0  0  0  0  0
    9.7937  -17.4703   29.6473 O   0  0  0  0  0  0  0  0  0  0  0  0
  2  1  1  1
  2  3  1  0
  3  4  1  0
  4  5  1  0
  6  7  1  0
  6  5  1  0
  8  2  1  0
  8  9  2  0
 10 11  1  0
 11 21  2  0
 12 11  1  0
 12 13  2  0
 13 14  1  0
 14 20  2  0
 14 15  1  0
 16 15  1  1
 16 17  1  0
 17  8  1  0
 18 16  1  0
 19 18  2  0
 21 20  1  0
 22 18  1  0
 22 26  1  0
 23 24  1  0
 23 22  1  0
 24 25  1  0
 26 25  1  0
 27 29  1  0
 26 27  1  1
 28 27  2  0
M  END
$$$$
