KYP.pdb
     RDKit          3D

 29 30  0  0  1  0  0  0  0  0999 V2000
   11.0382  -17.2022   19.2484 N   0  0  0  0  0  0  0  0  0  0  0  0
   10.0068  -17.6094   20.1705 C   0  0  1  0  0  0  0  0  0  0  0  0
   10.1811  -19.0569   20.6059 C   0  0  0  0  0  0  0  0  0  0  0  0
    9.9930  -20.0017   19.4608 C   0  0  0  0  0  0  0  0  0  0  0  0
    8.6006  -20.4578   19.2429 C   0  0  0  0  0  0  0  0  0  0  0  0
    8.3643  -21.3285   18.0472 C   0  0  0  0  0  0  0  0  0  0  0  0
    6.9739  -21.5628   17.8549 N   0  0  0  0  0  0  0  0  0  0  0  0
   10.0119  -16.7413   21.3589 C   0  0  0  0  0  0  0  0  0  0  0  0
   11.0799  -16.3630   21.9269 O   0  0  0  0  0  0  0  0  0  0  0  0
    6.2616  -11.5176   27.6755 O   0  0  0  0  0  0  0  0  0  0  0  0
    6.5550  -12.2959   26.5638 C   0  0  0  0  0  0  0  0  0  0  0  0
    7.1945  -11.7414   25.4850 C   0  0  0  0  0  0  0  0  0  0  0  0
    7.4813  -12.5233   24.3845 C   0  0  0  0  0  0  0  0  0  0  0  0
    7.1597  -13.8697   24.2891 C   0  0  0  0  0  0  0  0  0  0  0  0
    7.4709  -14.7012   23.1278 C   0  0  0  0  0  0  0  0  0  0  0  0
    8.7812  -15.4274   23.1373 C   0  0  2  0  0  0  0  0  0  0  0  0
    8.8056  -16.2947   21.9133 N   0  0  0  0  0  0  0  0  0  0  0  0
    9.0605  -16.2996   24.2616 C   0  0  0  0  0  0  0  0  0  0  0  0
    8.8127  -17.5610   24.0796 O   0  0  0  0  0  0  0  0  0  0  0  0
    6.5082  -14.3891   25.4160 C   0  0  0  0  0  0  0  0  0  0  0  0
    6.2102  -13.6336   26.5243 C   0  0  0  0  0  0  0  0  0  0  0  0
    9.5690  -16.0002   25.5298 N   0  0  0  0  0  0  0  0  0  0  0  0
    9.7157  -14.6873   26.1156 C   0  0  0  0  0  0  0  0  0  0  0  0
   11.1626  -14.7568   26.5906 C   0  0  0  0  0  0  0  0  0  0  0  0
   11.4238  -16.2156   26.8851 C   0  0  0  0  0  0  0  0  0  0  0  0
   10.1144  -16.8824   26.5373 C   0  0  1  0  0  0  0  0  0  0  0  0
    9.2525  -17.0915   27.7059 C   0  0  0  0  0  0  0  0  0  0  0  0
    8.1636  -16.4774   27.7458 O   0  0  0  0  0  0  0  0  0  0  0  0
    9.5373  -17.9164   28.7806 O   0  0  0  0  0  0  0  0  0  0  0  0
  2  1  1  6
  2  3  1  0
  3  4  1  0
  4  5  1  0
  6  7  1  0
  6  5  1  0
  8  2  1  0
  8  9  2  0
 10 11  1  0
 11 21  2  0
 12 11  1  0
 12 13  2  0
 13 14  1  0
 14 20  2  0
 14 15  1  0
 16 15  1  1
 16 17  1  0
 17  8  1  0
 18 16  1  0
 19 18  2  0
 21 20  1  0
 22 18  1  0
 22 26  1  0
 23 24  1  0
 23 22  1  0
 24 25  1  0
 26 25  1  0
 27 29  1  0
 26 27  1  1
 28 27  2  0
M  END
$$$$
