KYP.pdb
     RDKit          3D

 29 30  0  0  1  0  0  0  0  0999 V2000
   10.6013  -16.8289   19.3435 N   0  0  0  0  0  0  0  0  0  0  0  0
   10.5590  -17.4442   20.6471 C   0  0  1  0  0  0  0  0  0  0  0  0
   11.8248  -18.2375   20.9360 C   0  0  0  0  0  0  0  0  0  0  0  0
   11.7405  -19.6266   20.3859 C   0  0  0  0  0  0  0  0  0  0  0  0
   12.8766  -20.5114   20.7332 C   0  0  0  0  0  0  0  0  0  0  0  0
   12.7727  -21.9365   20.2836 C   0  0  0  0  0  0  0  0  0  0  0  0
   13.9402  -22.6686   20.6386 N   0  0  0  0  0  0  0  0  0  0  0  0
   10.3790  -16.4211   21.6896 C   0  0  0  0  0  0  0  0  0  0  0  0
   11.0490  -15.3455   21.7174 O   0  0  0  0  0  0  0  0  0  0  0  0
    5.9646  -11.3512   27.4892 O   0  0  0  0  0  0  0  0  0  0  0  0
    6.4116  -12.2709   26.5500 C   0  0  0  0  0  0  0  0  0  0  0  0
    7.0416  -11.8401   25.4108 C   0  0  0  0  0  0  0  0  0  0  0  0
    7.4819  -12.7622   24.4831 C   0  0  0  0  0  0  0  0  0  0  0  0
    7.3283  -14.1339   24.6250 C   0  0  0  0  0  0  0  0  0  0  0  0
    7.8020  -15.1121   23.6474 C   0  0  0  0  0  0  0  0  0  0  0  0
    9.2213  -15.5745   23.7745 C   0  0  2  0  0  0  0  0  0  0  0  0
    9.4376  -16.6090   22.7096 N   0  0  0  0  0  0  0  0  0  0  0  0
    9.6213  -16.1872   25.0264 C   0  0  0  0  0  0  0  0  0  0  0  0
    9.9507  -17.4416   24.9674 O   0  0  0  0  0  0  0  0  0  0  0  0
    6.6794  -14.5234   25.8045 C   0  0  0  0  0  0  0  0  0  0  0  0
    6.2308  -13.6272   26.7444 C   0  0  0  0  0  0  0  0  0  0  0  0
    9.7190  -15.6363   26.3085 N   0  0  0  0  0  0  0  0  0  0  0  0
    9.1473  -14.3883   26.7602 C   0  0  0  0  0  0  0  0  0  0  0  0
   10.3639  -13.7501   27.4208 C   0  0  0  0  0  0  0  0  0  0  0  0
   11.2140  -14.9016   27.9049 C   0  0  0  0  0  0  0  0  0  0  0  0
   10.4349  -16.1192   27.4683 C   0  0  1  0  0  0  0  0  0  0  0  0
    9.5867  -16.6659   28.5331 C   0  0  0  0  0  0  0  0  0  0  0  0
   10.1425  -17.0344   29.5912 O   0  0  0  0  0  0  0  0  0  0  0  0
    8.2113  -16.8122   28.4733 O   0  0  0  0  0  0  0  0  0  0  0  0
  2  1  1  6
  2  3  1  0
  3  4  1  0
  4  5  1  0
  6  7  1  0
  6  5  1  0
  8  2  1  0
  8  9  2  0
 10 11  1  0
 11 21  2  0
 12 11  1  0
 12 13  2  0
 13 14  1  0
 14 20  2  0
 14 15  1  0
 16 15  1  1
 16 17  1  0
 17  8  1  0
 18 16  1  0
 19 18  2  0
 21 20  1  0
 22 18  1  0
 22 26  1  0
 23 24  1  0
 23 22  1  0
 24 25  1  0
 26 25  1  0
 27 29  1  0
 26 27  1  1
 28 27  2  0
M  END
$$$$
