KYP.pdb
     RDKit          3D

 29 30  0  0  1  0  0  0  0  0999 V2000
    3.4846  -20.0354   22.4917 N   0  0  0  0  0  0  0  0  0  0  0  0
    4.8882  -19.8585   22.7719 C   0  0  1  0  0  0  0  0  0  0  0  0
    5.7599  -20.4558   21.6772 C   0  0  0  0  0  0  0  0  0  0  0  0
    6.2239  -21.8330   22.0340 C   0  0  0  0  0  0  0  0  0  0  0  0
    7.6147  -21.9183   22.5366 C   0  0  0  0  0  0  0  0  0  0  0  0
    8.1592  -23.2960   22.7591 C   0  0  0  0  0  0  0  0  0  0  0  0
    8.9870  -23.6976   21.6734 N   0  0  0  0  0  0  0  0  0  0  0  0
    5.2040  -18.4284   22.9176 C   0  0  0  0  0  0  0  0  0  0  0  0
    4.6901  -17.5345   22.1806 O   0  0  0  0  0  0  0  0  0  0  0  0
    7.7350  -10.8608   26.8810 O   0  0  0  0  0  0  0  0  0  0  0  0
    7.4954  -12.1818   26.5273 C   0  0  0  0  0  0  0  0  0  0  0  0
    8.5448  -13.0379   26.3127 C   0  0  0  0  0  0  0  0  0  0  0  0
    8.2962  -14.3491   25.9610 C   0  0  0  0  0  0  0  0  0  0  0  0
    7.0231  -14.8784   25.8048 C   0  0  0  0  0  0  0  0  0  0  0  0
    6.7582  -16.2693   25.4410 C   0  0  0  0  0  0  0  0  0  0  0  0
    6.5435  -16.5678   23.9888 C   0  0  2  0  0  0  0  0  0  0  0  0
    6.1054  -18.0000   23.9003 N   0  0  0  0  0  0  0  0  0  0  0  0
    7.6793  -16.4324   23.0975 C   0  0  0  0  0  0  0  0  0  0  0  0
    8.2971  -17.5322   22.7904 O   0  0  0  0  0  0  0  0  0  0  0  0
    5.9856  -13.9649   26.0350 C   0  0  0  0  0  0  0  0  0  0  0  0
    6.2045  -12.6545   26.3857 C   0  0  0  0  0  0  0  0  0  0  0  0
    8.2232  -15.2916   22.4980 N   0  0  0  0  0  0  0  0  0  0  0  0
    7.9061  -13.9162   22.8081 C   0  0  0  0  0  0  0  0  0  0  0  0
    7.6429  -13.3711   21.4090 C   0  0  0  0  0  0  0  0  0  0  0  0
    8.4959  -14.2044   20.4813 C   0  0  0  0  0  0  0  0  0  0  0  0
    9.1716  -15.1828   21.4119 C   0  0  1  0  0  0  0  0  0  0  0  0
   10.5178  -14.7559   21.8091 C   0  0  0  0  0  0  0  0  0  0  0  0
   10.6858  -14.3767   22.9891 O   0  0  0  0  0  0  0  0  0  0  0  0
   11.6322  -14.7348   20.9879 O   0  0  0  0  0  0  0  0  0  0  0  0
  2  1  1  6
  2  3  1  0
  3  4  1  0
  4  5  1  0
  6  7  1  0
  6  5  1  0
  8  2  1  0
  8  9  2  0
 10 11  1  0
 11 21  2  0
 12 11  1  0
 12 13  2  0
 13 14  1  0
 14 20  2  0
 14 15  1  0
 16 15  1  1
 16 17  1  0
 17  8  1  0
 18 16  1  0
 19 18  2  0
 21 20  1  0
 22 18  1  0
 22 26  1  0
 23 24  1  0
 23 22  1  0
 24 25  1  0
 26 25  1  0
 27 29  1  0
 26 27  1  1
 28 27  2  0
M  END
$$$$
