KYP.pdb
     RDKit          3D

 29 30  0  0  1  0  0  0  0  0999 V2000
    6.2094  -18.7996   26.2402 N   0  0  0  0  0  0  0  0  0  0  0  0
    7.3255  -18.4364   25.4021 C   0  0  1  0  0  0  0  0  0  0  0  0
    7.7321  -19.5772   24.4812 C   0  0  0  0  0  0  0  0  0  0  0  0
    6.5592  -20.1184   23.7257 C   0  0  0  0  0  0  0  0  0  0  0  0
    6.8581  -21.2635   22.8348 C   0  0  0  0  0  0  0  0  0  0  0  0
    6.2706  -22.5842   23.2279 C   0  0  0  0  0  0  0  0  0  0  0  0
    6.6492  -23.6033   22.3094 N   0  0  0  0  0  0  0  0  0  0  0  0
    6.9925  -17.2537   24.5918 C   0  0  0  0  0  0  0  0  0  0  0  0
    5.8191  -17.0162   24.1757 O   0  0  0  0  0  0  0  0  0  0  0  0
    6.1642  -11.8670   28.8244 O   0  0  0  0  0  0  0  0  0  0  0  0
    6.7045  -12.3814   27.6534 C   0  0  0  0  0  0  0  0  0  0  0  0
    5.9170  -12.5340   26.5413 C   0  0  0  0  0  0  0  0  0  0  0  0
    6.4634  -13.0466   25.3822 C   0  0  0  0  0  0  0  0  0  0  0  0
    7.7913  -13.4294   25.2581 C   0  0  0  0  0  0  0  0  0  0  0  0
    8.3734  -13.9642   24.0284 C   0  0  0  0  0  0  0  0  0  0  0  0
    7.6820  -15.1329   23.3958 C   0  0  2  0  0  0  0  0  0  0  0  0
    7.9875  -16.3304   24.2465 N   0  0  0  0  0  0  0  0  0  0  0  0
    8.0593  -15.4872   22.0413 C   0  0  0  0  0  0  0  0  0  0  0  0
    8.0764  -16.7563   21.7679 O   0  0  0  0  0  0  0  0  0  0  0  0
    8.5539  -13.2540   26.4207 C   0  0  0  0  0  0  0  0  0  0  0  0
    8.0358  -12.7465   27.5877 C   0  0  0  0  0  0  0  0  0  0  0  0
    8.4069  -14.6708   20.9599 N   0  0  0  0  0  0  0  0  0  0  0  0
    8.5174  -13.2299   20.9636 C   0  0  0  0  0  0  0  0  0  0  0  0
    7.6809  -12.8855   19.7366 C   0  0  0  0  0  0  0  0  0  0  0  0
    7.8045  -14.0754   18.8137 C   0  0  0  0  0  0  0  0  0  0  0  0
    8.6858  -15.0273   19.5865 C   0  0  1  0  0  0  0  0  0  0  0  0
   10.0984  -14.9378   19.2009 C   0  0  0  0  0  0  0  0  0  0  0  0
   10.4201  -15.3459   18.0632 O   0  0  0  0  0  0  0  0  0  0  0  0
   11.1194  -14.4364   19.9900 O   0  0  0  0  0  0  0  0  0  0  0  0
  2  1  1  6
  2  3  1  0
  3  4  1  0
  4  5  1  0
  6  7  1  0
  6  5  1  0
  8  2  1  0
  8  9  2  0
 10 11  1  0
 11 21  2  0
 12 11  1  0
 12 13  2  0
 13 14  1  0
 14 20  2  0
 14 15  1  0
 16 15  1  1
 16 17  1  0
 17  8  1  0
 18 16  1  0
 19 18  2  0
 21 20  1  0
 22 18  1  0
 22 26  1  0
 23 24  1  0
 23 22  1  0
 24 25  1  0
 26 25  1  0
 27 29  1  0
 26 27  1  6
 28 27  2  0
M  END
$$$$
