KEM.pdb
     RDKit          3D

 27 26  0  0  1  0  0  0  0  0999 V2000
    6.4242  -18.6511   22.4358 N   0  0  0  0  0  0  0  0  0  0  0  0
    6.8211  -19.7362   23.2851 C   0  0  1  0  0  0  0  0  0  0  0  0
    6.3655  -21.0887   22.8553 C   0  0  0  0  0  0  0  0  0  0  0  0
    4.9729  -21.1998   22.3685 C   0  0  0  0  0  0  0  0  0  0  0  0
    4.5215  -22.5453   21.9277 C   0  0  0  0  0  0  0  0  0  0  0  0
    3.1032  -22.5662   21.4039 C   0  0  0  0  0  0  0  0  0  0  0  0
    2.7319  -23.8905   20.9320 N   0  0  0  0  0  0  0  0  0  0  0  0
    8.3306  -19.7741   23.3773 C   0  0  0  0  0  0  0  0  0  0  0  0
    8.8395  -20.6631   24.1314 O   0  0  0  0  0  0  0  0  0  0  0  0
    9.1336  -18.8681   22.6626 N   0  0  0  0  0  0  0  0  0  0  0  0
   10.5474  -18.8454   22.7233 C   0  0  1  0  0  0  0  0  0  0  0  0
   11.1168  -18.3564   21.4320 C   0  0  0  0  0  0  0  0  0  0  0  0
   12.6347  -18.4566   21.5368 C   0  0  0  0  0  0  0  0  0  0  0  0
   13.2705  -17.9535   20.2922 C   0  0  0  0  0  0  0  0  0  0  0  0
   14.4582  -17.5470   20.2996 O   0  0  0  0  0  0  0  0  0  0  0  0
   11.1263  -18.1315   23.9052 C   0  0  0  0  0  0  0  0  0  0  0  0
   12.3391  -17.9344   24.1095 O   0  0  0  0  0  0  0  0  0  0  0  0
   12.5732  -17.9199   19.0968 O   0  0  0  0  0  0  0  0  0  0  0  0
    9.5722  -12.2737   28.7841 C   0  0  0  0  0  0  0  0  0  0  0  0
    9.1489  -13.3023   27.3741 S   0  0  0  0  0  0  0  0  0  0  0  0
   10.1948  -14.7651   27.3076 C   0  0  0  0  0  0  0  0  0  0  0  0
    9.9537  -15.6147   26.1216 C   0  0  0  0  0  0  0  0  0  0  0  0
   10.7178  -16.8831   26.0231 C   0  0  2  0  0  0  0  0  0  0  0  0
   10.1861  -17.6538   24.8501 N   0  0  0  0  0  0  0  0  0  0  0  0
   10.7093  -17.7964   27.1573 C   0  0  0  0  0  0  0  0  0  0  0  0
   11.8006  -17.8023   28.0514 O   0  0  0  0  0  0  0  0  0  0  0  0
    9.8098  -18.6075   27.4393 O   0  0  0  0  0  0  0  0  0  0  0  0
  2  1  1  6
  3  2  1  0
  4  3  1  0
  4  5  1  0
  5  6  1  0
  7  6  1  0
  8  2  1  0
  8  9  2  0
 10  8  1  0
 11 10  1  0
 11 12  1  6
 12 13  1  0
 13 14  1  0
 14 18  1  0
 15 14  2  0
 16 11  1  0
 17 16  2  0
 20 19  1  0
 20 21  1  0
 21 22  1  0
 23 22  1  1
 23 24  1  0
 24 16  1  0
 25 23  1  0
 25 26  1  0
 27 25  2  0
M  END
$$$$
