KEM.pdb
     RDKit          3D

 27 26  0  0  1  0  0  0  0  0999 V2000
    5.8902  -16.9886   20.8519 N   0  0  0  0  0  0  0  0  0  0  0  0
    6.9986  -16.0883   20.9837 C   0  0  1  0  0  0  0  0  0  0  0  0
    6.6443  -14.6731   21.2891 C   0  0  0  0  0  0  0  0  0  0  0  0
    6.7229  -13.7094   20.1694 C   0  0  0  0  0  0  0  0  0  0  0  0
    8.0662  -13.4752   19.5786 C   0  0  0  0  0  0  0  0  0  0  0  0
    8.0636  -12.4701   18.4490 C   0  0  0  0  0  0  0  0  0  0  0  0
    9.3788  -12.3539   17.8398 N   0  0  0  0  0  0  0  0  0  0  0  0
    7.9115  -16.5756   22.0871 C   0  0  0  0  0  0  0  0  0  0  0  0
    7.3828  -16.7738   23.2268 O   0  0  0  0  0  0  0  0  0  0  0  0
    9.2814  -16.7986   21.8627 N   0  0  0  0  0  0  0  0  0  0  0  0
   10.2125  -17.0971   22.8861 C   0  0  1  0  0  0  0  0  0  0  0  0
   11.5685  -17.3303   22.3051 C   0  0  0  0  0  0  0  0  0  0  0  0
   12.4944  -17.7200   23.4523 C   0  0  0  0  0  0  0  0  0  0  0  0
   13.8844  -17.8892   22.9566 C   0  0  0  0  0  0  0  0  0  0  0  0
   14.8201  -17.1971   23.4270 O   0  0  0  0  0  0  0  0  0  0  0  0
   10.2430  -16.1279   24.0268 C   0  0  0  0  0  0  0  0  0  0  0  0
   10.6869  -14.9650   23.9775 O   0  0  0  0  0  0  0  0  0  0  0  0
   14.1830  -18.8105   21.9674 O   0  0  0  0  0  0  0  0  0  0  0  0
    6.9961  -11.4841   26.9396 C   0  0  0  0  0  0  0  0  0  0  0  0
    6.5542  -13.1627   27.4003 S   0  0  0  0  0  0  0  0  0  0  0  0
    8.0238  -14.1781   27.6182 C   0  0  0  0  0  0  0  0  0  0  0  0
    8.3499  -15.0121   26.4415 C   0  0  0  0  0  0  0  0  0  0  0  0
    9.6864  -15.6561   26.4098 C   0  0  2  0  0  0  0  0  0  0  0  0
    9.7143  -16.6077   25.2496 N   0  0  0  0  0  0  0  0  0  0  0  0
   10.1293  -16.4096   27.5746 C   0  0  0  0  0  0  0  0  0  0  0  0
   10.3103  -15.7427   28.8045 O   0  0  0  0  0  0  0  0  0  0  0  0
   10.3772  -17.6277   27.6094 O   0  0  0  0  0  0  0  0  0  0  0  0
  2  1  1  1
  3  2  1  0
  4  3  1  0
  4  5  1  0
  5  6  1  0
  7  6  1  0
  8  2  1  0
  8  9  2  0
 10  8  1  0
 11 10  1  0
 11 12  1  6
 12 13  1  0
 13 14  1  0
 14 18  1  0
 15 14  2  0
 16 11  1  0
 17 16  2  0
 20 19  1  0
 20 21  1  0
 21 22  1  0
 23 22  1  1
 23 24  1  0
 24 16  1  0
 25 23  1  0
 25 26  1  0
 27 25  2  0
M  END
$$$$
