KEM.pdb
     RDKit          3D

 27 26  0  0  1  0  0  0  0  0999 V2000
    6.7620  -17.1013   20.8223 N   0  0  0  0  0  0  0  0  0  0  0  0
    7.8934  -16.2662   21.1033 C   0  0  1  0  0  0  0  0  0  0  0  0
    7.5853  -14.8296   21.3545 C   0  0  0  0  0  0  0  0  0  0  0  0
    7.1860  -14.0186   20.1835 C   0  0  0  0  0  0  0  0  0  0  0  0
    8.2275  -13.7694   19.1532 C   0  0  0  0  0  0  0  0  0  0  0  0
    7.7214  -12.9977   17.9554 C   0  0  0  0  0  0  0  0  0  0  0  0
    8.6884  -13.0101   16.8696 N   0  0  0  0  0  0  0  0  0  0  0  0
    8.6160  -16.7950   22.3226 C   0  0  0  0  0  0  0  0  0  0  0  0
    7.8950  -17.2204   23.2802 O   0  0  0  0  0  0  0  0  0  0  0  0
   10.0200  -16.8149   22.3937 N   0  0  0  0  0  0  0  0  0  0  0  0
   10.7486  -17.0906   23.5753 C   0  0  1  0  0  0  0  0  0  0  0  0
   12.1507  -17.4842   23.2433 C   0  0  0  0  0  0  0  0  0  0  0  0
   12.0960  -18.8677   22.6046 C   0  0  0  0  0  0  0  0  0  0  0  0
   13.4580  -19.3023   22.2015 C   0  0  0  0  0  0  0  0  0  0  0  0
   13.8682  -19.1168   21.0297 O   0  0  0  0  0  0  0  0  0  0  0  0
   10.6920  -16.0255   24.6259 C   0  0  0  0  0  0  0  0  0  0  0  0
   10.7909  -14.8007   24.4216 O   0  0  0  0  0  0  0  0  0  0  0  0
   14.3070  -19.9204   23.1035 O   0  0  0  0  0  0  0  0  0  0  0  0
    6.6611  -11.3080   27.7475 C   0  0  0  0  0  0  0  0  0  0  0  0
    7.1550  -12.6531   26.6649 S   0  0  0  0  0  0  0  0  0  0  0  0
    8.5114  -13.5924   27.3834 C   0  0  0  0  0  0  0  0  0  0  0  0
    9.0360  -14.6524   26.4959 C   0  0  0  0  0  0  0  0  0  0  0  0
   10.1734  -15.4627   26.9978 C   0  0  2  0  0  0  0  0  0  0  0  0
   10.5096  -16.4859   25.9525 N   0  0  0  0  0  0  0  0  0  0  0  0
   10.0190  -16.1867   28.2518 C   0  0  0  0  0  0  0  0  0  0  0  0
   10.4379  -15.5842   29.4567 O   0  0  0  0  0  0  0  0  0  0  0  0
    9.5388  -17.3258   28.3869 O   0  0  0  0  0  0  0  0  0  0  0  0
  2  1  1  1
  3  2  1  0
  4  3  1  0
  4  5  1  0
  5  6  1  0
  7  6  1  0
  8  2  1  0
  8  9  2  0
 10  8  1  0
 11 10  1  0
 11 12  1  6
 12 13  1  0
 13 14  1  0
 14 18  1  0
 15 14  2  0
 16 11  1  0
 17 16  2  0
 20 19  1  0
 20 21  1  0
 21 22  1  0
 23 22  1  6
 23 24  1  0
 24 16  1  0
 25 23  1  0
 25 26  1  0
 27 25  2  0
M  END
$$$$
