KEM.pdb
     RDKit          3D

 27 26  0  0  1  0  0  0  0  0999 V2000
    6.6461  -17.5317   20.0721 N   0  0  0  0  0  0  0  0  0  0  0  0
    8.0654  -17.3647   19.9531 C   0  0  1  0  0  0  0  0  0  0  0  0
    8.5108  -16.1134   19.2765 C   0  0  0  0  0  0  0  0  0  0  0  0
    8.0189  -14.8381   19.8421 C   0  0  0  0  0  0  0  0  0  0  0  0
    8.5025  -13.5883   19.1997 C   0  0  0  0  0  0  0  0  0  0  0  0
    8.0435  -12.3302   19.9017 C   0  0  0  0  0  0  0  0  0  0  0  0
    8.5026  -11.1381   19.2073 N   0  0  0  0  0  0  0  0  0  0  0  0
    8.6893  -17.3821   21.3310 C   0  0  0  0  0  0  0  0  0  0  0  0
    7.8954  -17.3323   22.3236 O   0  0  0  0  0  0  0  0  0  0  0  0
   10.0826  -17.4498   21.5061 N   0  0  0  0  0  0  0  0  0  0  0  0
   10.7151  -17.6204   22.7608 C   0  0  1  0  0  0  0  0  0  0  0  0
   12.1775  -17.8629   22.5785 C   0  0  0  0  0  0  0  0  0  0  0  0
   12.3320  -19.2071   21.8754 C   0  0  0  0  0  0  0  0  0  0  0  0
   13.7612  -19.4621   21.5613 C   0  0  0  0  0  0  0  0  0  0  0  0
   14.4628  -18.5787   21.0105 O   0  0  0  0  0  0  0  0  0  0  0  0
   10.4390  -16.5479   23.7682 C   0  0  0  0  0  0  0  0  0  0  0  0
   10.3029  -15.3356   23.5166 O   0  0  0  0  0  0  0  0  0  0  0  0
   14.3544  -20.6751   21.8664 O   0  0  0  0  0  0  0  0  0  0  0  0
    5.8504  -12.5345   27.3351 C   0  0  0  0  0  0  0  0  0  0  0  0
    6.5287  -13.6682   26.1185 S   0  0  0  0  0  0  0  0  0  0  0  0
    8.0083  -14.4768   26.7472 C   0  0  0  0  0  0  0  0  0  0  0  0
    8.6696  -15.3569   25.7600 C   0  0  0  0  0  0  0  0  0  0  0  0
    9.9713  -15.9573   26.1439 C   0  0  2  0  0  0  0  0  0  0  0  0
   10.3296  -16.9851   25.1106 N   0  0  0  0  0  0  0  0  0  0  0  0
   10.0857  -16.6139   27.4387 C   0  0  0  0  0  0  0  0  0  0  0  0
   10.1266  -15.8316   28.6119 O   0  0  0  0  0  0  0  0  0  0  0  0
   10.1549  -17.8398   27.6359 O   0  0  0  0  0  0  0  0  0  0  0  0
  2  1  1  1
  3  2  1  0
  4  3  1  0
  4  5  1  0
  5  6  1  0
  7  6  1  0
  8  2  1  0
  8  9  2  0
 10  8  1  0
 11 10  1  0
 11 12  1  6
 12 13  1  0
 13 14  1  0
 14 18  1  0
 15 14  2  0
 16 11  1  0
 17 16  2  0
 20 19  1  0
 20 21  1  0
 21 22  1  0
 23 22  1  6
 23 24  1  0
 24 16  1  0
 25 23  1  0
 25 26  1  0
 27 25  2  0
M  END
$$$$
