KEM.pdb
     RDKit          3D

 27 26  0  0  1  0  0  0  0  0999 V2000
    6.6888  -16.8435   19.4534 N   0  0  0  0  0  0  0  0  0  0  0  0
    7.6722  -15.8815   19.8584 C   0  0  1  0  0  0  0  0  0  0  0  0
    7.1710  -14.4905   20.0472 C   0  0  0  0  0  0  0  0  0  0  0  0
    7.4691  -13.5222   18.9693 C   0  0  0  0  0  0  0  0  0  0  0  0
    8.1797  -14.0463   17.7740 C   0  0  0  0  0  0  0  0  0  0  0  0
    7.5011  -13.7022   16.4673 C   0  0  0  0  0  0  0  0  0  0  0  0
    8.4378  -13.1169   15.5216 N   0  0  0  0  0  0  0  0  0  0  0  0
    8.2944  -16.3208   21.1654 C   0  0  0  0  0  0  0  0  0  0  0  0
    7.4978  -16.6224   22.1100 O   0  0  0  0  0  0  0  0  0  0  0  0
    9.6890  -16.3917   21.3283 N   0  0  0  0  0  0  0  0  0  0  0  0
   10.3273  -16.7289   22.5457 C   0  0  1  0  0  0  0  0  0  0  0  0
   11.7957  -16.9015   22.3339 C   0  0  0  0  0  0  0  0  0  0  0  0
   11.9801  -18.0168   21.3107 C   0  0  0  0  0  0  0  0  0  0  0  0
   13.4111  -18.1343   20.9301 C   0  0  0  0  0  0  0  0  0  0  0  0
   13.7382  -18.4553   19.7615 O   0  0  0  0  0  0  0  0  0  0  0  0
   10.0229  -15.8256   23.7002 C   0  0  0  0  0  0  0  0  0  0  0  0
   10.0525  -14.5806   23.6731 O   0  0  0  0  0  0  0  0  0  0  0  0
   14.4172  -17.8938   21.8502 O   0  0  0  0  0  0  0  0  0  0  0  0
    7.8269  -11.2201   27.1502 C   0  0  0  0  0  0  0  0  0  0  0  0
    7.0308  -12.3224   25.9770 S   0  0  0  0  0  0  0  0  0  0  0  0
    7.2241  -14.0407   26.4753 C   0  0  0  0  0  0  0  0  0  0  0  0
    7.9871  -14.8580   25.5076 C   0  0  0  0  0  0  0  0  0  0  0  0
    9.1489  -15.6224   26.0253 C   0  0  2  0  0  0  0  0  0  0  0  0
    9.6757  -16.4762   24.9090 N   0  0  0  0  0  0  0  0  0  0  0  0
    8.9545  -16.5058   27.1665 C   0  0  0  0  0  0  0  0  0  0  0  0
    9.2297  -17.8829   27.0325 O   0  0  0  0  0  0  0  0  0  0  0  0
    8.5558  -16.1691   28.2953 O   0  0  0  0  0  0  0  0  0  0  0  0
  2  1  1  1
  3  2  1  0
  4  3  1  0
  4  5  1  0
  5  6  1  0
  7  6  1  0
  8  2  1  0
  8  9  2  0
 10  8  1  0
 11 10  1  0
 11 12  1  6
 12 13  1  0
 13 14  1  0
 14 18  1  0
 15 14  2  0
 16 11  1  0
 17 16  2  0
 20 19  1  0
 20 21  1  0
 21 22  1  0
 23 22  1  6
 23 24  1  0
 24 16  1  0
 25 23  1  0
 25 26  1  0
 27 25  2  0
M  END
$$$$
