KEM.pdb
     RDKit          3D

 27 26  0  0  1  0  0  0  0  0999 V2000
    4.3676  -19.5807   20.1070 N   0  0  0  0  0  0  0  0  0  0  0  0
    4.3460  -18.4187   20.9470 C   0  0  1  0  0  0  0  0  0  0  0  0
    3.2120  -18.3437   21.9114 C   0  0  0  0  0  0  0  0  0  0  0  0
    2.3477  -19.5395   22.0188 C   0  0  0  0  0  0  0  0  0  0  0  0
    1.1702  -19.4377   22.9197 C   0  0  0  0  0  0  0  0  0  0  0  0
    0.3125  -20.6828   22.9376 C   0  0  0  0  0  0  0  0  0  0  0  0
   -0.8441  -20.5173   23.8031 N   0  0  0  0  0  0  0  0  0  0  0  0
    5.6276  -18.3555   21.7480 C   0  0  0  0  0  0  0  0  0  0  0  0
    5.7241  -19.1412   22.7436 O   0  0  0  0  0  0  0  0  0  0  0  0
    6.6640  -17.4685   21.4077 N   0  0  0  0  0  0  0  0  0  0  0  0
    7.9034  -17.4014   22.0880 C   0  0  1  0  0  0  0  0  0  0  0  0
    9.0357  -17.5188   21.1212 C   0  0  0  0  0  0  0  0  0  0  0  0
   10.3254  -17.5611   21.9335 C   0  0  0  0  0  0  0  0  0  0  0  0
   11.5003  -17.6506   21.0290 C   0  0  0  0  0  0  0  0  0  0  0  0
   12.1448  -16.6206   20.7135 O   0  0  0  0  0  0  0  0  0  0  0  0
    8.0646  -16.2341   23.0115 C   0  0  0  0  0  0  0  0  0  0  0  0
    7.8086  -15.0478   22.7309 O   0  0  0  0  0  0  0  0  0  0  0  0
   11.9134  -18.8668   20.5125 O   0  0  0  0  0  0  0  0  0  0  0  0
    6.2491  -11.0039   27.2791 C   0  0  0  0  0  0  0  0  0  0  0  0
    6.0859  -12.4787   26.2673 S   0  0  0  0  0  0  0  0  0  0  0  0
    7.6180  -13.4225   26.2539 C   0  0  0  0  0  0  0  0  0  0  0  0
    7.6078  -14.5589   25.3078 C   0  0  0  0  0  0  0  0  0  0  0  0
    8.8330  -15.3924   25.2280 C   0  0  2  0  0  0  0  0  0  0  0  0
    8.5513  -16.5420   24.3051 N   0  0  0  0  0  0  0  0  0  0  0  0
    9.3712  -15.9667   26.4531 C   0  0  0  0  0  0  0  0  0  0  0  0
    9.8943  -15.1137   27.4477 O   0  0  0  0  0  0  0  0  0  0  0  0
    9.4246  -17.1769   26.7342 O   0  0  0  0  0  0  0  0  0  0  0  0
  2  1  1  1
  3  2  1  0
  4  3  1  0
  4  5  1  0
  5  6  1  0
  7  6  1  0
  8  2  1  0
  8  9  2  0
 10  8  1  0
 11 10  1  0
 11 12  1  6
 12 13  1  0
 13 14  1  0
 14 18  1  0
 15 14  2  0
 16 11  1  0
 17 16  2  0
 20 19  1  0
 20 21  1  0
 21 22  1  0
 23 22  1  1
 23 24  1  0
 24 16  1  0
 25 23  1  0
 25 26  1  0
 27 25  2  0
M  END
$$$$
