KEM.pdb
     RDKit          3D

 27 26  0  0  1  0  0  0  0  0999 V2000
    5.8518  -17.0890   21.0839 N   0  0  0  0  0  0  0  0  0  0  0  0
    6.9201  -16.1363   21.1700 C   0  0  1  0  0  0  0  0  0  0  0  0
    6.5036  -14.7211   21.3830 C   0  0  0  0  0  0  0  0  0  0  0  0
    6.7689  -13.7742   20.2778 C   0  0  0  0  0  0  0  0  0  0  0  0
    8.1935  -13.5178   19.9412 C   0  0  0  0  0  0  0  0  0  0  0  0
    8.3880  -12.3938   18.9487 C   0  0  0  0  0  0  0  0  0  0  0  0
    9.7968  -12.1797   18.6596 N   0  0  0  0  0  0  0  0  0  0  0  0
    7.8389  -16.5153   22.3104 C   0  0  0  0  0  0  0  0  0  0  0  0
    7.2955  -16.7355   23.4392 O   0  0  0  0  0  0  0  0  0  0  0  0
    9.2294  -16.6189   22.1306 N   0  0  0  0  0  0  0  0  0  0  0  0
   10.1392  -16.9417   23.1656 C   0  0  1  0  0  0  0  0  0  0  0  0
   11.4633  -17.3293   22.5935 C   0  0  0  0  0  0  0  0  0  0  0  0
   12.3231  -17.8433   23.7431 C   0  0  0  0  0  0  0  0  0  0  0  0
   13.6323  -18.3234   23.2316 C   0  0  0  0  0  0  0  0  0  0  0  0
   13.7205  -19.4216   22.6299 O   0  0  0  0  0  0  0  0  0  0  0  0
   10.2674  -15.9159   24.2486 C   0  0  0  0  0  0  0  0  0  0  0  0
   10.6389  -14.7376   24.0898 O   0  0  0  0  0  0  0  0  0  0  0  0
   14.7846  -17.5756   23.4041 O   0  0  0  0  0  0  0  0  0  0  0  0
    6.8473  -11.4231   26.1945 C   0  0  0  0  0  0  0  0  0  0  0  0
    6.6871  -12.7933   27.3444 S   0  0  0  0  0  0  0  0  0  0  0  0
    8.2674  -13.6200   27.5844 C   0  0  0  0  0  0  0  0  0  0  0  0
    8.5919  -14.6008   26.5264 C   0  0  0  0  0  0  0  0  0  0  0  0
    9.8821  -15.3253   26.6390 C   0  0  2  0  0  0  0  0  0  0  0  0
    9.9295  -16.3578   25.5508 N   0  0  0  0  0  0  0  0  0  0  0  0
   10.1906  -16.0187   27.8818 C   0  0  0  0  0  0  0  0  0  0  0  0
   10.3509  -15.2748   29.0698 O   0  0  0  0  0  0  0  0  0  0  0  0
   10.3354  -17.2460   28.0207 O   0  0  0  0  0  0  0  0  0  0  0  0
  2  1  1  1
  3  2  1  0
  4  3  1  0
  4  5  1  0
  5  6  1  0
  7  6  1  0
  8  2  1  0
  8  9  2  0
 10  8  1  0
 11 10  1  0
 11 12  1  6
 12 13  1  0
 13 14  1  0
 14 18  1  0
 15 14  2  0
 16 11  1  0
 17 16  2  0
 20 19  1  0
 20 21  1  0
 21 22  1  0
 23 22  1  1
 23 24  1  0
 24 16  1  0
 25 23  1  0
 25 26  1  0
 27 25  2  0
M  END
$$$$
