KEM.pdb
     RDKit          3D

 27 26  0  0  1  0  0  0  0  0999 V2000
   10.0312  -13.4838   18.9821 N   0  0  0  0  0  0  0  0  0  0  0  0
    8.8160  -13.3882   19.7374 C   0  0  1  0  0  0  0  0  0  0  0  0
    7.5574  -13.4735   18.9435 C   0  0  0  0  0  0  0  0  0  0  0  0
    7.6896  -13.3880   17.4726 C   0  0  0  0  0  0  0  0  0  0  0  0
    7.7445  -14.6729   16.7279 C   0  0  0  0  0  0  0  0  0  0  0  0
    7.7233  -14.5031   15.2256 C   0  0  0  0  0  0  0  0  0  0  0  0
    7.6712  -15.7883   14.5475 N   0  0  0  0  0  0  0  0  0  0  0  0
    8.7781  -14.4950   20.7680 C   0  0  0  0  0  0  0  0  0  0  0  0
    7.6993  -14.6310   21.4278 O   0  0  0  0  0  0  0  0  0  0  0  0
    9.8848  -15.3341   20.9863 N   0  0  0  0  0  0  0  0  0  0  0  0
    9.9748  -16.2647   22.0489 C   0  0  1  0  0  0  0  0  0  0  0  0
   11.1257  -17.1920   21.8336 C   0  0  0  0  0  0  0  0  0  0  0  0
   10.8833  -17.9203   20.5161 C   0  0  0  0  0  0  0  0  0  0  0  0
   12.0246  -18.8198   20.2081 C   0  0  0  0  0  0  0  0  0  0  0  0
   12.5641  -18.8038   19.0748 O   0  0  0  0  0  0  0  0  0  0  0  0
    9.9746  -15.6700   23.4228 C   0  0  0  0  0  0  0  0  0  0  0  0
   10.6338  -14.6759   23.7818 O   0  0  0  0  0  0  0  0  0  0  0  0
   12.5209  -19.6954   21.1586 O   0  0  0  0  0  0  0  0  0  0  0  0
    6.6588  -11.2870   26.1274 C   0  0  0  0  0  0  0  0  0  0  0  0
    6.0373  -12.8972   26.6237 S   0  0  0  0  0  0  0  0  0  0  0  0
    7.3875  -14.0629   26.8610 C   0  0  0  0  0  0  0  0  0  0  0  0
    7.8435  -14.7069   25.6105 C   0  0  0  0  0  0  0  0  0  0  0  0
    8.9771  -15.6598   25.7067 C   0  0  2  0  0  0  0  0  0  0  0  0
    9.1432  -16.3181   24.3682 N   0  0  0  0  0  0  0  0  0  0  0  0
    8.9103  -16.7316   26.6903 C   0  0  0  0  0  0  0  0  0  0  0  0
    9.0349  -16.4236   28.0614 O   0  0  0  0  0  0  0  0  0  0  0  0
    8.7492  -17.9406   26.4480 O   0  0  0  0  0  0  0  0  0  0  0  0
  2  1  1  6
  3  2  1  0
  4  3  1  0
  4  5  1  0
  5  6  1  0
  7  6  1  0
  8  2  1  0
  8  9  2  0
 10  8  1  0
 11 10  1  0
 11 12  1  6
 12 13  1  0
 13 14  1  0
 14 18  1  0
 15 14  2  0
 16 11  1  0
 17 16  2  0
 20 19  1  0
 20 21  1  0
 21 22  1  0
 23 22  1  6
 23 24  1  0
 24 16  1  0
 25 23  1  0
 25 26  1  0
 27 25  2  0
M  END
$$$$
