KEM.pdb
     RDKit          3D

 27 26  0  0  1  0  0  0  0  0999 V2000
   10.5492  -13.2686   19.3163 N   0  0  0  0  0  0  0  0  0  0  0  0
    9.2263  -13.2942   19.8692 C   0  0  1  0  0  0  0  0  0  0  0  0
    8.1197  -13.4424   18.8817 C   0  0  0  0  0  0  0  0  0  0  0  0
    8.5072  -13.7405   17.4855 C   0  0  0  0  0  0  0  0  0  0  0  0
    7.4128  -13.7904   16.4814 C   0  0  0  0  0  0  0  0  0  0  0  0
    7.8723  -14.2202   15.1064 C   0  0  0  0  0  0  0  0  0  0  0  0
    6.7623  -14.2714   14.1686 N   0  0  0  0  0  0  0  0  0  0  0  0
    9.1153  -14.4404   20.8503 C   0  0  0  0  0  0  0  0  0  0  0  0
    7.9970  -14.5898   21.4376 O   0  0  0  0  0  0  0  0  0  0  0  0
   10.1988  -15.3003   21.1014 N   0  0  0  0  0  0  0  0  0  0  0  0
   10.1622  -16.3695   22.0280 C   0  0  1  0  0  0  0  0  0  0  0  0
   11.2519  -17.3487   21.7374 C   0  0  0  0  0  0  0  0  0  0  0  0
   11.0542  -18.5396   22.6689 C   0  0  0  0  0  0  0  0  0  0  0  0
   12.0503  -19.5994   22.3673 C   0  0  0  0  0  0  0  0  0  0  0  0
   12.9602  -19.8744   23.1872 O   0  0  0  0  0  0  0  0  0  0  0  0
   10.1309  -15.9668   23.4697 C   0  0  0  0  0  0  0  0  0  0  0  0
   10.9506  -15.2141   24.0293 O   0  0  0  0  0  0  0  0  0  0  0  0
   12.0015  -20.3086   21.1794 O   0  0  0  0  0  0  0  0  0  0  0  0
    5.0418  -12.4578   26.5512 C   0  0  0  0  0  0  0  0  0  0  0  0
    6.7866  -12.8610   26.6876 S   0  0  0  0  0  0  0  0  0  0  0  0
    7.2404  -14.1569   25.5244 C   0  0  0  0  0  0  0  0  0  0  0  0
    8.6528  -14.5819   25.6295 C   0  0  0  0  0  0  0  0  0  0  0  0
    8.9276  -16.0401   25.6510 C   0  0  2  0  0  0  0  0  0  0  0  0
    9.0656  -16.5060   24.2309 N   0  0  0  0  0  0  0  0  0  0  0  0
    7.9620  -16.9262   26.2858 C   0  0  0  0  0  0  0  0  0  0  0  0
    7.3820  -17.9712   25.5363 O   0  0  0  0  0  0  0  0  0  0  0  0
    7.5735  -16.8632   27.4655 O   0  0  0  0  0  0  0  0  0  0  0  0
  2  1  1  6
  3  2  1  0
  4  3  1  0
  4  5  1  0
  5  6  1  0
  7  6  1  0
  8  2  1  0
  8  9  2  0
 10  8  1  0
 11 10  1  0
 11 12  1  1
 12 13  1  0
 13 14  1  0
 14 18  1  0
 15 14  2  0
 16 11  1  0
 17 16  2  0
 20 19  1  0
 20 21  1  0
 21 22  1  0
 23 22  1  6
 23 24  1  0
 24 16  1  0
 25 23  1  0
 25 26  1  0
 27 25  2  0
M  END
$$$$
