KEM.pdb
     RDKit          3D

 27 26  0  0  1  0  0  0  0  0999 V2000
    9.8703  -15.0935   18.5410 N   0  0  0  0  0  0  0  0  0  0  0  0
    9.2511  -14.0895   19.3564 C   0  0  1  0  0  0  0  0  0  0  0  0
    8.1048  -13.3707   18.7311 C   0  0  0  0  0  0  0  0  0  0  0  0
    8.1145  -13.2550   17.2564 C   0  0  0  0  0  0  0  0  0  0  0  0
    7.2059  -14.1606   16.5062 C   0  0  0  0  0  0  0  0  0  0  0  0
    7.6337  -14.3977   15.0754 C   0  0  0  0  0  0  0  0  0  0  0  0
    6.9549  -13.4924   14.1623 N   0  0  0  0  0  0  0  0  0  0  0  0
    8.7469  -14.7226   20.6344 C   0  0  0  0  0  0  0  0  0  0  0  0
    8.1603  -13.9573   21.4640 O   0  0  0  0  0  0  0  0  0  0  0  0
    8.9193  -16.0937   20.8931 N   0  0  0  0  0  0  0  0  0  0  0  0
    8.4471  -16.7447   22.0577 C   0  0  1  0  0  0  0  0  0  0  0  0
    8.6614  -18.2192   21.9539 C   0  0  0  0  0  0  0  0  0  0  0  0
    8.0490  -18.8568   23.1962 C   0  0  0  0  0  0  0  0  0  0  0  0
    8.2742  -20.3250   23.1849 C   0  0  0  0  0  0  0  0  0  0  0  0
    9.0065  -20.8533   22.3129 O   0  0  0  0  0  0  0  0  0  0  0  0
    8.9524  -16.1877   23.3523 C   0  0  0  0  0  0  0  0  0  0  0  0
   10.1486  -15.9887   23.6374 O   0  0  0  0  0  0  0  0  0  0  0  0
    7.6851  -21.1455   24.1316 O   0  0  0  0  0  0  0  0  0  0  0  0
    6.7792  -10.6856   25.8855 C   0  0  0  0  0  0  0  0  0  0  0  0
    6.5298  -11.8717   27.2108 S   0  0  0  0  0  0  0  0  0  0  0  0
    7.6600  -13.2628   27.0506 C   0  0  0  0  0  0  0  0  0  0  0  0
    7.4634  -14.0490   25.8137 C   0  0  0  0  0  0  0  0  0  0  0  0
    8.4031  -15.1690   25.5596 C   0  0  2  0  0  0  0  0  0  0  0  0
    7.9585  -15.8717   24.3101 N   0  0  0  0  0  0  0  0  0  0  0  0
    8.5610  -16.1967   26.5791 C   0  0  0  0  0  0  0  0  0  0  0  0
    9.4047  -15.9543   27.6835 O   0  0  0  0  0  0  0  0  0  0  0  0
    8.0126  -17.3128   26.5868 O   0  0  0  0  0  0  0  0  0  0  0  0
  2  1  1  6
  3  2  1  0
  4  3  1  0
  4  5  1  0
  5  6  1  0
  7  6  1  0
  8  2  1  0
  8  9  2  0
 10  8  1  0
 11 10  1  0
 11 12  1  6
 12 13  1  0
 13 14  1  0
 14 18  1  0
 15 14  2  0
 16 11  1  0
 17 16  2  0
 20 19  1  0
 20 21  1  0
 21 22  1  0
 23 22  1  1
 23 24  1  0
 24 16  1  0
 25 23  1  0
 25 26  1  0
 27 25  2  0
M  END
$$$$
