KEM.pdb
     RDKit          3D

 27 26  0  0  1  0  0  0  0  0999 V2000
    6.5910  -17.7100   21.2183 N   0  0  0  0  0  0  0  0  0  0  0  0
    7.7747  -16.9010   21.1947 C   0  0  1  0  0  0  0  0  0  0  0  0
    7.5468  -15.4280   21.2012 C   0  0  0  0  0  0  0  0  0  0  0  0
    7.5744  -14.7430   19.8903 C   0  0  0  0  0  0  0  0  0  0  0  0
    8.0383  -13.3312   19.8805 C   0  0  0  0  0  0  0  0  0  0  0  0
    7.8823  -12.6523   18.5385 C   0  0  0  0  0  0  0  0  0  0  0  0
    8.2804  -11.2553   18.6017 N   0  0  0  0  0  0  0  0  0  0  0  0
    8.6324  -17.2326   22.3958 C   0  0  0  0  0  0  0  0  0  0  0  0
    8.0299  -17.4165   23.5008 O   0  0  0  0  0  0  0  0  0  0  0  0
   10.0312  -17.3325   22.2951 N   0  0  0  0  0  0  0  0  0  0  0  0
   10.9044  -17.3645   23.4085 C   0  0  1  0  0  0  0  0  0  0  0  0
   12.3219  -17.4929   22.9556 C   0  0  0  0  0  0  0  0  0  0  0  0
   13.1780  -17.7170   24.1973 C   0  0  0  0  0  0  0  0  0  0  0  0
   14.6168  -17.7549   23.8301 C   0  0  0  0  0  0  0  0  0  0  0  0
   15.2040  -16.7179   23.4356 O   0  0  0  0  0  0  0  0  0  0  0  0
   10.7229  -16.2548   24.3969 C   0  0  0  0  0  0  0  0  0  0  0  0
   10.7802  -15.0377   24.1380 O   0  0  0  0  0  0  0  0  0  0  0  0
   15.3446  -18.9296   23.9131 O   0  0  0  0  0  0  0  0  0  0  0  0
    6.4825  -11.6341   27.6418 C   0  0  0  0  0  0  0  0  0  0  0  0
    7.1298  -12.8144   26.4530 S   0  0  0  0  0  0  0  0  0  0  0  0
    8.4249  -13.8242   27.1886 C   0  0  0  0  0  0  0  0  0  0  0  0
    9.0442  -14.7778   26.2433 C   0  0  0  0  0  0  0  0  0  0  0  0
   10.1891  -15.5827   26.7367 C   0  0  2  0  0  0  0  0  0  0  0  0
   10.4658  -16.6601   25.7291 N   0  0  0  0  0  0  0  0  0  0  0  0
   10.0760  -16.2435   28.0294 C   0  0  0  0  0  0  0  0  0  0  0  0
   10.3192  -17.6300   28.1234 O   0  0  0  0  0  0  0  0  0  0  0  0
    9.7759  -15.7004   29.1072 O   0  0  0  0  0  0  0  0  0  0  0  0
  2  1  1  1
  3  2  1  0
  4  3  1  0
  4  5  1  0
  5  6  1  0
  7  6  1  0
  8  2  1  0
  8  9  2  0
 10  8  1  0
 11 10  1  0
 11 12  1  6
 12 13  1  0
 13 14  1  0
 14 18  1  0
 15 14  2  0
 16 11  1  0
 17 16  2  0
 20 19  1  0
 20 21  1  0
 21 22  1  0
 23 22  1  6
 23 24  1  0
 24 16  1  0
 25 23  1  0
 25 26  1  0
 27 25  2  0
M  END
$$$$
