EKA.pdb
     RDKit          3D

 24 23  0  0  1  0  0  0  0  0999 V2000
   11.1368  -18.0077   15.2048 N   0  0  0  0  0  0  0  0  0  0  0  0
   11.6281  -19.0658   16.1183 C   0  0  1  0  0  0  0  0  0  0  0  0
   13.1176  -18.9853   16.1481 C   0  0  0  0  0  0  0  0  0  0  0  0
   13.7185  -17.6455   16.3540 C   0  0  0  0  0  0  0  0  0  0  0  0
   15.1960  -17.6137   16.2782 C   0  0  0  0  0  0  0  0  0  0  0  0
   15.8280  -18.6591   16.0082 O   0  0  0  0  0  0  0  0  0  0  0  0
   10.9980  -18.8572   17.4568 C   0  0  0  0  0  0  0  0  0  0  0  0
   10.2206  -17.8563   17.6198 O   0  0  0  0  0  0  0  0  0  0  0  0
   15.8837  -16.4113   16.5093 O   0  0  0  0  0  0  0  0  0  0  0  0
   11.1912  -19.6892   18.5761 N   0  0  0  0  0  0  0  0  0  0  0  0
   10.4314  -19.4831   19.8302 C   0  0  1  0  0  0  0  0  0  0  0  0
   10.3501  -20.8896   20.4131 C   0  0  0  0  0  0  0  0  0  0  0  0
    9.6121  -21.0148   21.6760 C   0  0  0  0  0  0  0  0  0  0  0  0
    9.5817  -22.4255   22.1808 C   0  0  0  0  0  0  0  0  0  0  0  0
    8.7959  -22.6958   23.4133 C   0  0  0  0  0  0  0  0  0  0  0  0
    8.7453  -24.0603   23.8325 N   0  0  0  0  0  0  0  0  0  0  0  0
   11.1364  -18.5173   20.6602 C   0  0  0  0  0  0  0  0  0  0  0  0
   12.4171  -18.4531   20.5855 O   0  0  0  0  0  0  0  0  0  0  0  0
   10.4854  -15.6380   23.0163 C   0  0  0  0  0  0  0  0  0  0  0  0
   11.3543  -16.7167   22.4115 C   0  0  2  0  0  0  0  0  0  0  0  0
   10.5750  -17.6014   21.5721 N   0  0  0  0  0  0  0  0  0  0  0  0
   12.0676  -17.3997   23.4804 C   0  0  0  0  0  0  0  0  0  0  0  0
   11.8166  -18.5907   23.7630 O   0  0  0  0  0  0  0  0  0  0  0  0
   13.0389  -16.7406   24.2047 O   0  0  0  0  0  0  0  0  0  0  0  0
  2  1  1  6
  2  7  1  0
  2  3  1  0
  3  4  1  0
  4  5  1  0
  5  9  1  0
  6  5  2  0
  7  8  2  0
 10 11  1  0
 10  7  1  0
 11 12  1  1
 12 13  1  0
 13 14  1  0
 14 15  1  0
 16 15  1  0
 17 18  2  0
 17 11  1  0
 20 19  1  1
 20 21  1  0
 21 17  1  0
 22 20  1  0
 22 24  1  0
 23 22  2  0
M  END
$$$$
