EKA.pdb
     RDKit          3D

 24 23  0  0  1  0  0  0  0  0999 V2000
    8.3904  -13.8680   18.9691 N   0  0  0  0  0  0  0  0  0  0  0  0
    9.3000  -14.4135   20.0036 C   0  0  1  0  0  0  0  0  0  0  0  0
   10.4202  -13.4440   20.1812 C   0  0  0  0  0  0  0  0  0  0  0  0
   11.4903  -13.4518   19.1549 C   0  0  0  0  0  0  0  0  0  0  0  0
   12.4638  -14.5585   19.2870 C   0  0  0  0  0  0  0  0  0  0  0  0
   12.5697  -15.1678   20.3745 O   0  0  0  0  0  0  0  0  0  0  0  0
    8.5086  -14.6370   21.2509 C   0  0  0  0  0  0  0  0  0  0  0  0
    7.5545  -13.8323   21.5247 O   0  0  0  0  0  0  0  0  0  0  0  0
   13.2651  -14.9212   18.1922 O   0  0  0  0  0  0  0  0  0  0  0  0
    8.7289  -15.6826   22.1678 N   0  0  0  0  0  0  0  0  0  0  0  0
    7.9175  -15.8114   23.3997 C   0  0  1  0  0  0  0  0  0  0  0  0
    7.6572  -17.3115   23.4796 C   0  0  0  0  0  0  0  0  0  0  0  0
    6.6045  -17.8241   22.5939 C   0  0  0  0  0  0  0  0  0  0  0  0
    6.5292  -19.3208   22.6050 C   0  0  0  0  0  0  0  0  0  0  0  0
    5.4955  -19.9616   21.7504 C   0  0  0  0  0  0  0  0  0  0  0  0
    5.5028  -21.3898   21.7298 N   0  0  0  0  0  0  0  0  0  0  0  0
    8.6644  -15.2600   24.5209 C   0  0  0  0  0  0  0  0  0  0  0  0
    9.9081  -15.5570   24.6438 O   0  0  0  0  0  0  0  0  0  0  0  0
    8.3785  -12.7369   27.3011 C   0  0  0  0  0  0  0  0  0  0  0  0
    8.9683  -13.9771   26.6699 C   0  0  2  0  0  0  0  0  0  0  0  0
    8.1833  -14.4039   25.5314 N   0  0  0  0  0  0  0  0  0  0  0  0
    9.1192  -14.9994   27.6946 C   0  0  0  0  0  0  0  0  0  0  0  0
    8.4774  -16.0699   27.6350 O   0  0  0  0  0  0  0  0  0  0  0  0
    9.9782  -14.8035   28.7559 O   0  0  0  0  0  0  0  0  0  0  0  0
  2  1  1  6
  2  7  1  0
  2  3  1  0
  3  4  1  0
  4  5  1  0
  5  9  1  0
  6  5  2  0
  7  8  2  0
 10 11  1  0
 10  7  1  0
 11 12  1  1
 12 13  1  0
 13 14  1  0
 14 15  1  0
 16 15  1  0
 17 18  2  0
 17 11  1  0
 20 19  1  1
 20 21  1  0
 21 17  1  0
 22 20  1  0
 22 24  1  0
 23 22  2  0
M  END
$$$$
