EKA.pdb
     RDKit          3D

 24 23  0  0  1  0  0  0  0  0999 V2000
    8.3035  -12.8937   18.2589 N   0  0  0  0  0  0  0  0  0  0  0  0
    7.4463  -13.7241   19.1370 C   0  0  1  0  0  0  0  0  0  0  0  0
    7.3312  -15.0751   18.5142 C   0  0  0  0  0  0  0  0  0  0  0  0
    8.5061  -15.5745   17.7602 C   0  0  0  0  0  0  0  0  0  0  0  0
    8.3067  -16.8865   17.1053 C   0  0  0  0  0  0  0  0  0  0  0  0
    7.2105  -17.4786   17.2189 O   0  0  0  0  0  0  0  0  0  0  0  0
    8.0601  -13.7515   20.4987 C   0  0  0  0  0  0  0  0  0  0  0  0
    9.3341  -13.7532   20.5977 O   0  0  0  0  0  0  0  0  0  0  0  0
    9.3476  -17.4625   16.3590 O   0  0  0  0  0  0  0  0  0  0  0  0
    7.3378  -13.7738   21.7072 N   0  0  0  0  0  0  0  0  0  0  0  0
    8.0274  -13.7791   23.0175 C   0  0  1  0  0  0  0  0  0  0  0  0
    6.9463  -13.2850   23.9723 C   0  0  0  0  0  0  0  0  0  0  0  0
    7.3597  -13.1150   25.3707 C   0  0  0  0  0  0  0  0  0  0  0  0
    6.2751  -12.5212   26.2174 C   0  0  0  0  0  0  0  0  0  0  0  0
    6.5809  -12.2774   27.6514 C   0  0  0  0  0  0  0  0  0  0  0  0
    5.5492  -11.6429   28.4087 N   0  0  0  0  0  0  0  0  0  0  0  0
    8.5177  -15.1220   23.2915 C   0  0  0  0  0  0  0  0  0  0  0  0
    8.1255  -16.0901   22.5438 O   0  0  0  0  0  0  0  0  0  0  0  0
   10.5913  -17.3813   23.2764 C   0  0  0  0  0  0  0  0  0  0  0  0
    9.8640  -16.8769   24.5016 C   0  0  2  0  0  0  0  0  0  0  0  0
    9.4066  -15.5171   24.3109 N   0  0  0  0  0  0  0  0  0  0  0  0
   10.7244  -17.0489   25.6626 C   0  0  0  0  0  0  0  0  0  0  0  0
   11.2252  -18.1613   25.9333 O   0  0  0  0  0  0  0  0  0  0  0  0
   11.0040  -15.9810   26.4896 O   0  0  0  0  0  0  0  0  0  0  0  0
  2  1  1  6
  2  7  1  0
  2  3  1  0
  3  4  1  0
  4  5  1  0
  5  9  1  0
  6  5  2  0
  7  8  2  0
 10 11  1  0
 10  7  1  0
 11 12  1  1
 12 13  1  0
 13 14  1  0
 14 15  1  0
 16 15  1  0
 17 18  2  0
 17 11  1  0
 20 19  1  6
 20 21  1  0
 21 17  1  0
 22 20  1  0
 22 24  1  0
 23 22  2  0
M  END
$$$$
