EKA.pdb
     RDKit          3D

 24 23  0  0  1  0  0  0  0  0999 V2000
    9.0897  -17.9056   16.7534 N   0  0  0  0  0  0  0  0  0  0  0  0
    8.8282  -18.9755   17.7445 C   0  0  1  0  0  0  0  0  0  0  0  0
   10.1424  -19.5634   18.1363 C   0  0  0  0  0  0  0  0  0  0  0  0
   11.3626  -18.8817   17.6418 C   0  0  0  0  0  0  0  0  0  0  0  0
   12.6344  -19.5085   18.0658 C   0  0  0  0  0  0  0  0  0  0  0  0
   13.4356  -18.8679   18.7818 O   0  0  0  0  0  0  0  0  0  0  0  0
    8.0828  -18.3768   18.8926 C   0  0  0  0  0  0  0  0  0  0  0  0
    8.2395  -17.1341   19.1449 O   0  0  0  0  0  0  0  0  0  0  0  0
   12.9377  -20.8194   17.6635 O   0  0  0  0  0  0  0  0  0  0  0  0
    7.2023  -19.0812   19.7359 N   0  0  0  0  0  0  0  0  0  0  0  0
    6.3875  -18.3825   20.7559 C   0  0  1  0  0  0  0  0  0  0  0  0
    5.1407  -19.2549   20.8506 C   0  0  0  0  0  0  0  0  0  0  0  0
    4.1448  -18.8379   21.8453 C   0  0  0  0  0  0  0  0  0  0  0  0
    2.9288  -19.7139   21.8361 C   0  0  0  0  0  0  0  0  0  0  0  0
    1.8145  -19.3496   22.7499 C   0  0  0  0  0  0  0  0  0  0  0  0
    0.6812  -20.2188   22.7269 N   0  0  0  0  0  0  0  0  0  0  0  0
    7.1553  -18.2777   21.9880 C   0  0  0  0  0  0  0  0  0  0  0  0
    7.8691  -19.2784   22.3611 O   0  0  0  0  0  0  0  0  0  0  0  0
    7.9864  -15.8179   24.7404 C   0  0  0  0  0  0  0  0  0  0  0  0
    7.8803  -17.2060   24.1519 C   0  0  2  0  0  0  0  0  0  0  0  0
    7.2247  -17.1746   22.8621 N   0  0  0  0  0  0  0  0  0  0  0  0
    7.2304  -18.0778   25.1191 C   0  0  0  0  0  0  0  0  0  0  0  0
    6.0773  -18.5153   24.9183 O   0  0  0  0  0  0  0  0  0  0  0  0
    7.8795  -18.4387   26.2815 O   0  0  0  0  0  0  0  0  0  0  0  0
  2  1  1  6
  2  7  1  0
  2  3  1  0
  3  4  1  0
  4  5  1  0
  5  9  1  0
  6  5  2  0
  7  8  2  0
 10 11  1  0
 10  7  1  0
 11 12  1  1
 12 13  1  0
 13 14  1  0
 14 15  1  0
 16 15  1  0
 17 18  2  0
 17 11  1  0
 20 19  1  1
 20 21  1  0
 21 17  1  0
 22 20  1  0
 22 24  1  0
 23 22  2  0
M  END
$$$$
