EKA.pdb
     RDKit          3D

 24 23  0  0  1  0  0  0  0  0999 V2000
    9.7108  -14.6802   18.9917 N   0  0  0  0  0  0  0  0  0  0  0  0
   10.4091  -15.4399   20.0550 C   0  0  1  0  0  0  0  0  0  0  0  0
   11.7266  -14.7816   20.2937 C   0  0  0  0  0  0  0  0  0  0  0  0
   12.7902  -15.0127   19.2869 C   0  0  0  0  0  0  0  0  0  0  0  0
   14.1034  -14.4232   19.6303 C   0  0  0  0  0  0  0  0  0  0  0  0
   14.4866  -14.4081   20.8211 O   0  0  0  0  0  0  0  0  0  0  0  0
    9.5326  -15.4638   21.2646 C   0  0  0  0  0  0  0  0  0  0  0  0
    8.5802  -14.6161   21.3492 O   0  0  0  0  0  0  0  0  0  0  0  0
   14.9148  -13.8829   18.6193 O   0  0  0  0  0  0  0  0  0  0  0  0
    9.6693  -16.3619   22.3404 N   0  0  0  0  0  0  0  0  0  0  0  0
    8.6995  -16.3782   23.4591 C   0  0  1  0  0  0  0  0  0  0  0  0
    8.5246  -17.8673   23.7354 C   0  0  0  0  0  0  0  0  0  0  0  0
    7.7350  -18.2067   24.9257 C   0  0  0  0  0  0  0  0  0  0  0  0
    7.5941  -19.6869   25.1131 C   0  0  0  0  0  0  0  0  0  0  0  0
    6.6663  -20.1582   26.1745 C   0  0  0  0  0  0  0  0  0  0  0  0
    6.5016  -21.5736   26.2736 N   0  0  0  0  0  0  0  0  0  0  0  0
    9.2419  -15.6099   24.5701 C   0  0  0  0  0  0  0  0  0  0  0  0
   10.5001  -15.6824   24.8186 O   0  0  0  0  0  0  0  0  0  0  0  0
    8.2273  -13.0612   27.1695 C   0  0  0  0  0  0  0  0  0  0  0  0
    9.1230  -14.1480   26.6208 C   0  0  2  0  0  0  0  0  0  0  0  0
    8.5393  -14.7577   25.4452 N   0  0  0  0  0  0  0  0  0  0  0  0
    9.4203  -15.0940   27.6859 C   0  0  0  0  0  0  0  0  0  0  0  0
   10.0227  -14.7316   28.7189 O   0  0  0  0  0  0  0  0  0  0  0  0
    9.0401  -16.4151   27.5734 O   0  0  0  0  0  0  0  0  0  0  0  0
  2  1  1  6
  2  7  1  0
  2  3  1  0
  3  4  1  0
  4  5  1  0
  5  9  1  0
  6  5  2  0
  7  8  2  0
 10 11  1  0
 10  7  1  0
 11 12  1  1
 12 13  1  0
 13 14  1  0
 14 15  1  0
 16 15  1  0
 17 18  2  0
 17 11  1  0
 20 19  1  1
 20 21  1  0
 21 17  1  0
 22 20  1  0
 22 24  1  0
 23 22  2  0
M  END
$$$$
