EKA.pdb
     RDKit          3D

 24 23  0  0  1  0  0  0  0  0999 V2000
    7.7307  -18.2553   19.9940 N   0  0  0  0  0  0  0  0  0  0  0  0
    9.2066  -18.1368   20.0480 C   0  0  1  0  0  0  0  0  0  0  0  0
    9.6717  -17.6384   18.7209 C   0  0  0  0  0  0  0  0  0  0  0  0
   11.1326  -17.4619   18.5389 C   0  0  0  0  0  0  0  0  0  0  0  0
   11.5390  -17.0459   17.1781 C   0  0  0  0  0  0  0  0  0  0  0  0
   12.7482  -16.8528   16.9215 O   0  0  0  0  0  0  0  0  0  0  0  0
    9.5612  -17.2268   21.1785 C   0  0  0  0  0  0  0  0  0  0  0  0
   10.7925  -16.9531   21.3829 O   0  0  0  0  0  0  0  0  0  0  0  0
   10.5672  -16.8694   16.1798 O   0  0  0  0  0  0  0  0  0  0  0  0
    8.6333  -16.6313   22.0543 N   0  0  0  0  0  0  0  0  0  0  0  0
    9.0759  -15.8149   23.2075 C   0  0  1  0  0  0  0  0  0  0  0  0
    7.8061  -15.0695   23.6032 C   0  0  0  0  0  0  0  0  0  0  0  0
    7.8966  -14.2591   24.8240 C   0  0  0  0  0  0  0  0  0  0  0  0
    6.6478  -13.4706   25.0785 C   0  0  0  0  0  0  0  0  0  0  0  0
    6.6550  -12.5269   26.2269 C   0  0  0  0  0  0  0  0  0  0  0  0
    5.5223  -11.6627   26.3294 N   0  0  0  0  0  0  0  0  0  0  0  0
    9.6134  -16.6948   24.2349 C   0  0  0  0  0  0  0  0  0  0  0  0
    8.9450  -17.7398   24.5685 O   0  0  0  0  0  0  0  0  0  0  0  0
   12.8278  -17.6136   25.8334 C   0  0  0  0  0  0  0  0  0  0  0  0
   11.3216  -17.5083   25.9014 C   0  0  2  0  0  0  0  0  0  0  0  0
   10.8243  -16.5472   24.9404 N   0  0  0  0  0  0  0  0  0  0  0  0
   10.9322  -17.2207   27.2738 C   0  0  0  0  0  0  0  0  0  0  0  0
   10.2569  -16.2069   27.5521 O   0  0  0  0  0  0  0  0  0  0  0  0
   11.3040  -18.0670   28.2976 O   0  0  0  0  0  0  0  0  0  0  0  0
  2  1  1  6
  2  7  1  0
  2  3  1  0
  3  4  1  0
  4  5  1  0
  5  9  1  0
  6  5  2  0
  7  8  2  0
 10 11  1  0
 10  7  1  0
 11 12  1  1
 12 13  1  0
 13 14  1  0
 14 15  1  0
 16 15  1  0
 17 18  2  0
 17 11  1  0
 20 19  1  1
 20 21  1  0
 21 17  1  0
 22 20  1  0
 22 24  1  0
 23 22  2  0
M  END
$$$$
