EKA.pdb
     RDKit          3D

 24 23  0  0  1  0  0  0  0  0999 V2000
    9.3038  -18.0921   17.3584 N   0  0  0  0  0  0  0  0  0  0  0  0
    9.5779  -19.1463   18.3628 C   0  0  1  0  0  0  0  0  0  0  0  0
   11.0576  -19.2438   18.5273 C   0  0  0  0  0  0  0  0  0  0  0  0
   11.8734  -18.1322   17.9822 C   0  0  0  0  0  0  0  0  0  0  0  0
   13.3285  -18.2610   18.2189 C   0  0  0  0  0  0  0  0  0  0  0  0
   13.7761  -18.2099   19.3861 O   0  0  0  0  0  0  0  0  0  0  0  0
    8.8654  -18.7853   19.6253 C   0  0  0  0  0  0  0  0  0  0  0  0
    8.5288  -17.5671   19.8133 O   0  0  0  0  0  0  0  0  0  0  0  0
   14.2018  -18.4400   17.1338 O   0  0  0  0  0  0  0  0  0  0  0  0
    8.5247  -19.6939   20.6456 N   0  0  0  0  0  0  0  0  0  0  0  0
    7.6851  -19.2840   21.7943 C   0  0  1  0  0  0  0  0  0  0  0  0
    7.0899  -20.6051   22.2686 C   0  0  0  0  0  0  0  0  0  0  0  0
    6.2276  -20.5268   23.4542 C   0  0  0  0  0  0  0  0  0  0  0  0
    5.5567  -21.8321   23.7580 C   0  0  0  0  0  0  0  0  0  0  0  0
    4.6457  -21.8777   24.9316 C   0  0  0  0  0  0  0  0  0  0  0  0
    3.9064  -23.0884   25.0989 N   0  0  0  0  0  0  0  0  0  0  0  0
    8.5189  -18.6026   22.7737 C   0  0  0  0  0  0  0  0  0  0  0  0
    9.7009  -19.0510   23.0013 O   0  0  0  0  0  0  0  0  0  0  0  0
    8.6556  -15.4601   24.8443 C   0  0  0  0  0  0  0  0  0  0  0  0
    9.0524  -16.8870   24.5425 C   0  0  2  0  0  0  0  0  0  0  0  0
    8.1877  -17.4647   23.5360 N   0  0  0  0  0  0  0  0  0  0  0  0
    9.0863  -17.6386   25.7881 C   0  0  0  0  0  0  0  0  0  0  0  0
    9.9302  -17.3805   26.6728 O   0  0  0  0  0  0  0  0  0  0  0  0
    8.1822  -18.6552   26.0157 O   0  0  0  0  0  0  0  0  0  0  0  0
  2  1  1  6
  2  7  1  0
  2  3  1  0
  3  4  1  0
  4  5  1  0
  5  9  1  0
  6  5  2  0
  7  8  2  0
 10 11  1  0
 10  7  1  0
 11 12  1  1
 12 13  1  0
 13 14  1  0
 14 15  1  0
 16 15  1  0
 17 18  2  0
 17 11  1  0
 20 19  1  1
 20 21  1  0
 21 17  1  0
 22 20  1  0
 22 24  1  0
 23 22  2  0
M  END
$$$$
