EKA.pdb
     RDKit          3D

 24 23  0  0  1  0  0  0  0  0999 V2000
    8.1057  -13.0340   18.5138 N   0  0  0  0  0  0  0  0  0  0  0  0
    7.2612  -13.7952   19.4640 C   0  0  1  0  0  0  0  0  0  0  0  0
    7.0773  -15.1681   18.9096 C   0  0  0  0  0  0  0  0  0  0  0  0
    8.3026  -15.9250   18.5572 C   0  0  0  0  0  0  0  0  0  0  0  0
    8.0583  -17.2950   18.0538 C   0  0  0  0  0  0  0  0  0  0  0  0
    8.1520  -17.5340   16.8294 O   0  0  0  0  0  0  0  0  0  0  0  0
    7.9315  -13.7819   20.7991 C   0  0  0  0  0  0  0  0  0  0  0  0
    9.2082  -13.8057   20.8450 O   0  0  0  0  0  0  0  0  0  0  0  0
    7.7223  -18.3216   18.9512 O   0  0  0  0  0  0  0  0  0  0  0  0
    7.2607  -13.7422   22.0364 N   0  0  0  0  0  0  0  0  0  0  0  0
    8.0048  -13.6862   23.3153 C   0  0  1  0  0  0  0  0  0  0  0  0
    7.0000  -13.0438   24.2651 C   0  0  0  0  0  0  0  0  0  0  0  0
    7.4504  -12.8770   25.6524 C   0  0  0  0  0  0  0  0  0  0  0  0
    6.4280  -12.1882   26.5046 C   0  0  0  0  0  0  0  0  0  0  0  0
    6.7520  -11.9945   27.9423 C   0  0  0  0  0  0  0  0  0  0  0  0
    5.7865  -11.2697   28.7057 N   0  0  0  0  0  0  0  0  0  0  0  0
    8.4200  -15.0319   23.6834 C   0  0  0  0  0  0  0  0  0  0  0  0
    7.5526  -15.9789   23.6522 O   0  0  0  0  0  0  0  0  0  0  0  0
   11.3008  -17.2789   23.8363 C   0  0  0  0  0  0  0  0  0  0  0  0
   10.0219  -16.8049   24.4876 C   0  0  2  0  0  0  0  0  0  0  0  0
    9.7040  -15.4520   24.0839 N   0  0  0  0  0  0  0  0  0  0  0  0
   10.1372  -16.9753   25.9282 C   0  0  0  0  0  0  0  0  0  0  0  0
   10.0524  -15.9969   26.7008 O   0  0  0  0  0  0  0  0  0  0  0  0
   10.3433  -18.2272   26.4695 O   0  0  0  0  0  0  0  0  0  0  0  0
  2  1  1  6
  2  7  1  0
  2  3  1  0
  3  4  1  0
  4  5  1  0
  5  9  1  0
  6  5  2  0
  7  8  2  0
 10 11  1  0
 10  7  1  0
 11 12  1  1
 12 13  1  0
 13 14  1  0
 14 15  1  0
 16 15  1  0
 17 18  2  0
 17 11  1  0
 20 19  1  6
 20 21  1  0
 21 17  1  0
 22 20  1  0
 22 24  1  0
 23 22  2  0
M  END
$$$$
