EKA.pdb
     RDKit          3D

 24 23  0  0  1  0  0  0  0  0999 V2000
    7.8148  -12.8867   17.7343 N   0  0  0  0  0  0  0  0  0  0  0  0
    7.2475  -13.9204   18.6316 C   0  0  1  0  0  0  0  0  0  0  0  0
    7.4049  -15.2427   17.9586 C   0  0  0  0  0  0  0  0  0  0  0  0
    8.7830  -15.7724   17.8222 C   0  0  0  0  0  0  0  0  0  0  0  0
    8.8690  -17.1203   17.2174 C   0  0  0  0  0  0  0  0  0  0  0  0
    9.0655  -18.1180   17.9461 O   0  0  0  0  0  0  0  0  0  0  0  0
    7.9545  -13.8379   19.9451 C   0  0  0  0  0  0  0  0  0  0  0  0
    9.1707  -13.4468   19.9640 O   0  0  0  0  0  0  0  0  0  0  0  0
    8.7297  -17.2752   15.8286 O   0  0  0  0  0  0  0  0  0  0  0  0
    7.3805  -14.1596   21.1900 N   0  0  0  0  0  0  0  0  0  0  0  0
    8.1168  -13.9460   22.4567 C   0  0  1  0  0  0  0  0  0  0  0  0
    7.0324  -13.4331   23.3977 C   0  0  0  0  0  0  0  0  0  0  0  0
    7.4599  -13.1619   24.7757 C   0  0  0  0  0  0  0  0  0  0  0  0
    6.3755  -12.5303   25.5949 C   0  0  0  0  0  0  0  0  0  0  0  0
    6.7330  -12.0585   26.9584 C   0  0  0  0  0  0  0  0  0  0  0  0
    5.6924  -11.3993   27.6816 N   0  0  0  0  0  0  0  0  0  0  0  0
    8.7368  -15.1986   22.8635 C   0  0  0  0  0  0  0  0  0  0  0  0
    8.0595  -16.2859   22.7673 O   0  0  0  0  0  0  0  0  0  0  0  0
   12.0737  -16.7091   23.6044 C   0  0  0  0  0  0  0  0  0  0  0  0
   10.5725  -16.6673   23.7743 C   0  0  2  0  0  0  0  0  0  0  0  0
   10.0394  -15.3848   23.3677 N   0  0  0  0  0  0  0  0  0  0  0  0
   10.2446  -17.0310   25.1447 C   0  0  0  0  0  0  0  0  0  0  0  0
    9.5630  -16.2721   25.8664 O   0  0  0  0  0  0  0  0  0  0  0  0
   10.6830  -18.2268   25.6743 O   0  0  0  0  0  0  0  0  0  0  0  0
  2  1  1  6
  2  7  1  0
  2  3  1  0
  3  4  1  0
  4  5  1  0
  5  9  1  0
  6  5  2  0
  7  8  2  0
 10 11  1  0
 10  7  1  0
 11 12  1  1
 12 13  1  0
 13 14  1  0
 14 15  1  0
 16 15  1  0
 17 18  2  0
 17 11  1  0
 20 19  1  1
 20 21  1  0
 21 17  1  0
 22 20  1  0
 22 24  1  0
 23 22  2  0
M  END
$$$$
