EKA.pdb
     RDKit          3D

 24 23  0  0  1  0  0  0  0  0999 V2000
    9.4179  -16.5143   20.6194 N   0  0  0  0  0  0  0  0  0  0  0  0
    8.4397  -15.4291   20.8659 C   0  0  1  0  0  0  0  0  0  0  0  0
    7.3865  -15.5182   19.8128 C   0  0  0  0  0  0  0  0  0  0  0  0
    7.2767  -16.7984   19.0729 C   0  0  0  0  0  0  0  0  0  0  0  0
    7.9127  -16.7953   17.7366 C   0  0  0  0  0  0  0  0  0  0  0  0
    7.2632  -16.4102   16.7392 O   0  0  0  0  0  0  0  0  0  0  0  0
    7.9047  -15.5882   22.2517 C   0  0  0  0  0  0  0  0  0  0  0  0
    6.9631  -14.8159   22.6385 O   0  0  0  0  0  0  0  0  0  0  0  0
    9.2421  -17.2242   17.5924 O   0  0  0  0  0  0  0  0  0  0  0  0
    8.3587  -16.5389   23.1859 N   0  0  0  0  0  0  0  0  0  0  0  0
    7.8520  -16.5558   24.5770 C   0  0  1  0  0  0  0  0  0  0  0  0
    7.8331  -18.0427   24.9137 C   0  0  0  0  0  0  0  0  0  0  0  0
    6.5938  -18.7561   24.5814 C   0  0  0  0  0  0  0  0  0  0  0  0
    6.7052  -20.2319   24.8170 C   0  0  0  0  0  0  0  0  0  0  0  0
    5.4881  -21.0555   24.5937 C   0  0  0  0  0  0  0  0  0  0  0  0
    5.6599  -22.4677   24.7222 N   0  0  0  0  0  0  0  0  0  0  0  0
    8.7305  -15.7508   25.4131 C   0  0  0  0  0  0  0  0  0  0  0  0
   10.0018  -15.8744   25.2762 O   0  0  0  0  0  0  0  0  0  0  0  0
    8.6876  -12.7799   27.7021 C   0  0  0  0  0  0  0  0  0  0  0  0
    9.2960  -14.0718   27.2068 C   0  0  2  0  0  0  0  0  0  0  0  0
    8.3545  -14.8108   26.3932 N   0  0  0  0  0  0  0  0  0  0  0  0
    9.7999  -14.8214   28.3478 C   0  0  0  0  0  0  0  0  0  0  0  0
    9.3078  -15.9268   28.6597 O   0  0  0  0  0  0  0  0  0  0  0  0
   10.8357  -14.3221   29.1097 O   0  0  0  0  0  0  0  0  0  0  0  0
  2  1  1  6
  2  7  1  0
  2  3  1  0
  3  4  1  0
  4  5  1  0
  5  9  1  0
  6  5  2  0
  7  8  2  0
 10 11  1  0
 10  7  1  0
 11 12  1  1
 12 13  1  0
 13 14  1  0
 14 15  1  0
 16 15  1  0
 17 18  2  0
 17 11  1  0
 20 19  1  1
 20 21  1  0
 21 17  1  0
 22 20  1  0
 22 24  1  0
 23 22  2  0
M  END
$$$$
