EKA.pdb
     RDKit          3D

 24 23  0  0  1  0  0  0  0  0999 V2000
    8.4843  -18.1590   21.1413 N   0  0  0  0  0  0  0  0  0  0  0  0
    9.9372  -18.1260   21.4300 C   0  0  1  0  0  0  0  0  0  0  0  0
   10.6443  -17.7724   20.1646 C   0  0  0  0  0  0  0  0  0  0  0  0
    9.8031  -17.4248   18.9942 C   0  0  0  0  0  0  0  0  0  0  0  0
   10.5600  -17.0207   17.7885 C   0  0  0  0  0  0  0  0  0  0  0  0
   11.8090  -16.9623   17.8284 O   0  0  0  0  0  0  0  0  0  0  0  0
   10.1725  -17.1454   22.5323 C   0  0  0  0  0  0  0  0  0  0  0  0
   11.3755  -16.8374   22.8333 O   0  0  0  0  0  0  0  0  0  0  0  0
    9.8746  -16.7045   16.6043 O   0  0  0  0  0  0  0  0  0  0  0  0
    9.1589  -16.5176   23.2813 N   0  0  0  0  0  0  0  0  0  0  0  0
    9.4755  -15.7054   24.4783 C   0  0  1  0  0  0  0  0  0  0  0  0
    8.2287  -14.8437   24.6436 C   0  0  0  0  0  0  0  0  0  0  0  0
    8.2284  -13.9375   25.7987 C   0  0  0  0  0  0  0  0  0  0  0  0
    6.9784  -13.1144   25.8769 C   0  0  0  0  0  0  0  0  0  0  0  0
    6.8530  -12.1648   27.0135 C   0  0  0  0  0  0  0  0  0  0  0  0
    5.6481  -11.3988   27.0546 N   0  0  0  0  0  0  0  0  0  0  0  0
    9.7564  -16.5949   25.5958 C   0  0  0  0  0  0  0  0  0  0  0  0
    8.8934  -17.4949   25.9044 O   0  0  0  0  0  0  0  0  0  0  0  0
   12.4945  -18.0207   27.5989 C   0  0  0  0  0  0  0  0  0  0  0  0
   11.0804  -17.4899   27.5458 C   0  0  2  0  0  0  0  0  0  0  0  0
   10.9011  -16.6014   26.4176 N   0  0  0  0  0  0  0  0  0  0  0  0
   10.7584  -16.8819   28.8282 C   0  0  0  0  0  0  0  0  0  0  0  0
   10.5360  -15.6558   28.9213 O   0  0  0  0  0  0  0  0  0  0  0  0
   10.6928  -17.6526   29.9702 O   0  0  0  0  0  0  0  0  0  0  0  0
  2  1  1  6
  2  7  1  0
  2  3  1  0
  3  4  1  0
  4  5  1  0
  5  9  1  0
  6  5  2  0
  7  8  2  0
 10 11  1  0
 10  7  1  0
 11 12  1  1
 12 13  1  0
 13 14  1  0
 14 15  1  0
 16 15  1  0
 17 18  2  0
 17 11  1  0
 20 19  1  1
 20 21  1  0
 21 17  1  0
 22 20  1  0
 22 24  1  0
 23 22  2  0
M  END
$$$$
