EKA.pdb
     RDKit          3D

 24 23  0  0  1  0  0  0  0  0999 V2000
   11.4931  -20.0900   17.4006 N   0  0  0  0  0  0  0  0  0  0  0  0
   12.6361  -19.2358   17.7999 C   0  0  1  0  0  0  0  0  0  0  0  0
   13.2830  -18.7302   16.5541 C   0  0  0  0  0  0  0  0  0  0  0  0
   12.4043  -18.0821   15.5510 C   0  0  0  0  0  0  0  0  0  0  0  0
   13.1185  -17.4738   14.4064 C   0  0  0  0  0  0  0  0  0  0  0  0
   12.4691  -16.9322   13.4844 O   0  0  0  0  0  0  0  0  0  0  0  0
   12.1194  -18.1461   18.6816 C   0  0  0  0  0  0  0  0  0  0  0  0
   12.9402  -17.2705   19.1203 O   0  0  0  0  0  0  0  0  0  0  0  0
   14.5216  -17.5064   14.3587 O   0  0  0  0  0  0  0  0  0  0  0  0
   10.7759  -17.9985   19.0762 N   0  0  0  0  0  0  0  0  0  0  0  0
   10.3436  -16.8719   19.9342 C   0  0  1  0  0  0  0  0  0  0  0  0
    8.8831  -16.6845   19.5387 C   0  0  0  0  0  0  0  0  0  0  0  0
    8.1577  -15.6305   20.2585 C   0  0  0  0  0  0  0  0  0  0  0  0
    8.0329  -14.3728   19.4531 C   0  0  0  0  0  0  0  0  0  0  0  0
    7.2600  -13.2514   20.0486 C   0  0  0  0  0  0  0  0  0  0  0  0
    7.2359  -12.0407   19.2910 N   0  0  0  0  0  0  0  0  0  0  0  0
   10.5584  -17.2269   21.3294 C   0  0  0  0  0  0  0  0  0  0  0  0
   10.2474  -18.4093   21.7236 O   0  0  0  0  0  0  0  0  0  0  0  0
   12.0184  -15.8081   24.5212 C   0  0  0  0  0  0  0  0  0  0  0  0
   11.2533  -16.8375   23.7215 C   0  0  2  0  0  0  0  0  0  0  0  0
   11.0883  -16.4106   22.3485 N   0  0  0  0  0  0  0  0  0  0  0  0
    9.9989  -17.1233   24.4016 C   0  0  0  0  0  0  0  0  0  0  0  0
    8.9056  -16.7686   23.9112 O   0  0  0  0  0  0  0  0  0  0  0  0
    9.9944  -17.7946   25.6065 O   0  0  0  0  0  0  0  0  0  0  0  0
  2  1  1  6
  2  7  1  0
  2  3  1  0
  3  4  1  0
  4  5  1  0
  5  9  1  0
  6  5  2  0
  7  8  2  0
 10 11  1  0
 10  7  1  0
 11 12  1  1
 12 13  1  0
 13 14  1  0
 14 15  1  0
 16 15  1  0
 17 18  2  0
 17 11  1  0
 20 19  1  1
 20 21  1  0
 21 17  1  0
 22 20  1  0
 22 24  1  0
 23 22  2  0
M  END
$$$$
