EKA.pdb
     RDKit          3D

 24 23  0  0  1  0  0  0  0  0999 V2000
    7.1486  -27.5533   26.3486 N   0  0  0  0  0  0  0  0  0  0  0  0
    7.2298  -26.5545   27.4400 C   0  0  1  0  0  0  0  0  0  0  0  0
    6.9809  -27.2664   28.7274 C   0  0  0  0  0  0  0  0  0  0  0  0
    5.6782  -27.0246   29.3930 C   0  0  0  0  0  0  0  0  0  0  0  0
    5.4413  -27.8447   30.6018 C   0  0  0  0  0  0  0  0  0  0  0  0
    6.2940  -28.6876   30.9589 O   0  0  0  0  0  0  0  0  0  0  0  0
    8.5716  -25.9007   27.3762 C   0  0  0  0  0  0  0  0  0  0  0  0
    9.6135  -26.6196   27.5507 O   0  0  0  0  0  0  0  0  0  0  0  0
    4.2611  -27.6745   31.3437 O   0  0  0  0  0  0  0  0  0  0  0  0
    8.7892  -24.5311   27.1325 N   0  0  0  0  0  0  0  0  0  0  0  0
   10.1505  -23.9494   27.1624 C   0  0  1  0  0  0  0  0  0  0  0  0
   10.1322  -22.9814   25.9846 C   0  0  0  0  0  0  0  0  0  0  0  0
   11.3766  -22.2384   25.7505 C   0  0  0  0  0  0  0  0  0  0  0  0
   11.2716  -21.3045   24.5831 C   0  0  0  0  0  0  0  0  0  0  0  0
   12.4885  -20.5384   24.2065 C   0  0  0  0  0  0  0  0  0  0  0  0
   12.3149  -19.5590   23.1814 N   0  0  0  0  0  0  0  0  0  0  0  0
   10.3743  -23.3290   28.4601 C   0  0  0  0  0  0  0  0  0  0  0  0
    9.4388  -22.6159   28.9763 O   0  0  0  0  0  0  0  0  0  0  0  0
   12.7232  -23.4631   31.3880 C   0  0  0  0  0  0  0  0  0  0  0  0
   11.6657  -22.7773   30.5539 C   0  0  2  0  0  0  0  0  0  0  0  0
   11.5305  -23.4136   29.2611 N   0  0  0  0  0  0  0  0  0  0  0  0
   11.9743  -21.3571   30.4792 C   0  0  0  0  0  0  0  0  0  0  0  0
   12.2639  -20.8179   29.3898 O   0  0  0  0  0  0  0  0  0  0  0  0
   11.9524  -20.5765   31.6162 O   0  0  0  0  0  0  0  0  0  0  0  0
  2  1  1  6
  2  7  1  0
  2  3  1  0
  3  4  1  0
  4  5  1  0
  5  9  1  0
  6  5  2  0
  7  8  2  0
 10 11  1  0
 10  7  1  0
 11 12  1  6
 12 13  1  0
 13 14  1  0
 14 15  1  0
 16 15  1  0
 17 18  2  0
 17 11  1  0
 20 19  1  1
 20 21  1  0
 21 17  1  0
 22 20  1  0
 22 24  1  0
 23 22  2  0
M  END
$$$$
