AKT.pdb
     RDKit          3D

 22 21  0  0  1  0  0  0  0  0999 V2000
   14.6183   -7.2821  -14.2538 C   0  0  0  0  0  0  0  0  0  0  0  0
   15.2533   -8.2902  -15.1827 C   0  0  2  0  0  0  0  0  0  0  0  0
   14.5442   -9.5461  -15.0226 N   0  0  0  0  0  0  0  0  0  0  0  0
   16.6966   -8.5088  -14.8604 C   0  0  0  0  0  0  0  0  0  0  0  0
   17.0690   -8.8410  -13.7126 O   0  0  0  0  0  0  0  0  0  0  0  0
   17.7004   -8.3461  -15.8516 N   0  0  0  0  0  0  0  0  0  0  0  0
   19.1161   -8.4995  -15.6321 C   0  0  1  0  0  0  0  0  0  0  0  0
   19.7321   -9.5268  -16.5360 C   0  0  0  0  0  0  0  0  0  0  0  0
   21.1964   -9.7116  -16.4326 C   0  0  0  0  0  0  0  0  0  0  0  0
   21.8309  -10.6481  -17.4006 C   0  0  0  0  0  0  0  0  0  0  0  0
   23.3220  -10.8264  -17.0812 C   0  0  0  0  0  0  0  0  0  0  0  0
   23.9348  -11.8104  -17.9253 N   0  0  0  0  0  0  0  0  0  0  0  0
   19.8572   -7.2263  -15.5650 C   0  0  0  0  0  0  0  0  0  0  0  0
   20.2246   -6.6543  -16.6503 O   0  0  0  0  0  0  0  0  0  0  0  0
   19.1123   -4.0274  -15.2813 C   0  0  0  0  0  0  0  0  0  0  0  0
   20.1111   -4.1229  -14.1339 C   0  0  1  0  0  0  0  0  0  0  0  0
   19.4016   -4.2986  -12.9608 O   0  0  0  0  0  0  0  0  0  0  0  0
   20.9910   -5.3307  -14.4081 C   0  0  2  0  0  0  0  0  0  0  0  0
   20.2080   -6.5566  -14.3633 N   0  0  0  0  0  0  0  0  0  0  0  0
   22.0782   -5.4346  -13.4177 C   0  0  0  0  0  0  0  0  0  0  0  0
   22.9400   -4.5311  -13.3512 O   0  0  0  0  0  0  0  0  0  0  0  0
   22.2060   -6.4972  -12.5356 O   0  0  0  0  0  0  0  0  0  0  0  0
  2  1  1  1
  2  3  1  0
  4  2  1  0
  4  5  2  0
  6  4  1  0
  7  6  1  0
  7 13  1  0
  7  8  1  6
  9 10  1  0
  9  8  1  0
 10 11  1  0
 11 12  1  0
 13 19  1  0
 13 14  2  0
 16 15  1  6
 16 17  1  0
 18 16  1  0
 18 19  1  1
 20 22  1  0
 20 18  1  0
 21 20  2  0
M  END
$$$$
