AKT.pdb
     RDKit          3D

 22 21  0  0  1  0  0  0  0  0999 V2000
   16.0836  -10.2826  -14.7336 C   0  0  0  0  0  0  0  0  0  0  0  0
   16.6913   -8.9867  -15.2168 C   0  0  2  0  0  0  0  0  0  0  0  0
   16.5135   -8.9251  -16.6557 N   0  0  0  0  0  0  0  0  0  0  0  0
   18.1523   -8.9110  -14.9096 C   0  0  0  0  0  0  0  0  0  0  0  0
   18.5793   -8.9738  -13.7347 O   0  0  0  0  0  0  0  0  0  0  0  0
   19.1115   -8.7643  -15.9465 N   0  0  0  0  0  0  0  0  0  0  0  0
   20.5282   -8.5928  -15.7484 C   0  0  1  0  0  0  0  0  0  0  0  0
   21.3474   -9.3875  -16.7228 C   0  0  0  0  0  0  0  0  0  0  0  0
   21.0633  -10.8371  -16.8041 C   0  0  0  0  0  0  0  0  0  0  0  0
   21.9160  -11.6442  -17.7196 C   0  0  0  0  0  0  0  0  0  0  0  0
   21.5253  -13.1275  -17.6540 C   0  0  0  0  0  0  0  0  0  0  0  0
   22.3445  -13.9337  -18.5115 N   0  0  0  0  0  0  0  0  0  0  0  0
   20.9509   -7.1875  -15.6031 C   0  0  0  0  0  0  0  0  0  0  0  0
   21.3554   -6.5425  -16.6329 O   0  0  0  0  0  0  0  0  0  0  0  0
   19.4455   -4.2252  -15.5714 C   0  0  0  0  0  0  0  0  0  0  0  0
   20.1976   -4.1378  -14.2485 C   0  0  1  0  0  0  0  0  0  0  0  0
   19.3437   -4.5470  -13.2415 O   0  0  0  0  0  0  0  0  0  0  0  0
   21.3877   -5.0769  -14.3494 C   0  0  2  0  0  0  0  0  0  0  0  0
   20.9460   -6.4631  -14.3821 N   0  0  0  0  0  0  0  0  0  0  0  0
   22.3015   -4.9048  -13.2054 C   0  0  0  0  0  0  0  0  0  0  0  0
   22.4753   -5.8515  -12.4073 O   0  0  0  0  0  0  0  0  0  0  0  0
   22.9957   -3.7305  -12.9549 O   0  0  0  0  0  0  0  0  0  0  0  0
  2  1  1  6
  2  3  1  0
  4  2  1  0
  4  5  2  0
  6  4  1  0
  7  6  1  0
  7 13  1  0
  7  8  1  6
  9 10  1  0
  9  8  1  0
 10 11  1  0
 11 12  1  0
 13 19  1  0
 13 14  2  0
 16 15  1  6
 16 17  1  0
 18 16  1  0
 18 19  1  1
 20 22  1  0
 20 18  1  0
 21 20  2  0
M  END
$$$$
