AKT.pdb
     RDKit          3D

 22 21  0  0  1  0  0  0  0  0999 V2000
   28.7624  -19.9222  -12.5307 C   0  0  0  0  0  0  0  0  0  0  0  0
   27.7620  -20.9562  -12.9915 C   0  0  2  0  0  0  0  0  0  0  0  0
   28.3453  -21.6647  -14.1156 N   0  0  0  0  0  0  0  0  0  0  0  0
   26.4791  -20.3283  -13.4327 C   0  0  0  0  0  0  0  0  0  0  0  0
   25.8056  -19.6044  -12.6654 O   0  0  0  0  0  0  0  0  0  0  0  0
   25.9778  -20.5329  -14.7456 N   0  0  0  0  0  0  0  0  0  0  0  0
   24.8045  -19.9016  -15.2937 C   0  0  1  0  0  0  0  0  0  0  0  0
   24.9470  -19.5882  -16.7543 C   0  0  0  0  0  0  0  0  0  0  0  0
   26.1536  -18.8333  -17.1581 C   0  0  0  0  0  0  0  0  0  0  0  0
   26.2966  -18.5079  -18.6039 C   0  0  0  0  0  0  0  0  0  0  0  0
   27.6055  -17.7471  -18.8593 C   0  0  0  0  0  0  0  0  0  0  0  0
   27.7908  -17.4557  -20.2511 N   0  0  0  0  0  0  0  0  0  0  0  0
   23.5385  -20.5678  -14.9358 C   0  0  0  0  0  0  0  0  0  0  0  0
   23.4434  -21.8400  -15.0481 O   0  0  0  0  0  0  0  0  0  0  0  0
   22.1805  -21.0229  -11.7635 C   0  0  0  0  0  0  0  0  0  0  0  0
   20.9958  -20.4217  -12.5107 C   0  0  1  0  0  0  0  0  0  0  0  0
   20.9628  -19.0660  -12.2431 O   0  0  0  0  0  0  0  0  0  0  0  0
   21.2328  -20.6648  -13.9916 C   0  0  2  0  0  0  0  0  0  0  0  0
   22.3793  -19.9005  -14.4598 N   0  0  0  0  0  0  0  0  0  0  0  0
   20.0558  -20.2780  -14.7907 C   0  0  0  0  0  0  0  0  0  0  0  0
   20.1525  -19.3471  -15.6199 O   0  0  0  0  0  0  0  0  0  0  0  0
   18.8203  -20.8977  -14.6763 O   0  0  0  0  0  0  0  0  0  0  0  0
  2  1  1  6
  2  3  1  0
  4  2  1  0
  4  5  2  0
  6  4  1  0
  7  6  1  0
  7 13  1  0
  7  8  1  6
  9 10  1  0
  9  8  1  0
 10 11  1  0
 11 12  1  0
 13 19  1  0
 13 14  2  0
 16 15  1  1
 16 17  1  0
 18 16  1  0
 18 19  1  6
 20 22  1  0
 20 18  1  0
 21 20  2  0
M  END
$$$$
