AKT.pdb
     RDKit          3D

 22 21  0  0  1  0  0  0  0  0999 V2000
   27.0417  -23.7423  -18.3249 C   0  0  0  0  0  0  0  0  0  0  0  0
   26.8602  -22.9299  -17.0642 C   0  0  2  0  0  0  0  0  0  0  0  0
   27.4997  -23.6502  -15.9789 N   0  0  0  0  0  0  0  0  0  0  0  0
   25.4156  -22.7406  -16.7298 C   0  0  0  0  0  0  0  0  0  0  0  0
   24.6415  -22.1212  -17.4938 O   0  0  0  0  0  0  0  0  0  0  0  0
   24.8689  -23.2602  -15.5266 N   0  0  0  0  0  0  0  0  0  0  0  0
   23.4831  -23.1776  -15.1411 C   0  0  1  0  0  0  0  0  0  0  0  0
   23.0691  -24.2985  -14.2333 C   0  0  0  0  0  0  0  0  0  0  0  0
   22.3309  -25.4200  -14.8548 C   0  0  0  0  0  0  0  0  0  0  0  0
   21.8938  -26.5237  -13.9563 C   0  0  0  0  0  0  0  0  0  0  0  0
   20.8381  -26.0232  -12.9602 C   0  0  0  0  0  0  0  0  0  0  0  0
   20.4649  -27.0410  -12.0215 N   0  0  0  0  0  0  0  0  0  0  0  0
   23.0626  -21.8396  -14.6855 C   0  0  0  0  0  0  0  0  0  0  0  0
   23.7246  -21.2538  -13.7587 O   0  0  0  0  0  0  0  0  0  0  0  0
   20.5613  -19.2583  -16.8537 C   0  0  0  0  0  0  0  0  0  0  0  0
   21.6494  -18.7927  -15.8933 C   0  0  1  0  0  0  0  0  0  0  0  0
   21.3177  -17.5261  -15.4504 O   0  0  0  0  0  0  0  0  0  0  0  0
   21.6687  -19.7727  -14.7325 C   0  0  2  0  0  0  0  0  0  0  0  0
   21.9537  -21.1200  -15.2032 N   0  0  0  0  0  0  0  0  0  0  0  0
   20.3747  -19.7888  -14.0262 C   0  0  0  0  0  0  0  0  0  0  0  0
   19.6720  -20.8228  -14.0503 O   0  0  0  0  0  0  0  0  0  0  0  0
   19.8782  -18.7026  -13.3211 O   0  0  0  0  0  0  0  0  0  0  0  0
  2  1  1  6
  2  3  1  0
  4  2  1  0
  4  5  2  0
  6  4  1  0
  7  6  1  0
  7 13  1  0
  7  8  1  1
  9 10  1  0
  9  8  1  0
 10 11  1  0
 11 12  1  0
 13 19  1  0
 13 14  2  0
 16 15  1  6
 16 17  1  0
 18 16  1  0
 18 19  1  6
 20 22  1  0
 20 18  1  0
 21 20  2  0
M  END
$$$$
