AKT.pdb
     RDKit          3D

 22 21  0  0  1  0  0  0  0  0999 V2000
   14.9779   -9.0909  -11.5595 C   0  0  0  0  0  0  0  0  0  0  0  0
   15.5279  -10.1917  -12.4358 C   0  0  2  0  0  0  0  0  0  0  0  0
   15.6530  -11.3850  -11.6196 N   0  0  0  0  0  0  0  0  0  0  0  0
   16.8734   -9.8426  -12.9857 C   0  0  0  0  0  0  0  0  0  0  0  0
   17.9130   -9.9594  -12.2986 O   0  0  0  0  0  0  0  0  0  0  0  0
   17.0189   -9.3635  -14.3146 N   0  0  0  0  0  0  0  0  0  0  0  0
   18.2707   -9.0250  -14.9424 C   0  0  1  0  0  0  0  0  0  0  0  0
   18.2506   -9.2474  -16.4264 C   0  0  0  0  0  0  0  0  0  0  0  0
   18.2624  -10.6527  -16.8887 C   0  0  0  0  0  0  0  0  0  0  0  0
   18.0909  -10.8868  -18.3490 C   0  0  0  0  0  0  0  0  0  0  0  0
   18.0487  -12.3910  -18.6535 C   0  0  0  0  0  0  0  0  0  0  0  0
   17.8234  -12.6477  -20.0462 N   0  0  0  0  0  0  0  0  0  0  0  0
   18.8178   -7.7188  -14.5310 C   0  0  0  0  0  0  0  0  0  0  0  0
   18.0257   -6.7232  -14.3836 O   0  0  0  0  0  0  0  0  0  0  0  0
   20.4588   -6.6860  -11.4491 C   0  0  0  0  0  0  0  0  0  0  0  0
   21.4220   -6.2448  -12.5449 C   0  0  1  0  0  0  0  0  0  0  0  0
   22.4055   -7.2084  -12.6655 O   0  0  0  0  0  0  0  0  0  0  0  0
   20.6184   -6.1428  -13.8303 C   0  0  2  0  0  0  0  0  0  0  0  0
   20.1899   -7.4611  -14.2733 N   0  0  0  0  0  0  0  0  0  0  0  0
   21.4115   -5.5230  -14.9075 C   0  0  0  0  0  0  0  0  0  0  0  0
   21.6908   -6.1886  -15.9285 O   0  0  0  0  0  0  0  0  0  0  0  0
   21.8771   -4.2176  -14.8562 O   0  0  0  0  0  0  0  0  0  0  0  0
  2  1  1  1
  2  3  1  0
  4  2  1  0
  4  5  2  0
  6  4  1  0
  7  6  1  0
  7 13  1  0
  7  8  1  6
  9 10  1  0
  9  8  1  0
 10 11  1  0
 11 12  1  0
 13 19  1  0
 13 14  2  0
 16 15  1  1
 16 17  1  0
 18 16  1  0
 18 19  1  6
 20 22  1  0
 20 18  1  0
 21 20  2  0
M  END
$$$$
