AKT.pdb
     RDKit          3D

 22 21  0  0  1  0  0  0  0  0999 V2000
   23.1511  -11.8159  -17.1751 C   0  0  0  0  0  0  0  0  0  0  0  0
   21.6484  -11.7371  -17.3093 C   0  0  2  0  0  0  0  0  0  0  0  0
   21.3095  -12.0700  -18.6805 N   0  0  0  0  0  0  0  0  0  0  0  0
   21.1359  -10.3657  -17.0071 C   0  0  0  0  0  0  0  0  0  0  0  0
   21.2794   -9.4197  -17.8140 O   0  0  0  0  0  0  0  0  0  0  0  0
   20.4647  -10.0878  -15.7869 N   0  0  0  0  0  0  0  0  0  0  0  0
   19.9024   -8.8128  -15.4207 C   0  0  1  0  0  0  0  0  0  0  0  0
   18.5784   -8.9442  -14.7266 C   0  0  0  0  0  0  0  0  0  0  0  0
   17.4747   -9.5455  -15.5071 C   0  0  0  0  0  0  0  0  0  0  0  0
   16.1788   -9.7479  -14.8025 C   0  0  0  0  0  0  0  0  0  0  0  0
   15.1657  -10.4416  -15.7243 C   0  0  0  0  0  0  0  0  0  0  0  0
   13.9661  -10.8001  -15.0252 N   0  0  0  0  0  0  0  0  0  0  0  0
   20.8521   -7.9048  -14.7513 C   0  0  0  0  0  0  0  0  0  0  0  0
   21.3622   -8.2454  -13.6270 O   0  0  0  0  0  0  0  0  0  0  0  0
   24.0090   -6.3774  -16.2139 C   0  0  0  0  0  0  0  0  0  0  0  0
   23.2450   -5.2378  -15.5497 C   0  0  1  0  0  0  0  0  0  0  0  0
   22.5566   -4.5523  -16.5329 O   0  0  0  0  0  0  0  0  0  0  0  0
   22.2757   -5.8664  -14.5630 C   0  0  2  0  0  0  0  0  0  0  0  0
   21.2656   -6.6464  -15.2623 N   0  0  0  0  0  0  0  0  0  0  0  0
   21.5951   -4.8380  -13.7551 C   0  0  0  0  0  0  0  0  0  0  0  0
   22.2539   -4.1629  -12.9344 O   0  0  0  0  0  0  0  0  0  0  0  0
   20.2382   -4.5678  -13.8521 O   0  0  0  0  0  0  0  0  0  0  0  0
  2  1  1  6
  2  3  1  0
  4  2  1  0
  4  5  2  0
  6  4  1  0
  7  6  1  0
  7 13  1  0
  7  8  1  1
  9 10  1  0
  9  8  1  0
 10 11  1  0
 11 12  1  0
 13 19  1  0
 13 14  2  0
 16 15  1  6
 16 17  1  0
 18 16  1  0
 18 19  1  6
 20 22  1  0
 20 18  1  0
 21 20  2  0
M  END
$$$$
