AKT.pdb
     RDKit          3D

 22 21  0  0  1  0  0  0  0  0999 V2000
   20.1306  -13.0960  -18.4868 C   0  0  0  0  0  0  0  0  0  0  0  0
   20.7659  -12.4693  -17.2678 C   0  0  2  0  0  0  0  0  0  0  0  0
   20.4281  -13.2923  -16.1214 N   0  0  0  0  0  0  0  0  0  0  0  0
   20.2600  -11.0830  -17.0298 C   0  0  0  0  0  0  0  0  0  0  0  0
   20.6135  -10.1232  -17.7512 O   0  0  0  0  0  0  0  0  0  0  0  0
   19.3556  -10.8059  -15.9706 N   0  0  0  0  0  0  0  0  0  0  0  0
   18.6959   -9.5439  -15.7513 C   0  0  1  0  0  0  0  0  0  0  0  0
   17.3016   -9.7064  -15.2206 C   0  0  0  0  0  0  0  0  0  0  0  0
   16.3285  -10.3858  -16.1038 C   0  0  0  0  0  0  0  0  0  0  0  0
   15.2955  -11.2339  -15.4478 C   0  0  0  0  0  0  0  0  0  0  0  0
   14.3282  -11.8107  -16.4912 C   0  0  0  0  0  0  0  0  0  0  0  0
   13.3037  -12.6102  -15.8849 N   0  0  0  0  0  0  0  0  0  0  0  0
   19.5122   -8.5554  -15.0226 C   0  0  0  0  0  0  0  0  0  0  0  0
   19.9723   -8.8506  -13.8644 O   0  0  0  0  0  0  0  0  0  0  0  0
   22.7232   -5.0167  -14.6409 C   0  0  0  0  0  0  0  0  0  0  0  0
   21.9437   -6.0064  -15.4988 C   0  0  1  0  0  0  0  0  0  0  0  0
   22.7375   -7.1203  -15.6976 O   0  0  0  0  0  0  0  0  0  0  0  0
   20.6913   -6.3787  -14.7235 C   0  0  2  0  0  0  0  0  0  0  0  0
   19.8454   -7.2642  -15.5099 N   0  0  0  0  0  0  0  0  0  0  0  0
   19.9091   -5.1812  -14.3665 C   0  0  0  0  0  0  0  0  0  0  0  0
   20.0917   -4.6337  -13.2572 O   0  0  0  0  0  0  0  0  0  0  0  0
   18.9618   -4.6122  -15.2047 O   0  0  0  0  0  0  0  0  0  0  0  0
  2  1  1  6
  2  3  1  0
  4  2  1  0
  4  5  2  0
  6  4  1  0
  7  6  1  0
  7 13  1  0
  7  8  1  1
  9 10  1  0
  9  8  1  0
 10 11  1  0
 11 12  1  0
 13 19  1  0
 13 14  2  0
 16 15  1  1
 16 17  1  0
 18 16  1  0
 18 19  1  6
 20 22  1  0
 20 18  1  0
 21 20  2  0
M  END
$$$$
