AKT.pdb
     RDKit          3D

 22 21  0  0  1  0  0  0  0  0999 V2000
   19.3448  -19.2534  -17.4481 C   0  0  0  0  0  0  0  0  0  0  0  0
   19.7807  -18.2261  -16.4298 C   0  0  2  0  0  0  0  0  0  0  0  0
   19.2277  -18.6149  -15.1458 N   0  0  0  0  0  0  0  0  0  0  0  0
   19.2829  -16.8591  -16.7733 C   0  0  0  0  0  0  0  0  0  0  0  0
   19.6250  -16.2833  -17.8307 O   0  0  0  0  0  0  0  0  0  0  0  0
   18.3996  -16.1628  -15.9065 N   0  0  0  0  0  0  0  0  0  0  0  0
   17.8176  -14.8727  -16.1762 C   0  0  1  0  0  0  0  0  0  0  0  0
   16.4052  -14.7621  -15.6813 C   0  0  0  0  0  0  0  0  0  0  0  0
   15.3950  -15.6045  -16.3585 C   0  0  0  0  0  0  0  0  0  0  0  0
   14.6972  -16.6246  -15.5285 C   0  0  0  0  0  0  0  0  0  0  0  0
   13.6752  -17.4000  -16.3720 C   0  0  0  0  0  0  0  0  0  0  0  0
   12.9598  -18.3654  -15.5894 N   0  0  0  0  0  0  0  0  0  0  0  0
   18.6804  -13.7338  -15.8113 C   0  0  0  0  0  0  0  0  0  0  0  0
   19.4064  -13.8065  -14.7588 O   0  0  0  0  0  0  0  0  0  0  0  0
   21.5751  -12.4511  -17.5227 C   0  0  0  0  0  0  0  0  0  0  0  0
   20.6963  -11.2202  -17.3335 C   0  0  1  0  0  0  0  0  0  0  0  0
   19.9777  -11.0228  -18.4976 O   0  0  0  0  0  0  0  0  0  0  0  0
   19.7590  -11.5153  -16.1748 C   0  0  2  0  0  0  0  0  0  0  0  0
   18.7814  -12.5258  -16.5503 N   0  0  0  0  0  0  0  0  0  0  0  0
   19.0370  -10.3021  -15.7502 C   0  0  0  0  0  0  0  0  0  0  0  0
   17.7994  -10.2321  -15.9141 O   0  0  0  0  0  0  0  0  0  0  0  0
   19.6609   -9.2093  -15.1671 O   0  0  0  0  0  0  0  0  0  0  0  0
  2  1  1  6
  2  3  1  0
  4  2  1  0
  4  5  2  0
  6  4  1  0
  7  6  1  0
  7 13  1  0
  7  8  1  1
  9 10  1  0
  9  8  1  0
 10 11  1  0
 11 12  1  0
 13 19  1  0
 13 14  2  0
 16 15  1  6
 16 17  1  0
 18 16  1  0
 18 19  1  6
 20 22  1  0
 20 18  1  0
 21 20  2  0
M  END
$$$$
