AKT.pdb
     RDKit          3D

 22 21  0  0  1  0  0  0  0  0999 V2000
   15.2145  -12.7704  -17.7127 C   0  0  0  0  0  0  0  0  0  0  0  0
   15.7519  -11.4114  -18.0955 C   0  0  2  0  0  0  0  0  0  0  0  0
   16.0852  -11.4500  -19.5073 N   0  0  0  0  0  0  0  0  0  0  0  0
   16.9821  -11.0634  -17.3208 C   0  0  0  0  0  0  0  0  0  0  0  0
   16.9326  -10.7879  -16.1009 O   0  0  0  0  0  0  0  0  0  0  0  0
   18.2567  -11.0332  -17.9463 N   0  0  0  0  0  0  0  0  0  0  0  0
   19.5001  -10.7346  -17.2826 C   0  0  1  0  0  0  0  0  0  0  0  0
   20.6637  -11.4711  -17.8787 C   0  0  0  0  0  0  0  0  0  0  0  0
   20.7619  -12.9161  -17.5766 C   0  0  0  0  0  0  0  0  0  0  0  0
   21.9607  -13.6352  -18.0889 C   0  0  0  0  0  0  0  0  0  0  0  0
   21.9124  -15.1172  -17.6908 C   0  0  0  0  0  0  0  0  0  0  0  0
   23.0732  -15.8289  -18.1406 N   0  0  0  0  0  0  0  0  0  0  0  0
   19.7378   -9.2953  -17.0668 C   0  0  0  0  0  0  0  0  0  0  0  0
   19.9415   -8.5331  -18.0757 O   0  0  0  0  0  0  0  0  0  0  0  0
   17.6914   -6.7778  -16.5085 C   0  0  0  0  0  0  0  0  0  0  0  0
   18.6545   -6.5223  -15.3550 C   0  0  1  0  0  0  0  0  0  0  0  0
   18.1044   -7.0639  -14.2085 O   0  0  0  0  0  0  0  0  0  0  0  0
   19.9584   -7.2217  -15.6997 C   0  0  2  0  0  0  0  0  0  0  0  0
   19.7588   -8.6599  -15.7974 N   0  0  0  0  0  0  0  0  0  0  0  0
   20.9895   -6.9617  -14.6785 C   0  0  0  0  0  0  0  0  0  0  0  0
   21.4822   -7.9186  -14.0422 O   0  0  0  0  0  0  0  0  0  0  0  0
   21.4567   -5.6918  -14.3739 O   0  0  0  0  0  0  0  0  0  0  0  0
  2  1  1  1
  2  3  1  0
  4  2  1  0
  4  5  2  0
  6  4  1  0
  7  6  1  0
  7 13  1  0
  7  8  1  6
  9 10  1  0
  9  8  1  0
 10 11  1  0
 11 12  1  0
 13 19  1  0
 13 14  2  0
 16 15  1  6
 16 17  1  0
 18 16  1  0
 18 19  1  1
 20 22  1  0
 20 18  1  0
 21 20  2  0
M  END
$$$$
