AKT.pdb
     RDKit          3D

 22 21  0  0  1  0  0  0  0  0999 V2000
   16.6005  -13.3239  -17.4425 C   0  0  0  0  0  0  0  0  0  0  0  0
   17.5591  -12.7723  -16.4133 C   0  0  2  0  0  0  0  0  0  0  0  0
   17.2081  -13.3493  -15.1289 N   0  0  0  0  0  0  0  0  0  0  0  0
   17.4678  -11.2837  -16.3124 C   0  0  0  0  0  0  0  0  0  0  0  0
   17.7917  -10.5408  -17.2662 O   0  0  0  0  0  0  0  0  0  0  0  0
   17.0078  -10.6577  -15.1236 N   0  0  0  0  0  0  0  0  0  0  0  0
   16.8566   -9.2369  -14.9388 C   0  0  1  0  0  0  0  0  0  0  0  0
   15.5595   -8.8760  -14.2761 C   0  0  0  0  0  0  0  0  0  0  0  0
   14.3658   -8.8011  -15.1468 C   0  0  0  0  0  0  0  0  0  0  0  0
   13.0809   -8.4129  -14.5027 C   0  0  0  0  0  0  0  0  0  0  0  0
   11.9463   -8.3818  -15.5367 C   0  0  0  0  0  0  0  0  0  0  0  0
   10.6949   -8.0072  -14.9449 N   0  0  0  0  0  0  0  0  0  0  0  0
   18.0401   -8.5750  -14.3591 C   0  0  0  0  0  0  0  0  0  0  0  0
   18.3130   -8.7469  -13.1196 O   0  0  0  0  0  0  0  0  0  0  0  0
   21.3256   -9.2876  -14.4893 C   0  0  0  0  0  0  0  0  0  0  0  0
   21.3733   -7.8272  -14.9233 C   0  0  1  0  0  0  0  0  0  0  0  0
   21.4214   -7.7911  -16.3042 O   0  0  0  0  0  0  0  0  0  0  0  0
   20.0994   -7.1704  -14.4192 C   0  0  2  0  0  0  0  0  0  0  0  0
   18.9335   -7.7389  -15.0790 N   0  0  0  0  0  0  0  0  0  0  0  0
   20.1142   -5.7173  -14.6673 C   0  0  0  0  0  0  0  0  0  0  0  0
   20.9925   -5.0087  -14.1288 O   0  0  0  0  0  0  0  0  0  0  0  0
   19.1925   -5.0738  -15.4798 O   0  0  0  0  0  0  0  0  0  0  0  0
  2  1  1  6
  2  3  1  0
  4  2  1  0
  4  5  2  0
  6  4  1  0
  7  6  1  0
  7 13  1  0
  7  8  1  1
  9 10  1  0
  9  8  1  0
 10 11  1  0
 11 12  1  0
 13 19  1  0
 13 14  2  0
 16 15  1  6
 16 17  1  0
 18 16  1  0
 18 19  1  6
 20 22  1  0
 20 18  1  0
 21 20  2  0
M  END
$$$$
