AKT.pdb
     RDKit          3D

 22 21  0  0  1  0  0  0  0  0999 V2000
   20.9125  -13.4488  -19.1455 C   0  0  0  0  0  0  0  0  0  0  0  0
   21.8166  -12.5783  -18.3047 C   0  0  2  0  0  0  0  0  0  0  0  0
   22.1614  -13.3249  -17.1091 N   0  0  0  0  0  0  0  0  0  0  0  0
   21.1424  -11.3071  -17.8996 C   0  0  0  0  0  0  0  0  0  0  0  0
   20.7733  -10.4622  -18.7460 O   0  0  0  0  0  0  0  0  0  0  0  0
   20.8961  -11.0130  -16.5323 N   0  0  0  0  0  0  0  0  0  0  0  0
   20.2072   -9.8449  -16.0456 C   0  0  1  0  0  0  0  0  0  0  0  0
   19.0365  -10.1879  -15.1716 C   0  0  0  0  0  0  0  0  0  0  0  0
   17.8446  -10.7481  -15.8455 C   0  0  0  0  0  0  0  0  0  0  0  0
   16.7373  -11.2290  -14.9742 C   0  0  0  0  0  0  0  0  0  0  0  0
   15.6367  -11.8909  -15.8155 C   0  0  0  0  0  0  0  0  0  0  0  0
   14.6614  -12.5491  -14.9959 N   0  0  0  0  0  0  0  0  0  0  0  0
   21.0967   -8.8078  -15.4908 C   0  0  0  0  0  0  0  0  0  0  0  0
   22.0579   -9.1515  -14.7173 O   0  0  0  0  0  0  0  0  0  0  0  0
   22.8790   -4.2368  -15.1480 C   0  0  0  0  0  0  0  0  0  0  0  0
   21.8506   -5.1328  -15.8284 C   0  0  1  0  0  0  0  0  0  0  0  0
   22.2217   -5.2844  -17.1512 O   0  0  0  0  0  0  0  0  0  0  0  0
   21.8822   -6.4719  -15.1114 C   0  0  2  0  0  0  0  0  0  0  0  0
   20.9781   -7.4170  -15.7497 N   0  0  0  0  0  0  0  0  0  0  0  0
   21.4875   -6.3299  -13.6981 C   0  0  0  0  0  0  0  0  0  0  0  0
   20.2745   -6.3188  -13.3948 O   0  0  0  0  0  0  0  0  0  0  0  0
   22.4001   -6.2049  -12.6612 O   0  0  0  0  0  0  0  0  0  0  0  0
  2  1  1  6
  2  3  1  0
  4  2  1  0
  4  5  2  0
  6  4  1  0
  7  6  1  0
  7 13  1  0
  7  8  1  1
  9 10  1  0
  9  8  1  0
 10 11  1  0
 11 12  1  0
 13 19  1  0
 13 14  2  0
 16 15  1  1
 16 17  1  0
 18 16  1  0
 18 19  1  6
 20 22  1  0
 20 18  1  0
 21 20  2  0
M  END
$$$$
