AKT.pdb
     RDKit          3D

 22 21  0  0  1  0  0  0  0  0999 V2000
   20.9347  -13.7334  -17.6517 C   0  0  0  0  0  0  0  0  0  0  0  0
   20.8259  -12.9837  -16.3447 C   0  0  2  0  0  0  0  0  0  0  0  0
   19.7855  -13.6183  -15.5568 N   0  0  0  0  0  0  0  0  0  0  0  0
   20.4606  -11.5497  -16.5569 C   0  0  0  0  0  0  0  0  0  0  0  0
   21.1948  -10.7762  -17.2120 O   0  0  0  0  0  0  0  0  0  0  0  0
   19.2608  -11.0130  -16.0192 N   0  0  0  0  0  0  0  0  0  0  0  0
   18.8095   -9.6554  -16.1894 C   0  0  1  0  0  0  0  0  0  0  0  0
   17.3165   -9.5534  -16.3014 C   0  0  0  0  0  0  0  0  0  0  0  0
   16.6729  -10.3541  -17.3661 C   0  0  0  0  0  0  0  0  0  0  0  0
   15.1929  -10.2504  -17.4906 C   0  0  0  0  0  0  0  0  0  0  0  0
   14.6885  -11.1050  -18.6621 C   0  0  0  0  0  0  0  0  0  0  0  0
   13.7037  -12.0589  -18.2417 N   0  0  0  0  0  0  0  0  0  0  0  0
   19.4153   -8.6960  -15.2474 C   0  0  0  0  0  0  0  0  0  0  0  0
   19.5154   -9.0079  -14.0093 O   0  0  0  0  0  0  0  0  0  0  0  0
   22.5597   -5.2730  -14.0227 C   0  0  0  0  0  0  0  0  0  0  0  0
   21.9671   -6.1886  -15.0875 C   0  0  1  0  0  0  0  0  0  0  0  0
   22.7768   -7.3037  -15.1938 O   0  0  0  0  0  0  0  0  0  0  0  0
   20.5789   -6.5839  -14.6132 C   0  0  2  0  0  0  0  0  0  0  0  0
   19.9155   -7.4165  -15.6055 N   0  0  0  0  0  0  0  0  0  0  0  0
   19.7415   -5.3962  -14.3651 C   0  0  0  0  0  0  0  0  0  0  0  0
   18.9871   -4.9741  -15.2685 O   0  0  0  0  0  0  0  0  0  0  0  0
   19.7395   -4.7030  -13.1637 O   0  0  0  0  0  0  0  0  0  0  0  0
  2  1  1  6
  2  3  1  0
  4  2  1  0
  4  5  2  0
  6  4  1  0
  7  6  1  0
  7 13  1  0
  7  8  1  1
  9 10  1  0
  9  8  1  0
 10 11  1  0
 11 12  1  0
 13 19  1  0
 13 14  2  0
 16 15  1  1
 16 17  1  0
 18 16  1  0
 18 19  1  6
 20 22  1  0
 20 18  1  0
 21 20  2  0
M  END
$$$$
