AKT.pdb
     RDKit          3D

 22 21  0  0  1  0  0  0  0  0999 V2000
   18.1893  -13.0160  -15.6780 C   0  0  0  0  0  0  0  0  0  0  0  0
   18.0110  -11.5500  -15.9964 C   0  0  2  0  0  0  0  0  0  0  0  0
   17.6142  -11.4455  -17.3883 N   0  0  0  0  0  0  0  0  0  0  0  0
   19.2781  -10.7817  -15.7991 C   0  0  0  0  0  0  0  0  0  0  0  0
   19.7718  -10.6125  -14.6615 O   0  0  0  0  0  0  0  0  0  0  0  0
   19.9691  -10.2143  -16.9023 N   0  0  0  0  0  0  0  0  0  0  0  0
   21.1106   -9.3405  -16.8062 C   0  0  1  0  0  0  0  0  0  0  0  0
   22.0041   -9.4242  -18.0089 C   0  0  0  0  0  0  0  0  0  0  0  0
   22.7904  -10.6672  -18.1685 C   0  0  0  0  0  0  0  0  0  0  0  0
   22.8053  -11.2903  -19.5206 C   0  0  0  0  0  0  0  0  0  0  0  0
   23.6672  -12.5609  -19.5200 C   0  0  0  0  0  0  0  0  0  0  0  0
   23.8091  -13.1102  -20.8370 N   0  0  0  0  0  0  0  0  0  0  0  0
   20.7835   -7.9651  -16.3866 C   0  0  0  0  0  0  0  0  0  0  0  0
   19.8696   -7.3182  -17.0083 O   0  0  0  0  0  0  0  0  0  0  0  0
   20.7422   -6.5743  -12.6560 C   0  0  0  0  0  0  0  0  0  0  0  0
   20.0477   -5.8927  -13.8291 C   0  0  1  0  0  0  0  0  0  0  0  0
   19.7589   -4.5923  -13.4602 O   0  0  0  0  0  0  0  0  0  0  0  0
   21.0216   -5.9098  -14.9950 C   0  0  2  0  0  0  0  0  0  0  0  0
   21.4120   -7.2742  -15.3173 N   0  0  0  0  0  0  0  0  0  0  0  0
   22.2382   -5.1368  -14.6854 C   0  0  0  0  0  0  0  0  0  0  0  0
   23.3470   -5.7144  -14.6648 O   0  0  0  0  0  0  0  0  0  0  0  0
   22.2275   -3.7777  -14.4093 O   0  0  0  0  0  0  0  0  0  0  0  0
  2  1  1  6
  2  3  1  0
  4  2  1  0
  4  5  2  0
  6  4  1  0
  7  6  1  0
  7 13  1  0
  7  8  1  6
  9 10  1  0
  9  8  1  0
 10 11  1  0
 11 12  1  0
 13 19  1  0
 13 14  2  0
 16 15  1  1
 16 17  1  0
 18 16  1  0
 18 19  1  1
 20 22  1  0
 20 18  1  0
 21 20  2  0
M  END
$$$$
