AKT.pdb
     RDKit          3D

 22 21  0  0  1  0  0  0  0  0999 V2000
   19.6071  -11.0280  -19.3774 C   0  0  0  0  0  0  0  0  0  0  0  0
   20.4661  -10.9312  -18.1385 C   0  0  2  0  0  0  0  0  0  0  0  0
   20.1782  -12.0873  -17.3101 N   0  0  0  0  0  0  0  0  0  0  0  0
   20.1710   -9.6930  -17.3546 C   0  0  0  0  0  0  0  0  0  0  0  0
   20.3805   -8.5529  -17.8264 O   0  0  0  0  0  0  0  0  0  0  0  0
   19.6397   -9.7686  -16.0398 N   0  0  0  0  0  0  0  0  0  0  0  0
   19.1911   -8.6433  -15.2600 C   0  0  1  0  0  0  0  0  0  0  0  0
   18.0418   -8.9875  -14.3585 C   0  0  0  0  0  0  0  0  0  0  0  0
   16.7132   -9.1203  -14.9956 C   0  0  0  0  0  0  0  0  0  0  0  0
   15.5531   -9.3718  -14.0968 C   0  0  0  0  0  0  0  0  0  0  0  0
   14.2546   -9.4805  -14.9087 C   0  0  0  0  0  0  0  0  0  0  0  0
   13.1276   -9.7829  -14.0752 N   0  0  0  0  0  0  0  0  0  0  0  0
   20.2775   -7.8950  -14.6009 C   0  0  0  0  0  0  0  0  0  0  0  0
   20.9951   -8.4778  -13.7145 O   0  0  0  0  0  0  0  0  0  0  0  0
   23.4316   -7.0808  -15.5222 C   0  0  0  0  0  0  0  0  0  0  0  0
   22.8885   -5.7017  -15.1667 C   0  0  1  0  0  0  0  0  0  0  0  0
   22.4406   -5.1040  -16.3297 O   0  0  0  0  0  0  0  0  0  0  0  0
   21.7354   -5.9122  -14.2001 C   0  0  2  0  0  0  0  0  0  0  0  0
   20.6096   -6.5419  -14.8739 N   0  0  0  0  0  0  0  0  0  0  0  0
   21.2799   -4.6329  -13.6262 C   0  0  0  0  0  0  0  0  0  0  0  0
   22.0316   -4.0026  -12.8508 O   0  0  0  0  0  0  0  0  0  0  0  0
   20.0408   -4.0733  -13.9002 O   0  0  0  0  0  0  0  0  0  0  0  0
  2  1  1  6
  2  3  1  0
  4  2  1  0
  4  5  2  0
  6  4  1  0
  7  6  1  0
  7 13  1  0
  7  8  1  1
  9 10  1  0
  9  8  1  0
 10 11  1  0
 11 12  1  0
 13 19  1  0
 13 14  2  0
 16 15  1  6
 16 17  1  0
 18 16  1  0
 18 19  1  6
 20 22  1  0
 20 18  1  0
 21 20  2  0
M  END
$$$$
