AKT.pdb
     RDKit          3D

 22 21  0  0  1  0  0  0  0  0999 V2000
   21.5120  -12.8745  -21.4328 C   0  0  0  0  0  0  0  0  0  0  0  0
   22.3795  -12.1753  -20.4126 C   0  0  2  0  0  0  0  0  0  0  0  0
   23.0655  -13.1962  -19.6425 N   0  0  0  0  0  0  0  0  0  0  0  0
   21.5696  -11.3332  -19.4801 C   0  0  0  0  0  0  0  0  0  0  0  0
   21.2033  -10.1775  -19.7910 O   0  0  0  0  0  0  0  0  0  0  0  0
   21.1859  -11.8187  -18.2019 N   0  0  0  0  0  0  0  0  0  0  0  0
   20.3147  -11.1337  -17.2812 C   0  0  1  0  0  0  0  0  0  0  0  0
   19.5528  -12.0773  -16.3974 C   0  0  0  0  0  0  0  0  0  0  0  0
   18.1827  -11.6707  -16.0147 C   0  0  0  0  0  0  0  0  0  0  0  0
   17.4430  -12.5711  -15.0880 C   0  0  0  0  0  0  0  0  0  0  0  0
   16.0161  -12.0537  -14.8568 C   0  0  0  0  0  0  0  0  0  0  0  0
   15.2667  -12.9211  -13.9952 N   0  0  0  0  0  0  0  0  0  0  0  0
   20.9539  -10.0135  -16.5662 C   0  0  0  0  0  0  0  0  0  0  0  0
   22.0172  -10.2268  -15.8851 O   0  0  0  0  0  0  0  0  0  0  0  0
   22.2387   -6.8480  -18.0135 C   0  0  0  0  0  0  0  0  0  0  0  0
   21.3829   -6.4169  -16.8282 C   0  0  1  0  0  0  0  0  0  0  0  0
   20.1461   -6.0308  -17.3096 O   0  0  0  0  0  0  0  0  0  0  0  0
   21.2442   -7.6239  -15.9160 C   0  0  2  0  0  0  0  0  0  0  0  0
   20.4792   -8.6755  -16.5693 N   0  0  0  0  0  0  0  0  0  0  0  0
   20.5655   -7.2661  -14.6571 C   0  0  0  0  0  0  0  0  0  0  0  0
   21.1262   -6.4893  -13.8536 O   0  0  0  0  0  0  0  0  0  0  0  0
   19.3150   -7.7494  -14.3018 O   0  0  0  0  0  0  0  0  0  0  0  0
  2  1  1  6
  2  3  1  0
  4  2  1  0
  4  5  2  0
  6  4  1  0
  7  6  1  0
  7 13  1  0
  7  8  1  1
  9 10  1  0
  9  8  1  0
 10 11  1  0
 11 12  1  0
 13 19  1  0
 13 14  2  0
 16 15  1  6
 16 17  1  0
 18 16  1  0
 18 19  1  6
 20 22  1  0
 20 18  1  0
 21 20  2  0
M  END
$$$$
