RAN.pdb
     RDKit          3D

 25 24  0  0  1  0  0  0  0  0999 V2000
    9.1138  -11.4766   20.3798 N   0  0  0  0  0  0  0  0  0  0  0  0
    9.2674  -12.6757   19.6303 C   0  0  0  0  0  0  0  0  0  0  0  0
   10.4116  -13.2569   19.5348 N   0  0  0  0  0  0  0  0  0  0  0  0
    8.1501  -13.2724   18.9606 N   0  0  0  0  0  0  0  0  0  0  0  0
    7.4514  -14.4144   19.5193 C   0  0  0  0  0  0  0  0  0  0  0  0
    7.4740  -14.4330   21.0091 C   0  0  0  0  0  0  0  0  0  0  0  0
    6.9722  -15.6718   21.6589 C   0  0  0  0  0  0  0  0  0  0  0  0
    7.7031  -16.9308   21.3326 C   0  0  2  0  0  0  0  0  0  0  0  0
    6.8544  -17.8505   20.6445 N   0  0  0  0  0  0  0  0  0  0  0  0
    8.3918  -17.5101   22.5168 C   0  0  0  0  0  0  0  0  0  0  0  0
    7.7077  -17.8981   23.5097 O   0  0  0  0  0  0  0  0  0  0  0  0
   10.4956  -14.1340   18.9865 C   0  0  0  0  0  0  0  0  0  0  0  0
   11.6981  -18.8945   23.5773 C   0  0  1  0  0  0  0  0  0  0  0  0
   10.4021  -18.1597   23.8475 N   0  0  0  0  0  0  0  0  0  0  0  0
    9.7939  -17.6710   22.6335 C   0  0  0  0  0  0  0  0  0  0  0  0
   10.6300  -17.0371   24.7893 O   0  0  0  0  0  0  0  0  0  0  0  0
   11.0232  -15.9363   24.3522 N   0  0  0  0  0  0  0  0  0  0  0  0
    9.9973  -13.1750   28.1669 C   0  0  0  0  0  0  0  0  0  0  0  0
    9.7460  -14.5096   28.5906 O   0  0  0  0  0  0  0  0  0  0  0  0
    9.8498  -14.8149   29.8004 C   0  0  0  0  0  0  0  0  0  0  0  0
    9.3623  -15.5177   27.5741 C   0  0  1  0  0  0  0  0  0  0  0  0
   10.6322  -16.2107   27.1186 N   0  0  0  0  0  0  0  0  0  0  0  0
   10.3893  -17.2573   26.1777 C   0  0  0  0  0  0  0  0  0  0  0  0
   11.2694  -16.7806   28.3266 O   0  0  0  0  0  0  0  0  0  0  0  0
   12.1232  -16.0492   29.1479 O   0  0  0  0  0  0  0  0  0  0  0  0
  1  2  1  0
  2  3  2  0
  4  5  1  0
  4  2  1  0
  6  7  1  0
  6  5  1  0
  7  8  1  0
  8  9  1  1
 10  8  1  0
 10 11  2  0
 13 12  1  6
 13 14  1  0
 14 10  1  0
 15 13  1  0
 16 15  2  0
 18 17  1  0
 19 18  2  0
 20 18  1  0
 21 20  1  6
 21 22  1  0
 22 15  1  0
 23 24  1  0
 23 21  1  0
 25 23  2  0
M  END
$$$$
