RAN.pdb
     RDKit          3D

 25 24  0  0  1  0  0  0  0  0999 V2000
    8.0672  -13.1161   15.1807 N   0  0  0  0  0  0  0  0  0  0  0  0
    8.1662  -13.6458   16.4970 C   0  0  0  0  0  0  0  0  0  0  0  0
    9.1028  -14.4701   16.8122 N   0  0  0  0  0  0  0  0  0  0  0  0
    7.2251  -13.2747   17.5116 N   0  0  0  0  0  0  0  0  0  0  0  0
    7.1518  -13.9834   18.7752 C   0  0  0  0  0  0  0  0  0  0  0  0
    7.8307  -13.2569   19.8850 C   0  0  0  0  0  0  0  0  0  0  0  0
    7.8050  -13.9176   21.2161 C   0  0  0  0  0  0  0  0  0  0  0  0
    8.6942  -15.1042   21.3811 C   0  0  2  0  0  0  0  0  0  0  0  0
    8.0249  -16.3028   20.9874 N   0  0  0  0  0  0  0  0  0  0  0  0
    9.3087  -15.1687   22.7340 C   0  0  0  0  0  0  0  0  0  0  0  0
    8.5869  -14.9812   23.7578 O   0  0  0  0  0  0  0  0  0  0  0  0
    9.1662  -14.8244   17.7856 C   0  0  0  0  0  0  0  0  0  0  0  0
   10.3854  -17.6892   23.8952 C   0  0  1  0  0  0  0  0  0  0  0  0
   11.0966  -16.3573   24.0087 N   0  0  0  0  0  0  0  0  0  0  0  0
   10.6776  -15.4311   22.9845 C   0  0  0  0  0  0  0  0  0  0  0  0
   12.5660  -16.5484   23.9509 O   0  0  0  0  0  0  0  0  0  0  0  0
   13.1067  -17.3952   24.6911 N   0  0  0  0  0  0  0  0  0  0  0  0
   13.7033  -14.3427   19.8543 C   0  0  0  0  0  0  0  0  0  0  0  0
   14.2442  -15.5095   20.4627 O   0  0  0  0  0  0  0  0  0  0  0  0
   13.8853  -16.6445   20.0746 C   0  0  0  0  0  0  0  0  0  0  0  0
   15.2326  -15.3481   21.5553 C   0  0  2  0  0  0  0  0  0  0  0  0
   14.6851  -16.0663   22.7738 N   0  0  0  0  0  0  0  0  0  0  0  0
   13.3187  -15.7486   23.0410 C   0  0  0  0  0  0  0  0  0  0  0  0
   15.5152  -15.6528   23.9271 O   0  0  0  0  0  0  0  0  0  0  0  0
   16.9016  -15.7798   23.9453 O   0  0  0  0  0  0  0  0  0  0  0  0
  1  2  1  0
  2  3  2  0
  4  5  1  0
  4  2  1  0
  6  7  1  0
  6  5  1  0
  7  8  1  0
  8  9  1  1
 10  8  1  0
 10 11  2  0
 13 12  1  1
 13 14  1  0
 14 10  1  0
 15 13  1  0
 16 15  2  0
 18 17  1  0
 19 18  2  0
 20 18  1  0
 21 20  1  6
 21 22  1  0
 22 15  1  0
 23 24  1  0
 23 21  1  0
 25 23  2  0
M  END
$$$$
