RAN.pdb
     RDKit          3D

 25 24  0  0  1  0  0  0  0  0999 V2000
    6.9410  -14.9065   15.7683 N   0  0  0  0  0  0  0  0  0  0  0  0
    7.8599  -13.8772   16.1138 C   0  0  0  0  0  0  0  0  0  0  0  0
    8.8080  -13.5373   15.3127 N   0  0  0  0  0  0  0  0  0  0  0  0
    7.7546  -13.1872   17.3651 N   0  0  0  0  0  0  0  0  0  0  0  0
    8.2424  -13.7737   18.5989 C   0  0  0  0  0  0  0  0  0  0  0  0
    7.2541  -14.6916   19.2323 C   0  0  0  0  0  0  0  0  0  0  0  0
    7.3876  -14.8908   20.6990 C   0  0  0  0  0  0  0  0  0  0  0  0
    8.5197  -14.1796   21.3613 C   0  0  2  0  0  0  0  0  0  0  0  0
    9.7706  -14.5710   20.7941 N   0  0  0  0  0  0  0  0  0  0  0  0
    8.4661  -14.2851   22.8439 C   0  0  0  0  0  0  0  0  0  0  0  0
    9.2122  -15.1182   23.4385 O   0  0  0  0  0  0  0  0  0  0  0  0
    9.4822  -12.8027   15.6007 C   0  0  0  0  0  0  0  0  0  0  0  0
    6.5870  -12.7792   25.7754 C   0  0  2  0  0  0  0  0  0  0  0  0
    7.5781  -13.7068   25.1046 N   0  0  0  0  0  0  0  0  0  0  0  0
    7.6246  -13.5076   23.6761 C   0  0  0  0  0  0  0  0  0  0  0  0
    7.2525  -15.1209   25.4103 O   0  0  0  0  0  0  0  0  0  0  0  0
    6.2156  -15.6303   24.9382 N   0  0  0  0  0  0  0  0  0  0  0  0
    8.1580  -20.0090   23.6849 C   0  0  0  0  0  0  0  0  0  0  0  0
    8.5585  -19.2674   24.8311 O   0  0  0  0  0  0  0  0  0  0  0  0
    8.9363  -19.8639   25.8650 C   0  0  0  0  0  0  0  0  0  0  0  0
    8.5177  -17.7871   24.7697 C   0  0  1  0  0  0  0  0  0  0  0  0
    8.1853  -17.2830   26.1610 N   0  0  0  0  0  0  0  0  0  0  0  0
    8.1457  -15.8578   26.2429 C   0  0  0  0  0  0  0  0  0  0  0  0
    9.2380  -17.7934   27.0674 O   0  0  0  0  0  0  0  0  0  0  0  0
   10.5709  -17.4019   26.9747 O   0  0  0  0  0  0  0  0  0  0  0  0
  1  2  1  0
  2  3  2  0
  4  5  1  0
  4  2  1  0
  6  7  1  0
  6  5  1  0
  7  8  1  0
  8  9  1  6
 10  8  1  0
 10 11  2  0
 13 12  1  1
 13 14  1  0
 14 10  1  0
 15 13  1  0
 16 15  2  0
 18 17  1  0
 19 18  2  0
 20 18  1  0
 21 20  1  6
 21 22  1  0
 22 15  1  0
 23 24  1  0
 23 21  1  0
 25 23  2  0
M  END
$$$$
