RAN.pdb
     RDKit          3D

 25 24  0  0  1  0  0  0  0  0999 V2000
    7.2499  -14.2723   14.5796 N   0  0  0  0  0  0  0  0  0  0  0  0
    8.5681  -13.8999   14.9630 C   0  0  0  0  0  0  0  0  0  0  0  0
    9.4345  -13.5292   14.0866 N   0  0  0  0  0  0  0  0  0  0  0  0
    8.9687  -13.9255   16.3384 N   0  0  0  0  0  0  0  0  0  0  0  0
    8.1438  -14.5451   17.3581 C   0  0  0  0  0  0  0  0  0  0  0  0
    7.5159  -13.5523   18.2749 C   0  0  0  0  0  0  0  0  0  0  0  0
    8.2230  -13.3031   19.5581 C   0  0  0  0  0  0  0  0  0  0  0  0
    8.4775  -14.4981   20.4144 C   0  0  2  0  0  0  0  0  0  0  0  0
    7.4807  -15.4989   20.2038 N   0  0  0  0  0  0  0  0  0  0  0  0
    8.6844  -14.1388   21.8427 C   0  0  0  0  0  0  0  0  0  0  0  0
    9.4930  -13.2113   22.1430 O   0  0  0  0  0  0  0  0  0  0  0  0
   10.3836  -13.2436   14.3947 C   0  0  0  0  0  0  0  0  0  0  0  0
    7.2398  -13.4482   24.8433 C   0  0  2  0  0  0  0  0  0  0  0  0
    8.3002  -14.3814   24.2978 N   0  0  0  0  0  0  0  0  0  0  0  0
    8.0327  -14.7653   22.9327 C   0  0  0  0  0  0  0  0  0  0  0  0
    8.4168  -15.5881   25.1517 O   0  0  0  0  0  0  0  0  0  0  0  0
    8.5656  -15.4589   26.3840 N   0  0  0  0  0  0  0  0  0  0  0  0
   12.2557  -18.9820   22.3684 C   0  0  0  0  0  0  0  0  0  0  0  0
   11.3475  -18.7799   23.4447 O   0  0  0  0  0  0  0  0  0  0  0  0
   11.4731  -19.4349   24.5043 C   0  0  0  0  0  0  0  0  0  0  0  0
   10.2613  -17.7849   23.2807 C   0  0  2  0  0  0  0  0  0  0  0  0
    9.4814  -17.7444   24.5809 N   0  0  0  0  0  0  0  0  0  0  0  0
    8.3542  -16.8691   24.5277 C   0  0  0  0  0  0  0  0  0  0  0  0
   10.4142  -17.2732   25.6288 O   0  0  0  0  0  0  0  0  0  0  0  0
   10.2164  -17.5211   26.9845 O   0  0  0  0  0  0  0  0  0  0  0  0
  1  2  1  0
  2  3  2  0
  4  5  1  0
  4  2  1  0
  6  7  1  0
  6  5  1  0
  7  8  1  0
  8  9  1  1
 10  8  1  0
 10 11  2  0
 13 12  1  6
 13 14  1  0
 14 10  1  0
 15 13  1  0
 16 15  2  0
 18 17  1  0
 19 18  2  0
 20 18  1  0
 21 20  1  6
 21 22  1  0
 22 15  1  0
 23 24  1  0
 23 21  1  0
 25 23  2  0
M  END
$$$$
