RAN.pdb
     RDKit          3D

 25 24  0  0  1  0  0  0  0  0999 V2000
    9.6940  -14.3298   15.4504 N   0  0  0  0  0  0  0  0  0  0  0  0
    8.5040  -14.1720   16.2134 C   0  0  0  0  0  0  0  0  0  0  0  0
    7.4495  -13.6449   15.6973 N   0  0  0  0  0  0  0  0  0  0  0  0
    8.4451  -14.5976   17.5803 N   0  0  0  0  0  0  0  0  0  0  0  0
    7.2146  -14.5267   18.3453 C   0  0  0  0  0  0  0  0  0  0  0  0
    7.2878  -13.5491   19.4675 C   0  0  0  0  0  0  0  0  0  0  0  0
    8.6012  -13.4322   20.1531 C   0  0  0  0  0  0  0  0  0  0  0  0
    9.0115  -14.5930   20.9957 C   0  0  2  0  0  0  0  0  0  0  0  0
    8.4295  -15.8050   20.5140 N   0  0  0  0  0  0  0  0  0  0  0  0
    8.7897  -14.3479   22.4458 C   0  0  0  0  0  0  0  0  0  0  0  0
    9.1408  -13.2419   22.9535 O   0  0  0  0  0  0  0  0  0  0  0  0
    6.5710  -13.6135   16.2490 C   0  0  0  0  0  0  0  0  0  0  0  0
    6.7312  -15.0018   25.2828 C   0  0  2  0  0  0  0  0  0  0  0  0
    8.1518  -15.0352   24.7598 N   0  0  0  0  0  0  0  0  0  0  0  0
    8.1994  -15.2760   23.3378 C   0  0  0  0  0  0  0  0  0  0  0  0
    8.9432  -16.0644   25.4764 O   0  0  0  0  0  0  0  0  0  0  0  0
    9.1332  -15.9509   26.7046 N   0  0  0  0  0  0  0  0  0  0  0  0
   12.1407  -18.1687   22.9533 C   0  0  0  0  0  0  0  0  0  0  0  0
   12.6121  -17.1119   23.7810 O   0  0  0  0  0  0  0  0  0  0  0  0
   13.6285  -16.4601   23.4498 C   0  0  0  0  0  0  0  0  0  0  0  0
   11.8768  -16.8060   25.0309 C   0  0  2  0  0  0  0  0  0  0  0  0
   10.7023  -17.7622   25.1134 N   0  0  0  0  0  0  0  0  0  0  0  0
    9.4657  -17.1606   24.7283 C   0  0  0  0  0  0  0  0  0  0  0  0
   10.6083  -18.2092   26.5211 O   0  0  0  0  0  0  0  0  0  0  0  0
   11.0766  -19.4466   26.9546 O   0  0  0  0  0  0  0  0  0  0  0  0
  1  2  1  0
  2  3  2  0
  4  5  1  0
  4  2  1  0
  6  7  1  0
  6  5  1  0
  7  8  1  0
  8  9  1  6
 10  8  1  0
 10 11  2  0
 13 12  1  6
 13 14  1  0
 14 10  1  0
 15 13  1  0
 16 15  2  0
 18 17  1  0
 19 18  2  0
 20 18  1  0
 21 20  1  6
 21 22  1  0
 22 15  1  0
 23 24  1  0
 23 21  1  0
 25 23  2  0
M  END
$$$$
