RAN.pdb
     RDKit          3D

 25 24  0  0  1  0  0  0  0  0999 V2000
    9.4153  -14.1305   18.1063 N   0  0  0  0  0  0  0  0  0  0  0  0
    8.2691  -13.5341   17.5116 C   0  0  0  0  0  0  0  0  0  0  0  0
    8.3856  -12.6805   16.5556 N   0  0  0  0  0  0  0  0  0  0  0  0
    6.9500  -13.8688   17.9597 N   0  0  0  0  0  0  0  0  0  0  0  0
    6.5570  -13.7125   19.3473 C   0  0  0  0  0  0  0  0  0  0  0  0
    7.7224  -13.5715   20.2652 C   0  0  0  0  0  0  0  0  0  0  0  0
    7.5811  -14.1934   21.6076 C   0  0  0  0  0  0  0  0  0  0  0  0
    8.3885  -15.4237   21.8533 C   0  0  2  0  0  0  0  0  0  0  0  0
    7.9978  -16.4760   20.9703 N   0  0  0  0  0  0  0  0  0  0  0  0
    8.4081  -15.8120   23.2889 C   0  0  0  0  0  0  0  0  0  0  0  0
    8.7367  -14.9566   24.1633 O   0  0  0  0  0  0  0  0  0  0  0  0
    7.5327  -12.2718   16.1281 C   0  0  0  0  0  0  0  0  0  0  0  0
    6.9376  -18.3308   25.5660 C   0  0  2  0  0  0  0  0  0  0  0  0
    8.0646  -17.3912   25.1921 N   0  0  0  0  0  0  0  0  0  0  0  0
    8.0794  -17.0994   23.7789 C   0  0  0  0  0  0  0  0  0  0  0  0
    9.3704  -17.9578   25.6078 O   0  0  0  0  0  0  0  0  0  0  0  0
   10.1177  -18.4755   24.7528 N   0  0  0  0  0  0  0  0  0  0  0  0
   13.1424  -16.7640   24.9679 C   0  0  0  0  0  0  0  0  0  0  0  0
   12.5998  -17.8250   25.7451 O   0  0  0  0  0  0  0  0  0  0  0  0
   12.5036  -18.9747   25.2587 C   0  0  0  0  0  0  0  0  0  0  0  0
   12.1568  -17.5371   27.1298 C   0  0  2  0  0  0  0  0  0  0  0  0
   10.9740  -18.4391   27.4259 N   0  0  0  0  0  0  0  0  0  0  0  0
    9.7309  -17.8908   26.9861 C   0  0  0  0  0  0  0  0  0  0  0  0
   10.9312  -18.6263   28.8934 O   0  0  0  0  0  0  0  0  0  0  0  0
    9.8081  -18.3300   29.6611 O   0  0  0  0  0  0  0  0  0  0  0  0
  1  2  1  0
  2  3  2  0
  4  5  1  0
  4  2  1  0
  6  7  1  0
  6  5  1  0
  7  8  1  0
  8  9  1  6
 10  8  1  0
 10 11  2  0
 13 12  1  1
 13 14  1  0
 14 10  1  0
 15 13  1  0
 16 15  2  0
 18 17  1  0
 19 18  2  0
 20 18  1  0
 21 20  1  6
 21 22  1  0
 22 15  1  0
 23 24  1  0
 23 21  1  0
 25 23  2  0
M  END
$$$$
