RAN.pdb
     RDKit          3D

 25 24  0  0  1  0  0  0  0  0999 V2000
    9.1964  -13.0092   17.0746 N   0  0  0  0  0  0  0  0  0  0  0  0
    8.0059  -13.5150   16.4830 C   0  0  0  0  0  0  0  0  0  0  0  0
    7.9757  -13.8615   15.2440 N   0  0  0  0  0  0  0  0  0  0  0  0
    6.8048  -13.6548   17.2516 N   0  0  0  0  0  0  0  0  0  0  0  0
    6.8159  -13.5700   18.6997 C   0  0  0  0  0  0  0  0  0  0  0  0
    7.8071  -14.4906   19.3246 C   0  0  0  0  0  0  0  0  0  0  0  0
    7.7312  -14.6338   20.8019 C   0  0  0  0  0  0  0  0  0  0  0  0
    8.6318  -15.6542   21.4132 C   0  0  2  0  0  0  0  0  0  0  0  0
    8.6000  -16.8739   20.6709 N   0  0  0  0  0  0  0  0  0  0  0  0
    8.3895  -15.8244   22.8707 C   0  0  0  0  0  0  0  0  0  0  0  0
    8.3833  -14.8077   23.6261 O   0  0  0  0  0  0  0  0  0  0  0  0
    7.1088  -14.2732   14.8489 C   0  0  0  0  0  0  0  0  0  0  0  0
    7.0678  -18.4469   25.2184 C   0  0  2  0  0  0  0  0  0  0  0  0
    7.7743  -17.1467   24.8972 N   0  0  0  0  0  0  0  0  0  0  0  0
    8.1567  -17.0673   23.5080 C   0  0  0  0  0  0  0  0  0  0  0  0
    8.9663  -16.9776   25.7631 O   0  0  0  0  0  0  0  0  0  0  0  0
    9.7222  -17.9494   25.9673 N   0  0  0  0  0  0  0  0  0  0  0  0
   11.2339  -15.3645   29.8364 C   0  0  0  0  0  0  0  0  0  0  0  0
    9.9558  -14.7399   29.8483 O   0  0  0  0  0  0  0  0  0  0  0  0
    9.5631  -14.1317   30.8698 C   0  0  0  0  0  0  0  0  0  0  0  0
    9.1109  -14.8267   28.6336 C   0  0  2  0  0  0  0  0  0  0  0  0
    9.8966  -15.5931   27.5869 N   0  0  0  0  0  0  0  0  0  0  0  0
    9.2099  -15.6957   26.3389 C   0  0  0  0  0  0  0  0  0  0  0  0
   10.1264  -16.9510   28.1288 O   0  0  0  0  0  0  0  0  0  0  0  0
    9.0964  -17.7639   28.5941 O   0  0  0  0  0  0  0  0  0  0  0  0
  1  2  1  0
  2  3  2  0
  4  5  1  0
  4  2  1  0
  6  7  1  0
  6  5  1  0
  7  8  1  0
  8  9  1  6
 10  8  1  0
 10 11  2  0
 13 12  1  6
 13 14  1  0
 14 10  1  0
 15 13  1  0
 16 15  2  0
 18 17  1  0
 19 18  2  0
 20 18  1  0
 21 20  1  6
 21 22  1  0
 22 15  1  0
 23 24  1  0
 23 21  1  0
 25 23  2  0
M  END
$$$$
