RAN.pdb
     RDKit          3D

 25 24  0  0  1  0  0  0  0  0999 V2000
    8.8353  -11.9044   18.6265 N   0  0  0  0  0  0  0  0  0  0  0  0
    8.3014  -13.0913   18.0526 C   0  0  0  0  0  0  0  0  0  0  0  0
    8.7071  -13.5156   16.9074 N   0  0  0  0  0  0  0  0  0  0  0  0
    7.2961  -13.8503   18.7352 N   0  0  0  0  0  0  0  0  0  0  0  0
    7.1447  -13.7869   20.1766 C   0  0  0  0  0  0  0  0  0  0  0  0
    8.0521  -14.7258   20.8944 C   0  0  0  0  0  0  0  0  0  0  0  0
    7.8893  -14.7987   22.3699 C   0  0  0  0  0  0  0  0  0  0  0  0
    8.7716  -15.7668   23.0843 C   0  0  2  0  0  0  0  0  0  0  0  0
    9.0643  -16.8956   22.2599 N   0  0  0  0  0  0  0  0  0  0  0  0
    8.2527  -16.1186   24.4330 C   0  0  0  0  0  0  0  0  0  0  0  0
    8.0132  -15.1987   25.2700 O   0  0  0  0  0  0  0  0  0  0  0  0
    8.3015  -14.3847   16.5108 C   0  0  0  0  0  0  0  0  0  0  0  0
    6.4597  -18.7568   26.2626 C   0  0  2  0  0  0  0  0  0  0  0  0
    7.5555  -17.7126   26.2238 N   0  0  0  0  0  0  0  0  0  0  0  0
    7.9942  -17.4384   24.8767 C   0  0  0  0  0  0  0  0  0  0  0  0
    8.7063  -18.1388   27.0563 O   0  0  0  0  0  0  0  0  0  0  0  0
    8.5194  -18.4602   28.2476 N   0  0  0  0  0  0  0  0  0  0  0  0
   12.4340  -19.7624   29.5148 C   0  0  0  0  0  0  0  0  0  0  0  0
   11.1983  -20.2696   29.0248 O   0  0  0  0  0  0  0  0  0  0  0  0
   10.3798  -20.7979   29.8112 C   0  0  0  0  0  0  0  0  0  0  0  0
   10.9086  -20.1573   27.5756 C   0  0  2  0  0  0  0  0  0  0  0  0
   11.1086  -18.7061   27.1828 N   0  0  0  0  0  0  0  0  0  0  0  0
   10.0015  -18.1666   26.4597 C   0  0  0  0  0  0  0  0  0  0  0  0
   12.3182  -18.6525   26.3317 O   0  0  0  0  0  0  0  0  0  0  0  0
   12.2825  -18.2863   24.9889 O   0  0  0  0  0  0  0  0  0  0  0  0
  1  2  1  0
  2  3  2  0
  4  5  1  0
  4  2  1  0
  6  7  1  0
  6  5  1  0
  7  8  1  0
  8  9  1  6
 10  8  1  0
 10 11  2  0
 13 12  1  6
 13 14  1  0
 14 10  1  0
 15 13  1  0
 16 15  2  0
 18 17  1  0
 19 18  2  0
 20 18  1  0
 21 20  1  1
 21 22  1  0
 22 15  1  0
 23 24  1  0
 23 21  1  0
 25 23  2  0
M  END
$$$$
