RAN.pdb
     RDKit          3D

 25 24  0  0  1  0  0  0  0  0999 V2000
    6.7076  -14.9478   16.9338 N   0  0  0  0  0  0  0  0  0  0  0  0
    7.7937  -14.0823   16.6264 C   0  0  0  0  0  0  0  0  0  0  0  0
    8.3892  -14.1433   15.4872 N   0  0  0  0  0  0  0  0  0  0  0  0
    8.2552  -13.1152   17.5775 N   0  0  0  0  0  0  0  0  0  0  0  0
    8.3217  -13.4161   18.9950 C   0  0  0  0  0  0  0  0  0  0  0  0
    6.9767  -13.5060   19.6300 C   0  0  0  0  0  0  0  0  0  0  0  0
    6.9367  -14.0550   21.0105 C   0  0  0  0  0  0  0  0  0  0  0  0
    8.0292  -15.0032   21.3756 C   0  0  2  0  0  0  0  0  0  0  0  0
    8.1436  -16.0477   20.4083 N   0  0  0  0  0  0  0  0  0  0  0  0
    7.9170  -15.4850   22.7783 C   0  0  0  0  0  0  0  0  0  0  0  0
    7.7360  -14.6499   23.7132 O   0  0  0  0  0  0  0  0  0  0  0  0
    9.1922  -13.5144   15.2955 C   0  0  0  0  0  0  0  0  0  0  0  0
    7.7248  -18.7447   24.6958 C   0  0  1  0  0  0  0  0  0  0  0  0
    7.8488  -17.2426   24.5503 N   0  0  0  0  0  0  0  0  0  0  0  0
    7.9976  -16.8430   23.1716 C   0  0  0  0  0  0  0  0  0  0  0  0
    8.9895  -16.7373   25.3518 O   0  0  0  0  0  0  0  0  0  0  0  0
   10.0882  -16.5297   24.7974 N   0  0  0  0  0  0  0  0  0  0  0  0
   11.3301  -13.4256   28.8927 C   0  0  0  0  0  0  0  0  0  0  0  0
   10.5112  -14.4960   29.3484 O   0  0  0  0  0  0  0  0  0  0  0  0
   10.7748  -15.0734   30.4275 C   0  0  0  0  0  0  0  0  0  0  0  0
    9.3509  -14.9048   28.5218 C   0  0  1  0  0  0  0  0  0  0  0  0
    9.8408  -15.9450   27.5328 N   0  0  0  0  0  0  0  0  0  0  0  0
    8.7891  -16.5037   26.7445 C   0  0  0  0  0  0  0  0  0  0  0  0
   10.4821  -17.0210   28.3210 O   0  0  0  0  0  0  0  0  0  0  0  0
   11.8208  -16.9843   28.7020 O   0  0  0  0  0  0  0  0  0  0  0  0
  1  2  1  0
  2  3  2  0
  4  5  1  0
  4  2  1  0
  6  7  1  0
  6  5  1  0
  7  8  1  0
  8  9  1  6
 10  8  1  0
 10 11  2  0
 13 12  1  6
 13 14  1  0
 14 10  1  0
 15 13  1  0
 16 15  2  0
 18 17  1  0
 19 18  2  0
 20 18  1  0
 21 20  1  6
 21 22  1  0
 22 15  1  0
 23 24  1  0
 23 21  1  0
 25 23  2  0
M  END
$$$$
