RAN.pdb
     RDKit          3D

 25 24  0  0  1  0  0  0  0  0999 V2000
    7.4185  -12.2267   19.6187 N   0  0  0  0  0  0  0  0  0  0  0  0
    8.3459  -13.0676   18.9435 C   0  0  0  0  0  0  0  0  0  0  0  0
    9.6000  -12.7807   18.9102 N   0  0  0  0  0  0  0  0  0  0  0  0
    7.9095  -14.2611   18.2816 N   0  0  0  0  0  0  0  0  0  0  0  0
    8.2464  -15.5775   18.7895 C   0  0  0  0  0  0  0  0  0  0  0  0
    7.2879  -16.0603   19.8232 C   0  0  0  0  0  0  0  0  0  0  0  0
    7.5627  -17.4027   20.3989 C   0  0  0  0  0  0  0  0  0  0  0  0
    8.8798  -17.5722   21.0790 C   0  0  2  0  0  0  0  0  0  0  0  0
    9.9273  -16.9637   20.3226 N   0  0  0  0  0  0  0  0  0  0  0  0
    9.1459  -18.9862   21.4557 C   0  0  0  0  0  0  0  0  0  0  0  0
    8.3048  -19.6125   22.1660 O   0  0  0  0  0  0  0  0  0  0  0  0
   10.2445  -13.3687   18.3480 C   0  0  0  0  0  0  0  0  0  0  0  0
   10.3210  -22.0755   20.4032 C   0  0  1  0  0  0  0  0  0  0  0  0
   10.5160  -21.0724   21.5206 N   0  0  0  0  0  0  0  0  0  0  0  0
   10.2975  -19.7172   21.0754 C   0  0  0  0  0  0  0  0  0  0  0  0
   11.8735  -21.2035   22.1029 O   0  0  0  0  0  0  0  0  0  0  0  0
   12.5563  -22.2175   21.8519 N   0  0  0  0  0  0  0  0  0  0  0  0
   16.3550  -19.5084   22.9281 C   0  0  0  0  0  0  0  0  0  0  0  0
   15.7072  -19.1258   21.7206 O   0  0  0  0  0  0  0  0  0  0  0  0
   16.3775  -18.6787   20.7623 C   0  0  0  0  0  0  0  0  0  0  0  0
   14.2349  -19.2692   21.6276 C   0  0  2  0  0  0  0  0  0  0  0  0
   13.7484  -19.8332   22.9488 N   0  0  0  0  0  0  0  0  0  0  0  0
   12.3569  -20.1542   22.9393 C   0  0  0  0  0  0  0  0  0  0  0  0
   14.0025  -18.8006   23.9781 O   0  0  0  0  0  0  0  0  0  0  0  0
   15.2595  -18.5808   24.5348 O   0  0  0  0  0  0  0  0  0  0  0  0
  1  2  1  0
  2  3  2  0
  4  5  1  0
  4  2  1  0
  6  7  1  0
  6  5  1  0
  7  8  1  0
  8  9  1  6
 10  8  1  0
 10 11  2  0
 13 12  1  1
 13 14  1  0
 14 10  1  0
 15 13  1  0
 16 15  2  0
 18 17  1  0
 19 18  2  0
 20 18  1  0
 21 20  1  6
 21 22  1  0
 22 15  1  0
 23 24  1  0
 23 21  1  0
 25 23  2  0
M  END
$$$$
