RAN.pdb
     RDKit          3D

 25 24  0  0  1  0  0  0  0  0999 V2000
    8.1725  -12.7194   20.8278 N   0  0  0  0  0  0  0  0  0  0  0  0
    7.7833  -13.4625   19.6792 C   0  0  0  0  0  0  0  0  0  0  0  0
    8.1480  -13.1004   18.4994 N   0  0  0  0  0  0  0  0  0  0  0  0
    6.9741  -14.6383   19.8036 N   0  0  0  0  0  0  0  0  0  0  0  0
    7.2991  -15.6869   20.7519 C   0  0  0  0  0  0  0  0  0  0  0  0
    8.2981  -16.6566   20.2207 C   0  0  0  0  0  0  0  0  0  0  0  0
    8.6905  -17.7624   21.1329 C   0  0  0  0  0  0  0  0  0  0  0  0
    8.4589  -17.5310   22.5885 C   0  0  2  0  0  0  0  0  0  0  0  0
    7.6388  -16.3808   22.7987 N   0  0  0  0  0  0  0  0  0  0  0  0
    9.7241  -17.5251   23.3703 C   0  0  0  0  0  0  0  0  0  0  0  0
   10.6208  -18.3823   23.1145 O   0  0  0  0  0  0  0  0  0  0  0  0
    7.7632  -13.5936   17.6712 C   0  0  0  0  0  0  0  0  0  0  0  0
   11.5899  -14.7265   24.3737 C   0  0  2  0  0  0  0  0  0  0  0  0
   11.3758  -16.1927   24.6857 N   0  0  0  0  0  0  0  0  0  0  0  0
   10.0228  -16.6125   24.4111 C   0  0  0  0  0  0  0  0  0  0  0  0
   11.7188  -16.4763   26.1003 O   0  0  0  0  0  0  0  0  0  0  0  0
   12.5911  -15.7910   26.6721 N   0  0  0  0  0  0  0  0  0  0  0  0
    9.3829  -13.7888   28.8878 C   0  0  0  0  0  0  0  0  0  0  0  0
   10.0908  -15.0158   28.7561 O   0  0  0  0  0  0  0  0  0  0  0  0
   11.2293  -15.1418   29.2614 C   0  0  0  0  0  0  0  0  0  0  0  0
    9.4522  -16.1285   28.0138 C   0  0  2  0  0  0  0  0  0  0  0  0
   10.4157  -17.2997   28.0323 N   0  0  0  0  0  0  0  0  0  0  0  0
   11.0320  -17.5346   26.7656 C   0  0  0  0  0  0  0  0  0  0  0  0
    9.6344  -18.4946   28.4222 O   0  0  0  0  0  0  0  0  0  0  0  0
    9.4977  -18.9108   29.7437 O   0  0  0  0  0  0  0  0  0  0  0  0
  1  2  1  0
  2  3  2  0
  4  5  1  0
  4  2  1  0
  6  7  1  0
  6  5  1  0
  7  8  1  0
  8  9  1  6
 10  8  1  0
 10 11  2  0
 13 12  1  6
 13 14  1  0
 14 10  1  0
 15 13  1  0
 16 15  2  0
 18 17  1  0
 19 18  2  0
 20 18  1  0
 21 20  1  1
 21 22  1  0
 22 15  1  0
 23 24  1  0
 23 21  1  0
 25 23  2  0
M  END
$$$$
