RAN.pdb
     RDKit          3D

 25 24  0  0  1  0  0  0  0  0999 V2000
   11.2877  -19.2482   13.8361 N   0  0  0  0  0  0  0  0  0  0  0  0
   12.4664  -19.9997   14.0989 C   0  0  0  0  0  0  0  0  0  0  0  0
   13.0292  -20.6965   13.1749 N   0  0  0  0  0  0  0  0  0  0  0  0
   13.0624  -20.0009   15.4018 N   0  0  0  0  0  0  0  0  0  0  0  0
   12.8989  -18.8837   16.3127 C   0  0  0  0  0  0  0  0  0  0  0  0
   11.4689  -18.5543   16.5717 C   0  0  0  0  0  0  0  0  0  0  0  0
   11.2125  -17.4298   17.5090 C   0  0  0  0  0  0  0  0  0  0  0  0
   10.8211  -17.8053   18.8989 C   0  0  2  0  0  0  0  0  0  0  0  0
    9.8598  -18.8614   18.8912 N   0  0  0  0  0  0  0  0  0  0  0  0
   10.4215  -16.6269   19.7136 C   0  0  0  0  0  0  0  0  0  0  0  0
   11.2087  -15.6396   19.8126 O   0  0  0  0  0  0  0  0  0  0  0  0
   13.8732  -21.2572   13.3995 C   0  0  0  0  0  0  0  0  0  0  0  0
    7.3649  -15.2281   21.4229 C   0  0  2  0  0  0  0  0  0  0  0  0
    8.8505  -15.3144   21.1430 N   0  0  0  0  0  0  0  0  0  0  0  0
    9.1948  -16.5097   20.4114 C   0  0  0  0  0  0  0  0  0  0  0  0
    9.6202  -15.2541   22.4092 O   0  0  0  0  0  0  0  0  0  0  0  0
    9.2268  -14.5151   23.3347 N   0  0  0  0  0  0  0  0  0  0  0  0
   12.2033  -17.0138   26.2056 C   0  0  0  0  0  0  0  0  0  0  0  0
   10.9503  -17.6107   25.8932 O   0  0  0  0  0  0  0  0  0  0  0  0
   10.3907  -18.3665   26.7197 C   0  0  0  0  0  0  0  0  0  0  0  0
   10.3314  -17.3174   24.5787 C   0  0  1  0  0  0  0  0  0  0  0  0
   11.2854  -16.4169   23.8175 N   0  0  0  0  0  0  0  0  0  0  0  0
   10.7967  -16.0518   22.5263 C   0  0  0  0  0  0  0  0  0  0  0  0
   12.5538  -17.1639   23.6643 O   0  0  0  0  0  0  0  0  0  0  0  0
   13.4784  -17.3040   24.6958 O   0  0  0  0  0  0  0  0  0  0  0  0
  1  2  1  0
  2  3  2  0
  4  5  1  0
  4  2  1  0
  6  7  1  0
  6  5  1  0
  7  8  1  0
  8  9  1  6
 10  8  1  0
 10 11  2  0
 13 12  1  6
 13 14  1  0
 14 10  1  0
 15 13  1  0
 16 15  2  0
 18 17  1  0
 19 18  2  0
 20 18  1  0
 21 20  1  1
 21 22  1  0
 22 15  1  0
 23 24  1  0
 23 21  1  0
 25 23  2  0
M  END
$$$$
