RAN.pdb
     RDKit          3D

 25 24  0  0  1  0  0  0  0  0999 V2000
    5.2785  -15.9540   10.9667 N   0  0  0  0  0  0  0  0  0  0  0  0
    4.6941  -17.2377   10.7835 C   0  0  0  0  0  0  0  0  0  0  0  0
    3.5039  -17.3639   10.3108 N   0  0  0  0  0  0  0  0  0  0  0  0
    5.4161  -18.4289   11.1192 N   0  0  0  0  0  0  0  0  0  0  0  0
    6.5798  -18.3930   11.9845 C   0  0  0  0  0  0  0  0  0  0  0  0
    6.4963  -19.3712   13.1055 C   0  0  0  0  0  0  0  0  0  0  0  0
    7.6664  -19.4244   14.0203 C   0  0  0  0  0  0  0  0  0  0  0  0
    7.5948  -20.4234   15.1261 C   0  0  2  0  0  0  0  0  0  0  0  0
    6.2552  -20.8809   15.3152 N   0  0  0  0  0  0  0  0  0  0  0  0
    8.2525  -19.9410   16.3699 C   0  0  0  0  0  0  0  0  0  0  0  0
    9.4723  -19.6014   16.3404 O   0  0  0  0  0  0  0  0  0  0  0  0
    3.0961  -18.3116   10.1981 C   0  0  0  0  0  0  0  0  0  0  0  0
    7.4335  -18.8120   19.8532 C   0  0  2  0  0  0  0  0  0  0  0  0
    8.3353  -19.4472   18.8159 N   0  0  0  0  0  0  0  0  0  0  0  0
    7.6103  -19.8244   17.6266 C   0  0  0  0  0  0  0  0  0  0  0  0
    9.0274  -20.6286   19.3854 O   0  0  0  0  0  0  0  0  0  0  0  0
    8.9993  -21.7146   18.7711 N   0  0  0  0  0  0  0  0  0  0  0  0
   12.8756  -22.9317   20.6648 C   0  0  0  0  0  0  0  0  0  0  0  0
   13.0325  -21.8091   19.8049 O   0  0  0  0  0  0  0  0  0  0  0  0
   13.9994  -21.7558   19.0113 C   0  0  0  0  0  0  0  0  0  0  0  0
   12.0327  -20.7171   19.8722 C   0  0  2  0  0  0  0  0  0  0  0  0
   10.9526  -21.1485   20.8456 N   0  0  0  0  0  0  0  0  0  0  0  0
    9.7087  -20.4810   20.6297 C   0  0  0  0  0  0  0  0  0  0  0  0
   11.4453  -20.8317   22.2047 O   0  0  0  0  0  0  0  0  0  0  0  0
   11.4727  -21.7664   23.2362 O   0  0  0  0  0  0  0  0  0  0  0  0
  1  2  1  0
  2  3  2  0
  4  5  1  0
  4  2  1  0
  6  7  1  0
  6  5  1  0
  7  8  1  0
  8  9  1  1
 10  8  1  0
 10 11  2  0
 13 12  1  6
 13 14  1  0
 14 10  1  0
 15 13  1  0
 16 15  2  0
 18 17  1  0
 19 18  2  0
 20 18  1  0
 21 20  1  6
 21 22  1  0
 22 15  1  0
 23 24  1  0
 23 21  1  0
 25 23  2  0
M  END
$$$$
