LSG.pdb
     RDKit          3D

 19 18  0  0  1  0  0  0  0  0999 V2000
    5.7867  -12.4295   25.5633 C   0  0  0  0  0  0  0  0  0  0  0  0
    6.5354  -13.1013   26.7409 C   0  0  2  0  0  0  0  0  0  0  0  0
    7.1024  -11.9637   27.5585 C   0  0  0  0  0  0  0  0  0  0  0  0
    7.6114  -13.9797   26.1956 C   0  0  0  0  0  0  0  0  0  0  0  0
    7.0565  -15.0516   25.3257 C   0  0  2  0  0  0  0  0  0  0  0  0
    6.4026  -16.0003   26.2788 N   0  0  0  0  0  0  0  0  0  0  0  0
    8.0335  -15.8663   24.6030 C   0  0  0  0  0  0  0  0  0  0  0  0
    8.6398  -16.8115   25.1632 O   0  0  0  0  0  0  0  0  0  0  0  0
    9.0892  -14.9385   20.5306 O   0  0  0  0  0  0  0  0  0  0  0  0
    9.0986  -16.2488   21.0077 C   0  0  0  0  0  0  0  0  0  0  0  0
    9.3273  -16.3237   22.4931 C   0  0  2  0  0  0  0  0  0  0  0  0
    8.3237  -15.6205   23.2558 N   0  0  0  0  0  0  0  0  0  0  0  0
   10.6697  -15.8286   22.8050 C   0  0  0  0  0  0  0  0  0  0  0  0
   10.8195  -14.7543   23.4439 O   0  0  0  0  0  0  0  0  0  0  0  0
   11.8501  -16.5419   22.3987 N   0  0  0  0  0  0  0  0  0  0  0  0
   13.1173  -15.9203   22.6162 C   0  0  0  0  0  0  0  0  0  0  0  0
   13.8740  -16.4704   23.7370 C   0  0  0  0  0  0  0  0  0  0  0  0
   15.1713  -16.1054   24.0590 O   0  0  0  0  0  0  0  0  0  0  0  0
   13.3218  -17.3341   24.4663 O   0  0  0  0  0  0  0  0  0  0  0  0
  2  1  1  6
  2  3  1  0
  2  4  1  0
  5  4  1  0
  5  6  1  1
  7  8  2  0
  7  5  1  0
  9 10  1  0
 11 10  1  6
 11 12  1  0
 12  7  1  0
 13 11  1  0
 13 15  1  0
 14 13  2  0
 16 15  1  0
 16 17  1  0
 17 19  2  0
 17 18  1  0
M  END
$$$$
