LSG.pdb
     RDKit          3D

 19 18  0  0  1  0  0  0  0  0999 V2000
    5.6323  -12.3097   26.3435 C   0  0  0  0  0  0  0  0  0  0  0  0
    6.6602  -13.0588   27.2273 C   0  0  2  0  0  0  0  0  0  0  0  0
    7.4863  -11.9787   27.8869 C   0  0  0  0  0  0  0  0  0  0  0  0
    7.4951  -13.9413   26.3608 C   0  0  0  0  0  0  0  0  0  0  0  0
    6.6559  -14.8196   25.5018 C   0  0  2  0  0  0  0  0  0  0  0  0
    6.3031  -15.9734   26.3852 N   0  0  0  0  0  0  0  0  0  0  0  0
    7.3250  -15.4251   24.3501 C   0  0  0  0  0  0  0  0  0  0  0  0
    7.9913  -16.4826   24.4617 O   0  0  0  0  0  0  0  0  0  0  0  0
    8.3502  -14.9835   19.5616 O   0  0  0  0  0  0  0  0  0  0  0  0
    7.6887  -14.4915   20.6863 C   0  0  0  0  0  0  0  0  0  0  0  0
    8.0204  -15.2601   21.9368 C   0  0  2  0  0  0  0  0  0  0  0  0
    7.2413  -14.8451   23.0788 N   0  0  0  0  0  0  0  0  0  0  0  0
    9.4550  -15.1515   22.2095 C   0  0  0  0  0  0  0  0  0  0  0  0
    9.9023  -14.1939   22.8933 O   0  0  0  0  0  0  0  0  0  0  0  0
   10.3928  -16.1217   21.7131 N   0  0  0  0  0  0  0  0  0  0  0  0
   11.7671  -15.9700   22.0706 C   0  0  0  0  0  0  0  0  0  0  0  0
   12.6613  -16.9466   21.4558 C   0  0  0  0  0  0  0  0  0  0  0  0
   14.0308  -16.9914   21.6616 O   0  0  0  0  0  0  0  0  0  0  0  0
   12.1669  -17.8101   20.6858 O   0  0  0  0  0  0  0  0  0  0  0  0
  2  1  1  6
  2  3  1  0
  2  4  1  0
  5  4  1  0
  5  6  1  1
  7  8  2  0
  7  5  1  0
  9 10  1  0
 11 10  1  6
 11 12  1  0
 12  7  1  0
 13 11  1  0
 13 15  1  0
 14 13  2  0
 16 15  1  0
 16 17  1  0
 17 19  2  0
 17 18  1  0
M  END
$$$$
