LSG.pdb
     RDKit          3D

 19 18  0  0  1  0  0  0  0  0999 V2000
    8.5309  -12.5120   18.6924 C   0  0  0  0  0  0  0  0  0  0  0  0
    9.0612  -13.9104   18.2897 C   0  0  2  0  0  0  0  0  0  0  0  0
    7.9434  -14.5526   17.5009 C   0  0  0  0  0  0  0  0  0  0  0  0
    9.3807  -14.6839   19.5252 C   0  0  0  0  0  0  0  0  0  0  0  0
   10.3770  -13.9758   20.3736 C   0  0  2  0  0  0  0  0  0  0  0  0
   11.6830  -14.2094   19.6837 N   0  0  0  0  0  0  0  0  0  0  0  0
   10.5696  -14.5080   21.7228 C   0  0  0  0  0  0  0  0  0  0  0  0
   11.6856  -14.9368   22.1040 O   0  0  0  0  0  0  0  0  0  0  0  0
    7.2712  -15.3011   24.2984 O   0  0  0  0  0  0  0  0  0  0  0  0
    8.4028  -14.6836   24.8302 C   0  0  0  0  0  0  0  0  0  0  0  0
    9.6432  -14.9497   24.0209 C   0  0  2  0  0  0  0  0  0  0  0  0
    9.5123  -14.5537   22.6391 N   0  0  0  0  0  0  0  0  0  0  0  0
   10.0036  -16.3646   24.1322 C   0  0  0  0  0  0  0  0  0  0  0  0
   10.1585  -16.8950   25.2632 O   0  0  0  0  0  0  0  0  0  0  0  0
   10.1910  -17.1890   22.9692 N   0  0  0  0  0  0  0  0  0  0  0  0
   10.4404  -18.5812   23.1672 C   0  0  0  0  0  0  0  0  0  0  0  0
   10.5542  -19.3546   21.9342 C   0  0  0  0  0  0  0  0  0  0  0  0
   10.7425  -20.7264   21.8861 O   0  0  0  0  0  0  0  0  0  0  0  0
   10.4776  -18.7457   20.8359 O   0  0  0  0  0  0  0  0  0  0  0  0
  2  1  1  1
  2  3  1  0
  2  4  1  0
  5  4  1  0
  5  6  1  6
  7  8  2  0
  7  5  1  0
  9 10  1  0
 11 10  1  1
 11 12  1  0
 12  7  1  0
 13 11  1  0
 13 15  1  0
 14 13  2  0
 16 15  1  0
 16 17  1  0
 17 19  2  0
 17 18  1  0
M  END
$$$$
