LSG.pdb
     RDKit          3D

 19 18  0  0  1  0  0  0  0  0999 V2000
    8.9056  -14.2637   27.8868 C   0  0  0  0  0  0  0  0  0  0  0  0
    9.9804  -14.8536   28.8333 C   0  0  2  0  0  0  0  0  0  0  0  0
   10.5267  -13.6750   29.6056 C   0  0  0  0  0  0  0  0  0  0  0  0
   11.0380  -15.5163   28.0153 C   0  0  0  0  0  0  0  0  0  0  0  0
   10.4820  -16.6252   27.1938 C   0  0  2  0  0  0  0  0  0  0  0  0
   10.5322  -17.8159   28.0969 N   0  0  0  0  0  0  0  0  0  0  0  0
   11.2658  -17.0152   26.0216 C   0  0  0  0  0  0  0  0  0  0  0  0
   12.3617  -17.6157   26.1372 O   0  0  0  0  0  0  0  0  0  0  0  0
    9.7279  -16.2822   22.1324 O   0  0  0  0  0  0  0  0  0  0  0  0
   10.6694  -17.2908   22.3348 C   0  0  0  0  0  0  0  0  0  0  0  0
   11.5562  -17.0267   23.5215 C   0  0  2  0  0  0  0  0  0  0  0  0
   10.8166  -16.7340   24.7259 N   0  0  0  0  0  0  0  0  0  0  0  0
   12.4907  -15.9460   23.2007 C   0  0  0  0  0  0  0  0  0  0  0  0
   12.3588  -14.8119   23.7310 O   0  0  0  0  0  0  0  0  0  0  0  0
   13.5788  -16.1379   22.2807 N   0  0  0  0  0  0  0  0  0  0  0  0
   14.4560  -15.0367   22.0406 C   0  0  0  0  0  0  0  0  0  0  0  0
   15.5342  -15.3194   21.0977 C   0  0  0  0  0  0  0  0  0  0  0  0
   16.1590  -14.3625   20.3143 O   0  0  0  0  0  0  0  0  0  0  0  0
   15.9309  -16.5076   20.9800 O   0  0  0  0  0  0  0  0  0  0  0  0
  2  1  1  6
  2  3  1  0
  2  4  1  0
  5  4  1  0
  5  6  1  1
  7  8  2  0
  7  5  1  0
  9 10  1  0
 11 10  1  6
 11 12  1  0
 12  7  1  0
 13 11  1  0
 13 15  1  0
 14 13  2  0
 16 15  1  0
 16 17  1  0
 17 19  2  0
 17 18  1  0
M  END
$$$$
