LSG.pdb
     RDKit          3D

 19 18  0  0  1  0  0  0  0  0999 V2000
    8.0499  -16.6815   15.6791 C   0  0  0  0  0  0  0  0  0  0  0  0
    8.6869  -15.4396   15.0079 C   0  0  2  0  0  0  0  0  0  0  0  0
    9.4050  -15.9662   13.7868 C   0  0  0  0  0  0  0  0  0  0  0  0
    9.6300  -14.7970   15.9693 C   0  0  0  0  0  0  0  0  0  0  0  0
    8.9217  -14.2839   17.1729 C   0  0  2  0  0  0  0  0  0  0  0  0
    8.3140  -12.9939   16.7229 N   0  0  0  0  0  0  0  0  0  0  0  0
    9.7654  -13.9195   18.3114 C   0  0  0  0  0  0  0  0  0  0  0  0
   10.5110  -12.9107   18.2770 O   0  0  0  0  0  0  0  0  0  0  0  0
    9.2302  -15.7070   22.1218 O   0  0  0  0  0  0  0  0  0  0  0  0
    9.9115  -14.5051   21.9323 C   0  0  0  0  0  0  0  0  0  0  0  0
   10.6339  -14.4496   20.6134 C   0  0  2  0  0  0  0  0  0  0  0  0
    9.7668  -14.6846   19.4837 N   0  0  0  0  0  0  0  0  0  0  0  0
   11.7494  -15.3981   20.6284 C   0  0  0  0  0  0  0  0  0  0  0  0
   11.6173  -16.5441   20.1246 O   0  0  0  0  0  0  0  0  0  0  0  0
   13.0195  -15.0597   21.2112 N   0  0  0  0  0  0  0  0  0  0  0  0
   14.0484  -16.0501   21.1981 C   0  0  0  0  0  0  0  0  0  0  0  0
   15.3179  -15.6079   21.7675 C   0  0  0  0  0  0  0  0  0  0  0  0
   15.8548  -16.0903   22.9502 O   0  0  0  0  0  0  0  0  0  0  0  0
   15.9773  -14.7307   21.1522 O   0  0  0  0  0  0  0  0  0  0  0  0
  2  1  1  1
  2  3  1  0
  2  4  1  0
  5  4  1  0
  5  6  1  6
  7  8  2  0
  7  5  1  0
  9 10  1  0
 11 10  1  1
 11 12  1  0
 12  7  1  0
 13 11  1  0
 13 15  1  0
 14 13  2  0
 16 15  1  0
 16 17  1  0
 17 19  2  0
 17 18  1  0
M  END
$$$$
