LSG.pdb
     RDKit          3D

 19 18  0  0  1  0  0  0  0  0999 V2000
    7.7261  -13.9306   19.1886 C   0  0  0  0  0  0  0  0  0  0  0  0
    7.6046  -13.3416   20.6160 C   0  0  2  0  0  0  0  0  0  0  0  0
    7.7418  -11.8460   20.4470 C   0  0  0  0  0  0  0  0  0  0  0  0
    8.6929  -13.9035   21.4684 C   0  0  0  0  0  0  0  0  0  0  0  0
    8.5715  -15.3795   21.6111 C   0  0  2  0  0  0  0  0  0  0  0  0
    7.4050  -15.5680   22.5274 N   0  0  0  0  0  0  0  0  0  0  0  0
    9.6824  -16.0564   22.2806 C   0  0  0  0  0  0  0  0  0  0  0  0
    9.7771  -16.0782   23.5317 O   0  0  0  0  0  0  0  0  0  0  0  0
   11.2656  -19.5922   21.5392 O   0  0  0  0  0  0  0  0  0  0  0  0
   12.2432  -18.6035   21.4337 C   0  0  0  0  0  0  0  0  0  0  0  0
   11.8510  -17.3241   22.1219 C   0  0  2  0  0  0  0  0  0  0  0  0
   10.6796  -16.7084   21.5456 N   0  0  0  0  0  0  0  0  0  0  0  0
   12.9875  -16.4008   22.1189 C   0  0  0  0  0  0  0  0  0  0  0  0
   13.0263  -15.4415   21.3047 O   0  0  0  0  0  0  0  0  0  0  0  0
   14.0862  -16.5539   23.0337 N   0  0  0  0  0  0  0  0  0  0  0  0
   15.1481  -15.6009   22.9718 C   0  0  0  0  0  0  0  0  0  0  0  0
   16.2776  -15.8993   23.8473 C   0  0  0  0  0  0  0  0  0  0  0  0
   17.4490  -15.1607   23.8918 O   0  0  0  0  0  0  0  0  0  0  0  0
   16.1933  -16.8909   24.6171 O   0  0  0  0  0  0  0  0  0  0  0  0
  2  1  1  6
  2  3  1  0
  2  4  1  0
  5  4  1  0
  5  6  1  1
  7  8  2  0
  7  5  1  0
  9 10  1  0
 11 10  1  6
 11 12  1  0
 12  7  1  0
 13 11  1  0
 13 15  1  0
 14 13  2  0
 16 15  1  0
 16 17  1  0
 17 19  2  0
 17 18  1  0
M  END
$$$$
