LSG.pdb
     RDKit          3D

 19 18  0  0  1  0  0  0  0  0999 V2000
   -0.8959  -22.5026   26.5662 C   0  0  0  0  0  0  0  0  0  0  0  0
   -1.9261  -22.0456   25.5038 C   0  0  2  0  0  0  0  0  0  0  0  0
   -1.1724  -21.1068   24.5902 C   0  0  0  0  0  0  0  0  0  0  0  0
   -3.0594  -21.3582   26.1892 C   0  0  0  0  0  0  0  0  0  0  0  0
   -3.7689  -22.2707   27.1261 C   0  0  2  0  0  0  0  0  0  0  0  0
   -4.2039  -23.4160   26.2688 N   0  0  0  0  0  0  0  0  0  0  0  0
   -5.0059  -21.7567   27.7144 C   0  0  0  0  0  0  0  0  0  0  0  0
   -5.0246  -20.6842   28.3657 O   0  0  0  0  0  0  0  0  0  0  0  0
   -9.8013  -21.5632   27.6440 O   0  0  0  0  0  0  0  0  0  0  0  0
   -8.5946  -22.0150   27.1110 C   0  0  0  0  0  0  0  0  0  0  0  0
   -7.4772  -22.0098   28.1188 C   0  0  2  0  0  0  0  0  0  0  0  0
   -6.2162  -22.4445   27.5671 N   0  0  0  0  0  0  0  0  0  0  0  0
   -7.8577  -22.8272   29.2726 C   0  0  0  0  0  0  0  0  0  0  0  0
   -7.6541  -24.0695   29.2676 O   0  0  0  0  0  0  0  0  0  0  0  0
   -8.4694  -22.2487   30.4381 N   0  0  0  0  0  0  0  0  0  0  0  0
   -8.7923  -23.1156   31.5262 C   0  0  0  0  0  0  0  0  0  0  0  0
  -10.1364  -23.6825   31.4669 C   0  0  0  0  0  0  0  0  0  0  0  0
  -10.6722  -24.5265   32.4263 O   0  0  0  0  0  0  0  0  0  0  0  0
  -10.8660  -23.3926   30.4838 O   0  0  0  0  0  0  0  0  0  0  0  0
  2  1  1  1
  2  3  1  0
  2  4  1  0
  5  4  1  0
  5  6  1  6
  7  8  2  0
  7  5  1  0
  9 10  1  0
 11 10  1  6
 11 12  1  0
 12  7  1  0
 13 11  1  0
 13 15  1  0
 14 13  2  0
 16 15  1  0
 16 17  1  0
 17 19  2  0
 17 18  1  0
M  END
$$$$
