LSG.pdb
     RDKit          3D

 19 18  0  0  1  0  0  0  0  0999 V2000
    6.7831  -11.6641   25.0408 C   0  0  0  0  0  0  0  0  0  0  0  0
    6.3094  -12.5743   26.2010 C   0  0  2  0  0  0  0  0  0  0  0  0
    6.5092  -11.7599   27.4584 C   0  0  0  0  0  0  0  0  0  0  0  0
    7.1338  -13.8181   26.2114 C   0  0  0  0  0  0  0  0  0  0  0  0
    6.7526  -14.7382   25.1060 C   0  0  2  0  0  0  0  0  0  0  0  0
    5.4290  -15.2929   25.5260 N   0  0  0  0  0  0  0  0  0  0  0  0
    7.6054  -15.9126   24.9215 C   0  0  0  0  0  0  0  0  0  0  0  0
    7.5133  -16.9131   25.6734 O   0  0  0  0  0  0  0  0  0  0  0  0
   11.0472  -15.8462   22.2558 O   0  0  0  0  0  0  0  0  0  0  0  0
   10.2303  -16.9671   22.4002 C   0  0  0  0  0  0  0  0  0  0  0  0
    9.5342  -17.0097   23.7336 C   0  0  2  0  0  0  0  0  0  0  0  0
    8.5544  -15.9620   23.8935 N   0  0  0  0  0  0  0  0  0  0  0  0
   10.5311  -16.9676   24.8054 C   0  0  0  0  0  0  0  0  0  0  0  0
   11.0800  -15.8798   25.1218 O   0  0  0  0  0  0  0  0  0  0  0  0
   10.9143  -18.1512   25.5261 N   0  0  0  0  0  0  0  0  0  0  0  0
   11.7187  -17.9932   26.6955 C   0  0  0  0  0  0  0  0  0  0  0  0
   12.0588  -19.2443   27.3668 C   0  0  0  0  0  0  0  0  0  0  0  0
   11.6467  -20.4970   26.9418 O   0  0  0  0  0  0  0  0  0  0  0  0
   12.7732  -19.1941   28.4013 O   0  0  0  0  0  0  0  0  0  0  0  0
  2  1  1  6
  2  3  1  0
  2  4  1  0
  5  4  1  0
  5  6  1  1
  7  8  2  0
  7  5  1  0
  9 10  1  0
 11 10  1  6
 11 12  1  0
 12  7  1  0
 13 11  1  0
 13 15  1  0
 14 13  2  0
 16 15  1  0
 16 17  1  0
 17 19  2  0
 17 18  1  0
M  END
$$$$
