LSG.pdb
     RDKit          3D

 19 18  0  0  1  0  0  0  0  0999 V2000
    8.2751  -14.4356   18.9931 C   0  0  0  0  0  0  0  0  0  0  0  0
    7.3029  -13.6959   19.9453 C   0  0  2  0  0  0  0  0  0  0  0  0
    7.1892  -12.2934   19.3939 C   0  0  0  0  0  0  0  0  0  0  0  0
    7.8730  -13.7030   21.3243 C   0  0  0  0  0  0  0  0  0  0  0  0
    8.0404  -15.0879   21.8418 C   0  0  2  0  0  0  0  0  0  0  0  0
    6.7042  -15.4313   22.4186 N   0  0  0  0  0  0  0  0  0  0  0  0
    8.9776  -15.2523   22.9531 C   0  0  0  0  0  0  0  0  0  0  0  0
    8.6476  -14.9816   24.1332 O   0  0  0  0  0  0  0  0  0  0  0  0
   10.6491  -18.2476   24.1161 O   0  0  0  0  0  0  0  0  0  0  0  0
   10.8602  -17.0205   24.7440 C   0  0  0  0  0  0  0  0  0  0  0  0
   11.2549  -15.9354   23.7789 C   0  0  2  0  0  0  0  0  0  0  0  0
   10.2784  -15.7225   22.7376 N   0  0  0  0  0  0  0  0  0  0  0  0
   12.5707  -16.2410   23.2135 C   0  0  0  0  0  0  0  0  0  0  0  0
   12.6678  -16.7554   22.0687 O   0  0  0  0  0  0  0  0  0  0  0  0
   13.7838  -15.9683   23.9356 N   0  0  0  0  0  0  0  0  0  0  0  0
   15.0248  -16.2967   23.3098 C   0  0  0  0  0  0  0  0  0  0  0  0
   16.1962  -16.1161   24.1623 C   0  0  0  0  0  0  0  0  0  0  0  0
   16.1411  -15.8561   25.5221 O   0  0  0  0  0  0  0  0  0  0  0  0
   17.3370  -16.1999   23.6384 O   0  0  0  0  0  0  0  0  0  0  0  0
  2  1  1  6
  2  3  1  0
  2  4  1  0
  5  4  1  0
  5  6  1  1
  7  8  2  0
  7  5  1  0
  9 10  1  0
 11 10  1  1
 11 12  1  0
 12  7  1  0
 13 11  1  0
 13 15  1  0
 14 13  2  0
 16 15  1  0
 16 17  1  0
 17 19  2  0
 17 18  1  0
M  END
$$$$
