LSG.pdb
     RDKit          3D

 19 18  0  0  1  0  0  0  0  0999 V2000
    5.9177  -12.3118   25.5975 C   0  0  0  0  0  0  0  0  0  0  0  0
    6.4322  -13.0564   26.8544 C   0  0  2  0  0  0  0  0  0  0  0  0
    7.0594  -11.9914   27.7243 C   0  0  0  0  0  0  0  0  0  0  0  0
    7.4285  -14.0857   26.4363 C   0  0  0  0  0  0  0  0  0  0  0  0
    6.8479  -15.0464   25.4598 C   0  0  2  0  0  0  0  0  0  0  0  0
    6.1632  -16.0691   26.3091 N   0  0  0  0  0  0  0  0  0  0  0  0
    7.8053  -15.8099   24.6590 C   0  0  0  0  0  0  0  0  0  0  0  0
    8.4536  -16.7658   25.1497 O   0  0  0  0  0  0  0  0  0  0  0  0
    8.7773  -14.5816   20.6358 O   0  0  0  0  0  0  0  0  0  0  0  0
    8.8251  -15.9203   21.0231 C   0  0  0  0  0  0  0  0  0  0  0  0
    9.0664  -16.0889   22.4988 C   0  0  2  0  0  0  0  0  0  0  0  0
    8.0288  -15.5011   23.3121 N   0  0  0  0  0  0  0  0  0  0  0  0
   10.3802  -15.5418   22.8435 C   0  0  0  0  0  0  0  0  0  0  0  0
   10.4788  -14.3927   23.3480 O   0  0  0  0  0  0  0  0  0  0  0  0
   11.5895  -16.2870   22.6215 N   0  0  0  0  0  0  0  0  0  0  0  0
   12.8296  -15.6744   22.9775 C   0  0  0  0  0  0  0  0  0  0  0  0
   14.0078  -16.4874   22.6907 C   0  0  0  0  0  0  0  0  0  0  0  0
   13.9666  -17.7533   22.1288 O   0  0  0  0  0  0  0  0  0  0  0  0
   15.1416  -16.0178   22.9679 O   0  0  0  0  0  0  0  0  0  0  0  0
  2  1  1  6
  2  3  1  0
  2  4  1  0
  5  4  1  0
  5  6  1  1
  7  8  2  0
  7  5  1  0
  9 10  1  0
 11 10  1  6
 11 12  1  0
 12  7  1  0
 13 11  1  0
 13 15  1  0
 14 13  2  0
 16 15  1  0
 16 17  1  0
 17 19  2  0
 17 18  1  0
M  END
$$$$
