LSG.pdb
     RDKit          3D

 19 18  0  0  1  0  0  0  0  0999 V2000
    9.4310  -13.7750   19.6124 C   0  0  0  0  0  0  0  0  0  0  0  0
    7.9111  -13.5814   19.8386 C   0  0  2  0  0  0  0  0  0  0  0  0
    7.6661  -12.0988   19.6781 C   0  0  0  0  0  0  0  0  0  0  0  0
    7.5592  -14.0544   21.2095 C   0  0  0  0  0  0  0  0  0  0  0  0
    7.8876  -15.4937   21.3946 C   0  0  2  0  0  0  0  0  0  0  0  0
    6.6371  -16.0891   21.9582 N   0  0  0  0  0  0  0  0  0  0  0  0
    8.9218  -15.7972   22.3839 C   0  0  0  0  0  0  0  0  0  0  0  0
    8.7516  -15.5563   23.6037 O   0  0  0  0  0  0  0  0  0  0  0  0
   11.3851  -18.9486   21.9924 O   0  0  0  0  0  0  0  0  0  0  0  0
   11.2896  -18.2069   23.1695 C   0  0  0  0  0  0  0  0  0  0  0  0
   11.1996  -16.7263   22.9164 C   0  0  2  0  0  0  0  0  0  0  0  0
   10.1398  -16.3724   22.0026 N   0  0  0  0  0  0  0  0  0  0  0  0
   12.4935  -16.2338   22.4394 C   0  0  0  0  0  0  0  0  0  0  0  0
   12.7865  -16.2949   21.2167 O   0  0  0  0  0  0  0  0  0  0  0  0
   13.4638  -15.6700   23.3381 N   0  0  0  0  0  0  0  0  0  0  0  0
   14.7129  -15.2418   22.7938 C   0  0  0  0  0  0  0  0  0  0  0  0
   15.8841  -15.7283   23.5170 C   0  0  0  0  0  0  0  0  0  0  0  0
   17.1859  -15.3345   23.2524 O   0  0  0  0  0  0  0  0  0  0  0  0
   15.7123  -16.5609   24.4444 O   0  0  0  0  0  0  0  0  0  0  0  0
  2  1  1  1
  2  3  1  0
  2  4  1  0
  5  4  1  0
  5  6  1  1
  7  8  2  0
  7  5  1  0
  9 10  1  0
 11 10  1  6
 11 12  1  0
 12  7  1  0
 13 11  1  0
 13 15  1  0
 14 13  2  0
 16 15  1  0
 16 17  1  0
 17 19  2  0
 17 18  1  0
M  END
$$$$
