LSG.pdb
     RDKit          3D

 19 18  0  0  1  0  0  0  0  0999 V2000
    8.0087  -12.5734   27.2587 C   0  0  0  0  0  0  0  0  0  0  0  0
    7.2046  -13.3724   26.2033 C   0  0  2  0  0  0  0  0  0  0  0  0
    5.9507  -12.5653   25.9573 C   0  0  0  0  0  0  0  0  0  0  0  0
    6.8924  -14.7249   26.7511 C   0  0  0  0  0  0  0  0  0  0  0  0
    6.4006  -15.6461   25.6913 C   0  0  2  0  0  0  0  0  0  0  0  0
    6.1171  -16.9240   26.4142 N   0  0  0  0  0  0  0  0  0  0  0  0
    7.3669  -16.0121   24.6555 C   0  0  0  0  0  0  0  0  0  0  0  0
    8.3114  -16.8038   24.8920 O   0  0  0  0  0  0  0  0  0  0  0  0
    7.7202  -13.9024   20.8607 O   0  0  0  0  0  0  0  0  0  0  0  0
    7.7062  -15.2941   20.9474 C   0  0  0  0  0  0  0  0  0  0  0  0
    8.1813  -15.7968   22.2838 C   0  0  2  0  0  0  0  0  0  0  0  0
    7.2682  -15.4925   23.3594 N   0  0  0  0  0  0  0  0  0  0  0  0
    9.5167  -15.2628   22.5587 C   0  0  0  0  0  0  0  0  0  0  0  0
    9.6519  -14.1455   23.1226 O   0  0  0  0  0  0  0  0  0  0  0  0
   10.7068  -15.9854   22.1995 N   0  0  0  0  0  0  0  0  0  0  0  0
   11.9638  -15.4661   22.6354 C   0  0  0  0  0  0  0  0  0  0  0  0
   13.1193  -16.2539   22.2164 C   0  0  0  0  0  0  0  0  0  0  0  0
   14.3795  -15.7289   21.9798 O   0  0  0  0  0  0  0  0  0  0  0  0
   12.9733  -17.4932   22.0563 O   0  0  0  0  0  0  0  0  0  0  0  0
  2  1  1  1
  2  3  1  0
  2  4  1  0
  5  4  1  0
  5  6  1  1
  7  8  2  0
  7  5  1  0
  9 10  1  0
 11 10  1  6
 11 12  1  0
 12  7  1  0
 13 11  1  0
 13 15  1  0
 14 13  2  0
 16 15  1  0
 16 17  1  0
 17 19  2  0
 17 18  1  0
M  END
$$$$
