LSG.pdb
     RDKit          3D

 19 18  0  0  1  0  0  0  0  0999 V2000
    5.8120  -12.2420   25.8385 C   0  0  0  0  0  0  0  0  0  0  0  0
    6.6329  -12.9511   26.9440 C   0  0  2  0  0  0  0  0  0  0  0  0
    7.2967  -11.8414   27.7264 C   0  0  0  0  0  0  0  0  0  0  0  0
    7.6355  -13.8518   26.3035 C   0  0  0  0  0  0  0  0  0  0  0  0
    6.9832  -14.8741   25.4415 C   0  0  2  0  0  0  0  0  0  0  0  0
    6.3484  -15.8224   26.4078 N   0  0  0  0  0  0  0  0  0  0  0  0
    7.8786  -15.7068   24.6382 C   0  0  0  0  0  0  0  0  0  0  0  0
    8.5893  -16.5983   25.1625 O   0  0  0  0  0  0  0  0  0  0  0  0
    8.5671  -14.7733   20.4794 O   0  0  0  0  0  0  0  0  0  0  0  0
    8.6493  -16.0831   20.9508 C   0  0  0  0  0  0  0  0  0  0  0  0
    8.9771  -16.1521   22.4179 C   0  0  2  0  0  0  0  0  0  0  0  0
    7.9706  -15.5393   23.2514 N   0  0  0  0  0  0  0  0  0  0  0  0
   10.2924  -15.5527   22.6521 C   0  0  0  0  0  0  0  0  0  0  0  0
   10.3928  -14.4565   23.2627 O   0  0  0  0  0  0  0  0  0  0  0  0
   11.5013  -16.1858   22.1994 N   0  0  0  0  0  0  0  0  0  0  0  0
   12.7361  -15.4987   22.4063 C   0  0  0  0  0  0  0  0  0  0  0  0
   13.8052  -16.3308   22.9503 C   0  0  0  0  0  0  0  0  0  0  0  0
   15.1367  -15.9524   23.0112 O   0  0  0  0  0  0  0  0  0  0  0  0
   13.5099  -17.4695   23.3966 O   0  0  0  0  0  0  0  0  0  0  0  0
  2  1  1  6
  2  3  1  0
  2  4  1  0
  5  4  1  0
  5  6  1  1
  7  8  2  0
  7  5  1  0
  9 10  1  0
 11 10  1  6
 11 12  1  0
 12  7  1  0
 13 11  1  0
 13 15  1  0
 14 13  2  0
 16 15  1  0
 16 17  1  0
 17 19  2  0
 17 18  1  0
M  END
$$$$
