YEA.pdb
     RDKit          3D

 27 27  0  0  1  0  0  0  0  0999 V2000
   17.9326  -21.6406   -9.2087 O   0  0  0  0  0  0  0  0  0  0  0  0
   18.8968  -21.4357  -10.1797 C   0  0  0  0  0  0  0  0  0  0  0  0
   19.5084  -22.4797  -10.8422 C   0  0  0  0  0  0  0  0  0  0  0  0
   20.4487  -22.1770  -11.7851 C   0  0  0  0  0  0  0  0  0  0  0  0
   20.8180  -20.8872  -12.1090 C   0  0  0  0  0  0  0  0  0  0  0  0
   21.8487  -20.6491  -13.1402 C   0  0  0  0  0  0  0  0  0  0  0  0
   21.2593  -20.4100  -14.5131 C   0  0  2  0  0  0  0  0  0  0  0  0
   20.6543  -21.6892  -14.9245 N   0  0  0  0  0  0  0  0  0  0  0  0
   22.2692  -20.0156  -15.5187 C   0  0  0  0  0  0  0  0  0  0  0  0
   22.9533  -20.9158  -16.0679 O   0  0  0  0  0  0  0  0  0  0  0  0
   20.1982  -19.8705  -11.4390 C   0  0  0  0  0  0  0  0  0  0  0  0
   19.2423  -20.1353  -10.4789 C   0  0  0  0  0  0  0  0  0  0  0  0
   22.4805  -18.6445  -15.8750 N   0  0  0  0  0  0  0  0  0  0  0  0
   23.4116  -18.2901  -16.9427 C   0  0  1  0  0  0  0  0  0  0  0  0
   23.0908  -16.9313  -17.4867 C   0  0  0  0  0  0  0  0  0  0  0  0
   23.2469  -15.8043  -16.5297 C   0  0  0  0  0  0  0  0  0  0  0  0
   23.0938  -14.4696  -17.1158 C   0  0  0  0  0  0  0  0  0  0  0  0
   22.0619  -14.1531  -17.7496 O   0  0  0  0  0  0  0  0  0  0  0  0
   24.7946  -18.1831  -16.3527 C   0  0  0  0  0  0  0  0  0  0  0  0
   24.9053  -17.5956  -15.2499 O   0  0  0  0  0  0  0  0  0  0  0  0
   24.0718  -13.4908  -17.0038 O   0  0  0  0  0  0  0  0  0  0  0  0
   28.0976  -19.7626  -16.9856 C   0  0  0  0  0  0  0  0  0  0  0  0
   27.2813  -18.5869  -16.4429 C   0  0  2  0  0  0  0  0  0  0  0  0
   25.9469  -18.7006  -16.9668 N   0  0  0  0  0  0  0  0  0  0  0  0
   27.9373  -17.3259  -16.8336 C   0  0  0  0  0  0  0  0  0  0  0  0
   29.0553  -16.8436  -16.1820 O   0  0  0  0  0  0  0  0  0  0  0  0
   27.4706  -16.6630  -17.7889 O   0  0  0  0  0  0  0  0  0  0  0  0
  2  3  2  0
  2  1  1  0
  4  3  1  0
  5  4  2  0
  6  5  1  0
  7  9  1  0
  7  6  1  0
  7  8  1  6
  9 10  2  0
 11  5  1  0
 11 12  2  0
 12  2  1  0
 13  9  1  0
 13 14  1  0
 14 15  1  1
 15 16  1  0
 17 18  2  0
 17 16  1  0
 19 24  1  0
 19 14  1  0
 20 19  2  0
 21 17  1  0
 23 22  1  6
 23 24  1  0
 25 23  1  0
 25 26  1  0
 27 25  2  0
M  END
$$$$
