YEA.pdb
     RDKit          3D

 27 27  0  0  1  0  0  0  0  0999 V2000
   10.7734   -6.4111   -5.3057 O   0  0  0  0  0  0  0  0  0  0  0  0
   11.8296   -6.7382   -6.1376 C   0  0  0  0  0  0  0  0  0  0  0  0
   11.9989   -8.0084   -6.6483 C   0  0  0  0  0  0  0  0  0  0  0  0
   13.0727   -8.2343   -7.4611 C   0  0  0  0  0  0  0  0  0  0  0  0
   13.9938   -7.2629   -7.7974 C   0  0  0  0  0  0  0  0  0  0  0  0
   15.1303   -7.5947   -8.6810 C   0  0  0  0  0  0  0  0  0  0  0  0
   14.7329   -7.6822  -10.1383 C   0  0  2  0  0  0  0  0  0  0  0  0
   14.3569   -9.0875  -10.3739 N   0  0  0  0  0  0  0  0  0  0  0  0
   15.8294   -7.3213  -11.0626 C   0  0  0  0  0  0  0  0  0  0  0  0
   16.5826   -8.2341  -11.4864 O   0  0  0  0  0  0  0  0  0  0  0  0
   13.8047   -6.0131   -7.2790 C   0  0  0  0  0  0  0  0  0  0  0  0
   12.7313   -5.7447   -6.4535 C   0  0  0  0  0  0  0  0  0  0  0  0
   16.0474   -5.9685  -11.4794 N   0  0  0  0  0  0  0  0  0  0  0  0
   17.0263   -5.6605  -12.5184 C   0  0  1  0  0  0  0  0  0  0  0  0
   16.8636   -4.2468  -12.9876 C   0  0  0  0  0  0  0  0  0  0  0  0
   17.8106   -3.8100  -14.0472 C   0  0  0  0  0  0  0  0  0  0  0  0
   17.6124   -2.4392  -14.5268 C   0  0  0  0  0  0  0  0  0  0  0  0
   16.7483   -1.6910  -14.0163 O   0  0  0  0  0  0  0  0  0  0  0  0
   18.4045   -5.7389  -11.9127 C   0  0  0  0  0  0  0  0  0  0  0  0
   18.5327   -5.3578  -10.7244 O   0  0  0  0  0  0  0  0  0  0  0  0
   18.3617   -1.8972  -15.5621 O   0  0  0  0  0  0  0  0  0  0  0  0
   21.4241   -7.6192  -12.1607 C   0  0  0  0  0  0  0  0  0  0  0  0
   20.8780   -6.1910  -12.0913 C   0  0  2  0  0  0  0  0  0  0  0  0
   19.5338   -6.2100  -12.6020 N   0  0  0  0  0  0  0  0  0  0  0  0
   21.7640   -5.3001  -12.8624 C   0  0  0  0  0  0  0  0  0  0  0  0
   22.9741   -4.8552  -12.3677 O   0  0  0  0  0  0  0  0  0  0  0  0
   21.4142   -4.9293  -14.0069 O   0  0  0  0  0  0  0  0  0  0  0  0
  2  3  2  0
  2  1  1  0
  4  3  1  0
  5  4  2  0
  6  5  1  0
  7  9  1  0
  7  6  1  0
  7  8  1  6
  9 10  2  0
 11  5  1  0
 11 12  2  0
 12  2  1  0
 13  9  1  0
 13 14  1  0
 14 15  1  1
 15 16  1  0
 17 18  2  0
 17 16  1  0
 19 24  1  0
 19 14  1  0
 20 19  2  0
 21 17  1  0
 23 22  1  6
 23 24  1  0
 25 23  1  0
 25 26  1  0
 27 25  2  0
M  END
$$$$
