YEA.pdb
     RDKit          3D

 27 27  0  0  1  0  0  0  0  0999 V2000
   22.4064  -10.3642    5.8724 O   0  0  0  0  0  0  0  0  0  0  0  0
   21.3446  -11.0785    6.3987 C   0  0  0  0  0  0  0  0  0  0  0  0
   21.4382  -11.7660    7.5909 C   0  0  0  0  0  0  0  0  0  0  0  0
   20.3355  -12.4419    8.0290 C   0  0  0  0  0  0  0  0  0  0  0  0
   19.1372  -12.4736    7.3448 C   0  0  0  0  0  0  0  0  0  0  0  0
   17.9938  -13.2343    7.8891 C   0  0  0  0  0  0  0  0  0  0  0  0
   17.3048  -14.0840    6.8438 C   0  0  2  0  0  0  0  0  0  0  0  0
   16.0689  -13.3657    6.4855 N   0  0  0  0  0  0  0  0  0  0  0  0
   16.9468  -15.4324    7.3342 C   0  0  0  0  0  0  0  0  0  0  0  0
   15.9782  -15.5453    8.1275 O   0  0  0  0  0  0  0  0  0  0  0  0
   19.0694  -11.7852    6.1666 C   0  0  0  0  0  0  0  0  0  0  0  0
   20.1624  -11.0894    5.6900 C   0  0  0  0  0  0  0  0  0  0  0  0
   17.6731  -16.5981    6.9281 N   0  0  0  0  0  0  0  0  0  0  0  0
   17.3647  -17.9035    7.5056 C   0  0  1  0  0  0  0  0  0  0  0  0
   17.4139  -18.9668    6.4510 C   0  0  0  0  0  0  0  0  0  0  0  0
   17.0852  -20.3417    6.9111 C   0  0  0  0  0  0  0  0  0  0  0  0
   17.1107  -21.3668    5.8637 C   0  0  0  0  0  0  0  0  0  0  0  0
   16.0879  -22.0298    5.5786 O   0  0  0  0  0  0  0  0  0  0  0  0
   18.4458  -18.2535    8.4962 C   0  0  0  0  0  0  0  0  0  0  0  0
   19.6207  -17.9239    8.2053 O   0  0  0  0  0  0  0  0  0  0  0  0
   18.2561  -21.6589    5.1358 O   0  0  0  0  0  0  0  0  0  0  0  0
   18.5317  -19.6923   11.9567 C   0  0  0  0  0  0  0  0  0  0  0  0
   19.2236  -19.3237   10.6420 C   0  0  2  0  0  0  0  0  0  0  0  0
   18.2063  -18.9196    9.7092 N   0  0  0  0  0  0  0  0  0  0  0  0
   19.9994  -20.4834   10.1661 C   0  0  0  0  0  0  0  0  0  0  0  0
   19.6125  -21.2300    9.0706 O   0  0  0  0  0  0  0  0  0  0  0  0
   21.0471  -20.8094   10.7708 O   0  0  0  0  0  0  0  0  0  0  0  0
  2  3  2  0
  2  1  1  0
  4  3  1  0
  5  4  2  0
  6  5  1  0
  7  9  1  0
  7  6  1  0
  7  8  1  1
  9 10  2  0
 11  5  1  0
 11 12  2  0
 12  2  1  0
 13  9  1  0
 13 14  1  0
 14 15  1  6
 15 16  1  0
 17 18  2  0
 17 16  1  0
 19 24  1  0
 19 14  1  0
 20 19  2  0
 21 17  1  0
 23 22  1  1
 23 24  1  0
 25 23  1  0
 25 26  1  0
 27 25  2  0
M  END
$$$$
