YEA.pdb
     RDKit          3D

 27 27  0  0  1  0  0  0  0  0999 V2000
   28.3398  -19.9259   -3.9694 O   0  0  0  0  0  0  0  0  0  0  0  0
   27.9952  -19.8245   -5.3056 C   0  0  0  0  0  0  0  0  0  0  0  0
   28.5941  -18.9164   -6.1538 C   0  0  0  0  0  0  0  0  0  0  0  0
   28.1865  -18.8915   -7.4569 C   0  0  0  0  0  0  0  0  0  0  0  0
   27.2109  -19.7235   -7.9680 C   0  0  0  0  0  0  0  0  0  0  0  0
   26.8269  -19.6269   -9.3912 C   0  0  0  0  0  0  0  0  0  0  0  0
   26.9149  -20.9538  -10.1130 C   0  0  2  0  0  0  0  0  0  0  0  0
   28.3346  -21.3467  -10.0706 N   0  0  0  0  0  0  0  0  0  0  0  0
   26.4840  -20.8771  -11.5255 C   0  0  0  0  0  0  0  0  0  0  0  0
   27.2913  -20.4242  -12.3759 O   0  0  0  0  0  0  0  0  0  0  0  0
   26.6327  -20.6140   -7.1083 C   0  0  0  0  0  0  0  0  0  0  0  0
   27.0173  -20.6701   -5.7837 C   0  0  0  0  0  0  0  0  0  0  0  0
   25.1806  -21.3035  -11.9387 N   0  0  0  0  0  0  0  0  0  0  0  0
   24.7688  -21.1852  -13.3347 C   0  0  1  0  0  0  0  0  0  0  0  0
   24.7103  -22.5367  -13.9791 C   0  0  0  0  0  0  0  0  0  0  0  0
   24.3770  -22.5423  -15.4279 C   0  0  0  0  0  0  0  0  0  0  0  0
   25.3872  -21.9319  -16.2971 C   0  0  0  0  0  0  0  0  0  0  0  0
   26.5803  -22.3098  -16.2711 O   0  0  0  0  0  0  0  0  0  0  0  0
   23.3607  -20.6481  -13.3721 C   0  0  0  0  0  0  0  0  0  0  0  0
   22.5529  -21.0931  -12.5217 O   0  0  0  0  0  0  0  0  0  0  0  0
   25.0839  -20.9121  -17.1887 O   0  0  0  0  0  0  0  0  0  0  0  0
   21.5362  -18.1262  -15.4832 C   0  0  0  0  0  0  0  0  0  0  0  0
   21.5706  -19.1880  -14.3813 C   0  0  2  0  0  0  0  0  0  0  0  0
   22.9158  -19.6895  -14.2972 N   0  0  0  0  0  0  0  0  0  0  0  0
   20.5921  -20.2433  -14.7006 C   0  0  0  0  0  0  0  0  0  0  0  0
   19.3035  -20.2287  -14.2042 O   0  0  0  0  0  0  0  0  0  0  0  0
   20.9334  -21.1896  -15.4474 O   0  0  0  0  0  0  0  0  0  0  0  0
  2  3  2  0
  2  1  1  0
  4  3  1  0
  5  4  2  0
  6  5  1  0
  7  9  1  0
  7  6  1  0
  7  8  1  6
  9 10  2  0
 11  5  1  0
 11 12  2  0
 12  2  1  0
 13  9  1  0
 13 14  1  0
 14 15  1  1
 15 16  1  0
 17 18  2  0
 17 16  1  0
 19 24  1  0
 19 14  1  0
 20 19  2  0
 21 17  1  0
 23 22  1  6
 23 24  1  0
 25 23  1  0
 25 26  1  0
 27 25  2  0
M  END
$$$$
