YEA.pdb
     RDKit          3D

 27 27  0  0  1  0  0  0  0  0999 V2000
   21.0086   -1.2129  -15.7615 O   0  0  0  0  0  0  0  0  0  0  0  0
   21.2752   -2.5542  -15.5508 C   0  0  0  0  0  0  0  0  0  0  0  0
   20.7887   -3.5413  -16.3826 C   0  0  0  0  0  0  0  0  0  0  0  0
   21.1062   -4.8374  -16.0926 C   0  0  0  0  0  0  0  0  0  0  0  0
   21.8850   -5.2105  -15.0158 C   0  0  0  0  0  0  0  0  0  0  0  0
   22.1767   -6.6381  -14.7726 C   0  0  0  0  0  0  0  0  0  0  0  0
   20.9592   -7.4166  -14.3245 C   0  0  2  0  0  0  0  0  0  0  0  0
   20.6856   -6.9842  -12.9425 N   0  0  0  0  0  0  0  0  0  0  0  0
   21.1696   -8.8804  -14.3326 C   0  0  0  0  0  0  0  0  0  0  0  0
   21.5532   -9.4378  -13.2733 O   0  0  0  0  0  0  0  0  0  0  0  0
   22.3548   -4.2148  -14.2068 C   0  0  0  0  0  0  0  0  0  0  0  0
   22.0560   -2.8923  -14.4664 C   0  0  0  0  0  0  0  0  0  0  0  0
   20.9476   -9.6658  -15.5095 N   0  0  0  0  0  0  0  0  0  0  0  0
   21.1239  -11.1152  -15.4788 C   0  0  1  0  0  0  0  0  0  0  0  0
   19.9026  -11.8019  -16.0101 C   0  0  0  0  0  0  0  0  0  0  0  0
   19.9521  -13.2877  -16.0114 C   0  0  0  0  0  0  0  0  0  0  0  0
   18.7276  -13.9467  -16.4748 C   0  0  0  0  0  0  0  0  0  0  0  0
   17.6127  -13.6692  -15.9778 O   0  0  0  0  0  0  0  0  0  0  0  0
   22.2445  -11.4788  -16.4192 C   0  0  0  0  0  0  0  0  0  0  0  0
   22.2256  -10.9633  -17.5627 O   0  0  0  0  0  0  0  0  0  0  0  0
   18.7324  -14.9051  -17.4791 O   0  0  0  0  0  0  0  0  0  0  0  0
   25.4994  -13.2899  -16.0407 C   0  0  0  0  0  0  0  0  0  0  0  0
   24.4307  -12.6313  -16.9165 C   0  0  2  0  0  0  0  0  0  0  0  0
   23.2920  -12.3521  -16.0836 N   0  0  0  0  0  0  0  0  0  0  0  0
   24.1052  -13.5327  -18.0366 C   0  0  0  0  0  0  0  0  0  0  0  0
   24.8357  -13.5461  -19.2085 O   0  0  0  0  0  0  0  0  0  0  0  0
   23.1339  -14.3168  -17.9296 O   0  0  0  0  0  0  0  0  0  0  0  0
  2  3  2  0
  2  1  1  0
  4  3  1  0
  5  4  2  0
  6  5  1  0
  7  9  1  0
  7  6  1  0
  7  8  1  1
  9 10  2  0
 11  5  1  0
 11 12  2  0
 12  2  1  0
 13  9  1  0
 13 14  1  0
 14 15  1  6
 15 16  1  0
 17 18  2  0
 17 16  1  0
 19 24  1  0
 19 14  1  0
 20 19  2  0
 21 17  1  0
 23 22  1  1
 23 24  1  0
 25 23  1  0
 25 26  1  0
 27 25  2  0
M  END
$$$$
