YEA.pdb
     RDKit          3D

 27 27  0  0  1  0  0  0  0  0999 V2000
   23.6863  -20.9077   -7.8356 O   0  0  0  0  0  0  0  0  0  0  0  0
   24.2144  -20.7671   -9.1067 C   0  0  0  0  0  0  0  0  0  0  0  0
   23.4578  -20.3310  -10.1746 C   0  0  0  0  0  0  0  0  0  0  0  0
   24.0686  -20.2243  -11.3913 C   0  0  0  0  0  0  0  0  0  0  0  0
   25.3973  -20.5284  -11.6083 C   0  0  0  0  0  0  0  0  0  0  0  0
   25.9776  -20.3884  -12.9596 C   0  0  0  0  0  0  0  0  0  0  0  0
   25.1771  -21.1141  -14.0188 C   0  0  2  0  0  0  0  0  0  0  0  0
   25.3274  -22.5512  -13.7291 N   0  0  0  0  0  0  0  0  0  0  0  0
   25.6583  -20.8523  -15.3924 C   0  0  0  0  0  0  0  0  0  0  0  0
   26.5995  -21.5532  -15.8428 O   0  0  0  0  0  0  0  0  0  0  0  0
   26.1255  -20.9583  -10.5353 C   0  0  0  0  0  0  0  0  0  0  0  0
   25.5446  -21.0794   -9.2889 C   0  0  0  0  0  0  0  0  0  0  0  0
   25.0800  -19.8282  -16.2097 N   0  0  0  0  0  0  0  0  0  0  0  0
   25.4842  -19.6751  -17.6047 C   0  0  1  0  0  0  0  0  0  0  0  0
   24.2829  -19.6760  -18.5003 C   0  0  0  0  0  0  0  0  0  0  0  0
   24.5530  -19.3968  -19.9354 C   0  0  0  0  0  0  0  0  0  0  0  0
   23.3817  -19.4796  -20.8126 C   0  0  0  0  0  0  0  0  0  0  0  0
   22.2445  -19.7341  -20.3553 O   0  0  0  0  0  0  0  0  0  0  0  0
   26.1219  -18.3193  -17.7698 C   0  0  0  0  0  0  0  0  0  0  0  0
   25.4829  -17.3276  -17.3432 O   0  0  0  0  0  0  0  0  0  0  0  0
   23.4636  -19.2830  -22.1843 O   0  0  0  0  0  0  0  0  0  0  0  0
   29.4583  -17.0831  -18.9630 C   0  0  0  0  0  0  0  0  0  0  0  0
   28.0091  -16.8347  -18.5375 C   0  0  2  0  0  0  0  0  0  0  0  0
   27.3761  -18.1148  -18.3680 N   0  0  0  0  0  0  0  0  0  0  0  0
   27.3442  -16.0053  -19.5589 C   0  0  0  0  0  0  0  0  0  0  0  0
   26.7289  -16.5529  -20.6673 O   0  0  0  0  0  0  0  0  0  0  0  0
   27.3325  -14.7597  -19.4240 O   0  0  0  0  0  0  0  0  0  0  0  0
  2  3  2  0
  2  1  1  0
  4  3  1  0
  5  4  2  0
  6  5  1  0
  7  9  1  0
  7  6  1  0
  7  8  1  1
  9 10  2  0
 11  5  1  0
 11 12  2  0
 12  2  1  0
 13  9  1  0
 13 14  1  0
 14 15  1  6
 15 16  1  0
 17 18  2  0
 17 16  1  0
 19 24  1  0
 19 14  1  0
 20 19  2  0
 21 17  1  0
 23 22  1  6
 23 24  1  0
 25 23  1  0
 25 26  1  0
 27 25  2  0
M  END
$$$$
