YEA.pdb
     RDKit          3D

 27 27  0  0  1  0  0  0  0  0999 V2000
   29.2686  -18.4480   -3.5719 O   0  0  0  0  0  0  0  0  0  0  0  0
   28.7786  -18.9674   -4.7571 C   0  0  0  0  0  0  0  0  0  0  0  0
   28.2806  -18.1650   -5.7627 C   0  0  0  0  0  0  0  0  0  0  0  0
   27.8193  -18.7707   -6.8963 C   0  0  0  0  0  0  0  0  0  0  0  0
   27.8249  -20.1375   -7.0885 C   0  0  0  0  0  0  0  0  0  0  0  0
   27.3021  -20.7105   -8.3457 C   0  0  0  0  0  0  0  0  0  0  0  0
   25.7949  -20.6238   -8.4466 C   0  0  2  0  0  0  0  0  0  0  0  0
   25.2652  -21.4644   -7.3581 N   0  0  0  0  0  0  0  0  0  0  0  0
   25.2685  -21.1249   -9.7345 C   0  0  0  0  0  0  0  0  0  0  0  0
   25.3370  -22.3572   -9.9726 O   0  0  0  0  0  0  0  0  0  0  0  0
   28.3229  -20.9107   -6.0781 C   0  0  0  0  0  0  0  0  0  0  0  0
   28.7988  -20.3364   -4.9166 C   0  0  0  0  0  0  0  0  0  0  0  0
   24.6892  -20.2442  -10.7041 N   0  0  0  0  0  0  0  0  0  0  0  0
   24.1790  -20.7656  -11.9692 C   0  0  1  0  0  0  0  0  0  0  0  0
   22.9574  -20.0082  -12.3924 C   0  0  0  0  0  0  0  0  0  0  0  0
   22.3455  -20.4436  -13.6755 C   0  0  0  0  0  0  0  0  0  0  0  0
   21.1340  -19.7146  -14.0616 C   0  0  0  0  0  0  0  0  0  0  0  0
   20.5647  -19.9336  -15.1547 O   0  0  0  0  0  0  0  0  0  0  0  0
   25.2116  -20.5154  -13.0386 C   0  0  0  0  0  0  0  0  0  0  0  0
   25.7189  -19.3693  -13.0909 O   0  0  0  0  0  0  0  0  0  0  0  0
   20.5541  -18.7508  -13.2479 O   0  0  0  0  0  0  0  0  0  0  0  0
   26.9673  -22.6643  -15.5674 C   0  0  0  0  0  0  0  0  0  0  0  0
   26.6597  -21.2991  -14.9474 C   0  0  2  0  0  0  0  0  0  0  0  0
   25.6269  -21.4865  -13.9644 N   0  0  0  0  0  0  0  0  0  0  0  0
   26.2612  -20.3651  -16.0161 C   0  0  0  0  0  0  0  0  0  0  0  0
   27.1475  -19.4691  -16.5806 O   0  0  0  0  0  0  0  0  0  0  0  0
   25.0795  -20.3784  -16.4321 O   0  0  0  0  0  0  0  0  0  0  0  0
  2  3  2  0
  2  1  1  0
  4  3  1  0
  5  4  2  0
  6  5  1  0
  7  9  1  0
  7  6  1  0
  7  8  1  1
  9 10  2  0
 11  5  1  0
 11 12  2  0
 12  2  1  0
 13  9  1  0
 13 14  1  0
 14 15  1  6
 15 16  1  0
 17 18  2  0
 17 16  1  0
 19 24  1  0
 19 14  1  0
 20 19  2  0
 21 17  1  0
 23 22  1  6
 23 24  1  0
 25 23  1  0
 25 26  1  0
 27 25  2  0
M  END
$$$$
