YEA.pdb
     RDKit          3D

 27 27  0  0  1  0  0  0  0  0999 V2000
   27.3809  -20.2759   -6.4157 O   0  0  0  0  0  0  0  0  0  0  0  0
   27.1280  -20.2614   -7.7760 C   0  0  0  0  0  0  0  0  0  0  0  0
   25.8581  -20.0914   -8.2872 C   0  0  0  0  0  0  0  0  0  0  0  0
   25.7087  -20.0913   -9.6446 C   0  0  0  0  0  0  0  0  0  0  0  0
   26.7566  -20.2516  -10.5284 C   0  0  0  0  0  0  0  0  0  0  0  0
   26.5052  -20.2430  -11.9841 C   0  0  0  0  0  0  0  0  0  0  0  0
   25.4960  -21.2867  -12.4103 C   0  0  2  0  0  0  0  0  0  0  0  0
   26.2489  -22.5452  -12.5557 N   0  0  0  0  0  0  0  0  0  0  0  0
   24.8422  -20.9713  -13.6987 C   0  0  0  0  0  0  0  0  0  0  0  0
   25.4562  -21.2335  -14.7637 O   0  0  0  0  0  0  0  0  0  0  0  0
   28.0045  -20.4184   -9.9978 C   0  0  0  0  0  0  0  0  0  0  0  0
   28.1969  -20.4243   -8.6308 C   0  0  0  0  0  0  0  0  0  0  0  0
   23.5389  -20.3802  -13.7561 N   0  0  0  0  0  0  0  0  0  0  0  0
   22.8534  -20.2174  -15.0352 C   0  0  1  0  0  0  0  0  0  0  0  0
   21.3692  -20.1836  -14.8325 C   0  0  0  0  0  0  0  0  0  0  0  0
   20.5562  -20.0455  -16.0696 C   0  0  0  0  0  0  0  0  0  0  0  0
   19.1071  -20.1421  -15.8711 C   0  0  0  0  0  0  0  0  0  0  0  0
   18.6149  -20.2626  -14.7265 O   0  0  0  0  0  0  0  0  0  0  0  0
   23.2234  -18.8721  -15.6061 C   0  0  0  0  0  0  0  0  0  0  0  0
   23.2458  -17.8985  -14.8154 O   0  0  0  0  0  0  0  0  0  0  0  0
   18.2071  -20.1059  -16.9274 O   0  0  0  0  0  0  0  0  0  0  0  0
   25.0803  -17.5302  -18.4088 C   0  0  0  0  0  0  0  0  0  0  0  0
   23.8266  -17.3772  -17.5442 C   0  0  2  0  0  0  0  0  0  0  0  0
   23.5391  -18.6585  -16.9579 N   0  0  0  0  0  0  0  0  0  0  0  0
   22.7222  -16.8783  -18.3837 C   0  0  0  0  0  0  0  0  0  0  0  0
   21.9741  -17.7129  -19.1903 O   0  0  0  0  0  0  0  0  0  0  0  0
   22.4466  -15.6562  -18.3705 O   0  0  0  0  0  0  0  0  0  0  0  0
  2  3  2  0
  2  1  1  0
  4  3  1  0
  5  4  2  0
  6  5  1  0
  7  9  1  0
  7  6  1  0
  7  8  1  6
  9 10  2  0
 11  5  1  0
 11 12  2  0
 12  2  1  0
 13  9  1  0
 13 14  1  0
 14 15  1  1
 15 16  1  0
 17 18  2  0
 17 16  1  0
 19 24  1  0
 19 14  1  0
 20 19  2  0
 21 17  1  0
 23 22  1  6
 23 24  1  0
 25 23  1  0
 25 26  1  0
 27 25  2  0
M  END
$$$$
