TAL.pdb
     RDKit          3D

 21 20  0  0  1  0  0  0  0  0999 V2000
    7.4920  -14.2867   21.0508 C   0  0  0  0  0  0  0  0  0  0  0  0
    6.5264  -15.4646   21.1377 C   0  0  1  0  0  0  0  0  0  0  0  0
    5.5356  -15.2011   20.1799 O   0  0  0  0  0  0  0  0  0  0  0  0
    7.2608  -16.7436   20.8106 C   0  0  2  0  0  0  0  0  0  0  0  0
    6.2579  -17.8179   20.8023 N   0  0  0  0  0  0  0  0  0  0  0  0
    8.2880  -17.0234   21.8551 C   0  0  0  0  0  0  0  0  0  0  0  0
    7.9652  -17.7116   22.8416 O   0  0  0  0  0  0  0  0  0  0  0  0
   11.9528  -16.1927   22.0960 C   0  0  0  0  0  0  0  0  0  0  0  0
   10.6568  -16.6548   22.6609 C   0  0  2  0  0  0  0  0  0  0  0  0
    9.5849  -16.5171   21.7188 N   0  0  0  0  0  0  0  0  0  0  0  0
   10.3135  -15.9941   23.9684 C   0  0  0  0  0  0  0  0  0  0  0  0
   11.1126  -16.1673   24.9187 O   0  0  0  0  0  0  0  0  0  0  0  0
    5.7448  -12.4489   26.5171 C   0  0  0  0  0  0  0  0  0  0  0  0
    7.1273  -13.0300   26.5394 C   0  0  2  0  0  0  0  0  0  0  0  0
    8.1620  -12.0170   27.0016 C   0  0  0  0  0  0  0  0  0  0  0  0
    7.5372  -13.7528   25.3127 C   0  0  0  0  0  0  0  0  0  0  0  0
    8.7662  -14.5729   25.3647 C   0  0  2  0  0  0  0  0  0  0  0  0
    9.1451  -15.2072   24.1319 N   0  0  0  0  0  0  0  0  0  0  0  0
    8.5139  -15.6380   26.4144 C   0  0  0  0  0  0  0  0  0  0  0  0
    9.0441  -15.5987   27.6707 O   0  0  0  0  0  0  0  0  0  0  0  0
    7.7651  -16.6127   26.0828 O   0  0  0  0  0  0  0  0  0  0  0  0
  2  1  1  6
  3  2  1  0
  4  2  1  0
  4  6  1  0
  4  5  1  1
  6 10  1  0
  7  6  2  0
  9  8  1  6
 10  9  1  0
 11  9  1  0
 11 12  2  0
 14 15  1  6
 14 13  1  0
 16 14  1  0
 17 18  1  0
 17 16  1  6
 18 11  1  0
 19 17  1  0
 20 19  1  0
 21 19  2  0
M  END
$$$$
