TAL.pdb
     RDKit          3D

 21 20  0  0  1  0  0  0  0  0999 V2000
    8.2394  -12.9685   21.1350 C   0  0  0  0  0  0  0  0  0  0  0  0
    7.1996  -14.0096   20.7316 C   0  0  1  0  0  0  0  0  0  0  0  0
    6.4827  -13.4256   19.6765 O   0  0  0  0  0  0  0  0  0  0  0  0
    7.8981  -15.2680   20.2727 C   0  0  2  0  0  0  0  0  0  0  0  0
    6.8623  -16.1472   19.7123 N   0  0  0  0  0  0  0  0  0  0  0  0
    8.5535  -15.9394   21.4320 C   0  0  0  0  0  0  0  0  0  0  0  0
    7.9621  -16.8836   21.9884 O   0  0  0  0  0  0  0  0  0  0  0  0
   12.0203  -15.6350   22.8477 C   0  0  0  0  0  0  0  0  0  0  0  0
   10.6211  -16.1387   22.8749 C   0  0  2  0  0  0  0  0  0  0  0  0
    9.8076  -15.5079   21.8770 N   0  0  0  0  0  0  0  0  0  0  0  0
    9.9832  -16.0369   24.2337 C   0  0  0  0  0  0  0  0  0  0  0  0
   10.6215  -16.5212   25.1980 O   0  0  0  0  0  0  0  0  0  0  0  0
    5.9312  -12.1732   25.9183 C   0  0  0  0  0  0  0  0  0  0  0  0
    6.9499  -13.1838   26.3548 C   0  0  2  0  0  0  0  0  0  0  0  0
    8.3639  -12.6300   26.2891 C   0  0  0  0  0  0  0  0  0  0  0  0
    6.8273  -14.5241   25.7357 C   0  0  0  0  0  0  0  0  0  0  0  0
    8.0295  -15.3834   25.6897 C   0  0  2  0  0  0  0  0  0  0  0  0
    8.7204  -15.4222   24.4299 N   0  0  0  0  0  0  0  0  0  0  0  0
    7.5579  -16.7813   26.0409 C   0  0  0  0  0  0  0  0  0  0  0  0
    7.6474  -17.8432   25.1892 O   0  0  0  0  0  0  0  0  0  0  0  0
    7.0534  -16.9493   27.1976 O   0  0  0  0  0  0  0  0  0  0  0  0
  2  1  1  6
  3  2  1  0
  4  2  1  0
  4  6  1  0
  4  5  1  1
  6 10  1  0
  7  6  2  0
  9  8  1  1
 10  9  1  0
 11  9  1  0
 11 12  2  0
 14 15  1  6
 14 13  1  0
 16 14  1  0
 17 18  1  0
 17 16  1  6
 18 11  1  0
 19 17  1  0
 20 19  1  0
 21 19  2  0
M  END
$$$$
