TAL.pdb
     RDKit          3D

 21 20  0  0  1  0  0  0  0  0999 V2000
   12.1641  -18.5504   22.3989 C   0  0  0  0  0  0  0  0  0  0  0  0
   12.4930  -17.7472   21.1442 C   0  0  1  0  0  0  0  0  0  0  0  0
   13.4420  -18.5150   20.4527 O   0  0  0  0  0  0  0  0  0  0  0  0
   11.2416  -17.5700   20.3168 C   0  0  2  0  0  0  0  0  0  0  0  0
   11.6592  -16.9771   19.0385 N   0  0  0  0  0  0  0  0  0  0  0  0
   10.2962  -16.6498   21.0123 C   0  0  0  0  0  0  0  0  0  0  0  0
   10.6346  -15.4638   21.1848 O   0  0  0  0  0  0  0  0  0  0  0  0
    6.7149  -17.0529   22.0627 C   0  0  0  0  0  0  0  0  0  0  0  0
    8.0230  -16.3450   22.0781 C   0  0  2  0  0  0  0  0  0  0  0  0
    9.0568  -17.1210   21.4582 N   0  0  0  0  0  0  0  0  0  0  0  0
    8.4361  -15.8979   23.4540 C   0  0  0  0  0  0  0  0  0  0  0  0
    9.5892  -16.2139   23.8310 O   0  0  0  0  0  0  0  0  0  0  0  0
    6.1607  -11.4692   26.5626 C   0  0  0  0  0  0  0  0  0  0  0  0
    7.2994  -12.4174   26.3308 C   0  0  2  0  0  0  0  0  0  0  0  0
    8.1574  -11.9968   25.1488 C   0  0  0  0  0  0  0  0  0  0  0  0
    6.9388  -13.8540   26.2982 C   0  0  0  0  0  0  0  0  0  0  0  0
    7.8799  -14.7945   25.6533 C   0  0  2  0  0  0  0  0  0  0  0  0
    7.5726  -15.1510   24.2953 N   0  0  0  0  0  0  0  0  0  0  0  0
    7.8725  -16.0462   26.5095 C   0  0  0  0  0  0  0  0  0  0  0  0
    8.6629  -16.2121   27.6090 O   0  0  0  0  0  0  0  0  0  0  0  0
    7.0790  -16.9799   26.1642 O   0  0  0  0  0  0  0  0  0  0  0  0
  2  1  1  1
  3  2  1  0
  4  2  1  0
  4  6  1  0
  4  5  1  6
  6 10  1  0
  7  6  2  0
  9  8  1  1
 10  9  1  0
 11  9  1  0
 11 12  2  0
 14 15  1  6
 14 13  1  0
 16 14  1  0
 17 18  1  0
 17 16  1  1
 18 11  1  0
 19 17  1  0
 20 19  1  0
 21 19  2  0
M  END
$$$$
