TAL.pdb
     RDKit          3D

 21 20  0  0  1  0  0  0  0  0999 V2000
    5.5143  -17.8547   24.5148 C   0  0  0  0  0  0  0  0  0  0  0  0
    6.1580  -18.9863   23.7193 C   0  0  1  0  0  0  0  0  0  0  0  0
    5.2660  -20.0642   23.8229 O   0  0  0  0  0  0  0  0  0  0  0  0
    6.3194  -18.5612   22.2786 C   0  0  2  0  0  0  0  0  0  0  0  0
    6.6713  -19.7682   21.5176 N   0  0  0  0  0  0  0  0  0  0  0  0
    7.4158  -17.5568   22.1629 C   0  0  0  0  0  0  0  0  0  0  0  0
    8.5921  -17.9356   22.3177 O   0  0  0  0  0  0  0  0  0  0  0  0
    7.4505  -13.9879   21.0103 C   0  0  0  0  0  0  0  0  0  0  0  0
    8.0603  -15.1551   21.7018 C   0  0  2  0  0  0  0  0  0  0  0  0
    7.1167  -16.2186   21.8862 N   0  0  0  0  0  0  0  0  0  0  0  0
    8.7227  -14.7906   23.0026 C   0  0  0  0  0  0  0  0  0  0  0  0
    9.7606  -14.0908   22.9344 O   0  0  0  0  0  0  0  0  0  0  0  0
    7.5768  -11.7999   25.8781 C   0  0  0  0  0  0  0  0  0  0  0  0
    6.8143  -13.0780   26.0639 C   0  0  2  0  0  0  0  0  0  0  0  0
    5.5885  -12.8859   26.9418 C   0  0  0  0  0  0  0  0  0  0  0  0
    7.6245  -14.2549   26.4561 C   0  0  0  0  0  0  0  0  0  0  0  0
    8.6730  -14.7213   25.5238 C   0  0  2  0  0  0  0  0  0  0  0  0
    8.2068  -15.2101   24.2552 N   0  0  0  0  0  0  0  0  0  0  0  0
    9.4087  -15.8340   26.2452 C   0  0  0  0  0  0  0  0  0  0  0  0
   10.1225  -15.6457   27.3924 O   0  0  0  0  0  0  0  0  0  0  0  0
    9.3442  -16.9981   25.7339 O   0  0  0  0  0  0  0  0  0  0  0  0
  2  1  1  1
  3  2  1  0
  4  2  1  0
  4  6  1  0
  4  5  1  6
  6 10  1  0
  7  6  2  0
  9  8  1  1
 10  9  1  0
 11  9  1  0
 11 12  2  0
 14 15  1  1
 14 13  1  0
 16 14  1  0
 17 18  1  0
 17 16  1  1
 18 11  1  0
 19 17  1  0
 20 19  1  0
 21 19  2  0
M  END
$$$$
