TAL.pdb
     RDKit          3D

 21 20  0  0  1  0  0  0  0  0999 V2000
    6.2280  -14.5173   20.7374 C   0  0  0  0  0  0  0  0  0  0  0  0
    7.2836  -15.0146   21.7203 C   0  0  1  0  0  0  0  0  0  0  0  0
    6.5617  -15.5716   22.7866 O   0  0  0  0  0  0  0  0  0  0  0  0
    8.1428  -16.0611   21.0505 C   0  0  2  0  0  0  0  0  0  0  0  0
    7.2449  -17.1534   20.6496 N   0  0  0  0  0  0  0  0  0  0  0  0
    9.1619  -16.5752   22.0104 C   0  0  0  0  0  0  0  0  0  0  0  0
    8.9563  -17.6674   22.5723 O   0  0  0  0  0  0  0  0  0  0  0  0
   12.6363  -15.4490   22.8554 C   0  0  0  0  0  0  0  0  0  0  0  0
   11.3898  -16.2056   23.1489 C   0  0  2  0  0  0  0  0  0  0  0  0
   10.3215  -15.8361   22.2671 N   0  0  0  0  0  0  0  0  0  0  0  0
   10.9614  -16.1027   24.5875 C   0  0  0  0  0  0  0  0  0  0  0  0
   11.7997  -16.4437   25.4550 O   0  0  0  0  0  0  0  0  0  0  0  0
    8.6506  -12.4861   26.6086 C   0  0  0  0  0  0  0  0  0  0  0  0
    7.7465  -13.5125   25.9933 C   0  0  2  0  0  0  0  0  0  0  0  0
    6.2984  -13.0515   25.9672 C   0  0  0  0  0  0  0  0  0  0  0  0
    7.9021  -14.8929   26.5084 C   0  0  0  0  0  0  0  0  0  0  0  0
    9.2043  -15.5660   26.3161 C   0  0  2  0  0  0  0  0  0  0  0  0
    9.6733  -15.6407   24.9596 N   0  0  0  0  0  0  0  0  0  0  0  0
    9.0330  -16.9710   26.8607 C   0  0  0  0  0  0  0  0  0  0  0  0
    9.0814  -18.0916   26.0841 O   0  0  0  0  0  0  0  0  0  0  0  0
    8.8330  -17.0870   28.1126 O   0  0  0  0  0  0  0  0  0  0  0  0
  2  1  1  6
  3  2  1  0
  4  2  1  0
  4  6  1  0
  4  5  1  1
  6 10  1  0
  7  6  2  0
  9  8  1  1
 10  9  1  0
 11  9  1  0
 11 12  2  0
 14 15  1  1
 14 13  1  0
 16 14  1  0
 17 18  1  0
 17 16  1  6
 18 11  1  0
 19 17  1  0
 20 19  1  0
 21 19  2  0
M  END
$$$$
