TAL.pdb
     RDKit          3D

 21 20  0  0  1  0  0  0  0  0999 V2000
    4.6492  -19.4888   23.3660 C   0  0  0  0  0  0  0  0  0  0  0  0
    5.8108  -18.5006   23.3234 C   0  0  1  0  0  0  0  0  0  0  0  0
    6.7845  -19.0384   24.1783 O   0  0  0  0  0  0  0  0  0  0  0  0
    6.3354  -18.4001   21.9102 C   0  0  2  0  0  0  0  0  0  0  0  0
    6.8071  -19.7410   21.5370 N   0  0  0  0  0  0  0  0  0  0  0  0
    7.4708  -17.4346   21.8551 C   0  0  0  0  0  0  0  0  0  0  0  0
    8.6267  -17.8603   22.0379 O   0  0  0  0  0  0  0  0  0  0  0  0
    7.6707  -13.7968   20.9339 C   0  0  0  0  0  0  0  0  0  0  0  0
    8.2090  -15.0336   21.5607 C   0  0  2  0  0  0  0  0  0  0  0  0
    7.2298  -16.0799   21.6028 N   0  0  0  0  0  0  0  0  0  0  0  0
    8.8021  -14.7953   22.9228 C   0  0  0  0  0  0  0  0  0  0  0  0
    9.9063  -14.2032   22.9653 O   0  0  0  0  0  0  0  0  0  0  0  0
    8.0647  -11.8891   26.2526 C   0  0  0  0  0  0  0  0  0  0  0  0
    7.0662  -12.9996   26.1137 C   0  0  2  0  0  0  0  0  0  0  0  0
    5.7847  -12.7104   26.8782 C   0  0  0  0  0  0  0  0  0  0  0  0
    7.5884  -14.3639   26.3605 C   0  0  0  0  0  0  0  0  0  0  0  0
    8.6122  -14.8963   25.4362 C   0  0  2  0  0  0  0  0  0  0  0  0
    8.1522  -15.2132   24.1119 N   0  0  0  0  0  0  0  0  0  0  0  0
    9.1512  -16.1544   26.0893 C   0  0  0  0  0  0  0  0  0  0  0  0
    9.8185  -16.1595   27.2792 O   0  0  0  0  0  0  0  0  0  0  0  0
    8.9604  -17.2534   25.4757 O   0  0  0  0  0  0  0  0  0  0  0  0
  2  1  1  6
  3  2  1  0
  4  2  1  0
  4  6  1  0
  4  5  1  1
  6 10  1  0
  7  6  2  0
  9  8  1  1
 10  9  1  0
 11  9  1  0
 11 12  2  0
 14 15  1  1
 14 13  1  0
 16 14  1  0
 17 18  1  0
 17 16  1  1
 18 11  1  0
 19 17  1  0
 20 19  1  0
 21 19  2  0
M  END
$$$$
