TAL.pdb
     RDKit          3D

 21 20  0  0  1  0  0  0  0  0999 V2000
    5.2506  -17.7631   23.7440 C   0  0  0  0  0  0  0  0  0  0  0  0
    6.0024  -18.8549   22.9887 C   0  0  1  0  0  0  0  0  0  0  0  0
    5.1157  -19.9406   22.9299 O   0  0  0  0  0  0  0  0  0  0  0  0
    6.3420  -18.3650   21.6006 C   0  0  2  0  0  0  0  0  0  0  0  0
    6.8020  -19.5349   20.8391 N   0  0  0  0  0  0  0  0  0  0  0  0
    7.4328  -17.3504   21.6704 C   0  0  0  0  0  0  0  0  0  0  0  0
    8.5907  -17.7340   21.9214 O   0  0  0  0  0  0  0  0  0  0  0  0
    7.5370  -13.6992   20.8069 C   0  0  0  0  0  0  0  0  0  0  0  0
    8.0936  -14.9190   21.4510 C   0  0  2  0  0  0  0  0  0  0  0  0
    7.1488  -15.9974   21.4569 N   0  0  0  0  0  0  0  0  0  0  0  0
    8.6297  -14.6643   22.8335 C   0  0  0  0  0  0  0  0  0  0  0  0
    9.7109  -14.0351   22.9159 O   0  0  0  0  0  0  0  0  0  0  0  0
    5.7774  -12.4185   27.1091 C   0  0  0  0  0  0  0  0  0  0  0  0
    7.1051  -12.8660   26.5739 C   0  0  2  0  0  0  0  0  0  0  0  0
    7.6190  -11.9408   25.4829 C   0  0  0  0  0  0  0  0  0  0  0  0
    7.1961  -14.2979   26.2045 C   0  0  0  0  0  0  0  0  0  0  0  0
    8.3139  -14.7240   25.3356 C   0  0  2  0  0  0  0  0  0  0  0  0
    7.9528  -15.1074   23.9983 N   0  0  0  0  0  0  0  0  0  0  0  0
    8.9594  -15.9052   26.0340 C   0  0  0  0  0  0  0  0  0  0  0  0
    9.7605  -15.7860   27.1319 O   0  0  0  0  0  0  0  0  0  0  0  0
    8.7287  -17.0606   25.5518 O   0  0  0  0  0  0  0  0  0  0  0  0
  2  1  1  1
  3  2  1  0
  4  2  1  0
  4  6  1  0
  4  5  1  6
  6 10  1  0
  7  6  2  0
  9  8  1  1
 10  9  1  0
 11  9  1  0
 11 12  2  0
 14 15  1  6
 14 13  1  0
 16 14  1  0
 17 18  1  0
 17 16  1  1
 18 11  1  0
 19 17  1  0
 20 19  1  0
 21 19  2  0
M  END
$$$$
