TAL.pdb
     RDKit          3D

 21 20  0  0  1  0  0  0  0  0999 V2000
   10.0111  -12.7209   20.2828 C   0  0  0  0  0  0  0  0  0  0  0  0
    8.8799  -12.8652   19.2693 C   0  0  1  0  0  0  0  0  0  0  0  0
    9.3370  -12.2183   18.1114 O   0  0  0  0  0  0  0  0  0  0  0  0
    8.6281  -14.3303   19.0004 C   0  0  2  0  0  0  0  0  0  0  0  0
    7.5870  -14.3982   17.9652 N   0  0  0  0  0  0  0  0  0  0  0  0
    8.1465  -15.0015   20.2421 C   0  0  0  0  0  0  0  0  0  0  0  0
    6.9999  -14.7440   20.6544 O   0  0  0  0  0  0  0  0  0  0  0  0
    9.2152  -18.0009   22.0983 C   0  0  0  0  0  0  0  0  0  0  0  0
    8.6486  -16.6257   22.1145 C   0  0  2  0  0  0  0  0  0  0  0  0
    8.9753  -15.9001   20.9219 N   0  0  0  0  0  0  0  0  0  0  0  0
    9.0302  -15.8444   23.3424 C   0  0  0  0  0  0  0  0  0  0  0  0
   10.1523  -15.2855   23.3335 O   0  0  0  0  0  0  0  0  0  0  0  0
    7.9642  -11.9255   25.5161 C   0  0  0  0  0  0  0  0  0  0  0  0
    6.9167  -12.9928   25.6305 C   0  0  2  0  0  0  0  0  0  0  0  0
    5.6211  -12.4567   26.2171 C   0  0  0  0  0  0  0  0  0  0  0  0
    7.3575  -14.2561   26.2668 C   0  0  0  0  0  0  0  0  0  0  0  0
    8.4844  -14.9899   25.6523 C   0  0  2  0  0  0  0  0  0  0  0  0
    8.1695  -15.7348   24.4642 N   0  0  0  0  0  0  0  0  0  0  0  0
    8.9922  -15.9434   26.7166 C   0  0  0  0  0  0  0  0  0  0  0  0
    9.7326  -15.5477   27.7919 O   0  0  0  0  0  0  0  0  0  0  0  0
    8.7011  -17.1750   26.5781 O   0  0  0  0  0  0  0  0  0  0  0  0
  2  1  1  1
  3  2  1  0
  4  2  1  0
  4  6  1  0
  4  5  1  6
  6 10  1  0
  7  6  2  0
  9  8  1  6
 10  9  1  0
 11  9  1  0
 11 12  2  0
 14 15  1  1
 14 13  1  0
 16 14  1  0
 17 18  1  0
 17 16  1  1
 18 11  1  0
 19 17  1  0
 20 19  1  0
 21 19  2  0
M  END
$$$$
