TAL.pdb
     RDKit          3D

 21 20  0  0  1  0  0  0  0  0999 V2000
    9.6778  -12.9465   17.9118 C   0  0  0  0  0  0  0  0  0  0  0  0
    9.3357  -13.4036   19.3266 C   0  0  1  0  0  0  0  0  0  0  0  0
    9.0661  -12.2259   20.0399 O   0  0  0  0  0  0  0  0  0  0  0  0
    8.1179  -14.2966   19.2872 C   0  0  2  0  0  0  0  0  0  0  0  0
    7.0068  -13.4761   18.7853 N   0  0  0  0  0  0  0  0  0  0  0  0
    7.8004  -14.7871   20.6594 C   0  0  0  0  0  0  0  0  0  0  0  0
    7.0416  -14.1079   21.3762 O   0  0  0  0  0  0  0  0  0  0  0  0
    8.4534  -18.0719   22.3459 C   0  0  0  0  0  0  0  0  0  0  0  0
    8.0508  -16.6401   22.3624 C   0  0  2  0  0  0  0  0  0  0  0  0
    8.3504  -15.9875   21.1215 N   0  0  0  0  0  0  0  0  0  0  0  0
    8.6267  -15.8782   23.5249 C   0  0  0  0  0  0  0  0  0  0  0  0
    9.7986  -15.4511   23.3989 O   0  0  0  0  0  0  0  0  0  0  0  0
    7.8912  -11.9506   25.4901 C   0  0  0  0  0  0  0  0  0  0  0  0
    6.8949  -12.9642   25.9693 C   0  0  2  0  0  0  0  0  0  0  0  0
    5.7703  -12.3230   26.7657 C   0  0  0  0  0  0  0  0  0  0  0  0
    7.4665  -14.1566   26.6376 C   0  0  0  0  0  0  0  0  0  0  0  0
    8.4213  -14.9911   25.8775 C   0  0  2  0  0  0  0  0  0  0  0  0
    7.8889  -15.6444   24.7132 N   0  0  0  0  0  0  0  0  0  0  0  0
    8.9251  -16.0405   26.8494 C   0  0  0  0  0  0  0  0  0  0  0  0
    9.7204  -15.7559   27.9207 O   0  0  0  0  0  0  0  0  0  0  0  0
    8.5756  -17.2456   26.6339 O   0  0  0  0  0  0  0  0  0  0  0  0
  2  1  1  6
  3  2  1  0
  4  2  1  0
  4  6  1  0
  4  5  1  1
  6 10  1  0
  7  6  2  0
  9  8  1  6
 10  9  1  0
 11  9  1  0
 11 12  2  0
 14 15  1  1
 14 13  1  0
 16 14  1  0
 17 18  1  0
 17 16  1  1
 18 11  1  0
 19 17  1  0
 20 19  1  0
 21 19  2  0
M  END
$$$$
