TAL.pdb
     RDKit          3D

 21 20  0  0  1  0  0  0  0  0999 V2000
    5.0992  -19.8823   23.1105 C   0  0  0  0  0  0  0  0  0  0  0  0
    6.1443  -18.7711   23.1353 C   0  0  1  0  0  0  0  0  0  0  0  0
    7.1391  -19.2196   24.0170 O   0  0  0  0  0  0  0  0  0  0  0  0
    6.7070  -18.5773   21.7468 C   0  0  2  0  0  0  0  0  0  0  0  0
    7.3819  -19.8314   21.3842 N   0  0  0  0  0  0  0  0  0  0  0  0
    7.6928  -17.4581   21.7475 C   0  0  0  0  0  0  0  0  0  0  0  0
    8.8827  -17.7100   22.0151 O   0  0  0  0  0  0  0  0  0  0  0  0
    7.3611  -13.7953   20.9254 C   0  0  0  0  0  0  0  0  0  0  0  0
    8.1016  -14.9826   21.4298 C   0  0  2  0  0  0  0  0  0  0  0  0
    7.2773  -16.1554   21.4524 N   0  0  0  0  0  0  0  0  0  0  0  0
    8.7464  -14.7510   22.7693 C   0  0  0  0  0  0  0  0  0  0  0  0
    9.8940  -14.2464   22.7671 O   0  0  0  0  0  0  0  0  0  0  0  0
    7.3950  -11.7868   26.0687 C   0  0  0  0  0  0  0  0  0  0  0  0
    6.6853  -13.1038   25.9621 C   0  0  2  0  0  0  0  0  0  0  0  0
    5.3642  -13.0997   26.7136 C   0  0  0  0  0  0  0  0  0  0  0  0
    7.5096  -14.2999   26.2532 C   0  0  0  0  0  0  0  0  0  0  0  0
    8.5614  -14.6744   25.2840 C   0  0  2  0  0  0  0  0  0  0  0  0
    8.0970  -15.0812   23.9861 N   0  0  0  0  0  0  0  0  0  0  0  0
    9.3265  -15.8194   25.9192 C   0  0  0  0  0  0  0  0  0  0  0  0
    9.5181  -17.0263   25.3127 O   0  0  0  0  0  0  0  0  0  0  0  0
    9.8060  -15.6218   27.0819 O   0  0  0  0  0  0  0  0  0  0  0  0
  2  1  1  6
  3  2  1  0
  4  2  1  0
  4  6  1  0
  4  5  1  1
  6 10  1  0
  7  6  2  0
  9  8  1  1
 10  9  1  0
 11  9  1  0
 11 12  2  0
 14 15  1  1
 14 13  1  0
 16 14  1  0
 17 18  1  0
 17 16  1  1
 18 11  1  0
 19 17  1  0
 20 19  1  0
 21 19  2  0
M  END
$$$$
