TAL.pdb
     RDKit          3D

 21 20  0  0  1  0  0  0  0  0999 V2000
    9.0797  -12.4885   20.1984 C   0  0  0  0  0  0  0  0  0  0  0  0
    8.3897  -13.1184   18.9923 C   0  0  1  0  0  0  0  0  0  0  0  0
    8.9407  -12.4748   17.8740 O   0  0  0  0  0  0  0  0  0  0  0  0
    8.6866  -14.5992   18.9583 C   0  0  2  0  0  0  0  0  0  0  0  0
    8.0417  -15.1332   17.7505 N   0  0  0  0  0  0  0  0  0  0  0  0
    8.1166  -15.2617   20.1669 C   0  0  0  0  0  0  0  0  0  0  0  0
    6.8796  -15.3705   20.2613 O   0  0  0  0  0  0  0  0  0  0  0  0
    9.0118  -17.8393   22.3820 C   0  0  0  0  0  0  0  0  0  0  0  0
    8.5661  -16.4203   22.3695 C   0  0  2  0  0  0  0  0  0  0  0  0
    8.9644  -15.7467   21.1682 N   0  0  0  0  0  0  0  0  0  0  0  0
    9.0034  -15.6534   23.5879 C   0  0  0  0  0  0  0  0  0  0  0  0
   10.1826  -15.2280   23.5977 O   0  0  0  0  0  0  0  0  0  0  0  0
    7.7343  -11.7250   25.3942 C   0  0  0  0  0  0  0  0  0  0  0  0
    6.8025  -12.8254   25.8070 C   0  0  2  0  0  0  0  0  0  0  0  0
    5.5592  -12.2883   26.4967 C   0  0  0  0  0  0  0  0  0  0  0  0
    7.4271  -13.9508   26.5408 C   0  0  0  0  0  0  0  0  0  0  0  0
    8.5098  -14.7036   25.8721 C   0  0  2  0  0  0  0  0  0  0  0  0
    8.1321  -15.4132   24.6807 N   0  0  0  0  0  0  0  0  0  0  0  0
    9.0254  -15.6942   26.8981 C   0  0  0  0  0  0  0  0  0  0  0  0
    9.7092  -15.3294   28.0208 O   0  0  0  0  0  0  0  0  0  0  0  0
    8.7976  -16.9274   26.6788 O   0  0  0  0  0  0  0  0  0  0  0  0
  2  1  1  1
  3  2  1  0
  4  2  1  0
  4  6  1  0
  4  5  1  6
  6 10  1  0
  7  6  2  0
  9  8  1  1
 10  9  1  0
 11  9  1  0
 11 12  2  0
 14 15  1  1
 14 13  1  0
 16 14  1  0
 17 18  1  0
 17 16  1  1
 18 11  1  0
 19 17  1  0
 20 19  1  0
 21 19  2  0
M  END
$$$$
