NKP.pdb
     RDKit          3D

 25 25  0  0  1  0  0  0  0  0999 V2000
   12.8322  -15.4342   19.0311 N   0  0  0  0  0  0  0  0  0  0  0  0
   12.5979  -14.1531   19.5945 C   0  0  0  0  0  0  0  0  0  0  0  0
   13.4579  -13.2523   19.3251 O   0  0  0  0  0  0  0  0  0  0  0  0
   11.4149  -13.8511   20.4599 C   0  0  0  0  0  0  0  0  0  0  0  0
   10.6112  -15.1251   20.6119 C   0  0  2  0  0  0  0  0  0  0  0  0
    9.8732  -15.2921   19.3782 N   0  0  0  0  0  0  0  0  0  0  0  0
    9.6891  -15.0822   21.7485 C   0  0  0  0  0  0  0  0  0  0  0  0
    9.2774  -13.9596   22.1682 O   0  0  0  0  0  0  0  0  0  0  0  0
    9.2838  -16.2916   22.3462 N   0  0  0  0  0  0  0  0  0  0  0  0
    8.4279  -16.2747   23.5124 C   0  0  1  0  0  0  0  0  0  0  0  0
    8.0280  -17.7139   23.8575 C   0  0  0  0  0  0  0  0  0  0  0  0
    7.2649  -17.7604   25.1556 C   0  0  0  0  0  0  0  0  0  0  0  0
    6.9477  -19.1990   25.4724 C   0  0  0  0  0  0  0  0  0  0  0  0
    6.0789  -19.3732   26.6938 C   0  0  0  0  0  0  0  0  0  0  0  0
    5.6935  -20.7759   26.7638 N   0  0  0  0  0  0  0  0  0  0  0  0
    9.2242  -15.7762   24.6536 C   0  0  0  0  0  0  0  0  0  0  0  0
   10.4330  -16.0972   24.7269 O   0  0  0  0  0  0  0  0  0  0  0  0
    8.6700  -14.9576   25.6505 N   0  0  0  0  0  0  0  0  0  0  0  0
    7.3092  -14.4434   25.8124 C   0  0  0  0  0  0  0  0  0  0  0  0
    7.4715  -13.1578   26.5536 C   0  0  0  0  0  0  0  0  0  0  0  0
    8.9292  -13.0202   26.8147 C   0  0  0  0  0  0  0  0  0  0  0  0
    9.4494  -14.4382   26.7913 C   0  0  1  0  0  0  0  0  0  0  0  0
    9.1288  -15.1885   28.0233 C   0  0  0  0  0  0  0  0  0  0  0  0
    9.8723  -14.9040   29.1562 O   0  0  0  0  0  0  0  0  0  0  0  0
    8.2316  -16.0594   28.1028 O   0  0  0  0  0  0  0  0  0  0  0  0
  1  2  1  0
  2  3  2  0
  4  2  1  0
  5  4  1  0
  5  6  1  6
  7  5  1  0
  7  8  2  0
  9  7  1  0
 10  9  1  0
 10 11  1  1
 12 11  1  0
 13 12  1  0
 13 14  1  0
 14 15  1  0
 16 10  1  0
 17 16  2  0
 18 16  1  0
 18 19  1  0
 20 19  1  0
 21 20  1  0
 22 21  1  0
 22 18  1  0
 22 23  1  1
 24 23  1  0
 25 23  2  0
M  END
$$$$
