NKP.pdb
     RDKit          3D

 25 25  0  0  1  0  0  0  0  0999 V2000
    7.6454  -13.8788   16.9176 N   0  0  0  0  0  0  0  0  0  0  0  0
    8.2036  -13.4840   18.1610 C   0  0  0  0  0  0  0  0  0  0  0  0
    9.3958  -13.0357   18.1273 O   0  0  0  0  0  0  0  0  0  0  0  0
    7.4550  -13.5790   19.4534 C   0  0  0  0  0  0  0  0  0  0  0  0
    8.4003  -14.1297   20.5001 C   0  0  2  0  0  0  0  0  0  0  0  0
    8.8704  -15.4026   19.9966 N   0  0  0  0  0  0  0  0  0  0  0  0
    7.7600  -14.3094   21.8046 C   0  0  0  0  0  0  0  0  0  0  0  0
    7.1898  -13.3203   22.3545 O   0  0  0  0  0  0  0  0  0  0  0  0
    7.7952  -15.5787   22.4144 N   0  0  0  0  0  0  0  0  0  0  0  0
    7.2980  -15.7514   23.7620 C   0  0  1  0  0  0  0  0  0  0  0  0
    7.3950  -17.2332   24.1425 C   0  0  0  0  0  0  0  0  0  0  0  0
    7.0567  -17.4353   25.5965 C   0  0  0  0  0  0  0  0  0  0  0  0
    7.2011  -18.8995   25.9219 C   0  0  0  0  0  0  0  0  0  0  0  0
    6.7805  -19.2523   27.3275 C   0  0  0  0  0  0  0  0  0  0  0  0
    7.0231  -20.6760   27.5156 N   0  0  0  0  0  0  0  0  0  0  0  0
    8.2026  -15.0238   24.6771 C   0  0  0  0  0  0  0  0  0  0  0  0
    9.4390  -15.1170   24.4972 O   0  0  0  0  0  0  0  0  0  0  0  0
    7.7205  -14.2354   25.7339 N   0  0  0  0  0  0  0  0  0  0  0  0
    6.3494  -13.9229   26.1397 C   0  0  0  0  0  0  0  0  0  0  0  0
    6.4390  -12.5822   26.7903 C   0  0  0  0  0  0  0  0  0  0  0  0
    7.8786  -12.2099   26.7578 C   0  0  0  0  0  0  0  0  0  0  0  0
    8.6057  -13.5318   26.6825 C   0  0  1  0  0  0  0  0  0  0  0  0
    8.6454  -14.2406   27.9785 C   0  0  0  0  0  0  0  0  0  0  0  0
    7.8787  -15.3869   28.1034 O   0  0  0  0  0  0  0  0  0  0  0  0
    9.3259  -13.8689   28.9626 O   0  0  0  0  0  0  0  0  0  0  0  0
  1  2  1  0
  2  3  2  0
  4  2  1  0
  5  4  1  0
  5  6  1  6
  7  5  1  0
  7  8  2  0
  9  7  1  0
 10  9  1  0
 10 11  1  1
 12 11  1  0
 13 12  1  0
 13 14  1  0
 14 15  1  0
 16 10  1  0
 17 16  2  0
 18 16  1  0
 18 19  1  0
 20 19  1  0
 21 20  1  0
 22 21  1  0
 22 18  1  0
 22 23  1  1
 24 23  1  0
 25 23  2  0
M  END
$$$$
