NKP.pdb
     RDKit          3D

 25 25  0  0  1  0  0  0  0  0999 V2000
    6.9934  -13.4073   17.1406 N   0  0  0  0  0  0  0  0  0  0  0  0
    7.8018  -13.2449   18.2953 C   0  0  0  0  0  0  0  0  0  0  0  0
    9.0468  -13.0654   18.0919 O   0  0  0  0  0  0  0  0  0  0  0  0
    7.2479  -13.2786   19.6853 C   0  0  0  0  0  0  0  0  0  0  0  0
    8.1901  -14.0968   20.5427 C   0  0  2  0  0  0  0  0  0  0  0  0
    8.3260  -15.3809   19.8891 N   0  0  0  0  0  0  0  0  0  0  0  0
    7.7003  -14.2772   21.9107 C   0  0  0  0  0  0  0  0  0  0  0  0
    7.3123  -13.2648   22.5667 O   0  0  0  0  0  0  0  0  0  0  0  0
    7.6735  -15.5732   22.4620 N   0  0  0  0  0  0  0  0  0  0  0  0
    7.2513  -15.7717   23.8314 C   0  0  1  0  0  0  0  0  0  0  0  0
    7.2799  -17.2711   24.1489 C   0  0  0  0  0  0  0  0  0  0  0  0
    6.9674  -17.5161   25.6022 C   0  0  0  0  0  0  0  0  0  0  0  0
    7.1171  -18.9893   25.8815 C   0  0  0  0  0  0  0  0  0  0  0  0
    6.8998  -19.3568   27.3289 C   0  0  0  0  0  0  0  0  0  0  0  0
    6.8869  -20.8104   27.4171 N   0  0  0  0  0  0  0  0  0  0  0  0
    8.2543  -15.1376   24.7129 C   0  0  0  0  0  0  0  0  0  0  0  0
    9.4687  -15.2836   24.4414 O   0  0  0  0  0  0  0  0  0  0  0  0
    7.8888  -14.3803   25.8371 N   0  0  0  0  0  0  0  0  0  0  0  0
    6.5731  -14.1222   26.4241 C   0  0  0  0  0  0  0  0  0  0  0  0
    6.7020  -12.7875   27.0803 C   0  0  0  0  0  0  0  0  0  0  0  0
    8.1114  -12.3634   26.8660 C   0  0  0  0  0  0  0  0  0  0  0  0
    8.8667  -13.6574   26.6735 C   0  0  1  0  0  0  0  0  0  0  0  0
    9.1003  -14.3805   27.9408 C   0  0  0  0  0  0  0  0  0  0  0  0
   10.0547  -13.8669   28.8027 O   0  0  0  0  0  0  0  0  0  0  0  0
    8.4913  -15.4219   28.2788 O   0  0  0  0  0  0  0  0  0  0  0  0
  1  2  1  0
  2  3  2  0
  4  2  1  0
  5  4  1  0
  5  6  1  6
  7  5  1  0
  7  8  2  0
  9  7  1  0
 10  9  1  0
 10 11  1  1
 12 11  1  0
 13 12  1  0
 13 14  1  0
 14 15  1  0
 16 10  1  0
 17 16  2  0
 18 16  1  0
 18 19  1  0
 20 19  1  0
 21 20  1  0
 22 21  1  0
 22 18  1  0
 22 23  1  1
 24 23  1  0
 25 23  2  0
M  END
$$$$
