NKP.pdb
     RDKit          3D

 25 25  0  0  1  0  0  0  0  0999 V2000
    8.6927  -12.7155   17.6094 N   0  0  0  0  0  0  0  0  0  0  0  0
    8.0199  -13.8905   18.0336 C   0  0  0  0  0  0  0  0  0  0  0  0
    8.1214  -14.9056   17.2701 O   0  0  0  0  0  0  0  0  0  0  0  0
    7.2287  -13.9598   19.3020 C   0  0  0  0  0  0  0  0  0  0  0  0
    8.1780  -14.3222   20.4243 C   0  0  2  0  0  0  0  0  0  0  0  0
    8.6130  -15.6788   20.1692 N   0  0  0  0  0  0  0  0  0  0  0  0
    7.5543  -14.2334   21.7461 C   0  0  0  0  0  0  0  0  0  0  0  0
    6.9537  -13.1673   22.0756 O   0  0  0  0  0  0  0  0  0  0  0  0
    7.6387  -15.3370   22.6174 N   0  0  0  0  0  0  0  0  0  0  0  0
    7.0885  -15.2521   23.9528 C   0  0  1  0  0  0  0  0  0  0  0  0
    6.4731  -16.6060   24.3247 C   0  0  0  0  0  0  0  0  0  0  0  0
    7.4964  -17.7064   24.2165 C   0  0  0  0  0  0  0  0  0  0  0  0
    6.8406  -19.0083   24.5982 C   0  0  0  0  0  0  0  0  0  0  0  0
    7.7697  -20.1957   24.5371 C   0  0  0  0  0  0  0  0  0  0  0  0
    7.0078  -21.3719   24.9333 N   0  0  0  0  0  0  0  0  0  0  0  0
    8.2076  -15.0284   24.8922 C   0  0  0  0  0  0  0  0  0  0  0  0
    9.3294  -15.5121   24.6144 O   0  0  0  0  0  0  0  0  0  0  0  0
    8.0520  -14.2934   26.0782 N   0  0  0  0  0  0  0  0  0  0  0  0
    6.8534  -13.7210   26.6930 C   0  0  0  0  0  0  0  0  0  0  0  0
    7.3440  -12.5365   27.4578 C   0  0  0  0  0  0  0  0  0  0  0  0
    8.8194  -12.5145   27.2709 C   0  0  0  0  0  0  0  0  0  0  0  0
    9.1797  -13.9494   26.9661 C   0  0  1  0  0  0  0  0  0  0  0  0
    9.1760  -14.8105   28.1669 C   0  0  0  0  0  0  0  0  0  0  0  0
   10.2438  -14.6928   29.0406 O   0  0  0  0  0  0  0  0  0  0  0  0
    8.2716  -15.6338   28.4389 O   0  0  0  0  0  0  0  0  0  0  0  0
  1  2  1  0
  2  3  2  0
  4  2  1  0
  5  4  1  0
  5  6  1  6
  7  5  1  0
  7  8  2  0
  9  7  1  0
 10  9  1  0
 10 11  1  1
 12 11  1  0
 13 12  1  0
 13 14  1  0
 14 15  1  0
 16 10  1  0
 17 16  2  0
 18 16  1  0
 18 19  1  0
 20 19  1  0
 21 20  1  0
 22 21  1  0
 22 18  1  0
 22 23  1  1
 24 23  1  0
 25 23  2  0
M  END
$$$$
