NKP.pdb
     RDKit          3D

 25 25  0  0  1  0  0  0  0  0999 V2000
   13.2284  -18.3433   19.9929 N   0  0  0  0  0  0  0  0  0  0  0  0
   12.5133  -17.2762   19.3902 C   0  0  0  0  0  0  0  0  0  0  0  0
   12.5521  -17.2185   18.1179 O   0  0  0  0  0  0  0  0  0  0  0  0
   11.7486  -16.2622   20.1820 C   0  0  0  0  0  0  0  0  0  0  0  0
   10.2796  -16.6201   20.1026 C   0  0  2  0  0  0  0  0  0  0  0  0
    9.8561  -16.3104   18.7538 N   0  0  0  0  0  0  0  0  0  0  0  0
    9.4630  -15.8829   21.0688 C   0  0  0  0  0  0  0  0  0  0  0  0
    9.6289  -14.6325   21.1914 O   0  0  0  0  0  0  0  0  0  0  0  0
    8.5136  -16.5842   21.8376 N   0  0  0  0  0  0  0  0  0  0  0  0
    7.6945  -15.8798   22.7999 C   0  0  1  0  0  0  0  0  0  0  0  0
    6.5367  -16.7887   23.2282 C   0  0  0  0  0  0  0  0  0  0  0  0
    5.5142  -16.9069   22.1280 C   0  0  0  0  0  0  0  0  0  0  0  0
    4.4414  -17.8667   22.5735 C   0  0  0  0  0  0  0  0  0  0  0  0
    3.3120  -18.0151   21.5838 C   0  0  0  0  0  0  0  0  0  0  0  0
    2.3772  -18.9917   22.1254 N   0  0  0  0  0  0  0  0  0  0  0  0
    8.5126  -15.6460   24.0086 C   0  0  0  0  0  0  0  0  0  0  0  0
    9.5916  -16.2706   24.1323 O   0  0  0  0  0  0  0  0  0  0  0  0
    8.1198  -14.7492   25.0148 N   0  0  0  0  0  0  0  0  0  0  0  0
    6.8991  -13.9544   25.1579 C   0  0  0  0  0  0  0  0  0  0  0  0
    7.3145  -12.7524   25.9397 C   0  0  0  0  0  0  0  0  0  0  0  0
    8.7587  -12.9422   26.2405 C   0  0  0  0  0  0  0  0  0  0  0  0
    8.9585  -14.4386   26.1889 C   0  0  1  0  0  0  0  0  0  0  0  0
    8.4452  -15.1288   27.3904 C   0  0  0  0  0  0  0  0  0  0  0  0
    9.2092  -15.0580   28.5431 O   0  0  0  0  0  0  0  0  0  0  0  0
    7.3688  -15.7689   27.4276 O   0  0  0  0  0  0  0  0  0  0  0  0
  1  2  1  0
  2  3  2  0
  4  2  1  0
  5  4  1  0
  5  6  1  6
  7  5  1  0
  7  8  2  0
  9  7  1  0
 10  9  1  0
 10 11  1  1
 12 11  1  0
 13 12  1  0
 13 14  1  0
 14 15  1  0
 16 10  1  0
 17 16  2  0
 18 16  1  0
 18 19  1  0
 20 19  1  0
 21 20  1  0
 22 21  1  0
 22 18  1  0
 22 23  1  1
 24 23  1  0
 25 23  2  0
M  END
$$$$
