NKP.pdb
     RDKit          3D

 25 25  0  0  1  0  0  0  0  0999 V2000
    7.6650  -13.4643   16.7511 N   0  0  0  0  0  0  0  0  0  0  0  0
    8.3671  -13.3668   17.9803 C   0  0  0  0  0  0  0  0  0  0  0  0
    9.6366  -13.2912   17.9005 O   0  0  0  0  0  0  0  0  0  0  0  0
    7.6789  -13.3516   19.3092 C   0  0  0  0  0  0  0  0  0  0  0  0
    8.5438  -14.1137   20.2907 C   0  0  2  0  0  0  0  0  0  0  0  0
    8.7051  -15.4445   19.7451 N   0  0  0  0  0  0  0  0  0  0  0  0
    7.9545  -14.1860   21.6291 C   0  0  0  0  0  0  0  0  0  0  0  0
    7.6026  -13.1151   22.2080 O   0  0  0  0  0  0  0  0  0  0  0  0
    7.7944  -15.4458   22.2385 N   0  0  0  0  0  0  0  0  0  0  0  0
    7.2179  -15.5449   23.5617 C   0  0  1  0  0  0  0  0  0  0  0  0
    6.9956  -17.0238   23.8985 C   0  0  0  0  0  0  0  0  0  0  0  0
    5.9233  -17.6167   23.0221 C   0  0  0  0  0  0  0  0  0  0  0  0
    5.7812  -19.0778   23.3625 C   0  0  0  0  0  0  0  0  0  0  0  0
    4.8488  -19.8265   22.4423 C   0  0  0  0  0  0  0  0  0  0  0  0
    4.8444  -21.2217   22.8597 N   0  0  0  0  0  0  0  0  0  0  0  0
    8.2136  -15.0397   24.5304 C   0  0  0  0  0  0  0  0  0  0  0  0
    9.4304  -15.1942   24.2751 O   0  0  0  0  0  0  0  0  0  0  0  0
    7.8386  -14.3947   25.7196 N   0  0  0  0  0  0  0  0  0  0  0  0
    6.5143  -14.1497   26.2929 C   0  0  0  0  0  0  0  0  0  0  0  0
    6.6695  -12.9000   27.0946 C   0  0  0  0  0  0  0  0  0  0  0  0
    8.0997  -12.5114   26.9691 C   0  0  0  0  0  0  0  0  0  0  0  0
    8.8136  -13.8058   26.6583 C   0  0  1  0  0  0  0  0  0  0  0  0
    8.9787  -14.6705   27.8451 C   0  0  0  0  0  0  0  0  0  0  0  0
    8.2577  -15.8521   27.8798 O   0  0  0  0  0  0  0  0  0  0  0  0
    9.7261  -14.4000   28.8136 O   0  0  0  0  0  0  0  0  0  0  0  0
  1  2  1  0
  2  3  2  0
  4  2  1  0
  5  4  1  0
  5  6  1  6
  7  5  1  0
  7  8  2  0
  9  7  1  0
 10  9  1  0
 10 11  1  1
 12 11  1  0
 13 12  1  0
 13 14  1  0
 14 15  1  0
 16 10  1  0
 17 16  2  0
 18 16  1  0
 18 19  1  0
 20 19  1  0
 21 20  1  0
 22 21  1  0
 22 18  1  0
 22 23  1  1
 24 23  1  0
 25 23  2  0
M  END
$$$$
