NKP.pdb
     RDKit          3D

 25 25  0  0  1  0  0  0  0  0999 V2000
   11.0041  -14.9756   18.3650 N   0  0  0  0  0  0  0  0  0  0  0  0
   11.2263  -13.8606   19.2139 C   0  0  0  0  0  0  0  0  0  0  0  0
   12.4092  -13.3873   19.2258 O   0  0  0  0  0  0  0  0  0  0  0  0
   10.1487  -13.2558   20.0582 C   0  0  0  0  0  0  0  0  0  0  0  0
    8.9288  -14.1479   19.9663 C   0  0  2  0  0  0  0  0  0  0  0  0
    8.0577  -13.5481   18.9784 N   0  0  0  0  0  0  0  0  0  0  0  0
    8.2255  -14.2807   21.2437 C   0  0  0  0  0  0  0  0  0  0  0  0
    7.4393  -13.3589   21.6150 O   0  0  0  0  0  0  0  0  0  0  0  0
    8.4421  -15.4313   22.0269 N   0  0  0  0  0  0  0  0  0  0  0  0
    7.7610  -15.5866   23.2938 C   0  0  1  0  0  0  0  0  0  0  0  0
    7.7250  -17.0746   23.6607 C   0  0  0  0  0  0  0  0  0  0  0  0
    7.1620  -17.2709   25.0442 C   0  0  0  0  0  0  0  0  0  0  0  0
    7.1969  -18.7417   25.3703 C   0  0  0  0  0  0  0  0  0  0  0  0
    6.5240  -19.0892   26.6754 C   0  0  0  0  0  0  0  0  0  0  0  0
    6.4784  -20.5414   26.7745 N   0  0  0  0  0  0  0  0  0  0  0  0
    8.5742  -14.9187   24.3320 C   0  0  0  0  0  0  0  0  0  0  0  0
    9.8188  -14.8899   24.1921 O   0  0  0  0  0  0  0  0  0  0  0  0
    7.9967  -14.3183   25.4620 N   0  0  0  0  0  0  0  0  0  0  0  0
    6.6075  -14.2952   25.9223 C   0  0  0  0  0  0  0  0  0  0  0  0
    6.4772  -13.0168   26.6821 C   0  0  0  0  0  0  0  0  0  0  0  0
    7.8238  -12.3859   26.6502 C   0  0  0  0  0  0  0  0  0  0  0  0
    8.7744  -13.5421   26.4474 C   0  0  1  0  0  0  0  0  0  0  0  0
    8.9890  -14.3322   27.6775 C   0  0  0  0  0  0  0  0  0  0  0  0
    9.8416  -13.8066   28.6337 O   0  0  0  0  0  0  0  0  0  0  0  0
    8.4498  -15.4402   27.9047 O   0  0  0  0  0  0  0  0  0  0  0  0
  1  2  1  0
  2  3  2  0
  4  2  1  0
  5  4  1  0
  5  6  1  6
  7  5  1  0
  7  8  2  0
  9  7  1  0
 10  9  1  0
 10 11  1  1
 12 11  1  0
 13 12  1  0
 13 14  1  0
 14 15  1  0
 16 10  1  0
 17 16  2  0
 18 16  1  0
 18 19  1  0
 20 19  1  0
 21 20  1  0
 22 21  1  0
 22 18  1  0
 22 23  1  1
 24 23  1  0
 25 23  2  0
M  END
$$$$
