NKP.pdb
     RDKit          3D

 25 25  0  0  1  0  0  0  0  0999 V2000
   12.3220  -15.6834   17.9245 N   0  0  0  0  0  0  0  0  0  0  0  0
   11.3059  -16.4493   18.5525 C   0  0  0  0  0  0  0  0  0  0  0  0
   11.2736  -17.6896   18.2626 O   0  0  0  0  0  0  0  0  0  0  0  0
   10.3153  -15.8573   19.5054 C   0  0  0  0  0  0  0  0  0  0  0  0
   10.4998  -16.5319   20.8482 C   0  0  2  0  0  0  0  0  0  0  0  0
   10.0858  -17.9078   20.6744 N   0  0  0  0  0  0  0  0  0  0  0  0
    9.7170  -15.9009   21.9126 C   0  0  0  0  0  0  0  0  0  0  0  0
    9.8597  -14.6611   22.1327 O   0  0  0  0  0  0  0  0  0  0  0  0
    8.8248  -16.6899   22.6647 N   0  0  0  0  0  0  0  0  0  0  0  0
    8.0443  -16.0926   23.7263 C   0  0  1  0  0  0  0  0  0  0  0  0
    7.0428  -17.1278   24.2510 C   0  0  0  0  0  0  0  0  0  0  0  0
    5.9387  -17.3580   23.2523 C   0  0  0  0  0  0  0  0  0  0  0  0
    5.5688  -18.8186   23.2766 C   0  0  0  0  0  0  0  0  0  0  0  0
    4.3817  -19.1576   22.4090 C   0  0  0  0  0  0  0  0  0  0  0  0
    4.0857  -20.5707   22.6001 N   0  0  0  0  0  0  0  0  0  0  0  0
    8.9588  -15.7888   24.8472 C   0  0  0  0  0  0  0  0  0  0  0  0
   10.1000  -16.3059   24.8469 O   0  0  0  0  0  0  0  0  0  0  0  0
    8.5894  -14.9423   25.9045 N   0  0  0  0  0  0  0  0  0  0  0  0
    7.3104  -14.2974   26.2052 C   0  0  0  0  0  0  0  0  0  0  0  0
    7.6739  -13.0525   26.9447 C   0  0  0  0  0  0  0  0  0  0  0  0
    9.1563  -13.0690   27.0644 C   0  0  0  0  0  0  0  0  0  0  0  0
    9.5234  -14.5313   26.9709 C   0  0  1  0  0  0  0  0  0  0  0  0
    9.2466  -15.2742   28.2178 C   0  0  0  0  0  0  0  0  0  0  0  0
    8.2041  -16.1854   28.2005 O   0  0  0  0  0  0  0  0  0  0  0  0
    9.8939  -15.1297   29.2809 O   0  0  0  0  0  0  0  0  0  0  0  0
  1  2  1  0
  2  3  2  0
  4  2  1  0
  5  4  1  0
  5  6  1  6
  7  5  1  0
  7  8  2  0
  9  7  1  0
 10  9  1  0
 10 11  1  1
 12 11  1  0
 13 12  1  0
 13 14  1  0
 14 15  1  0
 16 10  1  0
 17 16  2  0
 18 16  1  0
 18 19  1  0
 20 19  1  0
 21 20  1  0
 22 21  1  0
 22 18  1  0
 22 23  1  1
 24 23  1  0
 25 23  2  0
M  END
$$$$
