NKP.pdb
     RDKit          3D

 25 25  0  0  1  0  0  0  0  0999 V2000
    8.7462  -12.4860   17.7951 N   0  0  0  0  0  0  0  0  0  0  0  0
    8.3322  -13.7802   18.2038 C   0  0  0  0  0  0  0  0  0  0  0  0
    8.6807  -14.7479   17.4517 O   0  0  0  0  0  0  0  0  0  0  0  0
    7.5305  -14.0220   19.4443 C   0  0  0  0  0  0  0  0  0  0  0  0
    8.4927  -14.3670   20.5612 C   0  0  2  0  0  0  0  0  0  0  0  0
    9.1169  -15.6190   20.1903 N   0  0  0  0  0  0  0  0  0  0  0  0
    7.8301  -14.4999   21.8601 C   0  0  0  0  0  0  0  0  0  0  0  0
    7.1499  -13.5294   22.3089 O   0  0  0  0  0  0  0  0  0  0  0  0
    7.9667  -15.7045   22.5773 N   0  0  0  0  0  0  0  0  0  0  0  0
    7.4615  -15.8066   23.9291 C   0  0  1  0  0  0  0  0  0  0  0  0
    7.2767  -17.2871   24.2811 C   0  0  0  0  0  0  0  0  0  0  0  0
    6.1754  -17.8997   23.4556 C   0  0  0  0  0  0  0  0  0  0  0  0
    6.1496  -19.3832   23.7186 C   0  0  0  0  0  0  0  0  0  0  0  0
    5.1080  -20.1230   22.9155 C   0  0  0  0  0  0  0  0  0  0  0  0
    5.6963  -20.4466   21.6232 N   0  0  0  0  0  0  0  0  0  0  0  0
    8.4998  -15.2851   24.8430 C   0  0  0  0  0  0  0  0  0  0  0  0
    9.7033  -15.4939   24.5644 O   0  0  0  0  0  0  0  0  0  0  0  0
    8.1794  -14.5662   26.0055 N   0  0  0  0  0  0  0  0  0  0  0  0
    6.8807  -14.2549   26.6045 C   0  0  0  0  0  0  0  0  0  0  0  0
    7.0927  -12.9678   27.3305 C   0  0  0  0  0  0  0  0  0  0  0  0
    8.5275  -12.6252   27.1400 C   0  0  0  0  0  0  0  0  0  0  0  0
    9.1984  -13.9533   26.8797 C   0  0  1  0  0  0  0  0  0  0  0  0
    9.3797  -14.7559   28.1071 C   0  0  0  0  0  0  0  0  0  0  0  0
    8.5912  -15.8846   28.2546 O   0  0  0  0  0  0  0  0  0  0  0  0
   10.1976  -14.4780   29.0146 O   0  0  0  0  0  0  0  0  0  0  0  0
  1  2  1  0
  2  3  2  0
  4  2  1  0
  5  4  1  0
  5  6  1  6
  7  5  1  0
  7  8  2  0
  9  7  1  0
 10  9  1  0
 10 11  1  1
 12 11  1  0
 13 12  1  0
 13 14  1  0
 14 15  1  0
 16 10  1  0
 17 16  2  0
 18 16  1  0
 18 19  1  0
 20 19  1  0
 21 20  1  0
 22 21  1  0
 22 18  1  0
 22 23  1  1
 24 23  1  0
 25 23  2  0
M  END
$$$$
