NKP.pdb
     RDKit          3D

 25 25  0  0  1  0  0  0  0  0999 V2000
   13.6259  -19.2685   19.7778 N   0  0  0  0  0  0  0  0  0  0  0  0
   12.6154  -19.1958   20.7712 C   0  0  0  0  0  0  0  0  0  0  0  0
   11.7341  -20.1157   20.7479 O   0  0  0  0  0  0  0  0  0  0  0  0
   12.5650  -18.1099   21.7998 C   0  0  0  0  0  0  0  0  0  0  0  0
   11.3234  -17.2823   21.5433 C   0  0  2  0  0  0  0  0  0  0  0  0
   11.5242  -16.6294   20.2673 N   0  0  0  0  0  0  0  0  0  0  0  0
   11.0810  -16.2845   22.5871 C   0  0  0  0  0  0  0  0  0  0  0  0
   12.0205  -15.5050   22.9269 O   0  0  0  0  0  0  0  0  0  0  0  0
    9.8081  -16.2177   23.1866 N   0  0  0  0  0  0  0  0  0  0  0  0
    9.5732  -15.3178   24.2948 C   0  0  1  0  0  0  0  0  0  0  0  0
    8.0675  -15.0554   24.4126 C   0  0  0  0  0  0  0  0  0  0  0  0
    7.7594  -14.2551   25.6513 C   0  0  0  0  0  0  0  0  0  0  0  0
    6.2728  -14.0153   25.7080 C   0  0  0  0  0  0  0  0  0  0  0  0
    5.8485  -13.1032   26.8328 C   0  0  0  0  0  0  0  0  0  0  0  0
    5.4725  -11.8248   26.2452 N   0  0  0  0  0  0  0  0  0  0  0  0
    9.9760  -16.0111   25.5367 C   0  0  0  0  0  0  0  0  0  0  0  0
   10.2306  -17.2367   25.4834 O   0  0  0  0  0  0  0  0  0  0  0  0
   10.0825  -15.3410   26.7657 N   0  0  0  0  0  0  0  0  0  0  0  0
    9.4898  -14.0812   27.2174 C   0  0  0  0  0  0  0  0  0  0  0  0
   10.4509  -13.5464   28.2269 C   0  0  0  0  0  0  0  0  0  0  0  0
   11.5366  -14.5577   28.3303 C   0  0  0  0  0  0  0  0  0  0  0  0
   10.8877  -15.8498   27.8932 C   0  0  1  0  0  0  0  0  0  0  0  0
   10.0146  -16.4347   28.9319 C   0  0  0  0  0  0  0  0  0  0  0  0
    8.6505  -16.4353   28.6938 O   0  0  0  0  0  0  0  0  0  0  0  0
   10.4319  -16.9261   30.0063 O   0  0  0  0  0  0  0  0  0  0  0  0
  1  2  1  0
  2  3  2  0
  4  2  1  0
  5  4  1  0
  5  6  1  6
  7  5  1  0
  7  8  2  0
  9  7  1  0
 10  9  1  0
 10 11  1  1
 12 11  1  0
 13 12  1  0
 13 14  1  0
 14 15  1  0
 16 10  1  0
 17 16  2  0
 18 16  1  0
 18 19  1  0
 20 19  1  0
 21 20  1  0
 22 21  1  0
 22 18  1  0
 22 23  1  1
 24 23  1  0
 25 23  2  0
M  END
$$$$
