NKP.pdb
     RDKit          3D

 25 25  0  0  1  0  0  0  0  0999 V2000
    7.9671  -12.7326   17.4015 N   0  0  0  0  0  0  0  0  0  0  0  0
    8.5030  -13.3739   18.5481 C   0  0  0  0  0  0  0  0  0  0  0  0
    9.6176  -13.9712   18.3914 O   0  0  0  0  0  0  0  0  0  0  0  0
    7.8174  -13.3643   19.8783 C   0  0  0  0  0  0  0  0  0  0  0  0
    7.8353  -14.7772   20.4222 C   0  0  2  0  0  0  0  0  0  0  0  0
    7.0355  -15.5737   19.5163 N   0  0  0  0  0  0  0  0  0  0  0  0
    7.2986  -14.8689   21.7814 C   0  0  0  0  0  0  0  0  0  0  0  0
    6.2207  -14.2647   22.0622 O   0  0  0  0  0  0  0  0  0  0  0  0
    7.9959  -15.6272   22.7421 N   0  0  0  0  0  0  0  0  0  0  0  0
    7.4664  -15.7676   24.0810 C   0  0  1  0  0  0  0  0  0  0  0  0
    7.4956  -17.2487   24.4753 C   0  0  0  0  0  0  0  0  0  0  0  0
    6.5713  -18.0537   23.5995 C   0  0  0  0  0  0  0  0  0  0  0  0
    6.5762  -19.4807   24.0835 C   0  0  0  0  0  0  0  0  0  0  0  0
    5.6940  -20.3985   23.2735 C   0  0  0  0  0  0  0  0  0  0  0  0
    5.7205  -21.7088   23.9086 N   0  0  0  0  0  0  0  0  0  0  0  0
    8.3822  -15.0692   25.0077 C   0  0  0  0  0  0  0  0  0  0  0  0
    9.5975  -15.0009   24.7113 O   0  0  0  0  0  0  0  0  0  0  0  0
    7.9331  -14.4827   26.2015 N   0  0  0  0  0  0  0  0  0  0  0  0
    6.6207  -14.5257   26.8483 C   0  0  0  0  0  0  0  0  0  0  0  0
    6.5266  -13.2443   27.6085 C   0  0  0  0  0  0  0  0  0  0  0  0
    7.8198  -12.5440   27.3866 C   0  0  0  0  0  0  0  0  0  0  0  0
    8.7951  -13.6516   27.0644 C   0  0  1  0  0  0  0  0  0  0  0  0
    9.2186  -14.4103   28.2596 C   0  0  0  0  0  0  0  0  0  0  0  0
    8.7911  -15.7229   28.3676 O   0  0  0  0  0  0  0  0  0  0  0  0
    9.9355  -13.9402   29.1733 O   0  0  0  0  0  0  0  0  0  0  0  0
  1  2  1  0
  2  3  2  0
  4  2  1  0
  5  4  1  0
  5  6  1  6
  7  5  1  0
  7  8  2  0
  9  7  1  0
 10  9  1  0
 10 11  1  1
 12 11  1  0
 13 12  1  0
 13 14  1  0
 14 15  1  0
 16 10  1  0
 17 16  2  0
 18 16  1  0
 18 19  1  0
 20 19  1  0
 21 20  1  0
 22 21  1  0
 22 18  1  0
 22 23  1  1
 24 23  1  0
 25 23  2  0
M  END
$$$$
