NKP.pdb
     RDKit          3D

 25 25  0  0  1  0  0  0  0  0999 V2000
    7.3340  -13.3844   17.1033 N   0  0  0  0  0  0  0  0  0  0  0  0
    8.1565  -13.3288   18.2582 C   0  0  0  0  0  0  0  0  0  0  0  0
    9.4134  -13.3954   18.0596 O   0  0  0  0  0  0  0  0  0  0  0  0
    7.6037  -13.1994   19.6429 C   0  0  0  0  0  0  0  0  0  0  0  0
    8.4564  -14.0439   20.5660 C   0  0  2  0  0  0  0  0  0  0  0  0
    8.6088  -15.3295   19.9189 N   0  0  0  0  0  0  0  0  0  0  0  0
    7.8592  -14.2149   21.8919 C   0  0  0  0  0  0  0  0  0  0  0  0
    7.5395  -13.1884   22.5627 O   0  0  0  0  0  0  0  0  0  0  0  0
    7.6559  -15.5178   22.3872 N   0  0  0  0  0  0  0  0  0  0  0  0
    7.2179  -15.7162   23.7517 C   0  0  1  0  0  0  0  0  0  0  0  0
    7.2486  -17.2151   24.0715 C   0  0  0  0  0  0  0  0  0  0  0  0
    6.9878  -17.4551   25.5357 C   0  0  0  0  0  0  0  0  0  0  0  0
    7.0769  -18.9358   25.8009 C   0  0  0  0  0  0  0  0  0  0  0  0
    6.8081  -19.3115   27.2374 C   0  0  0  0  0  0  0  0  0  0  0  0
    6.9321  -20.7585   27.3448 N   0  0  0  0  0  0  0  0  0  0  0  0
    8.2077  -15.0771   24.6444 C   0  0  0  0  0  0  0  0  0  0  0  0
    9.4260  -15.2629   24.4192 O   0  0  0  0  0  0  0  0  0  0  0  0
    7.8254  -14.2719   25.7291 N   0  0  0  0  0  0  0  0  0  0  0  0
    6.4973  -13.8680   26.1932 C   0  0  0  0  0  0  0  0  0  0  0  0
    6.7088  -12.5470   26.8557 C   0  0  0  0  0  0  0  0  0  0  0  0
    8.1692  -12.2783   26.7700 C   0  0  0  0  0  0  0  0  0  0  0  0
    8.7955  -13.6477   26.6498 C   0  0  1  0  0  0  0  0  0  0  0  0
    8.8346  -14.3766   27.9345 C   0  0  0  0  0  0  0  0  0  0  0  0
    7.9971  -15.4704   28.0741 O   0  0  0  0  0  0  0  0  0  0  0  0
    9.5744  -14.0662   28.8969 O   0  0  0  0  0  0  0  0  0  0  0  0
  1  2  1  0
  2  3  2  0
  4  2  1  0
  5  4  1  0
  5  6  1  6
  7  5  1  0
  7  8  2  0
  9  7  1  0
 10  9  1  0
 10 11  1  1
 12 11  1  0
 13 12  1  0
 13 14  1  0
 14 15  1  0
 16 10  1  0
 17 16  2  0
 18 16  1  0
 18 19  1  0
 20 19  1  0
 21 20  1  0
 22 21  1  0
 22 18  1  0
 22 23  1  1
 24 23  1  0
 25 23  2  0
M  END
$$$$
