PSL.pdb
     RDKit          3D

 22 22  0  0  1  0  0  0  0  0999 V2000
    9.0658  -14.8519   18.3452 N   0  0  0  0  0  0  0  0  0  0  0  0
    9.2122  -14.0351   17.1339 C   0  0  0  0  0  0  0  0  0  0  0  0
    7.9949  -13.1417   17.1478 C   0  0  0  0  0  0  0  0  0  0  0  0
    7.4027  -13.2811   18.5503 C   0  0  0  0  0  0  0  0  0  0  0  0
    8.6020  -13.8779   19.2910 C   0  0  1  0  0  0  0  0  0  0  0  0
    8.1066  -14.4885   20.5426 C   0  0  0  0  0  0  0  0  0  0  0  0
    7.6447  -13.6943   21.4169 O   0  0  0  0  0  0  0  0  0  0  0  0
    9.0315  -18.3740   22.1569 O   0  0  0  0  0  0  0  0  0  0  0  0
    7.7365  -17.8871   22.1542 C   0  0  0  0  0  0  0  0  0  0  0  0
    7.6815  -16.3724   22.0695 C   0  0  2  0  0  0  0  0  0  0  0  0
    8.1234  -15.8823   20.8039 N   0  0  0  0  0  0  0  0  0  0  0  0
    8.3735  -15.7549   23.2169 C   0  0  0  0  0  0  0  0  0  0  0  0
    9.5023  -15.2611   23.0449 O   0  0  0  0  0  0  0  0  0  0  0  0
    5.8679  -12.1559   27.1763 C   0  0  0  0  0  0  0  0  0  0  0  0
    7.2044  -12.8783   26.9215 C   0  0  2  0  0  0  0  0  0  0  0  0
    8.2521  -11.8446   26.7997 C   0  0  0  0  0  0  0  0  0  0  0  0
    7.0150  -13.8021   25.7984 C   0  0  0  0  0  0  0  0  0  0  0  0
    8.1074  -14.7775   25.5235 C   0  0  2  0  0  0  0  0  0  0  0  0
    7.7911  -15.7143   24.4813 N   0  0  0  0  0  0  0  0  0  0  0  0
    8.5049  -15.5552   26.7157 C   0  0  0  0  0  0  0  0  0  0  0  0
    9.2982  -15.0560   27.5471 O   0  0  0  0  0  0  0  0  0  0  0  0
    8.0302  -16.8265   26.9531 O   0  0  0  0  0  0  0  0  0  0  0  0
  2  1  1  0
  3  4  1  0
  3  2  1  0
  4  5  1  0
  5  1  1  0
  5  6  1  1
  7  6  2  0
  8  9  1  0
 10  9  1  6
 10 11  1  0
 10 12  1  0
 11  6  1  0
 12 19  1  0
 13 12  2  0
 15 14  1  6
 16 15  1  0
 17 15  1  0
 18 17  1  1
 19 18  1  0
 20 18  1  0
 20 22  1  0
 21 20  2  0
M  END
$$$$
