PSL.pdb
     RDKit          3D

 22 22  0  0  1  0  0  0  0  0999 V2000
    7.5045  -14.7447   18.2952 N   0  0  0  0  0  0  0  0  0  0  0  0
    7.6868  -13.6513   17.3322 C   0  0  0  0  0  0  0  0  0  0  0  0
    7.8857  -12.4315   18.1998 C   0  0  0  0  0  0  0  0  0  0  0  0
    8.1354  -12.9694   19.6089 C   0  0  0  0  0  0  0  0  0  0  0  0
    8.4932  -14.4217   19.2832 C   0  0  1  0  0  0  0  0  0  0  0  0
    8.3442  -15.2161   20.5208 C   0  0  0  0  0  0  0  0  0  0  0  0
    7.1725  -15.3086   20.9976 O   0  0  0  0  0  0  0  0  0  0  0  0
   11.3867  -17.4716   22.7606 O   0  0  0  0  0  0  0  0  0  0  0  0
   10.0351  -17.7363   22.6303 C   0  0  0  0  0  0  0  0  0  0  0  0
    9.2071  -16.4765   22.4516 C   0  0  2  0  0  0  0  0  0  0  0  0
    9.4204  -15.8615   21.1813 N   0  0  0  0  0  0  0  0  0  0  0  0
    9.3918  -15.5582   23.5914 C   0  0  0  0  0  0  0  0  0  0  0  0
    9.8008  -14.4035   23.3745 O   0  0  0  0  0  0  0  0  0  0  0  0
    5.7780  -12.7300   26.3608 C   0  0  0  0  0  0  0  0  0  0  0  0
    7.1168  -13.3579   26.7927 C   0  0  2  0  0  0  0  0  0  0  0  0
    8.0132  -12.2570   27.1995 C   0  0  0  0  0  0  0  0  0  0  0  0
    7.5667  -14.2516   25.7206 C   0  0  0  0  0  0  0  0  0  0  0  0
    8.7715  -15.0869   25.9872 C   0  0  2  0  0  0  0  0  0  0  0  0
    9.1190  -15.9565   24.8977 N   0  0  0  0  0  0  0  0  0  0  0  0
    8.6425  -15.9219   27.1997 C   0  0  0  0  0  0  0  0  0  0  0  0
    9.1822  -15.5530   28.2685 O   0  0  0  0  0  0  0  0  0  0  0  0
    7.9412  -17.1077   27.2016 O   0  0  0  0  0  0  0  0  0  0  0  0
  2  1  1  0
  3  4  1  0
  3  2  1  0
  4  5  1  0
  5  1  1  0
  5  6  1  1
  7  6  2  0
  8  9  1  0
 10  9  1  1
 10 11  1  0
 10 12  1  0
 11  6  1  0
 12 19  1  0
 13 12  2  0
 15 14  1  6
 16 15  1  0
 17 15  1  0
 18 17  1  6
 19 18  1  0
 20 18  1  0
 20 22  1  0
 21 20  2  0
M  END
$$$$
