PSL.pdb
     RDKit          3D

 22 22  0  0  1  0  0  0  0  0999 V2000
    8.4205  -17.3825   19.8322 N   0  0  0  0  0  0  0  0  0  0  0  0
    8.4759  -17.1094   18.3906 C   0  0  0  0  0  0  0  0  0  0  0  0
    8.0453  -15.6666   18.2765 C   0  0  0  0  0  0  0  0  0  0  0  0
    8.0926  -15.1130   19.7008 C   0  0  0  0  0  0  0  0  0  0  0  0
    8.9700  -16.1723   20.3725 C   0  0  1  0  0  0  0  0  0  0  0  0
    8.7795  -16.0617   21.8341 C   0  0  0  0  0  0  0  0  0  0  0  0
    9.2980  -15.0512   22.3987 O   0  0  0  0  0  0  0  0  0  0  0  0
    7.2208  -19.0268   24.6103 O   0  0  0  0  0  0  0  0  0  0  0  0
    6.8316  -17.6993   24.6112 C   0  0  0  0  0  0  0  0  0  0  0  0
    7.8813  -16.7819   24.0103 C   0  0  2  0  0  0  0  0  0  0  0  0
    8.0637  -17.0066   22.6126 N   0  0  0  0  0  0  0  0  0  0  0  0
    9.1349  -16.8359   24.7863 C   0  0  0  0  0  0  0  0  0  0  0  0
   10.1292  -17.3921   24.2866 O   0  0  0  0  0  0  0  0  0  0  0  0
    8.5384  -13.6343   27.3337 C   0  0  0  0  0  0  0  0  0  0  0  0
    9.4817  -14.3643   28.3086 C   0  0  2  0  0  0  0  0  0  0  0  0
    9.7804  -13.4355   29.4173 C   0  0  0  0  0  0  0  0  0  0  0  0
   10.6078  -14.8995   27.5366 C   0  0  0  0  0  0  0  0  0  0  0  0
   10.4132  -16.2163   26.8669 C   0  0  2  0  0  0  0  0  0  0  0  0
    9.2264  -16.2796   26.0598 N   0  0  0  0  0  0  0  0  0  0  0  0
   10.3677  -17.3489   27.8152 C   0  0  0  0  0  0  0  0  0  0  0  0
    9.3122  -18.0123   27.9405 O   0  0  0  0  0  0  0  0  0  0  0  0
   11.4563  -17.7101   28.5782 O   0  0  0  0  0  0  0  0  0  0  0  0
  2  1  1  0
  3  4  1  0
  3  2  1  0
  4  5  1  0
  5  1  1  0
  5  6  1  1
  7  6  2  0
  8  9  1  0
 10  9  1  1
 10 11  1  0
 10 12  1  0
 11  6  1  0
 12 19  1  0
 13 12  2  0
 15 14  1  6
 16 15  1  0
 17 15  1  0
 18 17  1  1
 19 18  1  0
 20 18  1  0
 20 22  1  0
 21 20  2  0
M  END
$$$$
