PSL.pdb
     RDKit          3D

 22 22  0  0  1  0  0  0  0  0999 V2000
    7.8330  -14.9542   18.1506 N   0  0  0  0  0  0  0  0  0  0  0  0
    8.2037  -13.9433   17.1523 C   0  0  0  0  0  0  0  0  0  0  0  0
    8.1234  -12.6386   17.9083 C   0  0  0  0  0  0  0  0  0  0  0  0
    8.0335  -13.0271   19.3841 C   0  0  0  0  0  0  0  0  0  0  0  0
    8.5255  -14.4748   19.3120 C   0  0  1  0  0  0  0  0  0  0  0  0
    8.1046  -15.1613   20.5514 C   0  0  0  0  0  0  0  0  0  0  0  0
    6.8661  -15.4074   20.6708 O   0  0  0  0  0  0  0  0  0  0  0  0
   10.0980  -17.8645   22.9522 O   0  0  0  0  0  0  0  0  0  0  0  0
    8.7479  -17.5630   22.9504 C   0  0  0  0  0  0  0  0  0  0  0  0
    8.4812  -16.0755   22.8062 C   0  0  2  0  0  0  0  0  0  0  0  0
    8.9964  -15.5468   21.5845 N   0  0  0  0  0  0  0  0  0  0  0  0
    8.9304  -15.3409   24.0042 C   0  0  0  0  0  0  0  0  0  0  0  0
   10.0850  -14.8784   24.0295 O   0  0  0  0  0  0  0  0  0  0  0  0
    7.9146  -11.5454   25.8825 C   0  0  0  0  0  0  0  0  0  0  0  0
    6.8289  -12.6226   26.0670 C   0  0  2  0  0  0  0  0  0  0  0  0
    5.5980  -11.9406   26.5151 C   0  0  0  0  0  0  0  0  0  0  0  0
    7.3790  -13.6810   26.9199 C   0  0  0  0  0  0  0  0  0  0  0  0
    8.4566  -14.5333   26.3430 C   0  0  2  0  0  0  0  0  0  0  0  0
    8.0920  -15.1562   25.1009 N   0  0  0  0  0  0  0  0  0  0  0  0
    8.9068  -15.6004   27.2609 C   0  0  0  0  0  0  0  0  0  0  0  0
    9.4157  -15.2967   28.3649 O   0  0  0  0  0  0  0  0  0  0  0  0
    8.7871  -16.9363   26.9466 O   0  0  0  0  0  0  0  0  0  0  0  0
  2  1  1  0
  3  4  1  0
  3  2  1  0
  4  5  1  0
  5  1  1  0
  5  6  1  1
  7  6  2  0
  8  9  1  0
 10  9  1  1
 10 11  1  0
 10 12  1  0
 11  6  1  0
 12 19  1  0
 13 12  2  0
 15 14  1  1
 16 15  1  0
 17 15  1  0
 18 17  1  1
 19 18  1  0
 20 18  1  0
 20 22  1  0
 21 20  2  0
M  END
$$$$
