PSL.pdb
     RDKit          3D

 22 22  0  0  1  0  0  0  0  0999 V2000
    7.7550  -14.8308   18.4184 N   0  0  0  0  0  0  0  0  0  0  0  0
    8.0394  -13.8036   17.4085 C   0  0  0  0  0  0  0  0  0  0  0  0
    7.9332  -12.5044   18.1707 C   0  0  0  0  0  0  0  0  0  0  0  0
    7.9215  -12.8979   19.6479 C   0  0  0  0  0  0  0  0  0  0  0  0
    8.4732  -14.3226   19.5515 C   0  0  1  0  0  0  0  0  0  0  0  0
    8.1344  -15.0282   20.8054 C   0  0  0  0  0  0  0  0  0  0  0  0
    6.9002  -15.1848   21.0522 O   0  0  0  0  0  0  0  0  0  0  0  0
   10.4494  -17.7269   23.0216 O   0  0  0  0  0  0  0  0  0  0  0  0
    9.0804  -17.5447   23.1016 C   0  0  0  0  0  0  0  0  0  0  0  0
    8.6751  -16.0885   22.9605 C   0  0  2  0  0  0  0  0  0  0  0  0
    9.0984  -15.5242   21.7196 N   0  0  0  0  0  0  0  0  0  0  0  0
    9.0963  -15.3076   24.1392 C   0  0  0  0  0  0  0  0  0  0  0  0
   10.2293  -14.7939   24.1480 O   0  0  0  0  0  0  0  0  0  0  0  0
    7.9002  -11.5926   25.8993 C   0  0  0  0  0  0  0  0  0  0  0  0
    6.8559  -12.6832   26.2044 C   0  0  2  0  0  0  0  0  0  0  0  0
    5.6434  -12.0084   26.7098 C   0  0  0  0  0  0  0  0  0  0  0  0
    7.4891  -13.6925   27.0593 C   0  0  0  0  0  0  0  0  0  0  0  0
    8.6035  -14.4866   26.4694 C   0  0  2  0  0  0  0  0  0  0  0  0
    8.2553  -15.1354   25.2358 N   0  0  0  0  0  0  0  0  0  0  0  0
    9.1265  -15.5221   27.3849 C   0  0  0  0  0  0  0  0  0  0  0  0
    8.9034  -16.7319   27.1470 O   0  0  0  0  0  0  0  0  0  0  0  0
    9.8612  -15.2055   28.5064 O   0  0  0  0  0  0  0  0  0  0  0  0
  2  1  1  0
  3  4  1  0
  3  2  1  0
  4  5  1  0
  5  1  1  0
  5  6  1  1
  7  6  2  0
  8  9  1  0
 10  9  1  1
 10 11  1  0
 10 12  1  0
 11  6  1  0
 12 19  1  0
 13 12  2  0
 15 14  1  1
 16 15  1  0
 17 15  1  0
 18 17  1  1
 19 18  1  0
 20 18  1  0
 20 22  1  0
 21 20  2  0
M  END
$$$$
