PSL.pdb
     RDKit          3D

 22 22  0  0  1  0  0  0  0  0999 V2000
    7.6961  -14.9819   18.0223 N   0  0  0  0  0  0  0  0  0  0  0  0
    8.0728  -14.0150   16.9834 C   0  0  0  0  0  0  0  0  0  0  0  0
    8.2374  -12.7168   17.7369 C   0  0  0  0  0  0  0  0  0  0  0  0
    8.2670  -13.1042   19.2154 C   0  0  0  0  0  0  0  0  0  0  0  0
    8.5679  -14.6003   19.0959 C   0  0  1  0  0  0  0  0  0  0  0  0
    8.2083  -15.2412   20.3783 C   0  0  0  0  0  0  0  0  0  0  0  0
    7.0062  -15.1092   20.7609 O   0  0  0  0  0  0  0  0  0  0  0  0
   10.6989  -17.7427   22.9357 O   0  0  0  0  0  0  0  0  0  0  0  0
    9.3228  -17.7953   22.8041 C   0  0  0  0  0  0  0  0  0  0  0  0
    8.7158  -16.4460   22.4646 C   0  0  2  0  0  0  0  0  0  0  0  0
    9.1195  -15.9764   21.1785 N   0  0  0  0  0  0  0  0  0  0  0  0
    8.9512  -15.4742   23.5494 C   0  0  0  0  0  0  0  0  0  0  0  0
    9.9675  -14.7580   23.5065 O   0  0  0  0  0  0  0  0  0  0  0  0
    5.5828  -11.9483   27.0706 C   0  0  0  0  0  0  0  0  0  0  0  0
    6.9741  -12.6053   26.9945 C   0  0  2  0  0  0  0  0  0  0  0  0
    7.9770  -11.5213   26.9769 C   0  0  0  0  0  0  0  0  0  0  0  0
    6.9678  -13.5554   25.8775 C   0  0  0  0  0  0  0  0  0  0  0  0
    8.1783  -14.4050   25.6956 C   0  0  2  0  0  0  0  0  0  0  0  0
    8.0631  -15.3437   24.6142 N   0  0  0  0  0  0  0  0  0  0  0  0
    8.5411  -15.1663   26.9092 C   0  0  0  0  0  0  0  0  0  0  0  0
    8.1266  -16.3399   27.0536 O   0  0  0  0  0  0  0  0  0  0  0  0
    9.3292  -14.6290   27.9031 O   0  0  0  0  0  0  0  0  0  0  0  0
  2  1  1  0
  3  4  1  0
  3  2  1  0
  4  5  1  0
  5  1  1  0
  5  6  1  1
  7  6  2  0
  8  9  1  0
 10  9  1  1
 10 11  1  0
 10 12  1  0
 11  6  1  0
 12 19  1  0
 13 12  2  0
 15 14  1  6
 16 15  1  0
 17 15  1  0
 18 17  1  1
 19 18  1  0
 20 18  1  0
 20 22  1  0
 21 20  2  0
M  END
$$$$
