PSL.pdb
     RDKit          3D

 22 22  0  0  1  0  0  0  0  0999 V2000
    8.9324  -14.8140   18.7004 N   0  0  0  0  0  0  0  0  0  0  0  0
    9.0668  -14.0436   17.4578 C   0  0  0  0  0  0  0  0  0  0  0  0
    7.9944  -12.9862   17.5672 C   0  0  0  0  0  0  0  0  0  0  0  0
    7.5354  -13.0201   19.0250 C   0  0  0  0  0  0  0  0  0  0  0  0
    8.7089  -13.7708   19.6595 C   0  0  1  0  0  0  0  0  0  0  0  0
    8.2639  -14.2870   20.9711 C   0  0  0  0  0  0  0  0  0  0  0  0
    7.9733  -13.4220   21.8520 O   0  0  0  0  0  0  0  0  0  0  0  0
    8.6736  -18.2584   22.6211 O   0  0  0  0  0  0  0  0  0  0  0  0
    7.4739  -17.5708   22.6625 C   0  0  0  0  0  0  0  0  0  0  0  0
    7.6577  -16.0674   22.5598 C   0  0  2  0  0  0  0  0  0  0  0  0
    8.1499  -15.6661   21.2815 N   0  0  0  0  0  0  0  0  0  0  0  0
    8.4581  -15.5559   23.6886 C   0  0  0  0  0  0  0  0  0  0  0  0
    9.6831  -15.4004   23.5369 O   0  0  0  0  0  0  0  0  0  0  0  0
    7.8861  -11.6923   25.8624 C   0  0  0  0  0  0  0  0  0  0  0  0
    6.9177  -12.8172   26.2747 C   0  0  2  0  0  0  0  0  0  0  0  0
    5.8133  -12.1967   27.0338 C   0  0  0  0  0  0  0  0  0  0  0  0
    7.6980  -13.8707   26.9317 C   0  0  0  0  0  0  0  0  0  0  0  0
    8.5566  -14.7268   26.0655 C   0  0  2  0  0  0  0  0  0  0  0  0
    7.8727  -15.2457   24.9136 N   0  0  0  0  0  0  0  0  0  0  0  0
    9.1478  -15.8736   26.7863 C   0  0  0  0  0  0  0  0  0  0  0  0
    8.7010  -17.0277   26.5907 O   0  0  0  0  0  0  0  0  0  0  0  0
   10.1869  -15.7219   27.6779 O   0  0  0  0  0  0  0  0  0  0  0  0
  2  1  1  0
  3  4  1  0
  3  2  1  0
  4  5  1  0
  5  1  1  0
  5  6  1  1
  7  6  2  0
  8  9  1  0
 10  9  1  6
 10 11  1  0
 10 12  1  0
 11  6  1  0
 12 19  1  0
 13 12  2  0
 15 14  1  1
 16 15  1  0
 17 15  1  0
 18 17  1  1
 19 18  1  0
 20 18  1  0
 20 22  1  0
 21 20  2  0
M  END
$$$$
