PSL.pdb
     RDKit          3D

 22 22  0  0  1  0  0  0  0  0999 V2000
    8.9876  -14.9187   18.7399 N   0  0  0  0  0  0  0  0  0  0  0  0
    9.1231  -14.1736   17.4820 C   0  0  0  0  0  0  0  0  0  0  0  0
    8.0269  -13.1374   17.5529 C   0  0  0  0  0  0  0  0  0  0  0  0
    7.5483  -13.1485   19.0047 C   0  0  0  0  0  0  0  0  0  0  0  0
    8.7285  -13.8593   19.6719 C   0  0  1  0  0  0  0  0  0  0  0  0
    8.2761  -14.3555   20.9887 C   0  0  0  0  0  0  0  0  0  0  0  0
    7.8910  -13.4808   21.8226 O   0  0  0  0  0  0  0  0  0  0  0  0
    8.9385  -18.2152   22.7594 O   0  0  0  0  0  0  0  0  0  0  0  0
    7.6906  -17.6192   22.7989 C   0  0  0  0  0  0  0  0  0  0  0  0
    7.7571  -16.1116   22.6344 C   0  0  2  0  0  0  0  0  0  0  0  0
    8.2533  -15.7260   21.3528 N   0  0  0  0  0  0  0  0  0  0  0  0
    8.4807  -15.4901   23.7599 C   0  0  0  0  0  0  0  0  0  0  0  0
    9.6650  -15.1454   23.5979 O   0  0  0  0  0  0  0  0  0  0  0  0
    7.5657  -11.7582   25.4804 C   0  0  0  0  0  0  0  0  0  0  0  0
    6.6669  -12.8554   26.0814 C   0  0  2  0  0  0  0  0  0  0  0  0
    5.5418  -12.1842   26.7631 C   0  0  0  0  0  0  0  0  0  0  0  0
    7.5137  -13.7542   26.8723 C   0  0  0  0  0  0  0  0  0  0  0  0
    8.4601  -14.6327   26.1287 C   0  0  2  0  0  0  0  0  0  0  0  0
    7.8674  -15.2829   24.9930 N   0  0  0  0  0  0  0  0  0  0  0  0
    9.0665  -15.6810   26.9756 C   0  0  0  0  0  0  0  0  0  0  0  0
    8.7913  -16.8853   26.7662 O   0  0  0  0  0  0  0  0  0  0  0  0
    9.9360  -15.3824   28.0015 O   0  0  0  0  0  0  0  0  0  0  0  0
  2  1  1  0
  3  4  1  0
  3  2  1  0
  4  5  1  0
  5  1  1  0
  5  6  1  1
  7  6  2  0
  8  9  1  0
 10  9  1  1
 10 11  1  0
 10 12  1  0
 11  6  1  0
 12 19  1  0
 13 12  2  0
 15 14  1  1
 16 15  1  0
 17 15  1  0
 18 17  1  1
 19 18  1  0
 20 18  1  0
 20 22  1  0
 21 20  2  0
M  END
$$$$
