PSL.pdb
     RDKit          3D

 22 22  0  0  1  0  0  0  0  0999 V2000
    7.6442  -14.8544   18.4367 N   0  0  0  0  0  0  0  0  0  0  0  0
    7.9879  -13.8905   17.3837 C   0  0  0  0  0  0  0  0  0  0  0  0
    8.1266  -12.5800   18.1210 C   0  0  0  0  0  0  0  0  0  0  0  0
    8.1783  -12.9496   19.6036 C   0  0  0  0  0  0  0  0  0  0  0  0
    8.5152  -14.4391   19.4982 C   0  0  1  0  0  0  0  0  0  0  0  0
    8.1825  -15.0739   20.7909 C   0  0  0  0  0  0  0  0  0  0  0  0
    6.9823  -14.9619   21.1855 O   0  0  0  0  0  0  0  0  0  0  0  0
   10.5678  -17.8758   22.9873 O   0  0  0  0  0  0  0  0  0  0  0  0
    9.1883  -17.7739   23.0103 C   0  0  0  0  0  0  0  0  0  0  0  0
    8.7045  -16.3459   22.8333 C   0  0  2  0  0  0  0  0  0  0  0  0
    9.1170  -15.7827   21.5882 N   0  0  0  0  0  0  0  0  0  0  0  0
    9.0606  -15.5199   24.0026 C   0  0  0  0  0  0  0  0  0  0  0  0
   10.1675  -14.9525   24.0248 O   0  0  0  0  0  0  0  0  0  0  0  0
    7.8910  -11.7422   26.2981 C   0  0  0  0  0  0  0  0  0  0  0  0
    6.7891  -12.8178   26.2527 C   0  0  2  0  0  0  0  0  0  0  0  0
    5.5504  -12.2074   26.7761 C   0  0  0  0  0  0  0  0  0  0  0  0
    7.2995  -14.0199   26.9198 C   0  0  0  0  0  0  0  0  0  0  0  0
    8.4823  -14.6903   26.3100 C   0  0  2  0  0  0  0  0  0  0  0  0
    8.1869  -15.3638   25.0759 N   0  0  0  0  0  0  0  0  0  0  0  0
    9.1217  -15.6719   27.2110 C   0  0  0  0  0  0  0  0  0  0  0  0
    9.8958  -15.2754   28.1129 O   0  0  0  0  0  0  0  0  0  0  0  0
    8.8968  -17.0263   27.0972 O   0  0  0  0  0  0  0  0  0  0  0  0
  2  1  1  0
  3  4  1  0
  3  2  1  0
  4  5  1  0
  5  1  1  0
  5  6  1  1
  7  6  2  0
  8  9  1  0
 10  9  1  1
 10 11  1  0
 10 12  1  0
 11  6  1  0
 12 19  1  0
 13 12  2  0
 15 14  1  1
 16 15  1  0
 17 15  1  0
 18 17  1  1
 19 18  1  0
 20 18  1  0
 20 22  1  0
 21 20  2  0
M  END
$$$$
