PSL.pdb
     RDKit          3D

 22 22  0  0  1  0  0  0  0  0999 V2000
    8.8804  -15.0202   18.2810 N   0  0  0  0  0  0  0  0  0  0  0  0
    9.0313  -14.2678   17.0292 C   0  0  0  0  0  0  0  0  0  0  0  0
    7.9701  -13.1972   17.1177 C   0  0  0  0  0  0  0  0  0  0  0  0
    7.5016  -13.2066   18.5729 C   0  0  0  0  0  0  0  0  0  0  0  0
    8.6625  -13.9620   19.2248 C   0  0  1  0  0  0  0  0  0  0  0  0
    8.2034  -14.4558   20.5401 C   0  0  0  0  0  0  0  0  0  0  0  0
    7.8828  -13.5761   21.3958 O   0  0  0  0  0  0  0  0  0  0  0  0
    7.7963  -18.4167   21.1756 O   0  0  0  0  0  0  0  0  0  0  0  0
    7.5676  -17.7145   22.3454 C   0  0  0  0  0  0  0  0  0  0  0  0
    7.5295  -16.2126   22.1279 C   0  0  2  0  0  0  0  0  0  0  0  0
    8.1073  -15.8292   20.8802 N   0  0  0  0  0  0  0  0  0  0  0  0
    8.0973  -15.4977   23.2868 C   0  0  0  0  0  0  0  0  0  0  0  0
    9.3115  -15.2265   23.2915 O   0  0  0  0  0  0  0  0  0  0  0  0
    8.2314  -11.7576   26.5996 C   0  0  0  0  0  0  0  0  0  0  0  0
    6.7278  -12.0911   26.5660 C   0  0  2  0  0  0  0  0  0  0  0  0
    6.3045  -12.3745   27.9522 C   0  0  0  0  0  0  0  0  0  0  0  0
    6.5154  -13.1317   25.5549 C   0  0  0  0  0  0  0  0  0  0  0  0
    7.6226  -14.1034   25.3306 C   0  0  2  0  0  0  0  0  0  0  0  0
    7.3053  -15.1227   24.3692 N   0  0  0  0  0  0  0  0  0  0  0  0
    8.0607  -14.7804   26.5691 C   0  0  0  0  0  0  0  0  0  0  0  0
    8.6940  -14.1373   27.4381 O   0  0  0  0  0  0  0  0  0  0  0  0
    7.7960  -16.1107   26.8100 O   0  0  0  0  0  0  0  0  0  0  0  0
  2  1  1  0
  3  4  1  0
  3  2  1  0
  4  5  1  0
  5  1  1  0
  5  6  1  1
  7  6  2  0
  8  9  1  0
 10  9  1  1
 10 11  1  0
 10 12  1  0
 11  6  1  0
 12 19  1  0
 13 12  2  0
 15 14  1  1
 16 15  1  0
 17 15  1  0
 18 17  1  1
 19 18  1  0
 20 18  1  0
 20 22  1  0
 21 20  2  0
M  END
$$$$
