PSL.pdb
     RDKit          3D

 22 22  0  0  1  0  0  0  0  0999 V2000
    8.9501  -15.0382   18.5287 N   0  0  0  0  0  0  0  0  0  0  0  0
    9.1587  -14.2685   17.2958 C   0  0  0  0  0  0  0  0  0  0  0  0
    8.0486  -13.2449   17.3135 C   0  0  0  0  0  0  0  0  0  0  0  0
    7.4768  -13.2877   18.7307 C   0  0  0  0  0  0  0  0  0  0  0  0
    8.6191  -13.9989   19.4606 C   0  0  1  0  0  0  0  0  0  0  0  0
    8.0877  -14.5239   20.7361 C   0  0  0  0  0  0  0  0  0  0  0  0
    7.6556  -13.6674   21.5658 O   0  0  0  0  0  0  0  0  0  0  0  0
    8.6861  -18.3830   22.6083 O   0  0  0  0  0  0  0  0  0  0  0  0
    7.4294  -17.8262   22.4509 C   0  0  0  0  0  0  0  0  0  0  0  0
    7.4728  -16.3154   22.3089 C   0  0  2  0  0  0  0  0  0  0  0  0
    8.0399  -15.9024   21.0658 N   0  0  0  0  0  0  0  0  0  0  0  0
    8.1104  -15.6936   23.4851 C   0  0  0  0  0  0  0  0  0  0  0  0
    9.3341  -15.4709   23.4597 O   0  0  0  0  0  0  0  0  0  0  0  0
    5.9001  -11.8696   27.4501 C   0  0  0  0  0  0  0  0  0  0  0  0
    7.1544  -12.5061   26.8218 C   0  0  2  0  0  0  0  0  0  0  0  0
    7.5823  -11.6374   25.7068 C   0  0  0  0  0  0  0  0  0  0  0  0
    6.8514  -13.9096   26.5240 C   0  0  0  0  0  0  0  0  0  0  0  0
    7.8832  -14.6899   25.7846 C   0  0  2  0  0  0  0  0  0  0  0  0
    7.3733  -15.3529   24.6166 N   0  0  0  0  0  0  0  0  0  0  0  0
    8.5490  -15.7105   26.6209 C   0  0  0  0  0  0  0  0  0  0  0  0
    9.2828  -15.3528   27.5714 O   0  0  0  0  0  0  0  0  0  0  0  0
    8.3921  -17.0602   26.3938 O   0  0  0  0  0  0  0  0  0  0  0  0
  2  1  1  0
  3  4  1  0
  3  2  1  0
  4  5  1  0
  5  1  1  0
  5  6  1  1
  7  6  2  0
  8  9  1  0
 10  9  1  1
 10 11  1  0
 10 12  1  0
 11  6  1  0
 12 19  1  0
 13 12  2  0
 15 14  1  6
 16 15  1  0
 17 15  1  0
 18 17  1  1
 19 18  1  0
 20 18  1  0
 20 22  1  0
 21 20  2  0
M  END
$$$$
