PSL.pdb
     RDKit          3D

 22 22  0  0  1  0  0  0  0  0999 V2000
    8.9892  -14.9489   18.7611 N   0  0  0  0  0  0  0  0  0  0  0  0
    9.0130  -14.1978   17.4997 C   0  0  0  0  0  0  0  0  0  0  0  0
    7.8184  -13.2796   17.6002 C   0  0  0  0  0  0  0  0  0  0  0  0
    7.3832  -13.3352   19.0646 C   0  0  0  0  0  0  0  0  0  0  0  0
    8.6480  -13.9187   19.6995 C   0  0  1  0  0  0  0  0  0  0  0  0
    8.2852  -14.4546   21.0284 C   0  0  0  0  0  0  0  0  0  0  0  0
    7.8885  -13.6128   21.8902 O   0  0  0  0  0  0  0  0  0  0  0  0
    9.2572  -18.2190   22.9478 O   0  0  0  0  0  0  0  0  0  0  0  0
    7.9552  -17.7741   22.8038 C   0  0  0  0  0  0  0  0  0  0  0  0
    7.8667  -16.2674   22.6408 C   0  0  2  0  0  0  0  0  0  0  0  0
    8.3580  -15.8279   21.3747 N   0  0  0  0  0  0  0  0  0  0  0  0
    8.4858  -15.5760   23.7875 C   0  0  0  0  0  0  0  0  0  0  0  0
    9.6990  -15.3040   23.7436 O   0  0  0  0  0  0  0  0  0  0  0  0
    5.7790  -11.8025   27.1002 C   0  0  0  0  0  0  0  0  0  0  0  0
    7.1075  -12.3199   26.5165 C   0  0  2  0  0  0  0  0  0  0  0  0
    7.1752  -11.8805   25.1082 C   0  0  0  0  0  0  0  0  0  0  0  0
    7.1970  -13.7570   26.7943 C   0  0  0  0  0  0  0  0  0  0  0  0
    8.2423  -14.5303   26.0666 C   0  0  2  0  0  0  0  0  0  0  0  0
    7.7430  -15.2238   24.9117 N   0  0  0  0  0  0  0  0  0  0  0  0
    8.9293  -15.5228   26.9193 C   0  0  0  0  0  0  0  0  0  0  0  0
    8.6674  -16.7412   26.7893 O   0  0  0  0  0  0  0  0  0  0  0  0
    9.8608  -15.1562   27.8657 O   0  0  0  0  0  0  0  0  0  0  0  0
  2  1  1  0
  3  4  1  0
  3  2  1  0
  4  5  1  0
  5  1  1  0
  5  6  1  1
  7  6  2  0
  8  9  1  0
 10  9  1  1
 10 11  1  0
 10 12  1  0
 11  6  1  0
 12 19  1  0
 13 12  2  0
 15 14  1  6
 16 15  1  0
 17 15  1  0
 18 17  1  1
 19 18  1  0
 20 18  1  0
 20 22  1  0
 21 20  2  0
M  END
$$$$
