PSL.pdb
     RDKit          3D

 22 22  0  0  1  0  0  0  0  0999 V2000
    9.2965  -14.6544   18.8586 N   0  0  0  0  0  0  0  0  0  0  0  0
    9.4922  -14.0083   17.5547 C   0  0  0  0  0  0  0  0  0  0  0  0
    8.1152  -13.5114   17.1843 C   0  0  0  0  0  0  0  0  0  0  0  0
    7.2854  -13.6176   18.4638 C   0  0  0  0  0  0  0  0  0  0  0  0
    8.4044  -13.7332   19.5018 C   0  0  1  0  0  0  0  0  0  0  0  0
    7.8187  -14.2790   20.7443 C   0  0  0  0  0  0  0  0  0  0  0  0
    6.5638  -14.1564   20.8812 O   0  0  0  0  0  0  0  0  0  0  0  0
    7.4447  -17.7774   22.1298 O   0  0  0  0  0  0  0  0  0  0  0  0
    6.8780  -16.5509   22.4267 C   0  0  0  0  0  0  0  0  0  0  0  0
    7.9051  -15.5234   22.8669 C   0  0  2  0  0  0  0  0  0  0  0  0
    8.5739  -14.9156   21.7621 N   0  0  0  0  0  0  0  0  0  0  0  0
    8.8222  -16.0923   23.8727 C   0  0  0  0  0  0  0  0  0  0  0  0
    8.9749  -17.3261   23.9192 O   0  0  0  0  0  0  0  0  0  0  0  0
    5.7388  -12.6138   26.2769 C   0  0  0  0  0  0  0  0  0  0  0  0
    7.1568  -13.0380   26.7039 C   0  0  2  0  0  0  0  0  0  0  0  0
    7.8617  -11.8266   27.1695 C   0  0  0  0  0  0  0  0  0  0  0  0
    7.7537  -13.8015   25.6033 C   0  0  0  0  0  0  0  0  0  0  0  0
    8.9571  -14.6232   25.9148 C   0  0  2  0  0  0  0  0  0  0  0  0
    9.5163  -15.2800   24.7660 N   0  0  0  0  0  0  0  0  0  0  0  0
    8.7045  -15.6574   26.9399 C   0  0  0  0  0  0  0  0  0  0  0  0
    7.7846  -16.4906   26.7684 O   0  0  0  0  0  0  0  0  0  0  0  0
    9.4519  -15.7433   28.0939 O   0  0  0  0  0  0  0  0  0  0  0  0
  2  1  1  0
  3  4  1  0
  3  2  1  0
  4  5  1  0
  5  1  1  0
  5  6  1  1
  7  6  2  0
  8  9  1  0
 10  9  1  6
 10 11  1  0
 10 12  1  0
 11  6  1  0
 12 19  1  0
 13 12  2  0
 15 14  1  6
 16 15  1  0
 17 15  1  0
 18 17  1  6
 19 18  1  0
 20 18  1  0
 20 22  1  0
 21 20  2  0
M  END
$$$$
