PSL.pdb
     RDKit          3D

 22 22  0  0  1  0  0  0  0  0999 V2000
    6.6860  -15.4378   21.4849 N   0  0  0  0  0  0  0  0  0  0  0  0
    6.4418  -15.4532   20.0371 C   0  0  0  0  0  0  0  0  0  0  0  0
    6.9306  -14.1026   19.5711 C   0  0  0  0  0  0  0  0  0  0  0  0
    7.7313  -13.5324   20.7420 C   0  0  0  0  0  0  0  0  0  0  0  0
    7.9742  -14.8099   21.5496 C   0  0  1  0  0  0  0  0  0  0  0  0
    8.3485  -14.4156   22.9241 C   0  0  0  0  0  0  0  0  0  0  0  0
    9.5882  -14.2880   23.1598 O   0  0  0  0  0  0  0  0  0  0  0  0
    5.7124  -13.9419   26.3112 O   0  0  0  0  0  0  0  0  0  0  0  0
    6.7566  -13.0741   26.0459 C   0  0  0  0  0  0  0  0  0  0  0  0
    7.8650  -13.7231   25.2367 C   0  0  2  0  0  0  0  0  0  0  0  0
    7.4119  -14.1799   23.9626 N   0  0  0  0  0  0  0  0  0  0  0  0
    8.5550  -14.7613   26.0258 C   0  0  0  0  0  0  0  0  0  0  0  0
    8.2210  -15.9507   25.8793 O   0  0  0  0  0  0  0  0  0  0  0  0
   11.8916  -17.3980   26.0731 C   0  0  0  0  0  0  0  0  0  0  0  0
   12.1751  -15.8848   26.1289 C   0  0  2  0  0  0  0  0  0  0  0  0
   13.5804  -15.6808   25.7234 C   0  0  0  0  0  0  0  0  0  0  0  0
   11.7604  -15.3928   27.4466 C   0  0  0  0  0  0  0  0  0  0  0  0
   10.2994  -15.3689   27.7389 C   0  0  2  0  0  0  0  0  0  0  0  0
    9.5671  -14.4377   26.9262 N   0  0  0  0  0  0  0  0  0  0  0  0
    9.9950  -15.0618   29.1521 C   0  0  0  0  0  0  0  0  0  0  0  0
    9.4641  -13.9665   29.4495 O   0  0  0  0  0  0  0  0  0  0  0  0
   10.2757  -15.9454   30.1710 O   0  0  0  0  0  0  0  0  0  0  0  0
  2  1  1  0
  3  4  1  0
  3  2  1  0
  4  5  1  0
  5  1  1  0
  5  6  1  1
  7  6  2  0
  8  9  1  0
 10  9  1  1
 10 11  1  0
 10 12  1  0
 11  6  1  0
 12 19  1  0
 13 12  2  0
 15 14  1  1
 16 15  1  0
 17 15  1  0
 18 17  1  1
 19 18  1  0
 20 18  1  0
 20 22  1  0
 21 20  2  0
M  END
$$$$
