TWF.pdb
     RDKit          3D

 33 35  0  0  1  0  0  0  0  0999 V2000
   10.6248  -18.6522   17.5155 C   0  0  0  0  0  0  0  0  0  0  0  0
   10.5223  -18.1116   18.9009 C   0  0  1  0  0  0  0  0  0  0  0  0
   11.7981  -17.7976   19.4074 O   0  0  0  0  0  0  0  0  0  0  0  0
    9.5764  -16.9495   19.0407 C   0  0  2  0  0  0  0  0  0  0  0  0
   10.0327  -15.9097   18.1392 N   0  0  0  0  0  0  0  0  0  0  0  0
    9.4857  -16.4127   20.4009 C   0  0  0  0  0  0  0  0  0  0  0  0
   10.2118  -15.4337   20.7531 O   0  0  0  0  0  0  0  0  0  0  0  0
    8.6139  -16.9206   21.4009 N   0  0  0  0  0  0  0  0  0  0  0  0
    8.6214  -16.4447   22.7796 C   0  0  1  0  0  0  0  0  0  0  0  0
    7.2722  -16.6904   23.4137 C   0  0  0  0  0  0  0  0  0  0  0  0
    6.8602  -15.7071   24.4147 C   0  0  0  0  0  0  0  0  0  0  0  0
    6.1431  -16.1017   25.5561 C   0  0  0  0  0  0  0  0  0  0  0  0
    5.9396  -14.9993   26.2901 N   0  0  0  0  0  0  0  0  0  0  0  0
    6.4783  -13.9149   25.6976 C   0  0  0  0  0  0  0  0  0  0  0  0
    6.5185  -12.5830   26.0633 C   0  0  0  0  0  0  0  0  0  0  0  0
    7.1488  -11.6968   25.2260 C   0  0  0  0  0  0  0  0  0  0  0  0
    7.7337  -12.1013   24.0457 C   0  0  0  0  0  0  0  0  0  0  0  0
    7.6812  -13.4304   23.7035 C   0  0  0  0  0  0  0  0  0  0  0  0
    7.0631  -14.3621   24.5061 C   0  0  0  0  0  0  0  0  0  0  0  0
    9.7205  -16.9576   23.5917 C   0  0  0  0  0  0  0  0  0  0  0  0
   10.1866  -18.1368   23.4784 O   0  0  0  0  0  0  0  0  0  0  0  0
   10.3826  -16.1605   24.5958 N   0  0  0  0  0  0  0  0  0  0  0  0
   11.5379  -16.6719   25.3308 C   0  0  1  0  0  0  0  0  0  0  0  0
   12.0107  -15.4432   26.1363 C   0  0  0  0  0  0  0  0  0  0  0  0
   11.0745  -15.0216   27.1633 C   0  0  0  0  0  0  0  0  0  0  0  0
   10.1357  -14.0588   26.8876 C   0  0  0  0  0  0  0  0  0  0  0  0
    9.2143  -13.6203   27.8056 C   0  0  0  0  0  0  0  0  0  0  0  0
    9.2390  -14.1792   29.0648 C   0  0  0  0  0  0  0  0  0  0  0  0
   10.1779  -15.1467   29.3509 C   0  0  0  0  0  0  0  0  0  0  0  0
   11.1030  -15.5808   28.4146 C   0  0  0  0  0  0  0  0  0  0  0  0
   11.1593  -17.6923   26.3330 C   0  0  0  0  0  0  0  0  0  0  0  0
   12.2164  -18.3359   27.0067 O   0  0  0  0  0  0  0  0  0  0  0  0
    9.9696  -17.9909   26.5899 O   0  0  0  0  0  0  0  0  0  0  0  0
  2  3  1  0
  2  1  1  6
  4  2  1  0
  4  5  1  6
  6  4  1  0
  6  7  2  0
  8  6  1  0
  9  8  1  0
  9 10  1  1
 11 10  1  0
 12 11  2  0
 13 14  1  0
 13 12  1  0
 14 19  2  0
 15 14  1  0
 15 16  2  0
 16 17  1  0
 17 18  2  0
 19 11  1  0
 19 18  1  0
 20  9  1  0
 21 20  2  0
 22 20  1  0
 23 31  1  0
 23 22  1  0
 24 25  1  0
 23 24  1  1
 25 26  2  0
 26 27  1  0
 28 27  2  0
 29 28  1  0
 30 25  1  0
 30 29  2  0
 31 32  1  0
 33 31  2  0
M  END
$$$$
