TWF.pdb
     RDKit          3D

 33 35  0  0  1  0  0  0  0  0999 V2000
   11.5794  -19.3023   17.8585 C   0  0  0  0  0  0  0  0  0  0  0  0
   11.3257  -18.6255   19.1623 C   0  0  1  0  0  0  0  0  0  0  0  0
   12.5268  -18.4608   19.8786 O   0  0  0  0  0  0  0  0  0  0  0  0
   10.5746  -17.3265   19.0467 C   0  0  2  0  0  0  0  0  0  0  0  0
   11.3664  -16.4419   18.2146 N   0  0  0  0  0  0  0  0  0  0  0  0
   10.3027  -16.6768   20.3314 C   0  0  0  0  0  0  0  0  0  0  0  0
   11.1456  -15.8726   20.8338 O   0  0  0  0  0  0  0  0  0  0  0  0
    9.1217  -16.8825   21.0935 N   0  0  0  0  0  0  0  0  0  0  0  0
    8.9205  -16.3096   22.4197 C   0  0  1  0  0  0  0  0  0  0  0  0
    7.4422  -16.2067   22.7144 C   0  0  0  0  0  0  0  0  0  0  0  0
    7.0959  -15.5158   23.9559 C   0  0  0  0  0  0  0  0  0  0  0  0
    6.6965  -16.2383   25.0923 C   0  0  0  0  0  0  0  0  0  0  0  0
    6.4789  -15.3446   26.0667 N   0  0  0  0  0  0  0  0  0  0  0  0
    6.7110  -14.0889   25.6351 C   0  0  0  0  0  0  0  0  0  0  0  0
    6.6184  -12.8613   26.2624 C   0  0  0  0  0  0  0  0  0  0  0  0
    6.9199  -11.7355   25.5377 C   0  0  0  0  0  0  0  0  0  0  0  0
    7.3071  -11.8026   24.2169 C   0  0  0  0  0  0  0  0  0  0  0  0
    7.3923  -13.0341   23.6148 C   0  0  0  0  0  0  0  0  0  0  0  0
    7.1025  -14.1953   24.2945 C   0  0  0  0  0  0  0  0  0  0  0  0
    9.6561  -16.9800   23.4874 C   0  0  0  0  0  0  0  0  0  0  0  0
    9.6941  -18.2448   23.6271 O   0  0  0  0  0  0  0  0  0  0  0  0
   10.4160  -16.2585   24.4792 N   0  0  0  0  0  0  0  0  0  0  0  0
   11.2803  -16.9566   25.4291 C   0  0  1  0  0  0  0  0  0  0  0  0
   12.0149  -15.8034   26.1450 C   0  0  0  0  0  0  0  0  0  0  0  0
   11.2181  -15.1471   27.1665 C   0  0  0  0  0  0  0  0  0  0  0  0
   11.1775  -15.6543   28.4414 C   0  0  0  0  0  0  0  0  0  0  0  0
   10.4551  -15.0805   29.4577 C   0  0  0  0  0  0  0  0  0  0  0  0
    9.7373  -13.9385   29.1767 C   0  0  0  0  0  0  0  0  0  0  0  0
    9.7720  -13.4217   27.8995 C   0  0  0  0  0  0  0  0  0  0  0  0
   10.5058  -14.0109   26.8819 C   0  0  0  0  0  0  0  0  0  0  0  0
   10.5095  -17.6593   26.4784 C   0  0  0  0  0  0  0  0  0  0  0  0
   11.2351  -18.5278   27.3178 O   0  0  0  0  0  0  0  0  0  0  0  0
    9.2751  -17.5109   26.6360 O   0  0  0  0  0  0  0  0  0  0  0  0
  2  3  1  0
  2  1  1  6
  4  2  1  0
  4  5  1  6
  6  4  1  0
  6  7  2  0
  8  6  1  0
  9  8  1  0
  9 10  1  1
 11 10  1  0
 12 11  2  0
 13 14  1  0
 13 12  1  0
 14 19  2  0
 15 14  1  0
 15 16  2  0
 16 17  1  0
 17 18  2  0
 19 11  1  0
 19 18  1  0
 20  9  1  0
 21 20  2  0
 22 20  1  0
 23 31  1  0
 23 22  1  0
 24 25  1  0
 23 24  1  1
 25 26  2  0
 26 27  1  0
 28 27  2  0
 29 28  1  0
 30 25  1  0
 30 29  2  0
 31 32  1  0
 33 31  2  0
M  END
$$$$
