TWF.pdb
     RDKit          3D

 33 35  0  0  1  0  0  0  0  0999 V2000
   11.2809  -19.9499   19.2992 C   0  0  0  0  0  0  0  0  0  0  0  0
   10.9301  -18.9868   20.3815 C   0  0  1  0  0  0  0  0  0  0  0  0
   12.0843  -18.5800   21.0781 O   0  0  0  0  0  0  0  0  0  0  0  0
   10.1257  -17.8030   19.9163 C   0  0  2  0  0  0  0  0  0  0  0  0
   10.8852  -17.1488   18.8689 N   0  0  0  0  0  0  0  0  0  0  0  0
    9.8176  -16.8368   20.9738 C   0  0  0  0  0  0  0  0  0  0  0  0
   10.5494  -15.8137   21.1398 O   0  0  0  0  0  0  0  0  0  0  0  0
    8.7195  -16.9568   21.8668 N   0  0  0  0  0  0  0  0  0  0  0  0
    8.5142  -16.0623   23.0004 C   0  0  1  0  0  0  0  0  0  0  0  0
    7.0442  -15.9997   23.3439 C   0  0  0  0  0  0  0  0  0  0  0  0
    6.6912  -15.0849   24.4289 C   0  0  0  0  0  0  0  0  0  0  0  0
    6.0862  -15.5632   25.6029 C   0  0  0  0  0  0  0  0  0  0  0  0
    5.9145  -14.5084   26.4114 N   0  0  0  0  0  0  0  0  0  0  0  0
    6.3689  -13.3768   25.8369 C   0  0  0  0  0  0  0  0  0  0  0  0
    6.4016  -12.0655   26.2712 C   0  0  0  0  0  0  0  0  0  0  0  0
    6.9320  -11.1157   25.4344 C   0  0  0  0  0  0  0  0  0  0  0  0
    7.4250  -11.4374   24.1885 C   0  0  0  0  0  0  0  0  0  0  0  0
    7.3820  -12.7476   23.7787 C   0  0  0  0  0  0  0  0  0  0  0  0
    6.8621  -13.7406   24.5774 C   0  0  0  0  0  0  0  0  0  0  0  0
    9.3460  -16.3567   24.1631 C   0  0  0  0  0  0  0  0  0  0  0  0
    8.9366  -16.2524   25.3640 O   0  0  0  0  0  0  0  0  0  0  0  0
   10.7133  -16.8028   24.0476 N   0  0  0  0  0  0  0  0  0  0  0  0
   11.7770  -16.2068   24.8537 C   0  0  1  0  0  0  0  0  0  0  0  0
   11.5146  -16.7853   26.2603 C   0  0  0  0  0  0  0  0  0  0  0  0
   10.9574  -15.8227   27.1941 C   0  0  0  0  0  0  0  0  0  0  0  0
   10.5528  -14.5876   26.7522 C   0  0  0  0  0  0  0  0  0  0  0  0
   10.0084  -13.6340   27.5759 C   0  0  0  0  0  0  0  0  0  0  0  0
    9.8641  -13.9389   28.9117 C   0  0  0  0  0  0  0  0  0  0  0  0
   10.2674  -15.1765   29.3647 C   0  0  0  0  0  0  0  0  0  0  0  0
   10.8156  -16.1309   28.5223 C   0  0  0  0  0  0  0  0  0  0  0  0
   13.1185  -16.6910   24.4602 C   0  0  0  0  0  0  0  0  0  0  0  0
   14.2148  -16.1424   25.1549 O   0  0  0  0  0  0  0  0  0  0  0  0
   13.3016  -17.5427   23.5593 O   0  0  0  0  0  0  0  0  0  0  0  0
  2  3  1  0
  2  1  1  6
  4  2  1  0
  4  5  1  6
  6  4  1  0
  6  7  2  0
  8  6  1  0
  9  8  1  0
  9 10  1  1
 11 10  1  0
 12 11  2  0
 13 14  1  0
 13 12  1  0
 14 19  2  0
 15 14  1  0
 15 16  2  0
 16 17  1  0
 17 18  2  0
 19 11  1  0
 19 18  1  0
 20  9  1  0
 21 20  2  0
 22 20  1  0
 23 31  1  0
 23 22  1  0
 24 25  1  0
 23 24  1  1
 25 26  2  0
 26 27  1  0
 28 27  2  0
 29 28  1  0
 30 25  1  0
 30 29  2  0
 31 32  1  0
 33 31  2  0
M  END
$$$$
