TWF.pdb
     RDKit          3D

 33 35  0  0  1  0  0  0  0  0999 V2000
   10.9023  -17.1050   17.3006 C   0  0  0  0  0  0  0  0  0  0  0  0
   10.6090  -16.5812   18.6651 C   0  0  1  0  0  0  0  0  0  0  0  0
    9.2869  -16.1023   18.7400 O   0  0  0  0  0  0  0  0  0  0  0  0
   10.9027  -17.5541   19.7751 C   0  0  2  0  0  0  0  0  0  0  0  0
   10.0578  -18.7140   19.5682 N   0  0  0  0  0  0  0  0  0  0  0  0
   10.6740  -17.0154   21.1183 C   0  0  0  0  0  0  0  0  0  0  0  0
   11.5139  -16.2216   21.6418 O   0  0  0  0  0  0  0  0  0  0  0  0
    9.5401  -17.3225   21.9169 N   0  0  0  0  0  0  0  0  0  0  0  0
    9.3689  -16.8291   23.2788 C   0  0  1  0  0  0  0  0  0  0  0  0
    7.8979  -16.6672   23.5838 C   0  0  0  0  0  0  0  0  0  0  0  0
    7.4111  -15.2886   23.6161 C   0  0  0  0  0  0  0  0  0  0  0  0
    7.0758  -14.6176   22.4285 C   0  0  0  0  0  0  0  0  0  0  0  0
    6.6388  -13.4001   22.7779 N   0  0  0  0  0  0  0  0  0  0  0  0
    6.6697  -13.2381   24.1158 C   0  0  0  0  0  0  0  0  0  0  0  0
    6.3291  -12.1740   24.9286 C   0  0  0  0  0  0  0  0  0  0  0  0
    6.4838  -12.3152   26.2850 C   0  0  0  0  0  0  0  0  0  0  0  0
    6.9649  -13.4788   26.8451 C   0  0  0  0  0  0  0  0  0  0  0  0
    7.2965  -14.5231   26.0169 C   0  0  0  0  0  0  0  0  0  0  0  0
    7.1605  -14.4363   24.6500 C   0  0  0  0  0  0  0  0  0  0  0  0
   10.0668  -17.6072   24.2976 C   0  0  0  0  0  0  0  0  0  0  0  0
   10.1666  -18.8760   24.2662 O   0  0  0  0  0  0  0  0  0  0  0  0
   10.7153  -16.9970   25.4328 N   0  0  0  0  0  0  0  0  0  0  0  0
   11.4673  -17.7967   26.3979 C   0  0  1  0  0  0  0  0  0  0  0  0
   12.2443  -16.7331   27.2023 C   0  0  0  0  0  0  0  0  0  0  0  0
   11.3907  -15.8159   27.9364 C   0  0  0  0  0  0  0  0  0  0  0  0
   10.8373  -14.7314   27.3024 C   0  0  0  0  0  0  0  0  0  0  0  0
   10.0139  -13.8307   27.9307 C   0  0  0  0  0  0  0  0  0  0  0  0
    9.7333  -14.0317   29.2645 C   0  0  0  0  0  0  0  0  0  0  0  0
   10.2842  -15.1179   29.9097 C   0  0  0  0  0  0  0  0  0  0  0  0
   11.1143  -16.0203   29.2634 C   0  0  0  0  0  0  0  0  0  0  0  0
   10.5856  -18.4772   27.3719 C   0  0  0  0  0  0  0  0  0  0  0  0
   11.2047  -19.3825   28.2565 O   0  0  0  0  0  0  0  0  0  0  0  0
    9.3494  -18.2799   27.4302 O   0  0  0  0  0  0  0  0  0  0  0  0
  2  3  1  0
  2  1  1  6
  4  2  1  0
  4  5  1  6
  6  4  1  0
  6  7  2  0
  8  6  1  0
  9  8  1  0
  9 10  1  1
 11 10  1  0
 12 11  2  0
 13 14  1  0
 13 12  1  0
 14 19  2  0
 15 14  1  0
 15 16  2  0
 16 17  1  0
 17 18  2  0
 19 11  1  0
 19 18  1  0
 20  9  1  0
 21 20  2  0
 22 20  1  0
 23 31  1  0
 23 22  1  0
 24 25  1  0
 23 24  1  1
 25 26  2  0
 26 27  1  0
 28 27  2  0
 29 28  1  0
 30 25  1  0
 30 29  2  0
 31 32  1  0
 33 31  2  0
M  END
$$$$
