TWF.pdb
     RDKit          3D

 33 35  0  0  1  0  0  0  0  0999 V2000
   13.3105  -20.1792   20.1181 C   0  0  0  0  0  0  0  0  0  0  0  0
   12.7411  -19.1673   21.0531 C   0  0  1  0  0  0  0  0  0  0  0  0
   13.7689  -18.4617   21.7076 O   0  0  0  0  0  0  0  0  0  0  0  0
   11.7514  -18.2285   20.4172 C   0  0  2  0  0  0  0  0  0  0  0  0
   12.4442  -17.5236   19.3566 N   0  0  0  0  0  0  0  0  0  0  0  0
   11.1641  -17.2599   21.3464 C   0  0  0  0  0  0  0  0  0  0  0  0
   11.6187  -16.0772   21.4110 O   0  0  0  0  0  0  0  0  0  0  0  0
   10.0808  -17.5490   22.2186 N   0  0  0  0  0  0  0  0  0  0  0  0
    9.5323  -16.5755   23.1560 C   0  0  1  0  0  0  0  0  0  0  0  0
    8.0229  -16.6412   23.1381 C   0  0  0  0  0  0  0  0  0  0  0  0
    7.3710  -15.8270   22.1130 C   0  0  0  0  0  0  0  0  0  0  0  0
    5.9977  -15.9651   21.8524 C   0  0  0  0  0  0  0  0  0  0  0  0
    5.6900  -15.0766   20.8977 N   0  0  0  0  0  0  0  0  0  0  0  0
    6.7757  -14.3715   20.5221 C   0  0  0  0  0  0  0  0  0  0  0  0
    6.9521  -13.3694   19.5872 C   0  0  0  0  0  0  0  0  0  0  0  0
    8.2096  -12.8439   19.4257 C   0  0  0  0  0  0  0  0  0  0  0  0
    9.2842  -13.2881   20.1651 C   0  0  0  0  0  0  0  0  0  0  0  0
    9.0844  -14.2849   21.0886 C   0  0  0  0  0  0  0  0  0  0  0  0
    7.8446  -14.8469   21.2923 C   0  0  0  0  0  0  0  0  0  0  0  0
   10.0777  -16.6613   24.5072 C   0  0  0  0  0  0  0  0  0  0  0  0
   10.6707  -17.6924   24.9609 O   0  0  0  0  0  0  0  0  0  0  0  0
    9.9965  -15.5711   25.4487 N   0  0  0  0  0  0  0  0  0  0  0  0
   10.6483  -15.6459   26.7549 C   0  0  1  0  0  0  0  0  0  0  0  0
   10.5806  -14.1899   27.2625 C   0  0  0  0  0  0  0  0  0  0  0  0
    9.2476  -13.6156   27.2158 C   0  0  0  0  0  0  0  0  0  0  0  0
    8.5104  -13.6764   26.0595 C   0  0  0  0  0  0  0  0  0  0  0  0
    7.2418  -13.1646   25.9471 C   0  0  0  0  0  0  0  0  0  0  0  0
    6.6871  -12.5611   27.0545 C   0  0  0  0  0  0  0  0  0  0  0  0
    7.4196  -12.4953   28.2201 C   0  0  0  0  0  0  0  0  0  0  0  0
    8.7001  -13.0163   28.3205 C   0  0  0  0  0  0  0  0  0  0  0  0
    9.8722  -16.4497   27.7248 C   0  0  0  0  0  0  0  0  0  0  0  0
    8.6759  -17.0246   27.2517 O   0  0  0  0  0  0  0  0  0  0  0  0
   10.2339  -16.6267   28.9115 O   0  0  0  0  0  0  0  0  0  0  0  0
  2  3  1  0
  2  1  1  6
  4  2  1  0
  4  5  1  6
  6  4  1  0
  6  7  2  0
  8  6  1  0
  9  8  1  0
  9 10  1  1
 11 10  1  0
 12 11  2  0
 13 14  1  0
 13 12  1  0
 14 19  2  0
 15 14  1  0
 15 16  2  0
 16 17  1  0
 17 18  2  0
 19 11  1  0
 19 18  1  0
 20  9  1  0
 21 20  2  0
 22 20  1  0
 23 31  1  0
 23 22  1  0
 24 25  1  0
 23 24  1  1
 25 26  2  0
 26 27  1  0
 28 27  2  0
 29 28  1  0
 30 25  1  0
 30 29  2  0
 31 32  1  0
 33 31  2  0
M  END
$$$$
