TWF.pdb
     RDKit          3D

 33 35  0  0  1  0  0  0  0  0999 V2000
   13.1944  -20.0771   20.1683 C   0  0  0  0  0  0  0  0  0  0  0  0
   12.6699  -19.0846   21.1491 C   0  0  1  0  0  0  0  0  0  0  0  0
   13.7197  -18.3162   21.6881 O   0  0  0  0  0  0  0  0  0  0  0  0
   11.5703  -18.2087   20.6118 C   0  0  2  0  0  0  0  0  0  0  0  0
   12.1084  -17.4877   19.4749 N   0  0  0  0  0  0  0  0  0  0  0  0
   11.0348  -17.2555   21.5871 C   0  0  0  0  0  0  0  0  0  0  0  0
   11.5025  -16.0781   21.6554 O   0  0  0  0  0  0  0  0  0  0  0  0
    9.9899  -17.5544   22.5017 N   0  0  0  0  0  0  0  0  0  0  0  0
    9.5144  -16.6072   23.5038 C   0  0  1  0  0  0  0  0  0  0  0  0
    8.0061  -16.5290   23.4597 C   0  0  0  0  0  0  0  0  0  0  0  0
    7.4464  -15.8474   22.2932 C   0  0  0  0  0  0  0  0  0  0  0  0
    6.6280  -16.5365   21.3832 C   0  0  0  0  0  0  0  0  0  0  0  0
    6.2485  -15.6515   20.4513 N   0  0  0  0  0  0  0  0  0  0  0  0
    6.7689  -14.4327   20.6983 C   0  0  0  0  0  0  0  0  0  0  0  0
    6.6675  -13.2286   20.0283 C   0  0  0  0  0  0  0  0  0  0  0  0
    7.3360  -12.1428   20.5360 C   0  0  0  0  0  0  0  0  0  0  0  0
    8.0953  -12.2270   21.6828 C   0  0  0  0  0  0  0  0  0  0  0  0
    8.1809  -13.4345   22.3317 C   0  0  0  0  0  0  0  0  0  0  0  0
    7.5305  -14.5551   21.8674 C   0  0  0  0  0  0  0  0  0  0  0  0
   10.0207  -16.8459   24.8518 C   0  0  0  0  0  0  0  0  0  0  0  0
   10.4167  -17.9842   25.2619 O   0  0  0  0  0  0  0  0  0  0  0  0
   10.1232  -15.7996   25.8401 N   0  0  0  0  0  0  0  0  0  0  0  0
   10.6176  -16.0743   27.1879 C   0  0  1  0  0  0  0  0  0  0  0  0
   10.5399  -14.6949   27.8759 C   0  0  0  0  0  0  0  0  0  0  0  0
    9.3159  -13.9672   27.5907 C   0  0  0  0  0  0  0  0  0  0  0  0
    9.2947  -12.5967   27.6660 C   0  0  0  0  0  0  0  0  0  0  0  0
    8.1776  -11.8448   27.3999 C   0  0  0  0  0  0  0  0  0  0  0  0
    7.0236  -12.5057   27.0398 C   0  0  0  0  0  0  0  0  0  0  0  0
    7.0351  -13.8816   26.9613 C   0  0  0  0  0  0  0  0  0  0  0  0
    8.1702  -14.6293   27.2325 C   0  0  0  0  0  0  0  0  0  0  0  0
    9.7091  -16.9590   27.9500 C   0  0  0  0  0  0  0  0  0  0  0  0
   10.1748  -17.4139   29.1997 O   0  0  0  0  0  0  0  0  0  0  0  0
    8.5794  -17.3040   27.5314 O   0  0  0  0  0  0  0  0  0  0  0  0
  2  3  1  0
  2  1  1  6
  4  2  1  0
  4  5  1  6
  6  4  1  0
  6  7  2  0
  8  6  1  0
  9  8  1  0
  9 10  1  1
 11 10  1  0
 12 11  2  0
 13 14  1  0
 13 12  1  0
 14 19  2  0
 15 14  1  0
 15 16  2  0
 16 17  1  0
 17 18  2  0
 19 11  1  0
 19 18  1  0
 20  9  1  0
 21 20  2  0
 22 20  1  0
 23 31  1  0
 23 22  1  0
 24 25  1  0
 23 24  1  1
 25 26  2  0
 26 27  1  0
 28 27  2  0
 29 28  1  0
 30 25  1  0
 30 29  2  0
 31 32  1  0
 33 31  2  0
M  END
$$$$
