TWF.pdb
     RDKit          3D

 33 35  0  0  1  0  0  0  0  0999 V2000
    8.4727  -18.4366   18.0127 C   0  0  0  0  0  0  0  0  0  0  0  0
    8.9478  -17.9315   19.3323 C   0  0  1  0  0  0  0  0  0  0  0  0
   10.3099  -17.5800   19.2686 O   0  0  0  0  0  0  0  0  0  0  0  0
    8.1189  -16.8099   19.8978 C   0  0  2  0  0  0  0  0  0  0  0  0
    8.1211  -15.7366   18.9231 N   0  0  0  0  0  0  0  0  0  0  0  0
    8.5988  -16.3023   21.1857 C   0  0  0  0  0  0  0  0  0  0  0  0
    9.2201  -15.1979   21.2477 O   0  0  0  0  0  0  0  0  0  0  0  0
    8.4177  -16.9745   22.4239 N   0  0  0  0  0  0  0  0  0  0  0  0
    8.9434  -16.4701   23.6875 C   0  0  1  0  0  0  0  0  0  0  0  0
    7.9576  -16.7456   24.7989 C   0  0  0  0  0  0  0  0  0  0  0  0
    7.0695  -15.6351   25.1402 C   0  0  0  0  0  0  0  0  0  0  0  0
    5.7247  -15.8673   25.4727 C   0  0  0  0  0  0  0  0  0  0  0  0
    5.1828  -14.6767   25.7629 N   0  0  0  0  0  0  0  0  0  0  0  0
    6.0898  -13.6870   25.6394 C   0  0  0  0  0  0  0  0  0  0  0  0
    6.0011  -12.3205   25.8230 C   0  0  0  0  0  0  0  0  0  0  0  0
    7.1231  -11.5603   25.6063 C   0  0  0  0  0  0  0  0  0  0  0  0
    8.3185  -12.1230   25.2151 C   0  0  0  0  0  0  0  0  0  0  0  0
    8.3825  -13.4836   25.0392 C   0  0  0  0  0  0  0  0  0  0  0  0
    7.2886  -14.2936   25.2434 C   0  0  0  0  0  0  0  0  0  0  0  0
   10.2902  -16.9308   24.0105 C   0  0  0  0  0  0  0  0  0  0  0  0
   10.7637  -18.0459   23.6194 O   0  0  0  0  0  0  0  0  0  0  0  0
   11.2099  -16.1496   24.8015 N   0  0  0  0  0  0  0  0  0  0  0  0
   12.4826  -16.7062   25.2563 C   0  0  1  0  0  0  0  0  0  0  0  0
   12.9939  -15.6417   26.2500 C   0  0  0  0  0  0  0  0  0  0  0  0
   12.0068  -15.2409   27.2369 C   0  0  0  0  0  0  0  0  0  0  0  0
   11.9030  -15.9214   28.4246 C   0  0  0  0  0  0  0  0  0  0  0  0
   11.0015  -15.5915   29.4056 C   0  0  0  0  0  0  0  0  0  0  0  0
   10.1620  -14.5226   29.1799 C   0  0  0  0  0  0  0  0  0  0  0  0
   10.2587  -13.8331   27.9905 C   0  0  0  0  0  0  0  0  0  0  0  0
   11.1738  -14.1766   27.0077 C   0  0  0  0  0  0  0  0  0  0  0  0
   12.3039  -17.9448   26.0456 C   0  0  0  0  0  0  0  0  0  0  0  0
   10.9779  -18.3126   26.3488 O   0  0  0  0  0  0  0  0  0  0  0  0
   13.2624  -18.6499   26.4390 O   0  0  0  0  0  0  0  0  0  0  0  0
  2  3  1  0
  2  1  1  6
  4  2  1  0
  4  5  1  6
  6  4  1  0
  6  7  2  0
  8  6  1  0
  9  8  1  0
  9 10  1  1
 11 10  1  0
 12 11  2  0
 13 14  1  0
 13 12  1  0
 14 19  2  0
 15 14  1  0
 15 16  2  0
 16 17  1  0
 17 18  2  0
 19 11  1  0
 19 18  1  0
 20  9  1  0
 21 20  2  0
 22 20  1  0
 23 31  1  0
 23 22  1  0
 24 25  1  0
 23 24  1  1
 25 26  2  0
 26 27  1  0
 28 27  2  0
 29 28  1  0
 30 25  1  0
 30 29  2  0
 31 32  1  0
 33 31  2  0
M  END
$$$$
