TWF.pdb
     RDKit          3D

 33 35  0  0  1  0  0  0  0  0999 V2000
   10.6887  -21.3127   18.8460 C   0  0  0  0  0  0  0  0  0  0  0  0
   10.6432  -20.2229   19.8621 C   0  0  1  0  0  0  0  0  0  0  0  0
   11.7997  -20.2438   20.6653 O   0  0  0  0  0  0  0  0  0  0  0  0
   10.4008  -18.8535   19.2869 C   0  0  2  0  0  0  0  0  0  0  0  0
   11.4801  -18.5768   18.3594 N   0  0  0  0  0  0  0  0  0  0  0  0
   10.3319  -17.7875   20.2897 C   0  0  0  0  0  0  0  0  0  0  0  0
   11.3607  -17.0970   20.5624 O   0  0  0  0  0  0  0  0  0  0  0  0
    9.1569  -17.4493   21.0128 N   0  0  0  0  0  0  0  0  0  0  0  0
    9.1474  -16.4909   22.1123 C   0  0  1  0  0  0  0  0  0  0  0  0
    7.8724  -15.6810   22.0749 C   0  0  0  0  0  0  0  0  0  0  0  0
    7.8011  -14.5774   23.0317 C   0  0  0  0  0  0  0  0  0  0  0  0
    8.4925  -13.3775   22.7967 C   0  0  0  0  0  0  0  0  0  0  0  0
    8.2119  -12.5583   23.8193 N   0  0  0  0  0  0  0  0  0  0  0  0
    7.3834  -13.1501   24.7027 C   0  0  0  0  0  0  0  0  0  0  0  0
    6.8318  -12.7135   25.8919 C   0  0  0  0  0  0  0  0  0  0  0  0
    6.0140  -13.5714   26.5839 C   0  0  0  0  0  0  0  0  0  0  0  0
    5.7356  -14.8404   26.1246 C   0  0  0  0  0  0  0  0  0  0  0  0
    6.2952  -15.2520   24.9397 C   0  0  0  0  0  0  0  0  0  0  0  0
    7.1216  -14.4327   24.2046 C   0  0  0  0  0  0  0  0  0  0  0  0
    9.3986  -17.0740   23.4266 C   0  0  0  0  0  0  0  0  0  0  0  0
    8.8209  -18.1264   23.8501 O   0  0  0  0  0  0  0  0  0  0  0  0
   10.3381  -16.5052   24.3624 N   0  0  0  0  0  0  0  0  0  0  0  0
   10.8556  -17.2833   25.4863 C   0  0  1  0  0  0  0  0  0  0  0  0
   11.8120  -16.2937   26.1848 C   0  0  0  0  0  0  0  0  0  0  0  0
   11.1332  -15.2940   26.9903 C   0  0  0  0  0  0  0  0  0  0  0  0
   10.6614  -14.1436   26.4087 C   0  0  0  0  0  0  0  0  0  0  0  0
   10.0021  -13.1624   27.1063 C   0  0  0  0  0  0  0  0  0  0  0  0
    9.8079  -13.3485   28.4576 C   0  0  0  0  0  0  0  0  0  0  0  0
   10.2780  -14.5004   29.0505 C   0  0  0  0  0  0  0  0  0  0  0  0
   10.9423  -15.4839   28.3345 C   0  0  0  0  0  0  0  0  0  0  0  0
    9.8061  -17.6020   26.4793 C   0  0  0  0  0  0  0  0  0  0  0  0
   10.1910  -18.4163   27.5630 O   0  0  0  0  0  0  0  0  0  0  0  0
    8.6279  -17.1851   26.3876 O   0  0  0  0  0  0  0  0  0  0  0  0
  2  3  1  0
  2  1  1  6
  4  2  1  0
  4  5  1  6
  6  4  1  0
  6  7  2  0
  8  6  1  0
  9  8  1  0
  9 10  1  1
 11 10  1  0
 12 11  2  0
 13 14  1  0
 13 12  1  0
 14 19  2  0
 15 14  1  0
 15 16  2  0
 16 17  1  0
 17 18  2  0
 19 11  1  0
 19 18  1  0
 20  9  1  0
 21 20  2  0
 22 20  1  0
 23 31  1  0
 23 22  1  0
 24 25  1  0
 23 24  1  1
 25 26  2  0
 26 27  1  0
 28 27  2  0
 29 28  1  0
 30 25  1  0
 30 29  2  0
 31 32  1  0
 33 31  2  0
M  END
$$$$
