TWF.pdb
     RDKit          3D

 33 35  0  0  1  0  0  0  0  0999 V2000
   12.3122  -17.4374   17.4854 C   0  0  0  0  0  0  0  0  0  0  0  0
   11.9343  -16.7815   18.7697 C   0  0  1  0  0  0  0  0  0  0  0  0
   11.1030  -15.6697   18.5340 O   0  0  0  0  0  0  0  0  0  0  0  0
   11.3272  -17.7142   19.7829 C   0  0  2  0  0  0  0  0  0  0  0  0
   10.1878  -18.3532   19.1541 N   0  0  0  0  0  0  0  0  0  0  0  0
   10.8983  -17.0561   21.0197 C   0  0  0  0  0  0  0  0  0  0  0  0
   11.7510  -16.5074   21.7823 O   0  0  0  0  0  0  0  0  0  0  0  0
    9.5479  -16.9789   21.4536 N   0  0  0  0  0  0  0  0  0  0  0  0
    9.1615  -16.4722   22.7656 C   0  0  1  0  0  0  0  0  0  0  0  0
    7.6657  -16.2643   22.8142 C   0  0  0  0  0  0  0  0  0  0  0  0
    7.1573  -15.6437   24.0369 C   0  0  0  0  0  0  0  0  0  0  0  0
    6.5294  -16.4171   25.0271 C   0  0  0  0  0  0  0  0  0  0  0  0
    6.2048  -15.5845   26.0256 N   0  0  0  0  0  0  0  0  0  0  0  0
    6.5814  -14.3207   25.7462 C   0  0  0  0  0  0  0  0  0  0  0  0
    6.4582  -13.1394   26.4523 C   0  0  0  0  0  0  0  0  0  0  0  0
    6.9446  -11.9882   25.8852 C   0  0  0  0  0  0  0  0  0  0  0  0
    7.5441  -11.9855   24.6445 C   0  0  0  0  0  0  0  0  0  0  0  0
    7.6554  -13.1720   23.9615 C   0  0  0  0  0  0  0  0  0  0  0  0
    7.1860  -14.3559   24.4833 C   0  0  0  0  0  0  0  0  0  0  0  0
    9.6505  -17.2649   23.8895 C   0  0  0  0  0  0  0  0  0  0  0  0
    9.5723  -18.5346   23.9401 O   0  0  0  0  0  0  0  0  0  0  0  0
   10.2771  -16.6706   25.0453 N   0  0  0  0  0  0  0  0  0  0  0  0
   10.9339  -17.4928   26.0597 C   0  0  1  0  0  0  0  0  0  0  0  0
   11.7034  -16.4557   26.9049 C   0  0  0  0  0  0  0  0  0  0  0  0
   10.8550  -15.4328   27.4903 C   0  0  0  0  0  0  0  0  0  0  0  0
    9.6836  -15.0714   26.8723 C   0  0  0  0  0  0  0  0  0  0  0  0
    8.8294  -14.1212   27.3738 C   0  0  0  0  0  0  0  0  0  0  0  0
    9.1713  -13.5036   28.5570 C   0  0  0  0  0  0  0  0  0  0  0  0
   10.3453  -13.8599   29.1848 C   0  0  0  0  0  0  0  0  0  0  0  0
   11.1994  -14.8213   28.6678 C   0  0  0  0  0  0  0  0  0  0  0  0
    9.9659  -18.1282   26.9808 C   0  0  0  0  0  0  0  0  0  0  0  0
    8.6013  -17.8895   26.7230 O   0  0  0  0  0  0  0  0  0  0  0  0
   10.3115  -18.8453   27.9486 O   0  0  0  0  0  0  0  0  0  0  0  0
  2  3  1  0
  2  1  1  6
  4  2  1  0
  4  5  1  6
  6  4  1  0
  6  7  2  0
  8  6  1  0
  9  8  1  0
  9 10  1  6
 11 10  1  0
 12 11  2  0
 13 14  1  0
 13 12  1  0
 14 19  2  0
 15 14  1  0
 15 16  2  0
 16 17  1  0
 17 18  2  0
 19 11  1  0
 19 18  1  0
 20  9  1  0
 21 20  2  0
 22 20  1  0
 23 31  1  0
 23 22  1  0
 24 25  1  0
 23 24  1  1
 25 26  2  0
 26 27  1  0
 28 27  2  0
 29 28  1  0
 30 25  1  0
 30 29  2  0
 31 32  1  0
 33 31  2  0
M  END
$$$$
