TWF.pdb
     RDKit          3D

 33 35  0  0  1  0  0  0  0  0999 V2000
   11.5730  -20.0138   19.4698 C   0  0  0  0  0  0  0  0  0  0  0  0
   11.2372  -18.9270   20.4334 C   0  0  1  0  0  0  0  0  0  0  0  0
   12.4019  -18.2523   20.8470 O   0  0  0  0  0  0  0  0  0  0  0  0
   10.1934  -17.9634   19.9365 C   0  0  2  0  0  0  0  0  0  0  0  0
   10.6966  -17.3754   18.7105 N   0  0  0  0  0  0  0  0  0  0  0  0
    9.8598  -16.9005   20.8880 C   0  0  0  0  0  0  0  0  0  0  0  0
   10.4173  -15.7642   20.8007 O   0  0  0  0  0  0  0  0  0  0  0  0
    8.9228  -17.0442   21.9459 N   0  0  0  0  0  0  0  0  0  0  0  0
    8.6439  -15.9867   22.9111 C   0  0  1  0  0  0  0  0  0  0  0  0
    7.3653  -16.2958   23.6544 C   0  0  0  0  0  0  0  0  0  0  0  0
    6.9543  -15.2962   24.6396 C   0  0  0  0  0  0  0  0  0  0  0  0
    6.4169  -15.6865   25.8772 C   0  0  0  0  0  0  0  0  0  0  0  0
    6.1688  -14.5646   26.5666 N   0  0  0  0  0  0  0  0  0  0  0  0
    6.5101  -13.4717   25.8552 C   0  0  0  0  0  0  0  0  0  0  0  0
    6.4356  -12.1213   26.1380 C   0  0  0  0  0  0  0  0  0  0  0  0
    6.8636  -11.2318   25.1844 C   0  0  0  0  0  0  0  0  0  0  0  0
    7.3586  -11.6510   23.9686 C   0  0  0  0  0  0  0  0  0  0  0  0
    7.4233  -12.9984   23.7103 C   0  0  0  0  0  0  0  0  0  0  0  0
    7.0088  -13.9341   24.6307 C   0  0  0  0  0  0  0  0  0  0  0  0
    9.7514  -15.6802   23.8111 C   0  0  0  0  0  0  0  0  0  0  0  0
   10.2814  -14.5266   23.9050 O   0  0  0  0  0  0  0  0  0  0  0  0
   10.3391  -16.6671   24.6843 N   0  0  0  0  0  0  0  0  0  0  0  0
   11.6694  -16.4762   25.2592 C   0  0  1  0  0  0  0  0  0  0  0  0
   11.4568  -16.8133   26.7502 C   0  0  0  0  0  0  0  0  0  0  0  0
   10.6607  -15.8308   27.4643 C   0  0  0  0  0  0  0  0  0  0  0  0
   11.0439  -14.5127   27.4808 C   0  0  0  0  0  0  0  0  0  0  0  0
   10.3349  -13.5301   28.1257 C   0  0  0  0  0  0  0  0  0  0  0  0
    9.1820  -13.8924   28.7873 C   0  0  0  0  0  0  0  0  0  0  0  0
    8.7891  -15.2134   28.7762 C   0  0  0  0  0  0  0  0  0  0  0  0
    9.5142  -16.1962   28.1209 C   0  0  0  0  0  0  0  0  0  0  0  0
   12.6465  -17.4662   24.7552 C   0  0  0  0  0  0  0  0  0  0  0  0
   13.9508  -17.3886   25.2828 O   0  0  0  0  0  0  0  0  0  0  0  0
   12.3589  -18.3391   23.9032 O   0  0  0  0  0  0  0  0  0  0  0  0
  2  3  1  0
  2  1  1  6
  4  2  1  0
  4  5  1  6
  6  4  1  0
  6  7  2  0
  8  6  1  0
  9  8  1  0
  9 10  1  1
 11 10  1  0
 12 11  2  0
 13 14  1  0
 13 12  1  0
 14 19  2  0
 15 14  1  0
 15 16  2  0
 16 17  1  0
 17 18  2  0
 19 11  1  0
 19 18  1  0
 20  9  1  0
 21 20  2  0
 22 20  1  0
 23 31  1  0
 23 22  1  0
 24 25  1  0
 23 24  1  1
 25 26  2  0
 26 27  1  0
 28 27  2  0
 29 28  1  0
 30 25  1  0
 30 29  2  0
 31 32  1  0
 33 31  2  0
M  END
$$$$
