TWF.pdb
     RDKit          3D

 33 35  0  0  1  0  0  0  0  0999 V2000
   10.8554  -18.6249   18.8618 C   0  0  0  0  0  0  0  0  0  0  0  0
   10.8553  -18.1835   20.2857 C   0  0  1  0  0  0  0  0  0  0  0  0
   12.1174  -17.6750   20.6483 O   0  0  0  0  0  0  0  0  0  0  0  0
    9.7554  -17.2161   20.6311 C   0  0  2  0  0  0  0  0  0  0  0  0
    9.9059  -16.0631   19.7652 N   0  0  0  0  0  0  0  0  0  0  0  0
    9.7593  -16.7813   22.0302 C   0  0  0  0  0  0  0  0  0  0  0  0
   10.3368  -15.7020   22.3641 O   0  0  0  0  0  0  0  0  0  0  0  0
    9.1430  -17.5000   23.0892 N   0  0  0  0  0  0  0  0  0  0  0  0
    9.2779  -17.1223   24.4915 C   0  0  1  0  0  0  0  0  0  0  0  0
    7.9412  -17.2431   25.1854 C   0  0  0  0  0  0  0  0  0  0  0  0
    7.0923  -16.0538   25.1245 C   0  0  0  0  0  0  0  0  0  0  0  0
    5.7177  -16.1658   24.8581 C   0  0  0  0  0  0  0  0  0  0  0  0
    5.2101  -14.9263   24.8972 N   0  0  0  0  0  0  0  0  0  0  0  0
    6.1673  -14.0176   25.1714 C   0  0  0  0  0  0  0  0  0  0  0  0
    6.1290  -12.6430   25.3055 C   0  0  0  0  0  0  0  0  0  0  0  0
    7.2996  -11.9833   25.5850 C   0  0  0  0  0  0  0  0  0  0  0  0
    8.4948  -12.6531   25.7323 C   0  0  0  0  0  0  0  0  0  0  0  0
    8.5080  -14.0197   25.5947 C   0  0  0  0  0  0  0  0  0  0  0  0
    7.3636  -14.7316   25.3156 C   0  0  0  0  0  0  0  0  0  0  0  0
   10.3421  -17.8193   25.2072 C   0  0  0  0  0  0  0  0  0  0  0  0
   10.8809  -18.8950   24.7907 O   0  0  0  0  0  0  0  0  0  0  0  0
   10.8836  -17.3386   26.4552 N   0  0  0  0  0  0  0  0  0  0  0  0
   11.8351  -18.1357   27.2270 C   0  0  1  0  0  0  0  0  0  0  0  0
   11.8705  -17.4131   28.5903 C   0  0  0  0  0  0  0  0  0  0  0  0
   11.3591  -16.0546   28.5457 C   0  0  0  0  0  0  0  0  0  0  0  0
   11.4908  -15.3051   27.4032 C   0  0  0  0  0  0  0  0  0  0  0  0
   11.0224  -14.0201   27.2871 C   0  0  0  0  0  0  0  0  0  0  0  0
   10.3895  -13.4613   28.3758 C   0  0  0  0  0  0  0  0  0  0  0  0
   10.2524  -14.2061   29.5273 C   0  0  0  0  0  0  0  0  0  0  0  0
   10.7300  -15.5031   29.6316 C   0  0  0  0  0  0  0  0  0  0  0  0
   11.3313  -19.4990   27.5040 C   0  0  0  0  0  0  0  0  0  0  0  0
   12.2532  -20.4113   28.0545 O   0  0  0  0  0  0  0  0  0  0  0  0
   10.1521  -19.8533   27.2707 O   0  0  0  0  0  0  0  0  0  0  0  0
  2  3  1  0
  2  1  1  6
  4  2  1  0
  4  5  1  6
  6  4  1  0
  6  7  2  0
  8  6  1  0
  9  8  1  0
  9 10  1  1
 11 10  1  0
 12 11  2  0
 13 14  1  0
 13 12  1  0
 14 19  2  0
 15 14  1  0
 15 16  2  0
 16 17  1  0
 17 18  2  0
 19 11  1  0
 19 18  1  0
 20  9  1  0
 21 20  2  0
 22 20  1  0
 23 31  1  0
 23 22  1  0
 24 25  1  0
 23 24  1  1
 25 26  2  0
 26 27  1  0
 28 27  2  0
 29 28  1  0
 30 25  1  0
 30 29  2  0
 31 32  1  0
 33 31  2  0
M  END
$$$$
