TWF.pdb
     RDKit          3D

 33 35  0  0  1  0  0  0  0  0999 V2000
    8.9246  -15.5819   16.8619 C   0  0  0  0  0  0  0  0  0  0  0  0
    9.1503  -15.5629   18.3353 C   0  0  1  0  0  0  0  0  0  0  0  0
   10.4402  -15.0837   18.6343 O   0  0  0  0  0  0  0  0  0  0  0  0
    8.0966  -14.8192   19.1109 C   0  0  2  0  0  0  0  0  0  0  0  0
    8.0523  -13.4661   18.5922 N   0  0  0  0  0  0  0  0  0  0  0  0
    8.3330  -14.7817   20.5563 C   0  0  0  0  0  0  0  0  0  0  0  0
    8.9900  -13.8275   21.0735 O   0  0  0  0  0  0  0  0  0  0  0  0
    7.8668  -15.7688   21.4652 N   0  0  0  0  0  0  0  0  0  0  0  0
    8.2022  -15.7653   22.8847 C   0  0  1  0  0  0  0  0  0  0  0  0
    7.0487  -16.3235   23.6850 C   0  0  0  0  0  0  0  0  0  0  0  0
    6.5495  -15.4594   24.7540 C   0  0  0  0  0  0  0  0  0  0  0  0
    5.7028  -15.9685   25.7524 C   0  0  0  0  0  0  0  0  0  0  0  0
    5.4428  -14.9601   26.5957 N   0  0  0  0  0  0  0  0  0  0  0  0
    6.0660  -13.8295   26.2079 C   0  0  0  0  0  0  0  0  0  0  0  0
    6.0935  -12.5560   26.7433 C   0  0  0  0  0  0  0  0  0  0  0  0
    6.8306  -11.5945   26.0985 C   0  0  0  0  0  0  0  0  0  0  0  0
    7.5334  -11.8682   24.9453 C   0  0  0  0  0  0  0  0  0  0  0  0
    7.4913  -13.1415   24.4320 C   0  0  0  0  0  0  0  0  0  0  0  0
    6.7691  -14.1443   25.0380 C   0  0  0  0  0  0  0  0  0  0  0  0
    9.4700  -16.4116   23.2095 C   0  0  0  0  0  0  0  0  0  0  0  0
    9.8616  -17.4983   22.6743 O   0  0  0  0  0  0  0  0  0  0  0  0
   10.3986  -15.8634   24.1681 N   0  0  0  0  0  0  0  0  0  0  0  0
   11.6569  -16.5395   24.4784 C   0  0  1  0  0  0  0  0  0  0  0  0
   12.3336  -15.5763   25.4766 C   0  0  0  0  0  0  0  0  0  0  0  0
   11.5738  -15.3699   26.6969 C   0  0  0  0  0  0  0  0  0  0  0  0
   10.7104  -14.3077   26.8006 C   0  0  0  0  0  0  0  0  0  0  0  0
    9.9539  -14.0582   27.9184 C   0  0  0  0  0  0  0  0  0  0  0  0
   10.0723  -14.9213   28.9857 C   0  0  0  0  0  0  0  0  0  0  0  0
   10.9365  -15.9907   28.8909 C   0  0  0  0  0  0  0  0  0  0  0  0
   11.6950  -16.2316   27.7561 C   0  0  0  0  0  0  0  0  0  0  0  0
   11.4476  -17.8053   25.2152 C   0  0  0  0  0  0  0  0  0  0  0  0
   12.5889  -18.6017   25.4356 O   0  0  0  0  0  0  0  0  0  0  0  0
   10.3259  -18.1768   25.6326 O   0  0  0  0  0  0  0  0  0  0  0  0
  2  3  1  0
  2  1  1  6
  4  2  1  0
  4  5  1  6
  6  4  1  0
  6  7  2  0
  8  6  1  0
  9  8  1  0
  9 10  1  1
 11 10  1  0
 12 11  2  0
 13 14  1  0
 13 12  1  0
 14 19  2  0
 15 14  1  0
 15 16  2  0
 16 17  1  0
 17 18  2  0
 19 11  1  0
 19 18  1  0
 20  9  1  0
 21 20  2  0
 22 20  1  0
 23 31  1  0
 23 22  1  0
 24 25  1  0
 23 24  1  1
 25 26  2  0
 26 27  1  0
 28 27  2  0
 29 28  1  0
 30 25  1  0
 30 29  2  0
 31 32  1  0
 33 31  2  0
M  END
$$$$
