TWF.pdb
     RDKit          3D

 33 35  0  0  1  0  0  0  0  0999 V2000
   11.1275  -19.9735   23.2520 C   0  0  0  0  0  0  0  0  0  0  0  0
   11.2682  -19.5598   21.8268 C   0  0  1  0  0  0  0  0  0  0  0  0
   11.4290  -20.6855   20.9962 O   0  0  0  0  0  0  0  0  0  0  0  0
   10.1619  -18.6677   21.3317 C   0  0  2  0  0  0  0  0  0  0  0  0
   10.3019  -18.5634   19.8924 N   0  0  0  0  0  0  0  0  0  0  0  0
   10.1657  -17.3268   21.9221 C   0  0  0  0  0  0  0  0  0  0  0  0
   11.0738  -16.4950   21.6172 O   0  0  0  0  0  0  0  0  0  0  0  0
    9.1939  -16.8618   22.8480 N   0  0  0  0  0  0  0  0  0  0  0  0
    9.2151  -15.5187   23.4165 C   0  0  1  0  0  0  0  0  0  0  0  0
    7.8551  -14.8777   23.2669 C   0  0  0  0  0  0  0  0  0  0  0  0
    7.3592  -14.7697   21.8954 C   0  0  0  0  0  0  0  0  0  0  0  0
    6.3584  -15.6350   21.4236 C   0  0  0  0  0  0  0  0  0  0  0  0
    6.0955  -15.2759   20.1597 N   0  0  0  0  0  0  0  0  0  0  0  0
    6.8620  -14.2336   19.7813 C   0  0  0  0  0  0  0  0  0  0  0  0
    6.9525  -13.5325   18.5941 C   0  0  0  0  0  0  0  0  0  0  0  0
    7.8562  -12.5028   18.5134 C   0  0  0  0  0  0  0  0  0  0  0  0
    8.6636  -12.1585   19.5756 C   0  0  0  0  0  0  0  0  0  0  0  0
    8.5556  -12.8697   20.7457 C   0  0  0  0  0  0  0  0  0  0  0  0
    7.6657  -13.9108   20.8821 C   0  0  0  0  0  0  0  0  0  0  0  0
    9.7168  -15.4479   24.7854 C   0  0  0  0  0  0  0  0  0  0  0  0
   10.2282  -14.3982   25.2925 O   0  0  0  0  0  0  0  0  0  0  0  0
    9.6675  -16.5708   25.6902 N   0  0  0  0  0  0  0  0  0  0  0  0
   10.0599  -16.4343   27.0916 C   0  0  1  0  0  0  0  0  0  0  0  0
    8.7135  -16.2045   27.8102 C   0  0  0  0  0  0  0  0  0  0  0  0
    8.1089  -14.9161   27.5217 C   0  0  0  0  0  0  0  0  0  0  0  0
    8.7250  -13.7585   27.9277 C   0  0  0  0  0  0  0  0  0  0  0  0
    8.2166  -12.5078   27.6805 C   0  0  0  0  0  0  0  0  0  0  0  0
    7.0280  -12.4175   26.9896 C   0  0  0  0  0  0  0  0  0  0  0  0
    6.4020  -13.5741   26.5777 C   0  0  0  0  0  0  0  0  0  0  0  0
    6.9261  -14.8314   26.8337 C   0  0  0  0  0  0  0  0  0  0  0  0
   10.6062  -17.6921   27.6470 C   0  0  0  0  0  0  0  0  0  0  0  0
   11.1160  -17.6320   28.9592 O   0  0  0  0  0  0  0  0  0  0  0  0
   10.6290  -18.7696   27.0075 O   0  0  0  0  0  0  0  0  0  0  0  0
  2  3  1  0
  2  1  1  1
  4  2  1  0
  4  5  1  6
  6  4  1  0
  6  7  2  0
  8  6  1  0
  9  8  1  0
  9 10  1  1
 11 10  1  0
 12 11  2  0
 13 14  1  0
 13 12  1  0
 14 19  2  0
 15 14  1  0
 15 16  2  0
 16 17  1  0
 17 18  2  0
 19 11  1  0
 19 18  1  0
 20  9  1  0
 21 20  2  0
 22 20  1  0
 23 31  1  0
 23 22  1  0
 24 25  1  0
 23 24  1  1
 25 26  2  0
 26 27  1  0
 28 27  2  0
 29 28  1  0
 30 25  1  0
 30 29  2  0
 31 32  1  0
 33 31  2  0
M  END
$$$$
