TWF.pdb
     RDKit          3D

 33 35  0  0  1  0  0  0  0  0999 V2000
   13.1064  -18.5220   19.1309 C   0  0  0  0  0  0  0  0  0  0  0  0
   12.4739  -18.0597   20.3992 C   0  0  1  0  0  0  0  0  0  0  0  0
   13.3647  -18.2045   21.4802 O   0  0  0  0  0  0  0  0  0  0  0  0
   11.9126  -16.6648   20.3354 C   0  0  2  0  0  0  0  0  0  0  0  0
   13.0124  -15.7695   20.0341 N   0  0  0  0  0  0  0  0  0  0  0  0
   11.2510  -16.2297   21.5681 C   0  0  0  0  0  0  0  0  0  0  0  0
   11.8933  -15.5715   22.4420 O   0  0  0  0  0  0  0  0  0  0  0  0
    9.8905  -16.4959   21.8782 N   0  0  0  0  0  0  0  0  0  0  0  0
    9.3092  -16.2410   23.1914 C   0  0  1  0  0  0  0  0  0  0  0  0
    7.8184  -16.0328   23.0600 C   0  0  0  0  0  0  0  0  0  0  0  0
    7.1641  -15.4279   24.2196 C   0  0  0  0  0  0  0  0  0  0  0  0
    6.3909  -16.2074   25.0955 C   0  0  0  0  0  0  0  0  0  0  0  0
    5.9538  -15.3902   26.0633 N   0  0  0  0  0  0  0  0  0  0  0  0
    6.3935  -14.1305   25.8709 C   0  0  0  0  0  0  0  0  0  0  0  0
    6.2035  -12.9633   26.5855 C   0  0  0  0  0  0  0  0  0  0  0  0
    6.7882  -11.8123   26.1198 C   0  0  0  0  0  0  0  0  0  0  0  0
    7.5495  -11.7964   24.9713 C   0  0  0  0  0  0  0  0  0  0  0  0
    7.7246  -12.9691   24.2780 C   0  0  0  0  0  0  0  0  0  0  0  0
    7.1620  -14.1521   24.7001 C   0  0  0  0  0  0  0  0  0  0  0  0
    9.6456  -17.2347   24.2063 C   0  0  0  0  0  0  0  0  0  0  0  0
    9.9133  -18.4500   23.9378 O   0  0  0  0  0  0  0  0  0  0  0  0
    9.7114  -16.9178   25.6124 N   0  0  0  0  0  0  0  0  0  0  0  0
   10.1962  -17.8920   26.5883 C   0  0  1  0  0  0  0  0  0  0  0  0
    9.6883  -17.3239   27.9304 C   0  0  0  0  0  0  0  0  0  0  0  0
    9.7435  -15.8750   28.0106 C   0  0  0  0  0  0  0  0  0  0  0  0
    8.5840  -15.1405   28.0304 C   0  0  0  0  0  0  0  0  0  0  0  0
    8.5613  -13.7707   28.1155 C   0  0  0  0  0  0  0  0  0  0  0  0
    9.7665  -13.1066   28.1842 C   0  0  0  0  0  0  0  0  0  0  0  0
   10.9360  -13.8355   28.1652 C   0  0  0  0  0  0  0  0  0  0  0  0
   10.9452  -15.2189   28.0790 C   0  0  0  0  0  0  0  0  0  0  0  0
    9.5459  -19.2121   26.4349 C   0  0  0  0  0  0  0  0  0  0  0  0
   10.0223  -20.2487   27.2618 O   0  0  0  0  0  0  0  0  0  0  0  0
    8.6184  -19.4275   25.6201 O   0  0  0  0  0  0  0  0  0  0  0  0
  2  3  1  0
  2  1  1  6
  4  2  1  0
  4  5  1  1
  6  4  1  0
  6  7  2  0
  8  6  1  0
  9  8  1  0
  9 10  1  6
 11 10  1  0
 12 11  2  0
 13 14  1  0
 13 12  1  0
 14 19  2  0
 15 14  1  0
 15 16  2  0
 16 17  1  0
 17 18  2  0
 19 11  1  0
 19 18  1  0
 20  9  1  0
 21 20  2  0
 22 20  1  0
 23 31  1  0
 23 22  1  0
 24 25  1  0
 23 24  1  1
 25 26  2  0
 26 27  1  0
 28 27  2  0
 29 28  1  0
 30 25  1  0
 30 29  2  0
 31 32  1  0
 33 31  2  0
M  END
$$$$
