IDF.pdb
     RDKit          3D

 28 28  0  0  1  0  0  0  0  0999 V2000
   25.2551  -14.5598  -17.4622 C   0  0  0  0  0  0  0  0  0  0  0  0
   25.7005  -15.0739  -16.1102 C   0  0  0  0  0  0  0  0  0  0  0  0
   25.5569  -16.5760  -16.0142 C   0  0  2  0  0  0  0  0  0  0  0  0
   24.1285  -17.0024  -16.2647 C   0  0  0  0  0  0  0  0  0  0  0  0
   25.9598  -17.0990  -14.6624 C   0  0  2  0  0  0  0  0  0  0  0  0
   27.3099  -16.7209  -14.3065 N   0  0  0  0  0  0  0  0  0  0  0  0
   25.7940  -18.5465  -14.5263 C   0  0  0  0  0  0  0  0  0  0  0  0
   24.6776  -19.0643  -14.7521 O   0  0  0  0  0  0  0  0  0  0  0  0
   26.9161  -19.3316  -14.1377 N   0  0  0  0  0  0  0  0  0  0  0  0
   26.7794  -20.7403  -13.9614 C   0  0  1  0  0  0  0  0  0  0  0  0
   27.9905  -21.5329  -14.3741 C   0  0  0  0  0  0  0  0  0  0  0  0
   28.2417  -21.4239  -15.8245 C   0  0  0  0  0  0  0  0  0  0  0  0
   27.2660  -21.3669  -16.6391 O   0  0  0  0  0  0  0  0  0  0  0  0
   26.4293  -21.0433  -12.5511 C   0  0  0  0  0  0  0  0  0  0  0  0
   27.1165  -21.8961  -11.8971 O   0  0  0  0  0  0  0  0  0  0  0  0
   29.4999  -21.3757  -16.4081 O   0  0  0  0  0  0  0  0  0  0  0  0
   25.3630  -20.4457  -11.8505 N   0  0  0  0  0  0  0  0  0  0  0  0
   24.9189  -20.8929  -10.5531 C   0  0  1  0  0  0  0  0  0  0  0  0
   25.2109  -19.8839   -9.4682 C   0  0  0  0  0  0  0  0  0  0  0  0
   26.5061  -20.1227   -8.7781 C   0  0  0  0  0  0  0  0  0  0  0  0
   26.9869  -19.2082   -7.8306 C   0  0  0  0  0  0  0  0  0  0  0  0
   28.1874  -19.4152   -7.1885 C   0  0  0  0  0  0  0  0  0  0  0  0
   28.9618  -20.5226   -7.4483 C   0  0  0  0  0  0  0  0  0  0  0  0
   28.5044  -21.4315   -8.3766 C   0  0  0  0  0  0  0  0  0  0  0  0
   27.2878  -21.2271   -9.0313 C   0  0  0  0  0  0  0  0  0  0  0  0
   23.4705  -21.1191  -10.6143 C   0  0  0  0  0  0  0  0  0  0  0  0
   22.7975  -21.6713   -9.5444 O   0  0  0  0  0  0  0  0  0  0  0  0
   22.8301  -20.8146  -11.6377 O   0  0  0  0  0  0  0  0  0  0  0  0
  2  1  1  0
  3  5  1  0
  3  2  1  0
  3  4  1  1
  5  6  1  6
  7  5  1  0
  7  8  2  0
  9  7  1  0
 10  9  1  0
 10 11  1  1
 12 11  1  0
 12 16  1  0
 13 12  2  0
 14 10  1  0
 15 14  2  0
 17 14  1  0
 18 17  1  0
 18 26  1  0
 18 19  1  1
 20 25  2  0
 20 19  1  0
 21 20  1  0
 22 23  1  0
 22 21  2  0
 23 24  2  0
 24 25  1  0
 26 28  2  0
 26 27  1  0
M  END
$$$$
