IDF.pdb
     RDKit          3D

 28 28  0  0  1  0  0  0  0  0999 V2000
   17.6379  -14.7015  -18.2713 C   0  0  0  0  0  0  0  0  0  0  0  0
   17.8613  -13.9951  -16.9516 C   0  0  0  0  0  0  0  0  0  0  0  0
   17.4104  -12.5531  -17.0121 C   0  0  2  0  0  0  0  0  0  0  0  0
   18.1947  -11.7816  -18.0487 C   0  0  0  0  0  0  0  0  0  0  0  0
   17.5806  -11.8498  -15.6931 C   0  0  2  0  0  0  0  0  0  0  0  0
   16.9352  -12.5542  -14.6070 N   0  0  0  0  0  0  0  0  0  0  0  0
   17.1385  -10.4552  -15.7169 C   0  0  0  0  0  0  0  0  0  0  0  0
   17.5621   -9.6880  -16.6098 O   0  0  0  0  0  0  0  0  0  0  0  0
   16.2315  -10.0063  -14.7156 N   0  0  0  0  0  0  0  0  0  0  0  0
   15.7589   -8.6607  -14.7271 C   0  0  1  0  0  0  0  0  0  0  0  0
   14.3789   -8.4879  -14.1518 C   0  0  0  0  0  0  0  0  0  0  0  0
   13.3976   -9.3621  -14.8237 C   0  0  0  0  0  0  0  0  0  0  0  0
   12.7037  -10.1839  -14.1440 O   0  0  0  0  0  0  0  0  0  0  0  0
   16.7199   -7.7794  -14.0179 C   0  0  0  0  0  0  0  0  0  0  0  0
   17.3540   -8.2208  -13.0030 O   0  0  0  0  0  0  0  0  0  0  0  0
   13.1507   -9.3713  -16.1893 O   0  0  0  0  0  0  0  0  0  0  0  0
   16.9993   -6.4485  -14.3863 N   0  0  0  0  0  0  0  0  0  0  0  0
   18.2013   -5.7543  -13.9940 C   0  0  1  0  0  0  0  0  0  0  0  0
   19.4494   -6.4441  -14.4907 C   0  0  0  0  0  0  0  0  0  0  0  0
   20.6972   -5.7025  -14.1687 C   0  0  0  0  0  0  0  0  0  0  0  0
   21.4070   -5.9806  -12.9922 C   0  0  0  0  0  0  0  0  0  0  0  0
   22.5610   -5.2973  -12.6799 C   0  0  0  0  0  0  0  0  0  0  0  0
   23.0638   -4.3176  -13.5051 C   0  0  0  0  0  0  0  0  0  0  0  0
   22.3790   -4.0314  -14.6653 C   0  0  0  0  0  0  0  0  0  0  0  0
   21.2079   -4.7209  -14.9876 C   0  0  0  0  0  0  0  0  0  0  0  0
   18.1536   -4.3983  -14.5522 C   0  0  0  0  0  0  0  0  0  0  0  0
   18.7814   -3.3501  -13.9121 O   0  0  0  0  0  0  0  0  0  0  0  0
   17.5422   -4.1775  -15.6142 O   0  0  0  0  0  0  0  0  0  0  0  0
  2  1  1  0
  3  5  1  0
  3  2  1  0
  3  4  1  6
  5  6  1  1
  7  5  1  0
  7  8  2  0
  9  7  1  0
 10  9  1  0
 10 11  1  1
 12 11  1  0
 12 16  1  0
 13 12  2  0
 14 10  1  0
 15 14  2  0
 17 14  1  0
 18 17  1  0
 18 26  1  0
 18 19  1  6
 20 25  2  0
 20 19  1  0
 21 20  1  0
 22 23  1  0
 22 21  2  0
 23 24  2  0
 24 25  1  0
 26 28  2  0
 26 27  1  0
M  END
$$$$
