IDF.pdb
     RDKit          3D

 28 28  0  0  1  0  0  0  0  0999 V2000
   21.0094  -25.5550  -14.5584 C   0  0  0  0  0  0  0  0  0  0  0  0
   22.2027  -24.6361  -14.7066 C   0  0  0  0  0  0  0  0  0  0  0  0
   23.2728  -25.2542  -15.5778 C   0  0  2  0  0  0  0  0  0  0  0  0
   23.8545  -26.4897  -14.9298 C   0  0  0  0  0  0  0  0  0  0  0  0
   24.4061  -24.3018  -15.8459 C   0  0  2  0  0  0  0  0  0  0  0  0
   23.9455  -23.0280  -16.3533 N   0  0  0  0  0  0  0  0  0  0  0  0
   25.4303  -24.8526  -16.7341 C   0  0  0  0  0  0  0  0  0  0  0  0
   25.1345  -25.1385  -17.9157 O   0  0  0  0  0  0  0  0  0  0  0  0
   26.7451  -25.0495  -16.2253 N   0  0  0  0  0  0  0  0  0  0  0  0
   27.7749  -25.5529  -17.0741 C   0  0  1  0  0  0  0  0  0  0  0  0
   28.9569  -24.6327  -17.2204 C   0  0  0  0  0  0  0  0  0  0  0  0
   28.5942  -23.3933  -17.9352 C   0  0  0  0  0  0  0  0  0  0  0  0
   27.8120  -23.4397  -18.9376 O   0  0  0  0  0  0  0  0  0  0  0  0
   28.2227  -26.8840  -16.5937 C   0  0  0  0  0  0  0  0  0  0  0  0
   28.5168  -27.0474  -15.3633 O   0  0  0  0  0  0  0  0  0  0  0  0
   29.0478  -22.1252  -17.6004 O   0  0  0  0  0  0  0  0  0  0  0  0
   28.3544  -28.0222  -17.4137 N   0  0  0  0  0  0  0  0  0  0  0  0
   28.6289  -29.3413  -16.8987 C   0  0  1  0  0  0  0  0  0  0  0  0
   27.7398  -30.3940  -17.5165 C   0  0  0  0  0  0  0  0  0  0  0  0
   26.3003  -30.2097  -17.1930 C   0  0  0  0  0  0  0  0  0  0  0  0
   25.7188  -30.8960  -16.1179 C   0  0  0  0  0  0  0  0  0  0  0  0
   24.3857  -30.7380  -15.8113 C   0  0  0  0  0  0  0  0  0  0  0  0
   23.5721  -29.9040  -16.5435 C   0  0  0  0  0  0  0  0  0  0  0  0
   24.1270  -29.2218  -17.6034 C   0  0  0  0  0  0  0  0  0  0  0  0
   25.4785  -29.3779  -17.9195 C   0  0  0  0  0  0  0  0  0  0  0  0
   30.0285  -29.6690  -17.1929 C   0  0  0  0  0  0  0  0  0  0  0  0
   30.7854  -28.8571  -18.0116 O   0  0  0  0  0  0  0  0  0  0  0  0
   30.5505  -30.6889  -16.7053 O   0  0  0  0  0  0  0  0  0  0  0  0
  2  1  1  0
  3  5  1  0
  3  2  1  0
  3  4  1  1
  5  6  1  6
  7  5  1  0
  7  8  2  0
  9  7  1  0
 10  9  1  0
 10 11  1  1
 12 11  1  0
 12 16  1  0
 13 12  2  0
 14 10  1  0
 15 14  2  0
 17 14  1  0
 18 17  1  0
 18 26  1  0
 18 19  1  6
 20 25  2  0
 20 19  1  0
 21 20  1  0
 22 23  1  0
 22 21  2  0
 23 24  2  0
 24 25  1  0
 26 28  2  0
 26 27  1  0
M  END
$$$$
