IDF.pdb
     RDKit          3D

 28 28  0  0  1  0  0  0  0  0999 V2000
   21.1841  -17.6920  -16.5771 C   0  0  0  0  0  0  0  0  0  0  0  0
   22.3804  -17.4260  -15.6889 C   0  0  0  0  0  0  0  0  0  0  0  0
   22.7393  -18.6418  -14.8647 C   0  0  2  0  0  0  0  0  0  0  0  0
   21.6056  -19.0268  -13.9421 C   0  0  0  0  0  0  0  0  0  0  0  0
   23.9607  -18.4118  -14.0170 C   0  0  2  0  0  0  0  0  0  0  0  0
   25.0951  -17.9665  -14.7962 N   0  0  0  0  0  0  0  0  0  0  0  0
   24.3345  -19.5733  -13.2092 C   0  0  0  0  0  0  0  0  0  0  0  0
   23.4512  -20.2006  -12.5835 O   0  0  0  0  0  0  0  0  0  0  0  0
   25.7034  -19.9605  -13.1574 N   0  0  0  0  0  0  0  0  0  0  0  0
   26.1001  -21.0916  -12.3845 C   0  0  1  0  0  0  0  0  0  0  0  0
   27.2243  -21.8879  -12.9907 C   0  0  0  0  0  0  0  0  0  0  0  0
   26.9793  -22.1723  -14.4182 C   0  0  0  0  0  0  0  0  0  0  0  0
   25.9874  -22.8896  -14.7654 O   0  0  0  0  0  0  0  0  0  0  0  0
   26.4625  -20.6649  -11.0098 C   0  0  0  0  0  0  0  0  0  0  0  0
   27.4626  -19.8940  -10.8288 O   0  0  0  0  0  0  0  0  0  0  0  0
   27.7659  -21.7093  -15.4636 O   0  0  0  0  0  0  0  0  0  0  0  0
   25.7686  -21.0548   -9.8473 N   0  0  0  0  0  0  0  0  0  0  0  0
   26.3483  -21.0112   -8.5272 C   0  0  1  0  0  0  0  0  0  0  0  0
   26.8037  -19.6226   -8.1470 C   0  0  0  0  0  0  0  0  0  0  0  0
   27.5054  -19.5733   -6.8371 C   0  0  0  0  0  0  0  0  0  0  0  0
   27.0253  -20.3086   -5.7444 C   0  0  0  0  0  0  0  0  0  0  0  0
   27.6630  -20.2674   -4.5246 C   0  0  0  0  0  0  0  0  0  0  0  0
   28.7926  -19.5066   -4.3276 C   0  0  0  0  0  0  0  0  0  0  0  0
   29.2780  -18.7777   -5.3905 C   0  0  0  0  0  0  0  0  0  0  0  0
   28.6357  -18.8153   -6.6302 C   0  0  0  0  0  0  0  0  0  0  0  0
   25.3363  -21.4598   -7.5642 C   0  0  0  0  0  0  0  0  0  0  0  0
   23.9924  -21.3718   -7.8618 O   0  0  0  0  0  0  0  0  0  0  0  0
   25.6811  -21.9259   -6.4623 O   0  0  0  0  0  0  0  0  0  0  0  0
  2  1  1  0
  3  5  1  0
  3  2  1  0
  3  4  1  1
  5  6  1  6
  7  5  1  0
  7  8  2  0
  9  7  1  0
 10  9  1  0
 10 11  1  6
 12 11  1  0
 12 16  1  0
 13 12  2  0
 14 10  1  0
 15 14  2  0
 17 14  1  0
 18 17  1  0
 18 26  1  0
 18 19  1  1
 20 25  2  0
 20 19  1  0
 21 20  1  0
 22 23  1  0
 22 21  2  0
 23 24  2  0
 24 25  1  0
 26 28  2  0
 26 27  1  0
M  END
$$$$
