IDF.pdb
     RDKit          3D

 28 28  0  0  1  0  0  0  0  0999 V2000
   19.5490  -16.5197  -15.1425 C   0  0  0  0  0  0  0  0  0  0  0  0
   19.6647  -17.9047  -15.7415 C   0  0  0  0  0  0  0  0  0  0  0  0
   20.4407  -18.8359  -14.8377 C   0  0  2  0  0  0  0  0  0  0  0  0
   21.8352  -18.3104  -14.5845 C   0  0  0  0  0  0  0  0  0  0  0  0
   20.5714  -20.2158  -15.4227 C   0  0  2  0  0  0  0  0  0  0  0  0
   19.2956  -20.8878  -15.5368 N   0  0  0  0  0  0  0  0  0  0  0  0
   21.5207  -21.0649  -14.7023 C   0  0  0  0  0  0  0  0  0  0  0  0
   21.1531  -21.6607  -13.6654 O   0  0  0  0  0  0  0  0  0  0  0  0
   22.8465  -21.1906  -15.2052 N   0  0  0  0  0  0  0  0  0  0  0  0
   23.7774  -22.0605  -14.5641 C   0  0  1  0  0  0  0  0  0  0  0  0
   24.6870  -22.7952  -15.5118 C   0  0  0  0  0  0  0  0  0  0  0  0
   25.5454  -23.7621  -14.8000 C   0  0  0  0  0  0  0  0  0  0  0  0
   25.0970  -24.3903  -13.7884 O   0  0  0  0  0  0  0  0  0  0  0  0
   24.5808  -21.3020  -13.5729 C   0  0  0  0  0  0  0  0  0  0  0  0
   24.9730  -20.1196  -13.8471 O   0  0  0  0  0  0  0  0  0  0  0  0
   26.8549  -24.0629  -15.1471 O   0  0  0  0  0  0  0  0  0  0  0  0
   24.9594  -21.7979  -12.3096 N   0  0  0  0  0  0  0  0  0  0  0  0
   25.8251  -21.0816  -11.4051 C   0  0  1  0  0  0  0  0  0  0  0  0
   26.0641  -21.8388  -10.1206 C   0  0  0  0  0  0  0  0  0  0  0  0
   26.8899  -21.0853   -9.1404 C   0  0  0  0  0  0  0  0  0  0  0  0
   28.2582  -21.3578   -9.0040 C   0  0  0  0  0  0  0  0  0  0  0  0
   29.0329  -20.6707   -8.0962 C   0  0  0  0  0  0  0  0  0  0  0  0
   28.4994  -19.6925   -7.2886 C   0  0  0  0  0  0  0  0  0  0  0  0
   27.1564  -19.4118   -7.4094 C   0  0  0  0  0  0  0  0  0  0  0  0
   26.3655  -20.1053   -8.3282 C   0  0  0  0  0  0  0  0  0  0  0  0
   27.1122  -20.8633  -12.0746 C   0  0  0  0  0  0  0  0  0  0  0  0
   27.7217  -19.6263  -12.0440 O   0  0  0  0  0  0  0  0  0  0  0  0
   27.6707  -21.7962  -12.6813 O   0  0  0  0  0  0  0  0  0  0  0  0
  2  1  1  0
  3  5  1  0
  3  2  1  0
  3  4  1  6
  5  6  1  1
  7  5  1  0
  7  8  2  0
  9  7  1  0
 10  9  1  0
 10 11  1  6
 12 11  1  0
 12 16  1  0
 13 12  2  0
 14 10  1  0
 15 14  2  0
 17 14  1  0
 18 17  1  0
 18 26  1  0
 18 19  1  1
 20 25  2  0
 20 19  1  0
 21 20  1  0
 22 23  1  0
 22 21  2  0
 23 24  2  0
 24 25  1  0
 26 28  2  0
 26 27  1  0
M  END
$$$$
