IDF.pdb
     RDKit          3D

 28 28  0  0  1  0  0  0  0  0999 V2000
   29.4595  -18.6798  -16.6963 C   0  0  0  0  0  0  0  0  0  0  0  0
   28.0148  -18.2387  -16.7913 C   0  0  0  0  0  0  0  0  0  0  0  0
   27.3785  -18.1279  -15.4242 C   0  0  2  0  0  0  0  0  0  0  0  0
   27.9822  -16.9890  -14.6347 C   0  0  0  0  0  0  0  0  0  0  0  0
   27.5485  -19.3853  -14.6159 C   0  0  2  0  0  0  0  0  0  0  0  0
   27.1493  -20.5675  -15.3475 N   0  0  0  0  0  0  0  0  0  0  0  0
   26.8635  -19.3424  -13.3236 C   0  0  0  0  0  0  0  0  0  0  0  0
   27.1315  -18.4284  -12.5124 O   0  0  0  0  0  0  0  0  0  0  0  0
   25.9035  -20.3495  -13.0228 N   0  0  0  0  0  0  0  0  0  0  0  0
   25.1575  -20.2898  -11.8086 C   0  0  1  0  0  0  0  0  0  0  0  0
   23.7574  -20.8310  -11.9188 C   0  0  0  0  0  0  0  0  0  0  0  0
   23.0147  -20.6761  -10.6527 C   0  0  0  0  0  0  0  0  0  0  0  0
   22.3486  -19.6155  -10.4287 O   0  0  0  0  0  0  0  0  0  0  0  0
   25.8914  -20.9935  -10.7272 C   0  0  0  0  0  0  0  0  0  0  0  0
   26.4708  -22.1030  -10.9730 O   0  0  0  0  0  0  0  0  0  0  0  0
   22.9741  -21.6224   -9.6384 O   0  0  0  0  0  0  0  0  0  0  0  0
   26.0049  -20.5203   -9.4050 N   0  0  0  0  0  0  0  0  0  0  0  0
   26.6735  -21.2521   -8.3570 C   0  0  1  0  0  0  0  0  0  0  0  0
   28.0795  -20.7554   -8.1187 C   0  0  0  0  0  0  0  0  0  0  0  0
   28.2687  -20.1537   -6.7722 C   0  0  0  0  0  0  0  0  0  0  0  0
   27.9198  -18.8169   -6.5346 C   0  0  0  0  0  0  0  0  0  0  0  0
   28.0951  -18.2464   -5.2936 C   0  0  0  0  0  0  0  0  0  0  0  0
   28.6175  -18.9606   -4.2397 C   0  0  0  0  0  0  0  0  0  0  0  0
   28.9658  -20.2755   -4.4555 C   0  0  0  0  0  0  0  0  0  0  0  0
   28.7906  -20.8598   -5.7119 C   0  0  0  0  0  0  0  0  0  0  0  0
   25.8990  -21.0978   -7.1205 C   0  0  0  0  0  0  0  0  0  0  0  0
   24.8142  -20.2473   -7.0699 O   0  0  0  0  0  0  0  0  0  0  0  0
   26.2143  -21.7350   -6.0984 O   0  0  0  0  0  0  0  0  0  0  0  0
  2  1  1  0
  3  5  1  0
  3  2  1  0
  3  4  1  1
  5  6  1  6
  7  5  1  0
  7  8  2  0
  9  7  1  0
 10  9  1  0
 10 11  1  6
 12 11  1  0
 12 16  1  0
 13 12  2  0
 14 10  1  0
 15 14  2  0
 17 14  1  0
 18 17  1  0
 18 26  1  0
 18 19  1  1
 20 25  2  0
 20 19  1  0
 21 20  1  0
 22 23  1  0
 22 21  2  0
 23 24  2  0
 24 25  1  0
 26 28  2  0
 26 27  1  0
M  END
$$$$
