IDF.pdb
     RDKit          3D

 28 28  0  0  1  0  0  0  0  0999 V2000
   20.2813  -14.0499  -16.9779 C   0  0  0  0  0  0  0  0  0  0  0  0
   19.1841  -13.3665  -16.1907 C   0  0  0  0  0  0  0  0  0  0  0  0
   19.0711  -11.9031  -16.5539 C   0  0  2  0  0  0  0  0  0  0  0  0
   20.3163  -11.1460  -16.1526 C   0  0  0  0  0  0  0  0  0  0  0  0
   17.8978  -11.2414  -15.8839 C   0  0  2  0  0  0  0  0  0  0  0  0
   16.6538  -11.9313  -16.1462 N   0  0  0  0  0  0  0  0  0  0  0  0
   17.7624   -9.8231  -16.2171 C   0  0  0  0  0  0  0  0  0  0  0  0
   17.4630   -9.4887  -17.3849 O   0  0  0  0  0  0  0  0  0  0  0  0
   17.9767   -8.8553  -15.1953 N   0  0  0  0  0  0  0  0  0  0  0  0
   17.9866   -7.4653  -15.5146 C   0  0  1  0  0  0  0  0  0  0  0  0
   16.6311   -6.8128  -15.4665 C   0  0  0  0  0  0  0  0  0  0  0  0
   16.7047   -5.3823  -15.8224 C   0  0  0  0  0  0  0  0  0  0  0  0
   17.2800   -5.0206  -16.8981 O   0  0  0  0  0  0  0  0  0  0  0  0
   18.9293   -6.7463  -14.6214 C   0  0  0  0  0  0  0  0  0  0  0  0
   18.7433   -6.7624  -13.3596 O   0  0  0  0  0  0  0  0  0  0  0  0
   16.1812   -4.3488  -15.0582 O   0  0  0  0  0  0  0  0  0  0  0  0
   20.0522   -6.0222  -15.0682 N   0  0  0  0  0  0  0  0  0  0  0  0
   20.9605   -5.3415  -14.1781 C   0  0  1  0  0  0  0  0  0  0  0  0
   22.3831   -5.8238  -14.3326 C   0  0  0  0  0  0  0  0  0  0  0  0
   22.5195   -7.2990  -14.2062 C   0  0  0  0  0  0  0  0  0  0  0  0
   22.4009   -7.9202  -12.9551 C   0  0  0  0  0  0  0  0  0  0  0  0
   22.5304   -9.2849  -12.8240 C   0  0  0  0  0  0  0  0  0  0  0  0
   22.7803  -10.0924  -13.9099 C   0  0  0  0  0  0  0  0  0  0  0  0
   22.8998   -9.4986  -15.1468 C   0  0  0  0  0  0  0  0  0  0  0  0
   22.7696   -8.1150  -15.2863 C   0  0  0  0  0  0  0  0  0  0  0  0
   20.9103   -3.9060  -14.4774 C   0  0  0  0  0  0  0  0  0  0  0  0
   20.1655   -3.4328  -15.5375 O   0  0  0  0  0  0  0  0  0  0  0  0
   21.5430   -3.0956  -13.7751 O   0  0  0  0  0  0  0  0  0  0  0  0
  2  1  1  0
  3  5  1  0
  3  2  1  0
  3  4  1  1
  5  6  1  6
  7  5  1  0
  7  8  2  0
  9  7  1  0
 10  9  1  0
 10 11  1  1
 12 11  1  0
 12 16  1  0
 13 12  2  0
 14 10  1  0
 15 14  2  0
 17 14  1  0
 18 17  1  0
 18 26  1  0
 18 19  1  6
 20 25  2  0
 20 19  1  0
 21 20  1  0
 22 23  1  0
 22 21  2  0
 23 24  2  0
 24 25  1  0
 26 28  2  0
 26 27  1  0
M  END
$$$$
