IDF.pdb
     RDKit          3D

 28 28  0  0  1  0  0  0  0  0999 V2000
   29.6595  -17.9691  -17.4540 C   0  0  0  0  0  0  0  0  0  0  0  0
   28.8650  -19.1666  -16.9794 C   0  0  0  0  0  0  0  0  0  0  0  0
   28.0194  -18.8272  -15.7728 C   0  0  2  0  0  0  0  0  0  0  0  0
   28.8837  -18.4319  -14.5973 C   0  0  0  0  0  0  0  0  0  0  0  0
   27.1592  -19.9830  -15.3397 C   0  0  2  0  0  0  0  0  0  0  0  0
   26.3964  -20.5413  -16.4345 N   0  0  0  0  0  0  0  0  0  0  0  0
   26.2691  -19.6590  -14.2245 C   0  0  0  0  0  0  0  0  0  0  0  0
   25.3479  -18.8288  -14.3904 O   0  0  0  0  0  0  0  0  0  0  0  0
   26.4773  -20.3024  -12.9718 N   0  0  0  0  0  0  0  0  0  0  0  0
   25.3963  -20.4511  -12.0533 C   0  0  1  0  0  0  0  0  0  0  0  0
   24.2592  -21.2902  -12.5712 C   0  0  0  0  0  0  0  0  0  0  0  0
   23.0157  -20.5041  -12.6908 C   0  0  0  0  0  0  0  0  0  0  0  0
   22.0204  -20.7655  -11.9424 O   0  0  0  0  0  0  0  0  0  0  0  0
   25.8942  -21.0054  -10.7695 C   0  0  0  0  0  0  0  0  0  0  0  0
   26.0824  -22.2616  -10.6525 O   0  0  0  0  0  0  0  0  0  0  0  0
   22.8226  -19.4597  -13.5841 O   0  0  0  0  0  0  0  0  0  0  0  0
   26.1862  -20.2311   -9.6292 N   0  0  0  0  0  0  0  0  0  0  0  0
   25.9911  -20.7036   -8.2804 C   0  0  1  0  0  0  0  0  0  0  0  0
   26.2727  -19.6341   -7.2522 C   0  0  0  0  0  0  0  0  0  0  0  0
   27.5313  -19.8649   -6.4951 C   0  0  0  0  0  0  0  0  0  0  0  0
   27.6164  -19.5300   -5.1365 C   0  0  0  0  0  0  0  0  0  0  0  0
   28.7778  -19.7339   -4.4254 C   0  0  0  0  0  0  0  0  0  0  0  0
   29.8985  -20.2724   -5.0153 C   0  0  0  0  0  0  0  0  0  0  0  0
   29.8326  -20.6072   -6.3496 C   0  0  0  0  0  0  0  0  0  0  0  0
   28.6574  -20.4028   -7.0762 C   0  0  0  0  0  0  0  0  0  0  0  0
   24.5974  -21.1406   -8.1420 C   0  0  0  0  0  0  0  0  0  0  0  0
   24.2452  -22.0860   -7.2013 O   0  0  0  0  0  0  0  0  0  0  0  0
   23.7132  -20.6615   -8.8762 O   0  0  0  0  0  0  0  0  0  0  0  0
  2  1  1  0
  3  5  1  0
  3  2  1  0
  3  4  1  1
  5  6  1  6
  7  5  1  0
  7  8  2  0
  9  7  1  0
 10  9  1  0
 10 11  1  6
 12 11  1  0
 12 16  1  0
 13 12  2  0
 14 10  1  0
 15 14  2  0
 17 14  1  0
 18 17  1  0
 18 26  1  0
 18 19  1  1
 20 25  2  0
 20 19  1  0
 21 20  1  0
 22 23  1  0
 22 21  2  0
 23 24  2  0
 24 25  1  0
 26 28  2  0
 26 27  1  0
M  END
$$$$
