IDF.pdb
     RDKit          3D

 28 28  0  0  1  0  0  0  0  0999 V2000
   28.4662  -15.9762  -15.8092 C   0  0  0  0  0  0  0  0  0  0  0  0
   27.7035  -17.2690  -16.0027 C   0  0  0  0  0  0  0  0  0  0  0  0
   27.1098  -17.7617  -14.7024 C   0  0  2  0  0  0  0  0  0  0  0  0
   28.1933  -18.1037  -13.7055 C   0  0  0  0  0  0  0  0  0  0  0  0
   26.2617  -18.9893  -14.8952 C   0  0  2  0  0  0  0  0  0  0  0  0
   25.2617  -18.8107  -15.9249 N   0  0  0  0  0  0  0  0  0  0  0  0
   25.6303  -19.4590  -13.6615 C   0  0  0  0  0  0  0  0  0  0  0  0
   24.6836  -18.8084  -13.1657 O   0  0  0  0  0  0  0  0  0  0  0  0
   26.1143  -20.6524  -13.0550 N   0  0  0  0  0  0  0  0  0  0  0  0
   25.4110  -21.2369  -11.9604 C   0  0  1  0  0  0  0  0  0  0  0  0
   25.0656  -22.6888  -12.1553 C   0  0  0  0  0  0  0  0  0  0  0  0
   24.3180  -22.9049  -13.4095 C   0  0  0  0  0  0  0  0  0  0  0  0
   23.2711  -22.2245  -13.6543 O   0  0  0  0  0  0  0  0  0  0  0  0
   26.1874  -21.0624  -10.7074 C   0  0  0  0  0  0  0  0  0  0  0  0
   27.4419  -20.8389  -10.7655 O   0  0  0  0  0  0  0  0  0  0  0  0
   24.6668  -23.8226  -14.3904 O   0  0  0  0  0  0  0  0  0  0  0  0
   25.6335  -21.1255   -9.4135 N   0  0  0  0  0  0  0  0  0  0  0  0
   26.4247  -21.0555   -8.2094 C   0  0  1  0  0  0  0  0  0  0  0  0
   27.2180  -19.7738   -8.1189 C   0  0  0  0  0  0  0  0  0  0  0  0
   27.9488  -19.6258   -6.8325 C   0  0  0  0  0  0  0  0  0  0  0  0
   27.9557  -18.3986   -6.1548 C   0  0  0  0  0  0  0  0  0  0  0  0
   28.6330  -18.2471   -4.9655 C   0  0  0  0  0  0  0  0  0  0  0  0
   29.3281  -19.2886   -4.3947 C   0  0  0  0  0  0  0  0  0  0  0  0
   29.3320  -20.5016   -5.0471 C   0  0  0  0  0  0  0  0  0  0  0  0
   28.6470  -20.6614   -6.2537 C   0  0  0  0  0  0  0  0  0  0  0  0
   25.5195  -21.1364   -7.0576 C   0  0  0  0  0  0  0  0  0  0  0  0
   26.0020  -21.4422   -5.8021 O   0  0  0  0  0  0  0  0  0  0  0  0
   24.3000  -20.9301   -7.2015 O   0  0  0  0  0  0  0  0  0  0  0  0
  2  1  1  0
  3  5  1  0
  3  2  1  0
  3  4  1  1
  5  6  1  6
  7  5  1  0
  7  8  2  0
  9  7  1  0
 10  9  1  0
 10 11  1  6
 12 11  1  0
 12 16  1  0
 13 12  2  0
 14 10  1  0
 15 14  2  0
 17 14  1  0
 18 17  1  0
 18 26  1  0
 18 19  1  1
 20 25  2  0
 20 19  1  0
 21 20  1  0
 22 23  1  0
 22 21  2  0
 23 24  2  0
 24 25  1  0
 26 28  2  0
 26 27  1  0
M  END
$$$$
