IDF.pdb
     RDKit          3D

 28 28  0  0  1  0  0  0  0  0999 V2000
   27.6634  -18.5590   -6.1946 C   0  0  0  0  0  0  0  0  0  0  0  0
   28.0000  -19.2265   -7.5105 C   0  0  0  0  0  0  0  0  0  0  0  0
   27.6975  -20.7075   -7.4736 C   0  0  2  0  0  0  0  0  0  0  0  0
   28.5031  -21.4000   -6.3983 C   0  0  0  0  0  0  0  0  0  0  0  0
   28.0062  -21.3823   -8.7823 C   0  0  2  0  0  0  0  0  0  0  0  0
   29.4244  -21.4112   -9.0650 N   0  0  0  0  0  0  0  0  0  0  0  0
   27.2821  -20.8084   -9.9170 C   0  0  0  0  0  0  0  0  0  0  0  0
   27.8947  -20.0991  -10.7458 O   0  0  0  0  0  0  0  0  0  0  0  0
   25.8899  -21.0750  -10.0475 N   0  0  0  0  0  0  0  0  0  0  0  0
   25.2871  -21.1249  -11.3392 C   0  0  1  0  0  0  0  0  0  0  0  0
   25.5410  -22.4055  -12.0881 C   0  0  0  0  0  0  0  0  0  0  0  0
   25.0843  -22.3145  -13.4887 C   0  0  0  0  0  0  0  0  0  0  0  0
   24.5245  -21.2525  -13.9102 O   0  0  0  0  0  0  0  0  0  0  0  0
   23.8271  -20.8817  -11.2273 C   0  0  0  0  0  0  0  0  0  0  0  0
   23.1635  -21.4321  -10.2872 O   0  0  0  0  0  0  0  0  0  0  0  0
   25.2147  -23.3252  -14.4307 O   0  0  0  0  0  0  0  0  0  0  0  0
   23.0877  -20.0643  -12.1049 N   0  0  0  0  0  0  0  0  0  0  0  0
   21.6868  -19.7724  -11.9235 C   0  0  1  0  0  0  0  0  0  0  0  0
   21.2668  -18.5115  -12.6404 C   0  0  0  0  0  0  0  0  0  0  0  0
   21.5600  -18.5398  -14.0978 C   0  0  0  0  0  0  0  0  0  0  0  0
   22.8254  -18.1730  -14.5766 C   0  0  0  0  0  0  0  0  0  0  0  0
   23.1080  -18.1899  -15.9242 C   0  0  0  0  0  0  0  0  0  0  0  0
   22.1649  -18.5656  -16.8533 C   0  0  0  0  0  0  0  0  0  0  0  0
   20.9160  -18.9291  -16.4003 C   0  0  0  0  0  0  0  0  0  0  0  0
   20.6234  -18.9140  -15.0348 C   0  0  0  0  0  0  0  0  0  0  0  0
   20.9090  -20.8997  -12.4498 C   0  0  0  0  0  0  0  0  0  0  0  0
   19.5560  -20.9997  -12.2011 O   0  0  0  0  0  0  0  0  0  0  0  0
   21.4645  -21.7832  -13.1290 O   0  0  0  0  0  0  0  0  0  0  0  0
  2  1  1  0
  3  5  1  0
  3  2  1  0
  3  4  1  1
  5  6  1  6
  7  5  1  0
  7  8  2  0
  9  7  1  0
 10  9  1  0
 10 11  1  1
 12 11  1  0
 12 16  1  0
 13 12  2  0
 14 10  1  0
 15 14  2  0
 17 14  1  0
 18 17  1  0
 18 26  1  0
 18 19  1  6
 20 25  2  0
 20 19  1  0
 21 20  1  0
 22 23  1  0
 22 21  2  0
 23 24  2  0
 24 25  1  0
 26 28  2  0
 26 27  1  0
M  END
$$$$
