IDF.pdb
     RDKit          3D

 28 28  0  0  1  0  0  0  0  0999 V2000
   16.2670  -13.3821  -22.7345 C   0  0  0  0  0  0  0  0  0  0  0  0
   16.1683  -12.8249  -21.3308 C   0  0  0  0  0  0  0  0  0  0  0  0
   17.0986  -11.6492  -21.1350 C   0  0  2  0  0  0  0  0  0  0  0  0
   18.5447  -12.0868  -21.1826 C   0  0  0  0  0  0  0  0  0  0  0  0
   16.8724  -10.9604  -19.8167 C   0  0  2  0  0  0  0  0  0  0  0  0
   15.5001  -10.5366  -19.6461 N   0  0  0  0  0  0  0  0  0  0  0  0
   17.7759   -9.8323  -19.5880 C   0  0  0  0  0  0  0  0  0  0  0  0
   19.0124  -10.0044  -19.6714 O   0  0  0  0  0  0  0  0  0  0  0  0
   17.2188   -8.5604  -19.2746 N   0  0  0  0  0  0  0  0  0  0  0  0
   18.0724   -7.4527  -18.9945 C   0  0  1  0  0  0  0  0  0  0  0  0
   17.4932   -6.1169  -19.3760 C   0  0  0  0  0  0  0  0  0  0  0  0
   18.4458   -5.0192  -19.1190 C   0  0  0  0  0  0  0  0  0  0  0  0
   18.0828   -4.0035  -18.4440 O   0  0  0  0  0  0  0  0  0  0  0  0
   18.4487   -7.4527  -17.5586 C   0  0  0  0  0  0  0  0  0  0  0  0
   17.6201   -7.8772  -16.6867 O   0  0  0  0  0  0  0  0  0  0  0  0
   19.7594   -4.9907  -19.5656 O   0  0  0  0  0  0  0  0  0  0  0  0
   19.6894   -7.0067  -17.0618 N   0  0  0  0  0  0  0  0  0  0  0  0
   20.0699   -7.1100  -15.6743 C   0  0  1  0  0  0  0  0  0  0  0  0
   21.4622   -7.6688  -15.5021 C   0  0  0  0  0  0  0  0  0  0  0  0
   21.8603   -7.8233  -14.0779 C   0  0  0  0  0  0  0  0  0  0  0  0
   21.9932   -9.0981  -13.5101 C   0  0  0  0  0  0  0  0  0  0  0  0
   22.3561   -9.2544  -12.1910 C   0  0  0  0  0  0  0  0  0  0  0  0
   22.6025   -8.1715  -11.3784 C   0  0  0  0  0  0  0  0  0  0  0  0
   22.4765   -6.9114  -11.9199 C   0  0  0  0  0  0  0  0  0  0  0  0
   22.1087   -6.7463  -13.2571 C   0  0  0  0  0  0  0  0  0  0  0  0
   20.0194   -5.7690  -15.0813 C   0  0  0  0  0  0  0  0  0  0  0  0
   19.7281   -5.6004  -13.7436 O   0  0  0  0  0  0  0  0  0  0  0  0
   20.2389   -4.7637  -15.7823 O   0  0  0  0  0  0  0  0  0  0  0  0
  2  1  1  0
  3  5  1  0
  3  2  1  0
  3  4  1  1
  5  6  1  6
  7  5  1  0
  7  8  2  0
  9  7  1  0
 10  9  1  0
 10 11  1  1
 12 11  1  0
 12 16  1  0
 13 12  2  0
 14 10  1  0
 15 14  2  0
 17 14  1  0
 18 17  1  0
 18 26  1  0
 18 19  1  6
 20 25  2  0
 20 19  1  0
 21 20  1  0
 22 23  1  0
 22 21  2  0
 23 24  2  0
 24 25  1  0
 26 28  2  0
 26 27  1  0
M  END
$$$$
