IDF.pdb
     RDKit          3D

 28 28  0  0  1  0  0  0  0  0999 V2000
   21.0013  -36.3012  -12.4548 C   0  0  0  0  0  0  0  0  0  0  0  0
   21.8304  -35.4059  -13.3501 C   0  0  0  0  0  0  0  0  0  0  0  0
   21.6895  -33.9513  -12.9621 C   0  0  2  0  0  0  0  0  0  0  0  0
   20.2489  -33.5023  -13.0511 C   0  0  0  0  0  0  0  0  0  0  0  0
   22.5057  -33.0471  -13.8451 C   0  0  2  0  0  0  0  0  0  0  0  0
   23.9278  -33.2466  -13.6717 N   0  0  0  0  0  0  0  0  0  0  0  0
   22.1771  -31.6300  -13.6877 C   0  0  0  0  0  0  0  0  0  0  0  0
   22.8868  -30.9093  -12.9513 O   0  0  0  0  0  0  0  0  0  0  0  0
   21.0502  -31.1063  -14.3822 N   0  0  0  0  0  0  0  0  0  0  0  0
   20.6856  -29.7361  -14.2277 C   0  0  1  0  0  0  0  0  0  0  0  0
   19.9568  -29.1558  -15.4099 C   0  0  0  0  0  0  0  0  0  0  0  0
   20.8584  -28.9649  -16.5627 C   0  0  0  0  0  0  0  0  0  0  0  0
   22.0995  -28.7567  -16.3752 O   0  0  0  0  0  0  0  0  0  0  0  0
   19.8762  -29.5623  -12.9956 C   0  0  0  0  0  0  0  0  0  0  0  0
   18.9451  -30.3918  -12.7272 O   0  0  0  0  0  0  0  0  0  0  0  0
   20.4601  -28.9924  -17.8918 O   0  0  0  0  0  0  0  0  0  0  0  0
   20.0581  -28.5200  -12.0653 N   0  0  0  0  0  0  0  0  0  0  0  0
   19.2933  -28.4031  -10.8479 C   0  0  1  0  0  0  0  0  0  0  0  0
   20.1485  -27.9998   -9.6705 C   0  0  0  0  0  0  0  0  0  0  0  0
   21.2246  -28.9791   -9.3642 C   0  0  0  0  0  0  0  0  0  0  0  0
   22.5407  -28.7460   -9.7872 C   0  0  0  0  0  0  0  0  0  0  0  0
   23.5452  -29.6476   -9.5145 C   0  0  0  0  0  0  0  0  0  0  0  0
   23.3010  -30.8095   -8.8189 C   0  0  0  0  0  0  0  0  0  0  0  0
   22.0134  -31.0546   -8.3957 C   0  0  0  0  0  0  0  0  0  0  0  0
   20.9903  -30.1440   -8.6693 C   0  0  0  0  0  0  0  0  0  0  0  0
   18.2550  -27.3867  -11.0514 C   0  0  0  0  0  0  0  0  0  0  0  0
   17.2644  -27.1930  -10.1113 O   0  0  0  0  0  0  0  0  0  0  0  0
   18.2561  -26.6852  -12.0801 O   0  0  0  0  0  0  0  0  0  0  0  0
  2  1  1  0
  3  5  1  0
  3  2  1  0
  3  4  1  6
  5  6  1  1
  7  5  1  0
  7  8  2  0
  9  7  1  0
 10  9  1  0
 10 11  1  6
 12 11  1  0
 12 16  1  0
 13 12  2  0
 14 10  1  0
 15 14  2  0
 17 14  1  0
 18 17  1  0
 18 26  1  0
 18 19  1  1
 20 25  2  0
 20 19  1  0
 21 20  1  0
 22 23  1  0
 22 21  2  0
 23 24  2  0
 24 25  1  0
 26 28  2  0
 26 27  1  0
M  END
$$$$
