IDF.pdb
     RDKit          3D

 28 28  0  0  1  0  0  0  0  0999 V2000
   26.4933  -15.6342  -14.9970 C   0  0  0  0  0  0  0  0  0  0  0  0
   25.3391  -15.7215  -15.9720 C   0  0  0  0  0  0  0  0  0  0  0  0
   24.7423  -14.3597  -16.2471 C   0  0  2  0  0  0  0  0  0  0  0  0
   24.0793  -13.7972  -15.0106 C   0  0  0  0  0  0  0  0  0  0  0  0
   23.7094  -14.4034  -17.3401 C   0  0  2  0  0  0  0  0  0  0  0  0
   24.1846  -15.0947  -18.5184 N   0  0  0  0  0  0  0  0  0  0  0  0
   23.1966  -13.0833  -17.7080 C   0  0  0  0  0  0  0  0  0  0  0  0
   23.9234  -12.2964  -18.3545 O   0  0  0  0  0  0  0  0  0  0  0  0
   21.8746  -12.7280  -17.3173 N   0  0  0  0  0  0  0  0  0  0  0  0
   21.3624  -11.4309  -17.6162 C   0  0  1  0  0  0  0  0  0  0  0  0
   19.9530  -11.4321  -18.1442 C   0  0  0  0  0  0  0  0  0  0  0  0
   19.8580  -12.1412  -19.4353 C   0  0  0  0  0  0  0  0  0  0  0  0
   18.9840  -13.0508  -19.6015 O   0  0  0  0  0  0  0  0  0  0  0  0
   21.4560  -10.5600  -16.4178 C   0  0  0  0  0  0  0  0  0  0  0  0
   20.8462  -10.8886  -15.3467 O   0  0  0  0  0  0  0  0  0  0  0  0
   20.6702  -11.8970  -20.5338 O   0  0  0  0  0  0  0  0  0  0  0  0
   22.1888   -9.3578  -16.3639 N   0  0  0  0  0  0  0  0  0  0  0  0
   22.2984   -8.5503  -15.1737 C   0  0  1  0  0  0  0  0  0  0  0  0
   23.5583   -8.8453  -14.3952 C   0  0  0  0  0  0  0  0  0  0  0  0
   24.7386   -9.0983  -15.2633 C   0  0  0  0  0  0  0  0  0  0  0  0
   25.1833   -8.1197  -16.1631 C   0  0  0  0  0  0  0  0  0  0  0  0
   26.2718   -8.3437  -16.9762 C   0  0  0  0  0  0  0  0  0  0  0  0
   26.9656   -9.5315  -16.9401 C   0  0  0  0  0  0  0  0  0  0  0  0
   26.5423  -10.5043  -16.0618 C   0  0  0  0  0  0  0  0  0  0  0  0
   25.4389  -10.2831  -15.2346 C   0  0  0  0  0  0  0  0  0  0  0  0
   22.3064   -7.1386  -15.5734 C   0  0  0  0  0  0  0  0  0  0  0  0
   22.1999   -6.1383  -14.6298 O   0  0  0  0  0  0  0  0  0  0  0  0
   22.4088   -6.8267  -16.7745 O   0  0  0  0  0  0  0  0  0  0  0  0
  2  1  1  0
  3  5  1  0
  3  2  1  0
  3  4  1  1
  5  6  1  6
  7  5  1  0
  7  8  2  0
  9  7  1  0
 10  9  1  0
 10 11  1  1
 12 11  1  0
 12 16  1  0
 13 12  2  0
 14 10  1  0
 15 14  2  0
 17 14  1  0
 18 17  1  0
 18 26  1  0
 18 19  1  6
 20 25  2  0
 20 19  1  0
 21 20  1  0
 22 23  1  0
 22 21  2  0
 23 24  2  0
 24 25  1  0
 26 28  2  0
 26 27  1  0
M  END
$$$$
