IDF.pdb
     RDKit          3D

 28 28  0  0  1  0  0  0  0  0999 V2000
   29.3183  -19.1762  -19.8648 C   0  0  0  0  0  0  0  0  0  0  0  0
   29.3348  -20.0800  -18.6510 C   0  0  0  0  0  0  0  0  0  0  0  0
   27.9878  -20.7288  -18.4254 C   0  0  2  0  0  0  0  0  0  0  0  0
   26.8798  -19.9119  -19.0497 C   0  0  0  0  0  0  0  0  0  0  0  0
   27.6717  -20.8860  -16.9629 C   0  0  2  0  0  0  0  0  0  0  0  0
   28.7201  -21.5769  -16.2449 N   0  0  0  0  0  0  0  0  0  0  0  0
   26.3839  -21.5344  -16.7132 C   0  0  0  0  0  0  0  0  0  0  0  0
   25.3641  -21.1361  -17.3186 O   0  0  0  0  0  0  0  0  0  0  0  0
   26.3267  -22.6087  -15.7810 N   0  0  0  0  0  0  0  0  0  0  0  0
   25.0825  -23.2447  -15.4950 C   0  0  1  0  0  0  0  0  0  0  0  0
   25.1655  -24.7445  -15.3989 C   0  0  0  0  0  0  0  0  0  0  0  0
   23.8365  -25.3484  -15.1808 C   0  0  0  0  0  0  0  0  0  0  0  0
   23.5437  -25.8575  -14.0521 O   0  0  0  0  0  0  0  0  0  0  0  0
   24.5020  -22.6863  -14.2483 C   0  0  0  0  0  0  0  0  0  0  0  0
   24.8906  -23.1266  -13.1160 O   0  0  0  0  0  0  0  0  0  0  0  0
   22.8316  -25.4156  -16.1356 O   0  0  0  0  0  0  0  0  0  0  0  0
   23.5226  -21.6741  -14.2111 N   0  0  0  0  0  0  0  0  0  0  0  0
   23.0007  -21.1224  -12.9848 C   0  0  1  0  0  0  0  0  0  0  0  0
   23.7322  -19.8705  -12.5627 C   0  0  0  0  0  0  0  0  0  0  0  0
   25.0701  -20.1431  -11.9742 C   0  0  0  0  0  0  0  0  0  0  0  0
   26.2223  -20.0908  -12.7710 C   0  0  0  0  0  0  0  0  0  0  0  0
   27.4666  -20.3464  -12.2392 C   0  0  0  0  0  0  0  0  0  0  0  0
   27.6308  -20.6623  -10.9099 C   0  0  0  0  0  0  0  0  0  0  0  0
   26.5092  -20.7181  -10.1124 C   0  0  0  0  0  0  0  0  0  0  0  0
   25.2445  -20.4600  -10.6460 C   0  0  0  0  0  0  0  0  0  0  0  0
   21.5846  -20.7986  -13.1909 C   0  0  0  0  0  0  0  0  0  0  0  0
   20.7666  -20.5012  -12.1209 O   0  0  0  0  0  0  0  0  0  0  0  0
   21.1031  -20.7896  -14.3392 O   0  0  0  0  0  0  0  0  0  0  0  0
  2  1  1  0
  3  5  1  0
  3  2  1  0
  3  4  1  1
  5  6  1  1
  7  5  1  0
  7  8  2  0
  9  7  1  0
 10  9  1  0
 10 11  1  1
 12 11  1  0
 12 16  1  0
 13 12  2  0
 14 10  1  0
 15 14  2  0
 17 14  1  0
 18 17  1  0
 18 26  1  0
 18 19  1  6
 20 25  2  0
 20 19  1  0
 21 20  1  0
 22 23  1  0
 22 21  2  0
 23 24  2  0
 24 25  1  0
 26 28  2  0
 26 27  1  0
M  END
$$$$
