FQQ.pdb
     RDKit          3D

 30 30  0  0  1  0  0  0  0  0999 V2000
   18.1854  -11.7574  -14.5378 N   0  0  0  0  0  0  0  0  0  0  0  0
   17.6711  -10.4702  -14.9501 C   0  0  1  0  0  0  0  0  0  0  0  0
   16.1466  -10.5762  -14.8017 C   0  0  0  0  0  0  0  0  0  0  0  0
   15.5478  -11.2413  -15.9883 C   0  0  0  0  0  0  0  0  0  0  0  0
   15.4584  -10.6586  -17.2362 C   0  0  0  0  0  0  0  0  0  0  0  0
   14.8913  -11.3120  -18.3198 C   0  0  0  0  0  0  0  0  0  0  0  0
   14.4004  -12.5938  -18.1336 C   0  0  0  0  0  0  0  0  0  0  0  0
   14.4793  -13.1909  -16.9017 C   0  0  0  0  0  0  0  0  0  0  0  0
   15.0399  -12.5314  -15.8509 C   0  0  0  0  0  0  0  0  0  0  0  0
   18.1005   -9.4499  -13.9626 C   0  0  0  0  0  0  0  0  0  0  0  0
   18.2631   -9.8472  -12.7640 O   0  0  0  0  0  0  0  0  0  0  0  0
   22.1857   -4.6401  -14.6801 N   0  0  0  0  0  0  0  0  0  0  0  0
   21.5615   -4.4970  -13.3848 C   0  0  0  0  0  0  0  0  0  0  0  0
   22.0589   -3.6356  -12.6438 O   0  0  0  0  0  0  0  0  0  0  0  0
   20.4303   -5.3179  -12.9898 C   0  0  0  0  0  0  0  0  0  0  0  0
   19.9153   -6.3662  -13.8769 C   0  0  0  0  0  0  0  0  0  0  0  0
   18.7565   -7.1608  -13.3219 C   0  0  2  0  0  0  0  0  0  0  0  0
   18.3261   -8.0946  -14.3070 N   0  0  0  0  0  0  0  0  0  0  0  0
   17.7365   -6.3269  -12.7041 C   0  0  0  0  0  0  0  0  0  0  0  0
   16.8678   -5.6681  -13.3800 O   0  0  0  0  0  0  0  0  0  0  0  0
   15.2481   -6.9934   -7.0300 N   0  0  0  0  0  0  0  0  0  0  0  0
   14.5267   -5.8643   -7.4644 C   0  0  0  0  0  0  0  0  0  0  0  0
   13.6026   -5.4187   -6.7563 O   0  0  0  0  0  0  0  0  0  0  0  0
   14.9328   -5.2579   -8.7895 C   0  0  0  0  0  0  0  0  0  0  0  0
   16.0641   -6.0435   -9.3912 C   0  0  0  0  0  0  0  0  0  0  0  0
   16.4988   -5.4548  -10.6732 C   0  0  2  0  0  0  0  0  0  0  0  0
   17.5987   -6.1688  -11.2900 N   0  0  0  0  0  0  0  0  0  0  0  0
   16.8352   -4.0245  -10.6147 C   0  0  0  0  0  0  0  0  0  0  0  0
   15.9458   -2.9736  -10.5292 O   0  0  0  0  0  0  0  0  0  0  0  0
   18.0703   -3.6415  -10.6450 O   0  0  0  0  0  0  0  0  0  0  0  0
  2  3  1  0
  2  1  1  1
  3  4  1  0
  4  5  2  0
  5  6  1  0
  7  6  2  0
  8  7  1  0
  9  4  1  0
  9  8  2  0
 10 18  1  0
 10  2  1  0
 11 10  2  0
 13 12  1  0
 14 13  2  0
 15 13  1  0
 16 15  1  0
 17 16  1  6
 17 18  1  0
 19 20  2  0
 19 17  1  0
 21 22  1  0
 22 23  2  0
 24 22  1  0
 24 25  1  0
 26 25  1  1
 26 28  1  0
 26 27  1  0
 27 19  1  0
 28 29  1  0
 30 28  2  0
M  END
$$$$
