FQQ.pdb
     RDKit          3D

 30 30  0  0  1  0  0  0  0  0999 V2000
   32.4160   -7.5805  -18.6733 N   0  0  0  0  0  0  0  0  0  0  0  0
   31.6011   -8.7631  -18.5039 C   0  0  1  0  0  0  0  0  0  0  0  0
   32.0510   -9.3781  -17.1710 C   0  0  0  0  0  0  0  0  0  0  0  0
   33.2648  -10.2144  -17.3609 C   0  0  0  0  0  0  0  0  0  0  0  0
   34.5309   -9.8392  -16.9595 C   0  0  0  0  0  0  0  0  0  0  0  0
   35.6400  -10.6481  -17.1554 C   0  0  0  0  0  0  0  0  0  0  0  0
   35.4611  -11.8734  -17.7760 C   0  0  0  0  0  0  0  0  0  0  0  0
   34.2114  -12.2652  -18.1826 C   0  0  0  0  0  0  0  0  0  0  0  0
   33.1357  -11.4556  -17.9807 C   0  0  0  0  0  0  0  0  0  0  0  0
   30.1934   -8.3431  -18.2974 C   0  0  0  0  0  0  0  0  0  0  0  0
   30.0045   -7.3142  -17.5717 O   0  0  0  0  0  0  0  0  0  0  0  0
   25.5386   -6.5483  -21.7943 N   0  0  0  0  0  0  0  0  0  0  0  0
   26.9353   -6.2754  -21.5439 C   0  0  0  0  0  0  0  0  0  0  0  0
   27.4154   -5.3219  -22.1756 O   0  0  0  0  0  0  0  0  0  0  0  0
   27.7130   -7.0761  -20.6148 C   0  0  0  0  0  0  0  0  0  0  0  0
   27.1157   -8.2286  -19.9319 C   0  0  0  0  0  0  0  0  0  0  0  0
   27.7617   -8.5980  -18.6172 C   0  0  2  0  0  0  0  0  0  0  0  0
   29.0947   -9.0324  -18.8664 N   0  0  0  0  0  0  0  0  0  0  0  0
   26.9251   -9.4556  -17.7913 C   0  0  0  0  0  0  0  0  0  0  0  0
   27.0220  -10.7347  -17.7890 O   0  0  0  0  0  0  0  0  0  0  0  0
   22.0582   -7.7985  -14.0770 N   0  0  0  0  0  0  0  0  0  0  0  0
   22.0073   -9.2001  -13.9473 C   0  0  0  0  0  0  0  0  0  0  0  0
   21.1100   -9.7185  -13.2544 O   0  0  0  0  0  0  0  0  0  0  0  0
   23.0688   -9.9961  -14.6739 C   0  0  0  0  0  0  0  0  0  0  0  0
   24.0401   -9.0670  -15.3466 C   0  0  0  0  0  0  0  0  0  0  0  0
   24.9763   -9.8107  -16.2124 C   0  0  2  0  0  0  0  0  0  0  0  0
   25.9247   -8.9575  -16.8998 N   0  0  0  0  0  0  0  0  0  0  0  0
   24.3375  -10.6983  -17.1955 C   0  0  0  0  0  0  0  0  0  0  0  0
   23.7742  -10.3235  -18.3976 O   0  0  0  0  0  0  0  0  0  0  0  0
   24.2582  -11.9701  -16.9738 O   0  0  0  0  0  0  0  0  0  0  0  0
  2  3  1  0
  2  1  1  1
  3  4  1  0
  4  5  2  0
  5  6  1  0
  7  6  2  0
  8  7  1  0
  9  4  1  0
  9  8  2  0
 10 18  1  0
 10  2  1  0
 11 10  2  0
 13 12  1  0
 14 13  2  0
 15 13  1  0
 16 15  1  0
 17 16  1  6
 17 18  1  0
 19 20  2  0
 19 17  1  0
 21 22  1  0
 22 23  2  0
 24 22  1  0
 24 25  1  0
 26 25  1  6
 26 28  1  0
 26 27  1  0
 27 19  1  0
 28 29  1  0
 30 28  2  0
M  END
$$$$
