FQQ.pdb
     RDKit          3D

 30 30  0  0  1  0  0  0  0  0999 V2000
   19.8445   -9.4489  -14.6051 N   0  0  0  0  0  0  0  0  0  0  0  0
   19.8631   -9.1640  -13.1875 C   0  0  1  0  0  0  0  0  0  0  0  0
   20.9822   -8.1302  -12.9962 C   0  0  0  0  0  0  0  0  0  0  0  0
   22.2799   -8.6634  -13.4867 C   0  0  0  0  0  0  0  0  0  0  0  0
   22.9736   -9.6881  -12.8754 C   0  0  0  0  0  0  0  0  0  0  0  0
   24.1835  -10.1577  -13.3635 C   0  0  0  0  0  0  0  0  0  0  0  0
   24.7058   -9.5721  -14.5050 C   0  0  0  0  0  0  0  0  0  0  0  0
   24.0325   -8.5527  -15.1277 C   0  0  0  0  0  0  0  0  0  0  0  0
   22.8459   -8.1064  -14.6315 C   0  0  0  0  0  0  0  0  0  0  0  0
   18.6051   -8.4649  -12.8280 C   0  0  0  0  0  0  0  0  0  0  0  0
   17.7101   -8.3981  -13.7311 O   0  0  0  0  0  0  0  0  0  0  0  0
   13.4447  -10.8533   -9.5425 N   0  0  0  0  0  0  0  0  0  0  0  0
   14.2831  -10.4647  -10.6533 C   0  0  0  0  0  0  0  0  0  0  0  0
   14.3272  -11.2687  -11.5969 O   0  0  0  0  0  0  0  0  0  0  0  0
   15.0223   -9.2145  -10.6485 C   0  0  0  0  0  0  0  0  0  0  0  0
   16.4317   -9.1722  -11.0519 C   0  0  0  0  0  0  0  0  0  0  0  0
   17.0648   -7.8008  -11.0205 C   0  0  2  0  0  0  0  0  0  0  0  0
   18.3826   -7.8909  -11.5524 N   0  0  0  0  0  0  0  0  0  0  0  0
   16.9081   -7.1291   -9.7392 C   0  0  0  0  0  0  0  0  0  0  0  0
   17.8181   -7.1264   -8.8350 O   0  0  0  0  0  0  0  0  0  0  0  0
   18.3582   -2.2974  -10.1196 N   0  0  0  0  0  0  0  0  0  0  0  0
   17.6530   -1.8979   -8.9676 C   0  0  0  0  0  0  0  0  0  0  0  0
   17.8371   -0.7562   -8.5024 O   0  0  0  0  0  0  0  0  0  0  0  0
   16.7003   -2.9049   -8.3619 C   0  0  0  0  0  0  0  0  0  0  0  0
   16.7566   -4.1954   -9.1304 C   0  0  0  0  0  0  0  0  0  0  0  0
   15.7687   -5.1647   -8.6169 C   0  0  2  0  0  0  0  0  0  0  0  0
   15.7337   -6.4029   -9.3691 N   0  0  0  0  0  0  0  0  0  0  0  0
   14.3984   -4.6454   -8.4943 C   0  0  0  0  0  0  0  0  0  0  0  0
   13.3804   -4.7862   -9.4144 O   0  0  0  0  0  0  0  0  0  0  0  0
   14.0438   -3.9773   -7.4450 O   0  0  0  0  0  0  0  0  0  0  0  0
  2  3  1  0
  2  1  1  6
  3  4  1  0
  4  5  2  0
  5  6  1  0
  7  6  2  0
  8  7  1  0
  9  4  1  0
  9  8  2  0
 10 18  1  0
 10  2  1  0
 11 10  2  0
 13 12  1  0
 14 13  2  0
 15 13  1  0
 16 15  1  0
 17 16  1  1
 17 18  1  0
 19 20  2  0
 19 17  1  0
 21 22  1  0
 22 23  2  0
 24 22  1  0
 24 25  1  0
 26 25  1  6
 26 28  1  0
 26 27  1  0
 27 19  1  0
 28 29  1  0
 30 28  2  0
M  END
$$$$
