FQQ.pdb
     RDKit          3D

 30 30  0  0  1  0  0  0  0  0999 V2000
   25.0545  -12.1983  -18.2862 N   0  0  0  0  0  0  0  0  0  0  0  0
   24.6559  -11.8061  -16.9526 C   0  0  1  0  0  0  0  0  0  0  0  0
   25.8985  -11.1494  -16.3346 C   0  0  0  0  0  0  0  0  0  0  0  0
   26.9906  -12.1435  -16.1679 C   0  0  0  0  0  0  0  0  0  0  0  0
   28.1711  -12.1201  -16.8827 C   0  0  0  0  0  0  0  0  0  0  0  0
   29.1670  -13.0671  -16.6989 C   0  0  0  0  0  0  0  0  0  0  0  0
   28.9612  -14.0673  -15.7631 C   0  0  0  0  0  0  0  0  0  0  0  0
   27.7953  -14.1088  -15.0423 C   0  0  0  0  0  0  0  0  0  0  0  0
   26.8301  -13.1691  -15.2386 C   0  0  0  0  0  0  0  0  0  0  0  0
   23.6427  -10.7278  -17.0587 C   0  0  0  0  0  0  0  0  0  0  0  0
   23.6401  -10.0499  -18.1364 O   0  0  0  0  0  0  0  0  0  0  0  0
   17.5928   -9.9482  -17.1808 N   0  0  0  0  0  0  0  0  0  0  0  0
   18.5928  -10.7958  -17.7887 C   0  0  0  0  0  0  0  0  0  0  0  0
   18.1997  -11.4894  -18.7390 O   0  0  0  0  0  0  0  0  0  0  0  0
   19.9619  -10.8258  -17.3049 C   0  0  0  0  0  0  0  0  0  0  0  0
   20.3595  -10.0527  -16.1236 C   0  0  0  0  0  0  0  0  0  0  0  0
   21.7318   -9.4258  -16.2021 C   0  0  2  0  0  0  0  0  0  0  0  0
   22.7124  -10.4437  -16.0291 N   0  0  0  0  0  0  0  0  0  0  0  0
   21.8608   -8.2305  -15.3824 C   0  0  0  0  0  0  0  0  0  0  0  0
   22.1571   -8.2665  -14.1347 O   0  0  0  0  0  0  0  0  0  0  0  0
   22.2763   -2.1493  -17.1056 N   0  0  0  0  0  0  0  0  0  0  0  0
   22.3950   -2.0478  -15.7058 C   0  0  0  0  0  0  0  0  0  0  0  0
   22.7150   -0.9560  -15.1963 O   0  0  0  0  0  0  0  0  0  0  0  0
   22.1199   -3.2986  -14.9006 C   0  0  0  0  0  0  0  0  0  0  0  0
   21.9602   -4.4781  -15.8184 C   0  0  0  0  0  0  0  0  0  0  0  0
   21.7390   -5.7216  -15.0542 C   0  0  2  0  0  0  0  0  0  0  0  0
   21.6796   -6.9056  -15.8877 N   0  0  0  0  0  0  0  0  0  0  0  0
   20.5637   -5.7040  -14.1707 C   0  0  0  0  0  0  0  0  0  0  0  0
   20.5271   -5.2768  -12.8596 O   0  0  0  0  0  0  0  0  0  0  0  0
   19.4166   -6.1197  -14.6001 O   0  0  0  0  0  0  0  0  0  0  0  0
  2  3  1  0
  2  1  1  6
  3  4  1  0
  4  5  2  0
  5  6  1  0
  7  6  2  0
  8  7  1  0
  9  4  1  0
  9  8  2  0
 10 18  1  0
 10  2  1  0
 11 10  2  0
 13 12  1  0
 14 13  2  0
 15 13  1  0
 16 15  1  0
 17 16  1  1
 17 18  1  0
 19 20  2  0
 19 17  1  0
 21 22  1  0
 22 23  2  0
 24 22  1  0
 24 25  1  0
 26 25  1  6
 26 28  1  0
 26 27  1  0
 27 19  1  0
 28 29  1  0
 30 28  2  0
M  END
$$$$
