FQQ.pdb
     RDKit          3D

 30 30  0  0  1  0  0  0  0  0999 V2000
   28.2543  -22.7036  -13.4160 N   0  0  0  0  0  0  0  0  0  0  0  0
   27.9358  -22.0635  -12.1590 C   0  0  1  0  0  0  0  0  0  0  0  0
   28.8164  -20.8066  -12.1093 C   0  0  0  0  0  0  0  0  0  0  0  0
   30.1510  -21.1220  -11.5366 C   0  0  0  0  0  0  0  0  0  0  0  0
   31.2086  -21.6180  -12.2718 C   0  0  0  0  0  0  0  0  0  0  0  0
   32.4398  -21.9009  -11.7002 C   0  0  0  0  0  0  0  0  0  0  0  0
   32.6046  -21.6743  -10.3437 C   0  0  0  0  0  0  0  0  0  0  0  0
   31.5666  -21.1820   -9.5950 C   0  0  0  0  0  0  0  0  0  0  0  0
   30.3656  -20.9112  -10.1761 C   0  0  0  0  0  0  0  0  0  0  0  0
   26.5375  -21.5718  -12.2183 C   0  0  0  0  0  0  0  0  0  0  0  0
   25.8931  -21.8092  -13.2905 O   0  0  0  0  0  0  0  0  0  0  0  0
   21.7476  -20.9876   -8.6698 N   0  0  0  0  0  0  0  0  0  0  0  0
   23.0628  -21.2073   -8.1131 C   0  0  0  0  0  0  0  0  0  0  0  0
   23.0973  -21.8834   -7.0737 O   0  0  0  0  0  0  0  0  0  0  0  0
   24.2551  -20.6625   -8.7384 C   0  0  0  0  0  0  0  0  0  0  0  0
   24.1590  -19.8200   -9.9351 C   0  0  0  0  0  0  0  0  0  0  0  0
   24.5516  -20.4975  -11.2271 C   0  0  2  0  0  0  0  0  0  0  0  0
   25.9236  -20.8708  -11.1516 N   0  0  0  0  0  0  0  0  0  0  0  0
   24.1252  -19.7634  -12.4090 C   0  0  0  0  0  0  0  0  0  0  0  0
   24.5704  -18.5977  -12.7067 O   0  0  0  0  0  0  0  0  0  0  0  0
   26.1597  -20.2402  -17.2863 N   0  0  0  0  0  0  0  0  0  0  0  0
   25.0936  -19.4844  -17.8117 C   0  0  0  0  0  0  0  0  0  0  0  0
   25.1702  -19.0447  -18.9756 O   0  0  0  0  0  0  0  0  0  0  0  0
   23.9036  -19.2538  -16.9065 C   0  0  0  0  0  0  0  0  0  0  0  0
   24.1267  -19.9250  -15.5802 C   0  0  0  0  0  0  0  0  0  0  0  0
   22.9861  -19.6997  -14.6707 C   0  0  2  0  0  0  0  0  0  0  0  0
   23.1798  -20.2715  -13.3533 N   0  0  0  0  0  0  0  0  0  0  0  0
   21.6832  -20.1394  -15.1916 C   0  0  0  0  0  0  0  0  0  0  0  0
   20.8831  -21.1351  -14.6709 O   0  0  0  0  0  0  0  0  0  0  0  0
   21.1774  -19.5814  -16.2433 O   0  0  0  0  0  0  0  0  0  0  0  0
  2  3  1  0
  2  1  1  6
  3  4  1  0
  4  5  2  0
  5  6  1  0
  7  6  2  0
  8  7  1  0
  9  4  1  0
  9  8  2  0
 10 18  1  0
 10  2  1  0
 11 10  2  0
 13 12  1  0
 14 13  2  0
 15 13  1  0
 16 15  1  0
 17 16  1  1
 17 18  1  0
 19 20  2  0
 19 17  1  0
 21 22  1  0
 22 23  2  0
 24 22  1  0
 24 25  1  0
 26 25  1  6
 26 28  1  0
 26 27  1  0
 27 19  1  0
 28 29  1  0
 30 28  2  0
M  END
$$$$
