FQQ.pdb
     RDKit          3D

 30 30  0  0  1  0  0  0  0  0999 V2000
   14.4230   -9.7454   -9.6000 N   0  0  0  0  0  0  0  0  0  0  0  0
   14.5642   -8.3367   -9.8952 C   0  0  1  0  0  0  0  0  0  0  0  0
   15.1041   -7.7041   -8.6046 C   0  0  0  0  0  0  0  0  0  0  0  0
   13.9879   -7.2494   -7.7350 C   0  0  0  0  0  0  0  0  0  0  0  0
   12.8983   -8.0303   -7.4065 C   0  0  0  0  0  0  0  0  0  0  0  0
   11.8754   -7.5692   -6.5918 C   0  0  0  0  0  0  0  0  0  0  0  0
   11.9590   -6.2790   -6.0949 C   0  0  0  0  0  0  0  0  0  0  0  0
   13.0331   -5.4865   -6.4093 C   0  0  0  0  0  0  0  0  0  0  0  0
   14.0266   -5.9588   -7.2113 C   0  0  0  0  0  0  0  0  0  0  0  0
   15.6384   -8.1692  -10.9043 C   0  0  0  0  0  0  0  0  0  0  0  0
   16.3884   -9.1766  -11.1134 O   0  0  0  0  0  0  0  0  0  0  0  0
   17.6082  -10.6957  -14.2421 N   0  0  0  0  0  0  0  0  0  0  0  0
   17.7365   -9.5674  -15.1357 C   0  0  0  0  0  0  0  0  0  0  0  0
   18.4405   -9.7573  -16.1391 O   0  0  0  0  0  0  0  0  0  0  0  0
   17.0820   -8.3003  -14.8610 C   0  0  0  0  0  0  0  0  0  0  0  0
   16.2617   -8.1224  -13.6583 C   0  0  0  0  0  0  0  0  0  0  0  0
   16.6418   -6.9431  -12.7938 C   0  0  2  0  0  0  0  0  0  0  0  0
   15.8433   -6.9613  -11.6150 N   0  0  0  0  0  0  0  0  0  0  0  0
   16.7094   -5.6917  -13.5334 C   0  0  0  0  0  0  0  0  0  0  0  0
   15.6683   -5.0287  -13.8829 O   0  0  0  0  0  0  0  0  0  0  0  0
   16.8620   -3.7207  -18.5527 N   0  0  0  0  0  0  0  0  0  0  0  0
   17.2872   -2.4752  -18.0507 C   0  0  0  0  0  0  0  0  0  0  0  0
   17.2867   -1.4802  -18.8017 O   0  0  0  0  0  0  0  0  0  0  0  0
   17.7245   -2.4311  -16.6032 C   0  0  0  0  0  0  0  0  0  0  0  0
   17.5635   -3.7867  -15.9742 C   0  0  0  0  0  0  0  0  0  0  0  0
   18.0065   -3.7765  -14.5661 C   0  0  2  0  0  0  0  0  0  0  0  0
   17.9373   -5.0780  -13.9324 N   0  0  0  0  0  0  0  0  0  0  0  0
   17.3240   -2.7951  -13.7098 C   0  0  0  0  0  0  0  0  0  0  0  0
   17.5854   -1.4425  -13.6399 O   0  0  0  0  0  0  0  0  0  0  0  0
   16.3747   -3.1692  -12.9149 O   0  0  0  0  0  0  0  0  0  0  0  0
  2  3  1  0
  2  1  1  1
  3  4  1  0
  4  5  2  0
  5  6  1  0
  7  6  2  0
  8  7  1  0
  9  4  1  0
  9  8  2  0
 10 18  1  0
 10  2  1  0
 11 10  2  0
 13 12  1  0
 14 13  2  0
 15 13  1  0
 16 15  1  0
 17 16  1  6
 17 18  1  0
 19 20  2  0
 19 17  1  0
 21 22  1  0
 22 23  2  0
 24 22  1  0
 24 25  1  0
 26 25  1  6
 26 28  1  0
 26 27  1  0
 27 19  1  0
 28 29  1  0
 30 28  2  0
M  END
$$$$
