FQQ.pdb
     RDKit          3D

 30 30  0  0  1  0  0  0  0  0999 V2000
   25.6890  -19.3997  -16.8907 N   0  0  0  0  0  0  0  0  0  0  0  0
   25.0994  -18.5730  -15.8611 C   0  0  1  0  0  0  0  0  0  0  0  0
   24.5067  -17.3652  -16.6008 C   0  0  0  0  0  0  0  0  0  0  0  0
   25.5842  -16.4559  -17.0709 C   0  0  0  0  0  0  0  0  0  0  0  0
   25.9775  -16.3422  -18.3889 C   0  0  0  0  0  0  0  0  0  0  0  0
   26.9889  -15.4819  -18.7884 C   0  0  0  0  0  0  0  0  0  0  0  0
   27.6204  -14.7139  -17.8241 C   0  0  0  0  0  0  0  0  0  0  0  0
   27.2449  -14.8117  -16.5089 C   0  0  0  0  0  0  0  0  0  0  0  0
   26.2493  -15.6630  -16.1380 C   0  0  0  0  0  0  0  0  0  0  0  0
   23.9417  -19.2949  -15.2788 C   0  0  0  0  0  0  0  0  0  0  0  0
   23.4198  -20.2097  -15.9942 O   0  0  0  0  0  0  0  0  0  0  0  0
   22.8588  -20.8569   -9.1860 N   0  0  0  0  0  0  0  0  0  0  0  0
   21.7183  -21.2676   -9.9724 C   0  0  0  0  0  0  0  0  0  0  0  0
   20.8981  -21.9913   -9.3874 O   0  0  0  0  0  0  0  0  0  0  0  0
   21.5593  -20.8557  -11.3560 C   0  0  0  0  0  0  0  0  0  0  0  0
   22.5534  -19.9931  -12.0032 C   0  0  0  0  0  0  0  0  0  0  0  0
   22.3213  -19.7430  -13.4749 C   0  0  2  0  0  0  0  0  0  0  0  0
   23.4214  -19.0029  -13.9942 N   0  0  0  0  0  0  0  0  0  0  0  0
   20.9858  -19.2431  -13.7652 C   0  0  0  0  0  0  0  0  0  0  0  0
   20.6194  -18.0398  -13.5136 O   0  0  0  0  0  0  0  0  0  0  0  0
   17.1432  -18.4156  -18.0337 N   0  0  0  0  0  0  0  0  0  0  0  0
   16.2192  -19.2152  -17.3332 C   0  0  0  0  0  0  0  0  0  0  0  0
   15.0182  -19.1976  -17.6666 O   0  0  0  0  0  0  0  0  0  0  0  0
   16.7610  -20.0581  -16.1999 C   0  0  0  0  0  0  0  0  0  0  0  0
   18.2533  -19.9029  -16.1092 C   0  0  0  0  0  0  0  0  0  0  0  0
   18.6662  -19.5103  -14.7474 C   0  0  2  0  0  0  0  0  0  0  0  0
   19.9602  -20.0384  -14.3645 N   0  0  0  0  0  0  0  0  0  0  0  0
   17.6934  -19.8260  -13.6908 C   0  0  0  0  0  0  0  0  0  0  0  0
   16.5468  -19.1202  -13.3913 O   0  0  0  0  0  0  0  0  0  0  0  0
   17.8699  -20.8537  -12.9254 O   0  0  0  0  0  0  0  0  0  0  0  0
  2  3  1  0
  2  1  1  6
  3  4  1  0
  4  5  2  0
  5  6  1  0
  7  6  2  0
  8  7  1  0
  9  4  1  0
  9  8  2  0
 10 18  1  0
 10  2  1  0
 11 10  2  0
 13 12  1  0
 14 13  2  0
 15 13  1  0
 16 15  1  0
 17 16  1  1
 17 18  1  0
 19 20  2  0
 19 17  1  0
 21 22  1  0
 22 23  2  0
 24 22  1  0
 24 25  1  0
 26 25  1  6
 26 28  1  0
 26 27  1  0
 27 19  1  0
 28 29  1  0
 30 28  2  0
M  END
$$$$
