FQQ.pdb
     RDKit          3D

 30 30  0  0  1  0  0  0  0  0999 V2000
   28.4594  -24.8990  -16.9962 N   0  0  0  0  0  0  0  0  0  0  0  0
   27.9293  -25.9817  -17.7950 C   0  0  1  0  0  0  0  0  0  0  0  0
   29.1503  -26.8152  -18.2096 C   0  0  0  0  0  0  0  0  0  0  0  0
   29.8044  -26.2292  -19.4086 C   0  0  0  0  0  0  0  0  0  0  0  0
   31.0308  -25.5965  -19.3868 C   0  0  0  0  0  0  0  0  0  0  0  0
   31.6084  -25.0612  -20.5280 C   0  0  0  0  0  0  0  0  0  0  0  0
   30.9234  -25.1703  -21.7270 C   0  0  0  0  0  0  0  0  0  0  0  0
   29.7034  -25.7950  -21.7705 C   0  0  0  0  0  0  0  0  0  0  0  0
   29.1541  -26.3137  -20.6380 C   0  0  0  0  0  0  0  0  0  0  0  0
   27.1194  -26.8640  -16.9198 C   0  0  0  0  0  0  0  0  0  0  0  0
   27.3749  -26.8230  -15.6731 O   0  0  0  0  0  0  0  0  0  0  0  0
   21.9602  -30.2009  -17.9623 N   0  0  0  0  0  0  0  0  0  0  0  0
   21.9624  -29.8897  -16.5512 C   0  0  0  0  0  0  0  0  0  0  0  0
   21.1298  -30.5039  -15.8670 O   0  0  0  0  0  0  0  0  0  0  0  0
   22.8817  -28.9168  -15.9874 C   0  0  0  0  0  0  0  0  0  0  0  0
   23.8423  -28.2077  -16.8392 C   0  0  0  0  0  0  0  0  0  0  0  0
   25.2954  -28.4755  -16.5240 C   0  0  2  0  0  0  0  0  0  0  0  0
   26.1061  -27.7194  -17.4176 N   0  0  0  0  0  0  0  0  0  0  0  0
   25.5979  -29.8922  -16.3867 C   0  0  0  0  0  0  0  0  0  0  0  0
   25.8512  -30.6535  -17.3877 O   0  0  0  0  0  0  0  0  0  0  0  0
   25.7739  -33.4456  -11.1169 N   0  0  0  0  0  0  0  0  0  0  0  0
   26.1797  -34.3889  -12.0810 C   0  0  0  0  0  0  0  0  0  0  0  0
   26.4693  -35.5466  -11.7207 O   0  0  0  0  0  0  0  0  0  0  0  0
   26.2372  -33.9206  -13.5183 C   0  0  0  0  0  0  0  0  0  0  0  0
   25.8858  -32.4614  -13.5998 C   0  0  0  0  0  0  0  0  0  0  0  0
   25.8711  -31.9945  -15.0002 C   0  0  2  0  0  0  0  0  0  0  0  0
   25.6508  -30.5679  -15.1281 N   0  0  0  0  0  0  0  0  0  0  0  0
   24.9263  -32.7010  -15.8780 C   0  0  0  0  0  0  0  0  0  0  0  0
   25.2467  -33.5248  -16.9370 O   0  0  0  0  0  0  0  0  0  0  0  0
   23.6512  -32.5805  -15.6979 O   0  0  0  0  0  0  0  0  0  0  0  0
  2  3  1  0
  2  1  1  1
  3  4  1  0
  4  5  2  0
  5  6  1  0
  7  6  2  0
  8  7  1  0
  9  4  1  0
  9  8  2  0
 10 18  1  0
 10  2  1  0
 11 10  2  0
 13 12  1  0
 14 13  2  0
 15 13  1  0
 16 15  1  0
 17 16  1  6
 17 18  1  0
 19 20  2  0
 19 17  1  0
 21 22  1  0
 22 23  2  0
 24 22  1  0
 24 25  1  0
 26 25  1  1
 26 28  1  0
 26 27  1  0
 27 19  1  0
 28 29  1  0
 30 28  2  0
M  END
$$$$
