FQQ.pdb
     RDKit          3D

 30 30  0  0  1  0  0  0  0  0999 V2000
   26.2908  -21.5099   -8.1848 N   0  0  0  0  0  0  0  0  0  0  0  0
   26.3089  -20.1402   -8.6483 C   0  0  1  0  0  0  0  0  0  0  0  0
   27.7877  -19.7274   -8.6357 C   0  0  0  0  0  0  0  0  0  0  0  0
   28.2649  -19.5239   -7.2430 C   0  0  0  0  0  0  0  0  0  0  0  0
   28.1637  -18.3292   -6.5594 C   0  0  0  0  0  0  0  0  0  0  0  0
   28.6221  -18.1786   -5.2595 C   0  0  0  0  0  0  0  0  0  0  0  0
   29.1998  -19.2707   -4.6334 C   0  0  0  0  0  0  0  0  0  0  0  0
   29.3102  -20.4669   -5.2948 C   0  0  0  0  0  0  0  0  0  0  0  0
   28.8537  -20.5932   -6.5712 C   0  0  0  0  0  0  0  0  0  0  0  0
   25.8977  -20.1166  -10.0734 C   0  0  0  0  0  0  0  0  0  0  0  0
   25.9300  -18.9866  -10.6590 O   0  0  0  0  0  0  0  0  0  0  0  0
   26.2669  -24.7492  -14.5525 N   0  0  0  0  0  0  0  0  0  0  0  0
   25.6192  -23.5883  -15.1186 C   0  0  0  0  0  0  0  0  0  0  0  0
   25.4285  -23.6266  -16.3437 O   0  0  0  0  0  0  0  0  0  0  0  0
   25.2273  -22.4578  -14.2954 C   0  0  0  0  0  0  0  0  0  0  0  0
   25.4993  -22.4464  -12.8542 C   0  0  0  0  0  0  0  0  0  0  0  0
   25.0688  -21.1911  -12.1322 C   0  0  2  0  0  0  0  0  0  0  0  0
   25.4852  -21.2769  -10.7733 N   0  0  0  0  0  0  0  0  0  0  0  0
   23.6796  -20.8370  -12.3821 C   0  0  0  0  0  0  0  0  0  0  0  0
   22.7000  -21.3432  -11.7265 O   0  0  0  0  0  0  0  0  0  0  0  0
   21.3129  -16.4154  -16.2799 N   0  0  0  0  0  0  0  0  0  0  0  0
   20.1250  -16.9640  -15.7586 C   0  0  0  0  0  0  0  0  0  0  0  0
   19.0258  -16.5095  -16.1314 O   0  0  0  0  0  0  0  0  0  0  0  0
   20.2695  -18.0916  -14.7605 C   0  0  0  0  0  0  0  0  0  0  0  0
   21.7223  -18.4227  -14.5629 C   0  0  0  0  0  0  0  0  0  0  0  0
   21.8880  -19.5646  -13.6422 C   0  0  2  0  0  0  0  0  0  0  0  0
   23.2744  -19.8883  -13.3718 N   0  0  0  0  0  0  0  0  0  0  0  0
   21.1842  -20.7912  -14.0450 C   0  0  0  0  0  0  0  0  0  0  0  0
   19.9220  -21.1825  -13.6495 O   0  0  0  0  0  0  0  0  0  0  0  0
   21.7479  -21.6350  -14.8471 O   0  0  0  0  0  0  0  0  0  0  0  0
  2  3  1  0
  2  1  1  6
  3  4  1  0
  4  5  2  0
  5  6  1  0
  7  6  2  0
  8  7  1  0
  9  4  1  0
  9  8  2  0
 10 18  1  0
 10  2  1  0
 11 10  2  0
 13 12  1  0
 14 13  2  0
 15 13  1  0
 16 15  1  0
 17 16  1  1
 17 18  1  0
 19 20  2  0
 19 17  1  0
 21 22  1  0
 22 23  2  0
 24 22  1  0
 24 25  1  0
 26 25  1  6
 26 28  1  0
 26 27  1  0
 27 19  1  0
 28 29  1  0
 30 28  2  0
M  END
$$$$
