FQQ.pdb
     RDKit          3D

 30 30  0  0  1  0  0  0  0  0999 V2000
   26.6398  -33.2333    2.4860 N   0  0  0  0  0  0  0  0  0  0  0  0
   27.6832  -32.7248    3.3486 C   0  0  1  0  0  0  0  0  0  0  0  0
   27.0307  -32.5771    4.7306 C   0  0  0  0  0  0  0  0  0  0  0  0
   26.0502  -31.4601    4.7325 C   0  0  0  0  0  0  0  0  0  0  0  0
   26.3985  -30.1276    4.6429 C   0  0  0  0  0  0  0  0  0  0  0  0
   25.4532  -29.1132    4.6487 C   0  0  0  0  0  0  0  0  0  0  0  0
   24.1156  -29.4589    4.7479 C   0  0  0  0  0  0  0  0  0  0  0  0
   23.7483  -30.7770    4.8380 C   0  0  0  0  0  0  0  0  0  0  0  0
   24.6926  -31.7576    4.8307 C   0  0  0  0  0  0  0  0  0  0  0  0
   28.7216  -33.7725    3.5048 C   0  0  0  0  0  0  0  0  0  0  0  0
   28.3405  -34.9797    3.3692 O   0  0  0  0  0  0  0  0  0  0  0  0
   34.4368  -33.6756    5.8549 N   0  0  0  0  0  0  0  0  0  0  0  0
   34.4937  -34.7745    4.9184 C   0  0  0  0  0  0  0  0  0  0  0  0
   35.4391  -35.5621    5.0750 O   0  0  0  0  0  0  0  0  0  0  0  0
   33.5045  -34.9305    3.8665 C   0  0  0  0  0  0  0  0  0  0  0  0
   32.4114  -33.9648    3.7123 C   0  0  0  0  0  0  0  0  0  0  0  0
   31.0278  -34.5217    3.9526 C   0  0  2  0  0  0  0  0  0  0  0  0
   30.0766  -33.4747    3.7904 N   0  0  0  0  0  0  0  0  0  0  0  0
   30.9372  -35.3220    5.1646 C   0  0  0  0  0  0  0  0  0  0  0  0
   30.5413  -34.8469    6.2885 O   0  0  0  0  0  0  0  0  0  0  0  0
   26.9289  -36.9133    7.6439 N   0  0  0  0  0  0  0  0  0  0  0  0
   27.4845  -38.1586    7.9967 C   0  0  0  0  0  0  0  0  0  0  0  0
   26.7680  -39.0124    8.5547 O   0  0  0  0  0  0  0  0  0  0  0  0
   28.9445  -38.3776    7.6664 C   0  0  0  0  0  0  0  0  0  0  0  0
   29.3962  -37.3788    6.6380 C   0  0  0  0  0  0  0  0  0  0  0  0
   30.8069  -37.6005    6.2639 C   0  0  2  0  0  0  0  0  0  0  0  0
   31.2706  -36.7111    5.2180 N   0  0  0  0  0  0  0  0  0  0  0  0
   31.1382  -38.9839    5.8917 C   0  0  0  0  0  0  0  0  0  0  0  0
   31.2583  -39.4847    4.6120 O   0  0  0  0  0  0  0  0  0  0  0  0
   31.3480  -39.8746    6.8058 O   0  0  0  0  0  0  0  0  0  0  0  0
  2  3  1  0
  2  1  1  6
  3  4  1  0
  4  5  2  0
  5  6  1  0
  7  6  2  0
  8  7  1  0
  9  4  1  0
  9  8  2  0
 10 18  1  0
 10  2  1  0
 11 10  2  0
 13 12  1  0
 14 13  2  0
 15 13  1  0
 16 15  1  0
 17 16  1  1
 17 18  1  0
 19 20  2  0
 19 17  1  0
 21 22  1  0
 22 23  2  0
 24 22  1  0
 24 25  1  0
 26 25  1  6
 26 28  1  0
 26 27  1  0
 27 19  1  0
 28 29  1  0
 30 28  2  0
M  END
$$$$
