FQQ.pdb
     RDKit          3D

 30 30  0  0  1  0  0  0  0  0999 V2000
   23.8949  -14.8346  -17.7050 N   0  0  0  0  0  0  0  0  0  0  0  0
   23.9545  -13.8584  -16.6398 C   0  0  1  0  0  0  0  0  0  0  0  0
   25.4492  -13.5740  -16.4334 C   0  0  0  0  0  0  0  0  0  0  0  0
   26.1822  -14.8249  -16.1068 C   0  0  0  0  0  0  0  0  0  0  0  0
   26.8894  -15.5683  -17.0300 C   0  0  0  0  0  0  0  0  0  0  0  0
   27.5605  -16.7319  -16.6860 C   0  0  0  0  0  0  0  0  0  0  0  0
   27.5141  -17.1547  -15.3679 C   0  0  0  0  0  0  0  0  0  0  0  0
   26.8170  -16.4308  -14.4349 C   0  0  0  0  0  0  0  0  0  0  0  0
   26.1647  -15.2910  -14.7939 C   0  0  0  0  0  0  0  0  0  0  0  0
   23.3677  -12.5868  -17.1289 C   0  0  0  0  0  0  0  0  0  0  0  0
   23.1416  -12.5051  -18.3792 O   0  0  0  0  0  0  0  0  0  0  0  0
   19.8545  -13.5990  -18.1001 N   0  0  0  0  0  0  0  0  0  0  0  0
   20.4047  -12.6773  -19.0675 C   0  0  0  0  0  0  0  0  0  0  0  0
   20.3374  -13.0414  -20.2513 O   0  0  0  0  0  0  0  0  0  0  0  0
   20.9977  -11.4143  -18.6642 C   0  0  0  0  0  0  0  0  0  0  0  0
   20.9574  -10.9770  -17.2649 C   0  0  0  0  0  0  0  0  0  0  0  0
   22.2570  -10.4215  -16.7311 C   0  0  2  0  0  0  0  0  0  0  0  0
   23.0637  -11.5011  -16.2715 N   0  0  0  0  0  0  0  0  0  0  0  0
   22.0683   -9.2984  -15.8252 C   0  0  0  0  0  0  0  0  0  0  0  0
   21.9346   -9.4375  -14.5570 O   0  0  0  0  0  0  0  0  0  0  0  0
   22.2312   -1.9265  -14.8043 N   0  0  0  0  0  0  0  0  0  0  0  0
   22.3641   -3.0807  -15.6006 C   0  0  0  0  0  0  0  0  0  0  0  0
   22.7697   -2.9712  -16.7742 O   0  0  0  0  0  0  0  0  0  0  0  0
   21.9969   -4.4018  -14.9617 C   0  0  0  0  0  0  0  0  0  0  0  0
   22.1028   -5.5102  -15.9714 C   0  0  0  0  0  0  0  0  0  0  0  0
   21.8225   -6.8216  -15.3542 C   0  0  2  0  0  0  0  0  0  0  0  0
   22.0227   -7.9366  -16.2579 N   0  0  0  0  0  0  0  0  0  0  0  0
   20.4932   -6.9436  -14.7375 C   0  0  0  0  0  0  0  0  0  0  0  0
   20.1597   -6.6354  -13.4350 O   0  0  0  0  0  0  0  0  0  0  0  0
   19.4899   -7.3801  -15.4273 O   0  0  0  0  0  0  0  0  0  0  0  0
  2  3  1  0
  2  1  1  6
  3  4  1  0
  4  5  2  0
  5  6  1  0
  7  6  2  0
  8  7  1  0
  9  4  1  0
  9  8  2  0
 10 18  1  0
 10  2  1  0
 11 10  2  0
 13 12  1  0
 14 13  2  0
 15 13  1  0
 16 15  1  0
 17 16  1  1
 17 18  1  0
 19 20  2  0
 19 17  1  0
 21 22  1  0
 22 23  2  0
 24 22  1  0
 24 25  1  0
 26 25  1  6
 26 28  1  0
 26 27  1  0
 27 19  1  0
 28 29  1  0
 30 28  2  0
M  END
$$$$
