FQQ.pdb
     RDKit          3D

 30 30  0  0  1  0  0  0  0  0999 V2000
   27.3284  -22.0870  -11.0821 N   0  0  0  0  0  0  0  0  0  0  0  0
   26.3650  -21.0812  -10.6927 C   0  0  1  0  0  0  0  0  0  0  0  0
   27.1954  -19.8379  -10.3433 C   0  0  0  0  0  0  0  0  0  0  0  0
   27.8176  -19.9814   -9.0012 C   0  0  0  0  0  0  0  0  0  0  0  0
   29.1076  -20.4253   -8.7922 C   0  0  0  0  0  0  0  0  0  0  0  0
   29.6526  -20.5465   -7.5229 C   0  0  0  0  0  0  0  0  0  0  0  0
   28.8676  -20.2075   -6.4332 C   0  0  0  0  0  0  0  0  0  0  0  0
   27.5833  -19.7643   -6.6190 C   0  0  0  0  0  0  0  0  0  0  0  0
   27.0675  -19.6529   -7.8739 C   0  0  0  0  0  0  0  0  0  0  0  0
   25.5632  -20.7068  -11.8832 C   0  0  0  0  0  0  0  0  0  0  0  0
   26.1915  -20.6017  -12.9856 O   0  0  0  0  0  0  0  0  0  0  0  0
   24.0879  -25.1542  -13.9443 N   0  0  0  0  0  0  0  0  0  0  0  0
   24.6734  -24.0459  -14.6631 C   0  0  0  0  0  0  0  0  0  0  0  0
   25.4008  -24.3534  -15.6196 O   0  0  0  0  0  0  0  0  0  0  0  0
   24.4209  -22.6689  -14.2763 C   0  0  0  0  0  0  0  0  0  0  0  0
   23.5340  -22.3540  -13.1515 C   0  0  0  0  0  0  0  0  0  0  0  0
   23.3223  -20.8798  -12.8976 C   0  0  2  0  0  0  0  0  0  0  0  0
   24.1675  -20.4721  -11.8267 N   0  0  0  0  0  0  0  0  0  0  0  0
   21.9171  -20.5110  -12.8146 C   0  0  0  0  0  0  0  0  0  0  0  0
   21.1571  -20.8654  -11.8439 O   0  0  0  0  0  0  0  0  0  0  0  0
   18.6507  -16.3171  -16.2889 N   0  0  0  0  0  0  0  0  0  0  0  0
   19.6350  -15.9181  -15.3638 C   0  0  0  0  0  0  0  0  0  0  0  0
   20.0148  -14.7309  -15.3481 O   0  0  0  0  0  0  0  0  0  0  0  0
   20.1746  -16.9819  -14.4334 C   0  0  0  0  0  0  0  0  0  0  0  0
   19.4747  -18.2885  -14.6827 C   0  0  0  0  0  0  0  0  0  0  0  0
   19.8678  -19.3023  -13.6844 C   0  0  2  0  0  0  0  0  0  0  0  0
   21.2526  -19.7140  -13.7980 N   0  0  0  0  0  0  0  0  0  0  0  0
   19.0175  -20.5016  -13.6527 C   0  0  0  0  0  0  0  0  0  0  0  0
   17.8851  -20.6865  -12.8870 O   0  0  0  0  0  0  0  0  0  0  0  0
   19.3030  -21.5253  -14.3898 O   0  0  0  0  0  0  0  0  0  0  0  0
  2  3  1  0
  2  1  1  6
  3  4  1  0
  4  5  2  0
  5  6  1  0
  7  6  2  0
  8  7  1  0
  9  4  1  0
  9  8  2  0
 10 18  1  0
 10  2  1  0
 11 10  2  0
 13 12  1  0
 14 13  2  0
 15 13  1  0
 16 15  1  0
 17 16  1  1
 17 18  1  0
 19 20  2  0
 19 17  1  0
 21 22  1  0
 22 23  2  0
 24 22  1  0
 24 25  1  0
 26 25  1  6
 26 28  1  0
 26 27  1  0
 27 19  1  0
 28 29  1  0
 30 28  2  0
M  END
$$$$
