FQQ.pdb
     RDKit          3D

 30 30  0  0  1  0  0  0  0  0999 V2000
   25.3646  -12.0928  -16.8450 N   0  0  0  0  0  0  0  0  0  0  0  0
   24.4779  -11.7716  -15.7487 C   0  0  1  0  0  0  0  0  0  0  0  0
   25.2909  -10.8528  -14.8254 C   0  0  0  0  0  0  0  0  0  0  0  0
   25.8146   -9.6824  -15.5769 C   0  0  0  0  0  0  0  0  0  0  0  0
   25.2193   -8.4372  -15.5785 C   0  0  0  0  0  0  0  0  0  0  0  0
   25.7387   -7.3691  -16.2940 C   0  0  0  0  0  0  0  0  0  0  0  0
   26.8954   -7.5681  -17.0293 C   0  0  0  0  0  0  0  0  0  0  0  0
   27.5027   -8.7976  -17.0413 C   0  0  0  0  0  0  0  0  0  0  0  0
   26.9759   -9.8332  -16.3318 C   0  0  0  0  0  0  0  0  0  0  0  0
   23.3660  -10.9377  -16.2670 C   0  0  0  0  0  0  0  0  0  0  0  0
   23.5381  -10.4012  -17.4088 O   0  0  0  0  0  0  0  0  0  0  0  0
   17.1507  -12.0794  -15.5596 N   0  0  0  0  0  0  0  0  0  0  0  0
   17.3003  -10.8590  -16.3185 C   0  0  0  0  0  0  0  0  0  0  0  0
   16.2585  -10.4102  -16.8202 O   0  0  0  0  0  0  0  0  0  0  0  0
   18.5923  -10.2149  -16.4778 C   0  0  0  0  0  0  0  0  0  0  0  0
   19.7944  -10.7747  -15.8511 C   0  0  0  0  0  0  0  0  0  0  0  0
   21.0757  -10.0318  -16.1491 C   0  0  2  0  0  0  0  0  0  0  0  0
   22.1620  -10.7309  -15.5503 N   0  0  0  0  0  0  0  0  0  0  0  0
   20.9800   -8.6028  -15.8911 C   0  0  0  0  0  0  0  0  0  0  0  0
   21.2459   -8.0786  -14.7509 O   0  0  0  0  0  0  0  0  0  0  0  0
   21.0789   -3.7854  -19.9163 N   0  0  0  0  0  0  0  0  0  0  0  0
   20.8422   -3.0930  -18.7127 C   0  0  0  0  0  0  0  0  0  0  0  0
   20.7962   -1.8473  -18.7221 O   0  0  0  0  0  0  0  0  0  0  0  0
   20.6565   -3.9280  -17.4651 C   0  0  0  0  0  0  0  0  0  0  0  0
   20.7038   -5.3900  -17.8111 C   0  0  0  0  0  0  0  0  0  0  0  0
   20.4806   -6.2276  -16.6162 C   0  0  2  0  0  0  0  0  0  0  0  0
   20.5910   -7.6480  -16.8814 N   0  0  0  0  0  0  0  0  0  0  0  0
   19.2160   -5.9737  -15.9102 C   0  0  0  0  0  0  0  0  0  0  0  0
   18.0308   -6.6603  -16.0737 O   0  0  0  0  0  0  0  0  0  0  0  0
   19.1345   -5.0240  -15.0359 O   0  0  0  0  0  0  0  0  0  0  0  0
  2  3  1  0
  2  1  1  6
  3  4  1  0
  4  5  2  0
  5  6  1  0
  7  6  2  0
  8  7  1  0
  9  4  1  0
  9  8  2  0
 10 18  1  0
 10  2  1  0
 11 10  2  0
 13 12  1  0
 14 13  2  0
 15 13  1  0
 16 15  1  0
 17 16  1  1
 17 18  1  0
 19 20  2  0
 19 17  1  0
 21 22  1  0
 22 23  2  0
 24 22  1  0
 24 25  1  0
 26 25  1  6
 26 28  1  0
 26 27  1  0
 27 19  1  0
 28 29  1  0
 30 28  2  0
M  END
$$$$
