FQQ.pdb
     RDKit          3D

 30 30  0  0  1  0  0  0  0  0999 V2000
   23.2695  -15.5722  -18.1719 N   0  0  0  0  0  0  0  0  0  0  0  0
   22.0743  -14.9803  -17.6130 C   0  0  1  0  0  0  0  0  0  0  0  0
   22.1448  -15.2696  -16.1067 C   0  0  0  0  0  0  0  0  0  0  0  0
   21.7033  -16.6588  -15.8168 C   0  0  0  0  0  0  0  0  0  0  0  0
   22.5384  -17.6513  -15.3452 C   0  0  0  0  0  0  0  0  0  0  0  0
   22.0883  -18.9372  -15.0873 C   0  0  0  0  0  0  0  0  0  0  0  0
   20.7527  -19.2261  -15.3135 C   0  0  0  0  0  0  0  0  0  0  0  0
   19.9061  -18.2544  -15.7821 C   0  0  0  0  0  0  0  0  0  0  0  0
   20.3687  -16.9980  -16.0290 C   0  0  0  0  0  0  0  0  0  0  0  0
   22.1701  -13.5058  -17.7435 C   0  0  0  0  0  0  0  0  0  0  0  0
   23.3307  -12.9956  -17.6259 O   0  0  0  0  0  0  0  0  0  0  0  0
   19.3005  -12.6823  -21.5207 N   0  0  0  0  0  0  0  0  0  0  0  0
   20.6538  -12.2025  -21.6822 C   0  0  0  0  0  0  0  0  0  0  0  0
   21.2435  -12.5979  -22.6993 O   0  0  0  0  0  0  0  0  0  0  0  0
   21.2702  -11.3198  -20.7074 C   0  0  0  0  0  0  0  0  0  0  0  0
   20.5441  -10.9060  -19.5021 C   0  0  0  0  0  0  0  0  0  0  0  0
   21.2053  -11.2822  -18.1968 C   0  0  2  0  0  0  0  0  0  0  0  0
   21.0443  -12.6813  -17.9868 N   0  0  0  0  0  0  0  0  0  0  0  0
   20.8447  -10.3980  -17.0988 C   0  0  0  0  0  0  0  0  0  0  0  0
   20.0525  -10.7461  -16.1517 O   0  0  0  0  0  0  0  0  0  0  0  0
   21.8642   -3.9127  -13.6112 N   0  0  0  0  0  0  0  0  0  0  0  0
   22.3235   -5.0042  -14.3738 C   0  0  0  0  0  0  0  0  0  0  0  0
   23.4768   -4.9786  -14.8463 O   0  0  0  0  0  0  0  0  0  0  0  0
   21.3638   -6.1569  -14.5706 C   0  0  0  0  0  0  0  0  0  0  0  0
   21.8598   -7.0602  -15.6647 C   0  0  0  0  0  0  0  0  0  0  0  0
   20.9015   -8.1512  -15.9303 C   0  0  2  0  0  0  0  0  0  0  0  0
   21.3430   -9.0649  -16.9648 N   0  0  0  0  0  0  0  0  0  0  0  0
   19.5329   -7.7109  -16.2389 C   0  0  0  0  0  0  0  0  0  0  0  0
   18.5230   -7.4681  -15.3312 O   0  0  0  0  0  0  0  0  0  0  0  0
   19.1698   -7.5146  -17.4648 O   0  0  0  0  0  0  0  0  0  0  0  0
  2  3  1  0
  2  1  1  6
  3  4  1  0
  4  5  2  0
  5  6  1  0
  7  6  2  0
  8  7  1  0
  9  4  1  0
  9  8  2  0
 10 18  1  0
 10  2  1  0
 11 10  2  0
 13 12  1  0
 14 13  2  0
 15 13  1  0
 16 15  1  0
 17 16  1  6
 17 18  1  0
 19 20  2  0
 19 17  1  0
 21 22  1  0
 22 23  2  0
 24 22  1  0
 24 25  1  0
 26 25  1  6
 26 28  1  0
 26 27  1  0
 27 19  1  0
 28 29  1  0
 30 28  2  0
M  END
$$$$
