ADY.pdb
     RDKit          3D

 26 26  0  0  1  0  0  0  0  0999 V2000
   22.3736  -10.3471  -19.7005 C   0  0  0  0  0  0  0  0  0  0  0  0
   21.1994  -10.8219  -18.9053 C   0  0  2  0  0  0  0  0  0  0  0  0
   20.0679  -11.2340  -19.6649 N   0  0  0  0  0  0  0  0  0  0  0  0
   20.8577   -9.7683  -17.8674 C   0  0  0  0  0  0  0  0  0  0  0  0
   21.0145   -8.6015  -18.2305 O   0  0  0  0  0  0  0  0  0  0  0  0
   20.4030  -10.1109  -16.6057 N   0  0  0  0  0  0  0  0  0  0  0  0
   19.9592   -9.2655  -15.5591 C   0  0  1  0  0  0  0  0  0  0  0  0
   18.8765   -9.7620  -14.6521 C   0  0  0  0  0  0  0  0  0  0  0  0
   17.7393  -10.2468  -15.4581 C   0  0  0  0  0  0  0  0  0  0  0  0
   17.0642   -9.4137  -16.1520 O   0  0  0  0  0  0  0  0  0  0  0  0
   21.0078   -8.4594  -14.9326 C   0  0  0  0  0  0  0  0  0  0  0  0
   22.1100   -9.0283  -14.5937 O   0  0  0  0  0  0  0  0  0  0  0  0
   17.3435  -11.5745  -15.5167 O   0  0  0  0  0  0  0  0  0  0  0  0
   21.1243   -1.7173  -18.2887 O   0  0  0  0  0  0  0  0  0  0  0  0
   21.5735   -2.7651  -17.5130 C   0  0  0  0  0  0  0  0  0  0  0  0
   21.4382   -4.0829  -17.9335 C   0  0  0  0  0  0  0  0  0  0  0  0
   21.8952   -5.1134  -17.1399 C   0  0  0  0  0  0  0  0  0  0  0  0
   22.4918   -4.8698  -15.9232 C   0  0  0  0  0  0  0  0  0  0  0  0
   22.9816   -5.9573  -15.0678 C   0  0  0  0  0  0  0  0  0  0  0  0
   22.0184   -6.4006  -14.0151 C   0  0  2  0  0  0  0  0  0  0  0  0
   20.9064   -7.0733  -14.6629 N   0  0  0  0  0  0  0  0  0  0  0  0
   21.5455   -5.3129  -13.1224 C   0  0  0  0  0  0  0  0  0  0  0  0
   22.4220   -4.6750  -12.2763 O   0  0  0  0  0  0  0  0  0  0  0  0
   22.6206   -3.5611  -15.5164 C   0  0  0  0  0  0  0  0  0  0  0  0
   22.1743   -2.5135  -16.2864 C   0  0  0  0  0  0  0  0  0  0  0  0
   20.3436   -4.9693  -13.1353 O   0  0  0  0  0  0  0  0  0  0  0  0
  2  3  1  0
  2  1  1  6
  4  2  1  0
  5  4  2  0
  6  4  1  0
  7  6  1  0
  7  8  1  1
  9  8  1  0
  9 10  2  0
 11  7  1  0
 11 21  1  0
 12 11  2  0
 13  9  1  0
 15 14  1  0
 16 15  2  0
 17 16  1  0
 18 24  1  0
 18 17  2  0
 19 18  1  0
 20 19  1  6
 20 21  1  0
 20 22  1  0
 22 26  2  0
 22 23  1  0
 24 25  2  0
 25 15  1  0
M  END
$$$$
