ADY.pdb
     RDKit          3D

 26 26  0  0  1  0  0  0  0  0999 V2000
   20.2330  -11.8891  -15.9778 C   0  0  0  0  0  0  0  0  0  0  0  0
   18.9455  -11.1965  -16.2927 C   0  0  2  0  0  0  0  0  0  0  0  0
   18.4151  -11.4438  -17.5906 N   0  0  0  0  0  0  0  0  0  0  0  0
   19.1049   -9.7164  -15.9958 C   0  0  0  0  0  0  0  0  0  0  0  0
   20.1854   -9.2263  -16.3280 O   0  0  0  0  0  0  0  0  0  0  0  0
   18.0974   -8.9829  -15.3934 N   0  0  0  0  0  0  0  0  0  0  0  0
   18.0538   -7.5956  -15.1093 C   0  0  1  0  0  0  0  0  0  0  0  0
   16.7163   -6.9418  -14.9517 C   0  0  0  0  0  0  0  0  0  0  0  0
   15.8036   -7.4213  -16.0076 C   0  0  0  0  0  0  0  0  0  0  0  0
   14.8099   -8.1576  -15.6887 O   0  0  0  0  0  0  0  0  0  0  0  0
   19.1161   -7.1151  -14.2248 C   0  0  0  0  0  0  0  0  0  0  0  0
   19.1018   -7.4668  -12.9880 O   0  0  0  0  0  0  0  0  0  0  0  0
   15.9523   -7.1207  -17.3532 O   0  0  0  0  0  0  0  0  0  0  0  0
   25.0205   -6.1873  -18.7749 O   0  0  0  0  0  0  0  0  0  0  0  0
   24.3664   -6.3518  -17.5722 C   0  0  0  0  0  0  0  0  0  0  0  0
   23.5027   -7.4202  -17.3617 C   0  0  0  0  0  0  0  0  0  0  0  0
   22.8601   -7.5630  -16.1503 C   0  0  0  0  0  0  0  0  0  0  0  0
   23.0535   -6.6628  -15.1267 C   0  0  0  0  0  0  0  0  0  0  0  0
   22.3751   -6.8021  -13.8326 C   0  0  0  0  0  0  0  0  0  0  0  0
   21.1929   -5.9064  -13.6523 C   0  0  2  0  0  0  0  0  0  0  0  0
   20.1827   -6.2758  -14.6277 N   0  0  0  0  0  0  0  0  0  0  0  0
   21.5076   -4.4573  -13.7231 C   0  0  0  0  0  0  0  0  0  0  0  0
   22.3992   -3.8938  -12.8407 O   0  0  0  0  0  0  0  0  0  0  0  0
   23.9110   -5.6085  -15.3459 C   0  0  0  0  0  0  0  0  0  0  0  0
   24.5651   -5.4405  -16.5431 C   0  0  0  0  0  0  0  0  0  0  0  0
   20.9622   -3.7390  -14.5887 O   0  0  0  0  0  0  0  0  0  0  0  0
  2  3  1  0
  2  1  1  6
  4  2  1  0
  5  4  2  0
  6  4  1  0
  7  6  1  0
  7  8  1  1
  9  8  1  0
  9 10  2  0
 11  7  1  0
 11 21  1  0
 12 11  2  0
 13  9  1  0
 15 14  1  0
 16 15  2  0
 17 16  1  0
 18 24  1  0
 18 17  2  0
 19 18  1  0
 20 19  1  6
 20 21  1  0
 20 22  1  0
 22 26  2  0
 22 23  1  0
 24 25  2  0
 25 15  1  0
M  END
$$$$
