ADY.pdb
     RDKit          3D

 26 26  0  0  1  0  0  0  0  0999 V2000
   22.0269  -11.1603  -20.5843 C   0  0  0  0  0  0  0  0  0  0  0  0
   21.8800  -11.5695  -19.1534 C   0  0  2  0  0  0  0  0  0  0  0  0
   21.2184  -12.8107  -18.9331 N   0  0  0  0  0  0  0  0  0  0  0  0
   21.2501  -10.4234  -18.3827 C   0  0  0  0  0  0  0  0  0  0  0  0
   20.3036   -9.8691  -18.9438 O   0  0  0  0  0  0  0  0  0  0  0  0
   21.7181  -10.0403  -17.1376 N   0  0  0  0  0  0  0  0  0  0  0  0
   21.2372   -9.0194  -16.2810 C   0  0  1  0  0  0  0  0  0  0  0  0
   21.1613   -9.2984  -14.8121 C   0  0  0  0  0  0  0  0  0  0  0  0
   20.5118   -8.1647  -14.1260 C   0  0  0  0  0  0  0  0  0  0  0  0
   21.2337   -7.2237  -13.6519 O   0  0  0  0  0  0  0  0  0  0  0  0
   21.6292   -7.6617  -16.6614 C   0  0  0  0  0  0  0  0  0  0  0  0
   22.8678   -7.4180  -16.9065 O   0  0  0  0  0  0  0  0  0  0  0  0
   19.1406   -8.0462  -13.9568 O   0  0  0  0  0  0  0  0  0  0  0  0
   15.7538   -4.5694  -20.4830 O   0  0  0  0  0  0  0  0  0  0  0  0
   17.0570   -4.7186  -20.0577 C   0  0  0  0  0  0  0  0  0  0  0  0
   17.8533   -3.6154  -19.7738 C   0  0  0  0  0  0  0  0  0  0  0  0
   19.1535   -3.7904  -19.3500 C   0  0  0  0  0  0  0  0  0  0  0  0
   19.6937   -5.0476  -19.1974 C   0  0  0  0  0  0  0  0  0  0  0  0
   21.0765   -5.2484  -18.7483 C   0  0  0  0  0  0  0  0  0  0  0  0
   21.2461   -5.2971  -17.2646 C   0  0  2  0  0  0  0  0  0  0  0  0
   20.7369   -6.5696  -16.7849 N   0  0  0  0  0  0  0  0  0  0  0  0
   20.6251   -4.1595  -16.5408 C   0  0  0  0  0  0  0  0  0  0  0  0
   21.0153   -2.8679  -16.8067 O   0  0  0  0  0  0  0  0  0  0  0  0
   18.8963   -6.1332  -19.4813 C   0  0  0  0  0  0  0  0  0  0  0  0
   17.5968   -5.9892  -19.9056 C   0  0  0  0  0  0  0  0  0  0  0  0
   19.7406   -4.3701  -15.6830 O   0  0  0  0  0  0  0  0  0  0  0  0
  2  3  1  0
  2  1  1  6
  4  2  1  0
  5  4  2  0
  6  4  1  0
  7  6  1  0
  7  8  1  1
  9  8  1  0
  9 10  2  0
 11  7  1  0
 11 21  1  0
 12 11  2  0
 13  9  1  0
 15 14  1  0
 16 15  2  0
 17 16  1  0
 18 24  1  0
 18 17  2  0
 19 18  1  0
 20 19  1  6
 20 21  1  0
 20 22  1  0
 22 26  2  0
 22 23  1  0
 24 25  2  0
 25 15  1  0
M  END
$$$$
