ADY.pdb
     RDKit          3D

 26 26  0  0  1  0  0  0  0  0999 V2000
   22.9018  -11.1145  -21.3443 C   0  0  0  0  0  0  0  0  0  0  0  0
   22.7934  -11.4648  -19.8945 C   0  0  2  0  0  0  0  0  0  0  0  0
   22.2460  -12.7480  -19.6106 N   0  0  0  0  0  0  0  0  0  0  0  0
   22.0638  -10.3434  -19.1772 C   0  0  0  0  0  0  0  0  0  0  0  0
   21.7957   -9.3614  -19.8712 O   0  0  0  0  0  0  0  0  0  0  0  0
   21.7302  -10.4335  -17.8368 N   0  0  0  0  0  0  0  0  0  0  0  0
   20.9747   -9.5339  -17.0448 C   0  0  1  0  0  0  0  0  0  0  0  0
   19.8007  -10.0670  -16.2840 C   0  0  0  0  0  0  0  0  0  0  0  0
   19.1041   -8.9560  -15.6069 C   0  0  0  0  0  0  0  0  0  0  0  0
   19.4735   -8.6076  -14.4350 O   0  0  0  0  0  0  0  0  0  0  0  0
   21.7588   -8.4939  -16.3776 C   0  0  0  0  0  0  0  0  0  0  0  0
   22.9667   -8.7569  -16.0237 O   0  0  0  0  0  0  0  0  0  0  0  0
   18.0524   -8.2469  -16.1673 O   0  0  0  0  0  0  0  0  0  0  0  0
   26.6661   -1.6592  -17.1345 O   0  0  0  0  0  0  0  0  0  0  0  0
   25.7843   -2.7193  -17.1411 C   0  0  0  0  0  0  0  0  0  0  0  0
   24.6134   -2.6781  -17.8887 C   0  0  0  0  0  0  0  0  0  0  0  0
   23.7474   -3.7508  -17.8788 C   0  0  0  0  0  0  0  0  0  0  0  0
   24.0145   -4.8799  -17.1376 C   0  0  0  0  0  0  0  0  0  0  0  0
   23.1009   -6.0285  -17.1170 C   0  0  0  0  0  0  0  0  0  0  0  0
   22.2491   -6.1218  -15.8930 C   0  0  2  0  0  0  0  0  0  0  0  0
   21.2864   -7.1922  -16.0830 N   0  0  0  0  0  0  0  0  0  0  0  0
   21.5778   -4.8522  -15.5173 C   0  0  0  0  0  0  0  0  0  0  0  0
   20.2435   -4.6620  -15.7901 O   0  0  0  0  0  0  0  0  0  0  0  0
   25.1769   -4.9100  -16.4009 C   0  0  0  0  0  0  0  0  0  0  0  0
   26.0587   -3.8557  -16.3913 C   0  0  0  0  0  0  0  0  0  0  0  0
   22.2241   -3.9459  -14.9485 O   0  0  0  0  0  0  0  0  0  0  0  0
  2  3  1  0
  2  1  1  6
  4  2  1  0
  5  4  2  0
  6  4  1  0
  7  6  1  0
  7  8  1  1
  9  8  1  0
  9 10  2  0
 11  7  1  0
 11 21  1  0
 12 11  2  0
 13  9  1  0
 15 14  1  0
 16 15  2  0
 17 16  1  0
 18 24  1  0
 18 17  2  0
 19 18  1  0
 20 19  1  6
 20 21  1  0
 20 22  1  0
 22 26  2  0
 22 23  1  0
 24 25  2  0
 25 15  1  0
M  END
$$$$
