ADY.pdb
     RDKit          3D

 26 26  0  0  1  0  0  0  0  0999 V2000
   18.3903  -14.3268  -17.2567 C   0  0  0  0  0  0  0  0  0  0  0  0
   17.6539  -13.0890  -16.8543 C   0  0  2  0  0  0  0  0  0  0  0  0
   16.3914  -12.8924  -17.4823 N   0  0  0  0  0  0  0  0  0  0  0  0
   18.5814  -11.8981  -17.0151 C   0  0  0  0  0  0  0  0  0  0  0  0
   19.7085  -12.0408  -16.5386 O   0  0  0  0  0  0  0  0  0  0  0  0
   18.1740  -10.7402  -17.6549 N   0  0  0  0  0  0  0  0  0  0  0  0
   18.8688   -9.5149  -17.8063 C   0  0  1  0  0  0  0  0  0  0  0  0
   18.7800   -8.8026  -19.1201 C   0  0  0  0  0  0  0  0  0  0  0  0
   19.6673   -7.6235  -19.1047 C   0  0  0  0  0  0  0  0  0  0  0  0
   19.1621   -6.4626  -18.9358 O   0  0  0  0  0  0  0  0  0  0  0  0
   18.8909   -8.6685  -16.6127 C   0  0  0  0  0  0  0  0  0  0  0  0
   17.7870   -8.4351  -15.9958 O   0  0  0  0  0  0  0  0  0  0  0  0
   21.0433   -7.6891  -19.2638 O   0  0  0  0  0  0  0  0  0  0  0  0
   20.3697   -5.5221   -8.7103 O   0  0  0  0  0  0  0  0  0  0  0  0
   20.4530   -6.1258   -9.9473 C   0  0  0  0  0  0  0  0  0  0  0  0
   19.6782   -7.2361  -10.2611 C   0  0  0  0  0  0  0  0  0  0  0  0
   19.7795   -7.8222  -11.5049 C   0  0  0  0  0  0  0  0  0  0  0  0
   20.6403   -7.3302  -12.4603 C   0  0  0  0  0  0  0  0  0  0  0  0
   20.7592   -7.9449  -13.7878 C   0  0  0  0  0  0  0  0  0  0  0  0
   19.9380   -7.2901  -14.8505 C   0  0  2  0  0  0  0  0  0  0  0  0
   20.0538   -8.0720  -16.0686 N   0  0  0  0  0  0  0  0  0  0  0  0
   20.2735   -5.8640  -15.0902 C   0  0  0  0  0  0  0  0  0  0  0  0
   19.6611   -4.8718  -14.3611 O   0  0  0  0  0  0  0  0  0  0  0  0
   21.4030   -6.2302  -12.1389 C   0  0  0  0  0  0  0  0  0  0  0  0
   21.3232   -5.6254  -10.9071 C   0  0  0  0  0  0  0  0  0  0  0  0
   21.1179   -5.5562  -15.9590 O   0  0  0  0  0  0  0  0  0  0  0  0
  2  3  1  0
  2  1  1  6
  4  2  1  0
  5  4  2  0
  6  4  1  0
  7  6  1  0
  7  8  1  6
  9  8  1  0
  9 10  2  0
 11  7  1  0
 11 21  1  0
 12 11  2  0
 13  9  1  0
 15 14  1  0
 16 15  2  0
 17 16  1  0
 18 24  1  0
 18 17  2  0
 19 18  1  0
 20 19  1  1
 20 21  1  0
 20 22  1  0
 22 26  2  0
 22 23  1  0
 24 25  2  0
 25 15  1  0
M  END
$$$$
