ADY.pdb
     RDKit          3D

 26 26  0  0  1  0  0  0  0  0999 V2000
   19.2077  -10.8174  -15.6145 C   0  0  0  0  0  0  0  0  0  0  0  0
   17.8645  -10.4029  -15.1041 C   0  0  2  0  0  0  0  0  0  0  0  0
   16.8545  -10.2370  -16.0936 N   0  0  0  0  0  0  0  0  0  0  0  0
   18.0357   -9.1750  -14.2281 C   0  0  0  0  0  0  0  0  0  0  0  0
   18.8415   -9.2958  -13.3040 O   0  0  0  0  0  0  0  0  0  0  0  0
   17.3284   -8.0088  -14.4644 N   0  0  0  0  0  0  0  0  0  0  0  0
   17.3420   -6.7955  -13.7332 C   0  0  1  0  0  0  0  0  0  0  0  0
   17.5696   -5.5168  -14.4779 C   0  0  0  0  0  0  0  0  0  0  0  0
   18.6959   -5.6846  -15.4166 C   0  0  0  0  0  0  0  0  0  0  0  0
   19.8892   -5.7186  -14.9623 O   0  0  0  0  0  0  0  0  0  0  0  0
   16.3910   -6.7357  -12.6225 C   0  0  0  0  0  0  0  0  0  0  0  0
   15.2001   -7.1875  -12.7989 O   0  0  0  0  0  0  0  0  0  0  0  0
   18.5460   -5.8116  -16.7893 O   0  0  0  0  0  0  0  0  0  0  0  0
   10.9048   -7.9962   -6.4270 O   0  0  0  0  0  0  0  0  0  0  0  0
   11.9366   -7.9014   -7.3367 C   0  0  0  0  0  0  0  0  0  0  0  0
   13.1466   -8.5516   -7.1247 C   0  0  0  0  0  0  0  0  0  0  0  0
   14.1634   -8.4415   -8.0491 C   0  0  0  0  0  0  0  0  0  0  0  0
   14.0113   -7.6936   -9.1951 C   0  0  0  0  0  0  0  0  0  0  0  0
   15.0857   -7.5667  -10.1869 C   0  0  0  0  0  0  0  0  0  0  0  0
   15.6303   -6.1836  -10.3381 C   0  0  2  0  0  0  0  0  0  0  0  0
   16.6807   -6.2098  -11.3404 N   0  0  0  0  0  0  0  0  0  0  0  0
   16.1071   -5.5728   -9.0719 C   0  0  0  0  0  0  0  0  0  0  0  0
   17.4536   -5.4625   -8.8150 O   0  0  0  0  0  0  0  0  0  0  0  0
   12.8090   -7.0538   -9.3951 C   0  0  0  0  0  0  0  0  0  0  0  0
   11.7777   -7.1455   -8.4910 C   0  0  0  0  0  0  0  0  0  0  0  0
   15.2843   -5.1535   -8.2294 O   0  0  0  0  0  0  0  0  0  0  0  0
  2  3  1  0
  2  1  1  6
  4  2  1  0
  5  4  2  0
  6  4  1  0
  7  6  1  0
  7  8  1  6
  9  8  1  0
  9 10  2  0
 11  7  1  0
 11 21  1  0
 12 11  2  0
 13  9  1  0
 15 14  1  0
 16 15  2  0
 17 16  1  0
 18 24  1  0
 18 17  2  0
 19 18  1  0
 20 19  1  1
 20 21  1  0
 20 22  1  0
 22 26  2  0
 22 23  1  0
 24 25  2  0
 25 15  1  0
M  END
$$$$
