ADY.pdb
     RDKit          3D

 26 26  0  0  1  0  0  0  0  0999 V2000
   28.2490  -19.7115  -16.4018 C   0  0  0  0  0  0  0  0  0  0  0  0
   27.7570  -20.9376  -15.7010 C   0  0  2  0  0  0  0  0  0  0  0  0
   27.1381  -21.9146  -16.5313 N   0  0  0  0  0  0  0  0  0  0  0  0
   26.8778  -20.5128  -14.5387 C   0  0  0  0  0  0  0  0  0  0  0  0
   27.0366  -19.3528  -14.1551 O   0  0  0  0  0  0  0  0  0  0  0  0
   25.9664  -21.3800  -13.9613 N   0  0  0  0  0  0  0  0  0  0  0  0
   25.0109  -21.1223  -12.9476 C   0  0  1  0  0  0  0  0  0  0  0  0
   23.5784  -21.4665  -13.2139 C   0  0  0  0  0  0  0  0  0  0  0  0
   22.7086  -20.7143  -12.2891 C   0  0  0  0  0  0  0  0  0  0  0  0
   23.2268  -19.8434  -11.5117 O   0  0  0  0  0  0  0  0  0  0  0  0
   25.4865  -21.3479  -11.5821 C   0  0  0  0  0  0  0  0  0  0  0  0
   25.6375  -22.5560  -11.1682 O   0  0  0  0  0  0  0  0  0  0  0  0
   21.3358  -20.8904  -12.2033 O   0  0  0  0  0  0  0  0  0  0  0  0
   29.0746  -19.9593   -3.6097 O   0  0  0  0  0  0  0  0  0  0  0  0
   28.6701  -19.9018   -4.9267 C   0  0  0  0  0  0  0  0  0  0  0  0
   29.2453  -20.7177   -5.8937 C   0  0  0  0  0  0  0  0  0  0  0  0
   28.8237  -20.6417   -7.2041 C   0  0  0  0  0  0  0  0  0  0  0  0
   27.8326  -19.7663   -7.5877 C   0  0  0  0  0  0  0  0  0  0  0  0
   27.3751  -19.6740   -8.9793 C   0  0  0  0  0  0  0  0  0  0  0  0
   26.3460  -20.6873   -9.3625 C   0  0  2  0  0  0  0  0  0  0  0  0
   25.8014  -20.3225  -10.6582 N   0  0  0  0  0  0  0  0  0  0  0  0
   25.2695  -20.8751   -8.3577 C   0  0  0  0  0  0  0  0  0  0  0  0
   25.4643  -21.6980   -7.2732 O   0  0  0  0  0  0  0  0  0  0  0  0
   27.2698  -18.9629   -6.6220 C   0  0  0  0  0  0  0  0  0  0  0  0
   27.6700  -19.0168   -5.3081 C   0  0  0  0  0  0  0  0  0  0  0  0
   24.1763  -20.2839   -8.4922 O   0  0  0  0  0  0  0  0  0  0  0  0
  2  3  1  0
  2  1  1  6
  4  2  1  0
  5  4  2  0
  6  4  1  0
  7  6  1  0
  7  8  1  6
  9  8  1  0
  9 10  2  0
 11  7  1  0
 11 21  1  0
 12 11  2  0
 13  9  1  0
 15 14  1  0
 16 15  2  0
 17 16  1  0
 18 24  1  0
 18 17  2  0
 19 18  1  0
 20 19  1  1
 20 21  1  0
 20 22  1  0
 22 26  2  0
 22 23  1  0
 24 25  2  0
 25 15  1  0
M  END
$$$$
