ADY.pdb
     RDKit          3D

 26 26  0  0  1  0  0  0  0  0999 V2000
   23.0344  -17.2830  -21.4969 C   0  0  0  0  0  0  0  0  0  0  0  0
   21.6180  -16.8479  -21.2944 C   0  0  2  0  0  0  0  0  0  0  0  0
   21.1344  -15.8774  -22.2170 N   0  0  0  0  0  0  0  0  0  0  0  0
   21.4431  -16.4215  -19.8480 C   0  0  0  0  0  0  0  0  0  0  0  0
   22.4573  -15.9849  -19.3016 O   0  0  0  0  0  0  0  0  0  0  0  0
   20.2227  -16.5225  -19.2026 N   0  0  0  0  0  0  0  0  0  0  0  0
   19.8700  -16.1075  -17.8947 C   0  0  1  0  0  0  0  0  0  0  0  0
   18.9051  -14.9730  -17.7427 C   0  0  0  0  0  0  0  0  0  0  0  0
   18.7543  -14.6398  -16.3130 C   0  0  0  0  0  0  0  0  0  0  0  0
   19.7749  -14.2519  -15.6501 O   0  0  0  0  0  0  0  0  0  0  0  0
   19.7546  -17.1894  -16.9161 C   0  0  0  0  0  0  0  0  0  0  0  0
   19.0413  -18.2186  -17.2085 O   0  0  0  0  0  0  0  0  0  0  0  0
   17.5542  -14.7195  -15.6228 O   0  0  0  0  0  0  0  0  0  0  0  0
   20.1346  -20.6986   -8.8260 O   0  0  0  0  0  0  0  0  0  0  0  0
   20.4311  -20.1250  -10.0444 C   0  0  0  0  0  0  0  0  0  0  0  0
   20.4101  -18.7459  -10.2159 C   0  0  0  0  0  0  0  0  0  0  0  0
   20.7102  -18.1961  -11.4441 C   0  0  0  0  0  0  0  0  0  0  0  0
   21.0356  -18.9876  -12.5226 C   0  0  0  0  0  0  0  0  0  0  0  0
   21.3560  -18.4158  -13.8359 C   0  0  0  0  0  0  0  0  0  0  0  0
   20.2021  -18.3520  -14.7830 C   0  0  2  0  0  0  0  0  0  0  0  0
   20.3778  -17.1967  -15.6449 N   0  0  0  0  0  0  0  0  0  0  0  0
   18.8715  -18.3376  -14.1250 C   0  0  0  0  0  0  0  0  0  0  0  0
   18.1837  -19.5102  -13.9178 O   0  0  0  0  0  0  0  0  0  0  0  0
   21.0533  -20.3521  -12.3417 C   0  0  0  0  0  0  0  0  0  0  0  0
   20.7585  -20.9283  -11.1290 C   0  0  0  0  0  0  0  0  0  0  0  0
   18.3674  -17.2555  -13.7540 O   0  0  0  0  0  0  0  0  0  0  0  0
  2  3  1  0
  2  1  1  6
  4  2  1  0
  5  4  2  0
  6  4  1  0
  7  6  1  0
  7  8  1  6
  9  8  1  0
  9 10  2  0
 11  7  1  0
 11 21  1  0
 12 11  2  0
 13  9  1  0
 15 14  1  0
 16 15  2  0
 17 16  1  0
 18 24  1  0
 18 17  2  0
 19 18  1  0
 20 19  1  1
 20 21  1  0
 20 22  1  0
 22 26  2  0
 22 23  1  0
 24 25  2  0
 25 15  1  0
M  END
$$$$
