ADY.pdb
     RDKit          3D

 26 26  0  0  1  0  0  0  0  0999 V2000
   21.1023  -19.0100  -15.4122 C   0  0  0  0  0  0  0  0  0  0  0  0
   22.3000  -18.5193  -14.6631 C   0  0  2  0  0  0  0  0  0  0  0  0
   22.9826  -17.4156  -15.2487 N   0  0  0  0  0  0  0  0  0  0  0  0
   23.2167  -19.6974  -14.3874 C   0  0  0  0  0  0  0  0  0  0  0  0
   22.6757  -20.6750  -13.8682 O   0  0  0  0  0  0  0  0  0  0  0  0
   24.5638  -19.6601  -14.7034 N   0  0  0  0  0  0  0  0  0  0  0  0
   25.5465  -20.6663  -14.5333 C   0  0  1  0  0  0  0  0  0  0  0  0
   26.5933  -20.8267  -15.5916 C   0  0  0  0  0  0  0  0  0  0  0  0
   27.3402  -22.0788  -15.3630 C   0  0  0  0  0  0  0  0  0  0  0  0
   26.7138  -23.1162  -14.9595 O   0  0  0  0  0  0  0  0  0  0  0  0
   25.9874  -20.8686  -13.1525 C   0  0  0  0  0  0  0  0  0  0  0  0
   27.2458  -20.8330  -12.8904 O   0  0  0  0  0  0  0  0  0  0  0  0
   28.7063  -22.2112  -15.5609 O   0  0  0  0  0  0  0  0  0  0  0  0
   28.4927  -19.5725   -5.2061 O   0  0  0  0  0  0  0  0  0  0  0  0
   28.0107  -19.6734   -6.4940 C   0  0  0  0  0  0  0  0  0  0  0  0
   26.8782  -18.9755   -6.8965 C   0  0  0  0  0  0  0  0  0  0  0  0
   26.4156  -19.0929   -8.1899 C   0  0  0  0  0  0  0  0  0  0  0  0
   27.0545  -19.8948   -9.1089 C   0  0  0  0  0  0  0  0  0  0  0  0
   26.5722  -20.0299  -10.4885 C   0  0  0  0  0  0  0  0  0  0  0  0
   25.6910  -21.2132  -10.7246 C   0  0  2  0  0  0  0  0  0  0  0  0
   25.1231  -21.1055  -12.0566 N   0  0  0  0  0  0  0  0  0  0  0  0
   24.6332  -21.4015   -9.7001 C   0  0  0  0  0  0  0  0  0  0  0  0
   23.3147  -21.1600  -10.0071 O   0  0  0  0  0  0  0  0  0  0  0  0
   28.1751  -20.5815   -8.6996 C   0  0  0  0  0  0  0  0  0  0  0  0
   28.6591  -20.4839   -7.4168 C   0  0  0  0  0  0  0  0  0  0  0  0
   24.9364  -21.7824   -8.5487 O   0  0  0  0  0  0  0  0  0  0  0  0
  2  3  1  0
  2  1  1  6
  4  2  1  0
  5  4  2  0
  6  4  1  0
  7  6  1  0
  7  8  1  6
  9  8  1  0
  9 10  2  0
 11  7  1  0
 11 21  1  0
 12 11  2  0
 13  9  1  0
 15 14  1  0
 16 15  2  0
 17 16  1  0
 18 24  1  0
 18 17  2  0
 19 18  1  0
 20 19  1  1
 20 21  1  0
 20 22  1  0
 22 26  2  0
 22 23  1  0
 24 25  2  0
 25 15  1  0
M  END
$$$$
