ADY.pdb
     RDKit          3D

 26 26  0  0  1  0  0  0  0  0999 V2000
   20.7348  -12.2947  -21.6852 C   0  0  0  0  0  0  0  0  0  0  0  0
   21.7103  -11.3789  -22.3532 C   0  0  2  0  0  0  0  0  0  0  0  0
   22.8944  -11.9957  -22.8474 N   0  0  0  0  0  0  0  0  0  0  0  0
   21.9992  -10.2149  -21.4226 C   0  0  0  0  0  0  0  0  0  0  0  0
   22.5681  -10.5107  -20.3706 O   0  0  0  0  0  0  0  0  0  0  0  0
   21.6420   -8.9177  -21.7479 N   0  0  0  0  0  0  0  0  0  0  0  0
   21.8090   -7.7317  -20.9913 C   0  0  1  0  0  0  0  0  0  0  0  0
   21.8032   -6.4195  -21.7120 C   0  0  0  0  0  0  0  0  0  0  0  0
   22.1324   -5.3346  -20.7673 C   0  0  0  0  0  0  0  0  0  0  0  0
   21.2156   -4.5241  -20.4013 O   0  0  0  0  0  0  0  0  0  0  0  0
   21.1726   -7.7478  -19.6735 C   0  0  0  0  0  0  0  0  0  0  0  0
   19.9860   -8.2307  -19.5622 O   0  0  0  0  0  0  0  0  0  0  0  0
   23.3967   -5.1290  -20.2361 O   0  0  0  0  0  0  0  0  0  0  0  0
   18.8454   -8.7949  -11.4183 O   0  0  0  0  0  0  0  0  0  0  0  0
   19.4468   -8.7195  -12.6568 C   0  0  0  0  0  0  0  0  0  0  0  0
   18.7928   -9.1548  -13.8033 C   0  0  0  0  0  0  0  0  0  0  0  0
   19.4153   -9.0692  -15.0305 C   0  0  0  0  0  0  0  0  0  0  0  0
   20.6869   -8.5560  -15.1541 C   0  0  0  0  0  0  0  0  0  0  0  0
   21.3618   -8.4601  -16.4539 C   0  0  0  0  0  0  0  0  0  0  0  0
   20.9891   -7.2581  -17.2593 C   0  0  2  0  0  0  0  0  0  0  0  0
   21.7693   -7.2649  -18.4840 N   0  0  0  0  0  0  0  0  0  0  0  0
   21.1311   -5.9696  -16.5358 C   0  0  0  0  0  0  0  0  0  0  0  0
   20.1663   -5.5603  -15.6454 O   0  0  0  0  0  0  0  0  0  0  0  0
   21.3254   -8.1278  -14.0122 C   0  0  0  0  0  0  0  0  0  0  0  0
   20.7298   -8.2010  -12.7756 C   0  0  0  0  0  0  0  0  0  0  0  0
   22.1322   -5.2473  -16.7323 O   0  0  0  0  0  0  0  0  0  0  0  0
  2  3  1  0
  2  1  1  1
  4  2  1  0
  5  4  2  0
  6  4  1  0
  7  6  1  0
  7  8  1  6
  9  8  1  0
  9 10  2  0
 11  7  1  0
 11 21  1  0
 12 11  2  0
 13  9  1  0
 15 14  1  0
 16 15  2  0
 17 16  1  0
 18 24  1  0
 18 17  2  0
 19 18  1  0
 20 19  1  1
 20 21  1  0
 20 22  1  0
 22 26  2  0
 22 23  1  0
 24 25  2  0
 25 15  1  0
M  END
$$$$
