ADY.pdb
     RDKit          3D

 26 26  0  0  1  0  0  0  0  0999 V2000
   18.8871  -15.3766  -19.0765 C   0  0  0  0  0  0  0  0  0  0  0  0
   19.3761  -14.8161  -17.7791 C   0  0  2  0  0  0  0  0  0  0  0  0
   19.2920  -15.6918  -16.6597 N   0  0  0  0  0  0  0  0  0  0  0  0
   18.6891  -13.4845  -17.5358 C   0  0  0  0  0  0  0  0  0  0  0  0
   19.0704  -12.5570  -18.2514 O   0  0  0  0  0  0  0  0  0  0  0  0
   17.7049  -13.3391  -16.5733 N   0  0  0  0  0  0  0  0  0  0  0  0
   16.9420  -12.1911  -16.2462 C   0  0  1  0  0  0  0  0  0  0  0  0
   15.4882  -12.3662  -15.9346 C   0  0  0  0  0  0  0  0  0  0  0  0
   14.8614  -11.0447  -15.7384 C   0  0  0  0  0  0  0  0  0  0  0  0
   14.6552  -10.6201  -14.5516 O   0  0  0  0  0  0  0  0  0  0  0  0
   17.6541  -11.1823  -15.4608 C   0  0  0  0  0  0  0  0  0  0  0  0
   18.1916  -11.5286  -14.3452 O   0  0  0  0  0  0  0  0  0  0  0  0
   14.4721  -10.2118  -16.7766 O   0  0  0  0  0  0  0  0  0  0  0  0
   22.5322   -4.0880  -13.7945 O   0  0  0  0  0  0  0  0  0  0  0  0
   21.8884   -5.2464  -14.1754 C   0  0  0  0  0  0  0  0  0  0  0  0
   21.1771   -5.3171  -15.3673 C   0  0  0  0  0  0  0  0  0  0  0  0
   20.5417   -6.4867  -15.7263 C   0  0  0  0  0  0  0  0  0  0  0  0
   20.5931   -7.6047  -14.9244 C   0  0  0  0  0  0  0  0  0  0  0  0
   19.9203   -8.8558  -15.2936 C   0  0  0  0  0  0  0  0  0  0  0  0
   18.4733   -8.9141  -14.9260 C   0  0  2  0  0  0  0  0  0  0  0  0
   17.8036   -9.8255  -15.8366 N   0  0  0  0  0  0  0  0  0  0  0  0
   17.7980   -7.5925  -14.8909 C   0  0  0  0  0  0  0  0  0  0  0  0
   17.9141   -6.7795  -13.7879 O   0  0  0  0  0  0  0  0  0  0  0  0
   21.3002   -7.5237  -13.7461 C   0  0  0  0  0  0  0  0  0  0  0  0
   21.9435   -6.3711  -13.3624 C   0  0  0  0  0  0  0  0  0  0  0  0
   17.1180   -7.2099  -15.8676 O   0  0  0  0  0  0  0  0  0  0  0  0
  2  3  1  0
  2  1  1  6
  4  2  1  0
  5  4  2  0
  6  4  1  0
  7  6  1  0
  7  8  1  1
  9  8  1  0
  9 10  2  0
 11  7  1  0
 11 21  1  0
 12 11  2  0
 13  9  1  0
 15 14  1  0
 16 15  2  0
 17 16  1  0
 18 24  1  0
 18 17  2  0
 19 18  1  0
 20 19  1  6
 20 21  1  0
 20 22  1  0
 22 26  2  0
 22 23  1  0
 24 25  2  0
 25 15  1  0
M  END
$$$$
