ADY.pdb
     RDKit          3D

 26 26  0  0  1  0  0  0  0  0999 V2000
   15.2943  -14.4460  -14.2033 C   0  0  0  0  0  0  0  0  0  0  0  0
   16.3020  -13.9778  -15.2042 C   0  0  2  0  0  0  0  0  0  0  0  0
   17.1914  -14.9754  -15.6949 N   0  0  0  0  0  0  0  0  0  0  0  0
   17.0282  -12.7725  -14.6348 C   0  0  0  0  0  0  0  0  0  0  0  0
   18.1255  -13.0103  -14.1276 O   0  0  0  0  0  0  0  0  0  0  0  0
   16.4821  -11.5017  -14.6895 N   0  0  0  0  0  0  0  0  0  0  0  0
   17.0419  -10.2727  -14.2614 C   0  0  1  0  0  0  0  0  0  0  0  0
   17.8577   -9.4828  -15.2371 C   0  0  0  0  0  0  0  0  0  0  0  0
   18.4809   -8.3366  -14.5473 C   0  0  0  0  0  0  0  0  0  0  0  0
   18.1013   -7.1515  -14.8352 O   0  0  0  0  0  0  0  0  0  0  0  0
   16.2015   -9.4993  -13.3465 C   0  0  0  0  0  0  0  0  0  0  0  0
   15.0202   -9.1597  -13.7245 O   0  0  0  0  0  0  0  0  0  0  0  0
   19.4723   -8.4589  -13.5855 O   0  0  0  0  0  0  0  0  0  0  0  0
   12.1021   -5.9837   -6.4832 O   0  0  0  0  0  0  0  0  0  0  0  0
   12.9882   -6.6467   -7.3058 C   0  0  0  0  0  0  0  0  0  0  0  0
   14.3270   -6.2789   -7.3681 C   0  0  0  0  0  0  0  0  0  0  0  0
   15.1936   -6.9573   -8.1985 C   0  0  0  0  0  0  0  0  0  0  0  0
   14.7630   -8.0058   -8.9801 C   0  0  0  0  0  0  0  0  0  0  0  0
   15.6743   -8.7358   -9.8694 C   0  0  0  0  0  0  0  0  0  0  0  0
   15.6891   -8.2455  -11.2807 C   0  0  2  0  0  0  0  0  0  0  0  0
   16.5905   -9.0847  -12.0499 N   0  0  0  0  0  0  0  0  0  0  0  0
   16.0336   -6.8088  -11.4250 C   0  0  0  0  0  0  0  0  0  0  0  0
   15.0594   -5.8442  -11.3175 O   0  0  0  0  0  0  0  0  0  0  0  0
   13.4351   -8.3617   -8.9106 C   0  0  0  0  0  0  0  0  0  0  0  0
   12.5483   -7.7036   -8.0921 C   0  0  0  0  0  0  0  0  0  0  0  0
   17.2157   -6.4667  -11.6452 O   0  0  0  0  0  0  0  0  0  0  0  0
  2  3  1  0
  2  1  1  1
  4  2  1  0
  5  4  2  0
  6  4  1  0
  7  6  1  0
  7  8  1  6
  9  8  1  0
  9 10  2  0
 11  7  1  0
 11 21  1  0
 12 11  2  0
 13  9  1  0
 15 14  1  0
 16 15  2  0
 17 16  1  0
 18 24  1  0
 18 17  2  0
 19 18  1  0
 20 19  1  1
 20 21  1  0
 20 22  1  0
 22 26  2  0
 22 23  1  0
 24 25  2  0
 25 15  1  0
M  END
$$$$
