ADY.pdb
     RDKit          3D

 26 26  0  0  1  0  0  0  0  0999 V2000
   20.2588  -18.9531  -11.7176 C   0  0  0  0  0  0  0  0  0  0  0  0
   20.3872  -20.3772  -12.1558 C   0  0  2  0  0  0  0  0  0  0  0  0
   19.9696  -21.3531  -11.2070 N   0  0  0  0  0  0  0  0  0  0  0  0
   21.8040  -20.6073  -12.6500 C   0  0  0  0  0  0  0  0  0  0  0  0
   22.6950  -20.2801  -11.8647 O   0  0  0  0  0  0  0  0  0  0  0  0
   22.0599  -21.1480  -13.8984 N   0  0  0  0  0  0  0  0  0  0  0  0
   23.3070  -21.4410  -14.5032 C   0  0  1  0  0  0  0  0  0  0  0  0
   23.3947  -22.6206  -15.4209 C   0  0  0  0  0  0  0  0  0  0  0  0
   23.2607  -23.8659  -14.6404 C   0  0  0  0  0  0  0  0  0  0  0  0
   22.1394  -24.4772  -14.6256 O   0  0  0  0  0  0  0  0  0  0  0  0
   24.0986  -20.2692  -14.8798 C   0  0  0  0  0  0  0  0  0  0  0  0
   23.5640  -19.1031  -14.7904 O   0  0  0  0  0  0  0  0  0  0  0  0
   24.2911  -24.4324  -13.9055 O   0  0  0  0  0  0  0  0  0  0  0  0
   29.0434  -21.8527  -10.4710 O   0  0  0  0  0  0  0  0  0  0  0  0
   28.4059  -21.0275  -11.3733 C   0  0  0  0  0  0  0  0  0  0  0  0
   29.0969  -20.4419  -12.4274 C   0  0  0  0  0  0  0  0  0  0  0  0
   28.4372  -19.6203  -13.3165 C   0  0  0  0  0  0  0  0  0  0  0  0
   27.0914  -19.3598  -13.1875 C   0  0  0  0  0  0  0  0  0  0  0  0
   26.3769  -18.4862  -14.1259 C   0  0  0  0  0  0  0  0  0  0  0  0
   26.1724  -19.0715  -15.4854 C   0  0  2  0  0  0  0  0  0  0  0  0
   25.4350  -20.3144  -15.3450 N   0  0  0  0  0  0  0  0  0  0  0  0
   27.4233  -19.2702  -16.2597 C   0  0  0  0  0  0  0  0  0  0  0  0
   28.2323  -18.2004  -16.5635 O   0  0  0  0  0  0  0  0  0  0  0  0
   26.4168  -19.9449  -12.1399 C   0  0  0  0  0  0  0  0  0  0  0  0
   27.0482  -20.7681  -11.2382 C   0  0  0  0  0  0  0  0  0  0  0  0
   27.7495  -20.4152  -16.6407 O   0  0  0  0  0  0  0  0  0  0  0  0
  2  3  1  0
  2  1  1  1
  4  2  1  0
  5  4  2  0
  6  4  1  0
  7  6  1  0
  7  8  1  6
  9  8  1  0
  9 10  2  0
 11  7  1  0
 11 21  1  0
 12 11  2  0
 13  9  1  0
 15 14  1  0
 16 15  2  0
 17 16  1  0
 18 24  1  0
 18 17  2  0
 19 18  1  0
 20 19  1  1
 20 21  1  0
 20 22  1  0
 22 26  2  0
 22 23  1  0
 24 25  2  0
 25 15  1  0
M  END
$$$$
