ADY.pdb
     RDKit          3D

 26 26  0  0  1  0  0  0  0  0999 V2000
   20.6568  -11.4576  -15.5061 C   0  0  0  0  0  0  0  0  0  0  0  0
   19.4960  -11.0918  -16.3751 C   0  0  2  0  0  0  0  0  0  0  0  0
   19.4861  -11.6835  -17.6700 N   0  0  0  0  0  0  0  0  0  0  0  0
   19.3807   -9.5788  -16.4200 C   0  0  0  0  0  0  0  0  0  0  0  0
   20.1053   -9.0200  -17.2450 O   0  0  0  0  0  0  0  0  0  0  0  0
   18.5171   -8.8902  -15.5857 N   0  0  0  0  0  0  0  0  0  0  0  0
   18.3113   -7.4929  -15.4746 C   0  0  1  0  0  0  0  0  0  0  0  0
   16.9104   -6.9704  -15.5513 C   0  0  0  0  0  0  0  0  0  0  0  0
   16.9319   -5.4948  -15.5484 C   0  0  0  0  0  0  0  0  0  0  0  0
   16.4059   -4.8634  -14.5705 O   0  0  0  0  0  0  0  0  0  0  0  0
   19.2043   -6.8121  -14.5362 C   0  0  0  0  0  0  0  0  0  0  0  0
   19.2485   -7.2158  -13.3161 O   0  0  0  0  0  0  0  0  0  0  0  0
   17.4968   -4.7277  -16.5560 O   0  0  0  0  0  0  0  0  0  0  0  0
   25.5342   -7.2020  -17.7182 O   0  0  0  0  0  0  0  0  0  0  0  0
   24.6547   -6.9559  -16.6851 C   0  0  0  0  0  0  0  0  0  0  0  0
   23.8645   -7.9687  -16.1546 C   0  0  0  0  0  0  0  0  0  0  0  0
   22.9925   -7.6977  -15.1217 C   0  0  0  0  0  0  0  0  0  0  0  0
   22.8809   -6.4316  -14.5924 C   0  0  0  0  0  0  0  0  0  0  0  0
   21.9560   -6.1288  -13.4938 C   0  0  0  0  0  0  0  0  0  0  0  0
   20.8863   -5.1436  -13.8370 C   0  0  2  0  0  0  0  0  0  0  0  0
   20.0429   -5.7210  -14.8685 N   0  0  0  0  0  0  0  0  0  0  0  0
   21.3924   -3.8072  -14.2386 C   0  0  0  0  0  0  0  0  0  0  0  0
   22.1867   -3.0774  -13.3856 O   0  0  0  0  0  0  0  0  0  0  0  0
   23.6681   -5.4360  -15.1254 C   0  0  0  0  0  0  0  0  0  0  0  0
   24.5461   -5.6767  -16.1552 C   0  0  0  0  0  0  0  0  0  0  0  0
   21.0987   -3.3363  -15.3588 O   0  0  0  0  0  0  0  0  0  0  0  0
  2  3  1  0
  2  1  1  6
  4  2  1  0
  5  4  2  0
  6  4  1  0
  7  6  1  0
  7  8  1  1
  9  8  1  0
  9 10  2  0
 11  7  1  0
 11 21  1  0
 12 11  2  0
 13  9  1  0
 15 14  1  0
 16 15  2  0
 17 16  1  0
 18 24  1  0
 18 17  2  0
 19 18  1  0
 20 19  1  6
 20 21  1  0
 20 22  1  0
 22 26  2  0
 22 23  1  0
 24 25  2  0
 25 15  1  0
M  END
$$$$
