LFF.pdb
     RDKit          3D

 31 32  0  0  1  0  0  0  0  0999 V2000
   12.0709  -17.2033   16.2828 C   0  0  0  0  0  0  0  0  0  0  0  0
   11.1295  -17.9311   17.2579 C   0  0  1  0  0  0  0  0  0  0  0  0
   11.6398  -19.3255   17.3794 C   0  0  0  0  0  0  0  0  0  0  0  0
   11.1163  -17.1204   18.4989 C   0  0  0  0  0  0  0  0  0  0  0  0
   10.2913  -17.6454   19.6317 C   0  0  2  0  0  0  0  0  0  0  0  0
    8.9787  -18.0796   19.3038 N   0  0  0  0  0  0  0  0  0  0  0  0
   10.2417  -16.7367   20.7893 C   0  0  0  0  0  0  0  0  0  0  0  0
   11.2320  -16.0912   21.2167 O   0  0  0  0  0  0  0  0  0  0  0  0
    9.0145  -16.5677   21.4742 N   0  0  0  0  0  0  0  0  0  0  0  0
    8.9121  -15.7472   22.6755 C   0  0  1  0  0  0  0  0  0  0  0  0
    7.5179  -15.1601   22.7596 C   0  0  0  0  0  0  0  0  0  0  0  0
    7.2964  -14.3459   23.9613 C   0  0  0  0  0  0  0  0  0  0  0  0
    6.6261  -14.9257   25.0327 C   0  0  0  0  0  0  0  0  0  0  0  0
    6.4058  -14.1958   26.1792 C   0  0  0  0  0  0  0  0  0  0  0  0
    6.8560  -12.8989   26.2427 C   0  0  0  0  0  0  0  0  0  0  0  0
    7.5214  -12.3354   25.1690 C   0  0  0  0  0  0  0  0  0  0  0  0
    7.7537  -13.0575   24.0016 C   0  0  0  0  0  0  0  0  0  0  0  0
    9.2458  -16.5892   23.8492 C   0  0  0  0  0  0  0  0  0  0  0  0
    8.8455  -17.7767   23.9526 O   0  0  0  0  0  0  0  0  0  0  0  0
   10.0393  -16.0795   24.9128 N   0  0  0  0  0  0  0  0  0  0  0  0
   10.7275  -17.0199   25.8144 C   0  0  1  0  0  0  0  0  0  0  0  0
   11.5887  -16.1727   26.6920 C   0  0  0  0  0  0  0  0  0  0  0  0
   10.7830  -15.3948   27.6303 C   0  0  0  0  0  0  0  0  0  0  0  0
   10.5399  -15.7771   28.9362 C   0  0  0  0  0  0  0  0  0  0  0  0
    9.7865  -14.9699   29.7499 C   0  0  0  0  0  0  0  0  0  0  0  0
    9.2528  -13.7741   29.3134 C   0  0  0  0  0  0  0  0  0  0  0  0
    9.4937  -13.3979   28.0240 C   0  0  0  0  0  0  0  0  0  0  0  0
   10.2439  -14.1922   27.1987 C   0  0  0  0  0  0  0  0  0  0  0  0
    9.7089  -17.7108   26.6239 C   0  0  0  0  0  0  0  0  0  0  0  0
   10.0897  -18.7310   27.4855 O   0  0  0  0  0  0  0  0  0  0  0  0
    8.5061  -17.4162   26.5684 O   0  0  0  0  0  0  0  0  0  0  0  0
  2  1  1  6
  3  2  1  0
  4  5  1  0
  4  2  1  0
  5  7  1  0
  5  6  1  6
  7  8  2  0
  9 10  1  0
  9  7  1  0
 11 12  1  0
 10 11  1  1
 12 17  2  0
 13 14  2  0
 13 12  1  0
 14 15  1  0
 15 16  2  0
 17 16  1  0
 18 20  1  0
 18 10  1  0
 19 18  2  0
 21 20  1  0
 21 22  1  1
 23 22  1  0
 23 24  2  0
 25 24  1  0
 26 25  2  0
 27 28  2  0
 27 26  1  0
 28 23  1  0
 29 21  1  0
 30 29  1  0
 31 29  2  0
M  END
$$$$
