LFF.pdb
     RDKit          3D

 31 32  0  0  1  0  0  0  0  0999 V2000
    8.1130  -12.9881   17.0722 C   0  0  0  0  0  0  0  0  0  0  0  0
    8.6023  -14.3480   17.5992 C   0  0  1  0  0  0  0  0  0  0  0  0
    9.5963  -14.8533   16.6111 C   0  0  0  0  0  0  0  0  0  0  0  0
    9.1012  -14.1012   18.9732 C   0  0  0  0  0  0  0  0  0  0  0  0
    9.5403  -15.3021   19.7508 C   0  0  2  0  0  0  0  0  0  0  0  0
    8.8690  -16.5196   19.4577 N   0  0  0  0  0  0  0  0  0  0  0  0
    9.5603  -15.0811   21.2064 C   0  0  0  0  0  0  0  0  0  0  0  0
   10.2272  -14.1762   21.7690 O   0  0  0  0  0  0  0  0  0  0  0  0
    8.7890  -15.9284   22.0376 N   0  0  0  0  0  0  0  0  0  0  0  0
    8.5513  -15.6170   23.4423 C   0  0  1  0  0  0  0  0  0  0  0  0
    7.0783  -15.3261   23.6452 C   0  0  0  0  0  0  0  0  0  0  0  0
    6.8034  -14.4804   24.8136 C   0  0  0  0  0  0  0  0  0  0  0  0
    6.1655  -15.0573   25.9061 C   0  0  0  0  0  0  0  0  0  0  0  0
    5.8971  -14.2977   27.0227 C   0  0  0  0  0  0  0  0  0  0  0  0
    6.2677  -12.9744   27.0357 C   0  0  0  0  0  0  0  0  0  0  0  0
    6.9017  -12.4141   25.9415 C   0  0  0  0  0  0  0  0  0  0  0  0
    7.1816  -13.1660   24.8037 C   0  0  0  0  0  0  0  0  0  0  0  0
    9.0234  -16.7581   24.2627 C   0  0  0  0  0  0  0  0  0  0  0  0
    9.1888  -17.9054   23.7754 O   0  0  0  0  0  0  0  0  0  0  0  0
    9.3095  -16.5955   25.6456 N   0  0  0  0  0  0  0  0  0  0  0  0
    9.9487  -17.6983   26.3846 C   0  0  1  0  0  0  0  0  0  0  0  0
   10.2022  -17.1647   27.7560 C   0  0  0  0  0  0  0  0  0  0  0  0
   10.3447  -15.7107   27.7389 C   0  0  0  0  0  0  0  0  0  0  0  0
    9.2792  -14.8326   27.8031 C   0  0  0  0  0  0  0  0  0  0  0  0
    9.5133  -13.4811   27.8010 C   0  0  0  0  0  0  0  0  0  0  0  0
   10.7871  -12.9529   27.7367 C   0  0  0  0  0  0  0  0  0  0  0  0
   11.8380  -13.8211   27.6736 C   0  0  0  0  0  0  0  0  0  0  0  0
   11.6214  -15.1731   27.6748 C   0  0  0  0  0  0  0  0  0  0  0  0
    8.9980  -18.8217   26.4490 C   0  0  0  0  0  0  0  0  0  0  0  0
    7.7209  -18.6741   25.9240 O   0  0  0  0  0  0  0  0  0  0  0  0
    9.2933  -19.9117   26.9603 O   0  0  0  0  0  0  0  0  0  0  0  0
  2  1  1  6
  3  2  1  0
  4  5  1  0
  4  2  1  0
  5  7  1  0
  5  6  1  1
  7  8  2  0
  9 10  1  0
  9  7  1  0
 11 12  1  0
 10 11  1  6
 12 17  2  0
 13 14  2  0
 13 12  1  0
 14 15  1  0
 15 16  2  0
 17 16  1  0
 18 20  1  0
 18 10  1  0
 19 18  2  0
 21 20  1  0
 21 22  1  1
 23 22  1  0
 23 24  2  0
 25 24  1  0
 26 25  2  0
 27 28  2  0
 27 26  1  0
 28 23  1  0
 29 21  1  0
 30 29  1  0
 31 29  2  0
M  END
$$$$
