LFF.pdb
     RDKit          3D

 31 32  0  0  1  0  0  0  0  0999 V2000
    8.3153  -12.4054   18.1473 C   0  0  0  0  0  0  0  0  0  0  0  0
    8.2561  -13.5810   19.1378 C   0  0  1  0  0  0  0  0  0  0  0  0
    6.8353  -14.0267   19.1830 C   0  0  0  0  0  0  0  0  0  0  0  0
    9.2466  -14.5738   18.6572 C   0  0  0  0  0  0  0  0  0  0  0  0
    9.4940  -15.7542   19.5433 C   0  0  2  0  0  0  0  0  0  0  0  0
    8.6003  -16.8488   19.3949 N   0  0  0  0  0  0  0  0  0  0  0  0
    9.6181  -15.4007   20.9673 C   0  0  0  0  0  0  0  0  0  0  0  0
   10.5950  -14.7753   21.4517 O   0  0  0  0  0  0  0  0  0  0  0  0
    8.5859  -15.7797   21.8586 N   0  0  0  0  0  0  0  0  0  0  0  0
    8.5447  -15.2988   23.2348 C   0  0  1  0  0  0  0  0  0  0  0  0
    7.1296  -14.8748   23.5715 C   0  0  0  0  0  0  0  0  0  0  0  0
    7.0202  -14.1610   24.8499 C   0  0  0  0  0  0  0  0  0  0  0  0
    7.3125  -12.8018   24.8700 C   0  0  0  0  0  0  0  0  0  0  0  0
    7.2146  -12.0970   26.0488 C   0  0  0  0  0  0  0  0  0  0  0  0
    6.8271  -12.7557   27.1910 C   0  0  0  0  0  0  0  0  0  0  0  0
    6.5395  -14.1082   27.1559 C   0  0  0  0  0  0  0  0  0  0  0  0
    6.6326  -14.8375   25.9737 C   0  0  0  0  0  0  0  0  0  0  0  0
    9.0417  -16.3762   24.1238 C   0  0  0  0  0  0  0  0  0  0  0  0
    8.7473  -17.5841   23.9355 O   0  0  0  0  0  0  0  0  0  0  0  0
    9.8784  -16.0802   25.2341 N   0  0  0  0  0  0  0  0  0  0  0  0
   10.6766  -17.1583   25.8438 C   0  0  1  0  0  0  0  0  0  0  0  0
   11.7446  -16.4690   26.6274 C   0  0  0  0  0  0  0  0  0  0  0  0
   11.1709  -15.6221   27.6706 C   0  0  0  0  0  0  0  0  0  0  0  0
   10.9748  -16.0347   28.9751 C   0  0  0  0  0  0  0  0  0  0  0  0
   10.4471  -15.1604   29.8908 C   0  0  0  0  0  0  0  0  0  0  0  0
   10.0984  -13.8664   29.5598 C   0  0  0  0  0  0  0  0  0  0  0  0
   10.2928  -13.4604   28.2715 C   0  0  0  0  0  0  0  0  0  0  0  0
   10.8187  -14.3208   27.3452 C   0  0  0  0  0  0  0  0  0  0  0  0
    9.8019  -17.9235   26.7490 C   0  0  0  0  0  0  0  0  0  0  0  0
    8.4592  -17.5865   26.8572 O   0  0  0  0  0  0  0  0  0  0  0  0
   10.2195  -18.8714   27.4301 O   0  0  0  0  0  0  0  0  0  0  0  0
  2  1  1  6
  3  2  1  0
  4  5  1  0
  4  2  1  0
  5  7  1  0
  5  6  1  1
  7  8  2  0
  9 10  1  0
  9  7  1  0
 11 12  1  0
 10 11  1  1
 12 17  2  0
 13 14  2  0
 13 12  1  0
 14 15  1  0
 15 16  2  0
 17 16  1  0
 18 20  1  0
 18 10  1  0
 19 18  2  0
 21 20  1  0
 21 22  1  1
 23 22  1  0
 23 24  2  0
 25 24  1  0
 26 25  2  0
 27 28  2  0
 27 26  1  0
 28 23  1  0
 29 21  1  0
 30 29  1  0
 31 29  2  0
M  END
$$$$
