LFF.pdb
     RDKit          3D

 31 32  0  0  1  0  0  0  0  0999 V2000
    9.6425  -17.0212   16.6334 C   0  0  0  0  0  0  0  0  0  0  0  0
   10.7711  -17.9315   17.1474 C   0  0  1  0  0  0  0  0  0  0  0  0
   11.9076  -17.7764   16.1967 C   0  0  0  0  0  0  0  0  0  0  0  0
   11.0213  -17.5238   18.5506 C   0  0  0  0  0  0  0  0  0  0  0  0
    9.9574  -17.8658   19.5460 C   0  0  2  0  0  0  0  0  0  0  0  0
    8.6455  -18.0384   19.0282 N   0  0  0  0  0  0  0  0  0  0  0  0
    9.9220  -16.9532   20.7010 C   0  0  0  0  0  0  0  0  0  0  0  0
   10.9023  -16.2635   21.0797 O   0  0  0  0  0  0  0  0  0  0  0  0
    8.7214  -16.8325   21.4409 N   0  0  0  0  0  0  0  0  0  0  0  0
    8.6246  -15.9690   22.6121 C   0  0  1  0  0  0  0  0  0  0  0  0
    7.2187  -15.4116   22.7045 C   0  0  0  0  0  0  0  0  0  0  0  0
    7.0073  -14.5451   23.8708 C   0  0  0  0  0  0  0  0  0  0  0  0
    6.4679  -15.1117   25.0204 C   0  0  0  0  0  0  0  0  0  0  0  0
    6.2615  -14.3324   26.1366 C   0  0  0  0  0  0  0  0  0  0  0  0
    6.5952  -12.9999   26.0924 C   0  0  0  0  0  0  0  0  0  0  0  0
    7.1310  -12.4501   24.9419 C   0  0  0  0  0  0  0  0  0  0  0  0
    7.3471  -13.2220   23.8035 C   0  0  0  0  0  0  0  0  0  0  0  0
    9.0031  -16.7572   23.8094 C   0  0  0  0  0  0  0  0  0  0  0  0
    8.6861  -17.9672   23.9379 O   0  0  0  0  0  0  0  0  0  0  0  0
    9.7465  -16.1676   24.8678 N   0  0  0  0  0  0  0  0  0  0  0  0
   10.6507  -17.0096   25.6707 C   0  0  1  0  0  0  0  0  0  0  0  0
   11.6110  -16.0633   26.3128 C   0  0  0  0  0  0  0  0  0  0  0  0
   10.9543  -15.2633   27.3440 C   0  0  0  0  0  0  0  0  0  0  0  0
   10.8899  -15.6279   28.6757 C   0  0  0  0  0  0  0  0  0  0  0  0
   10.2681  -14.8006   29.5758 C   0  0  0  0  0  0  0  0  0  0  0  0
    9.6954  -13.6013   29.2026 C   0  0  0  0  0  0  0  0  0  0  0  0
    9.7599  -13.2427   27.8875 C   0  0  0  0  0  0  0  0  0  0  0  0
   10.3772  -14.0571   26.9762 C   0  0  0  0  0  0  0  0  0  0  0  0
    9.8502  -17.6919   26.7020 C   0  0  0  0  0  0  0  0  0  0  0  0
    8.4757  -17.4991   26.7464 O   0  0  0  0  0  0  0  0  0  0  0  0
   10.3588  -18.4436   27.5465 O   0  0  0  0  0  0  0  0  0  0  0  0
  2  1  1  6
  3  2  1  0
  4  5  1  0
  4  2  1  0
  5  7  1  0
  5  6  1  6
  7  8  2  0
  9 10  1  0
  9  7  1  0
 11 12  1  0
 10 11  1  1
 12 17  2  0
 13 14  2  0
 13 12  1  0
 14 15  1  0
 15 16  2  0
 17 16  1  0
 18 20  1  0
 18 10  1  0
 19 18  2  0
 21 20  1  0
 21 22  1  1
 23 22  1  0
 23 24  2  0
 25 24  1  0
 26 25  2  0
 27 28  2  0
 27 26  1  0
 28 23  1  0
 29 21  1  0
 30 29  1  0
 31 29  2  0
M  END
$$$$
