LFF.pdb
     RDKit          3D

 31 32  0  0  1  0  0  0  0  0999 V2000
    4.3065  -17.1426   21.2879 C   0  0  0  0  0  0  0  0  0  0  0  0
    3.9580  -18.4950   21.9330 C   0  0  1  0  0  0  0  0  0  0  0  0
    2.8387  -19.0699   21.1354 C   0  0  0  0  0  0  0  0  0  0  0  0
    5.2190  -19.2740   21.9616 C   0  0  0  0  0  0  0  0  0  0  0  0
    6.2459  -18.8471   22.9630 C   0  0  2  0  0  0  0  0  0  0  0  0
    5.7524  -18.4199   24.2251 N   0  0  0  0  0  0  0  0  0  0  0  0
    7.1981  -17.8545   22.4375 C   0  0  0  0  0  0  0  0  0  0  0  0
    7.8744  -18.0177   21.3906 O   0  0  0  0  0  0  0  0  0  0  0  0
    7.3759  -16.6385   23.1399 N   0  0  0  0  0  0  0  0  0  0  0  0
    8.3167  -15.6205   22.6868 C   0  0  1  0  0  0  0  0  0  0  0  0
    7.6309  -14.2694   22.6970 C   0  0  0  0  0  0  0  0  0  0  0  0
    7.3683  -13.7558   24.0473 C   0  0  0  0  0  0  0  0  0  0  0  0
    6.5408  -14.4980   24.8825 C   0  0  0  0  0  0  0  0  0  0  0  0
    6.2767  -14.0520   26.1582 C   0  0  0  0  0  0  0  0  0  0  0  0
    6.8405  -12.8732   26.5841 C   0  0  0  0  0  0  0  0  0  0  0  0
    7.6619  -12.1456   25.7421 C   0  0  0  0  0  0  0  0  0  0  0  0
    7.9406  -12.5803   24.4492 C   0  0  0  0  0  0  0  0  0  0  0  0
    9.5096  -15.6588   23.5663 C   0  0  0  0  0  0  0  0  0  0  0  0
   10.4860  -14.8843   23.3988 O   0  0  0  0  0  0  0  0  0  0  0  0
    9.5945  -16.5825   24.6434 N   0  0  0  0  0  0  0  0  0  0  0  0
   10.8840  -16.7734   25.3303 C   0  0  1  0  0  0  0  0  0  0  0  0
   10.5392  -17.0363   26.7592 C   0  0  0  0  0  0  0  0  0  0  0  0
   10.1234  -15.8103   27.4363 C   0  0  0  0  0  0  0  0  0  0  0  0
    8.8569  -15.2663   27.3333 C   0  0  0  0  0  0  0  0  0  0  0  0
    8.5530  -14.1205   28.0234 C   0  0  0  0  0  0  0  0  0  0  0  0
    9.4720  -13.4781   28.8285 C   0  0  0  0  0  0  0  0  0  0  0  0
   10.7219  -14.0165   28.9294 C   0  0  0  0  0  0  0  0  0  0  0  0
   11.0414  -15.1599   28.2471 C   0  0  0  0  0  0  0  0  0  0  0  0
   11.5466  -17.9526   24.7468 C   0  0  0  0  0  0  0  0  0  0  0  0
   10.8514  -18.7654   23.8611 O   0  0  0  0  0  0  0  0  0  0  0  0
   12.7178  -18.2562   25.0166 O   0  0  0  0  0  0  0  0  0  0  0  0
  2  1  1  6
  3  2  1  0
  4  5  1  0
  4  2  1  0
  5  7  1  0
  5  6  1  1
  7  8  2  0
  9 10  1  0
  9  7  1  0
 11 12  1  0
 10 11  1  1
 12 17  2  0
 13 14  2  0
 13 12  1  0
 14 15  1  0
 15 16  2  0
 17 16  1  0
 18 20  1  0
 18 10  1  0
 19 18  2  0
 21 20  1  0
 21 22  1  1
 23 22  1  0
 23 24  2  0
 25 24  1  0
 26 25  2  0
 27 28  2  0
 27 26  1  0
 28 23  1  0
 29 21  1  0
 30 29  1  0
 31 29  2  0
M  END
$$$$
