LFF.pdb
     RDKit          3D

 31 32  0  0  1  0  0  0  0  0999 V2000
    9.8875  -18.3126   16.3739 C   0  0  0  0  0  0  0  0  0  0  0  0
    9.8398  -18.8175   17.8263 C   0  0  1  0  0  0  0  0  0  0  0  0
   11.0067  -19.7277   17.9977 C   0  0  0  0  0  0  0  0  0  0  0  0
    9.8131  -17.6070   18.6817 C   0  0  0  0  0  0  0  0  0  0  0  0
    9.8308  -17.8331   20.1609 C   0  0  2  0  0  0  0  0  0  0  0  0
    8.8842  -18.7653   20.6648 N   0  0  0  0  0  0  0  0  0  0  0  0
    9.7699  -16.5875   20.9437 C   0  0  0  0  0  0  0  0  0  0  0  0
   10.3756  -15.5318   20.6296 O   0  0  0  0  0  0  0  0  0  0  0  0
    8.9880  -16.5584   22.1233 N   0  0  0  0  0  0  0  0  0  0  0  0
    8.8848  -15.3593   22.9469 C   0  0  1  0  0  0  0  0  0  0  0  0
    7.4372  -15.1506   23.3425 C   0  0  0  0  0  0  0  0  0  0  0  0
    7.2530  -14.1134   24.3654 C   0  0  0  0  0  0  0  0  0  0  0  0
    7.6984  -12.8268   24.0833 C   0  0  0  0  0  0  0  0  0  0  0  0
    7.5369  -11.8260   25.0151 C   0  0  0  0  0  0  0  0  0  0  0  0
    6.9342  -12.1205   26.2146 C   0  0  0  0  0  0  0  0  0  0  0  0
    6.4961  -13.4050   26.4812 C   0  0  0  0  0  0  0  0  0  0  0  0
    6.6504  -14.4300   25.5518 C   0  0  0  0  0  0  0  0  0  0  0  0
    9.7774  -15.5170   24.1201 C   0  0  0  0  0  0  0  0  0  0  0  0
   10.3034  -14.5298   24.6944 O   0  0  0  0  0  0  0  0  0  0  0  0
   10.0748  -16.8042   24.6447 N   0  0  0  0  0  0  0  0  0  0  0  0
   11.1263  -16.9411   25.6677 C   0  0  1  0  0  0  0  0  0  0  0  0
   10.4036  -17.1770   26.9529 C   0  0  0  0  0  0  0  0  0  0  0  0
    9.9647  -15.9182   27.5507 C   0  0  0  0  0  0  0  0  0  0  0  0
   10.7675  -15.1240   28.3478 C   0  0  0  0  0  0  0  0  0  0  0  0
   10.2728  -13.9469   28.8489 C   0  0  0  0  0  0  0  0  0  0  0  0
    8.9880  -13.5153   28.5869 C   0  0  0  0  0  0  0  0  0  0  0  0
    8.1968  -14.3003   27.7997 C   0  0  0  0  0  0  0  0  0  0  0  0
    8.6753  -15.4783   27.2914 C   0  0  0  0  0  0  0  0  0  0  0  0
   11.9482  -18.1158   25.3290 C   0  0  0  0  0  0  0  0  0  0  0  0
   13.0389  -18.4452   26.1228 O   0  0  0  0  0  0  0  0  0  0  0  0
   11.7045  -18.8353   24.3494 O   0  0  0  0  0  0  0  0  0  0  0  0
  2  1  1  6
  3  2  1  0
  4  5  1  0
  4  2  1  0
  5  7  1  0
  5  6  1  1
  7  8  2  0
  9 10  1  0
  9  7  1  0
 11 12  1  0
 10 11  1  1
 12 17  2  0
 13 14  2  0
 13 12  1  0
 14 15  1  0
 15 16  2  0
 17 16  1  0
 18 20  1  0
 18 10  1  0
 19 18  2  0
 21 20  1  0
 21 22  1  1
 23 22  1  0
 23 24  2  0
 25 24  1  0
 26 25  2  0
 27 28  2  0
 27 26  1  0
 28 23  1  0
 29 21  1  0
 30 29  1  0
 31 29  2  0
M  END
$$$$
