LFF.pdb
     RDKit          3D

 31 32  0  0  1  0  0  0  0  0999 V2000
    9.8254  -20.3823   20.4282 C   0  0  0  0  0  0  0  0  0  0  0  0
   10.9565  -19.3790   20.7121 C   0  0  1  0  0  0  0  0  0  0  0  0
   12.1818  -20.1843   20.9757 C   0  0  0  0  0  0  0  0  0  0  0  0
   11.0014  -18.4684   19.5431 C   0  0  0  0  0  0  0  0  0  0  0  0
    9.8894  -17.4735   19.4276 C   0  0  2  0  0  0  0  0  0  0  0  0
    9.7850  -16.7902   18.1861 N   0  0  0  0  0  0  0  0  0  0  0  0
    9.8546  -16.5040   20.5352 C   0  0  0  0  0  0  0  0  0  0  0  0
   10.7299  -15.6213   20.7219 O   0  0  0  0  0  0  0  0  0  0  0  0
    8.7795  -16.5541   21.4546 N   0  0  0  0  0  0  0  0  0  0  0  0
    8.6183  -15.5531   22.5029 C   0  0  1  0  0  0  0  0  0  0  0  0
    7.1597  -15.1521   22.5878 C   0  0  0  0  0  0  0  0  0  0  0  0
    6.8919  -14.1277   23.6051 C   0  0  0  0  0  0  0  0  0  0  0  0
    7.1965  -12.8055   23.3012 C   0  0  0  0  0  0  0  0  0  0  0  0
    6.9531  -11.8159   24.2272 C   0  0  0  0  0  0  0  0  0  0  0  0
    6.4098  -12.1569   25.4426 C   0  0  0  0  0  0  0  0  0  0  0  0
    6.1118  -13.4765   25.7308 C   0  0  0  0  0  0  0  0  0  0  0  0
    6.3506  -14.4908   24.8076 C   0  0  0  0  0  0  0  0  0  0  0  0
    9.1268  -16.1195   23.7752 C   0  0  0  0  0  0  0  0  0  0  0  0
    9.2308  -17.3592   23.9581 O   0  0  0  0  0  0  0  0  0  0  0  0
    9.5200  -15.2726   24.8471 N   0  0  0  0  0  0  0  0  0  0  0  0
   10.0965  -15.8699   26.0644 C   0  0  1  0  0  0  0  0  0  0  0  0
   10.8894  -14.7794   26.7062 C   0  0  0  0  0  0  0  0  0  0  0  0
   11.1555  -15.0770   28.1117 C   0  0  0  0  0  0  0  0  0  0  0  0
   12.1328  -15.9554   28.5403 C   0  0  0  0  0  0  0  0  0  0  0  0
   12.3224  -16.1557   29.8839 C   0  0  0  0  0  0  0  0  0  0  0  0
   11.5672  -15.5075   30.8405 C   0  0  0  0  0  0  0  0  0  0  0  0
   10.6028  -14.6405   30.4158 C   0  0  0  0  0  0  0  0  0  0  0  0
   10.4009  -14.4291   29.0781 C   0  0  0  0  0  0  0  0  0  0  0  0
    8.9892  -16.2744   26.9478 C   0  0  0  0  0  0  0  0  0  0  0  0
    7.8038  -15.5512   26.9416 O   0  0  0  0  0  0  0  0  0  0  0  0
    9.0709  -17.2490   27.7095 O   0  0  0  0  0  0  0  0  0  0  0  0
  2  1  1  6
  3  2  1  0
  4  5  1  0
  4  2  1  0
  5  7  1  0
  5  6  1  6
  7  8  2  0
  9 10  1  0
  9  7  1  0
 11 12  1  0
 10 11  1  1
 12 17  2  0
 13 14  2  0
 13 12  1  0
 14 15  1  0
 15 16  2  0
 17 16  1  0
 18 20  1  0
 18 10  1  0
 19 18  2  0
 21 20  1  0
 21 22  1  1
 23 22  1  0
 23 24  2  0
 25 24  1  0
 26 25  2  0
 27 28  2  0
 27 26  1  0
 28 23  1  0
 29 21  1  0
 30 29  1  0
 31 29  2  0
M  END
$$$$
