LFF.pdb
     RDKit          3D

 31 32  0  0  1  0  0  0  0  0999 V2000
    9.1221  -23.6737   22.0308 C   0  0  0  0  0  0  0  0  0  0  0  0
    7.8870  -22.8365   21.6562 C   0  0  1  0  0  0  0  0  0  0  0  0
    6.7560  -23.3599   22.4727 C   0  0  0  0  0  0  0  0  0  0  0  0
    8.2662  -21.4211   21.8807 C   0  0  0  0  0  0  0  0  0  0  0  0
    7.1854  -20.4023   21.6979 C   0  0  2  0  0  0  0  0  0  0  0  0
    6.5021  -20.4286   20.4523 N   0  0  0  0  0  0  0  0  0  0  0  0
    7.6198  -19.0282   21.9999 C   0  0  0  0  0  0  0  0  0  0  0  0
    8.5026  -18.4133   21.3498 O   0  0  0  0  0  0  0  0  0  0  0  0
    7.0190  -18.3433   23.0832 N   0  0  0  0  0  0  0  0  0  0  0  0
    7.4837  -17.0297   23.5139 C   0  0  1  0  0  0  0  0  0  0  0  0
    6.3384  -16.2882   24.1727 C   0  0  0  0  0  0  0  0  0  0  0  0
    6.7044  -14.9482   24.6484 C   0  0  0  0  0  0  0  0  0  0  0  0
    7.3614  -14.0958   23.7680 C   0  0  0  0  0  0  0  0  0  0  0  0
    7.7147  -12.8290   24.1757 C   0  0  0  0  0  0  0  0  0  0  0  0
    7.4087  -12.4288   25.4544 C   0  0  0  0  0  0  0  0  0  0  0  0
    6.7547  -13.2876   26.3192 C   0  0  0  0  0  0  0  0  0  0  0  0
    6.3894  -14.5720   25.9252 C   0  0  0  0  0  0  0  0  0  0  0  0
    8.6389  -17.2155   24.4244 C   0  0  0  0  0  0  0  0  0  0  0  0
    8.5234  -17.7857   25.5392 O   0  0  0  0  0  0  0  0  0  0  0  0
    9.9338  -16.7508   24.0669 N   0  0  0  0  0  0  0  0  0  0  0  0
   10.7675  -16.0851   25.0831 C   0  0  1  0  0  0  0  0  0  0  0  0
   10.2233  -16.5317   26.3999 C   0  0  0  0  0  0  0  0  0  0  0  0
   10.1995  -15.4322   27.3618 C   0  0  0  0  0  0  0  0  0  0  0  0
    9.7602  -14.1565   27.0612 C   0  0  0  0  0  0  0  0  0  0  0  0
    9.7562  -13.1932   28.0375 C   0  0  0  0  0  0  0  0  0  0  0  0
   10.1785  -13.4474   29.3269 C   0  0  0  0  0  0  0  0  0  0  0  0
   10.6117  -14.7072   29.6222 C   0  0  0  0  0  0  0  0  0  0  0  0
   10.6219  -15.6805   28.6591 C   0  0  0  0  0  0  0  0  0  0  0  0
   12.1534  -16.5586   24.9241 C   0  0  0  0  0  0  0  0  0  0  0  0
   13.2096  -15.7252   25.2677 O   0  0  0  0  0  0  0  0  0  0  0  0
   12.4224  -17.6880   24.4894 O   0  0  0  0  0  0  0  0  0  0  0  0
  2  1  1  1
  3  2  1  0
  4  5  1  0
  4  2  1  0
  5  7  1  0
  5  6  1  6
  7  8  2  0
  9 10  1  0
  9  7  1  0
 11 12  1  0
 10 11  1  1
 12 17  2  0
 13 14  2  0
 13 12  1  0
 14 15  1  0
 15 16  2  0
 17 16  1  0
 18 20  1  0
 18 10  1  0
 19 18  2  0
 21 20  1  0
 21 22  1  1
 23 22  1  0
 23 24  2  0
 25 24  1  0
 26 25  2  0
 27 28  2  0
 27 26  1  0
 28 23  1  0
 29 21  1  0
 30 29  1  0
 31 29  2  0
M  END
$$$$
