LFF.pdb
     RDKit          3D

 31 32  0  0  1  0  0  0  0  0999 V2000
    7.2925  -15.0934   16.8964 C   0  0  0  0  0  0  0  0  0  0  0  0
    8.2779  -14.0741   17.4935 C   0  0  1  0  0  0  0  0  0  0  0  0
    8.1496  -12.8328   16.6797 C   0  0  0  0  0  0  0  0  0  0  0  0
    7.9329  -13.9621   18.9309 C   0  0  0  0  0  0  0  0  0  0  0  0
    8.2768  -15.1350   19.7943 C   0  0  2  0  0  0  0  0  0  0  0  0
    7.6059  -16.3516   19.4969 N   0  0  0  0  0  0  0  0  0  0  0  0
    8.1772  -14.8495   21.2354 C   0  0  0  0  0  0  0  0  0  0  0  0
    7.4224  -13.9720   21.7256 O   0  0  0  0  0  0  0  0  0  0  0  0
    8.9713  -15.5974   22.1374 N   0  0  0  0  0  0  0  0  0  0  0  0
    8.8942  -15.3935   23.5794 C   0  0  1  0  0  0  0  0  0  0  0  0
    7.4436  -15.4513   24.0132 C   0  0  0  0  0  0  0  0  0  0  0  0
    6.9986  -14.2506   24.7316 C   0  0  0  0  0  0  0  0  0  0  0  0
    6.3189  -14.4184   25.9329 C   0  0  0  0  0  0  0  0  0  0  0  0
    5.8920  -13.3159   26.6387 C   0  0  0  0  0  0  0  0  0  0  0  0
    6.1479  -12.0619   26.1382 C   0  0  0  0  0  0  0  0  0  0  0  0
    6.8253  -11.9102   24.9419 C   0  0  0  0  0  0  0  0  0  0  0  0
    7.2648  -13.0127   24.2142 C   0  0  0  0  0  0  0  0  0  0  0  0
    9.7276  -16.4236   24.2446 C   0  0  0  0  0  0  0  0  0  0  0  0
    9.6693  -17.6377   23.9222 O   0  0  0  0  0  0  0  0  0  0  0  0
   10.6332  -16.0730   25.2826 N   0  0  0  0  0  0  0  0  0  0  0  0
   11.6223  -17.0636   25.7424 C   0  0  1  0  0  0  0  0  0  0  0  0
   12.5698  -16.3061   26.6131 C   0  0  0  0  0  0  0  0  0  0  0  0
   11.8532  -15.5209   27.6154 C   0  0  0  0  0  0  0  0  0  0  0  0
   11.2955  -14.2809   27.3665 C   0  0  0  0  0  0  0  0  0  0  0  0
   10.6230  -13.6268   28.3671 C   0  0  0  0  0  0  0  0  0  0  0  0
   10.4773  -14.1624   29.6310 C   0  0  0  0  0  0  0  0  0  0  0  0
   11.0283  -15.3867   29.8751 C   0  0  0  0  0  0  0  0  0  0  0  0
   11.7027  -16.0530   28.8872 C   0  0  0  0  0  0  0  0  0  0  0  0
   10.9167  -18.0853   26.5351 C   0  0  0  0  0  0  0  0  0  0  0  0
    9.5577  -17.9466   26.7842 O   0  0  0  0  0  0  0  0  0  0  0  0
   11.4933  -19.0805   26.9976 O   0  0  0  0  0  0  0  0  0  0  0  0
  2  1  1  6
  3  2  1  0
  4  5  1  0
  4  2  1  0
  5  7  1  0
  5  6  1  6
  7  8  2  0
  9 10  1  0
  9  7  1  0
 11 12  1  0
 10 11  1  1
 12 17  2  0
 13 14  2  0
 13 12  1  0
 14 15  1  0
 15 16  2  0
 17 16  1  0
 18 20  1  0
 18 10  1  0
 19 18  2  0
 21 20  1  0
 21 22  1  1
 23 22  1  0
 23 24  2  0
 25 24  1  0
 26 25  2  0
 27 28  2  0
 27 26  1  0
 28 23  1  0
 29 21  1  0
 30 29  1  0
 31 29  2  0
M  END
$$$$
