LFF.pdb
     RDKit          3D

 31 32  0  0  1  0  0  0  0  0999 V2000
    8.1159  -12.1832   17.6696 C   0  0  0  0  0  0  0  0  0  0  0  0
    8.1589  -13.6577   18.1063 C   0  0  1  0  0  0  0  0  0  0  0  0
    8.3573  -14.4615   16.8678 C   0  0  0  0  0  0  0  0  0  0  0  0
    9.2232  -13.7512   19.1340 C   0  0  0  0  0  0  0  0  0  0  0  0
    9.3187  -15.0440   19.8818 C   0  0  2  0  0  0  0  0  0  0  0  0
    8.3674  -16.0411   19.5358 N   0  0  0  0  0  0  0  0  0  0  0  0
    9.3529  -14.8728   21.3439 C   0  0  0  0  0  0  0  0  0  0  0  0
    9.9678  -13.9442   21.9267 O   0  0  0  0  0  0  0  0  0  0  0  0
    8.6582  -15.7995   22.1576 N   0  0  0  0  0  0  0  0  0  0  0  0
    8.6363  -15.6801   23.6109 C   0  0  1  0  0  0  0  0  0  0  0  0
    7.1979  -15.6548   24.0864 C   0  0  0  0  0  0  0  0  0  0  0  0
    6.9007  -14.5404   24.9950 C   0  0  0  0  0  0  0  0  0  0  0  0
    7.4052  -13.2837   24.6796 C   0  0  0  0  0  0  0  0  0  0  0  0
    7.1418  -12.2128   25.5040 C   0  0  0  0  0  0  0  0  0  0  0  0
    6.3797  -12.4084   26.6308 C   0  0  0  0  0  0  0  0  0  0  0  0
    5.8844  -13.6642   26.9318 C   0  0  0  0  0  0  0  0  0  0  0  0
    6.1399  -14.7590   26.1105 C   0  0  0  0  0  0  0  0  0  0  0  0
    9.4053  -16.8094   24.1865 C   0  0  0  0  0  0  0  0  0  0  0  0
    8.9571  -17.9842   24.1961 O   0  0  0  0  0  0  0  0  0  0  0  0
   10.6917  -16.6034   24.7551 N   0  0  0  0  0  0  0  0  0  0  0  0
   11.0970  -17.3963   25.9291 C   0  0  1  0  0  0  0  0  0  0  0  0
   10.0180  -17.1906   26.9406 C   0  0  0  0  0  0  0  0  0  0  0  0
   10.1768  -15.9121   27.6296 C   0  0  0  0  0  0  0  0  0  0  0  0
    9.1298  -15.2059   28.1914 C   0  0  0  0  0  0  0  0  0  0  0  0
    9.3797  -14.0216   28.8368 C   0  0  0  0  0  0  0  0  0  0  0  0
   10.6516  -13.4974   28.9507 C   0  0  0  0  0  0  0  0  0  0  0  0
   11.6843  -14.1959   28.3957 C   0  0  0  0  0  0  0  0  0  0  0  0
   11.4518  -15.3797   27.7482 C   0  0  0  0  0  0  0  0  0  0  0  0
   11.1511  -18.8136   25.5313 C   0  0  0  0  0  0  0  0  0  0  0  0
   10.5580  -19.2185   24.3428 O   0  0  0  0  0  0  0  0  0  0  0  0
   11.7127  -19.6754   26.2232 O   0  0  0  0  0  0  0  0  0  0  0  0
  2  1  1  6
  3  2  1  0
  4  5  1  0
  4  2  1  0
  5  7  1  0
  5  6  1  1
  7  8  2  0
  9 10  1  0
  9  7  1  0
 11 12  1  0
 10 11  1  1
 12 17  2  0
 13 14  2  0
 13 12  1  0
 14 15  1  0
 15 16  2  0
 17 16  1  0
 18 20  1  0
 18 10  1  0
 19 18  2  0
 21 20  1  0
 21 22  1  1
 23 22  1  0
 23 24  2  0
 25 24  1  0
 26 25  2  0
 27 28  2  0
 27 26  1  0
 28 23  1  0
 29 21  1  0
 30 29  1  0
 31 29  2  0
M  END
$$$$
