DHK.pdb
     RDKit          3D

 28 28  0  0  1  0  0  0  0  0999 V2000
   22.6798   -8.9014  -17.4951 N   0  0  0  0  0  0  0  0  0  0  0  0
   21.8448   -8.6083  -16.3634 C   0  0  1  0  0  0  0  0  0  0  0  0
   21.6357   -7.1052  -16.3210 C   0  0  0  0  0  0  0  0  0  0  0  0
   22.8824   -6.3825  -15.9845 C   0  0  0  0  0  0  0  0  0  0  0  0
   23.9890   -6.9756  -15.7857 O   0  0  0  0  0  0  0  0  0  0  0  0
   20.5383   -9.2872  -16.5278 C   0  0  0  0  0  0  0  0  0  0  0  0
   20.1241   -9.5314  -17.7125 O   0  0  0  0  0  0  0  0  0  0  0  0
   22.8972   -4.9923  -15.8696 O   0  0  0  0  0  0  0  0  0  0  0  0
   19.7327   -9.6750  -15.4245 N   0  0  0  0  0  0  0  0  0  0  0  0
   18.5022  -10.3449  -15.6531 C   0  0  1  0  0  0  0  0  0  0  0  0
   18.2733  -11.6043  -14.9119 C   0  0  0  0  0  0  0  0  0  0  0  0
   18.9345  -12.7877  -15.4500 C   0  0  0  0  0  0  0  0  0  0  0  0
   19.7133  -12.8483  -16.5820 C   0  0  0  0  0  0  0  0  0  0  0  0
   20.1408  -14.1267  -16.7431 N   0  0  0  0  0  0  0  0  0  0  0  0
   19.6407  -14.8522  -15.7337 C   0  0  0  0  0  0  0  0  0  0  0  0
   18.9133  -14.0342  -14.9581 N   0  0  0  0  0  0  0  0  0  0  0  0
   17.3235   -9.4315  -15.3758 C   0  0  0  0  0  0  0  0  0  0  0  0
   17.2928   -8.7563  -14.3093 O   0  0  0  0  0  0  0  0  0  0  0  0
   16.2376   -9.2948  -16.2642 N   0  0  0  0  0  0  0  0  0  0  0  0
   15.0702   -8.4446  -15.9259 C   0  0  1  0  0  0  0  0  0  0  0  0
   14.1832   -8.2939  -17.1066 C   0  0  0  0  0  0  0  0  0  0  0  0
   12.9633   -7.4895  -16.7709 C   0  0  0  0  0  0  0  0  0  0  0  0
   12.0065   -7.3653  -17.9367 C   0  0  0  0  0  0  0  0  0  0  0  0
   10.8228   -6.5196  -17.4730 C   0  0  0  0  0  0  0  0  0  0  0  0
    9.8873   -6.4085  -18.5737 N   0  0  0  0  0  0  0  0  0  0  0  0
   14.3852   -8.9894  -14.7506 C   0  0  0  0  0  0  0  0  0  0  0  0
   13.9398   -8.1638  -13.8750 O   0  0  0  0  0  0  0  0  0  0  0  0
   14.1887  -10.3215  -14.5270 O   0  0  0  0  0  0  0  0  0  0  0  0
  2  6  1  0
  2  1  1  6
  3  4  1  0
  3  2  1  0
  4  5  2  0
  6  7  2  0
  8  4  1  0
  9 10  1  0
  9  6  1  0
 11 12  1  0
 10 11  1  1
 12 16  1  0
 13 12  2  0
 13 14  1  0
 14 15  1  0
 16 15  2  0
 17 18  2  0
 17 10  1  0
 19 17  1  0
 20 19  1  0
 20 26  1  0
 20 21  1  6
 22 23  1  0
 22 21  1  0
 24 23  1  0
 24 25  1  0
 26 27  2  0
 26 28  1  0
M  END
$$$$
