DHK.pdb
     RDKit          3D

 28 28  0  0  1  0  0  0  0  0999 V2000
   26.4898   -7.1126  -23.3172 N   0  0  0  0  0  0  0  0  0  0  0  0
   26.3134   -6.3716  -22.0991 C   0  0  1  0  0  0  0  0  0  0  0  0
   25.2624   -5.3063  -22.3550 C   0  0  0  0  0  0  0  0  0  0  0  0
   25.8014   -4.1755  -23.1427 C   0  0  0  0  0  0  0  0  0  0  0  0
   25.0578   -3.2987  -23.6851 O   0  0  0  0  0  0  0  0  0  0  0  0
   25.8447   -7.2856  -21.0315 C   0  0  0  0  0  0  0  0  0  0  0  0
   25.0312   -8.2209  -21.3447 O   0  0  0  0  0  0  0  0  0  0  0  0
   27.1754   -4.0197  -23.3269 O   0  0  0  0  0  0  0  0  0  0  0  0
   26.2629   -7.1624  -19.6800 N   0  0  0  0  0  0  0  0  0  0  0  0
   25.8021   -8.0943  -18.7133 C   0  0  1  0  0  0  0  0  0  0  0  0
   26.7629   -8.5124  -17.6693 C   0  0  0  0  0  0  0  0  0  0  0  0
   26.3140   -9.5803  -16.7832 C   0  0  0  0  0  0  0  0  0  0  0  0
   25.0804  -10.1884  -16.7915 C   0  0  0  0  0  0  0  0  0  0  0  0
   25.0566  -11.1284  -15.8123 N   0  0  0  0  0  0  0  0  0  0  0  0
   26.2498  -11.1100  -15.2029 C   0  0  0  0  0  0  0  0  0  0  0  0
   27.0022  -10.1712  -15.7967 N   0  0  0  0  0  0  0  0  0  0  0  0
   24.5588   -7.5829  -18.0110 C   0  0  0  0  0  0  0  0  0  0  0  0
   24.5354   -6.4036  -17.5607 O   0  0  0  0  0  0  0  0  0  0  0  0
   23.4047   -8.3719  -17.8300 N   0  0  0  0  0  0  0  0  0  0  0  0
   22.2231   -7.8492  -17.1016 C   0  0  1  0  0  0  0  0  0  0  0  0
   21.0501   -8.7319  -17.3220 C   0  0  0  0  0  0  0  0  0  0  0  0
   19.8058   -8.1403  -16.7307 C   0  0  0  0  0  0  0  0  0  0  0  0
   18.5663   -8.9474  -17.0504 C   0  0  0  0  0  0  0  0  0  0  0  0
   17.3852   -8.2709  -16.3587 C   0  0  0  0  0  0  0  0  0  0  0  0
   16.1666   -8.9021  -16.8235 N   0  0  0  0  0  0  0  0  0  0  0  0
   22.5550   -7.6671  -15.6860 C   0  0  0  0  0  0  0  0  0  0  0  0
   23.2190   -8.5944  -15.0976 O   0  0  0  0  0  0  0  0  0  0  0  0
   22.2040   -6.5718  -14.9512 O   0  0  0  0  0  0  0  0  0  0  0  0
  2  6  1  0
  2  1  1  6
  3  4  1  0
  3  2  1  0
  4  5  2  0
  6  7  2  0
  8  4  1  0
  9 10  1  0
  9  6  1  0
 11 12  1  0
 10 11  1  1
 12 16  1  0
 13 12  2  0
 13 14  1  0
 14 15  1  0
 16 15  2  0
 17 18  2  0
 17 10  1  0
 19 17  1  0
 20 19  1  0
 20 26  1  0
 20 21  1  1
 22 23  1  0
 22 21  1  0
 24 23  1  0
 24 25  1  0
 26 27  2  0
 26 28  1  0
M  END
$$$$
