DHK.pdb
     RDKit          3D

 28 28  0  0  1  0  0  0  0  0999 V2000
   41.0643   -9.6515   -7.7961 N   0  0  0  0  0  0  0  0  0  0  0  0
   42.3618   -9.3828   -8.3514 C   0  0  1  0  0  0  0  0  0  0  0  0
   42.8375   -8.0544   -7.7910 C   0  0  0  0  0  0  0  0  0  0  0  0
   41.9861   -6.9292   -8.2367 C   0  0  0  0  0  0  0  0  0  0  0  0
   41.4587   -6.8813   -9.3923 O   0  0  0  0  0  0  0  0  0  0  0  0
   43.3002  -10.4564   -7.9494 C   0  0  0  0  0  0  0  0  0  0  0  0
   43.1766  -10.9680   -6.7842 O   0  0  0  0  0  0  0  0  0  0  0  0
   41.7199   -5.8521   -7.3911 O   0  0  0  0  0  0  0  0  0  0  0  0
   44.3269  -10.9360   -8.8052 N   0  0  0  0  0  0  0  0  0  0  0  0
   45.1825  -11.9784   -8.3618 C   0  0  1  0  0  0  0  0  0  0  0  0
   45.7393  -12.8782   -9.3953 C   0  0  0  0  0  0  0  0  0  0  0  0
   44.7916  -13.7968  -10.0159 C   0  0  0  0  0  0  0  0  0  0  0  0
   43.4870  -14.0092   -9.6359 C   0  0  0  0  0  0  0  0  0  0  0  0
   42.9437  -14.9401  -10.4614 N   0  0  0  0  0  0  0  0  0  0  0  0
   43.8877  -15.3036  -11.3401 C   0  0  0  0  0  0  0  0  0  0  0  0
   45.0003  -14.6074  -11.0625 N   0  0  0  0  0  0  0  0  0  0  0  0
   46.3470  -11.4261   -7.5622 C   0  0  0  0  0  0  0  0  0  0  0  0
   46.8079  -10.2831   -7.8366 O   0  0  0  0  0  0  0  0  0  0  0  0
   46.9548  -12.1370   -6.5075 N   0  0  0  0  0  0  0  0  0  0  0  0
   48.0651  -11.5456   -5.7217 C   0  0  1  0  0  0  0  0  0  0  0  0
   48.2729  -12.3110   -4.4669 C   0  0  0  0  0  0  0  0  0  0  0  0
   49.3549  -11.6982   -3.6292 C   0  0  0  0  0  0  0  0  0  0  0  0
   49.6059  -12.4637   -2.3481 C   0  0  0  0  0  0  0  0  0  0  0  0
   50.7177  -11.7416   -1.5906 C   0  0  0  0  0  0  0  0  0  0  0  0
   50.8830  -12.3884   -0.3047 N   0  0  0  0  0  0  0  0  0  0  0  0
   49.2680  -11.4569   -6.5538 C   0  0  0  0  0  0  0  0  0  0  0  0
   49.5223  -12.4286   -7.3526 O   0  0  0  0  0  0  0  0  0  0  0  0
   50.1369  -10.4045   -6.5353 O   0  0  0  0  0  0  0  0  0  0  0  0
  2  6  1  0
  2  1  1  1
  3  4  1  0
  3  2  1  0
  4  5  2  0
  6  7  2  0
  8  4  1  0
  9 10  1  0
  9  6  1  0
 11 12  1  0
 10 11  1  6
 12 16  1  0
 13 12  2  0
 13 14  1  0
 14 15  1  0
 16 15  2  0
 17 18  2  0
 17 10  1  0
 19 17  1  0
 20 19  1  0
 20 26  1  0
 20 21  1  1
 22 23  1  0
 22 21  1  0
 24 23  1  0
 24 25  1  0
 26 27  2  0
 26 28  1  0
M  END
$$$$
