DHK.pdb
     RDKit          3D

 28 28  0  0  1  0  0  0  0  0999 V2000
   17.2488  -21.9794    9.1236 N   0  0  0  0  0  0  0  0  0  0  0  0
   17.6693  -22.2790   10.4643 C   0  0  1  0  0  0  0  0  0  0  0  0
   16.4403  -22.6980   11.2508 C   0  0  0  0  0  0  0  0  0  0  0  0
   15.5384  -21.5556   11.5179 C   0  0  0  0  0  0  0  0  0  0  0  0
   14.3319  -21.7039   11.8895 O   0  0  0  0  0  0  0  0  0  0  0  0
   18.6448  -23.3938   10.4356 C   0  0  0  0  0  0  0  0  0  0  0  0
   18.9177  -23.9920   11.5321 O   0  0  0  0  0  0  0  0  0  0  0  0
   15.9825  -20.2413   11.3711 O   0  0  0  0  0  0  0  0  0  0  0  0
   19.2849  -23.8206    9.2420 N   0  0  0  0  0  0  0  0  0  0  0  0
   20.1778  -24.9235    9.2784 C   0  0  1  0  0  0  0  0  0  0  0  0
   20.5540  -25.5285    7.9821 C   0  0  0  0  0  0  0  0  0  0  0  0
   19.4647  -26.1307    7.2217 C   0  0  0  0  0  0  0  0  0  0  0  0
   18.5265  -27.0176    7.6956 C   0  0  0  0  0  0  0  0  0  0  0  0
   17.6888  -27.3433    6.6781 N   0  0  0  0  0  0  0  0  0  0  0  0
   18.0933  -26.6749    5.5895 C   0  0  0  0  0  0  0  0  0  0  0  0
   19.1669  -25.9453    5.9283 N   0  0  0  0  0  0  0  0  0  0  0  0
   21.4606  -24.5640   10.0035 C   0  0  0  0  0  0  0  0  0  0  0  0
   22.0620  -23.4917    9.7159 O   0  0  0  0  0  0  0  0  0  0  0  0
   22.0287  -25.3814   11.0015 N   0  0  0  0  0  0  0  0  0  0  0  0
   23.2767  -24.9872   11.6995 C   0  0  1  0  0  0  0  0  0  0  0  0
   23.0088  -24.7517   13.1404 C   0  0  0  0  0  0  0  0  0  0  0  0
   24.2598  -24.3626   13.8694 C   0  0  0  0  0  0  0  0  0  0  0  0
   24.0204  -24.0974   15.3400 C   0  0  0  0  0  0  0  0  0  0  0  0
   25.3599  -23.7102   15.9621 C   0  0  0  0  0  0  0  0  0  0  0  0
   25.1567  -23.5039   17.3817 N   0  0  0  0  0  0  0  0  0  0  0  0
   24.3167  -25.9910   11.4586 C   0  0  0  0  0  0  0  0  0  0  0  0
   23.9490  -27.1666   11.0985 O   0  0  0  0  0  0  0  0  0  0  0  0
   25.6545  -25.7556   11.5916 O   0  0  0  0  0  0  0  0  0  0  0  0
  2  6  1  0
  2  1  1  6
  3  4  1  0
  3  2  1  0
  4  5  2  0
  6  7  2  0
  8  4  1  0
  9 10  1  0
  9  6  1  0
 11 12  1  0
 10 11  1  6
 12 16  1  0
 13 12  2  0
 13 14  1  0
 14 15  1  0
 16 15  2  0
 17 18  2  0
 17 10  1  0
 19 17  1  0
 20 19  1  0
 20 26  1  0
 20 21  1  1
 22 23  1  0
 22 21  1  0
 24 23  1  0
 24 25  1  0
 26 27  2  0
 26 28  1  0
M  END
$$$$
