DHK.pdb
     RDKit          3D

 28 28  0  0  1  0  0  0  0  0999 V2000
   19.1045  -11.1528  -17.3651 N   0  0  0  0  0  0  0  0  0  0  0  0
   19.2611   -9.8304  -17.9043 C   0  0  1  0  0  0  0  0  0  0  0  0
   18.0889   -9.5689  -18.8329 C   0  0  0  0  0  0  0  0  0  0  0  0
   18.2024  -10.3321  -20.0956 C   0  0  0  0  0  0  0  0  0  0  0  0
   19.1534  -11.1435  -20.3258 O   0  0  0  0  0  0  0  0  0  0  0  0
   19.2487   -8.8444  -16.7986 C   0  0  0  0  0  0  0  0  0  0  0  0
   18.5505   -9.1039  -15.7594 O   0  0  0  0  0  0  0  0  0  0  0  0
   17.2518  -10.1917  -21.1068 O   0  0  0  0  0  0  0  0  0  0  0  0
   19.9794   -7.6278  -16.8495 N   0  0  0  0  0  0  0  0  0  0  0  0
   19.9963   -6.7696  -15.7188 C   0  0  1  0  0  0  0  0  0  0  0  0
   21.2761   -6.6436  -14.9881 C   0  0  0  0  0  0  0  0  0  0  0  0
   21.7940   -7.8720  -14.3964 C   0  0  0  0  0  0  0  0  0  0  0  0
   22.8329   -8.6369  -14.8729 C   0  0  0  0  0  0  0  0  0  0  0  0
   23.0039   -9.6970  -14.0422 N   0  0  0  0  0  0  0  0  0  0  0  0
   22.0916   -9.5988  -13.0658 C   0  0  0  0  0  0  0  0  0  0  0  0
   21.3654   -8.4931  -13.2889 N   0  0  0  0  0  0  0  0  0  0  0  0
   19.5421   -5.3705  -16.0884 C   0  0  0  0  0  0  0  0  0  0  0  0
   20.1881   -4.7102  -16.9491 O   0  0  0  0  0  0  0  0  0  0  0  0
   18.4138   -4.7557  -15.5087 N   0  0  0  0  0  0  0  0  0  0  0  0
   17.9686   -3.4071  -15.9368 C   0  0  1  0  0  0  0  0  0  0  0  0
   16.7360   -3.5080  -16.7579 C   0  0  0  0  0  0  0  0  0  0  0  0
   16.2852   -2.1582  -17.2297 C   0  0  0  0  0  0  0  0  0  0  0  0
   15.0211   -2.2216  -18.0593 C   0  0  0  0  0  0  0  0  0  0  0  0
   14.7822   -0.8306  -18.6417 C   0  0  0  0  0  0  0  0  0  0  0  0
   13.5620   -0.8702  -19.4219 N   0  0  0  0  0  0  0  0  0  0  0  0
   17.8163   -2.5410  -14.7647 C   0  0  0  0  0  0  0  0  0  0  0  0
   17.5624   -1.2985  -14.9613 O   0  0  0  0  0  0  0  0  0  0  0  0
   17.9262   -2.9714  -13.4742 O   0  0  0  0  0  0  0  0  0  0  0  0
  2  6  1  0
  2  1  1  1
  3  4  1  0
  3  2  1  0
  4  5  2  0
  6  7  2  0
  8  4  1  0
  9 10  1  0
  9  6  1  0
 11 12  1  0
 10 11  1  6
 12 16  1  0
 13 12  2  0
 13 14  1  0
 14 15  1  0
 16 15  2  0
 17 18  2  0
 17 10  1  0
 19 17  1  0
 20 19  1  0
 20 26  1  0
 20 21  1  1
 22 23  1  0
 22 21  1  0
 24 23  1  0
 24 25  1  0
 26 27  2  0
 26 28  1  0
M  END
$$$$
