DHK.pdb
     RDKit          3D

 28 28  0  0  1  0  0  0  0  0999 V2000
   23.1182  -10.7924  -20.6012 N   0  0  0  0  0  0  0  0  0  0  0  0
   22.0110  -11.1365  -19.7528 C   0  0  1  0  0  0  0  0  0  0  0  0
   22.0591  -12.6354  -19.5164 C   0  0  0  0  0  0  0  0  0  0  0  0
   21.8729  -13.3993  -20.7700 C   0  0  0  0  0  0  0  0  0  0  0  0
   22.8302  -13.9839  -21.3680 O   0  0  0  0  0  0  0  0  0  0  0  0
   22.1430  -10.4251  -18.4600 C   0  0  0  0  0  0  0  0  0  0  0  0
   21.2573  -10.6279  -17.5605 O   0  0  0  0  0  0  0  0  0  0  0  0
   20.6141  -13.5136  -21.3604 O   0  0  0  0  0  0  0  0  0  0  0  0
   23.2109   -9.5308  -18.1837 N   0  0  0  0  0  0  0  0  0  0  0  0
   23.2520   -8.8471  -16.9403 C   0  0  1  0  0  0  0  0  0  0  0  0
   24.5614   -8.7712  -16.2564 C   0  0  0  0  0  0  0  0  0  0  0  0
   25.1718  -10.0492  -15.9082 C   0  0  0  0  0  0  0  0  0  0  0  0
   24.6481  -11.2990  -16.1435 C   0  0  0  0  0  0  0  0  0  0  0  0
   25.5176  -12.2270  -15.6684 N   0  0  0  0  0  0  0  0  0  0  0  0
   26.5641  -11.5730  -15.1463 C   0  0  0  0  0  0  0  0  0  0  0  0
   26.3455  -10.2579  -15.2960 N   0  0  0  0  0  0  0  0  0  0  0  0
   22.7264   -7.4310  -17.0781 C   0  0  0  0  0  0  0  0  0  0  0  0
   23.1466   -6.6963  -18.0150 O   0  0  0  0  0  0  0  0  0  0  0  0
   21.7743   -6.8805  -16.1962 N   0  0  0  0  0  0  0  0  0  0  0  0
   21.2450   -5.5093  -16.3953 C   0  0  1  0  0  0  0  0  0  0  0  0
   19.7781   -5.5508  -16.6194 C   0  0  0  0  0  0  0  0  0  0  0  0
   19.2178   -4.1730  -16.8079 C   0  0  0  0  0  0  0  0  0  0  0  0
   17.7152   -4.1731  -16.9879 C   0  0  0  0  0  0  0  0  0  0  0  0
   17.2728   -2.7228  -17.1668 C   0  0  0  0  0  0  0  0  0  0  0  0
   15.8464   -2.7130  -17.4212 N   0  0  0  0  0  0  0  0  0  0  0  0
   21.6364   -4.6592  -15.2678 C   0  0  0  0  0  0  0  0  0  0  0  0
   21.4495   -3.3939  -15.3726 O   0  0  0  0  0  0  0  0  0  0  0  0
   22.1872   -5.1272  -14.1101 O   0  0  0  0  0  0  0  0  0  0  0  0
  2  6  1  0
  2  1  1  6
  3  4  1  0
  3  2  1  0
  4  5  2  0
  6  7  2  0
  8  4  1  0
  9 10  1  0
  9  6  1  0
 11 12  1  0
 10 11  1  6
 12 16  1  0
 13 12  2  0
 13 14  1  0
 14 15  1  0
 16 15  2  0
 17 18  2  0
 17 10  1  0
 19 17  1  0
 20 19  1  0
 20 26  1  0
 20 21  1  1
 22 23  1  0
 22 21  1  0
 24 23  1  0
 24 25  1  0
 26 27  2  0
 26 28  1  0
M  END
$$$$
