DHK.pdb
     RDKit          3D

 28 28  0  0  1  0  0  0  0  0999 V2000
   18.8068  -11.6526  -16.6409 N   0  0  0  0  0  0  0  0  0  0  0  0
   19.4709  -10.7436  -17.5334 C   0  0  1  0  0  0  0  0  0  0  0  0
   18.7184  -10.7590  -18.8519 C   0  0  0  0  0  0  0  0  0  0  0  0
   18.8189  -12.0700  -19.5309 C   0  0  0  0  0  0  0  0  0  0  0  0
   19.8786  -12.7718  -19.5183 O   0  0  0  0  0  0  0  0  0  0  0  0
   19.4380   -9.3786  -16.9585 C   0  0  0  0  0  0  0  0  0  0  0  0
   18.3514   -8.9697  -16.4229 O   0  0  0  0  0  0  0  0  0  0  0  0
   17.7335  -12.6025  -20.2269 O   0  0  0  0  0  0  0  0  0  0  0  0
   20.5624   -8.5115  -16.9798 N   0  0  0  0  0  0  0  0  0  0  0  0
   20.5223   -7.2897  -16.2582 C   0  0  1  0  0  0  0  0  0  0  0  0
   21.4330   -7.1616  -15.0997 C   0  0  0  0  0  0  0  0  0  0  0  0
   21.1083   -7.9865  -13.9416 C   0  0  0  0  0  0  0  0  0  0  0  0
   20.0067   -8.7969  -13.7953 C   0  0  0  0  0  0  0  0  0  0  0  0
   20.0686   -9.3924  -12.5768 N   0  0  0  0  0  0  0  0  0  0  0  0
   21.1851   -8.9644  -11.9721 C   0  0  0  0  0  0  0  0  0  0  0  0
   21.8060   -8.1154  -12.8047 N   0  0  0  0  0  0  0  0  0  0  0  0
   20.7779   -6.1068  -17.1726 C   0  0  0  0  0  0  0  0  0  0  0  0
   21.7209   -6.1565  -18.0107 O   0  0  0  0  0  0  0  0  0  0  0  0
   20.0024   -4.9303  -17.1342 N   0  0  0  0  0  0  0  0  0  0  0  0
   20.2437   -3.8195  -18.0871 C   0  0  1  0  0  0  0  0  0  0  0  0
   18.9575   -3.1965  -18.4885 C   0  0  0  0  0  0  0  0  0  0  0  0
   19.1693   -2.1274  -19.5181 C   0  0  0  0  0  0  0  0  0  0  0  0
   17.8802   -1.4507  -19.9310 C   0  0  0  0  0  0  0  0  0  0  0  0
   18.2231   -0.4259  -21.0097 C   0  0  0  0  0  0  0  0  0  0  0  0
   16.9854    0.1435  -21.5027 N   0  0  0  0  0  0  0  0  0  0  0  0
   21.1941   -2.8672  -17.5066 C   0  0  0  0  0  0  0  0  0  0  0  0
   21.1741   -2.6934  -16.2353 O   0  0  0  0  0  0  0  0  0  0  0  0
   22.1023   -2.1520  -18.2323 O   0  0  0  0  0  0  0  0  0  0  0  0
  2  6  1  0
  2  1  1  1
  3  4  1  0
  3  2  1  0
  4  5  2  0
  6  7  2  0
  8  4  1  0
  9 10  1  0
  9  6  1  0
 11 12  1  0
 10 11  1  1
 12 16  1  0
 13 12  2  0
 13 14  1  0
 14 15  1  0
 16 15  2  0
 17 18  2  0
 17 10  1  0
 19 17  1  0
 20 19  1  0
 20 26  1  0
 20 21  1  1
 22 23  1  0
 22 21  1  0
 24 23  1  0
 24 25  1  0
 26 27  2  0
 26 28  1  0
M  END
$$$$
