DHK.pdb
     RDKit          3D

 28 28  0  0  1  0  0  0  0  0999 V2000
   21.6798  -11.7307  -18.3536 N   0  0  0  0  0  0  0  0  0  0  0  0
   22.4068  -10.5218  -18.6258 C   0  0  1  0  0  0  0  0  0  0  0  0
   22.3802  -10.2952  -20.1267 C   0  0  0  0  0  0  0  0  0  0  0  0
   23.1993  -11.2921  -20.8513 C   0  0  0  0  0  0  0  0  0  0  0  0
   23.9323  -12.1433  -20.2564 O   0  0  0  0  0  0  0  0  0  0  0  0
   21.7466   -9.3865  -17.9401 C   0  0  0  0  0  0  0  0  0  0  0  0
   20.4715   -9.3904  -17.8463 O   0  0  0  0  0  0  0  0  0  0  0  0
   23.2017  -11.3418  -22.2454 O   0  0  0  0  0  0  0  0  0  0  0  0
   22.4732   -8.2995  -17.3859 N   0  0  0  0  0  0  0  0  0  0  0  0
   21.7790   -7.2572  -16.7176 C   0  0  1  0  0  0  0  0  0  0  0  0
   22.1236   -7.0201  -15.2988 C   0  0  0  0  0  0  0  0  0  0  0  0
   21.6483   -8.0235  -14.3530 C   0  0  0  0  0  0  0  0  0  0  0  0
   20.9106   -9.1456  -14.6499 C   0  0  0  0  0  0  0  0  0  0  0  0
   20.6672   -9.8190  -13.4964 N   0  0  0  0  0  0  0  0  0  0  0  0
   21.2401   -9.1335  -12.4977 C   0  0  0  0  0  0  0  0  0  0  0  0
   21.8300   -8.0505  -13.0255 N   0  0  0  0  0  0  0  0  0  0  0  0
   21.9349   -5.9390  -17.4515 C   0  0  0  0  0  0  0  0  0  0  0  0
   22.8267   -5.8180  -18.3370 O   0  0  0  0  0  0  0  0  0  0  0  0
   21.1201   -4.8186  -17.1908 N   0  0  0  0  0  0  0  0  0  0  0  0
   21.1867   -3.6054  -18.0415 C   0  0  1  0  0  0  0  0  0  0  0  0
   20.9119   -3.9537  -19.4581 C   0  0  0  0  0  0  0  0  0  0  0  0
   20.7709   -2.7231  -20.3028 C   0  0  0  0  0  0  0  0  0  0  0  0
   21.9016   -2.5637  -21.2959 C   0  0  0  0  0  0  0  0  0  0  0  0
   21.4153   -1.6296  -22.4014 C   0  0  0  0  0  0  0  0  0  0  0  0
   22.5101   -1.4139  -23.3257 N   0  0  0  0  0  0  0  0  0  0  0  0
   20.2861   -2.5787  -17.5105 C   0  0  0  0  0  0  0  0  0  0  0  0
   19.0336   -2.8501  -17.4444 O   0  0  0  0  0  0  0  0  0  0  0  0
   20.6943   -1.3496  -17.0796 O   0  0  0  0  0  0  0  0  0  0  0  0
  2  6  1  0
  2  1  1  6
  3  4  1  0
  3  2  1  0
  4  5  2  0
  6  7  2  0
  8  4  1  0
  9 10  1  0
  9  6  1  0
 11 12  1  0
 10 11  1  1
 12 16  1  0
 13 12  2  0
 13 14  1  0
 14 15  1  0
 16 15  2  0
 17 18  2  0
 17 10  1  0
 19 17  1  0
 20 19  1  0
 20 26  1  0
 20 21  1  6
 22 23  1  0
 22 21  1  0
 24 23  1  0
 24 25  1  0
 26 27  2  0
 26 28  1  0
M  END
$$$$
