DHK.pdb
     RDKit          3D

 28 28  0  0  1  0  0  0  0  0999 V2000
   19.8261  -12.1431  -19.6841 N   0  0  0  0  0  0  0  0  0  0  0  0
   20.8939  -11.4540  -19.0143 C   0  0  1  0  0  0  0  0  0  0  0  0
   21.7672  -10.8117  -20.0771 C   0  0  0  0  0  0  0  0  0  0  0  0
   22.4814  -11.8208  -20.8903 C   0  0  0  0  0  0  0  0  0  0  0  0
   22.6305  -11.7106  -22.1479 O   0  0  0  0  0  0  0  0  0  0  0  0
   20.3266  -10.4042  -18.1362 C   0  0  0  0  0  0  0  0  0  0  0  0
   19.3366   -9.7195  -18.5675 O   0  0  0  0  0  0  0  0  0  0  0  0
   23.0331  -12.9580  -20.3001 O   0  0  0  0  0  0  0  0  0  0  0  0
   20.8385  -10.1310  -16.8402 N   0  0  0  0  0  0  0  0  0  0  0  0
   20.1727   -9.1975  -16.0032 C   0  0  1  0  0  0  0  0  0  0  0  0
   19.5842   -9.7171  -14.7496 C   0  0  0  0  0  0  0  0  0  0  0  0
   18.3798  -10.5257  -14.9000 C   0  0  0  0  0  0  0  0  0  0  0  0
   17.7710  -10.8777  -16.0820 C   0  0  0  0  0  0  0  0  0  0  0  0
   16.6776  -11.6300  -15.7963 N   0  0  0  0  0  0  0  0  0  0  0  0
   16.6024  -11.7470  -14.4636 C   0  0  0  0  0  0  0  0  0  0  0  0
   17.6351  -11.0763  -13.9314 N   0  0  0  0  0  0  0  0  0  0  0  0
   21.0874   -8.0451  -15.6346 C   0  0  0  0  0  0  0  0  0  0  0  0
   22.2744   -8.2795  -15.2738 O   0  0  0  0  0  0  0  0  0  0  0  0
   20.6728   -6.6983  -15.6737 N   0  0  0  0  0  0  0  0  0  0  0  0
   21.6140   -5.5952  -15.3618 C   0  0  1  0  0  0  0  0  0  0  0  0
   21.1639   -4.3361  -16.0065 C   0  0  0  0  0  0  0  0  0  0  0  0
   22.0641   -3.1912  -15.6505 C   0  0  0  0  0  0  0  0  0  0  0  0
   21.6499   -1.8949  -16.3125 C   0  0  0  0  0  0  0  0  0  0  0  0
   22.7071   -0.8466  -15.9739 C   0  0  0  0  0  0  0  0  0  0  0  0
   22.2830    0.4208  -16.5335 N   0  0  0  0  0  0  0  0  0  0  0  0
   21.7763   -5.4787  -13.9101 C   0  0  0  0  0  0  0  0  0  0  0  0
   22.7211   -4.7322  -13.4664 O   0  0  0  0  0  0  0  0  0  0  0  0
   20.9847   -6.1133  -12.9971 O   0  0  0  0  0  0  0  0  0  0  0  0
  2  6  1  0
  2  1  1  6
  3  4  1  0
  3  2  1  0
  4  5  2  0
  6  7  2  0
  8  4  1  0
  9 10  1  0
  9  6  1  0
 11 12  1  0
 10 11  1  1
 12 16  1  0
 13 12  2  0
 13 14  1  0
 14 15  1  0
 16 15  2  0
 17 18  2  0
 17 10  1  0
 19 17  1  0
 20 19  1  0
 20 26  1  0
 20 21  1  1
 22 23  1  0
 22 21  1  0
 24 23  1  0
 24 25  1  0
 26 27  2  0
 26 28  1  0
M  END
$$$$
