DHK.pdb
     RDKit          3D

 28 28  0  0  1  0  0  0  0  0999 V2000
   27.1929  -22.6542  -17.6173 N   0  0  0  0  0  0  0  0  0  0  0  0
   27.7080  -22.1662  -16.3681 C   0  0  1  0  0  0  0  0  0  0  0  0
   28.8583  -21.2255  -16.6792 C   0  0  0  0  0  0  0  0  0  0  0  0
   29.9315  -21.8980  -17.4446 C   0  0  0  0  0  0  0  0  0  0  0  0
   30.6803  -22.7922  -16.9390 O   0  0  0  0  0  0  0  0  0  0  0  0
   26.6419  -21.4277  -15.6519 C   0  0  0  0  0  0  0  0  0  0  0  0
   26.9292  -20.8747  -14.5355 O   0  0  0  0  0  0  0  0  0  0  0  0
   30.1716  -21.5737  -18.7799 O   0  0  0  0  0  0  0  0  0  0  0  0
   25.3195  -21.3117  -16.1562 N   0  0  0  0  0  0  0  0  0  0  0  0
   24.3923  -20.4541  -15.5081 C   0  0  1  0  0  0  0  0  0  0  0  0
   24.1811  -19.1170  -16.1043 C   0  0  0  0  0  0  0  0  0  0  0  0
   25.3503  -18.2459  -16.1418 C   0  0  0  0  0  0  0  0  0  0  0  0
   26.1135  -17.9451  -17.2457 C   0  0  0  0  0  0  0  0  0  0  0  0
   27.1093  -17.1045  -16.8651 N   0  0  0  0  0  0  0  0  0  0  0  0
   26.9734  -16.8831  -15.5506 C   0  0  0  0  0  0  0  0  0  0  0  0
   25.9081  -17.5773  -15.1230 N   0  0  0  0  0  0  0  0  0  0  0  0
   23.0337  -21.1162  -15.3797 C   0  0  0  0  0  0  0  0  0  0  0  0
   22.4756  -21.6022  -16.4027 O   0  0  0  0  0  0  0  0  0  0  0  0
   22.3469  -21.2186  -14.1529 N   0  0  0  0  0  0  0  0  0  0  0  0
   21.0084  -21.8527  -14.0722 C   0  0  1  0  0  0  0  0  0  0  0  0
   20.6639  -22.1509  -12.6594 C   0  0  0  0  0  0  0  0  0  0  0  0
   19.3273  -22.8221  -12.5558 C   0  0  0  0  0  0  0  0  0  0  0  0
   18.9913  -23.2392  -11.1404 C   0  0  0  0  0  0  0  0  0  0  0  0
   17.5895  -23.8441  -11.1591 C   0  0  0  0  0  0  0  0  0  0  0  0
   17.2613  -24.2670   -9.8128 N   0  0  0  0  0  0  0  0  0  0  0  0
   20.0188  -21.0072  -14.7453 C   0  0  0  0  0  0  0  0  0  0  0  0
   20.0985  -19.7370  -14.5808 O   0  0  0  0  0  0  0  0  0  0  0  0
   19.0160  -21.4843  -15.5388 O   0  0  0  0  0  0  0  0  0  0  0  0
  2  6  1  0
  2  1  1  6
  3  4  1  0
  3  2  1  0
  4  5  2  0
  6  7  2  0
  8  4  1  0
  9 10  1  0
  9  6  1  0
 11 12  1  0
 10 11  1  6
 12 16  1  0
 13 12  2  0
 13 14  1  0
 14 15  1  0
 16 15  2  0
 17 18  2  0
 17 10  1  0
 19 17  1  0
 20 19  1  0
 20 26  1  0
 20 21  1  1
 22 23  1  0
 22 21  1  0
 24 23  1  0
 24 25  1  0
 26 27  2  0
 26 28  1  0
M  END
$$$$
