QSH.pdb
     RDKit          3D

 26 26  0  0  1  0  0  0  0  0999 V2000
   16.7172  -18.7525   16.8023 N   0  0  0  0  0  0  0  0  0  0  0  0
   16.2689  -18.5959   15.4752 C   0  0  0  0  0  0  0  0  0  0  0  0
   16.5162  -19.4733   14.6164 O   0  0  0  0  0  0  0  0  0  0  0  0
   15.4934  -17.3783   15.0874 C   0  0  0  0  0  0  0  0  0  0  0  0
   15.2594  -16.5403   16.2976 C   0  0  0  0  0  0  0  0  0  0  0  0
   14.3972  -15.3362   15.9852 C   0  0  2  0  0  0  0  0  0  0  0  0
   15.3207  -14.3979   15.3158 N   0  0  0  0  0  0  0  0  0  0  0  0
   13.8546  -14.6438   17.1507 C   0  0  0  0  0  0  0  0  0  0  0  0
   14.6101  -13.8955   17.8698 O   0  0  0  0  0  0  0  0  0  0  0  0
    9.9088  -15.1573   18.7117 O   0  0  0  0  0  0  0  0  0  0  0  0
   10.6441  -14.0322   19.0402 C   0  0  0  0  0  0  0  0  0  0  0  0
   12.1196  -14.2867   18.9129 C   0  0  2  0  0  0  0  0  0  0  0  0
   12.5204  -14.7004   17.6032 N   0  0  0  0  0  0  0  0  0  0  0  0
   12.5677  -15.2408   19.9725 C   0  0  0  0  0  0  0  0  0  0  0  0
   12.6756  -16.4733   19.7383 O   0  0  0  0  0  0  0  0  0  0  0  0
   12.8831  -14.7780   21.2701 N   0  0  0  0  0  0  0  0  0  0  0  0
   13.2569  -15.6312   22.3801 C   0  0  1  0  0  0  0  0  0  0  0  0
   14.3428  -15.0284   23.2181 C   0  0  0  0  0  0  0  0  0  0  0  0
   15.5856  -14.9854   22.4140 C   0  0  0  0  0  0  0  0  0  0  0  0
   15.9458  -15.8392   21.4058 C   0  0  0  0  0  0  0  0  0  0  0  0
   17.1465  -15.4597   20.9405 N   0  0  0  0  0  0  0  0  0  0  0  0
   17.5211  -14.3854   21.6539 C   0  0  0  0  0  0  0  0  0  0  0  0
   16.5695  -14.0920   22.5564 N   0  0  0  0  0  0  0  0  0  0  0  0
   12.0970  -16.0566   23.1803 C   0  0  0  0  0  0  0  0  0  0  0  0
   10.8386  -15.5932   22.8362 O   0  0  0  0  0  0  0  0  0  0  0  0
   12.1937  -16.8257   24.1689 O   0  0  0  0  0  0  0  0  0  0  0  0
  1  2  1  0
  2  4  1  0
  2  3  2  0
  4  5  1  0
  6  5  1  0
  6  8  1  0
  6  7  1  1
  8  9  2  0
 10 11  1  0
 12 11  1  6
 12 14  1  0
 13  8  1  0
 13 12  1  0
 14 15  2  0
 16 17  1  0
 16 14  1  0
 17 24  1  0
 17 18  1  1
 19 18  1  0
 20 19  2  0
 21 22  1  0
 21 20  1  0
 22 23  2  0
 23 19  1  0
 24 26  2  0
 24 25  1  0
M  END
$$$$
