QSH.pdb
     RDKit          3D

 26 26  0  0  1  0  0  0  0  0999 V2000
   14.3295  -13.1468   18.1833 N   0  0  0  0  0  0  0  0  0  0  0  0
   14.5390  -14.0460   19.2482 C   0  0  0  0  0  0  0  0  0  0  0  0
   15.4216  -13.8153   20.1065 O   0  0  0  0  0  0  0  0  0  0  0  0
   13.7054  -15.2819   19.3576 C   0  0  0  0  0  0  0  0  0  0  0  0
   12.7356  -15.1213   20.4780 C   0  0  0  0  0  0  0  0  0  0  0  0
   11.6897  -16.2153   20.4727 C   0  0  2  0  0  0  0  0  0  0  0  0
   10.6977  -15.7581   19.4786 N   0  0  0  0  0  0  0  0  0  0  0  0
   10.9778  -16.3976   21.7345 C   0  0  0  0  0  0  0  0  0  0  0  0
   10.0306  -15.5971   22.0658 O   0  0  0  0  0  0  0  0  0  0  0  0
   10.3113  -19.9730   23.5941 O   0  0  0  0  0  0  0  0  0  0  0  0
    9.5478  -18.8349   23.7846 C   0  0  0  0  0  0  0  0  0  0  0  0
   10.4073  -17.6038   23.8471 C   0  0  2  0  0  0  0  0  0  0  0  0
   11.2195  -17.4106   22.6851 N   0  0  0  0  0  0  0  0  0  0  0  0
   11.2096  -17.6032   25.1080 C   0  0  0  0  0  0  0  0  0  0  0  0
   12.4606  -17.7438   25.0862 O   0  0  0  0  0  0  0  0  0  0  0  0
   10.5777  -17.4430   26.3622 N   0  0  0  0  0  0  0  0  0  0  0  0
   11.2469  -17.5618   27.6420 C   0  0  1  0  0  0  0  0  0  0  0  0
   10.4369  -16.9824   28.7614 C   0  0  0  0  0  0  0  0  0  0  0  0
   10.0686  -15.5935   28.4027 C   0  0  0  0  0  0  0  0  0  0  0  0
   10.5168  -14.8725   27.3283 C   0  0  0  0  0  0  0  0  0  0  0  0
    9.9477  -13.6573   27.3688 N   0  0  0  0  0  0  0  0  0  0  0  0
    9.1590  -13.6305   28.4554 C   0  0  0  0  0  0  0  0  0  0  0  0
    9.2301  -14.8125   29.0908 N   0  0  0  0  0  0  0  0  0  0  0  0
   11.6918  -18.9370   27.9206 C   0  0  0  0  0  0  0  0  0  0  0  0
   11.1479  -19.9789   27.1889 O   0  0  0  0  0  0  0  0  0  0  0  0
   12.5477  -19.2140   28.7974 O   0  0  0  0  0  0  0  0  0  0  0  0
  1  2  1  0
  2  4  1  0
  2  3  2  0
  4  5  1  0
  6  5  1  0
  6  8  1  0
  6  7  1  6
  8  9  2  0
 10 11  1  0
 12 11  1  6
 12 14  1  0
 13  8  1  0
 13 12  1  0
 14 15  2  0
 16 17  1  0
 16 14  1  0
 17 24  1  0
 17 18  1  1
 19 18  1  0
 20 19  2  0
 21 22  1  0
 21 20  1  0
 22 23  2  0
 23 19  1  0
 24 26  2  0
 24 25  1  0
M  END
$$$$
