QSH.pdb
     RDKit          3D

 26 26  0  0  1  0  0  0  0  0999 V2000
    9.3828  -21.3927   15.8140 N   0  0  0  0  0  0  0  0  0  0  0  0
    8.6883  -20.1937   15.5559 C   0  0  0  0  0  0  0  0  0  0  0  0
    8.0288  -20.0594   14.4998 O   0  0  0  0  0  0  0  0  0  0  0  0
    8.7365  -19.0745   16.5458 C   0  0  0  0  0  0  0  0  0  0  0  0
    9.5786  -19.4824   17.7060 C   0  0  0  0  0  0  0  0  0  0  0  0
    8.9957  -18.9994   19.0166 C   0  0  2  0  0  0  0  0  0  0  0  0
    8.3664  -17.7077   18.6747 N   0  0  0  0  0  0  0  0  0  0  0  0
    9.9728  -18.7339   20.0686 C   0  0  0  0  0  0  0  0  0  0  0  0
   11.1210  -19.3076   20.0465 O   0  0  0  0  0  0  0  0  0  0  0  0
    9.4948  -15.9628   23.2231 O   0  0  0  0  0  0  0  0  0  0  0  0
   10.7647  -16.2977   22.7876 C   0  0  0  0  0  0  0  0  0  0  0  0
   10.7892  -17.6707   22.1773 C   0  0  2  0  0  0  0  0  0  0  0  0
    9.7950  -17.8683   21.1674 N   0  0  0  0  0  0  0  0  0  0  0  0
   10.7238  -18.7090   23.2503 C   0  0  0  0  0  0  0  0  0  0  0  0
    9.6228  -19.1880   23.6294 O   0  0  0  0  0  0  0  0  0  0  0  0
   11.9047  -19.1803   23.8676 N   0  0  0  0  0  0  0  0  0  0  0  0
   11.9394  -20.1391   24.9535 C   0  0  1  0  0  0  0  0  0  0  0  0
   13.2000  -20.9488   24.9551 C   0  0  0  0  0  0  0  0  0  0  0  0
   13.2437  -21.7495   23.7100 C   0  0  0  0  0  0  0  0  0  0  0  0
   12.2314  -21.9217   22.8041 C   0  0  0  0  0  0  0  0  0  0  0  0
   12.6759  -22.7220   21.8221 N   0  0  0  0  0  0  0  0  0  0  0  0
   13.9464  -23.0389   22.1202 C   0  0  0  0  0  0  0  0  0  0  0  0
   14.2977  -22.4464   23.2742 N   0  0  0  0  0  0  0  0  0  0  0  0
   11.6642  -19.5210   26.2609 C   0  0  0  0  0  0  0  0  0  0  0  0
   11.3572  -20.3364   27.3368 O   0  0  0  0  0  0  0  0  0  0  0  0
   11.6939  -18.2794   26.4497 O   0  0  0  0  0  0  0  0  0  0  0  0
  1  2  1  0
  2  4  1  0
  2  3  2  0
  4  5  1  0
  6  5  1  0
  6  8  1  0
  6  7  1  6
  8  9  2  0
 10 11  1  0
 12 11  1  1
 12 14  1  0
 13  8  1  0
 13 12  1  0
 14 15  2  0
 16 17  1  0
 16 14  1  0
 17 24  1  0
 17 18  1  1
 19 18  1  0
 20 19  2  0
 21 22  1  0
 21 20  1  0
 22 23  2  0
 23 19  1  0
 24 26  2  0
 24 25  1  0
M  END
$$$$
