QSH.pdb
     RDKit          3D

 26 26  0  0  1  0  0  0  0  0999 V2000
    7.9498  -22.4693   16.8441 N   0  0  0  0  0  0  0  0  0  0  0  0
    9.0904  -22.4126   17.6702 C   0  0  0  0  0  0  0  0  0  0  0  0
    9.4674  -23.4282   18.2986 O   0  0  0  0  0  0  0  0  0  0  0  0
    9.8569  -21.1357   17.7989 C   0  0  0  0  0  0  0  0  0  0  0  0
    9.7621  -20.6467   19.2037 C   0  0  0  0  0  0  0  0  0  0  0  0
    9.7468  -19.1347   19.2690 C   0  0  2  0  0  0  0  0  0  0  0  0
   10.3017  -18.7139   17.9666 N   0  0  0  0  0  0  0  0  0  0  0  0
   10.5953  -18.5509   20.3040 C   0  0  0  0  0  0  0  0  0  0  0  0
   11.8725  -18.5582   20.1754 O   0  0  0  0  0  0  0  0  0  0  0  0
    9.2019  -16.8371   23.8888 O   0  0  0  0  0  0  0  0  0  0  0  0
   10.4136  -16.3965   23.3866 C   0  0  0  0  0  0  0  0  0  0  0  0
   11.0412  -17.4266   22.4905 C   0  0  2  0  0  0  0  0  0  0  0  0
   10.1512  -17.9412   21.4953 N   0  0  0  0  0  0  0  0  0  0  0  0
   11.6627  -18.5094   23.3121 C   0  0  0  0  0  0  0  0  0  0  0  0
   11.0798  -19.6115   23.4885 O   0  0  0  0  0  0  0  0  0  0  0  0
   12.9276  -18.3197   23.9133 N   0  0  0  0  0  0  0  0  0  0  0  0
   13.5868  -19.2875   24.7668 C   0  0  1  0  0  0  0  0  0  0  0  0
   15.0789  -19.2274   24.6457 C   0  0  0  0  0  0  0  0  0  0  0  0
   15.4584  -19.7006   23.2947 C   0  0  0  0  0  0  0  0  0  0  0  0
   14.6135  -20.0360   22.2706 C   0  0  0  0  0  0  0  0  0  0  0  0
   15.3559  -20.4197   21.2199 N   0  0  0  0  0  0  0  0  0  0  0  0
   16.6423  -20.3221   21.5929 C   0  0  0  0  0  0  0  0  0  0  0  0
   16.7096  -19.8828   22.8613 N   0  0  0  0  0  0  0  0  0  0  0  0
   13.1306  -19.2105   26.1642 C   0  0  0  0  0  0  0  0  0  0  0  0
   13.6328  -20.1148   27.0844 O   0  0  0  0  0  0  0  0  0  0  0  0
   12.3004  -18.3576   26.5661 O   0  0  0  0  0  0  0  0  0  0  0  0
  1  2  1  0
  2  4  1  0
  2  3  2  0
  4  5  1  0
  6  5  1  0
  6  8  1  0
  6  7  1  6
  8  9  2  0
 10 11  1  0
 12 11  1  1
 12 14  1  0
 13  8  1  0
 13 12  1  0
 14 15  2  0
 16 17  1  0
 16 14  1  0
 17 24  1  0
 17 18  1  1
 19 18  1  0
 20 19  2  0
 21 22  1  0
 21 20  1  0
 22 23  2  0
 23 19  1  0
 24 26  2  0
 24 25  1  0
M  END
$$$$
