QSH.pdb
     RDKit          3D

 26 26  0  0  1  0  0  0  0  0999 V2000
   12.1716  -14.6981   20.4538 N   0  0  0  0  0  0  0  0  0  0  0  0
   12.5625  -13.8929   19.3651 C   0  0  0  0  0  0  0  0  0  0  0  0
   13.7393  -13.9339   18.9384 O   0  0  0  0  0  0  0  0  0  0  0  0
   11.5701  -12.9846   18.7134 C   0  0  0  0  0  0  0  0  0  0  0  0
   10.2525  -13.1285   19.3952 C   0  0  0  0  0  0  0  0  0  0  0  0
    9.4974  -14.3434   18.9008 C   0  0  2  0  0  0  0  0  0  0  0  0
    8.6525  -13.8204   17.8082 N   0  0  0  0  0  0  0  0  0  0  0  0
    8.6019  -14.9560   19.8780 C   0  0  0  0  0  0  0  0  0  0  0  0
    7.4068  -14.5124   20.0293 O   0  0  0  0  0  0  0  0  0  0  0  0
    8.6031  -18.7748   21.5809 O   0  0  0  0  0  0  0  0  0  0  0  0
    7.5615  -17.8673   21.6593 C   0  0  0  0  0  0  0  0  0  0  0  0
    8.0711  -16.4608   21.8008 C   0  0  2  0  0  0  0  0  0  0  0  0
    8.9118  -16.0429   20.7210 N   0  0  0  0  0  0  0  0  0  0  0  0
    8.7267  -16.2855   23.1324 C   0  0  0  0  0  0  0  0  0  0  0  0
    9.9664  -16.0878   23.2291 O   0  0  0  0  0  0  0  0  0  0  0  0
    7.9644  -16.3377   24.3215 N   0  0  0  0  0  0  0  0  0  0  0  0
    8.5151  -16.2299   25.6575 C   0  0  1  0  0  0  0  0  0  0  0  0
    7.5358  -15.6454   26.6292 C   0  0  0  0  0  0  0  0  0  0  0  0
    7.3701  -14.2069   26.3188 C   0  0  0  0  0  0  0  0  0  0  0  0
    8.0959  -13.4672   25.4237 C   0  0  0  0  0  0  0  0  0  0  0  0
    7.6349  -12.2065   25.4466 N   0  0  0  0  0  0  0  0  0  0  0  0
    6.6376  -12.1706   26.3453 C   0  0  0  0  0  0  0  0  0  0  0  0
    6.4724  -13.3919   26.8813 N   0  0  0  0  0  0  0  0  0  0  0  0
    9.0939  -17.4971   26.1331 C   0  0  0  0  0  0  0  0  0  0  0  0
    8.9942  -18.6221   25.3324 O   0  0  0  0  0  0  0  0  0  0  0  0
    9.6784  -17.6088   27.2395 O   0  0  0  0  0  0  0  0  0  0  0  0
  1  2  1  0
  2  4  1  0
  2  3  2  0
  4  5  1  0
  6  5  1  0
  6  8  1  0
  6  7  1  6
  8  9  2  0
 10 11  1  0
 12 11  1  6
 12 14  1  0
 13  8  1  0
 13 12  1  0
 14 15  2  0
 16 17  1  0
 16 14  1  0
 17 24  1  0
 17 18  1  1
 19 18  1  0
 20 19  2  0
 21 22  1  0
 21 20  1  0
 22 23  2  0
 23 19  1  0
 24 26  2  0
 24 25  1  0
M  END
$$$$
