QSH.pdb
     RDKit          3D

 26 26  0  0  1  0  0  0  0  0999 V2000
    9.0561  -19.0493   15.0591 N   0  0  0  0  0  0  0  0  0  0  0  0
    9.0121  -18.2614   13.8913 C   0  0  0  0  0  0  0  0  0  0  0  0
    9.2556  -18.7723   12.7740 O   0  0  0  0  0  0  0  0  0  0  0  0
    8.6729  -16.8084   13.9826 C   0  0  0  0  0  0  0  0  0  0  0  0
    8.4399  -16.4484   15.4101 C   0  0  0  0  0  0  0  0  0  0  0  0
    8.0620  -14.9910   15.5641 C   0  0  2  0  0  0  0  0  0  0  0  0
    8.5156  -14.3679   14.3042 N   0  0  0  0  0  0  0  0  0  0  0  0
    8.7336  -14.2890   16.6542 C   0  0  0  0  0  0  0  0  0  0  0  0
    9.9306  -13.8506   16.5027 O   0  0  0  0  0  0  0  0  0  0  0  0
    7.2325  -14.0879   20.5888 O   0  0  0  0  0  0  0  0  0  0  0  0
    8.1653  -13.1353   20.2184 C   0  0  0  0  0  0  0  0  0  0  0  0
    8.9794  -13.5954   19.0421 C   0  0  2  0  0  0  0  0  0  0  0  0
    8.1892  -14.0165   17.9260 N   0  0  0  0  0  0  0  0  0  0  0  0
    9.9567  -14.6407   19.4734 C   0  0  0  0  0  0  0  0  0  0  0  0
    9.7836  -15.8545   19.1871 O   0  0  0  0  0  0  0  0  0  0  0  0
   11.1055  -14.2876   20.2171 N   0  0  0  0  0  0  0  0  0  0  0  0
   12.0918  -15.2304   20.7052 C   0  0  1  0  0  0  0  0  0  0  0  0
   13.4634  -14.6313   20.7747 C   0  0  0  0  0  0  0  0  0  0  0  0
   13.9376  -14.3859   19.3934 C   0  0  0  0  0  0  0  0  0  0  0  0
   13.4704  -14.9678   18.2452 C   0  0  0  0  0  0  0  0  0  0  0  0
   14.1702  -14.4782   17.2094 N   0  0  0  0  0  0  0  0  0  0  0  0
   15.0578  -13.6058   17.7140 C   0  0  0  0  0  0  0  0  0  0  0  0
   14.9192  -13.5465   19.0494 N   0  0  0  0  0  0  0  0  0  0  0  0
   11.6883  -15.8645   21.9709 C   0  0  0  0  0  0  0  0  0  0  0  0
   12.4486  -15.6397   23.1058 O   0  0  0  0  0  0  0  0  0  0  0  0
   10.6796  -16.6064   22.0724 O   0  0  0  0  0  0  0  0  0  0  0  0
  1  2  1  0
  2  4  1  0
  2  3  2  0
  4  5  1  0
  6  5  1  0
  6  8  1  0
  6  7  1  6
  8  9  2  0
 10 11  1  0
 12 11  1  1
 12 14  1  0
 13  8  1  0
 13 12  1  0
 14 15  2  0
 16 17  1  0
 16 14  1  0
 17 24  1  0
 17 18  1  1
 19 18  1  0
 20 19  2  0
 21 22  1  0
 21 20  1  0
 22 23  2  0
 23 19  1  0
 24 26  2  0
 24 25  1  0
M  END
$$$$
