QSH.pdb
     RDKit          3D

 26 26  0  0  1  0  0  0  0  0999 V2000
    7.8184  -12.5161   15.9949 N   0  0  0  0  0  0  0  0  0  0  0  0
    7.5344  -13.8246   15.5550 C   0  0  0  0  0  0  0  0  0  0  0  0
    6.7966  -14.0114   14.5603 O   0  0  0  0  0  0  0  0  0  0  0  0
    8.1153  -14.9979   16.2763 C   0  0  0  0  0  0  0  0  0  0  0  0
    8.9379  -14.5117   17.4203 C   0  0  0  0  0  0  0  0  0  0  0  0
    9.5091  -15.6591   18.2251 C   0  0  2  0  0  0  0  0  0  0  0  0
    8.3337  -16.4958   18.5407 N   0  0  0  0  0  0  0  0  0  0  0  0
   10.1183  -15.2805   19.4970 C   0  0  0  0  0  0  0  0  0  0  0  0
   11.1295  -14.4902   19.5215 O   0  0  0  0  0  0  0  0  0  0  0  0
    9.1372  -16.8879   23.3198 O   0  0  0  0  0  0  0  0  0  0  0  0
    9.6040  -15.5886   23.2274 C   0  0  0  0  0  0  0  0  0  0  0  0
   10.4111  -15.3851   21.9763 C   0  0  2  0  0  0  0  0  0  0  0  0
    9.7000  -15.7022   20.7758 N   0  0  0  0  0  0  0  0  0  0  0  0
   11.7087  -16.1195   22.0792 C   0  0  0  0  0  0  0  0  0  0  0  0
   11.8271  -17.2990   21.6545 O   0  0  0  0  0  0  0  0  0  0  0  0
   12.8402  -15.5023   22.6592 N   0  0  0  0  0  0  0  0  0  0  0  0
   14.1334  -16.1366   22.8169 C   0  0  1  0  0  0  0  0  0  0  0  0
   15.2415  -15.3203   22.2249 C   0  0  0  0  0  0  0  0  0  0  0  0
   14.9884  -15.1700   20.7735 C   0  0  0  0  0  0  0  0  0  0  0  0
   14.3800  -14.1151   20.1471 C   0  0  0  0  0  0  0  0  0  0  0  0
   14.3416  -14.3719   18.8300 N   0  0  0  0  0  0  0  0  0  0  0  0
   14.9190  -15.5706   18.6478 C   0  0  0  0  0  0  0  0  0  0  0  0
   15.3159  -16.0624   19.8339 N   0  0  0  0  0  0  0  0  0  0  0  0
   14.4035  -16.5284   24.2099 C   0  0  0  0  0  0  0  0  0  0  0  0
   15.6018  -17.1532   24.5105 O   0  0  0  0  0  0  0  0  0  0  0  0
   13.5928  -16.3225   25.1472 O   0  0  0  0  0  0  0  0  0  0  0  0
  1  2  1  0
  2  4  1  0
  2  3  2  0
  4  5  1  0
  6  5  1  0
  6  8  1  0
  6  7  1  1
  8  9  2  0
 10 11  1  0
 12 11  1  1
 12 14  1  0
 13  8  1  0
 13 12  1  0
 14 15  2  0
 16 17  1  0
 16 14  1  0
 17 24  1  0
 17 18  1  1
 19 18  1  0
 20 19  2  0
 21 22  1  0
 21 20  1  0
 22 23  2  0
 23 19  1  0
 24 26  2  0
 24 25  1  0
M  END
$$$$
