QSH.pdb
     RDKit          3D

 26 26  0  0  1  0  0  0  0  0999 V2000
   10.8697  -15.1747   14.2028 N   0  0  0  0  0  0  0  0  0  0  0  0
    9.5738  -15.7106   14.0614 C   0  0  0  0  0  0  0  0  0  0  0  0
    9.2006  -16.1817   12.9626 O   0  0  0  0  0  0  0  0  0  0  0  0
    8.6376  -15.7191   15.2267 C   0  0  0  0  0  0  0  0  0  0  0  0
    9.3052  -15.0804   16.3964 C   0  0  0  0  0  0  0  0  0  0  0  0
    9.9058  -16.1109   17.3281 C   0  0  2  0  0  0  0  0  0  0  0  0
    8.7665  -16.9814   17.6821 N   0  0  0  0  0  0  0  0  0  0  0  0
   10.4415  -15.5784   18.5777 C   0  0  0  0  0  0  0  0  0  0  0  0
   11.3861  -14.7093   18.5598 O   0  0  0  0  0  0  0  0  0  0  0  0
   10.6147  -15.3310   23.4374 O   0  0  0  0  0  0  0  0  0  0  0  0
   10.0026  -15.8965   22.3329 C   0  0  0  0  0  0  0  0  0  0  0  0
   10.7055  -15.5123   21.0615 C   0  0  2  0  0  0  0  0  0  0  0  0
   10.0161  -15.9233   19.8770 N   0  0  0  0  0  0  0  0  0  0  0  0
   12.1197  -15.9948   21.0926 C   0  0  0  0  0  0  0  0  0  0  0  0
   12.4215  -17.1575   20.7151 O   0  0  0  0  0  0  0  0  0  0  0  0
   13.1575  -15.1509   21.5493 N   0  0  0  0  0  0  0  0  0  0  0  0
   14.5404  -15.5557   21.7018 C   0  0  1  0  0  0  0  0  0  0  0  0
   15.4954  -14.4956   21.2447 C   0  0  0  0  0  0  0  0  0  0  0  0
   15.4003  -14.3835   19.7711 C   0  0  0  0  0  0  0  0  0  0  0  0
   14.6917  -15.1953   18.9261 C   0  0  0  0  0  0  0  0  0  0  0  0
   14.8736  -14.7579   17.6700 N   0  0  0  0  0  0  0  0  0  0  0  0
   15.6847  -13.6899   17.7409 C   0  0  0  0  0  0  0  0  0  0  0  0
   16.0094  -13.4576   19.0241 N   0  0  0  0  0  0  0  0  0  0  0  0
   14.8406  -16.0381   23.0597 C   0  0  0  0  0  0  0  0  0  0  0  0
   16.1063  -16.5282   23.3328 O   0  0  0  0  0  0  0  0  0  0  0  0
   13.9973  -16.0274   23.9908 O   0  0  0  0  0  0  0  0  0  0  0  0
  1  2  1  0
  2  4  1  0
  2  3  2  0
  4  5  1  0
  6  5  1  0
  6  8  1  0
  6  7  1  1
  8  9  2  0
 10 11  1  0
 12 11  1  1
 12 14  1  0
 13  8  1  0
 13 12  1  0
 14 15  2  0
 16 17  1  0
 16 14  1  0
 17 24  1  0
 17 18  1  1
 19 18  1  0
 20 19  2  0
 21 22  1  0
 21 20  1  0
 22 23  2  0
 23 19  1  0
 24 26  2  0
 24 25  1  0
M  END
$$$$
