QSH.pdb
     RDKit          3D

 26 26  0  0  1  0  0  0  0  0999 V2000
    8.3130  -16.6858   15.3650 N   0  0  0  0  0  0  0  0  0  0  0  0
    8.0057  -15.3982   14.8811 C   0  0  0  0  0  0  0  0  0  0  0  0
    7.8584  -15.2025   13.6529 O   0  0  0  0  0  0  0  0  0  0  0  0
    7.8533  -14.2580   15.8358 C   0  0  0  0  0  0  0  0  0  0  0  0
    8.0700  -14.7504   17.2258 C   0  0  0  0  0  0  0  0  0  0  0  0
    7.7538  -13.6838   18.2520 C   0  0  2  0  0  0  0  0  0  0  0  0
    8.2540  -12.4368   17.6387 N   0  0  0  0  0  0  0  0  0  0  0  0
    8.4380  -13.8347   19.5331 C   0  0  0  0  0  0  0  0  0  0  0  0
    9.6780  -13.5227   19.6463 O   0  0  0  0  0  0  0  0  0  0  0  0
    6.9912  -14.1280   23.4368 O   0  0  0  0  0  0  0  0  0  0  0  0
    7.8082  -15.1681   23.0301 C   0  0  0  0  0  0  0  0  0  0  0  0
    8.6361  -14.7791   21.8379 C   0  0  2  0  0  0  0  0  0  0  0  0
    7.8626  -14.3062   20.7309 N   0  0  0  0  0  0  0  0  0  0  0  0
    9.5452  -15.9027   21.4575 C   0  0  0  0  0  0  0  0  0  0  0  0
    9.2720  -16.6665   20.4944 O   0  0  0  0  0  0  0  0  0  0  0  0
   10.7407  -16.1347   22.1749 N   0  0  0  0  0  0  0  0  0  0  0  0
   11.6191  -17.2681   21.9661 C   0  0  1  0  0  0  0  0  0  0  0  0
   12.1087  -17.3534   20.5527 C   0  0  0  0  0  0  0  0  0  0  0  0
   12.8869  -16.1298   20.2521 C   0  0  0  0  0  0  0  0  0  0  0  0
   13.1005  -15.0630   21.0836 C   0  0  0  0  0  0  0  0  0  0  0  0
   13.8503  -14.1619   20.4293 N   0  0  0  0  0  0  0  0  0  0  0  0
   14.0950  -14.6677   19.2096 C   0  0  0  0  0  0  0  0  0  0  0  0
   13.5074  -15.8712   19.0969 N   0  0  0  0  0  0  0  0  0  0  0  0
   12.7153  -17.3205   22.9471 C   0  0  0  0  0  0  0  0  0  0  0  0
   12.8175  -16.3146   23.8928 O   0  0  0  0  0  0  0  0  0  0  0  0
   13.5703  -18.2407   22.9681 O   0  0  0  0  0  0  0  0  0  0  0  0
  1  2  1  0
  2  4  1  0
  2  3  2  0
  4  5  1  0
  6  5  1  0
  6  8  1  0
  6  7  1  6
  8  9  2  0
 10 11  1  0
 12 11  1  1
 12 14  1  0
 13  8  1  0
 13 12  1  0
 14 15  2  0
 16 17  1  0
 16 14  1  0
 17 24  1  0
 17 18  1  6
 19 18  1  0
 20 19  2  0
 21 22  1  0
 21 20  1  0
 22 23  2  0
 23 19  1  0
 24 26  2  0
 24 25  1  0
M  END
$$$$
