QSH.pdb
     RDKit          3D

 26 26  0  0  1  0  0  0  0  0999 V2000
    9.9842  -20.2698   14.5255 N   0  0  0  0  0  0  0  0  0  0  0  0
   11.2004  -19.7062   14.0899 C   0  0  0  0  0  0  0  0  0  0  0  0
   12.2555  -19.9021   14.7356 O   0  0  0  0  0  0  0  0  0  0  0  0
   11.2352  -18.8703   12.8511 C   0  0  0  0  0  0  0  0  0  0  0  0
   11.8587  -17.5535   13.1658 C   0  0  0  0  0  0  0  0  0  0  0  0
   10.9163  -16.6609   13.9442 C   0  0  2  0  0  0  0  0  0  0  0  0
   10.3721  -15.7398   12.9260 N   0  0  0  0  0  0  0  0  0  0  0  0
   11.5492  -15.8378   14.9708 C   0  0  0  0  0  0  0  0  0  0  0  0
   12.1747  -14.7646   14.6466 O   0  0  0  0  0  0  0  0  0  0  0  0
   10.0330  -14.8106   18.4979 O   0  0  0  0  0  0  0  0  0  0  0  0
   11.3502  -15.2102   18.6391 C   0  0  0  0  0  0  0  0  0  0  0  0
   12.0751  -15.1794   17.3231 C   0  0  2  0  0  0  0  0  0  0  0  0
   11.5511  -16.0956   16.3570 N   0  0  0  0  0  0  0  0  0  0  0  0
   13.5422  -15.3619   17.5425 C   0  0  0  0  0  0  0  0  0  0  0  0
   14.0779  -16.4986   17.4633 O   0  0  0  0  0  0  0  0  0  0  0  0
   14.3670  -14.2549   17.8453 N   0  0  0  0  0  0  0  0  0  0  0  0
   15.7902  -14.3358   18.1058 C   0  0  1  0  0  0  0  0  0  0  0  0
   16.4806  -13.0226   17.8967 C   0  0  0  0  0  0  0  0  0  0  0  0
   16.6848  -12.8273   16.4429 C   0  0  0  0  0  0  0  0  0  0  0  0
   16.3730  -13.7067   15.4406 C   0  0  0  0  0  0  0  0  0  0  0  0
   16.7217  -13.1516   14.2690 N   0  0  0  0  0  0  0  0  0  0  0  0
   17.2421  -11.9452   14.5468 C   0  0  0  0  0  0  0  0  0  0  0  0
   17.2217  -11.7428   15.8753 N   0  0  0  0  0  0  0  0  0  0  0  0
   16.0905  -14.9282   19.4195 C   0  0  0  0  0  0  0  0  0  0  0  0
   15.0428  -15.2482   20.2661 O   0  0  0  0  0  0  0  0  0  0  0  0
   17.2607  -15.1592   19.8136 O   0  0  0  0  0  0  0  0  0  0  0  0
  1  2  1  0
  2  4  1  0
  2  3  2  0
  4  5  1  0
  6  5  1  0
  6  8  1  0
  6  7  1  6
  8  9  2  0
 10 11  1  0
 12 11  1  1
 12 14  1  0
 13  8  1  0
 13 12  1  0
 14 15  2  0
 16 17  1  0
 16 14  1  0
 17 24  1  0
 17 18  1  1
 19 18  1  0
 20 19  2  0
 21 22  1  0
 21 20  1  0
 22 23  2  0
 23 19  1  0
 24 26  2  0
 24 25  1  0
M  END
$$$$
