QSH.pdb
     RDKit          3D

 26 26  0  0  1  0  0  0  0  0999 V2000
    8.8809  -12.1352   18.7530 N   0  0  0  0  0  0  0  0  0  0  0  0
    8.4516  -12.9173   17.6618 C   0  0  0  0  0  0  0  0  0  0  0  0
    8.6539  -12.5304   16.4879 O   0  0  0  0  0  0  0  0  0  0  0  0
    7.7515  -14.2158   17.9029 C   0  0  0  0  0  0  0  0  0  0  0  0
    7.6402  -14.4473   19.3711 C   0  0  0  0  0  0  0  0  0  0  0  0
    8.4614  -15.6396   19.8125 C   0  0  2  0  0  0  0  0  0  0  0  0
    8.0692  -16.7118   18.8756 N   0  0  0  0  0  0  0  0  0  0  0  0
    8.1757  -16.1237   21.1601 C   0  0  0  0  0  0  0  0  0  0  0  0
    7.5183  -15.3927   21.9856 O   0  0  0  0  0  0  0  0  0  0  0  0
    7.2936  -19.9499   22.3820 O   0  0  0  0  0  0  0  0  0  0  0  0
    8.2371  -19.3108   23.1668 C   0  0  0  0  0  0  0  0  0  0  0  0
    8.1715  -17.8194   22.9954 C   0  0  2  0  0  0  0  0  0  0  0  0
    8.5554  -17.3735   21.6911 N   0  0  0  0  0  0  0  0  0  0  0  0
    8.9495  -17.1449   24.0786 C   0  0  0  0  0  0  0  0  0  0  0  0
   10.1444  -16.7901   23.9006 O   0  0  0  0  0  0  0  0  0  0  0  0
    8.3573  -16.8878   25.3359 N   0  0  0  0  0  0  0  0  0  0  0  0
    9.0498  -16.3072   26.4686 C   0  0  1  0  0  0  0  0  0  0  0  0
    8.1678  -15.3957   27.2662 C   0  0  0  0  0  0  0  0  0  0  0  0
    7.6863  -14.3138   26.3769 C   0  0  0  0  0  0  0  0  0  0  0  0
    8.1241  -14.0307   25.1106 C   0  0  0  0  0  0  0  0  0  0  0  0
    7.4365  -12.9720   24.6536 N   0  0  0  0  0  0  0  0  0  0  0  0
    6.5861  -12.6076   25.6270 C   0  0  0  0  0  0  0  0  0  0  0  0
    6.7357  -13.4255   26.6829 N   0  0  0  0  0  0  0  0  0  0  0  0
    9.7153  -17.3208   27.3031 C   0  0  0  0  0  0  0  0  0  0  0  0
   10.4692  -16.9066   28.3879 O   0  0  0  0  0  0  0  0  0  0  0  0
    9.6326  -18.5537   27.0770 O   0  0  0  0  0  0  0  0  0  0  0  0
  1  2  1  0
  2  4  1  0
  2  3  2  0
  4  5  1  0
  6  5  1  0
  6  8  1  0
  6  7  1  6
  8  9  2  0
 10 11  1  0
 12 11  1  6
 12 14  1  0
 13  8  1  0
 13 12  1  0
 14 15  2  0
 16 17  1  0
 16 14  1  0
 17 24  1  0
 17 18  1  1
 19 18  1  0
 20 19  2  0
 21 22  1  0
 21 20  1  0
 22 23  2  0
 23 19  1  0
 24 26  2  0
 24 25  1  0
M  END
$$$$
