WFV.pdb
     RDKit          3D

 33 35  0  0  1  0  0  0  0  0999 V2000
   26.4832  -23.1520  -13.8967 N   0  0  0  0  0  0  0  0  0  0  0  0
   26.1061  -22.2422  -12.8332 C   0  0  1  0  0  0  0  0  0  0  0  0
   26.9230  -20.9702  -12.8699 C   0  0  0  0  0  0  0  0  0  0  0  0
   27.9247  -20.8740  -11.7950 C   0  0  0  0  0  0  0  0  0  0  0  0
   29.2964  -20.9425  -11.9185 C   0  0  0  0  0  0  0  0  0  0  0  0
   29.7988  -20.8071  -10.6817 N   0  0  0  0  0  0  0  0  0  0  0  0
   28.8099  -20.6566   -9.7852 C   0  0  0  0  0  0  0  0  0  0  0  0
   28.8359  -20.4839   -8.4035 C   0  0  0  0  0  0  0  0  0  0  0  0
   27.6376  -20.3531   -7.7347 C   0  0  0  0  0  0  0  0  0  0  0  0
   26.4423  -20.3927   -8.4199 C   0  0  0  0  0  0  0  0  0  0  0  0
   26.3974  -20.5624   -9.7835 C   0  0  0  0  0  0  0  0  0  0  0  0
   27.5958  -20.6939  -10.4577 C   0  0  0  0  0  0  0  0  0  0  0  0
   24.6861  -21.8275  -13.0046 C   0  0  0  0  0  0  0  0  0  0  0  0
   24.0404  -22.1944  -14.0144 O   0  0  0  0  0  0  0  0  0  0  0  0
   24.0560  -21.0231  -12.0402 N   0  0  0  0  0  0  0  0  0  0  0  0
   22.5899  -20.8616  -12.1212 C   0  0  1  0  0  0  0  0  0  0  0  0
   22.1735  -20.3334  -10.7966 C   0  0  0  0  0  0  0  0  0  0  0  0
   20.7568  -20.0144  -10.6187 C   0  0  0  0  0  0  0  0  0  0  0  0
   19.8642  -20.9701  -10.1798 C   0  0  0  0  0  0  0  0  0  0  0  0
   18.5317  -20.6994   -9.9799 C   0  0  0  0  0  0  0  0  0  0  0  0
   18.0568  -19.4356  -10.2218 C   0  0  0  0  0  0  0  0  0  0  0  0
   18.9170  -18.4441  -10.6639 C   0  0  0  0  0  0  0  0  0  0  0  0
   20.2617  -18.7578  -10.8547 C   0  0  0  0  0  0  0  0  0  0  0  0
   22.3179  -20.0871  -13.3101 C   0  0  0  0  0  0  0  0  0  0  0  0
   23.1048  -19.1118  -13.5855 O   0  0  0  0  0  0  0  0  0  0  0  0
   20.3984  -21.1716  -16.8234 C   0  0  0  0  0  0  0  0  0  0  0  0
   21.1681  -19.8782  -16.6823 C   0  0  2  0  0  0  0  0  0  0  0  0
   22.6368  -20.1800  -16.8871 C   0  0  0  0  0  0  0  0  0  0  0  0
   21.0010  -19.2808  -15.2974 C   0  0  2  0  0  0  0  0  0  0  0  0
   21.2744  -20.2494  -14.2602 N   0  0  0  0  0  0  0  0  0  0  0  0
   19.5940  -18.8461  -15.1876 C   0  0  0  0  0  0  0  0  0  0  0  0
   19.0734  -17.7245  -15.8204 O   0  0  0  0  0  0  0  0  0  0  0  0
   18.7563  -19.4956  -14.4849 O   0  0  0  0  0  0  0  0  0  0  0  0
  2  3  1  0
  2  1  1  6
  4  3  1  0
  5  4  2  0
  6  5  1  0
  7 12  2  0
  7  6  1  0
  8  7  1  0
  9  8  2  0
  9 10  1  0
 10 11  2  0
 11 12  1  0
 12  4  1  0
 13  2  1  0
 13 14  2  0
 15 13  1  0
 16 15  1  0
 16 17  1  1
 18 19  2  0
 18 17  1  0
 20 19  1  0
 21 20  2  0
 22 21  1  0
 22 23  2  0
 23 18  1  0
 24 16  1  0
 25 24  2  0
 27 28  1  1
 27 26  1  0
 29 27  1  0
 29 30  1  1
 30 24  1  0
 31 32  1  0
 31 29  1  0
 33 31  2  0
M  END
$$$$
