WFV.pdb
     RDKit          3D

 33 35  0  0  1  0  0  0  0  0999 V2000
   26.2573  -21.9971  -12.6800 N   0  0  0  0  0  0  0  0  0  0  0  0
   25.9558  -20.8676  -11.8230 C   0  0  1  0  0  0  0  0  0  0  0  0
   24.4693  -20.5986  -11.7550 C   0  0  0  0  0  0  0  0  0  0  0  0
   23.9555  -19.8027  -12.8821 C   0  0  0  0  0  0  0  0  0  0  0  0
   24.6870  -19.1825  -13.8731 C   0  0  0  0  0  0  0  0  0  0  0  0
   23.8017  -18.5777  -14.6798 N   0  0  0  0  0  0  0  0  0  0  0  0
   22.5481  -18.7869  -14.2450 C   0  0  0  0  0  0  0  0  0  0  0  0
   21.3170  -18.3680  -14.7435 C   0  0  0  0  0  0  0  0  0  0  0  0
   20.1734  -18.7451  -14.0724 C   0  0  0  0  0  0  0  0  0  0  0  0
   20.2491  -19.5191  -12.9344 C   0  0  0  0  0  0  0  0  0  0  0  0
   21.4554  -19.9418  -12.4280 C   0  0  0  0  0  0  0  0  0  0  0  0
   22.6039  -19.5662  -13.0973 C   0  0  0  0  0  0  0  0  0  0  0  0
   26.3875  -21.1636  -10.4288 C   0  0  0  0  0  0  0  0  0  0  0  0
   26.1912  -22.2995   -9.9365 O   0  0  0  0  0  0  0  0  0  0  0  0
   27.0172  -20.1766   -9.6519 N   0  0  0  0  0  0  0  0  0  0  0  0
   27.5002  -20.5543   -8.3079 C   0  0  1  0  0  0  0  0  0  0  0  0
   28.7032  -19.7165   -8.0669 C   0  0  0  0  0  0  0  0  0  0  0  0
   29.1780  -19.6087   -6.6873 C   0  0  0  0  0  0  0  0  0  0  0  0
   29.8302  -20.6601   -6.0774 C   0  0  0  0  0  0  0  0  0  0  0  0
   30.3095  -20.5855   -4.7915 C   0  0  0  0  0  0  0  0  0  0  0  0
   30.1403  -19.4282   -4.0751 C   0  0  0  0  0  0  0  0  0  0  0  0
   29.4912  -18.3467   -4.6472 C   0  0  0  0  0  0  0  0  0  0  0  0
   29.0194  -18.4612   -5.9539 C   0  0  0  0  0  0  0  0  0  0  0  0
   26.3721  -20.4487   -7.4114 C   0  0  0  0  0  0  0  0  0  0  0  0
   25.4725  -19.5736   -7.6775 O   0  0  0  0  0  0  0  0  0  0  0  0
   23.4359  -22.4821   -6.6552 C   0  0  0  0  0  0  0  0  0  0  0  0
   24.0296  -22.1414   -5.3074 C   0  0  2  0  0  0  0  0  0  0  0  0
   22.8949  -21.7961   -4.3674 C   0  0  0  0  0  0  0  0  0  0  0  0
   24.9493  -20.9375   -5.3940 C   0  0  2  0  0  0  0  0  0  0  0  0
   26.0939  -21.1980   -6.2371 N   0  0  0  0  0  0  0  0  0  0  0  0
   25.4189  -20.6602   -4.0216 C   0  0  0  0  0  0  0  0  0  0  0  0
   24.6312  -20.0921   -3.0285 O   0  0  0  0  0  0  0  0  0  0  0  0
   26.6078  -20.9350   -3.6635 O   0  0  0  0  0  0  0  0  0  0  0  0
  2  3  1  0
  2  1  1  6
  4  3  1  0
  5  4  2  0
  6  5  1  0
  7 12  2  0
  7  6  1  0
  8  7  1  0
  9  8  2  0
  9 10  1  0
 10 11  2  0
 11 12  1  0
 12  4  1  0
 13  2  1  0
 13 14  2  0
 15 13  1  0
 16 15  1  0
 16 17  1  1
 18 19  2  0
 18 17  1  0
 20 19  1  0
 21 20  2  0
 22 21  1  0
 22 23  2  0
 23 18  1  0
 24 16  1  0
 25 24  2  0
 27 28  1  1
 27 26  1  0
 29 27  1  0
 29 30  1  6
 30 24  1  0
 31 32  1  0
 31 29  1  0
 33 31  2  0
M  END
$$$$
