WFV.pdb
     RDKit          3D

 33 35  0  0  1  0  0  0  0  0999 V2000
   16.2099  -20.2948    1.6795 N   0  0  0  0  0  0  0  0  0  0  0  0
   15.6813  -19.4072    2.6962 C   0  0  1  0  0  0  0  0  0  0  0  0
   14.9897  -20.1727    3.8018 C   0  0  0  0  0  0  0  0  0  0  0  0
   13.5593  -19.8536    3.9432 C   0  0  0  0  0  0  0  0  0  0  0  0
   12.5830  -19.9306    2.9723 C   0  0  0  0  0  0  0  0  0  0  0  0
   11.4360  -19.5454    3.5523 N   0  0  0  0  0  0  0  0  0  0  0  0
   11.6425  -19.2298    4.8415 C   0  0  0  0  0  0  0  0  0  0  0  0
   10.7715  -18.7858    5.8333 C   0  0  0  0  0  0  0  0  0  0  0  0
   11.2788  -18.5384    7.0910 C   0  0  0  0  0  0  0  0  0  0  0  0
   12.6177  -18.7269    7.3585 C   0  0  0  0  0  0  0  0  0  0  0  0
   13.4921  -19.1646    6.3920 C   0  0  0  0  0  0  0  0  0  0  0  0
   12.9881  -19.4137    5.1303 C   0  0  0  0  0  0  0  0  0  0  0  0
   16.7961  -18.6615    3.3434 C   0  0  0  0  0  0  0  0  0  0  0  0
   17.9419  -19.1665    3.4006 O   0  0  0  0  0  0  0  0  0  0  0  0
   16.5774  -17.3881    3.8954 N   0  0  0  0  0  0  0  0  0  0  0  0
   17.7332  -16.6756    4.4771 C   0  0  1  0  0  0  0  0  0  0  0  0
   17.7112  -15.3192    3.8715 C   0  0  0  0  0  0  0  0  0  0  0  0
   18.6171  -14.3192    4.4369 C   0  0  0  0  0  0  0  0  0  0  0  0
   18.6326  -13.0253    3.9591 C   0  0  0  0  0  0  0  0  0  0  0  0
   19.4537  -12.0551    4.4817 C   0  0  0  0  0  0  0  0  0  0  0  0
   20.2952  -12.3704    5.5179 C   0  0  0  0  0  0  0  0  0  0  0  0
   20.3135  -13.6573    6.0297 C   0  0  0  0  0  0  0  0  0  0  0  0
   19.4658  -14.6134    5.4728 C   0  0  0  0  0  0  0  0  0  0  0  0
   17.6320  -16.8126    5.9119 C   0  0  0  0  0  0  0  0  0  0  0  0
   16.4905  -16.5991    6.4573 O   0  0  0  0  0  0  0  0  0  0  0  0
   19.8012  -19.3518    8.2564 C   0  0  0  0  0  0  0  0  0  0  0  0
   18.5157  -18.7201    8.7399 C   0  0  2  0  0  0  0  0  0  0  0  0
   17.3589  -19.5067    8.1626 C   0  0  0  0  0  0  0  0  0  0  0  0
   18.3896  -17.2844    8.2650 C   0  0  2  0  0  0  0  0  0  0  0  0
   18.6415  -17.1656    6.8468 N   0  0  0  0  0  0  0  0  0  0  0  0
   19.4045  -16.5020    8.9987 C   0  0  0  0  0  0  0  0  0  0  0  0
   19.2356  -16.0254   10.2924 O   0  0  0  0  0  0  0  0  0  0  0  0
   20.5238  -16.2127    8.4687 O   0  0  0  0  0  0  0  0  0  0  0  0
  2  3  1  0
  2  1  1  6
  4  3  1  0
  5  4  2  0
  6  5  1  0
  7 12  2  0
  7  6  1  0
  8  7  1  0
  9  8  2  0
  9 10  1  0
 10 11  2  0
 11 12  1  0
 12  4  1  0
 13  2  1  0
 13 14  2  0
 15 13  1  0
 16 15  1  0
 16 17  1  1
 18 19  2  0
 18 17  1  0
 20 19  1  0
 21 20  2  0
 22 21  1  0
 22 23  2  0
 23 18  1  0
 24 16  1  0
 25 24  2  0
 27 28  1  6
 27 26  1  0
 29 27  1  0
 29 30  1  6
 30 24  1  0
 31 32  1  0
 31 29  1  0
 33 31  2  0
M  END
$$$$
