WFV.pdb
     RDKit          3D

 33 35  0  0  1  0  0  0  0  0999 V2000
   27.9564  -21.6636  -16.3617 N   0  0  0  0  0  0  0  0  0  0  0  0
   27.5188  -20.5959  -15.4844 C   0  0  1  0  0  0  0  0  0  0  0  0
   26.4205  -19.7693  -16.1145 C   0  0  0  0  0  0  0  0  0  0  0  0
   26.8823  -18.9004  -17.2098 C   0  0  0  0  0  0  0  0  0  0  0  0
   26.8096  -19.1484  -18.5644 C   0  0  0  0  0  0  0  0  0  0  0  0
   27.3498  -18.0840  -19.1772 N   0  0  0  0  0  0  0  0  0  0  0  0
   27.7592  -17.1777  -18.2743 C   0  0  0  0  0  0  0  0  0  0  0  0
   28.3691  -15.9349  -18.4262 C   0  0  0  0  0  0  0  0  0  0  0  0
   28.6800  -15.2126  -17.2939 C   0  0  0  0  0  0  0  0  0  0  0  0
   28.3928  -15.7108  -16.0413 C   0  0  0  0  0  0  0  0  0  0  0  0
   27.7912  -16.9354  -15.8723 C   0  0  0  0  0  0  0  0  0  0  0  0
   27.4779  -17.6627  -17.0042 C   0  0  0  0  0  0  0  0  0  0  0  0
   26.9408  -21.1723  -14.2388 C   0  0  0  0  0  0  0  0  0  0  0  0
   26.3187  -22.2598  -14.2778 O   0  0  0  0  0  0  0  0  0  0  0  0
   27.0853  -20.5062  -13.0101 N   0  0  0  0  0  0  0  0  0  0  0  0
   26.3924  -21.0654  -11.8314 C   0  0  1  0  0  0  0  0  0  0  0  0
   27.2210  -20.6775  -10.6610 C   0  0  0  0  0  0  0  0  0  0  0  0
   26.5683  -20.6717   -9.3516 C   0  0  0  0  0  0  0  0  0  0  0  0
   27.2420  -20.2480   -8.2250 C   0  0  0  0  0  0  0  0  0  0  0  0
   26.6531  -20.2078   -6.9839 C   0  0  0  0  0  0  0  0  0  0  0  0
   25.3465  -20.6010   -6.8448 C   0  0  0  0  0  0  0  0  0  0  0  0
   24.6309  -21.0341   -7.9487 C   0  0  0  0  0  0  0  0  0  0  0  0
   25.2634  -21.0604   -9.1906 C   0  0  0  0  0  0  0  0  0  0  0  0
   25.0183  -20.6246  -11.9040 C   0  0  0  0  0  0  0  0  0  0  0  0
   24.7959  -19.3669  -12.0254 O   0  0  0  0  0  0  0  0  0  0  0  0
   22.5909  -21.2265  -14.5973 C   0  0  0  0  0  0  0  0  0  0  0  0
   21.8519  -21.5148  -13.3104 C   0  0  2  0  0  0  0  0  0  0  0  0
   20.4524  -20.9528  -13.4356 C   0  0  0  0  0  0  0  0  0  0  0  0
   22.5211  -20.8462  -12.1239 C   0  0  2  0  0  0  0  0  0  0  0  0
   23.8299  -21.4017  -11.8645 N   0  0  0  0  0  0  0  0  0  0  0  0
   21.6561  -21.0916  -10.9525 C   0  0  0  0  0  0  0  0  0  0  0  0
   20.6541  -20.2278  -10.5293 O   0  0  0  0  0  0  0  0  0  0  0  0
   21.7863  -22.1403  -10.2451 O   0  0  0  0  0  0  0  0  0  0  0  0
  2  3  1  0
  2  1  1  6
  4  3  1  0
  5  4  2  0
  6  5  1  0
  7 12  2  0
  7  6  1  0
  8  7  1  0
  9  8  2  0
  9 10  1  0
 10 11  2  0
 11 12  1  0
 12  4  1  0
 13  2  1  0
 13 14  2  0
 15 13  1  0
 16 15  1  0
 16 17  1  1
 18 19  2  0
 18 17  1  0
 20 19  1  0
 21 20  2  0
 22 21  1  0
 22 23  2  0
 23 18  1  0
 24 16  1  0
 25 24  2  0
 27 28  1  6
 27 26  1  0
 29 27  1  0
 29 30  1  1
 30 24  1  0
 31 32  1  0
 31 29  1  0
 33 31  2  0
M  END
$$$$
