WFV.pdb
     RDKit          3D

 33 35  0  0  1  0  0  0  0  0999 V2000
   26.2580  -22.0490  -13.0945 N   0  0  0  0  0  0  0  0  0  0  0  0
   26.3285  -20.8001  -12.3621 C   0  0  1  0  0  0  0  0  0  0  0  0
   25.1529  -19.9018  -12.6745 C   0  0  0  0  0  0  0  0  0  0  0  0
   25.1301  -19.4110  -14.0625 C   0  0  0  0  0  0  0  0  0  0  0  0
   24.0971  -19.5113  -14.9706 C   0  0  0  0  0  0  0  0  0  0  0  0
   24.5239  -18.9278  -16.1009 N   0  0  0  0  0  0  0  0  0  0  0  0
   25.7757  -18.4648  -15.9488 C   0  0  0  0  0  0  0  0  0  0  0  0
   26.6250  -17.7965  -16.8271 C   0  0  0  0  0  0  0  0  0  0  0  0
   27.8794  -17.4368  -16.3827 C   0  0  0  0  0  0  0  0  0  0  0  0
   28.2817  -17.7330  -15.0981 C   0  0  0  0  0  0  0  0  0  0  0  0
   27.4569  -18.3921  -14.2175 C   0  0  0  0  0  0  0  0  0  0  0  0
   26.1990  -18.7543  -14.6585 C   0  0  0  0  0  0  0  0  0  0  0  0
   26.2662  -21.0700  -10.8988 C   0  0  0  0  0  0  0  0  0  0  0  0
   25.7629  -22.1373  -10.4761 O   0  0  0  0  0  0  0  0  0  0  0  0
   26.7689  -20.1347   -9.9786 N   0  0  0  0  0  0  0  0  0  0  0  0
   26.7487  -20.4911   -8.5452 C   0  0  1  0  0  0  0  0  0  0  0  0
   27.7530  -19.6065   -7.9004 C   0  0  0  0  0  0  0  0  0  0  0  0
   27.8518  -19.6581   -6.4417 C   0  0  0  0  0  0  0  0  0  0  0  0
   27.2313  -20.6592   -5.7237 C   0  0  0  0  0  0  0  0  0  0  0  0
   27.3220  -20.7514   -4.3555 C   0  0  0  0  0  0  0  0  0  0  0  0
   28.0537  -19.8199   -3.6641 C   0  0  0  0  0  0  0  0  0  0  0  0
   28.6939  -18.7968   -4.3436 C   0  0  0  0  0  0  0  0  0  0  0  0
   28.5781  -18.7373   -5.7314 C   0  0  0  0  0  0  0  0  0  0  0  0
   25.3704  -20.4286   -8.1164 C   0  0  0  0  0  0  0  0  0  0  0  0
   24.6648  -19.4297   -8.5043 O   0  0  0  0  0  0  0  0  0  0  0  0
   22.3270  -21.9318   -9.0892 C   0  0  0  0  0  0  0  0  0  0  0  0
   22.3377  -22.1150   -7.5886 C   0  0  2  0  0  0  0  0  0  0  0  0
   20.9377  -21.8598   -7.0737 C   0  0  0  0  0  0  0  0  0  0  0  0
   23.2722  -21.1271   -6.9152 C   0  0  2  0  0  0  0  0  0  0  0  0
   24.6477  -21.3418   -7.3031 N   0  0  0  0  0  0  0  0  0  0  0  0
   23.1455  -21.3445   -5.4601 C   0  0  0  0  0  0  0  0  0  0  0  0
   22.1943  -20.7251   -4.6596 O   0  0  0  0  0  0  0  0  0  0  0  0
   23.9257  -22.1356   -4.8414 O   0  0  0  0  0  0  0  0  0  0  0  0
  2  3  1  0
  2  1  1  6
  4  3  1  0
  5  4  2  0
  6  5  1  0
  7 12  2  0
  7  6  1  0
  8  7  1  0
  9  8  2  0
  9 10  1  0
 10 11  2  0
 11 12  1  0
 12  4  1  0
 13  2  1  0
 13 14  2  0
 15 13  1  0
 16 15  1  0
 16 17  1  1
 18 19  2  0
 18 17  1  0
 20 19  1  0
 21 20  2  0
 22 21  1  0
 22 23  2  0
 23 18  1  0
 24 16  1  0
 25 24  2  0
 27 28  1  1
 27 26  1  0
 29 27  1  0
 29 30  1  6
 30 24  1  0
 31 32  1  0
 31 29  1  0
 33 31  2  0
M  END
$$$$
