WFV.pdb
     RDKit          3D

 33 35  0  0  1  0  0  0  0  0999 V2000
   26.1452  -21.7018  -12.8935 N   0  0  0  0  0  0  0  0  0  0  0  0
   25.5971  -20.7926  -11.9065 C   0  0  1  0  0  0  0  0  0  0  0  0
   24.0994  -20.9510  -11.7714 C   0  0  0  0  0  0  0  0  0  0  0  0
   23.3333  -20.3299  -12.8647 C   0  0  0  0  0  0  0  0  0  0  0  0
   23.6673  -20.2838  -14.2019 C   0  0  0  0  0  0  0  0  0  0  0  0
   22.6785  -19.6201  -14.8201 N   0  0  0  0  0  0  0  0  0  0  0  0
   21.7379  -19.2461  -13.9371 C   0  0  0  0  0  0  0  0  0  0  0  0
   20.5443  -18.5476  -14.1014 C   0  0  0  0  0  0  0  0  0  0  0  0
   19.7660  -18.3055  -12.9896 C   0  0  0  0  0  0  0  0  0  0  0  0
   20.1621  -18.7456  -11.7449 C   0  0  0  0  0  0  0  0  0  0  0  0
   21.3369  -19.4365  -11.5639 C   0  0  0  0  0  0  0  0  0  0  0  0
   22.1199  -19.6813  -12.6752 C   0  0  0  0  0  0  0  0  0  0  0  0
   26.1687  -21.0998  -10.5661 C   0  0  0  0  0  0  0  0  0  0  0  0
   26.1777  -22.2787  -10.1403 O   0  0  0  0  0  0  0  0  0  0  0  0
   26.7025  -20.0754   -9.7660 N   0  0  0  0  0  0  0  0  0  0  0  0
   27.2942  -20.4477   -8.4648 C   0  0  1  0  0  0  0  0  0  0  0  0
   28.4859  -19.5752   -8.3047 C   0  0  0  0  0  0  0  0  0  0  0  0
   29.0707  -19.4800   -6.9671 C   0  0  0  0  0  0  0  0  0  0  0  0
   28.8729  -18.3616   -6.1843 C   0  0  0  0  0  0  0  0  0  0  0  0
   29.3879  -18.2481   -4.9152 C   0  0  0  0  0  0  0  0  0  0  0  0
   30.1288  -19.2779   -4.3938 C   0  0  0  0  0  0  0  0  0  0  0  0
   30.3532  -20.4204   -5.1439 C   0  0  0  0  0  0  0  0  0  0  0  0
   29.8140  -20.4977   -6.4270 C   0  0  0  0  0  0  0  0  0  0  0  0
   26.2325  -20.3833   -7.4870 C   0  0  0  0  0  0  0  0  0  0  0  0
   25.2454  -19.5982   -7.7222 O   0  0  0  0  0  0  0  0  0  0  0  0
   24.7034  -23.3151   -5.0247 C   0  0  0  0  0  0  0  0  0  0  0  0
   24.0306  -21.9944   -5.3220 C   0  0  2  0  0  0  0  0  0  0  0  0
   23.4124  -22.0813   -6.7006 C   0  0  0  0  0  0  0  0  0  0  0  0
   25.0286  -20.8514   -5.3271 C   0  0  2  0  0  0  0  0  0  0  0  0
   26.1075  -21.0870   -6.2594 N   0  0  0  0  0  0  0  0  0  0  0  0
   25.5856  -20.7657   -3.9621 C   0  0  0  0  0  0  0  0  0  0  0  0
   24.8522  -20.3913   -2.8435 O   0  0  0  0  0  0  0  0  0  0  0  0
   26.8058  -21.0383   -3.7297 O   0  0  0  0  0  0  0  0  0  0  0  0
  2  3  1  0
  2  1  1  6
  4  3  1  0
  5  4  2  0
  6  5  1  0
  7 12  2  0
  7  6  1  0
  8  7  1  0
  9  8  2  0
  9 10  1  0
 10 11  2  0
 11 12  1  0
 12  4  1  0
 13  2  1  0
 13 14  2  0
 15 13  1  0
 16 15  1  0
 16 17  1  1
 18 19  2  0
 18 17  1  0
 20 19  1  0
 21 20  2  0
 22 21  1  0
 22 23  2  0
 23 18  1  0
 24 16  1  0
 25 24  2  0
 27 28  1  6
 27 26  1  0
 29 27  1  0
 29 30  1  6
 30 24  1  0
 31 32  1  0
 31 29  1  0
 33 31  2  0
M  END
$$$$
