WFV.pdb
     RDKit          3D

 33 35  0  0  1  0  0  0  0  0999 V2000
   27.7128  -21.4912  -10.8044 N   0  0  0  0  0  0  0  0  0  0  0  0
   26.6773  -21.0320   -9.9000 C   0  0  1  0  0  0  0  0  0  0  0  0
   27.1868  -19.9569   -8.9665 C   0  0  0  0  0  0  0  0  0  0  0  0
   28.3301  -20.3782   -8.1400 C   0  0  0  0  0  0  0  0  0  0  0  0
   29.4313  -21.1056   -8.5401 C   0  0  0  0  0  0  0  0  0  0  0  0
   30.2077  -21.2513   -7.4555 N   0  0  0  0  0  0  0  0  0  0  0  0
   29.6489  -20.6509   -6.3917 C   0  0  0  0  0  0  0  0  0  0  0  0
   30.0731  -20.5339   -5.0704 C   0  0  0  0  0  0  0  0  0  0  0  0
   29.2747  -19.8451   -4.1823 C   0  0  0  0  0  0  0  0  0  0  0  0
   28.0844  -19.2859   -4.5950 C   0  0  0  0  0  0  0  0  0  0  0  0
   27.6500  -19.3914   -5.8951 C   0  0  0  0  0  0  0  0  0  0  0  0
   28.4468  -20.0807   -6.7884 C   0  0  0  0  0  0  0  0  0  0  0  0
   25.5674  -20.4139  -10.6770 C   0  0  0  0  0  0  0  0  0  0  0  0
   25.5631  -19.1798  -10.8964 O   0  0  0  0  0  0  0  0  0  0  0  0
   24.5158  -21.2040  -11.1713 N   0  0  0  0  0  0  0  0  0  0  0  0
   23.4669  -20.5412  -11.9729 C   0  0  1  0  0  0  0  0  0  0  0  0
   24.1259  -20.1489  -13.2452 C   0  0  0  0  0  0  0  0  0  0  0  0
   23.2623  -19.6814  -14.3297 C   0  0  0  0  0  0  0  0  0  0  0  0
   22.8506  -20.5390  -15.3285 C   0  0  0  0  0  0  0  0  0  0  0  0
   22.0214  -20.1397  -16.3492 C   0  0  0  0  0  0  0  0  0  0  0  0
   21.5784  -18.8423  -16.3894 C   0  0  0  0  0  0  0  0  0  0  0  0
   21.9663  -17.9459  -15.4073 C   0  0  0  0  0  0  0  0  0  0  0  0
   22.8082  -18.3891  -14.3886 C   0  0  0  0  0  0  0  0  0  0  0  0
   22.3356  -21.4392  -12.0086 C   0  0  0  0  0  0  0  0  0  0  0  0
   22.5662  -22.6906  -12.1722 O   0  0  0  0  0  0  0  0  0  0  0  0
   19.2293  -21.7207   -9.5666 C   0  0  0  0  0  0  0  0  0  0  0  0
   18.7686  -21.8235  -11.0028 C   0  0  2  0  0  0  0  0  0  0  0  0
   17.7626  -22.9503  -11.0945 C   0  0  0  0  0  0  0  0  0  0  0  0
   19.9219  -22.1478  -11.9341 C   0  0  2  0  0  0  0  0  0  0  0  0
   20.9535  -21.1370  -11.8808 N   0  0  0  0  0  0  0  0  0  0  0  0
   19.3659  -22.1927  -13.3014 C   0  0  0  0  0  0  0  0  0  0  0  0
   19.1740  -23.3618  -14.0265 O   0  0  0  0  0  0  0  0  0  0  0  0
   19.0222  -21.1295  -13.9086 O   0  0  0  0  0  0  0  0  0  0  0  0
  2  3  1  0
  2  1  1  6
  4  3  1  0
  5  4  2  0
  6  5  1  0
  7 12  2  0
  7  6  1  0
  8  7  1  0
  9  8  2  0
  9 10  1  0
 10 11  2  0
 11 12  1  0
 12  4  1  0
 13  2  1  0
 13 14  2  0
 15 13  1  0
 16 15  1  0
 16 17  1  6
 18 19  2  0
 18 17  1  0
 20 19  1  0
 21 20  2  0
 22 21  1  0
 22 23  2  0
 23 18  1  0
 24 16  1  0
 25 24  2  0
 27 28  1  1
 27 26  1  0
 29 27  1  0
 29 30  1  6
 30 24  1  0
 31 32  1  0
 31 29  1  0
 33 31  2  0
M  END
$$$$
