WFV.pdb
     RDKit          3D

 33 35  0  0  1  0  0  0  0  0999 V2000
   27.5977  -21.8133  -18.0625 N   0  0  0  0  0  0  0  0  0  0  0  0
   27.0296  -20.9574  -17.0399 C   0  0  1  0  0  0  0  0  0  0  0  0
   25.5205  -21.0480  -17.0102 C   0  0  0  0  0  0  0  0  0  0  0  0
   24.8423  -19.7511  -17.1714 C   0  0  0  0  0  0  0  0  0  0  0  0
   25.1668  -18.7385  -18.0497 C   0  0  0  0  0  0  0  0  0  0  0  0
   24.2789  -17.7541  -17.8428 N   0  0  0  0  0  0  0  0  0  0  0  0
   23.4108  -18.0975  -16.8770 C   0  0  0  0  0  0  0  0  0  0  0  0
   22.3297  -17.4160  -16.3237 C   0  0  0  0  0  0  0  0  0  0  0  0
   21.6052  -18.0323  -15.3257 C   0  0  0  0  0  0  0  0  0  0  0  0
   21.9450  -19.2941  -14.8873 C   0  0  0  0  0  0  0  0  0  0  0  0
   23.0089  -19.9816  -15.4217 C   0  0  0  0  0  0  0  0  0  0  0  0
   23.7376  -19.3679  -16.4219 C   0  0  0  0  0  0  0  0  0  0  0  0
   27.4976  -21.3983  -15.6966 C   0  0  0  0  0  0  0  0  0  0  0  0
   27.3765  -22.5966  -15.3496 O   0  0  0  0  0  0  0  0  0  0  0  0
   28.0780  -20.4795  -14.8059 N   0  0  0  0  0  0  0  0  0  0  0  0
   28.4336  -20.9539  -13.4530 C   0  0  1  0  0  0  0  0  0  0  0  0
   29.8349  -20.5131  -13.2317 C   0  0  0  0  0  0  0  0  0  0  0  0
   30.4544  -20.8685  -11.9549 C   0  0  0  0  0  0  0  0  0  0  0  0
   30.9753  -22.1284  -11.7455 C   0  0  0  0  0  0  0  0  0  0  0  0
   31.5843  -22.4892  -10.5675 C   0  0  0  0  0  0  0  0  0  0  0  0
   31.6854  -21.5722   -9.5525 C   0  0  0  0  0  0  0  0  0  0  0  0
   31.1764  -20.2948   -9.7183 C   0  0  0  0  0  0  0  0  0  0  0  0
   30.5659  -19.9671  -10.9277 C   0  0  0  0  0  0  0  0  0  0  0  0
   27.3961  -20.4918  -12.5599 C   0  0  0  0  0  0  0  0  0  0  0  0
   27.0493  -19.2584  -12.6284 O   0  0  0  0  0  0  0  0  0  0  0  0
   24.1667  -22.4594  -10.8420 C   0  0  0  0  0  0  0  0  0  0  0  0
   24.3580  -20.9602  -10.8080 C   0  0  2  0  0  0  0  0  0  0  0  0
   23.9158  -20.3992  -12.1421 C   0  0  0  0  0  0  0  0  0  0  0  0
   25.8156  -20.5908  -10.6040 C   0  0  2  0  0  0  0  0  0  0  0  0
   26.6701  -21.2237  -11.5827 N   0  0  0  0  0  0  0  0  0  0  0  0
   26.1923  -21.0691   -9.2588 C   0  0  0  0  0  0  0  0  0  0  0  0
   27.0981  -22.0953   -9.0220 O   0  0  0  0  0  0  0  0  0  0  0  0
   25.6917  -20.5512   -8.2107 O   0  0  0  0  0  0  0  0  0  0  0  0
  2  3  1  0
  2  1  1  6
  4  3  1  0
  5  4  2  0
  6  5  1  0
  7 12  2  0
  7  6  1  0
  8  7  1  0
  9  8  2  0
  9 10  1  0
 10 11  2  0
 11 12  1  0
 12  4  1  0
 13  2  1  0
 13 14  2  0
 15 13  1  0
 16 15  1  0
 16 17  1  1
 18 19  2  0
 18 17  1  0
 20 19  1  0
 21 20  2  0
 22 21  1  0
 22 23  2  0
 23 18  1  0
 24 16  1  0
 25 24  2  0
 27 28  1  6
 27 26  1  0
 29 27  1  0
 29 30  1  6
 30 24  1  0
 31 32  1  0
 31 29  1  0
 33 31  2  0
M  END
$$$$
