WFV.pdb
     RDKit          3D

 33 35  0  0  1  0  0  0  0  0999 V2000
   26.7899  -21.7838  -12.8163 N   0  0  0  0  0  0  0  0  0  0  0  0
   26.1046  -20.9408  -11.8567 C   0  0  1  0  0  0  0  0  0  0  0  0
   24.6252  -21.2488  -11.7983 C   0  0  0  0  0  0  0  0  0  0  0  0
   23.8210  -20.4975  -12.7764 C   0  0  0  0  0  0  0  0  0  0  0  0
   24.1653  -20.1713  -14.0713 C   0  0  0  0  0  0  0  0  0  0  0  0
   23.1299  -19.4869  -14.5811 N   0  0  0  0  0  0  0  0  0  0  0  0
   22.1502  -19.3662  -13.6701 C   0  0  0  0  0  0  0  0  0  0  0  0
   20.9026  -18.7506  -13.7334 C   0  0  0  0  0  0  0  0  0  0  0  0
   20.0934  -18.7889  -12.6180 C   0  0  0  0  0  0  0  0  0  0  0  0
   20.5116  -19.4225  -11.4676 C   0  0  0  0  0  0  0  0  0  0  0  0
   21.7397  -20.0353  -11.3870 C   0  0  0  0  0  0  0  0  0  0  0  0
   22.5538  -19.9994  -12.5023 C   0  0  0  0  0  0  0  0  0  0  0  0
   26.6356  -21.1989  -10.4896 C   0  0  0  0  0  0  0  0  0  0  0  0
   26.6706  -22.3675  -10.0377 O   0  0  0  0  0  0  0  0  0  0  0  0
   27.1018  -20.1393   -9.6932 N   0  0  0  0  0  0  0  0  0  0  0  0
   27.6573  -20.4626   -8.3631 C   0  0  1  0  0  0  0  0  0  0  0  0
   28.8467  -19.5867   -8.2044 C   0  0  0  0  0  0  0  0  0  0  0  0
   29.3808  -19.4221   -6.8524 C   0  0  0  0  0  0  0  0  0  0  0  0
   30.0825  -20.4385   -6.2382 C   0  0  0  0  0  0  0  0  0  0  0  0
   30.6175  -20.3101   -4.9788 C   0  0  0  0  0  0  0  0  0  0  0  0
   30.4556  -19.1326   -4.2944 C   0  0  0  0  0  0  0  0  0  0  0  0
   29.7579  -18.0847   -4.8720 C   0  0  0  0  0  0  0  0  0  0  0  0
   29.2303  -18.2536   -6.1511 C   0  0  0  0  0  0  0  0  0  0  0  0
   26.5698  -20.3588   -7.4176 C   0  0  0  0  0  0  0  0  0  0  0  0
   25.5947  -19.5765   -7.7062 O   0  0  0  0  0  0  0  0  0  0  0  0
   25.1200  -23.0920   -4.5750 C   0  0  0  0  0  0  0  0  0  0  0  0
   24.3941  -21.8510   -5.0422 C   0  0  2  0  0  0  0  0  0  0  0  0
   23.7481  -22.1581   -6.3758 C   0  0  0  0  0  0  0  0  0  0  0  0
   25.3506  -20.6898   -5.2410 C   0  0  2  0  0  0  0  0  0  0  0  0
   26.4068  -21.0196   -6.1707 N   0  0  0  0  0  0  0  0  0  0  0  0
   25.9474  -20.3985   -3.9221 C   0  0  0  0  0  0  0  0  0  0  0  0
   27.2784  -20.6319   -3.6005 O   0  0  0  0  0  0  0  0  0  0  0  0
   25.2528  -19.9028   -2.9792 O   0  0  0  0  0  0  0  0  0  0  0  0
  2  3  1  0
  2  1  1  6
  4  3  1  0
  5  4  2  0
  6  5  1  0
  7 12  2  0
  7  6  1  0
  8  7  1  0
  9  8  2  0
  9 10  1  0
 10 11  2  0
 11 12  1  0
 12  4  1  0
 13  2  1  0
 13 14  2  0
 15 13  1  0
 16 15  1  0
 16 17  1  1
 18 19  2  0
 18 17  1  0
 20 19  1  0
 21 20  2  0
 22 21  1  0
 22 23  2  0
 23 18  1  0
 24 16  1  0
 25 24  2  0
 27 28  1  6
 27 26  1  0
 29 27  1  0
 29 30  1  6
 30 24  1  0
 31 32  1  0
 31 29  1  0
 33 31  2  0
M  END
$$$$
