WFV.pdb
     RDKit          3D

 33 35  0  0  1  0  0  0  0  0999 V2000
   26.4348  -22.6319  -18.7806 N   0  0  0  0  0  0  0  0  0  0  0  0
   25.6695  -21.5385  -18.2150 C   0  0  1  0  0  0  0  0  0  0  0  0
   24.4409  -21.2302  -19.0409 C   0  0  0  0  0  0  0  0  0  0  0  0
   24.6005  -20.0735  -19.9378 C   0  0  0  0  0  0  0  0  0  0  0  0
   25.4851  -19.9421  -20.9876 C   0  0  0  0  0  0  0  0  0  0  0  0
   25.2742  -18.7266  -21.5152 N   0  0  0  0  0  0  0  0  0  0  0  0
   24.2997  -18.0860  -20.8487 C   0  0  0  0  0  0  0  0  0  0  0  0
   23.7386  -16.8235  -21.0237 C   0  0  0  0  0  0  0  0  0  0  0  0
   22.7314  -16.4276  -20.1697 C   0  0  0  0  0  0  0  0  0  0  0  0
   22.2913  -17.2640  -19.1663 C   0  0  0  0  0  0  0  0  0  0  0  0
   22.8334  -18.5134  -18.9788 C   0  0  0  0  0  0  0  0  0  0  0  0
   23.8430  -18.9142  -19.8322 C   0  0  0  0  0  0  0  0  0  0  0  0
   25.1750  -21.9164  -16.8621 C   0  0  0  0  0  0  0  0  0  0  0  0
   24.8833  -23.1088  -16.6086 O   0  0  0  0  0  0  0  0  0  0  0  0
   25.0301  -20.9444  -15.8579 N   0  0  0  0  0  0  0  0  0  0  0  0
   24.5542  -21.3834  -14.5301 C   0  0  1  0  0  0  0  0  0  0  0  0
   25.3509  -20.6079  -13.5449 C   0  0  0  0  0  0  0  0  0  0  0  0
   25.0156  -20.7779  -12.1310 C   0  0  0  0  0  0  0  0  0  0  0  0
   25.7947  -21.5627  -11.3066 C   0  0  0  0  0  0  0  0  0  0  0  0
   25.5224  -21.7261   -9.9694 C   0  0  0  0  0  0  0  0  0  0  0  0
   24.4381  -21.0909   -9.4198 C   0  0  0  0  0  0  0  0  0  0  0  0
   23.6275  -20.2927  -10.2099 C   0  0  0  0  0  0  0  0  0  0  0  0
   23.9367  -20.1519  -11.5617 C   0  0  0  0  0  0  0  0  0  0  0  0
   23.1152  -21.2545  -14.5362 C   0  0  0  0  0  0  0  0  0  0  0  0
   22.6100  -20.1783  -15.0186 O   0  0  0  0  0  0  0  0  0  0  0  0
   18.4484  -22.6956  -14.7612 C   0  0  0  0  0  0  0  0  0  0  0  0
   19.9368  -22.9482  -14.8385 C   0  0  2  0  0  0  0  0  0  0  0  0
   20.2216  -24.2842  -14.1871 C   0  0  0  0  0  0  0  0  0  0  0  0
   20.7201  -21.8855  -14.0903 C   0  0  2  0  0  0  0  0  0  0  0  0
   22.1360  -22.1749  -14.0759 N   0  0  0  0  0  0  0  0  0  0  0  0
   20.2176  -21.8840  -12.7017 C   0  0  0  0  0  0  0  0  0  0  0  0
   20.8246  -22.5626  -11.6527 O   0  0  0  0  0  0  0  0  0  0  0  0
   19.1682  -21.2412  -12.3811 O   0  0  0  0  0  0  0  0  0  0  0  0
  2  3  1  0
  2  1  1  6
  4  3  1  0
  5  4  2  0
  6  5  1  0
  7 12  2  0
  7  6  1  0
  8  7  1  0
  9  8  2  0
  9 10  1  0
 10 11  2  0
 11 12  1  0
 12  4  1  0
 13  2  1  0
 13 14  2  0
 15 13  1  0
 16 15  1  0
 16 17  1  1
 18 19  2  0
 18 17  1  0
 20 19  1  0
 21 20  2  0
 22 21  1  0
 22 23  2  0
 23 18  1  0
 24 16  1  0
 25 24  2  0
 27 28  1  1
 27 26  1  0
 29 27  1  0
 29 30  1  1
 30 24  1  0
 31 32  1  0
 31 29  1  0
 33 31  2  0
M  END
$$$$
