FGE.pdb
     RDKit          3D

 25 25  0  0  1  0  0  0  0  0999 V2000
    9.3914  -14.8323   22.9063 N   0  0  0  0  0  0  0  0  0  0  0  0
    8.2102  -15.1065   23.7039 C   0  0  1  0  0  0  0  0  0  0  0  0
    7.1116  -14.1811   23.2594 C   0  0  0  0  0  0  0  0  0  0  0  0
    6.9251  -13.1643   24.3612 C   0  0  0  0  0  0  0  0  0  0  0  0
    6.0498  -13.4024   25.3936 C   0  0  0  0  0  0  0  0  0  0  0  0
    5.9023  -12.4617   26.3730 C   0  0  0  0  0  0  0  0  0  0  0  0
    6.6147  -11.2702   26.3520 C   0  0  0  0  0  0  0  0  0  0  0  0
    7.4957  -11.0221   25.3198 C   0  0  0  0  0  0  0  0  0  0  0  0
    7.6258  -11.9839   24.3472 C   0  0  0  0  0  0  0  0  0  0  0  0
    7.8963  -16.5326   23.6133 C   0  0  0  0  0  0  0  0  0  0  0  0
    8.3425  -17.2367   22.6717 O   0  0  0  0  0  0  0  0  0  0  0  0
    7.0695  -17.2045   24.5823 N   0  0  0  0  0  0  0  0  0  0  0  0
    7.2873  -18.5417   25.0326 C   0  0  0  0  0  0  0  0  0  0  0  0
    8.2223  -18.6589   26.1793 C   0  0  0  0  0  0  0  0  0  0  0  0
    8.8800  -17.6736   26.5661 O   0  0  0  0  0  0  0  0  0  0  0  0
    8.3661  -19.8985   26.8359 N   0  0  0  0  0  0  0  0  0  0  0  0
    9.3141  -20.1475   27.9256 C   0  0  1  0  0  0  0  0  0  0  0  0
    8.7970  -21.2954   28.7025 C   0  0  0  0  0  0  0  0  0  0  0  0
    9.5567  -21.7221   29.9066 C   0  0  0  0  0  0  0  0  0  0  0  0
    8.9393  -22.9457   30.4767 C   0  0  0  0  0  0  0  0  0  0  0  0
    7.9537  -23.5323   29.9464 O   0  0  0  0  0  0  0  0  0  0  0  0
   10.7058  -20.0816   27.5455 C   0  0  0  0  0  0  0  0  0  0  0  0
   11.1963  -20.1124   26.2454 O   0  0  0  0  0  0  0  0  0  0  0  0
    9.4755  -23.4633   31.6437 O   0  0  0  0  0  0  0  0  0  0  0  0
   11.5757  -19.9963   28.4609 O   0  0  0  0  0  0  0  0  0  0  0  0
  2  1  1  6
  2 10  1  0
  3  2  1  0
  4  3  1  0
  4  9  2  0
  5  4  1  0
  6  5  2  0
  6  7  1  0
  7  8  2  0
  8  9  1  0
 10 11  2  0
 12 13  1  0
 12 10  1  0
 13 14  1  0
 14 16  1  0
 15 14  2  0
 16 17  1  0
 17 22  1  0
 17 18  1  6
 19 18  1  0
 19 20  1  0
 20 21  2  0
 20 24  1  0
 22 25  2  0
 22 23  1  0
M  END
$$$$
