FGE.pdb
     RDKit          3D

 25 25  0  0  1  0  0  0  0  0999 V2000
    6.6894  -16.1708   25.8788 N   0  0  0  0  0  0  0  0  0  0  0  0
    7.4268  -15.5706   24.7822 C   0  0  1  0  0  0  0  0  0  0  0  0
    8.2692  -14.4529   25.3318 C   0  0  0  0  0  0  0  0  0  0  0  0
    7.3165  -13.3768   25.7975 C   0  0  0  0  0  0  0  0  0  0  0  0
    6.7705  -12.4887   24.9020 C   0  0  0  0  0  0  0  0  0  0  0  0
    5.9144  -11.5259   25.3557 C   0  0  0  0  0  0  0  0  0  0  0  0
    5.5814  -11.4214   26.6995 C   0  0  0  0  0  0  0  0  0  0  0  0
    6.1244  -12.3083   27.6061 C   0  0  0  0  0  0  0  0  0  0  0  0
    6.9827  -13.2671   27.1246 C   0  0  0  0  0  0  0  0  0  0  0  0
    8.1665  -16.6179   24.0776 C   0  0  0  0  0  0  0  0  0  0  0  0
    8.6479  -17.6009   24.6967 O   0  0  0  0  0  0  0  0  0  0  0  0
    8.3844  -16.5853   22.6544 N   0  0  0  0  0  0  0  0  0  0  0  0
    9.3768  -17.3566   21.9773 C   0  0  0  0  0  0  0  0  0  0  0  0
   10.7595  -16.8354   22.1154 C   0  0  0  0  0  0  0  0  0  0  0  0
   11.0019  -15.8666   22.8610 O   0  0  0  0  0  0  0  0  0  0  0  0
   11.8078  -17.4440   21.3950 N   0  0  0  0  0  0  0  0  0  0  0  0
   13.2003  -16.9879   21.4249 C   0  0  1  0  0  0  0  0  0  0  0  0
   13.5699  -16.8011   22.8452 C   0  0  0  0  0  0  0  0  0  0  0  0
   14.6273  -17.6781   23.4123 C   0  0  0  0  0  0  0  0  0  0  0  0
   15.5966  -16.8565   24.1797 C   0  0  0  0  0  0  0  0  0  0  0  0
   15.7645  -16.9730   25.4267 O   0  0  0  0  0  0  0  0  0  0  0  0
   14.0850  -17.6810   20.5179 C   0  0  0  0  0  0  0  0  0  0  0  0
   14.1617  -19.0586   20.3503 O   0  0  0  0  0  0  0  0  0  0  0  0
   16.3493  -15.9217   23.4891 O   0  0  0  0  0  0  0  0  0  0  0  0
   14.8766  -16.9944   19.8080 O   0  0  0  0  0  0  0  0  0  0  0  0
  2  1  1  1
  2 10  1  0
  3  2  1  0
  4  3  1  0
  4  9  2  0
  5  4  1  0
  6  5  2  0
  6  7  1  0
  7  8  2  0
  8  9  1  0
 10 11  2  0
 12 13  1  0
 12 10  1  0
 13 14  1  0
 14 16  1  0
 15 14  2  0
 16 17  1  0
 17 22  1  0
 17 18  1  1
 19 18  1  0
 19 20  1  0
 20 21  2  0
 20 24  1  0
 22 25  2  0
 22 23  1  0
M  END
$$$$
