FGE.pdb
     RDKit          3D

 25 25  0  0  1  0  0  0  0  0999 V2000
    9.4267  -14.5383   24.0721 N   0  0  0  0  0  0  0  0  0  0  0  0
    8.1118  -15.0088   23.6768 C   0  0  1  0  0  0  0  0  0  0  0  0
    7.2060  -13.8179   23.5283 C   0  0  0  0  0  0  0  0  0  0  0  0
    7.1938  -13.1099   24.8629 C   0  0  0  0  0  0  0  0  0  0  0  0
    7.9606  -11.9880   25.0680 C   0  0  0  0  0  0  0  0  0  0  0  0
    7.9290  -11.3725   26.2870 C   0  0  0  0  0  0  0  0  0  0  0  0
    7.1413  -11.8519   27.3250 C   0  0  0  0  0  0  0  0  0  0  0  0
    6.3681  -12.9775   27.1287 C   0  0  0  0  0  0  0  0  0  0  0  0
    6.4177  -13.5780   25.8939 C   0  0  0  0  0  0  0  0  0  0  0  0
    8.2449  -15.8416   22.4812 C   0  0  0  0  0  0  0  0  0  0  0  0
    7.4830  -16.8228   22.2858 O   0  0  0  0  0  0  0  0  0  0  0  0
    9.2417  -15.5910   21.4725 N   0  0  0  0  0  0  0  0  0  0  0  0
   10.1348  -16.5821   20.9640 C   0  0  0  0  0  0  0  0  0  0  0  0
   11.4165  -16.6915   21.7043 C   0  0  0  0  0  0  0  0  0  0  0  0
   12.3492  -15.8958   21.4808 O   0  0  0  0  0  0  0  0  0  0  0  0
   11.5780  -17.7066   22.6695 N   0  0  0  0  0  0  0  0  0  0  0  0
   12.7530  -17.8395   23.5355 C   0  0  1  0  0  0  0  0  0  0  0  0
   12.2843  -18.3807   24.8301 C   0  0  0  0  0  0  0  0  0  0  0  0
   11.1882  -17.6622   25.5311 C   0  0  0  0  0  0  0  0  0  0  0  0
   10.7865  -18.4248   26.7397 C   0  0  0  0  0  0  0  0  0  0  0  0
   11.4280  -18.3815   27.8275 O   0  0  0  0  0  0  0  0  0  0  0  0
   13.9240  -18.3844   22.8893 C   0  0  0  0  0  0  0  0  0  0  0  0
   13.9392  -19.0825   21.6876 O   0  0  0  0  0  0  0  0  0  0  0  0
    9.6535  -19.2173   26.6636 O   0  0  0  0  0  0  0  0  0  0  0  0
   15.0471  -18.2327   23.4529 O   0  0  0  0  0  0  0  0  0  0  0  0
  2  1  1  6
  2 10  1  0
  3  2  1  0
  4  3  1  0
  4  9  2  0
  5  4  1  0
  6  5  2  0
  6  7  1  0
  7  8  2  0
  8  9  1  0
 10 11  2  0
 12 13  1  0
 12 10  1  0
 13 14  1  0
 14 16  1  0
 15 14  2  0
 16 17  1  0
 17 22  1  0
 17 18  1  1
 19 18  1  0
 19 20  1  0
 20 21  2  0
 20 24  1  0
 22 25  2  0
 22 23  1  0
M  END
$$$$
