FGE.pdb
     RDKit          3D

 25 25  0  0  1  0  0  0  0  0999 V2000
    6.6594  -17.2393   24.8893 N   0  0  0  0  0  0  0  0  0  0  0  0
    6.7901  -15.7972   24.9892 C   0  0  1  0  0  0  0  0  0  0  0  0
    6.8951  -15.4294   26.4433 C   0  0  0  0  0  0  0  0  0  0  0  0
    6.9719  -13.9219   26.5077 C   0  0  0  0  0  0  0  0  0  0  0  0
    5.8275  -13.1611   26.5036 C   0  0  0  0  0  0  0  0  0  0  0  0
    5.9313  -11.8003   26.5603 C   0  0  0  0  0  0  0  0  0  0  0  0
    7.1647  -11.1657   26.6221 C   0  0  0  0  0  0  0  0  0  0  0  0
    8.3192  -11.9208   26.6267 C   0  0  0  0  0  0  0  0  0  0  0  0
    8.1877  -13.2873   26.5688 C   0  0  0  0  0  0  0  0  0  0  0  0
    7.9112  -15.3628   24.1556 C   0  0  0  0  0  0  0  0  0  0  0  0
    7.7962  -14.3871   23.3706 O   0  0  0  0  0  0  0  0  0  0  0  0
    9.1937  -16.0175   24.1837 N   0  0  0  0  0  0  0  0  0  0  0  0
   10.3459  -15.5544   23.4794 C   0  0  0  0  0  0  0  0  0  0  0  0
   11.4987  -16.4888   23.5062 C   0  0  0  0  0  0  0  0  0  0  0  0
   11.4173  -17.5814   24.1001 O   0  0  0  0  0  0  0  0  0  0  0  0
   12.6968  -16.1346   22.8526 N   0  0  0  0  0  0  0  0  0  0  0  0
   13.8933  -16.9803   22.8119 C   0  0  1  0  0  0  0  0  0  0  0  0
   14.7451  -16.4816   21.7099 C   0  0  0  0  0  0  0  0  0  0  0  0
   15.1199  -15.0434   21.7135 C   0  0  0  0  0  0  0  0  0  0  0  0
   16.0027  -14.7563   20.5552 C   0  0  0  0  0  0  0  0  0  0  0  0
   16.3531  -15.6374   19.7199 O   0  0  0  0  0  0  0  0  0  0  0  0
   14.4629  -17.2873   24.1030 C   0  0  0  0  0  0  0  0  0  0  0  0
   14.1850  -16.6251   25.2929 O   0  0  0  0  0  0  0  0  0  0  0  0
   16.4580  -13.4593   20.3883 O   0  0  0  0  0  0  0  0  0  0  0  0
   15.2988  -18.2345   24.1814 O   0  0  0  0  0  0  0  0  0  0  0  0
  2  1  1  1
  2 10  1  0
  3  2  1  0
  4  3  1  0
  4  9  2  0
  5  4  1  0
  6  5  2  0
  6  7  1  0
  7  8  2  0
  8  9  1  0
 10 11  2  0
 12 13  1  0
 12 10  1  0
 13 14  1  0
 14 16  1  0
 15 14  2  0
 16 17  1  0
 17 22  1  0
 17 18  1  6
 19 18  1  0
 19 20  1  0
 20 21  2  0
 20 24  1  0
 22 25  2  0
 22 23  1  0
M  END
$$$$
