FGE.pdb
     RDKit          3D

 25 25  0  0  1  0  0  0  0  0999 V2000
    8.0783  -15.3258   25.0031 N   0  0  0  0  0  0  0  0  0  0  0  0
    7.6786  -14.8154   23.7046 C   0  0  1  0  0  0  0  0  0  0  0  0
    7.7870  -13.3160   23.7297 C   0  0  0  0  0  0  0  0  0  0  0  0
    7.3801  -12.8722   25.1153 C   0  0  0  0  0  0  0  0  0  0  0  0
    8.3003  -12.3166   25.9717 C   0  0  0  0  0  0  0  0  0  0  0  0
    7.9009  -11.9279   27.2187 C   0  0  0  0  0  0  0  0  0  0  0  0
    6.5878  -12.0799   27.6436 C   0  0  0  0  0  0  0  0  0  0  0  0
    5.6569  -12.6366   26.7912 C   0  0  0  0  0  0  0  0  0  0  0  0
    6.0838  -13.0194   25.5426 C   0  0  0  0  0  0  0  0  0  0  0  0
    8.4710  -15.4788   22.6689 C   0  0  0  0  0  0  0  0  0  0  0  0
    9.0657  -14.8146   21.7820 O   0  0  0  0  0  0  0  0  0  0  0  0
    8.6142  -16.9103   22.6043 N   0  0  0  0  0  0  0  0  0  0  0  0
    9.6513  -17.5809   21.8880 C   0  0  0  0  0  0  0  0  0  0  0  0
   10.7799  -18.0451   22.7327 C   0  0  0  0  0  0  0  0  0  0  0  0
   10.7333  -17.9330   23.9730 O   0  0  0  0  0  0  0  0  0  0  0  0
   11.9151  -18.6184   22.1235 N   0  0  0  0  0  0  0  0  0  0  0  0
   13.1074  -19.0578   22.8538 C   0  0  1  0  0  0  0  0  0  0  0  0
   14.0562  -19.6011   21.8571 C   0  0  0  0  0  0  0  0  0  0  0  0
   14.7486  -18.6418   20.9574 C   0  0  0  0  0  0  0  0  0  0  0  0
   15.0446  -19.3009   19.6606 C   0  0  0  0  0  0  0  0  0  0  0  0
   15.6891  -20.3839   19.5685 O   0  0  0  0  0  0  0  0  0  0  0  0
   13.5581  -18.1490   23.8817 C   0  0  0  0  0  0  0  0  0  0  0  0
   13.4303  -16.7652   23.8572 O   0  0  0  0  0  0  0  0  0  0  0  0
   14.5884  -18.6948   18.5023 O   0  0  0  0  0  0  0  0  0  0  0  0
   14.1312  -18.6316   24.9018 O   0  0  0  0  0  0  0  0  0  0  0  0
  2  1  1  1
  2 10  1  0
  3  2  1  0
  4  3  1  0
  4  9  2  0
  5  4  1  0
  6  5  2  0
  6  7  1  0
  7  8  2  0
  8  9  1  0
 10 11  2  0
 12 13  1  0
 12 10  1  0
 13 14  1  0
 14 16  1  0
 15 14  2  0
 16 17  1  0
 17 22  1  0
 17 18  1  6
 19 18  1  0
 19 20  1  0
 20 21  2  0
 20 24  1  0
 22 25  2  0
 22 23  1  0
M  END
$$$$
