FGE.pdb
     RDKit          3D

 25 25  0  0  1  0  0  0  0  0999 V2000
    7.9287  -15.4690   23.7074 N   0  0  0  0  0  0  0  0  0  0  0  0
    7.2505  -16.1264   24.8095 C   0  0  1  0  0  0  0  0  0  0  0  0
    6.0028  -15.3511   25.1297 C   0  0  0  0  0  0  0  0  0  0  0  0
    6.4475  -14.0078   25.6593 C   0  0  0  0  0  0  0  0  0  0  0  0
    6.6196  -13.8084   27.0081 C   0  0  0  0  0  0  0  0  0  0  0  0
    7.0202  -12.5813   27.4549 C   0  0  0  0  0  0  0  0  0  0  0  0
    7.2582  -11.5295   26.5803 C   0  0  0  0  0  0  0  0  0  0  0  0
    7.0882  -11.7200   25.2246 C   0  0  0  0  0  0  0  0  0  0  0  0
    6.6846  -12.9631   24.8008 C   0  0  0  0  0  0  0  0  0  0  0  0
    7.0376  -17.5325   24.4655 C   0  0  0  0  0  0  0  0  0  0  0  0
    6.6240  -18.3546   25.3224 O   0  0  0  0  0  0  0  0  0  0  0  0
    7.2860  -18.0506   23.1449 N   0  0  0  0  0  0  0  0  0  0  0  0
    8.5790  -18.4007   22.6510 C   0  0  0  0  0  0  0  0  0  0  0  0
    9.5623  -18.7582   23.7036 C   0  0  0  0  0  0  0  0  0  0  0  0
    9.4651  -19.8342   24.3248 O   0  0  0  0  0  0  0  0  0  0  0  0
   10.6160  -17.8700   24.0021 N   0  0  0  0  0  0  0  0  0  0  0  0
   11.6679  -18.1418   24.9858 C   0  0  1  0  0  0  0  0  0  0  0  0
   12.9186  -17.5468   24.4658 C   0  0  0  0  0  0  0  0  0  0  0  0
   12.8556  -16.1740   23.8996 C   0  0  0  0  0  0  0  0  0  0  0  0
   14.2162  -15.7396   23.4951 C   0  0  0  0  0  0  0  0  0  0  0  0
   15.1438  -15.5163   24.3235 O   0  0  0  0  0  0  0  0  0  0  0  0
   11.2759  -17.9478   26.3621 C   0  0  0  0  0  0  0  0  0  0  0  0
   10.1072  -17.3333   26.7961 O   0  0  0  0  0  0  0  0  0  0  0  0
   14.4733  -15.5754   22.1444 O   0  0  0  0  0  0  0  0  0  0  0  0
   12.0538  -18.3579   27.2724 O   0  0  0  0  0  0  0  0  0  0  0  0
  2  1  1  6
  2 10  1  0
  3  2  1  0
  4  3  1  0
  4  9  2  0
  5  4  1  0
  6  5  2  0
  6  7  1  0
  7  8  2  0
  8  9  1  0
 10 11  2  0
 12 13  1  0
 12 10  1  0
 13 14  1  0
 14 16  1  0
 15 14  2  0
 16 17  1  0
 17 22  1  0
 17 18  1  6
 19 18  1  0
 19 20  1  0
 20 21  2  0
 20 24  1  0
 22 25  2  0
 22 23  1  0
M  END
$$$$
