FGE.pdb
     RDKit          3D

 25 25  0  0  1  0  0  0  0  0999 V2000
    9.7576  -15.6509   21.7894 N   0  0  0  0  0  0  0  0  0  0  0  0
    9.2467  -16.0791   20.5001 C   0  0  1  0  0  0  0  0  0  0  0  0
    7.8402  -15.5682   20.3531 C   0  0  0  0  0  0  0  0  0  0  0  0
    7.9171  -14.0600   20.3952 C   0  0  0  0  0  0  0  0  0  0  0  0
    7.9975  -13.3297   19.2338 C   0  0  0  0  0  0  0  0  0  0  0  0
    8.0682  -11.9675   19.3063 C   0  0  0  0  0  0  0  0  0  0  0  0
    8.0609  -11.3013   20.5245 C   0  0  0  0  0  0  0  0  0  0  0  0
    7.9805  -12.0257   21.6958 C   0  0  0  0  0  0  0  0  0  0  0  0
    7.9106  -13.3943   21.5958 C   0  0  0  0  0  0  0  0  0  0  0  0
   10.1761  -15.6506   19.4546 C   0  0  0  0  0  0  0  0  0  0  0  0
   10.1044  -16.1204   18.2903 O   0  0  0  0  0  0  0  0  0  0  0  0
   11.2132  -14.6803   19.6935 N   0  0  0  0  0  0  0  0  0  0  0  0
   12.1540  -14.2532   18.7081 C   0  0  0  0  0  0  0  0  0  0  0  0
   13.4794  -14.9152   18.7969 C   0  0  0  0  0  0  0  0  0  0  0  0
   14.3530  -14.7063   17.9330 O   0  0  0  0  0  0  0  0  0  0  0  0
   13.7505  -15.7886   19.8702 N   0  0  0  0  0  0  0  0  0  0  0  0
   14.9240  -16.6636   19.9430 C   0  0  1  0  0  0  0  0  0  0  0  0
   15.7769  -16.1622   21.0429 C   0  0  0  0  0  0  0  0  0  0  0  0
   16.5420  -14.9083   20.8166 C   0  0  0  0  0  0  0  0  0  0  0  0
   17.4015  -14.6304   21.9946 C   0  0  0  0  0  0  0  0  0  0  0  0
   18.2449  -13.6899   22.0267 O   0  0  0  0  0  0  0  0  0  0  0  0
   14.6379  -18.0735   19.8160 C   0  0  0  0  0  0  0  0  0  0  0  0
   13.3724  -18.6478   19.7926 O   0  0  0  0  0  0  0  0  0  0  0  0
   17.2655  -15.4436   23.1070 O   0  0  0  0  0  0  0  0  0  0  0  0
   15.6103  -18.8785   19.7249 O   0  0  0  0  0  0  0  0  0  0  0  0
  2  1  1  1
  2 10  1  0
  3  2  1  0
  4  3  1  0
  4  9  2  0
  5  4  1  0
  6  5  2  0
  6  7  1  0
  7  8  2  0
  8  9  1  0
 10 11  2  0
 12 13  1  0
 12 10  1  0
 13 14  1  0
 14 16  1  0
 15 14  2  0
 16 17  1  0
 17 22  1  0
 17 18  1  1
 19 18  1  0
 19 20  1  0
 20 21  2  0
 20 24  1  0
 22 25  2  0
 22 23  1  0
M  END
$$$$
