FGE.pdb
     RDKit          3D

 25 25  0  0  1  0  0  0  0  0999 V2000
    8.6813  -15.0741   24.9987 N   0  0  0  0  0  0  0  0  0  0  0  0
    7.6413  -14.8049   24.0227 C   0  0  1  0  0  0  0  0  0  0  0  0
    7.5245  -13.3157   23.8517 C   0  0  0  0  0  0  0  0  0  0  0  0
    7.0682  -12.7584   25.1798 C   0  0  0  0  0  0  0  0  0  0  0  0
    7.5933  -11.5847   25.6650 C   0  0  0  0  0  0  0  0  0  0  0  0
    7.1613  -11.1090   26.8704 C   0  0  0  0  0  0  0  0  0  0  0  0
    6.2043  -11.7815   27.6184 C   0  0  0  0  0  0  0  0  0  0  0  0
    5.6712  -12.9604   27.1398 C   0  0  0  0  0  0  0  0  0  0  0  0
    6.1225  -13.4177   25.9252 C   0  0  0  0  0  0  0  0  0  0  0  0
    7.9345  -15.5501   22.7982 C   0  0  0  0  0  0  0  0  0  0  0  0
    7.0901  -16.3377   22.3002 O   0  0  0  0  0  0  0  0  0  0  0  0
    9.1889  -15.4280   22.1014 N   0  0  0  0  0  0  0  0  0  0  0  0
    9.7801  -16.4708   21.3259 C   0  0  0  0  0  0  0  0  0  0  0  0
   10.8536  -17.2216   22.0233 C   0  0  0  0  0  0  0  0  0  0  0  0
   11.4017  -18.1996   21.4789 O   0  0  0  0  0  0  0  0  0  0  0  0
   11.2557  -16.8227   23.3146 N   0  0  0  0  0  0  0  0  0  0  0  0
   12.1816  -17.5821   24.1597 C   0  0  1  0  0  0  0  0  0  0  0  0
   13.4406  -16.8089   24.2352 C   0  0  0  0  0  0  0  0  0  0  0  0
   14.0846  -16.3977   22.9604 C   0  0  0  0  0  0  0  0  0  0  0  0
   15.3529  -15.6834   23.2513 C   0  0  0  0  0  0  0  0  0  0  0  0
   15.7600  -15.4506   24.4247 O   0  0  0  0  0  0  0  0  0  0  0  0
   11.5911  -18.1474   25.3503 C   0  0  0  0  0  0  0  0  0  0  0  0
   10.2952  -17.9240   25.8003 O   0  0  0  0  0  0  0  0  0  0  0  0
   16.1211  -15.2569   22.1811 O   0  0  0  0  0  0  0  0  0  0  0  0
   12.3002  -18.9108   26.0688 O   0  0  0  0  0  0  0  0  0  0  0  0
  2  1  1  1
  2 10  1  0
  3  2  1  0
  4  3  1  0
  4  9  2  0
  5  4  1  0
  6  5  2  0
  6  7  1  0
  7  8  2  0
  8  9  1  0
 10 11  2  0
 12 13  1  0
 12 10  1  0
 13 14  1  0
 14 16  1  0
 15 14  2  0
 16 17  1  0
 17 22  1  0
 17 18  1  1
 19 18  1  0
 19 20  1  0
 20 21  2  0
 20 24  1  0
 22 25  2  0
 22 23  1  0
M  END
$$$$
