FGE.pdb
     RDKit          3D

 25 25  0  0  1  0  0  0  0  0999 V2000
    5.9952  -15.2698   21.1845 N   0  0  0  0  0  0  0  0  0  0  0  0
    6.8199  -14.7354   22.2527 C   0  0  1  0  0  0  0  0  0  0  0  0
    5.9315  -14.4112   23.4216 C   0  0  0  0  0  0  0  0  0  0  0  0
    6.8228  -13.8487   24.5042 C   0  0  0  0  0  0  0  0  0  0  0  0
    7.5154  -12.6787   24.3041 C   0  0  0  0  0  0  0  0  0  0  0  0
    8.3147  -12.1980   25.3020 C   0  0  0  0  0  0  0  0  0  0  0  0
    8.4453  -12.8620   26.5144 C   0  0  0  0  0  0  0  0  0  0  0  0
    7.7541  -14.0371   26.7247 C   0  0  0  0  0  0  0  0  0  0  0  0
    6.9571  -14.4995   25.7054 C   0  0  0  0  0  0  0  0  0  0  0  0
    7.9007  -15.6799   22.5364 C   0  0  0  0  0  0  0  0  0  0  0  0
    7.6542  -16.8519   22.9196 O   0  0  0  0  0  0  0  0  0  0  0  0
    9.2902  -15.3282   22.3962 N   0  0  0  0  0  0  0  0  0  0  0  0
   10.3709  -16.2438   22.5753 C   0  0  0  0  0  0  0  0  0  0  0  0
   11.1899  -15.9973   23.7883 C   0  0  0  0  0  0  0  0  0  0  0  0
   11.3455  -14.8407   24.2256 O   0  0  0  0  0  0  0  0  0  0  0  0
   11.7968  -17.0841   24.4507 N   0  0  0  0  0  0  0  0  0  0  0  0
   12.8014  -16.9459   25.5090 C   0  0  1  0  0  0  0  0  0  0  0  0
   12.3317  -17.7400   26.6654 C   0  0  0  0  0  0  0  0  0  0  0  0
   10.8936  -18.1119   26.7188 C   0  0  0  0  0  0  0  0  0  0  0  0
   10.6549  -19.0114   27.8753 C   0  0  0  0  0  0  0  0  0  0  0  0
   11.5774  -19.4089   28.6420 O   0  0  0  0  0  0  0  0  0  0  0  0
   14.1711  -17.0361   25.0603 C   0  0  0  0  0  0  0  0  0  0  0  0
   15.2947  -16.6946   25.8037 O   0  0  0  0  0  0  0  0  0  0  0  0
    9.3575  -19.4289   28.1194 O   0  0  0  0  0  0  0  0  0  0  0  0
   14.3929  -17.4526   23.8859 O   0  0  0  0  0  0  0  0  0  0  0  0
  2  1  1  6
  2 10  1  0
  3  2  1  0
  4  3  1  0
  4  9  2  0
  5  4  1  0
  6  5  2  0
  6  7  1  0
  7  8  2  0
  8  9  1  0
 10 11  2  0
 12 13  1  0
 12 10  1  0
 13 14  1  0
 14 16  1  0
 15 14  2  0
 16 17  1  0
 17 22  1  0
 17 18  1  1
 19 18  1  0
 19 20  1  0
 20 21  2  0
 20 24  1  0
 22 25  2  0
 22 23  1  0
M  END
$$$$
