FGE.pdb
     RDKit          3D

 25 25  0  0  1  0  0  0  0  0999 V2000
    8.0566  -14.6534   21.3761 N   0  0  0  0  0  0  0  0  0  0  0  0
    7.7903  -14.5309   22.7976 C   0  0  1  0  0  0  0  0  0  0  0  0
    7.3346  -13.1253   23.0760 C   0  0  0  0  0  0  0  0  0  0  0  0
    7.3264  -12.9586   24.5776 C   0  0  0  0  0  0  0  0  0  0  0  0
    6.1452  -12.7767   25.2561 C   0  0  0  0  0  0  0  0  0  0  0  0
    6.1723  -12.6266   26.6135 C   0  0  0  0  0  0  0  0  0  0  0  0
    7.3637  -12.6532   27.3259 C   0  0  0  0  0  0  0  0  0  0  0  0
    8.5546  -12.8353   26.6537 C   0  0  0  0  0  0  0  0  0  0  0  0
    8.5004  -12.9837   25.2888 C   0  0  0  0  0  0  0  0  0  0  0  0
    6.8514  -15.5794   23.1972 C   0  0  0  0  0  0  0  0  0  0  0  0
    5.6139  -15.4446   23.0191 O   0  0  0  0  0  0  0  0  0  0  0  0
    7.2825  -16.8095   23.8097 N   0  0  0  0  0  0  0  0  0  0  0  0
    6.7345  -17.3392   25.0170 C   0  0  0  0  0  0  0  0  0  0  0  0
    7.7420  -17.6689   26.0557 C   0  0  0  0  0  0  0  0  0  0  0  0
    7.6078  -17.2571   27.2243 O   0  0  0  0  0  0  0  0  0  0  0  0
    8.8611  -18.4559   25.7147 N   0  0  0  0  0  0  0  0  0  0  0  0
   10.0283  -18.6460   26.5806 C   0  0  1  0  0  0  0  0  0  0  0  0
   10.7276  -17.3450   26.6652 C   0  0  0  0  0  0  0  0  0  0  0  0
   10.6418  -16.4293   25.4977 C   0  0  0  0  0  0  0  0  0  0  0  0
   11.8635  -16.5676   24.6660 C   0  0  0  0  0  0  0  0  0  0  0  0
   12.8499  -17.2821   25.0026 O   0  0  0  0  0  0  0  0  0  0  0  0
    9.7808  -19.4286   27.7688 C   0  0  0  0  0  0  0  0  0  0  0  0
   10.7229  -19.7598   28.7355 O   0  0  0  0  0  0  0  0  0  0  0  0
   11.9162  -15.8795   23.4656 O   0  0  0  0  0  0  0  0  0  0  0  0
    8.6111  -19.8706   27.9648 O   0  0  0  0  0  0  0  0  0  0  0  0
  2  1  1  6
  2 10  1  0
  3  2  1  0
  4  3  1  0
  4  9  2  0
  5  4  1  0
  6  5  2  0
  6  7  1  0
  7  8  2  0
  8  9  1  0
 10 11  2  0
 12 13  1  0
 12 10  1  0
 13 14  1  0
 14 16  1  0
 15 14  2  0
 16 17  1  0
 17 22  1  0
 17 18  1  1
 19 18  1  0
 19 20  1  0
 20 21  2  0
 20 24  1  0
 22 25  2  0
 22 23  1  0
M  END
$$$$
