FGE.pdb
     RDKit          3D

 25 25  0  0  1  0  0  0  0  0999 V2000
    7.8477  -15.4430   21.5153 N   0  0  0  0  0  0  0  0  0  0  0  0
    8.0196  -14.7837   22.7969 C   0  0  1  0  0  0  0  0  0  0  0  0
    6.6625  -14.4064   23.3228 C   0  0  0  0  0  0  0  0  0  0  0  0
    6.8847  -13.7139   24.6470 C   0  0  0  0  0  0  0  0  0  0  0  0
    6.4720  -14.2974   25.8209 C   0  0  0  0  0  0  0  0  0  0  0  0
    6.6856  -13.6440   27.0013 C   0  0  0  0  0  0  0  0  0  0  0  0
    7.3096  -12.4044   27.0454 C   0  0  0  0  0  0  0  0  0  0  0  0
    7.7273  -11.8107   25.8723 C   0  0  0  0  0  0  0  0  0  0  0  0
    7.5007  -12.4881   24.6986 C   0  0  0  0  0  0  0  0  0  0  0  0
    8.8078  -15.6493   23.6746 C   0  0  0  0  0  0  0  0  0  0  0  0
    8.2777  -16.6170   24.2778 O   0  0  0  0  0  0  0  0  0  0  0  0
   10.2162  -15.4470   23.8967 N   0  0  0  0  0  0  0  0  0  0  0  0
   10.8168  -15.3371   25.1873 C   0  0  0  0  0  0  0  0  0  0  0  0
   10.5187  -16.4676   26.1015 C   0  0  0  0  0  0  0  0  0  0  0  0
    9.4461  -17.0950   26.0074 O   0  0  0  0  0  0  0  0  0  0  0  0
   11.4601  -16.8335   27.0855 N   0  0  0  0  0  0  0  0  0  0  0  0
   11.1920  -17.7851   28.1675 C   0  0  1  0  0  0  0  0  0  0  0  0
   11.9014  -19.0397   27.8334 C   0  0  0  0  0  0  0  0  0  0  0  0
   12.1540  -19.3380   26.3994 C   0  0  0  0  0  0  0  0  0  0  0  0
   12.7908  -20.6729   26.2736 C   0  0  0  0  0  0  0  0  0  0  0  0
   14.0430  -20.8426   26.2726 O   0  0  0  0  0  0  0  0  0  0  0  0
   11.2668  -17.2277   29.4977 C   0  0  0  0  0  0  0  0  0  0  0  0
   10.7933  -17.8274   30.6587 O   0  0  0  0  0  0  0  0  0  0  0  0
   11.9669  -21.7794   26.1536 O   0  0  0  0  0  0  0  0  0  0  0  0
   11.7992  -16.0887   29.6432 O   0  0  0  0  0  0  0  0  0  0  0  0
  2  1  1  6
  2 10  1  0
  3  2  1  0
  4  3  1  0
  4  9  2  0
  5  4  1  0
  6  5  2  0
  6  7  1  0
  7  8  2  0
  8  9  1  0
 10 11  2  0
 12 13  1  0
 12 10  1  0
 13 14  1  0
 14 16  1  0
 15 14  2  0
 16 17  1  0
 17 22  1  0
 17 18  1  1
 19 18  1  0
 19 20  1  0
 20 21  2  0
 20 24  1  0
 22 25  2  0
 22 23  1  0
M  END
$$$$
