FGE.pdb
     RDKit          3D

 25 25  0  0  1  0  0  0  0  0999 V2000
    8.3309  -15.1885   25.4074 N   0  0  0  0  0  0  0  0  0  0  0  0
    7.4267  -15.1032   24.2753 C   0  0  1  0  0  0  0  0  0  0  0  0
    7.3236  -13.6626   23.8572 C   0  0  0  0  0  0  0  0  0  0  0  0
    6.9113  -12.8810   25.0827 C   0  0  0  0  0  0  0  0  0  0  0  0
    5.6837  -13.0871   25.6651 C   0  0  0  0  0  0  0  0  0  0  0  0
    5.3403  -12.3624   26.7709 C   0  0  0  0  0  0  0  0  0  0  0  0
    6.2005  -11.4220   27.3218 C   0  0  0  0  0  0  0  0  0  0  0  0
    7.4349  -11.2080   26.7442 C   0  0  0  0  0  0  0  0  0  0  0  0
    7.7563  -11.9495   25.6330 C   0  0  0  0  0  0  0  0  0  0  0  0
    7.8832  -16.0220   23.2322 C   0  0  0  0  0  0  0  0  0  0  0  0
    7.2306  -16.1710   22.1677 O   0  0  0  0  0  0  0  0  0  0  0  0
    9.0888  -16.7991   23.3612 N   0  0  0  0  0  0  0  0  0  0  0  0
    9.5853  -17.6818   22.3549 C   0  0  0  0  0  0  0  0  0  0  0  0
   10.9309  -18.2404   22.6375 C   0  0  0  0  0  0  0  0  0  0  0  0
   11.4099  -19.1385   21.9185 O   0  0  0  0  0  0  0  0  0  0  0  0
   11.6729  -17.7484   23.7310 N   0  0  0  0  0  0  0  0  0  0  0  0
   12.9259  -18.3401   24.2084 C   0  0  1  0  0  0  0  0  0  0  0  0
   14.0326  -17.5326   23.6500 C   0  0  0  0  0  0  0  0  0  0  0  0
   14.3234  -16.2177   24.2789 C   0  0  0  0  0  0  0  0  0  0  0  0
   15.4587  -15.5699   23.5755 C   0  0  0  0  0  0  0  0  0  0  0  0
   15.3043  -14.7258   22.6478 O   0  0  0  0  0  0  0  0  0  0  0  0
   12.9233  -18.7245   25.6004 C   0  0  0  0  0  0  0  0  0  0  0  0
   11.9320  -18.4211   26.5262 O   0  0  0  0  0  0  0  0  0  0  0  0
   16.7442  -15.9108   23.9609 O   0  0  0  0  0  0  0  0  0  0  0  0
   13.9048  -19.3905   26.0421 O   0  0  0  0  0  0  0  0  0  0  0  0
  2  1  1  1
  2 10  1  0
  3  2  1  0
  4  3  1  0
  4  9  2  0
  5  4  1  0
  6  5  2  0
  6  7  1  0
  7  8  2  0
  8  9  1  0
 10 11  2  0
 12 13  1  0
 12 10  1  0
 13 14  1  0
 14 16  1  0
 15 14  2  0
 16 17  1  0
 17 22  1  0
 17 18  1  1
 19 18  1  0
 19 20  1  0
 20 21  2  0
 20 24  1  0
 22 25  2  0
 22 23  1  0
M  END
$$$$
