FGE.pdb
     RDKit          3D

 25 25  0  0  1  0  0  0  0  0999 V2000
    8.0926  -15.5373   25.7895 N   0  0  0  0  0  0  0  0  0  0  0  0
    7.3330  -15.3168   24.5726 C   0  0  1  0  0  0  0  0  0  0  0  0
    7.5395  -13.8932   24.1351 C   0  0  0  0  0  0  0  0  0  0  0  0
    7.0901  -13.0154   25.2796 C   0  0  0  0  0  0  0  0  0  0  0  0
    8.0044  -12.2994   26.0145 C   0  0  0  0  0  0  0  0  0  0  0  0
    7.5658  -11.5169   27.0446 C   0  0  0  0  0  0  0  0  0  0  0  0
    6.2187  -11.4264   27.3684 C   0  0  0  0  0  0  0  0  0  0  0  0
    5.2933  -12.1414   26.6365 C   0  0  0  0  0  0  0  0  0  0  0  0
    5.7600  -12.9209   25.6058 C   0  0  0  0  0  0  0  0  0  0  0  0
    7.7092  -16.3308   23.5872 C   0  0  0  0  0  0  0  0  0  0  0  0
    7.1458  -17.4549   23.5654 O   0  0  0  0  0  0  0  0  0  0  0  0
    8.7322  -16.1052   22.5990 N   0  0  0  0  0  0  0  0  0  0  0  0
    9.7668  -17.0388   22.2885 C   0  0  0  0  0  0  0  0  0  0  0  0
   10.7206  -17.2899   23.3975 C   0  0  0  0  0  0  0  0  0  0  0  0
   10.5687  -16.7363   24.5037 O   0  0  0  0  0  0  0  0  0  0  0  0
   11.8085  -18.1638   23.1952 N   0  0  0  0  0  0  0  0  0  0  0  0
   12.7993  -18.4963   24.2229 C   0  0  1  0  0  0  0  0  0  0  0  0
   13.8735  -17.4825   24.1402 C   0  0  0  0  0  0  0  0  0  0  0  0
   14.3901  -17.1211   22.7942 C   0  0  0  0  0  0  0  0  0  0  0  0
   15.4240  -16.0641   22.9253 C   0  0  0  0  0  0  0  0  0  0  0  0
   15.8380  -15.6387   24.0408 O   0  0  0  0  0  0  0  0  0  0  0  0
   12.2435  -18.8789   25.4997 C   0  0  0  0  0  0  0  0  0  0  0  0
   11.5430  -18.0462   26.3643 O   0  0  0  0  0  0  0  0  0  0  0  0
   15.9558  -15.5252   21.7660 O   0  0  0  0  0  0  0  0  0  0  0  0
   12.4030  -20.0718   25.8917 O   0  0  0  0  0  0  0  0  0  0  0  0
  2  1  1  1
  2 10  1  0
  3  2  1  0
  4  3  1  0
  4  9  2  0
  5  4  1  0
  6  5  2  0
  6  7  1  0
  7  8  2  0
  8  9  1  0
 10 11  2  0
 12 13  1  0
 12 10  1  0
 13 14  1  0
 14 16  1  0
 15 14  2  0
 16 17  1  0
 17 22  1  0
 17 18  1  1
 19 18  1  0
 19 20  1  0
 20 21  2  0
 20 24  1  0
 22 25  2  0
 22 23  1  0
M  END
$$$$
