DQE.pdb
     RDKit          3D

 27 26  0  0  1  0  0  0  0  0999 V2000
   28.6578  -23.1355  -16.3979 N   0  0  0  0  0  0  0  0  0  0  0  0
   27.3601  -22.8246  -16.9248 C   0  0  1  0  0  0  0  0  0  0  0  0
   26.9444  -23.7770  -18.0233 C   0  0  0  0  0  0  0  0  0  0  0  0
   27.8538  -23.6376  -19.2140 C   0  0  0  0  0  0  0  0  0  0  0  0
   28.0183  -24.5973  -20.0086 O   0  0  0  0  0  0  0  0  0  0  0  0
   26.3649  -22.7518  -15.8422 C   0  0  0  0  0  0  0  0  0  0  0  0
   25.8982  -23.8220  -15.3351 O   0  0  0  0  0  0  0  0  0  0  0  0
   28.4987  -22.4269  -19.4044 O   0  0  0  0  0  0  0  0  0  0  0  0
   26.0908  -21.9812  -10.9325 N   0  0  0  0  0  0  0  0  0  0  0  0
   24.9104  -21.2074  -10.8734 C   0  0  0  0  0  0  0  0  0  0  0  0
   24.1585  -21.2532   -9.8761 O   0  0  0  0  0  0  0  0  0  0  0  0
   24.5197  -20.2952  -12.0228 C   0  0  0  0  0  0  0  0  0  0  0  0
   25.4767  -20.5191  -13.1486 C   0  0  0  0  0  0  0  0  0  0  0  0
   24.9559  -21.4978  -14.1401 C   0  0  2  0  0  0  0  0  0  0  0  0
   25.8684  -21.5432  -15.3017 N   0  0  0  0  0  0  0  0  0  0  0  0
   23.5905  -21.2595  -14.5672 C   0  0  0  0  0  0  0  0  0  0  0  0
   23.3702  -20.2873  -15.3740 O   0  0  0  0  0  0  0  0  0  0  0  0
   22.4606  -22.0149  -14.1791 N   0  0  0  0  0  0  0  0  0  0  0  0
   21.1256  -21.6697  -14.6538 C   0  0  1  0  0  0  0  0  0  0  0  0
   20.1065  -22.6295  -14.0581 C   0  0  0  0  0  0  0  0  0  0  0  0
   18.7107  -22.3846  -14.5095 C   0  0  0  0  0  0  0  0  0  0  0  0
   17.7256  -23.3489  -13.9960 C   0  0  0  0  0  0  0  0  0  0  0  0
   16.7689  -23.1131  -13.2438 O   0  0  0  0  0  0  0  0  0  0  0  0
   20.8023  -20.3038  -14.1904 C   0  0  0  0  0  0  0  0  0  0  0  0
   20.0882  -19.4076  -15.0057 O   0  0  0  0  0  0  0  0  0  0  0  0
   17.8897  -24.6787  -14.4037 O   0  0  0  0  0  0  0  0  0  0  0  0
   21.1522  -19.9132  -13.0713 O   0  0  0  0  0  0  0  0  0  0  0  0
  2  3  1  0
  2  6  1  0
  2  1  1  1
  4  5  2  0
  4  3  1  0
  6  7  2  0
  8  4  1  0
 10  9  1  0
 10 12  1  0
 11 10  2  0
 13 12  1  0
 14 13  1  1
 15 14  1  0
 15  6  1  0
 16 17  2  0
 16 14  1  0
 18 16  1  0
 19 18  1  0
 19 20  1  1
 21 20  1  0
 21 22  1  0
 22 26  1  0
 23 22  2  0
 24 19  1  0
 25 24  1  0
 27 24  2  0
M  END
$$$$
