DQE.pdb
     RDKit          3D

 27 26  0  0  1  0  0  0  0  0999 V2000
   17.2162  -14.4474  -15.9337 N   0  0  0  0  0  0  0  0  0  0  0  0
   16.9255  -13.0436  -15.9899 C   0  0  1  0  0  0  0  0  0  0  0  0
   16.0811  -12.5861  -14.8218 C   0  0  0  0  0  0  0  0  0  0  0  0
   14.7685  -13.3215  -14.8003 C   0  0  0  0  0  0  0  0  0  0  0  0
   13.9974  -13.2824  -15.7919 O   0  0  0  0  0  0  0  0  0  0  0  0
   18.1663  -12.2622  -16.1221 C   0  0  0  0  0  0  0  0  0  0  0  0
   18.9317  -12.1100  -15.1165 O   0  0  0  0  0  0  0  0  0  0  0  0
   14.4401  -14.0374  -13.6610 O   0  0  0  0  0  0  0  0  0  0  0  0
   21.3512  -11.1686  -21.3457 N   0  0  0  0  0  0  0  0  0  0  0  0
   22.1075  -10.4019  -20.4314 C   0  0  0  0  0  0  0  0  0  0  0  0
   23.1766   -9.8550  -20.7779 O   0  0  0  0  0  0  0  0  0  0  0  0
   21.6425  -10.2196  -18.9974 C   0  0  0  0  0  0  0  0  0  0  0  0
   20.3517  -10.9525  -18.8236 C   0  0  0  0  0  0  0  0  0  0  0  0
   19.8461  -10.8728  -17.4270 C   0  0  2  0  0  0  0  0  0  0  0  0
   18.5904  -11.6448  -17.3214 N   0  0  0  0  0  0  0  0  0  0  0  0
   19.6653   -9.5245  -16.9240 C   0  0  0  0  0  0  0  0  0  0  0  0
   18.5501   -8.9362  -17.1582 O   0  0  0  0  0  0  0  0  0  0  0  0
   20.6142   -8.7872  -16.1800 N   0  0  0  0  0  0  0  0  0  0  0  0
   20.3315   -7.4261  -15.7391 C   0  0  1  0  0  0  0  0  0  0  0  0
   21.2269   -7.0733  -14.5607 C   0  0  0  0  0  0  0  0  0  0  0  0
   21.0446   -5.6855  -14.0582 C   0  0  0  0  0  0  0  0  0  0  0  0
   21.8171   -5.3691  -12.8469 C   0  0  0  0  0  0  0  0  0  0  0  0
   22.5463   -4.3841  -12.6600 O   0  0  0  0  0  0  0  0  0  0  0  0
   20.6400   -6.5004  -16.8493 C   0  0  0  0  0  0  0  0  0  0  0  0
   19.8769   -5.3385  -17.0630 O   0  0  0  0  0  0  0  0  0  0  0  0
   21.7153   -6.2832  -11.7908 O   0  0  0  0  0  0  0  0  0  0  0  0
   21.5794   -6.7243  -17.6207 O   0  0  0  0  0  0  0  0  0  0  0  0
  2  3  1  0
  2  6  1  0
  2  1  1  1
  4  5  2  0
  4  3  1  0
  6  7  2  0
  8  4  1  0
 10  9  1  0
 10 12  1  0
 11 10  2  0
 13 12  1  0
 14 13  1  6
 15 14  1  0
 15  6  1  0
 16 17  2  0
 16 14  1  0
 18 16  1  0
 19 18  1  0
 19 20  1  1
 21 20  1  0
 21 22  1  0
 22 26  1  0
 23 22  2  0
 24 19  1  0
 25 24  1  0
 27 24  2  0
M  END
$$$$
