DQE.pdb
     RDKit          3D

 27 26  0  0  1  0  0  0  0  0999 V2000
   16.8659  -12.5527  -14.6226 N   0  0  0  0  0  0  0  0  0  0  0  0
   17.7341  -11.4293  -14.4165 C   0  0  1  0  0  0  0  0  0  0  0  0
   18.2768  -10.8785  -15.7161 C   0  0  0  0  0  0  0  0  0  0  0  0
   19.1271  -11.9075  -16.4105 C   0  0  0  0  0  0  0  0  0  0  0  0
   18.5981  -12.8943  -16.9815 O   0  0  0  0  0  0  0  0  0  0  0  0
   17.0634  -10.3969  -13.6091 C   0  0  0  0  0  0  0  0  0  0  0  0
   16.9929   -9.2006  -14.0383 O   0  0  0  0  0  0  0  0  0  0  0  0
   20.5010  -11.7333  -16.4002 O   0  0  0  0  0  0  0  0  0  0  0  0
   12.3419  -11.2992   -9.8377 N   0  0  0  0  0  0  0  0  0  0  0  0
   12.6179   -9.9576   -9.4919 C   0  0  0  0  0  0  0  0  0  0  0  0
   11.8442   -9.3094   -8.7548 O   0  0  0  0  0  0  0  0  0  0  0  0
   13.8657   -9.2622  -10.0070 C   0  0  0  0  0  0  0  0  0  0  0  0
   14.6750  -10.2553  -10.7766 C   0  0  0  0  0  0  0  0  0  0  0  0
   15.7289   -9.6023  -11.5984 C   0  0  2  0  0  0  0  0  0  0  0  0
   16.4697  -10.6379  -12.3486 N   0  0  0  0  0  0  0  0  0  0  0  0
   16.6406   -8.7555  -10.8532 C   0  0  0  0  0  0  0  0  0  0  0  0
   17.3637   -9.2985   -9.9438 O   0  0  0  0  0  0  0  0  0  0  0  0
   16.8177   -7.3661  -11.0426 N   0  0  0  0  0  0  0  0  0  0  0  0
   17.7766   -6.6138  -10.2418 C   0  0  1  0  0  0  0  0  0  0  0  0
   18.7826   -5.9305  -11.1561 C   0  0  0  0  0  0  0  0  0  0  0  0
   19.7519   -6.8628  -11.7909 C   0  0  0  0  0  0  0  0  0  0  0  0
   20.7167   -6.2172  -12.6945 C   0  0  0  0  0  0  0  0  0  0  0  0
   20.7693   -5.0168  -12.9995 O   0  0  0  0  0  0  0  0  0  0  0  0
   17.0454   -5.5692   -9.4942 C   0  0  0  0  0  0  0  0  0  0  0  0
   17.6424   -4.8915   -8.4161 O   0  0  0  0  0  0  0  0  0  0  0  0
   21.6803   -7.0536  -13.2719 O   0  0  0  0  0  0  0  0  0  0  0  0
   15.8870   -5.2636   -9.7982 O   0  0  0  0  0  0  0  0  0  0  0  0
  2  3  1  0
  2  6  1  0
  2  1  1  6
  4  5  2  0
  4  3  1  0
  6  7  2  0
  8  4  1  0
 10  9  1  0
 10 12  1  0
 11 10  2  0
 13 12  1  0
 14 13  1  1
 15 14  1  0
 15  6  1  0
 16 17  2  0
 16 14  1  0
 18 16  1  0
 19 18  1  0
 19 20  1  6
 21 20  1  0
 21 22  1  0
 22 26  1  0
 23 22  2  0
 24 19  1  0
 25 24  1  0
 27 24  2  0
M  END
$$$$
