DQE.pdb
     RDKit          3D

 27 26  0  0  1  0  0  0  0  0999 V2000
   14.1458  -12.9632  -11.2049 N   0  0  0  0  0  0  0  0  0  0  0  0
   15.2618  -12.1767  -11.6460 C   0  0  1  0  0  0  0  0  0  0  0  0
   15.6424  -12.4751  -13.0787 C   0  0  0  0  0  0  0  0  0  0  0  0
   16.8960  -11.7335  -13.4565 C   0  0  0  0  0  0  0  0  0  0  0  0
   17.5104  -11.0416  -12.6060 O   0  0  0  0  0  0  0  0  0  0  0  0
   15.0068  -10.7439  -11.4225 C   0  0  0  0  0  0  0  0  0  0  0  0
   14.1754  -10.1238  -12.1603 O   0  0  0  0  0  0  0  0  0  0  0  0
   17.3473  -11.8372  -14.7617 O   0  0  0  0  0  0  0  0  0  0  0  0
   12.1142   -8.1723   -7.5099 N   0  0  0  0  0  0  0  0  0  0  0  0
   12.8323   -6.9915   -7.8030 C   0  0  0  0  0  0  0  0  0  0  0  0
   12.5253   -5.9019   -7.2733 O   0  0  0  0  0  0  0  0  0  0  0  0
   14.0008   -7.0119   -8.7725 C   0  0  0  0  0  0  0  0  0  0  0  0
   14.3093   -8.4349   -9.1092 C   0  0  0  0  0  0  0  0  0  0  0  0
   15.3279   -8.5472  -10.1872 C   0  0  2  0  0  0  0  0  0  0  0  0
   15.6355   -9.9743  -10.4166 N   0  0  0  0  0  0  0  0  0  0  0  0
   16.5427   -7.7898   -9.9543 C   0  0  0  0  0  0  0  0  0  0  0  0
   17.3681   -8.2260   -9.0750 O   0  0  0  0  0  0  0  0  0  0  0  0
   16.9145   -6.6006  -10.6216 N   0  0  0  0  0  0  0  0  0  0  0  0
   18.2119   -5.9786  -10.3839 C   0  0  1  0  0  0  0  0  0  0  0  0
   19.1660   -6.3367  -11.5135 C   0  0  0  0  0  0  0  0  0  0  0  0
   20.4053   -5.5149  -11.5404 C   0  0  0  0  0  0  0  0  0  0  0  0
   21.2825   -5.7719  -12.6931 C   0  0  0  0  0  0  0  0  0  0  0  0
   21.1470   -6.6521  -13.5555 O   0  0  0  0  0  0  0  0  0  0  0  0
   18.0335   -4.5113  -10.3753 C   0  0  0  0  0  0  0  0  0  0  0  0
   18.9095   -3.6747   -9.6607 O   0  0  0  0  0  0  0  0  0  0  0  0
   22.3916   -4.9275  -12.8279 O   0  0  0  0  0  0  0  0  0  0  0  0
   17.1071   -3.9803  -10.9978 O   0  0  0  0  0  0  0  0  0  0  0  0
  2  3  1  0
  2  6  1  0
  2  1  1  6
  4  5  2  0
  4  3  1  0
  6  7  2  0
  8  4  1  0
 10  9  1  0
 10 12  1  0
 11 10  2  0
 13 12  1  0
 14 13  1  1
 15 14  1  0
 15  6  1  0
 16 17  2  0
 16 14  1  0
 18 16  1  0
 19 18  1  0
 19 20  1  6
 21 20  1  0
 21 22  1  0
 22 26  1  0
 23 22  2  0
 24 19  1  0
 25 24  1  0
 27 24  2  0
M  END
$$$$
