DQE.pdb
     RDKit          3D

 27 26  0  0  1  0  0  0  0  0999 V2000
   26.1308  -15.2018  -18.9715 N   0  0  0  0  0  0  0  0  0  0  0  0
   27.0298  -14.4557  -19.8042 C   0  0  1  0  0  0  0  0  0  0  0  0
   26.3890  -13.2050  -20.3626 C   0  0  0  0  0  0  0  0  0  0  0  0
   25.1747  -13.5545  -21.1796 C   0  0  0  0  0  0  0  0  0  0  0  0
   24.0487  -13.0792  -20.8867 O   0  0  0  0  0  0  0  0  0  0  0  0
   28.2833  -14.1688  -19.0872 C   0  0  0  0  0  0  0  0  0  0  0  0
   28.2467  -13.6406  -17.9297 O   0  0  0  0  0  0  0  0  0  0  0  0
   25.3368  -14.4101  -22.2565 O   0  0  0  0  0  0  0  0  0  0  0  0
   32.2380  -17.9586  -18.3209 N   0  0  0  0  0  0  0  0  0  0  0  0
   31.7476  -17.6798  -19.6161 C   0  0  0  0  0  0  0  0  0  0  0  0
   31.6187  -18.5871  -20.4659 O   0  0  0  0  0  0  0  0  0  0  0  0
   31.3619  -16.2661  -20.0144 C   0  0  0  0  0  0  0  0  0  0  0  0
   31.6920  -15.3502  -18.8806 C   0  0  0  0  0  0  0  0  0  0  0  0
   30.8134  -14.1504  -18.8559 C   0  0  2  0  0  0  0  0  0  0  0  0
   29.5715  -14.4437  -19.6014 N   0  0  0  0  0  0  0  0  0  0  0  0
   31.4336  -12.9348  -19.3470 C   0  0  0  0  0  0  0  0  0  0  0  0
   31.4316  -12.7233  -20.6119 O   0  0  0  0  0  0  0  0  0  0  0  0
   32.0434  -11.9393  -18.5501 N   0  0  0  0  0  0  0  0  0  0  0  0
   32.6391  -10.7529  -19.1536 C   0  0  1  0  0  0  0  0  0  0  0  0
   32.4617   -9.5617  -18.2239 C   0  0  0  0  0  0  0  0  0  0  0  0
   31.0533   -9.1018  -18.0939 C   0  0  0  0  0  0  0  0  0  0  0  0
   30.8730   -7.9268  -17.2274 C   0  0  0  0  0  0  0  0  0  0  0  0
   31.6095   -7.5605  -16.2998 O   0  0  0  0  0  0  0  0  0  0  0  0
   34.0870  -10.9929  -19.3285 C   0  0  0  0  0  0  0  0  0  0  0  0
   34.8866  -10.1119  -20.0784 O   0  0  0  0  0  0  0  0  0  0  0  0
   29.7444   -7.1374  -17.4809 O   0  0  0  0  0  0  0  0  0  0  0  0
   34.6339  -11.9771  -18.8186 O   0  0  0  0  0  0  0  0  0  0  0  0
  2  3  1  0
  2  6  1  0
  2  1  1  1
  4  5  2  0
  4  3  1  0
  6  7  2  0
  8  4  1  0
 10  9  1  0
 10 12  1  0
 11 10  2  0
 13 12  1  0
 14 13  1  6
 15 14  1  0
 15  6  1  0
 16 17  2  0
 16 14  1  0
 18 16  1  0
 19 18  1  0
 19 20  1  1
 21 20  1  0
 21 22  1  0
 22 26  1  0
 23 22  2  0
 24 19  1  0
 25 24  1  0
 27 24  2  0
M  END
$$$$
