DQE.pdb
     RDKit          3D

 27 26  0  0  1  0  0  0  0  0999 V2000
   18.4735  -14.7860  -18.1599 N   0  0  0  0  0  0  0  0  0  0  0  0
   19.3683  -13.9433  -17.4199 C   0  0  1  0  0  0  0  0  0  0  0  0
   20.7840  -14.0077  -17.9476 C   0  0  0  0  0  0  0  0  0  0  0  0
   21.3153  -15.4128  -17.8615 C   0  0  0  0  0  0  0  0  0  0  0  0
   21.0649  -16.1308  -16.8608 O   0  0  0  0  0  0  0  0  0  0  0  0
   18.8551  -12.5645  -17.3642 C   0  0  0  0  0  0  0  0  0  0  0  0
   17.7760  -12.2632  -17.9683 O   0  0  0  0  0  0  0  0  0  0  0  0
   22.0833  -15.8857  -18.9125 O   0  0  0  0  0  0  0  0  0  0  0  0
   15.1199   -9.7253  -14.9514 N   0  0  0  0  0  0  0  0  0  0  0  0
   16.1274  -10.2528  -14.1132 C   0  0  0  0  0  0  0  0  0  0  0  0
   15.9246  -10.4269  -12.8922 O   0  0  0  0  0  0  0  0  0  0  0  0
   17.4892  -10.6247  -14.6726 C   0  0  0  0  0  0  0  0  0  0  0  0
   17.5469  -10.1891  -16.1010 C   0  0  0  0  0  0  0  0  0  0  0  0
   18.9418  -10.1384  -16.6150 C   0  0  2  0  0  0  0  0  0  0  0  0
   19.4892  -11.5101  -16.6674 N   0  0  0  0  0  0  0  0  0  0  0  0
   19.8278   -9.2584  -15.8773 C   0  0  0  0  0  0  0  0  0  0  0  0
   20.5394   -9.7653  -14.9385 O   0  0  0  0  0  0  0  0  0  0  0  0
   19.9912   -7.8729  -16.1037 N   0  0  0  0  0  0  0  0  0  0  0  0
   21.0054   -7.1079  -15.3875 C   0  0  1  0  0  0  0  0  0  0  0  0
   21.0147   -5.6724  -15.8915 C   0  0  0  0  0  0  0  0  0  0  0  0
   22.0158   -4.8027  -15.2184 C   0  0  0  0  0  0  0  0  0  0  0  0
   22.0349   -3.4117  -15.6967 C   0  0  0  0  0  0  0  0  0  0  0  0
   21.3398   -2.9202  -16.5979 O   0  0  0  0  0  0  0  0  0  0  0  0
   20.6540   -7.0930  -13.9519 C   0  0  0  0  0  0  0  0  0  0  0  0
   21.6454   -6.9888  -12.9599 O   0  0  0  0  0  0  0  0  0  0  0  0
   22.9390   -2.5507  -15.0620 O   0  0  0  0  0  0  0  0  0  0  0  0
   19.4763   -7.1719  -13.5853 O   0  0  0  0  0  0  0  0  0  0  0  0
  2  3  1  0
  2  6  1  0
  2  1  1  6
  4  5  2  0
  4  3  1  0
  6  7  2  0
  8  4  1  0
 10  9  1  0
 10 12  1  0
 11 10  2  0
 13 12  1  0
 14 13  1  1
 15 14  1  0
 15  6  1  0
 16 17  2  0
 16 14  1  0
 18 16  1  0
 19 18  1  0
 19 20  1  6
 21 20  1  0
 21 22  1  0
 22 26  1  0
 23 22  2  0
 24 19  1  0
 25 24  1  0
 27 24  2  0
M  END
$$$$
