DQE.pdb
     RDKit          3D

 27 26  0  0  1  0  0  0  0  0999 V2000
   26.7868  -20.5734  -15.8395 N   0  0  0  0  0  0  0  0  0  0  0  0
   26.2491  -21.8758  -15.5691 C   0  0  1  0  0  0  0  0  0  0  0  0
   27.3246  -22.9365  -15.4993 C   0  0  0  0  0  0  0  0  0  0  0  0
   28.2678  -22.8085  -16.6647 C   0  0  0  0  0  0  0  0  0  0  0  0
   29.1966  -23.6390  -16.8297 O   0  0  0  0  0  0  0  0  0  0  0  0
   25.4109  -21.8496  -14.3590 C   0  0  0  0  0  0  0  0  0  0  0  0
   24.7158  -22.8688  -14.0453 O   0  0  0  0  0  0  0  0  0  0  0  0
   28.0806  -21.7542  -17.5430 O   0  0  0  0  0  0  0  0  0  0  0  0
   24.7860  -20.9498   -8.7847 N   0  0  0  0  0  0  0  0  0  0  0  0
   26.0678  -20.9972   -9.3767 C   0  0  0  0  0  0  0  0  0  0  0  0
   27.0270  -21.5478   -8.7945 O   0  0  0  0  0  0  0  0  0  0  0  0
   26.3181  -20.3791  -10.7409 C   0  0  0  0  0  0  0  0  0  0  0  0
   25.0229  -19.8449  -11.2612 C   0  0  0  0  0  0  0  0  0  0  0  0
   24.4303  -20.7278  -12.3011 C   0  0  2  0  0  0  0  0  0  0  0  0
   25.3135  -20.7416  -13.4859 N   0  0  0  0  0  0  0  0  0  0  0  0
   23.0700  -20.3930  -12.6770 C   0  0  0  0  0  0  0  0  0  0  0  0
   22.1788  -20.3599  -11.7555 O   0  0  0  0  0  0  0  0  0  0  0  0
   22.6268  -20.0860  -13.9835 N   0  0  0  0  0  0  0  0  0  0  0  0
   21.2266  -19.7770  -14.2497 C   0  0  1  0  0  0  0  0  0  0  0  0
   21.0602  -19.3700  -15.7062 C   0  0  0  0  0  0  0  0  0  0  0  0
   19.6519  -19.0997  -16.1004 C   0  0  0  0  0  0  0  0  0  0  0  0
   19.4707  -18.7583  -17.5198 C   0  0  0  0  0  0  0  0  0  0  0  0
   19.3623  -19.5456  -18.4713 O   0  0  0  0  0  0  0  0  0  0  0  0
   20.4249  -20.9963  -14.0146 C   0  0  0  0  0  0  0  0  0  0  0  0
   20.9314  -22.2720  -14.3209 O   0  0  0  0  0  0  0  0  0  0  0  0
   19.4150  -17.3929  -17.8263 O   0  0  0  0  0  0  0  0  0  0  0  0
   19.2853  -20.9258  -13.5413 O   0  0  0  0  0  0  0  0  0  0  0  0
  2  3  1  0
  2  6  1  0
  2  1  1  1
  4  5  2  0
  4  3  1  0
  6  7  2  0
  8  4  1  0
 10  9  1  0
 10 12  1  0
 11 10  2  0
 13 12  1  0
 14 13  1  1
 15 14  1  0
 15  6  1  0
 16 17  2  0
 16 14  1  0
 18 16  1  0
 19 18  1  0
 19 20  1  6
 21 20  1  0
 21 22  1  0
 22 26  1  0
 23 22  2  0
 24 19  1  0
 25 24  1  0
 27 24  2  0
M  END
$$$$
