DQE.pdb
     RDKit          3D

 27 26  0  0  1  0  0  0  0  0999 V2000
   28.0246  -22.3390  -16.5750 N   0  0  0  0  0  0  0  0  0  0  0  0
   27.4401  -21.0810  -16.2089 C   0  0  1  0  0  0  0  0  0  0  0  0
   26.9261  -20.3172  -17.4085 C   0  0  0  0  0  0  0  0  0  0  0  0
   28.0722  -19.7808  -18.2227 C   0  0  0  0  0  0  0  0  0  0  0  0
   28.7756  -20.5523  -18.9223 O   0  0  0  0  0  0  0  0  0  0  0  0
   26.4031  -21.2707  -15.1811 C   0  0  0  0  0  0  0  0  0  0  0  0
   25.5623  -22.2196  -15.2943 O   0  0  0  0  0  0  0  0  0  0  0  0
   28.3249  -18.4199  -18.1764 O   0  0  0  0  0  0  0  0  0  0  0  0
   26.3369  -21.9994  -10.0427 N   0  0  0  0  0  0  0  0  0  0  0  0
   25.0965  -21.3671   -9.8032 C   0  0  0  0  0  0  0  0  0  0  0  0
   24.3372  -21.7610   -8.8919 O   0  0  0  0  0  0  0  0  0  0  0  0
   24.6486  -20.1875  -10.6480 C   0  0  0  0  0  0  0  0  0  0  0  0
   25.6416  -19.9910  -11.7475 C   0  0  0  0  0  0  0  0  0  0  0  0
   25.2435  -20.6975  -12.9944 C   0  0  2  0  0  0  0  0  0  0  0  0
   26.2621  -20.4523  -14.0367 N   0  0  0  0  0  0  0  0  0  0  0  0
   23.9182  -20.3664  -13.4819 C   0  0  0  0  0  0  0  0  0  0  0  0
   23.7112  -19.1749  -13.9088 O   0  0  0  0  0  0  0  0  0  0  0  0
   22.8160  -21.2492  -13.5404 N   0  0  0  0  0  0  0  0  0  0  0  0
   21.5113  -20.7938  -14.0062 C   0  0  1  0  0  0  0  0  0  0  0  0
   20.7159  -21.9770  -14.5376 C   0  0  0  0  0  0  0  0  0  0  0  0
   21.1871  -22.4776  -15.8564 C   0  0  0  0  0  0  0  0  0  0  0  0
   20.4508  -23.6459  -16.3637 C   0  0  0  0  0  0  0  0  0  0  0  0
   19.2539  -23.6958  -16.6827 O   0  0  0  0  0  0  0  0  0  0  0  0
   20.7778  -20.2203  -12.8582 C   0  0  0  0  0  0  0  0  0  0  0  0
   19.7442  -19.2856  -13.0471 O   0  0  0  0  0  0  0  0  0  0  0  0
   21.1858  -24.8302  -16.4998 O   0  0  0  0  0  0  0  0  0  0  0  0
   21.0551  -20.5484  -11.6993 O   0  0  0  0  0  0  0  0  0  0  0  0
  2  3  1  0
  2  6  1  0
  2  1  1  6
  4  5  2  0
  4  3  1  0
  6  7  2  0
  8  4  1  0
 10  9  1  0
 10 12  1  0
 11 10  2  0
 13 12  1  0
 14 13  1  1
 15 14  1  0
 15  6  1  0
 16 17  2  0
 16 14  1  0
 18 16  1  0
 19 18  1  0
 19 20  1  1
 21 20  1  0
 21 22  1  0
 22 26  1  0
 23 22  2  0
 24 19  1  0
 25 24  1  0
 27 24  2  0
M  END
$$$$
