DQE.pdb
     RDKit          3D

 27 26  0  0  1  0  0  0  0  0999 V2000
   15.3417  -12.6807  -14.2413 N   0  0  0  0  0  0  0  0  0  0  0  0
   15.7363  -12.5339  -12.8698 C   0  0  1  0  0  0  0  0  0  0  0  0
   17.1248  -13.0745  -12.6120 C   0  0  0  0  0  0  0  0  0  0  0  0
   17.1577  -14.5643  -12.8212 C   0  0  0  0  0  0  0  0  0  0  0  0
   18.0318  -15.0873  -13.5574 O   0  0  0  0  0  0  0  0  0  0  0  0
   15.5922  -11.1344  -12.4358 C   0  0  0  0  0  0  0  0  0  0  0  0
   15.8187  -10.1881  -13.2564 O   0  0  0  0  0  0  0  0  0  0  0  0
   16.2011  -15.3344  -12.1810 O   0  0  0  0  0  0  0  0  0  0  0  0
   11.6023   -9.1497   -8.2179 N   0  0  0  0  0  0  0  0  0  0  0  0
   12.2281   -7.9235   -8.5350 C   0  0  0  0  0  0  0  0  0  0  0  0
   11.7855   -6.8408   -8.0943 O   0  0  0  0  0  0  0  0  0  0  0  0
   13.4595   -7.8850   -9.4226 C   0  0  0  0  0  0  0  0  0  0  0  0
   13.7976   -9.2852   -9.8208 C   0  0  0  0  0  0  0  0  0  0  0  0
   14.9520   -9.3379  -10.7572 C   0  0  2  0  0  0  0  0  0  0  0  0
   15.2082  -10.7443  -11.1321 N   0  0  0  0  0  0  0  0  0  0  0  0
   16.1618   -8.7082  -10.2638 C   0  0  0  0  0  0  0  0  0  0  0  0
   16.8124   -9.2977   -9.3291 O   0  0  0  0  0  0  0  0  0  0  0  0
   16.7064   -7.4896  -10.7288 N   0  0  0  0  0  0  0  0  0  0  0  0
   18.0075   -7.0217  -10.2653 C   0  0  1  0  0  0  0  0  0  0  0  0
   18.9242   -6.7938  -11.4581 C   0  0  0  0  0  0  0  0  0  0  0  0
   20.1916   -6.0929  -11.1202 C   0  0  0  0  0  0  0  0  0  0  0  0
   21.0351   -5.7650  -12.2800 C   0  0  0  0  0  0  0  0  0  0  0  0
   22.1052   -5.1392  -12.2744 O   0  0  0  0  0  0  0  0  0  0  0  0
   17.8208   -5.7304   -9.5707 C   0  0  0  0  0  0  0  0  0  0  0  0
   18.7399   -5.2827   -8.6050 O   0  0  0  0  0  0  0  0  0  0  0  0
   20.5757   -6.2103  -13.5258 O   0  0  0  0  0  0  0  0  0  0  0  0
   16.8492   -5.0088   -9.8216 O   0  0  0  0  0  0  0  0  0  0  0  0
  2  3  1  0
  2  6  1  0
  2  1  1  6
  4  5  2  0
  4  3  1  0
  6  7  2  0
  8  4  1  0
 10  9  1  0
 10 12  1  0
 11 10  2  0
 13 12  1  0
 14 13  1  1
 15 14  1  0
 15  6  1  0
 16 17  2  0
 16 14  1  0
 18 16  1  0
 19 18  1  0
 19 20  1  6
 21 20  1  0
 21 22  1  0
 22 26  1  0
 23 22  2  0
 24 19  1  0
 25 24  1  0
 27 24  2  0
M  END
$$$$
