DQE.pdb
     RDKit          3D

 27 26  0  0  1  0  0  0  0  0999 V2000
   16.5788  -14.0931  -16.7715 N   0  0  0  0  0  0  0  0  0  0  0  0
   16.6436  -13.1561  -15.6870 C   0  0  1  0  0  0  0  0  0  0  0  0
   17.6813  -13.5424  -14.6572 C   0  0  0  0  0  0  0  0  0  0  0  0
   17.3223  -14.8542  -14.0134 C   0  0  0  0  0  0  0  0  0  0  0  0
   16.1805  -15.0326  -13.5195 O   0  0  0  0  0  0  0  0  0  0  0  0
   16.8425  -11.7884  -16.1946 C   0  0  0  0  0  0  0  0  0  0  0  0
   17.6386  -11.5806  -17.1658 O   0  0  0  0  0  0  0  0  0  0  0  0
   18.2834  -15.8509  -13.9831 O   0  0  0  0  0  0  0  0  0  0  0  0
   13.2616   -6.7720  -15.0028 N   0  0  0  0  0  0  0  0  0  0  0  0
   14.3013   -6.1741  -15.7493 C   0  0  0  0  0  0  0  0  0  0  0  0
   14.2621   -4.9625  -16.0537 O   0  0  0  0  0  0  0  0  0  0  0  0
   15.4996   -6.9880  -16.2047 C   0  0  0  0  0  0  0  0  0  0  0  0
   15.3016   -8.4034  -15.7678 C   0  0  0  0  0  0  0  0  0  0  0  0
   16.4242   -9.2824  -16.1915 C   0  0  2  0  0  0  0  0  0  0  0  0
   16.1955  -10.6460  -15.6695 N   0  0  0  0  0  0  0  0  0  0  0  0
   17.7420   -8.8036  -15.8206 C   0  0  0  0  0  0  0  0  0  0  0  0
   18.1907   -9.1070  -14.6582 O   0  0  0  0  0  0  0  0  0  0  0  0
   18.5977   -8.0281  -16.6355 N   0  0  0  0  0  0  0  0  0  0  0  0
   19.9307   -7.6499  -16.1807 C   0  0  1  0  0  0  0  0  0  0  0  0
   20.7854   -7.2525  -17.3750 C   0  0  0  0  0  0  0  0  0  0  0  0
   22.1815   -6.8812  -17.0214 C   0  0  0  0  0  0  0  0  0  0  0  0
   23.0371   -6.5581  -18.1737 C   0  0  0  0  0  0  0  0  0  0  0  0
   22.7196   -6.5815  -19.3718 O   0  0  0  0  0  0  0  0  0  0  0  0
   19.8065   -6.4777  -15.2889 C   0  0  0  0  0  0  0  0  0  0  0  0
   20.7252   -6.2533  -14.2479 O   0  0  0  0  0  0  0  0  0  0  0  0
   24.3544   -6.1833  -17.8814 O   0  0  0  0  0  0  0  0  0  0  0  0
   18.8894   -5.6623  -15.4355 O   0  0  0  0  0  0  0  0  0  0  0  0
  2  3  1  0
  2  6  1  0
  2  1  1  6
  4  5  2  0
  4  3  1  0
  6  7  2  0
  8  4  1  0
 10  9  1  0
 10 12  1  0
 11 10  2  0
 13 12  1  0
 14 13  1  1
 15 14  1  0
 15  6  1  0
 16 17  2  0
 16 14  1  0
 18 16  1  0
 19 18  1  0
 19 20  1  6
 21 20  1  0
 21 22  1  0
 22 26  1  0
 23 22  2  0
 24 19  1  0
 25 24  1  0
 27 24  2  0
M  END
$$$$
