DQE.pdb
     RDKit          3D

 27 26  0  0  1  0  0  0  0  0999 V2000
   14.1735  -13.1368  -14.5106 N   0  0  0  0  0  0  0  0  0  0  0  0
   14.2106  -11.7205  -14.7367 C   0  0  1  0  0  0  0  0  0  0  0  0
   13.4230  -10.9536  -13.6984 C   0  0  0  0  0  0  0  0  0  0  0  0
   11.9458  -11.1547  -13.9026 C   0  0  0  0  0  0  0  0  0  0  0  0
   11.5238  -11.9339  -14.7938 O   0  0  0  0  0  0  0  0  0  0  0  0
   15.6012  -11.2489  -14.8438 C   0  0  0  0  0  0  0  0  0  0  0  0
   16.4750  -11.6523  -14.0108 O   0  0  0  0  0  0  0  0  0  0  0  0
   11.0730  -10.4586  -13.0829 O   0  0  0  0  0  0  0  0  0  0  0  0
   18.8108  -10.6990  -19.8895 N   0  0  0  0  0  0  0  0  0  0  0  0
   18.5226  -11.8268  -19.0890 C   0  0  0  0  0  0  0  0  0  0  0  0
   18.6124  -12.9849  -19.5503 O   0  0  0  0  0  0  0  0  0  0  0  0
   18.0940  -11.6643  -17.6413 C   0  0  0  0  0  0  0  0  0  0  0  0
   17.9285  -10.2060  -17.3595 C   0  0  0  0  0  0  0  0  0  0  0  0
   17.4769   -9.9529  -15.9651 C   0  0  2  0  0  0  0  0  0  0  0  0
   16.0595  -10.3505  -15.8350 N   0  0  0  0  0  0  0  0  0  0  0  0
   17.6746   -8.5929  -15.5015 C   0  0  0  0  0  0  0  0  0  0  0  0
   16.6497   -7.8261  -15.4220 O   0  0  0  0  0  0  0  0  0  0  0  0
   18.9093   -8.0244  -15.1141 N   0  0  0  0  0  0  0  0  0  0  0  0
   18.9918   -6.6394  -14.6648 C   0  0  1  0  0  0  0  0  0  0  0  0
   20.3712   -6.3719  -14.0813 C   0  0  0  0  0  0  0  0  0  0  0  0
   20.5725   -4.9707  -13.6254 C   0  0  0  0  0  0  0  0  0  0  0  0
   21.8962   -4.7034  -13.0418 C   0  0  0  0  0  0  0  0  0  0  0  0
   22.6870   -5.5326  -12.5686 O   0  0  0  0  0  0  0  0  0  0  0  0
   18.8038   -5.7555  -15.8344 C   0  0  0  0  0  0  0  0  0  0  0  0
   18.2034   -4.4905  -15.7030 O   0  0  0  0  0  0  0  0  0  0  0  0
   22.3046   -3.3640  -13.0200 O   0  0  0  0  0  0  0  0  0  0  0  0
   19.1705   -6.1063  -16.9614 O   0  0  0  0  0  0  0  0  0  0  0  0
  2  3  1  0
  2  6  1  0
  2  1  1  1
  4  5  2  0
  4  3  1  0
  6  7  2  0
  8  4  1  0
 10  9  1  0
 10 12  1  0
 11 10  2  0
 13 12  1  0
 14 13  1  6
 15 14  1  0
 15  6  1  0
 16 17  2  0
 16 14  1  0
 18 16  1  0
 19 18  1  0
 19 20  1  6
 21 20  1  0
 21 22  1  0
 22 26  1  0
 23 22  2  0
 24 19  1  0
 25 24  1  0
 27 24  2  0
M  END
$$$$
