DQE.pdb
     RDKit          3D

 27 26  0  0  1  0  0  0  0  0999 V2000
   16.0425  -11.6813  -12.8995 N   0  0  0  0  0  0  0  0  0  0  0  0
   15.8994  -10.8130  -14.0325 C   0  0  1  0  0  0  0  0  0  0  0  0
   14.5178  -10.8899  -14.6424 C   0  0  0  0  0  0  0  0  0  0  0  0
   14.1919  -12.3061  -15.0327 C   0  0  0  0  0  0  0  0  0  0  0  0
   15.0054  -12.9868  -15.7069 O   0  0  0  0  0  0  0  0  0  0  0  0
   16.2787   -9.4346  -13.6805 C   0  0  0  0  0  0  0  0  0  0  0  0
   16.3210   -8.5372  -14.5822 O   0  0  0  0  0  0  0  0  0  0  0  0
   12.9759  -12.8311  -14.6281 O   0  0  0  0  0  0  0  0  0  0  0  0
   16.0555   -6.4685   -8.1215 N   0  0  0  0  0  0  0  0  0  0  0  0
   14.9807   -6.5341   -9.0360 C   0  0  0  0  0  0  0  0  0  0  0  0
   13.8241   -6.2038   -8.6965 O   0  0  0  0  0  0  0  0  0  0  0  0
   15.2000   -7.0088  -10.4616 C   0  0  0  0  0  0  0  0  0  0  0  0
   16.6477   -7.3388  -10.6311 C   0  0  0  0  0  0  0  0  0  0  0  0
   16.9948   -7.6233  -12.0492 C   0  0  2  0  0  0  0  0  0  0  0  0
   16.6119   -9.0136  -12.3725 N   0  0  0  0  0  0  0  0  0  0  0  0
   18.3820   -7.3780  -12.3945 C   0  0  0  0  0  0  0  0  0  0  0  0
   19.2341   -8.3106  -12.1738 O   0  0  0  0  0  0  0  0  0  0  0  0
   18.8920   -6.1915  -12.9690 N   0  0  0  0  0  0  0  0  0  0  0  0
   20.2728   -6.1127  -13.4313 C   0  0  1  0  0  0  0  0  0  0  0  0
   20.3685   -5.1359  -14.5939 C   0  0  0  0  0  0  0  0  0  0  0  0
   21.7540   -4.9222  -15.0903 C   0  0  0  0  0  0  0  0  0  0  0  0
   21.8581   -3.9939  -16.2268 C   0  0  0  0  0  0  0  0  0  0  0  0
   20.9256   -3.4647  -16.8492 O   0  0  0  0  0  0  0  0  0  0  0  0
   21.1088   -5.6002  -12.3252 C   0  0  0  0  0  0  0  0  0  0  0  0
   22.4959   -5.8297  -12.2932 O   0  0  0  0  0  0  0  0  0  0  0  0
   23.1546   -3.6751  -16.6496 O   0  0  0  0  0  0  0  0  0  0  0  0
   20.6086   -4.9549  -11.3973 O   0  0  0  0  0  0  0  0  0  0  0  0
  2  3  1  0
  2  6  1  0
  2  1  1  1
  4  5  2  0
  4  3  1  0
  6  7  2  0
  8  4  1  0
 10  9  1  0
 10 12  1  0
 11 10  2  0
 13 12  1  0
 14 13  1  1
 15 14  1  0
 15  6  1  0
 16 17  2  0
 16 14  1  0
 18 16  1  0
 19 18  1  0
 19 20  1  6
 21 20  1  0
 21 22  1  0
 22 26  1  0
 23 22  2  0
 24 19  1  0
 25 24  1  0
 27 24  2  0
M  END
$$$$
