DQE.pdb
     RDKit          3D

 27 26  0  0  1  0  0  0  0  0999 V2000
   16.6273  -12.4612  -14.4504 N   0  0  0  0  0  0  0  0  0  0  0  0
   16.2621  -11.3333  -15.2585 C   0  0  1  0  0  0  0  0  0  0  0  0
   14.7773  -11.0512  -15.2110 C   0  0  0  0  0  0  0  0  0  0  0  0
   14.0412  -11.9364  -16.1798 C   0  0  0  0  0  0  0  0  0  0  0  0
   14.6288  -12.4140  -17.1829 O   0  0  0  0  0  0  0  0  0  0  0  0
   17.0667  -10.1544  -14.8972 C   0  0  0  0  0  0  0  0  0  0  0  0
   16.8876   -9.5829  -13.7740 O   0  0  0  0  0  0  0  0  0  0  0  0
   12.7055  -12.2059  -15.9322 O   0  0  0  0  0  0  0  0  0  0  0  0
   22.8681   -9.2109  -16.6515 N   0  0  0  0  0  0  0  0  0  0  0  0
   22.6658   -8.0560  -15.8635 C   0  0  0  0  0  0  0  0  0  0  0  0
   23.6267   -7.3369  -15.5147 O   0  0  0  0  0  0  0  0  0  0  0  0
   21.2715   -7.6537  -15.4162 C   0  0  0  0  0  0  0  0  0  0  0  0
   20.3210   -8.7409  -15.8009 C   0  0  0  0  0  0  0  0  0  0  0  0
   18.9476   -8.4916  -15.2872 C   0  0  2  0  0  0  0  0  0  0  0  0
   18.0586   -9.5863  -15.7294 N   0  0  0  0  0  0  0  0  0  0  0  0
   18.3917   -7.2007  -15.6451 C   0  0  0  0  0  0  0  0  0  0  0  0
   17.4284   -7.1707  -16.4911 O   0  0  0  0  0  0  0  0  0  0  0  0
   18.8119   -5.9512  -15.1353 N   0  0  0  0  0  0  0  0  0  0  0  0
   18.1985   -4.7086  -15.5895 C   0  0  1  0  0  0  0  0  0  0  0  0
   16.8739   -4.4990  -14.8710 C   0  0  0  0  0  0  0  0  0  0  0  0
   16.2622   -3.1646  -15.1097 C   0  0  0  0  0  0  0  0  0  0  0  0
   15.0291   -2.9139  -14.3476 C   0  0  0  0  0  0  0  0  0  0  0  0
   14.8510   -2.0524  -13.4741 O   0  0  0  0  0  0  0  0  0  0  0  0
   19.0972   -3.5879  -15.2413 C   0  0  0  0  0  0  0  0  0  0  0  0
   18.9275   -2.3134  -15.8112 O   0  0  0  0  0  0  0  0  0  0  0  0
   13.9387   -3.7412  -14.6438 O   0  0  0  0  0  0  0  0  0  0  0  0
   20.0238   -3.7426  -14.4381 O   0  0  0  0  0  0  0  0  0  0  0  0
  2  3  1  0
  2  6  1  0
  2  1  1  1
  4  5  2  0
  4  3  1  0
  6  7  2  0
  8  4  1  0
 10  9  1  0
 10 12  1  0
 11 10  2  0
 13 12  1  0
 14 13  1  6
 15 14  1  0
 15  6  1  0
 16 17  2  0
 16 14  1  0
 18 16  1  0
 19 18  1  0
 19 20  1  1
 21 20  1  0
 21 22  1  0
 22 26  1  0
 23 22  2  0
 24 19  1  0
 25 24  1  0
 27 24  2  0
M  END
$$$$
