DQE.pdb
     RDKit          3D

 27 26  0  0  1  0  0  0  0  0999 V2000
   18.7736  -14.3869  -18.0410 N   0  0  0  0  0  0  0  0  0  0  0  0
   18.6012  -13.7691  -16.7577 C   0  0  1  0  0  0  0  0  0  0  0  0
   19.6882  -14.1613  -15.7823 C   0  0  0  0  0  0  0  0  0  0  0  0
   19.6843  -15.6493  -15.5590 C   0  0  0  0  0  0  0  0  0  0  0  0
   18.6109  -16.2566  -15.3165 O   0  0  0  0  0  0  0  0  0  0  0  0
   18.4768  -12.3088  -16.8979 C   0  0  0  0  0  0  0  0  0  0  0  0
   19.0006  -11.7193  -17.8971 O   0  0  0  0  0  0  0  0  0  0  0  0
   20.8924  -16.3228  -15.6286 O   0  0  0  0  0  0  0  0  0  0  0  0
   13.9209   -8.7728  -14.6685 N   0  0  0  0  0  0  0  0  0  0  0  0
   14.7713   -7.7652  -15.1758 C   0  0  0  0  0  0  0  0  0  0  0  0
   14.4328   -6.5623  -15.1498 O   0  0  0  0  0  0  0  0  0  0  0  0
   16.1248   -8.1150  -15.7687 C   0  0  0  0  0  0  0  0  0  0  0  0
   16.3250   -9.5911  -15.6479 C   0  0  0  0  0  0  0  0  0  0  0  0
   17.6522  -10.0203  -16.1645 C   0  0  2  0  0  0  0  0  0  0  0  0
   17.7966  -11.4791  -15.9768 N   0  0  0  0  0  0  0  0  0  0  0  0
   18.7824   -9.3135  -15.5930 C   0  0  0  0  0  0  0  0  0  0  0  0
   19.2939   -9.7676  -14.5082 O   0  0  0  0  0  0  0  0  0  0  0  0
   19.3901   -8.1565  -16.1314 N   0  0  0  0  0  0  0  0  0  0  0  0
   20.5669   -7.5645  -15.5060 C   0  0  1  0  0  0  0  0  0  0  0  0
   21.2153   -6.5781  -16.4659 C   0  0  0  0  0  0  0  0  0  0  0  0
   22.0752   -7.2165  -17.4979 C   0  0  0  0  0  0  0  0  0  0  0  0
   22.7048   -6.2737  -18.4353 C   0  0  0  0  0  0  0  0  0  0  0  0
   23.8538   -5.8122  -18.3744 O   0  0  0  0  0  0  0  0  0  0  0  0
   20.1351   -6.8239  -14.3019 C   0  0  0  0  0  0  0  0  0  0  0  0
   21.0618   -6.4155  -13.3260 O   0  0  0  0  0  0  0  0  0  0  0  0
   21.9167   -5.8532  -19.5140 O   0  0  0  0  0  0  0  0  0  0  0  0
   18.9449   -6.5438  -14.1212 O   0  0  0  0  0  0  0  0  0  0  0  0
  2  3  1  0
  2  6  1  0
  2  1  1  6
  4  5  2  0
  4  3  1  0
  6  7  2  0
  8  4  1  0
 10  9  1  0
 10 12  1  0
 11 10  2  0
 13 12  1  0
 14 13  1  1
 15 14  1  0
 15  6  1  0
 16 17  2  0
 16 14  1  0
 18 16  1  0
 19 18  1  0
 19 20  1  6
 21 20  1  0
 21 22  1  0
 22 26  1  0
 23 22  2  0
 24 19  1  0
 25 24  1  0
 27 24  2  0
M  END
$$$$
