CYE.pdb
     RDKit          3D

 28 28  0  0  1  0  0  0  0  0999 V2000
    9.9790  -16.5541   18.5118 N   0  0  0  0  0  0  0  0  0  0  0  0
    8.9130  -16.8150   19.4802 C   0  0  1  0  0  0  0  0  0  0  0  0
    8.8735  -18.3270   19.6655 C   0  0  0  0  0  0  0  0  0  0  0  0
    7.8309  -19.1254   18.4278 S   0  0  0  0  0  0  0  0  0  0  0  0
    9.1979  -16.1267   20.7474 C   0  0  0  0  0  0  0  0  0  0  0  0
   10.3955  -16.1006   21.1435 O   0  0  0  0  0  0  0  0  0  0  0  0
    6.9779  -11.8819   28.3797 O   0  0  0  0  0  0  0  0  0  0  0  0
    7.0640  -12.3968   27.0867 C   0  0  0  0  0  0  0  0  0  0  0  0
    7.8729  -11.8347   26.1297 C   0  0  0  0  0  0  0  0  0  0  0  0
    7.9168  -12.3934   24.8566 C   0  0  0  0  0  0  0  0  0  0  0  0
    7.1848  -13.4957   24.4928 C   0  0  0  0  0  0  0  0  0  0  0  0
    7.2339  -14.0888   23.1549 C   0  0  0  0  0  0  0  0  0  0  0  0
    8.4730  -14.8506   22.7972 C   0  0  2  0  0  0  0  0  0  0  0  0
    8.1834  -15.5165   21.4992 N   0  0  0  0  0  0  0  0  0  0  0  0
    8.8908  -15.8863   23.7380 C   0  0  0  0  0  0  0  0  0  0  0  0
    8.2018  -16.9804   23.7695 O   0  0  0  0  0  0  0  0  0  0  0  0
    6.3670  -14.0518   25.4853 C   0  0  0  0  0  0  0  0  0  0  0  0
    6.3311  -13.4907   26.7421 C   0  0  0  0  0  0  0  0  0  0  0  0
    9.9852  -15.8355   24.6307 N   0  0  0  0  0  0  0  0  0  0  0  0
   10.2961  -16.9794   25.4596 C   0  0  1  0  0  0  0  0  0  0  0  0
   11.6090  -17.6015   25.0039 C   0  0  0  0  0  0  0  0  0  0  0  0
   12.6875  -16.5900   24.8611 C   0  0  0  0  0  0  0  0  0  0  0  0
   13.9570  -17.1735   24.3607 C   0  0  0  0  0  0  0  0  0  0  0  0
   14.6450  -17.8737   25.1241 O   0  0  0  0  0  0  0  0  0  0  0  0
   10.2948  -16.5863   26.8805 C   0  0  0  0  0  0  0  0  0  0  0  0
   10.5775  -17.4135   27.7834 O   0  0  0  0  0  0  0  0  0  0  0  0
   14.3751  -16.9484   23.0720 O   0  0  0  0  0  0  0  0  0  0  0  0
    9.9939  -15.3089   27.3409 O   0  0  0  0  0  0  0  0  0  0  0  0
  2  1  1  6
  3  2  1  0
  3  4  1  0
  5  6  2  0
  5  2  1  0
  8  7  1  0
  9  8  2  0
 10  9  1  0
 11 10  2  0
 11 17  1  0
 12 11  1  0
 13 12  1  1
 13 14  1  0
 14  5  1  0
 15 19  1  0
 15 13  1  0
 16 15  2  0
 17 18  2  0
 18  8  1  0
 20 19  1  0
 20 25  1  0
 20 21  1  6
 22 21  1  0
 23 22  1  0
 23 24  2  0
 25 28  1  0
 26 25  2  0
 27 23  1  0
M  END
$$$$
