CYE.pdb
     RDKit          3D

 28 28  0  0  1  0  0  0  0  0999 V2000
    7.2794  -12.8745   19.6013 N   0  0  0  0  0  0  0  0  0  0  0  0
    7.2379  -14.0848   20.4234 C   0  0  1  0  0  0  0  0  0  0  0  0
    7.7397  -15.2154   19.5336 C   0  0  0  0  0  0  0  0  0  0  0  0
    6.4718  -16.4723   19.2703 S   0  0  0  0  0  0  0  0  0  0  0  0
    8.0866  -13.9210   21.6123 C   0  0  0  0  0  0  0  0  0  0  0  0
    9.1988  -13.3444   21.4631 O   0  0  0  0  0  0  0  0  0  0  0  0
   10.2645  -15.2530   30.2496 O   0  0  0  0  0  0  0  0  0  0  0  0
    9.6483  -14.9825   29.0282 C   0  0  0  0  0  0  0  0  0  0  0  0
    9.5085  -13.7031   28.5490 C   0  0  0  0  0  0  0  0  0  0  0  0
    8.8846  -13.4959   27.3232 C   0  0  0  0  0  0  0  0  0  0  0  0
    8.3904  -14.5151   26.5485 C   0  0  0  0  0  0  0  0  0  0  0  0
    7.7382  -14.2996   25.2551 C   0  0  0  0  0  0  0  0  0  0  0  0
    8.6103  -14.3611   24.0388 C   0  0  2  0  0  0  0  0  0  0  0  0
    7.6860  -14.3849   22.8737 N   0  0  0  0  0  0  0  0  0  0  0  0
    9.4859  -15.5244   23.9278 C   0  0  0  0  0  0  0  0  0  0  0  0
    8.9624  -16.6308   23.5100 O   0  0  0  0  0  0  0  0  0  0  0  0
    8.5442  -15.8113   27.0576 C   0  0  0  0  0  0  0  0  0  0  0  0
    9.1633  -16.0050   28.2720 C   0  0  0  0  0  0  0  0  0  0  0  0
   10.8669  -15.5827   24.2225 N   0  0  0  0  0  0  0  0  0  0  0  0
   11.6082  -16.8000   23.9756 C   0  0  1  0  0  0  0  0  0  0  0  0
   12.8653  -16.4821   23.1775 C   0  0  0  0  0  0  0  0  0  0  0  0
   13.7195  -17.6810   22.9781 C   0  0  0  0  0  0  0  0  0  0  0  0
   14.9387  -17.3896   22.1837 C   0  0  0  0  0  0  0  0  0  0  0  0
   15.4738  -18.3062   21.5356 O   0  0  0  0  0  0  0  0  0  0  0  0
   11.8806  -17.4902   25.2495 C   0  0  0  0  0  0  0  0  0  0  0  0
   11.7982  -16.8840   26.3472 O   0  0  0  0  0  0  0  0  0  0  0  0
   15.4768  -16.1263   22.1583 O   0  0  0  0  0  0  0  0  0  0  0  0
   12.2394  -18.8299   25.3550 O   0  0  0  0  0  0  0  0  0  0  0  0
  2  1  1  6
  3  2  1  0
  3  4  1  0
  5  6  2  0
  5  2  1  0
  8  7  1  0
  9  8  2  0
 10  9  1  0
 11 10  2  0
 11 17  1  0
 12 11  1  0
 13 12  1  1
 13 14  1  0
 14  5  1  0
 15 19  1  0
 15 13  1  0
 16 15  2  0
 17 18  2  0
 18  8  1  0
 20 19  1  0
 20 25  1  0
 20 21  1  1
 22 21  1  0
 23 22  1  0
 23 24  2  0
 25 28  1  0
 26 25  2  0
 27 23  1  0
M  END
$$$$
