CYE.pdb
     RDKit          3D

 28 28  0  0  1  0  0  0  0  0999 V2000
    7.5281  -17.5420   20.9541 N   0  0  0  0  0  0  0  0  0  0  0  0
    8.3845  -16.4432   20.5052 C   0  0  1  0  0  0  0  0  0  0  0  0
    7.4505  -15.4000   19.9042 C   0  0  0  0  0  0  0  0  0  0  0  0
    8.3617  -14.1100   19.0313 S   0  0  0  0  0  0  0  0  0  0  0  0
    9.1431  -15.8945   21.6384 C   0  0  0  0  0  0  0  0  0  0  0  0
   10.1819  -15.2269   21.3796 O   0  0  0  0  0  0  0  0  0  0  0  0
   10.7630  -14.8166   30.4443 O   0  0  0  0  0  0  0  0  0  0  0  0
   10.2266  -14.9999   29.1702 C   0  0  0  0  0  0  0  0  0  0  0  0
    9.9884  -16.2491   28.6515 C   0  0  0  0  0  0  0  0  0  0  0  0
    9.4516  -16.3685   27.3739 C   0  0  0  0  0  0  0  0  0  0  0  0
    9.1393  -15.2900   26.5849 C   0  0  0  0  0  0  0  0  0  0  0  0
    8.5688  -15.4134   25.2419 C   0  0  0  0  0  0  0  0  0  0  0  0
    9.5344  -15.5805   24.1090 C   0  0  2  0  0  0  0  0  0  0  0  0
    8.7372  -16.0986   22.9652 N   0  0  0  0  0  0  0  0  0  0  0  0
   10.6386  -16.5101   24.3309 C   0  0  0  0  0  0  0  0  0  0  0  0
   10.3705  -17.7751   24.3090 O   0  0  0  0  0  0  0  0  0  0  0  0
    9.3909  -14.0261   27.1348 C   0  0  0  0  0  0  0  0  0  0  0  0
    9.9226  -13.9194   28.4004 C   0  0  0  0  0  0  0  0  0  0  0  0
   11.9936  -16.1834   24.5643 N   0  0  0  0  0  0  0  0  0  0  0  0
   12.9604  -17.2334   24.7992 C   0  0  1  0  0  0  0  0  0  0  0  0
   14.3093  -16.8273   24.2214 C   0  0  0  0  0  0  0  0  0  0  0  0
   14.2565  -16.6513   22.7473 C   0  0  0  0  0  0  0  0  0  0  0  0
   15.5511  -16.2018   22.1776 C   0  0  0  0  0  0  0  0  0  0  0  0
   16.4918  -15.9351   22.9460 O   0  0  0  0  0  0  0  0  0  0  0  0
   13.0112  -17.5581   26.2363 C   0  0  0  0  0  0  0  0  0  0  0  0
   13.2496  -18.7276   26.6299 O   0  0  0  0  0  0  0  0  0  0  0  0
   15.7177  -16.0789   20.8200 O   0  0  0  0  0  0  0  0  0  0  0  0
   12.8100  -16.6349   27.2570 O   0  0  0  0  0  0  0  0  0  0  0  0
  2  1  1  1
  3  2  1  0
  3  4  1  0
  5  6  2  0
  5  2  1  0
  8  7  1  0
  9  8  2  0
 10  9  1  0
 11 10  2  0
 11 17  1  0
 12 11  1  0
 13 12  1  1
 13 14  1  0
 14  5  1  0
 15 19  1  0
 15 13  1  0
 16 15  2  0
 17 18  2  0
 18  8  1  0
 20 19  1  0
 20 25  1  0
 20 21  1  1
 22 21  1  0
 23 22  1  0
 23 24  2  0
 25 28  1  0
 26 25  2  0
 27 23  1  0
M  END
$$$$
