CYE.pdb
     RDKit          3D

 28 28  0  0  1  0  0  0  0  0999 V2000
   10.2160  -17.2360   18.8256 N   0  0  0  0  0  0  0  0  0  0  0  0
    9.2148  -17.4010   19.8805 C   0  0  1  0  0  0  0  0  0  0  0  0
    9.5128  -18.7432   20.5374 C   0  0  0  0  0  0  0  0  0  0  0  0
   11.2668  -18.9256   20.9201 S   0  0  0  0  0  0  0  0  0  0  0  0
    9.3088  -16.2979   20.8474 C   0  0  0  0  0  0  0  0  0  0  0  0
   10.3216  -15.5482   20.7842 O   0  0  0  0  0  0  0  0  0  0  0  0
    6.5733  -10.9948   27.5801 O   0  0  0  0  0  0  0  0  0  0  0  0
    6.6915  -11.9494   26.5705 C   0  0  0  0  0  0  0  0  0  0  0  0
    6.5907  -13.2955   26.8237 C   0  0  0  0  0  0  0  0  0  0  0  0
    6.7174  -14.2003   25.7748 C   0  0  0  0  0  0  0  0  0  0  0  0
    6.9414  -13.8198   24.4755 C   0  0  0  0  0  0  0  0  0  0  0  0
    7.0693  -14.7705   23.3690 C   0  0  0  0  0  0  0  0  0  0  0  0
    8.4478  -14.9998   22.8297 C   0  0  2  0  0  0  0  0  0  0  0  0
    8.3148  -16.0758   21.8114 N   0  0  0  0  0  0  0  0  0  0  0  0
    9.4570  -15.4303   23.7933 C   0  0  0  0  0  0  0  0  0  0  0  0
   10.2978  -14.5436   24.2169 O   0  0  0  0  0  0  0  0  0  0  0  0
    7.0406  -12.4420   24.2415 C   0  0  0  0  0  0  0  0  0  0  0  0
    6.9138  -11.5551   25.2869 C   0  0  0  0  0  0  0  0  0  0  0  0
    9.6217  -16.7259   24.3334 N   0  0  0  0  0  0  0  0  0  0  0  0
   10.5338  -16.9393   25.4356 C   0  0  1  0  0  0  0  0  0  0  0  0
    9.8684  -17.8128   26.4903 C   0  0  0  0  0  0  0  0  0  0  0  0
   10.7904  -18.1410   27.6079 C   0  0  0  0  0  0  0  0  0  0  0  0
   10.1628  -19.0149   28.6301 C   0  0  0  0  0  0  0  0  0  0  0  0
    8.9888  -19.3916   28.4677 O   0  0  0  0  0  0  0  0  0  0  0  0
   11.8068  -17.4896   24.9357 C   0  0  0  0  0  0  0  0  0  0  0  0
   11.8884  -18.0003   23.7903 O   0  0  0  0  0  0  0  0  0  0  0  0
   10.8619  -19.4079   29.7449 O   0  0  0  0  0  0  0  0  0  0  0  0
   12.9965  -17.4942   25.6562 O   0  0  0  0  0  0  0  0  0  0  0  0
  2  1  1  6
  3  2  1  0
  3  4  1  0
  5  6  2  0
  5  2  1  0
  8  7  1  0
  9  8  2  0
 10  9  1  0
 11 10  2  0
 11 17  1  0
 12 11  1  0
 13 12  1  1
 13 14  1  0
 14  5  1  0
 15 19  1  0
 15 13  1  0
 16 15  2  0
 17 18  2  0
 18  8  1  0
 20 19  1  0
 20 25  1  0
 20 21  1  1
 22 21  1  0
 23 22  1  0
 23 24  2  0
 25 28  1  0
 26 25  2  0
 27 23  1  0
M  END
$$$$
