CYE.pdb
     RDKit          3D

 28 28  0  0  1  0  0  0  0  0999 V2000
    7.7558  -13.2045   19.5973 N   0  0  0  0  0  0  0  0  0  0  0  0
    7.3346  -14.3774   20.3649 C   0  0  1  0  0  0  0  0  0  0  0  0
    7.6188  -15.5843   19.4791 C   0  0  0  0  0  0  0  0  0  0  0  0
    7.2741  -17.1364   20.3327 S   0  0  0  0  0  0  0  0  0  0  0  0
    8.0807  -14.4524   21.6290 C   0  0  0  0  0  0  0  0  0  0  0  0
    9.2712  -14.0346   21.6323 O   0  0  0  0  0  0  0  0  0  0  0  0
    5.7401  -10.0677   27.5343 O   0  0  0  0  0  0  0  0  0  0  0  0
    6.1346  -11.2729   26.9542 C   0  0  0  0  0  0  0  0  0  0  0  0
    7.4570  -11.6017   26.7825 C   0  0  0  0  0  0  0  0  0  0  0  0
    7.7889  -12.8191   26.1973 C   0  0  0  0  0  0  0  0  0  0  0  0
    6.8542  -13.7298   25.7728 C   0  0  0  0  0  0  0  0  0  0  0  0
    7.2016  -15.0145   25.1617 C   0  0  0  0  0  0  0  0  0  0  0  0
    8.2439  -14.9925   24.0862 C   0  0  2  0  0  0  0  0  0  0  0  0
    7.5015  -14.9679   22.7976 N   0  0  0  0  0  0  0  0  0  0  0  0
    9.1563  -16.1320   24.0450 C   0  0  0  0  0  0  0  0  0  0  0  0
    8.7106  -17.2387   23.5459 O   0  0  0  0  0  0  0  0  0  0  0  0
    5.5121  -13.3728   25.9581 C   0  0  0  0  0  0  0  0  0  0  0  0
    5.1948  -12.1652   26.5384 C   0  0  0  0  0  0  0  0  0  0  0  0
   10.4976  -16.1660   24.4889 N   0  0  0  0  0  0  0  0  0  0  0  0
   11.2674  -17.3850   24.3716 C   0  0  1  0  0  0  0  0  0  0  0  0
   12.5414  -17.1134   23.5833 C   0  0  0  0  0  0  0  0  0  0  0  0
   13.7167  -17.8149   24.1605 C   0  0  0  0  0  0  0  0  0  0  0  0
   14.9990  -17.3768   23.5553 C   0  0  0  0  0  0  0  0  0  0  0  0
   14.9873  -16.4836   22.6900 O   0  0  0  0  0  0  0  0  0  0  0  0
   11.5147  -17.9544   25.7087 C   0  0  0  0  0  0  0  0  0  0  0  0
   11.2546  -17.3018   26.7508 O   0  0  0  0  0  0  0  0  0  0  0  0
   16.1889  -17.9447   23.9397 O   0  0  0  0  0  0  0  0  0  0  0  0
   12.0381  -19.2227   25.9370 O   0  0  0  0  0  0  0  0  0  0  0  0
  2  1  1  6
  3  2  1  0
  3  4  1  0
  5  6  2  0
  5  2  1  0
  8  7  1  0
  9  8  2  0
 10  9  1  0
 11 10  2  0
 11 17  1  0
 12 11  1  0
 13 12  1  1
 13 14  1  0
 14  5  1  0
 15 19  1  0
 15 13  1  0
 16 15  2  0
 17 18  2  0
 18  8  1  0
 20 19  1  0
 20 25  1  0
 20 21  1  1
 22 21  1  0
 23 22  1  0
 23 24  2  0
 25 28  1  0
 26 25  2  0
 27 23  1  0
M  END
$$$$
