CYE.pdb
     RDKit          3D

 28 28  0  0  1  0  0  0  0  0999 V2000
   10.0235  -16.4724   18.2330 N   0  0  0  0  0  0  0  0  0  0  0  0
    8.8603  -16.6623   19.1009 C   0  0  1  0  0  0  0  0  0  0  0  0
    8.6307  -18.1669   19.1737 C   0  0  0  0  0  0  0  0  0  0  0  0
    7.2145  -18.6763   18.1779 S   0  0  0  0  0  0  0  0  0  0  0  0
    9.1208  -16.0946   20.4315 C   0  0  0  0  0  0  0  0  0  0  0  0
   10.3120  -16.0991   20.8473 O   0  0  0  0  0  0  0  0  0  0  0  0
    6.9335  -11.8998   28.1014 O   0  0  0  0  0  0  0  0  0  0  0  0
    6.9871  -12.4626   26.8267 C   0  0  0  0  0  0  0  0  0  0  0  0
    6.4192  -13.6803   26.5422 C   0  0  0  0  0  0  0  0  0  0  0  0
    6.5052  -14.1905   25.2510 C   0  0  0  0  0  0  0  0  0  0  0  0
    7.1367  -13.5357   24.2236 C   0  0  0  0  0  0  0  0  0  0  0  0
    7.2234  -14.0684   22.8623 C   0  0  0  0  0  0  0  0  0  0  0  0
    8.3593  -15.0005   22.5713 C   0  0  2  0  0  0  0  0  0  0  0  0
    8.0906  -15.5635   21.2211 N   0  0  0  0  0  0  0  0  0  0  0  0
    8.5271  -16.1235   23.4894 C   0  0  0  0  0  0  0  0  0  0  0  0
    8.1228  -17.2865   23.0937 O   0  0  0  0  0  0  0  0  0  0  0  0
    7.7084  -12.2956   24.5374 C   0  0  0  0  0  0  0  0  0  0  0  0
    7.6175  -11.8000   25.8187 C   0  0  0  0  0  0  0  0  0  0  0  0
    9.0969  -16.0894   24.7823 N   0  0  0  0  0  0  0  0  0  0  0  0
    9.9151  -17.1904   25.2411 C   0  0  1  0  0  0  0  0  0  0  0  0
   11.0112  -17.4742   24.2231 C   0  0  0  0  0  0  0  0  0  0  0  0
   12.0122  -18.4451   24.7347 C   0  0  0  0  0  0  0  0  0  0  0  0
   13.0842  -18.7346   23.7501 C   0  0  0  0  0  0  0  0  0  0  0  0
   13.8990  -17.8409   23.4603 O   0  0  0  0  0  0  0  0  0  0  0  0
   10.4293  -16.9057   26.5931 C   0  0  0  0  0  0  0  0  0  0  0  0
   10.4609  -15.7323   27.0422 O   0  0  0  0  0  0  0  0  0  0  0  0
   13.1833  -19.9713   23.1609 O   0  0  0  0  0  0  0  0  0  0  0  0
   10.9089  -17.8729   27.4701 O   0  0  0  0  0  0  0  0  0  0  0  0
  2  1  1  6
  3  2  1  0
  3  4  1  0
  5  6  2  0
  5  2  1  0
  8  7  1  0
  9  8  2  0
 10  9  1  0
 11 10  2  0
 11 17  1  0
 12 11  1  0
 13 12  1  1
 13 14  1  0
 14  5  1  0
 15 19  1  0
 15 13  1  0
 16 15  2  0
 17 18  2  0
 18  8  1  0
 20 19  1  0
 20 25  1  0
 20 21  1  6
 22 21  1  0
 23 22  1  0
 23 24  2  0
 25 28  1  0
 26 25  2  0
 27 23  1  0
M  END
$$$$
