CYE.pdb
     RDKit          3D

 28 28  0  0  1  0  0  0  0  0999 V2000
    7.9389  -13.5355   19.5855 N   0  0  0  0  0  0  0  0  0  0  0  0
    7.4102  -14.3575   20.6751 C   0  0  1  0  0  0  0  0  0  0  0  0
    7.2840  -15.7688   20.1145 C   0  0  0  0  0  0  0  0  0  0  0  0
    8.8906  -16.4550   19.6623 S   0  0  0  0  0  0  0  0  0  0  0  0
    8.3199  -14.3182   21.8290 C   0  0  0  0  0  0  0  0  0  0  0  0
    9.5089  -13.9487   21.6252 O   0  0  0  0  0  0  0  0  0  0  0  0
   10.5607  -15.2844   30.4944 O   0  0  0  0  0  0  0  0  0  0  0  0
    9.9446  -15.0458   29.2664 C   0  0  0  0  0  0  0  0  0  0  0  0
    9.9508  -13.8061   28.6755 C   0  0  0  0  0  0  0  0  0  0  0  0
    9.3189  -13.6295   27.4490 C   0  0  0  0  0  0  0  0  0  0  0  0
    8.6767  -14.6414   26.7807 C   0  0  0  0  0  0  0  0  0  0  0  0
    8.0158  -14.4590   25.4867 C   0  0  0  0  0  0  0  0  0  0  0  0
    8.8400  -14.7184   24.2631 C   0  0  2  0  0  0  0  0  0  0  0  0
    7.8939  -14.6763   23.1162 N   0  0  0  0  0  0  0  0  0  0  0  0
    9.5358  -16.0012   24.2109 C   0  0  0  0  0  0  0  0  0  0  0  0
    9.0059  -16.9418   23.4988 O   0  0  0  0  0  0  0  0  0  0  0  0
    8.6833  -15.8969   27.4026 C   0  0  0  0  0  0  0  0  0  0  0  0
    9.3117  -16.0606   28.6166 C   0  0  0  0  0  0  0  0  0  0  0  0
   10.7477  -16.3400   24.8541 N   0  0  0  0  0  0  0  0  0  0  0  0
   11.3511  -17.6344   24.6243 C   0  0  1  0  0  0  0  0  0  0  0  0
   11.9021  -17.6990   23.2063 C   0  0  0  0  0  0  0  0  0  0  0  0
   13.1565  -16.9174   23.0574 C   0  0  0  0  0  0  0  0  0  0  0  0
   13.7200  -16.9949   21.6866 C   0  0  0  0  0  0  0  0  0  0  0  0
   13.2449  -17.8146   20.8811 O   0  0  0  0  0  0  0  0  0  0  0  0
   12.3633  -17.9087   25.6604 C   0  0  0  0  0  0  0  0  0  0  0  0
   12.6598  -17.0448   26.5236 O   0  0  0  0  0  0  0  0  0  0  0  0
   14.7534  -16.1755   21.3032 O   0  0  0  0  0  0  0  0  0  0  0  0
   13.0600  -19.1067   25.7791 O   0  0  0  0  0  0  0  0  0  0  0  0
  2  1  1  6
  3  2  1  0
  3  4  1  0
  5  6  2  0
  5  2  1  0
  8  7  1  0
  9  8  2  0
 10  9  1  0
 11 10  2  0
 11 17  1  0
 12 11  1  0
 13 12  1  1
 13 14  1  0
 14  5  1  0
 15 19  1  0
 15 13  1  0
 16 15  2  0
 17 18  2  0
 18  8  1  0
 20 19  1  0
 20 25  1  0
 20 21  1  6
 22 21  1  0
 23 22  1  0
 23 24  2  0
 25 28  1  0
 26 25  2  0
 27 23  1  0
M  END
$$$$
