CYE.pdb
     RDKit          3D

 28 28  0  0  1  0  0  0  0  0999 V2000
    8.2415  -14.7444   19.2336 N   0  0  0  0  0  0  0  0  0  0  0  0
    7.7337  -15.4957   20.3826 C   0  0  1  0  0  0  0  0  0  0  0  0
    7.6625  -16.9507   19.9359 C   0  0  0  0  0  0  0  0  0  0  0  0
    7.0872  -18.0303   21.2625 S   0  0  0  0  0  0  0  0  0  0  0  0
    8.6320  -15.3316   21.5344 C   0  0  0  0  0  0  0  0  0  0  0  0
    9.8673  -15.2220   21.3029 O   0  0  0  0  0  0  0  0  0  0  0  0
   10.5526  -14.8042   30.3291 O   0  0  0  0  0  0  0  0  0  0  0  0
    9.9691  -14.8223   29.0627 C   0  0  0  0  0  0  0  0  0  0  0  0
    9.4725  -15.9746   28.5045 C   0  0  0  0  0  0  0  0  0  0  0  0
    8.9015  -15.9300   27.2369 C   0  0  0  0  0  0  0  0  0  0  0  0
    8.8028  -14.7791   26.4960 C   0  0  0  0  0  0  0  0  0  0  0  0
    8.1969  -14.7289   25.1638 C   0  0  0  0  0  0  0  0  0  0  0  0
    9.0611  -15.1397   24.0113 C   0  0  2  0  0  0  0  0  0  0  0  0
    8.1458  -15.2966   22.8494 N   0  0  0  0  0  0  0  0  0  0  0  0
    9.7932  -16.3937   24.1654 C   0  0  0  0  0  0  0  0  0  0  0  0
    9.1579  -17.4927   23.9183 O   0  0  0  0  0  0  0  0  0  0  0  0
    9.3161  -13.6164   27.0857 C   0  0  0  0  0  0  0  0  0  0  0  0
    9.8792  -13.6719   28.3408 C   0  0  0  0  0  0  0  0  0  0  0  0
   11.1430  -16.5501   24.5536 N   0  0  0  0  0  0  0  0  0  0  0  0
   11.7133  -17.8744   24.6697 C   0  0  1  0  0  0  0  0  0  0  0  0
   12.6446  -18.1368   23.4941 C   0  0  0  0  0  0  0  0  0  0  0  0
   13.7898  -17.1910   23.4656 C   0  0  0  0  0  0  0  0  0  0  0  0
   14.6872  -17.4133   22.3047 C   0  0  0  0  0  0  0  0  0  0  0  0
   14.5541  -16.7053   21.2910 O   0  0  0  0  0  0  0  0  0  0  0  0
   12.3673  -18.0272   25.9821 C   0  0  0  0  0  0  0  0  0  0  0  0
   12.9319  -19.1025   26.3050 O   0  0  0  0  0  0  0  0  0  0  0  0
   15.6557  -18.3865   22.3401 O   0  0  0  0  0  0  0  0  0  0  0  0
   12.4222  -17.0320   26.9521 O   0  0  0  0  0  0  0  0  0  0  0  0
  2  1  1  6
  3  2  1  0
  3  4  1  0
  5  6  2  0
  5  2  1  0
  8  7  1  0
  9  8  2  0
 10  9  1  0
 11 10  2  0
 11 17  1  0
 12 11  1  0
 13 12  1  1
 13 14  1  0
 14  5  1  0
 15 19  1  0
 15 13  1  0
 16 15  2  0
 17 18  2  0
 18  8  1  0
 20 19  1  0
 20 25  1  0
 20 21  1  6
 22 21  1  0
 23 22  1  0
 23 24  2  0
 25 28  1  0
 26 25  2  0
 27 23  1  0
M  END
$$$$
