CYE.pdb
     RDKit          3D

 28 28  0  0  1  0  0  0  0  0999 V2000
    7.4851  -12.9764   19.6303 N   0  0  0  0  0  0  0  0  0  0  0  0
    7.0529  -13.9504   20.6338 C   0  0  1  0  0  0  0  0  0  0  0  0
    6.9340  -15.2825   19.9035 C   0  0  0  0  0  0  0  0  0  0  0  0
    6.4215  -16.6101   21.0131 S   0  0  0  0  0  0  0  0  0  0  0  0
    8.0332  -14.0235   21.7265 C   0  0  0  0  0  0  0  0  0  0  0  0
    9.2439  -13.8101   21.4426 O   0  0  0  0  0  0  0  0  0  0  0  0
   10.6465  -15.2790   30.2600 O   0  0  0  0  0  0  0  0  0  0  0  0
    9.9570  -15.0553   29.0687 C   0  0  0  0  0  0  0  0  0  0  0  0
    9.2137  -16.0370   28.4604 C   0  0  0  0  0  0  0  0  0  0  0  0
    8.5476  -15.7539   27.2726 C   0  0  0  0  0  0  0  0  0  0  0  0
    8.5898  -14.5266   26.6601 C   0  0  0  0  0  0  0  0  0  0  0  0
    7.8846  -14.2248   25.4127 C   0  0  0  0  0  0  0  0  0  0  0  0
    8.6497  -14.4166   24.1393 C   0  0  2  0  0  0  0  0  0  0  0  0
    7.6495  -14.3190   23.0427 N   0  0  0  0  0  0  0  0  0  0  0  0
    9.3445  -15.6919   23.9870 C   0  0  0  0  0  0  0  0  0  0  0  0
    8.6247  -16.7445   23.7719 O   0  0  0  0  0  0  0  0  0  0  0  0
    9.3541  -13.5411   27.2988 C   0  0  0  0  0  0  0  0  0  0  0  0
   10.0094  -13.8321   28.4741 C   0  0  0  0  0  0  0  0  0  0  0  0
   10.7391  -15.9141   24.0410 N   0  0  0  0  0  0  0  0  0  0  0  0
   11.2663  -17.2488   23.8591 C   0  0  1  0  0  0  0  0  0  0  0  0
   12.4851  -17.1992   22.9480 C   0  0  0  0  0  0  0  0  0  0  0  0
   13.1159  -18.5342   22.7843 C   0  0  0  0  0  0  0  0  0  0  0  0
   14.2899  -18.5052   21.8769 C   0  0  0  0  0  0  0  0  0  0  0  0
   14.2819  -17.7367   20.8992 O   0  0  0  0  0  0  0  0  0  0  0  0
   11.5384  -17.8652   25.1704 C   0  0  0  0  0  0  0  0  0  0  0  0
   11.3954  -19.1009   25.3493 O   0  0  0  0  0  0  0  0  0  0  0  0
   15.3764  -19.3135   22.1059 O   0  0  0  0  0  0  0  0  0  0  0  0
   11.9660  -17.1647   26.2933 O   0  0  0  0  0  0  0  0  0  0  0  0
  2  1  1  6
  3  2  1  0
  3  4  1  0
  5  6  2  0
  5  2  1  0
  8  7  1  0
  9  8  2  0
 10  9  1  0
 11 10  2  0
 11 17  1  0
 12 11  1  0
 13 12  1  1
 13 14  1  0
 14  5  1  0
 15 19  1  0
 15 13  1  0
 16 15  2  0
 17 18  2  0
 18  8  1  0
 20 19  1  0
 20 25  1  0
 20 21  1  6
 22 21  1  0
 23 22  1  0
 23 24  2  0
 25 28  1  0
 26 25  2  0
 27 23  1  0
M  END
$$$$
