CYE.pdb
     RDKit          3D

 28 28  0  0  1  0  0  0  0  0999 V2000
    9.3332  -16.8559   17.9247 N   0  0  0  0  0  0  0  0  0  0  0  0
    8.2878  -17.0028   18.9386 C   0  0  1  0  0  0  0  0  0  0  0  0
    8.1782  -18.4970   19.2167 C   0  0  0  0  0  0  0  0  0  0  0  0
    9.6920  -19.1542   19.9467 S   0  0  0  0  0  0  0  0  0  0  0  0
    8.6486  -16.2565   20.1524 C   0  0  0  0  0  0  0  0  0  0  0  0
    9.8550  -15.9150   20.2933 O   0  0  0  0  0  0  0  0  0  0  0  0
    7.0257  -11.9988   27.9245 O   0  0  0  0  0  0  0  0  0  0  0  0
    6.9715  -12.6182   26.6763 C   0  0  0  0  0  0  0  0  0  0  0  0
    7.2964  -11.9555   25.5181 C   0  0  0  0  0  0  0  0  0  0  0  0
    7.2231  -12.6268   24.3020 C   0  0  0  0  0  0  0  0  0  0  0  0
    6.8377  -13.9389   24.1888 C   0  0  0  0  0  0  0  0  0  0  0  0
    6.7654  -14.6492   22.9102 C   0  0  0  0  0  0  0  0  0  0  0  0
    8.0584  -15.1382   22.3335 C   0  0  2  0  0  0  0  0  0  0  0  0
    7.6951  -15.9290   21.1273 N   0  0  0  0  0  0  0  0  0  0  0  0
    8.8675  -15.9971   23.1937 C   0  0  0  0  0  0  0  0  0  0  0  0
    8.6164  -17.2657   23.1805 O   0  0  0  0  0  0  0  0  0  0  0  0
    6.5111  -14.5943   25.3833 C   0  0  0  0  0  0  0  0  0  0  0  0
    6.5870  -13.9204   26.5814 C   0  0  0  0  0  0  0  0  0  0  0  0
    9.9181  -15.5978   24.0506 N   0  0  0  0  0  0  0  0  0  0  0  0
   10.8732  -16.5741   24.5271 C   0  0  1  0  0  0  0  0  0  0  0  0
   12.2703  -16.1992   24.0521 C   0  0  0  0  0  0  0  0  0  0  0  0
   13.3090  -17.1137   24.5921 C   0  0  0  0  0  0  0  0  0  0  0  0
   14.6786  -16.7472   24.1534 C   0  0  0  0  0  0  0  0  0  0  0  0
   15.1218  -17.2190   23.0916 O   0  0  0  0  0  0  0  0  0  0  0  0
   10.7674  -16.7082   25.9914 C   0  0  0  0  0  0  0  0  0  0  0  0
   10.0992  -15.8898   26.6719 O   0  0  0  0  0  0  0  0  0  0  0  0
   15.4544  -15.8983   24.9041 O   0  0  0  0  0  0  0  0  0  0  0  0
   11.3726  -17.7175   26.7328 O   0  0  0  0  0  0  0  0  0  0  0  0
  2  1  1  6
  3  2  1  0
  3  4  1  0
  5  6  2  0
  5  2  1  0
  8  7  1  0
  9  8  2  0
 10  9  1  0
 11 10  2  0
 11 17  1  0
 12 11  1  0
 13 12  1  1
 13 14  1  0
 14  5  1  0
 15 19  1  0
 15 13  1  0
 16 15  2  0
 17 18  2  0
 18  8  1  0
 20 19  1  0
 20 25  1  0
 20 21  1  1
 22 21  1  0
 23 22  1  0
 23 24  2  0
 25 28  1  0
 26 25  2  0
 27 23  1  0
M  END
$$$$
