CYE.pdb
     RDKit          3D

 28 28  0  0  1  0  0  0  0  0999 V2000
    7.5669  -12.6121   19.3707 N   0  0  0  0  0  0  0  0  0  0  0  0
    7.1447  -13.6685   20.2917 C   0  0  1  0  0  0  0  0  0  0  0  0
    7.0913  -14.9489   19.4674 C   0  0  0  0  0  0  0  0  0  0  0  0
    6.7285  -16.3894   20.4921 S   0  0  0  0  0  0  0  0  0  0  0  0
    8.0997  -13.7855   21.4030 C   0  0  0  0  0  0  0  0  0  0  0  0
    9.3150  -13.5511   21.1581 O   0  0  0  0  0  0  0  0  0  0  0  0
   10.5114  -15.1217   29.9727 O   0  0  0  0  0  0  0  0  0  0  0  0
    9.8665  -14.8207   28.7735 C   0  0  0  0  0  0  0  0  0  0  0  0
    9.7809  -13.5369   28.2931 C   0  0  0  0  0  0  0  0  0  0  0  0
    9.1246  -13.2988   27.0901 C   0  0  0  0  0  0  0  0  0  0  0  0
    8.5458  -14.2910   26.3393 C   0  0  0  0  0  0  0  0  0  0  0  0
    7.8593  -14.0432   25.0697 C   0  0  0  0  0  0  0  0  0  0  0  0
    8.6568  -14.2463   23.8182 C   0  0  2  0  0  0  0  0  0  0  0  0
    7.6876  -14.1443   22.6946 N   0  0  0  0  0  0  0  0  0  0  0  0
    9.3445  -15.5281   23.6892 C   0  0  0  0  0  0  0  0  0  0  0  0
    8.6354  -16.5579   23.3587 O   0  0  0  0  0  0  0  0  0  0  0  0
    8.6456  -15.5923   26.8491 C   0  0  0  0  0  0  0  0  0  0  0  0
    9.2974  -15.8167   28.0409 C   0  0  0  0  0  0  0  0  0  0  0  0
   10.7221  -15.7789   23.8801 N   0  0  0  0  0  0  0  0  0  0  0  0
   11.2567  -17.1011   23.6381 C   0  0  1  0  0  0  0  0  0  0  0  0
   12.3610  -17.0245   22.5927 C   0  0  0  0  0  0  0  0  0  0  0  0
   13.0400  -18.3316   22.3994 C   0  0  0  0  0  0  0  0  0  0  0  0
   14.1314  -18.2669   21.3958 C   0  0  0  0  0  0  0  0  0  0  0  0
   14.8847  -19.2463   21.2551 O   0  0  0  0  0  0  0  0  0  0  0  0
   11.6927  -17.7077   24.9090 C   0  0  0  0  0  0  0  0  0  0  0  0
   11.9278  -16.9991   25.9200 O   0  0  0  0  0  0  0  0  0  0  0  0
   14.3150  -17.1436   20.6272 O   0  0  0  0  0  0  0  0  0  0  0  0
   11.8767  -19.0724   25.1048 O   0  0  0  0  0  0  0  0  0  0  0  0
  2  1  1  6
  3  2  1  0
  3  4  1  0
  5  6  2  0
  5  2  1  0
  8  7  1  0
  9  8  2  0
 10  9  1  0
 11 10  2  0
 11 17  1  0
 12 11  1  0
 13 12  1  1
 13 14  1  0
 14  5  1  0
 15 19  1  0
 15 13  1  0
 16 15  2  0
 17 18  2  0
 18  8  1  0
 20 19  1  0
 20 25  1  0
 20 21  1  6
 22 21  1  0
 23 22  1  0
 23 24  2  0
 25 28  1  0
 26 25  2  0
 27 23  1  0
M  END
$$$$
