CYE.pdb
     RDKit          3D

 28 28  0  0  1  0  0  0  0  0999 V2000
    7.4061  -13.3796   19.8037 N   0  0  0  0  0  0  0  0  0  0  0  0
    6.8905  -14.1097   20.9628 C   0  0  1  0  0  0  0  0  0  0  0  0
    6.4209  -15.4598   20.4348 C   0  0  0  0  0  0  0  0  0  0  0  0
    7.7923  -16.4393   19.7897 S   0  0  0  0  0  0  0  0  0  0  0  0
    7.9449  -14.2669   21.9747 C   0  0  0  0  0  0  0  0  0  0  0  0
    9.1416  -14.1252   21.6007 O   0  0  0  0  0  0  0  0  0  0  0  0
   11.0200  -15.3152   30.3748 O   0  0  0  0  0  0  0  0  0  0  0  0
   10.2865  -15.0474   29.2195 C   0  0  0  0  0  0  0  0  0  0  0  0
   10.2152  -13.7882   28.6759 C   0  0  0  0  0  0  0  0  0  0  0  0
    9.4671  -13.5827   27.5213 C   0  0  0  0  0  0  0  0  0  0  0  0
    8.7823  -14.5842   26.8800 C   0  0  0  0  0  0  0  0  0  0  0  0
    7.9989  -14.3712   25.6613 C   0  0  0  0  0  0  0  0  0  0  0  0
    8.7028  -14.5900   24.3573 C   0  0  2  0  0  0  0  0  0  0  0  0
    7.6450  -14.5637   23.3121 N   0  0  0  0  0  0  0  0  0  0  0  0
    9.4278  -15.8496   24.2161 C   0  0  0  0  0  0  0  0  0  0  0  0
    8.7650  -16.8791   23.7996 O   0  0  0  0  0  0  0  0  0  0  0  0
    8.8696  -15.8599   27.4527 C   0  0  0  0  0  0  0  0  0  0  0  0
    9.6128  -16.0522   28.5957 C   0  0  0  0  0  0  0  0  0  0  0  0
   10.7973  -16.0788   24.4795 N   0  0  0  0  0  0  0  0  0  0  0  0
   11.3892  -17.3610   24.1665 C   0  0  1  0  0  0  0  0  0  0  0  0
   12.4070  -17.1964   23.0461 C   0  0  0  0  0  0  0  0  0  0  0  0
   13.1272  -18.4624   22.7540 C   0  0  0  0  0  0  0  0  0  0  0  0
   14.1929  -18.2929   21.7352 C   0  0  0  0  0  0  0  0  0  0  0  0
   14.6405  -17.1548   21.5094 O   0  0  0  0  0  0  0  0  0  0  0  0
   11.9525  -17.9664   25.3870 C   0  0  0  0  0  0  0  0  0  0  0  0
   12.3123  -17.2548   26.3583 O   0  0  0  0  0  0  0  0  0  0  0  0
   14.6852  -19.3735   21.0452 O   0  0  0  0  0  0  0  0  0  0  0  0
   12.1311  -19.3329   25.5746 O   0  0  0  0  0  0  0  0  0  0  0  0
  2  1  1  6
  3  2  1  0
  3  4  1  0
  5  6  2  0
  5  2  1  0
  8  7  1  0
  9  8  2  0
 10  9  1  0
 11 10  2  0
 11 17  1  0
 12 11  1  0
 13 12  1  1
 13 14  1  0
 14  5  1  0
 15 19  1  0
 15 13  1  0
 16 15  2  0
 17 18  2  0
 18  8  1  0
 20 19  1  0
 20 25  1  0
 20 21  1  6
 22 21  1  0
 23 22  1  0
 23 24  2  0
 25 28  1  0
 26 25  2  0
 27 23  1  0
M  END
$$$$
