CYE.pdb
     RDKit          3D

 28 28  0  0  1  0  0  0  0  0999 V2000
   10.5973  -16.7876   18.7023 N   0  0  0  0  0  0  0  0  0  0  0  0
    9.3684  -17.0005   19.4683 C   0  0  1  0  0  0  0  0  0  0  0  0
    9.2009  -18.5106   19.5842 C   0  0  0  0  0  0  0  0  0  0  0  0
    8.1785  -19.1742   18.2535 S   0  0  0  0  0  0  0  0  0  0  0  0
    9.4786  -16.3701   20.7915 C   0  0  0  0  0  0  0  0  0  0  0  0
   10.6224  -16.3165   21.3214 O   0  0  0  0  0  0  0  0  0  0  0  0
    6.5572  -11.7392   27.9338 O   0  0  0  0  0  0  0  0  0  0  0  0
    6.7561  -12.3406   26.6915 C   0  0  0  0  0  0  0  0  0  0  0  0
    7.5406  -11.7677   25.7207 C   0  0  0  0  0  0  0  0  0  0  0  0
    7.7015  -12.4155   24.5004 C   0  0  0  0  0  0  0  0  0  0  0  0
    7.1109  -13.6180   24.2030 C   0  0  0  0  0  0  0  0  0  0  0  0
    7.2837  -14.3045   22.9211 C   0  0  0  0  0  0  0  0  0  0  0  0
    8.4800  -15.1958   22.7864 C   0  0  2  0  0  0  0  0  0  0  0  0
    8.3598  -15.8428   21.4526 N   0  0  0  0  0  0  0  0  0  0  0  0
    8.6109  -16.2586   23.7793 C   0  0  0  0  0  0  0  0  0  0  0  0
    8.3715  -17.4701   23.3952 O   0  0  0  0  0  0  0  0  0  0  0  0
    6.3154  -14.1832   25.2084 C   0  0  0  0  0  0  0  0  0  0  0  0
    6.1628  -13.5334   26.4125 C   0  0  0  0  0  0  0  0  0  0  0  0
    8.9826  -16.1167   25.1353 N   0  0  0  0  0  0  0  0  0  0  0  0
    9.9205  -17.0443   25.7289 C   0  0  1  0  0  0  0  0  0  0  0  0
   11.1668  -17.1404   24.8596 C   0  0  0  0  0  0  0  0  0  0  0  0
   11.4954  -18.5453   24.5059 C   0  0  0  0  0  0  0  0  0  0  0  0
   12.7490  -18.6596   23.7199 C   0  0  0  0  0  0  0  0  0  0  0  0
   13.8420  -18.6093   24.3109 O   0  0  0  0  0  0  0  0  0  0  0  0
   10.2047  -16.6508   27.1209 C   0  0  0  0  0  0  0  0  0  0  0  0
   10.0471  -15.4647   27.5056 O   0  0  0  0  0  0  0  0  0  0  0  0
   12.7126  -18.8191   22.3563 O   0  0  0  0  0  0  0  0  0  0  0  0
   10.6556  -17.5225   28.1064 O   0  0  0  0  0  0  0  0  0  0  0  0
  2  1  1  6
  3  2  1  0
  3  4  1  0
  5  6  2  0
  5  2  1  0
  8  7  1  0
  9  8  2  0
 10  9  1  0
 11 10  2  0
 11 17  1  0
 12 11  1  0
 13 12  1  1
 13 14  1  0
 14  5  1  0
 15 19  1  0
 15 13  1  0
 16 15  2  0
 17 18  2  0
 18  8  1  0
 20 19  1  0
 20 25  1  0
 20 21  1  6
 22 21  1  0
 23 22  1  0
 23 24  2  0
 25 28  1  0
 26 25  2  0
 27 23  1  0
M  END
$$$$
