CYE.pdb
     RDKit          3D

 28 28  0  0  1  0  0  0  0  0999 V2000
    8.6310  -15.2984   19.3268 N   0  0  0  0  0  0  0  0  0  0  0  0
    7.9157  -15.7419   20.5243 C   0  0  1  0  0  0  0  0  0  0  0  0
    7.4684  -17.1710   20.2422 C   0  0  0  0  0  0  0  0  0  0  0  0
    6.7179  -17.9358   21.6942 S   0  0  0  0  0  0  0  0  0  0  0  0
    8.7995  -15.6782   21.6970 C   0  0  0  0  0  0  0  0  0  0  0  0
   10.0257  -15.9170   21.5202 O   0  0  0  0  0  0  0  0  0  0  0  0
   10.6266  -14.7920   30.4620 O   0  0  0  0  0  0  0  0  0  0  0  0
   10.0938  -14.7136   29.1757 C   0  0  0  0  0  0  0  0  0  0  0  0
   10.1598  -13.5639   28.4274 C   0  0  0  0  0  0  0  0  0  0  0  0
    9.6100  -13.5466   27.1498 C   0  0  0  0  0  0  0  0  0  0  0  0
    8.9931  -14.6325   26.5811 C   0  0  0  0  0  0  0  0  0  0  0  0
    8.4187  -14.6180   25.2342 C   0  0  0  0  0  0  0  0  0  0  0  0
    9.2120  -15.2853   24.1529 C   0  0  2  0  0  0  0  0  0  0  0  0
    8.3098  -15.3642   22.9731 N   0  0  0  0  0  0  0  0  0  0  0  0
    9.6832  -16.6381   24.4361 C   0  0  0  0  0  0  0  0  0  0  0  0
    8.8215  -17.5999   24.3648 O   0  0  0  0  0  0  0  0  0  0  0  0
    8.9376  -15.7937   27.3631 C   0  0  0  0  0  0  0  0  0  0  0  0
    9.4849  -15.7999   28.6264 C   0  0  0  0  0  0  0  0  0  0  0  0
   10.9975  -17.0284   24.7788 N   0  0  0  0  0  0  0  0  0  0  0  0
   11.3027  -18.4249   24.9997 C   0  0  1  0  0  0  0  0  0  0  0  0
   12.2874  -18.9081   23.9437 C   0  0  0  0  0  0  0  0  0  0  0  0
   13.6392  -18.3206   24.1287 C   0  0  0  0  0  0  0  0  0  0  0  0
   14.5707  -18.6693   23.0272 C   0  0  0  0  0  0  0  0  0  0  0  0
   14.1419  -19.3071   22.0495 O   0  0  0  0  0  0  0  0  0  0  0  0
   11.7789  -18.6234   26.3808 C   0  0  0  0  0  0  0  0  0  0  0  0
   11.9982  -17.6455   27.1390 O   0  0  0  0  0  0  0  0  0  0  0  0
   15.8915  -18.2965   23.0780 O   0  0  0  0  0  0  0  0  0  0  0  0
   12.0199  -19.8663   26.9567 O   0  0  0  0  0  0  0  0  0  0  0  0
  2  1  1  6
  3  2  1  0
  3  4  1  0
  5  6  2  0
  5  2  1  0
  8  7  1  0
  9  8  2  0
 10  9  1  0
 11 10  2  0
 11 17  1  0
 12 11  1  0
 13 12  1  1
 13 14  1  0
 14  5  1  0
 15 19  1  0
 15 13  1  0
 16 15  2  0
 17 18  2  0
 18  8  1  0
 20 19  1  0
 20 25  1  0
 20 21  1  6
 22 21  1  0
 23 22  1  0
 23 24  2  0
 25 28  1  0
 26 25  2  0
 27 23  1  0
M  END
$$$$
