EIP.pdb
     RDKit          3D

 25 25  0  0  1  0  0  0  0  0999 V2000
    9.0049  -14.9483   20.3628 N   0  0  0  0  0  0  0  0  0  0  0  0
    8.5333  -15.6094   21.5190 C   0  0  1  0  0  0  0  0  0  0  0  0
    9.0359  -17.0222   21.5938 C   0  0  0  0  0  0  0  0  0  0  0  0
    9.4624  -17.6080   20.3098 C   0  0  0  0  0  0  0  0  0  0  0  0
    9.9029  -18.9917   20.2678 C   0  0  0  0  0  0  0  0  0  0  0  0
   11.0515  -19.4501   20.1431 O   0  0  0  0  0  0  0  0  0  0  0  0
    8.9534  -14.9493   22.8042 C   0  0  0  0  0  0  0  0  0  0  0  0
   10.0014  -14.2748   22.7989 O   0  0  0  0  0  0  0  0  0  0  0  0
    8.8917  -19.9765   20.3843 O   0  0  0  0  0  0  0  0  0  0  0  0
    5.3950  -12.1945   25.7492 C   0  0  0  0  0  0  0  0  0  0  0  0
    6.6855  -12.5917   25.0557 C   0  0  0  0  0  0  0  0  0  0  0  0
    7.3337  -13.7327   25.7508 C   0  0  2  0  0  0  0  0  0  0  0  0
    7.5592  -13.2652   27.1976 C   0  0  0  0  0  0  0  0  0  0  0  0
    8.6525  -14.2055   25.1880 C   0  0  2  0  0  0  0  0  0  0  0  0
    8.2265  -15.0523   24.0143 N   0  0  0  0  0  0  0  0  0  0  0  0
    9.3242  -15.1546   26.0807 C   0  0  0  0  0  0  0  0  0  0  0  0
    8.9954  -16.4066   25.8826 O   0  0  0  0  0  0  0  0  0  0  0  0
   10.2724  -14.9082   27.1054 N   0  0  0  0  0  0  0  0  0  0  0  0
   10.8525  -13.7131   27.6467 C   0  0  0  0  0  0  0  0  0  0  0  0
   10.9921  -14.0981   29.1366 C   0  0  0  0  0  0  0  0  0  0  0  0
   11.7461  -15.4231   28.9216 C   0  0  0  0  0  0  0  0  0  0  0  0
   10.9181  -16.0284   27.8339 C   0  0  1  0  0  0  0  0  0  0  0  0
    9.8615  -16.8438   28.4609 C   0  0  0  0  0  0  0  0  0  0  0  0
    8.6614  -16.4308   28.4428 O   0  0  0  0  0  0  0  0  0  0  0  0
   10.0906  -18.0425   29.0737 O   0  0  0  0  0  0  0  0  0  0  0  0
  2  1  1  6
  2  7  1  0
  3  2  1  0
  4  3  1  0
  5  4  1  0
  6  5  2  0
  7  8  2  0
  9  5  1  0
 11 10  1  0
 11 12  1  0
 12 13  1  1
 14 12  1  0
 15  7  1  0
 14 15  1  6
 16 14  1  0
 16 17  2  0
 18 16  1  0
 19 18  1  0
 20 19  1  0
 21 22  1  0
 21 20  1  0
 22 18  1  0
 22 23  1  1
 24 23  2  0
 25 23  1  0
M  END
$$$$
