EIP.pdb
     RDKit          3D

 25 25  0  0  1  0  0  0  0  0999 V2000
    6.2948  -14.8532   20.2618 N   0  0  0  0  0  0  0  0  0  0  0  0
    6.3992  -15.6749   21.4064 C   0  0  1  0  0  0  0  0  0  0  0  0
    6.8245  -17.0701   21.0505 C   0  0  0  0  0  0  0  0  0  0  0  0
    7.0539  -17.9702   22.1955 C   0  0  0  0  0  0  0  0  0  0  0  0
    7.4609  -19.3436   21.9533 C   0  0  0  0  0  0  0  0  0  0  0  0
    7.3696  -20.0217   20.9156 O   0  0  0  0  0  0  0  0  0  0  0  0
    7.3997  -15.1791   22.4150 C   0  0  0  0  0  0  0  0  0  0  0  0
    8.5347  -14.8660   22.0063 O   0  0  0  0  0  0  0  0  0  0  0  0
    8.0492  -20.0263   23.0459 O   0  0  0  0  0  0  0  0  0  0  0  0
    5.9318  -11.9588   26.5112 C   0  0  0  0  0  0  0  0  0  0  0  0
    6.7106  -12.5571   25.3538 C   0  0  0  0  0  0  0  0  0  0  0  0
    7.4162  -13.7954   25.7709 C   0  0  2  0  0  0  0  0  0  0  0  0
    8.3821  -13.3684   26.8878 C   0  0  0  0  0  0  0  0  0  0  0  0
    8.2049  -14.5156   24.7036 C   0  0  2  0  0  0  0  0  0  0  0  0
    7.1235  -15.0495   23.7972 N   0  0  0  0  0  0  0  0  0  0  0  0
    8.8576  -15.7222   25.2204 C   0  0  0  0  0  0  0  0  0  0  0  0
    8.1469  -16.3865   26.0969 O   0  0  0  0  0  0  0  0  0  0  0  0
   10.1275  -16.2648   24.8996 N   0  0  0  0  0  0  0  0  0  0  0  0
   11.1377  -15.9139   23.9435 C   0  0  0  0  0  0  0  0  0  0  0  0
   12.4235  -16.2531   24.7305 C   0  0  0  0  0  0  0  0  0  0  0  0
   12.0376  -17.6932   25.1150 C   0  0  0  0  0  0  0  0  0  0  0  0
   10.6360  -17.4771   25.5879 C   0  0  1  0  0  0  0  0  0  0  0  0
   10.6771  -17.2049   27.0367 C   0  0  0  0  0  0  0  0  0  0  0  0
   10.4484  -16.0293   27.4571 O   0  0  0  0  0  0  0  0  0  0  0  0
   10.9497  -18.1538   27.9801 O   0  0  0  0  0  0  0  0  0  0  0  0
  2  1  1  6
  2  7  1  0
  3  2  1  0
  4  3  1  0
  5  4  1  0
  6  5  2  0
  7  8  2  0
  9  5  1  0
 11 10  1  0
 11 12  1  0
 12 13  1  1
 14 12  1  0
 15  7  1  0
 14 15  1  6
 16 14  1  0
 16 17  2  0
 18 16  1  0
 19 18  1  0
 20 19  1  0
 21 22  1  0
 21 20  1  0
 22 18  1  0
 22 23  1  1
 24 23  2  0
 25 23  1  0
M  END
$$$$
