EIP.pdb
     RDKit          3D

 25 25  0  0  1  0  0  0  0  0999 V2000
    8.7284  -14.8450   20.4599 N   0  0  0  0  0  0  0  0  0  0  0  0
    8.2976  -15.5440   21.6097 C   0  0  1  0  0  0  0  0  0  0  0  0
    8.8346  -16.9457   21.6402 C   0  0  0  0  0  0  0  0  0  0  0  0
    8.7206  -17.6917   20.3736 C   0  0  0  0  0  0  0  0  0  0  0  0
    9.1089  -19.0910   20.3321 C   0  0  0  0  0  0  0  0  0  0  0  0
    8.4150  -20.1074   20.5069 O   0  0  0  0  0  0  0  0  0  0  0  0
    8.7298  -14.9042   22.9011 C   0  0  0  0  0  0  0  0  0  0  0  0
    9.8160  -14.2933   22.9153 O   0  0  0  0  0  0  0  0  0  0  0  0
   10.4719  -19.3566   20.0535 O   0  0  0  0  0  0  0  0  0  0  0  0
    5.2652  -12.1735   25.9770 C   0  0  0  0  0  0  0  0  0  0  0  0
    6.5254  -12.5869   25.2387 C   0  0  0  0  0  0  0  0  0  0  0  0
    7.2105  -13.7028   25.9391 C   0  0  2  0  0  0  0  0  0  0  0  0
    7.5418  -13.1725   27.3433 C   0  0  0  0  0  0  0  0  0  0  0  0
    8.4820  -14.2172   25.3080 C   0  0  2  0  0  0  0  0  0  0  0  0
    7.9732  -14.9581   24.0962 N   0  0  0  0  0  0  0  0  0  0  0  0
    9.1159  -15.2618   26.1179 C   0  0  0  0  0  0  0  0  0  0  0  0
    8.4759  -16.4042   26.1217 O   0  0  0  0  0  0  0  0  0  0  0  0
   10.3121  -15.2088   26.8771 N   0  0  0  0  0  0  0  0  0  0  0  0
   11.2351  -14.1569   27.1923 C   0  0  0  0  0  0  0  0  0  0  0  0
   11.6472  -14.5432   28.6305 C   0  0  0  0  0  0  0  0  0  0  0  0
   12.0425  -16.0007   28.3309 C   0  0  0  0  0  0  0  0  0  0  0  0
   10.8726  -16.4307   27.5055 C   0  0  1  0  0  0  0  0  0  0  0  0
    9.8546  -16.9951   28.4108 C   0  0  0  0  0  0  0  0  0  0  0  0
    8.8076  -16.3250   28.6673 O   0  0  0  0  0  0  0  0  0  0  0  0
    9.9628  -18.2195   29.0058 O   0  0  0  0  0  0  0  0  0  0  0  0
  2  1  1  6
  2  7  1  0
  3  2  1  0
  4  3  1  0
  5  4  1  0
  6  5  2  0
  7  8  2  0
  9  5  1  0
 11 10  1  0
 11 12  1  0
 12 13  1  1
 14 12  1  0
 15  7  1  0
 14 15  1  6
 16 14  1  0
 16 17  2  0
 18 16  1  0
 19 18  1  0
 20 19  1  0
 21 22  1  0
 21 20  1  0
 22 18  1  0
 22 23  1  1
 24 23  2  0
 25 23  1  0
M  END
$$$$
