EIP.pdb
     RDKit          3D

 25 25  0  0  1  0  0  0  0  0999 V2000
    9.6702  -15.4553   20.4931 N   0  0  0  0  0  0  0  0  0  0  0  0
    9.0250  -16.0210   21.6157 C   0  0  1  0  0  0  0  0  0  0  0  0
    9.4951  -17.4227   21.8774 C   0  0  0  0  0  0  0  0  0  0  0  0
   10.9389  -17.6495   21.6835 C   0  0  0  0  0  0  0  0  0  0  0  0
   11.4875  -18.9779   21.8953 C   0  0  0  0  0  0  0  0  0  0  0  0
   11.6803  -19.8914   21.0747 O   0  0  0  0  0  0  0  0  0  0  0  0
    9.2573  -15.2587   22.8919 C   0  0  0  0  0  0  0  0  0  0  0  0
   10.2506  -14.5084   22.9513 O   0  0  0  0  0  0  0  0  0  0  0  0
   11.8632  -19.2980   23.2228 O   0  0  0  0  0  0  0  0  0  0  0  0
    5.2540  -12.6976   25.5204 C   0  0  0  0  0  0  0  0  0  0  0  0
    6.6213  -12.9874   24.9281 C   0  0  0  0  0  0  0  0  0  0  0  0
    7.3025  -14.0780   25.6710 C   0  0  2  0  0  0  0  0  0  0  0  0
    7.3890  -13.5983   27.1287 C   0  0  0  0  0  0  0  0  0  0  0  0
    8.6899  -14.4488   25.2046 C   0  0  2  0  0  0  0  0  0  0  0  0
    8.4128  -15.3469   24.0244 N   0  0  0  0  0  0  0  0  0  0  0  0
    9.3765  -15.3244   26.1589 C   0  0  0  0  0  0  0  0  0  0  0  0
    9.1963  -16.6034   25.9435 O   0  0  0  0  0  0  0  0  0  0  0  0
   10.2031  -14.9825   27.2588 N   0  0  0  0  0  0  0  0  0  0  0  0
   10.5532  -13.7383   27.8810 C   0  0  0  0  0  0  0  0  0  0  0  0
   10.6486  -14.1630   29.3636 C   0  0  0  0  0  0  0  0  0  0  0  0
   11.6112  -15.3475   29.1612 C   0  0  0  0  0  0  0  0  0  0  0  0
   10.9628  -16.0227   27.9956 C   0  0  1  0  0  0  0  0  0  0  0  0
   10.0046  -17.0159   28.5151 C   0  0  0  0  0  0  0  0  0  0  0  0
    8.7591  -16.7936   28.4136 O   0  0  0  0  0  0  0  0  0  0  0  0
   10.3739  -18.1876   29.1114 O   0  0  0  0  0  0  0  0  0  0  0  0
  2  1  1  6
  2  7  1  0
  3  2  1  0
  4  3  1  0
  5  4  1  0
  6  5  2  0
  7  8  2  0
  9  5  1  0
 11 10  1  0
 11 12  1  0
 12 13  1  1
 14 12  1  0
 15  7  1  0
 14 15  1  6
 16 14  1  0
 16 17  2  0
 18 16  1  0
 19 18  1  0
 20 19  1  0
 21 22  1  0
 21 20  1  0
 22 18  1  0
 22 23  1  1
 24 23  2  0
 25 23  1  0
M  END
$$$$
