EIP.pdb
     RDKit          3D

 25 25  0  0  1  0  0  0  0  0999 V2000
    9.9994  -15.9785   20.2388 N   0  0  0  0  0  0  0  0  0  0  0  0
    9.5270  -16.5160   21.4571 C   0  0  1  0  0  0  0  0  0  0  0  0
   10.3097  -17.7294   21.8684 C   0  0  0  0  0  0  0  0  0  0  0  0
   11.3406  -18.1687   20.9103 C   0  0  0  0  0  0  0  0  0  0  0  0
   12.1715  -19.3161   21.2321 C   0  0  0  0  0  0  0  0  0  0  0  0
   13.1322  -19.7946   20.6050 O   0  0  0  0  0  0  0  0  0  0  0  0
    9.6105  -15.5554   22.6122 C   0  0  0  0  0  0  0  0  0  0  0  0
   10.4797  -14.6634   22.5682 O   0  0  0  0  0  0  0  0  0  0  0  0
   11.8574  -20.0028   22.4303 O   0  0  0  0  0  0  0  0  0  0  0  0
    5.7982  -12.7899   26.2810 C   0  0  0  0  0  0  0  0  0  0  0  0
    7.2767  -13.0352   26.0402 C   0  0  0  0  0  0  0  0  0  0  0  0
    7.4815  -14.1425   25.0722 C   0  0  2  0  0  0  0  0  0  0  0  0
    6.7215  -15.3470   25.6502 C   0  0  0  0  0  0  0  0  0  0  0  0
    8.9100  -14.5563   24.8116 C   0  0  2  0  0  0  0  0  0  0  0  0
    8.7592  -15.6093   23.7418 N   0  0  0  0  0  0  0  0  0  0  0  0
    9.4877  -15.2862   25.9441 C   0  0  0  0  0  0  0  0  0  0  0  0
    9.4730  -16.5888   25.8102 O   0  0  0  0  0  0  0  0  0  0  0  0
   10.0594  -14.7836   27.1401 N   0  0  0  0  0  0  0  0  0  0  0  0
   10.1005  -13.4830   27.7437 C   0  0  0  0  0  0  0  0  0  0  0  0
   10.0207  -13.8476   29.2431 C   0  0  0  0  0  0  0  0  0  0  0  0
   11.1800  -14.8607   29.2551 C   0  0  0  0  0  0  0  0  0  0  0  0
   10.8458  -15.6640   28.0394 C   0  0  1  0  0  0  0  0  0  0  0  0
    9.9871  -16.7888   28.4542 C   0  0  0  0  0  0  0  0  0  0  0  0
    8.7598  -16.7889   28.1308 O   0  0  0  0  0  0  0  0  0  0  0  0
   10.4326  -17.8570   29.1788 O   0  0  0  0  0  0  0  0  0  0  0  0
  2  1  1  6
  2  7  1  0
  3  2  1  0
  4  3  1  0
  5  4  1  0
  6  5  2  0
  7  8  2  0
  9  5  1  0
 11 10  1  0
 11 12  1  0
 12 13  1  1
 14 12  1  0
 15  7  1  0
 14 15  1  6
 16 14  1  0
 16 17  2  0
 18 16  1  0
 19 18  1  0
 20 19  1  0
 21 22  1  0
 21 20  1  0
 22 18  1  0
 22 23  1  1
 24 23  2  0
 25 23  1  0
M  END
$$$$
