EIP.pdb
     RDKit          3D

 25 25  0  0  1  0  0  0  0  0999 V2000
    9.5623  -15.5550   20.4678 N   0  0  0  0  0  0  0  0  0  0  0  0
    9.0676  -16.1413   21.6544 C   0  0  1  0  0  0  0  0  0  0  0  0
    9.7065  -17.4732   21.9229 C   0  0  0  0  0  0  0  0  0  0  0  0
    9.8886  -18.3344   20.7402 C   0  0  0  0  0  0  0  0  0  0  0  0
   10.3983  -19.6839   20.9117 C   0  0  0  0  0  0  0  0  0  0  0  0
   11.5460  -20.1231   20.7241 O   0  0  0  0  0  0  0  0  0  0  0  0
    9.3086  -15.3083   22.8840 C   0  0  0  0  0  0  0  0  0  0  0  0
   10.2899  -14.5400   22.8858 O   0  0  0  0  0  0  0  0  0  0  0  0
    9.4681  -20.6549   21.3564 O   0  0  0  0  0  0  0  0  0  0  0  0
    5.4091  -12.6187   25.4302 C   0  0  0  0  0  0  0  0  0  0  0  0
    6.7631  -12.9709   24.8414 C   0  0  0  0  0  0  0  0  0  0  0  0
    7.4502  -13.9982   25.6645 C   0  0  2  0  0  0  0  0  0  0  0  0
    7.5938  -13.3820   27.0653 C   0  0  0  0  0  0  0  0  0  0  0  0
    8.8146  -14.4403   25.1925 C   0  0  2  0  0  0  0  0  0  0  0  0
    8.4851  -15.3496   24.0345 N   0  0  0  0  0  0  0  0  0  0  0  0
    9.4720  -15.3255   26.1585 C   0  0  0  0  0  0  0  0  0  0  0  0
    9.2428  -16.6002   25.9648 O   0  0  0  0  0  0  0  0  0  0  0  0
   10.3156  -14.9971   27.2494 N   0  0  0  0  0  0  0  0  0  0  0  0
   10.6911  -13.7590   27.8688 C   0  0  0  0  0  0  0  0  0  0  0  0
   10.7964  -14.1865   29.3499 C   0  0  0  0  0  0  0  0  0  0  0  0
   11.7389  -15.3851   29.1360 C   0  0  0  0  0  0  0  0  0  0  0  0
   11.0677  -16.0494   27.9770 C   0  0  1  0  0  0  0  0  0  0  0  0
   10.1004  -17.0287   28.5062 C   0  0  0  0  0  0  0  0  0  0  0  0
    8.8571  -16.7935   28.4071 O   0  0  0  0  0  0  0  0  0  0  0  0
   10.4590  -18.2003   29.1091 O   0  0  0  0  0  0  0  0  0  0  0  0
  2  1  1  6
  2  7  1  0
  3  2  1  0
  4  3  1  0
  5  4  1  0
  6  5  2  0
  7  8  2  0
  9  5  1  0
 11 10  1  0
 11 12  1  0
 12 13  1  1
 14 12  1  0
 15  7  1  0
 14 15  1  6
 16 14  1  0
 16 17  2  0
 18 16  1  0
 19 18  1  0
 20 19  1  0
 21 22  1  0
 21 20  1  0
 22 18  1  0
 22 23  1  1
 24 23  2  0
 25 23  1  0
M  END
$$$$
