EIP.pdb
     RDKit          3D

 25 25  0  0  1  0  0  0  0  0999 V2000
    9.7491  -15.7123   20.1994 N   0  0  0  0  0  0  0  0  0  0  0  0
    9.7559  -16.3754   21.4470 C   0  0  1  0  0  0  0  0  0  0  0  0
   10.9648  -17.2521   21.6024 C   0  0  0  0  0  0  0  0  0  0  0  0
   10.7687  -18.6666   21.2358 C   0  0  0  0  0  0  0  0  0  0  0  0
   11.7788  -19.6450   21.6003 C   0  0  0  0  0  0  0  0  0  0  0  0
   12.8867  -19.8653   21.0815 O   0  0  0  0  0  0  0  0  0  0  0  0
    9.7647  -15.4409   22.6261 C   0  0  0  0  0  0  0  0  0  0  0  0
   10.4751  -14.4193   22.5563 O   0  0  0  0  0  0  0  0  0  0  0  0
   11.4762  -20.4787   22.7046 O   0  0  0  0  0  0  0  0  0  0  0  0
    5.6631  -13.1360   26.1673 C   0  0  0  0  0  0  0  0  0  0  0  0
    7.1696  -13.2961   26.0726 C   0  0  0  0  0  0  0  0  0  0  0  0
    7.5331  -14.3212   25.0615 C   0  0  2  0  0  0  0  0  0  0  0  0
    6.8614  -15.6227   25.5278 C   0  0  0  0  0  0  0  0  0  0  0  0
    9.0069  -14.5848   24.8665 C   0  0  2  0  0  0  0  0  0  0  0  0
    9.0134  -15.6578   23.8060 N   0  0  0  0  0  0  0  0  0  0  0  0
    9.6088  -15.2392   26.0321 C   0  0  0  0  0  0  0  0  0  0  0  0
    9.7087  -16.5407   25.9281 O   0  0  0  0  0  0  0  0  0  0  0  0
   10.0982  -14.6650   27.2323 N   0  0  0  0  0  0  0  0  0  0  0  0
   10.0511  -13.3418   27.7843 C   0  0  0  0  0  0  0  0  0  0  0  0
    9.9148  -13.6524   29.2918 C   0  0  0  0  0  0  0  0  0  0  0  0
   11.1168  -14.6086   29.3990 C   0  0  0  0  0  0  0  0  0  0  0  0
   10.8788  -15.4725   28.2024 C   0  0  1  0  0  0  0  0  0  0  0  0
   10.0526  -16.6199   28.6214 C   0  0  0  0  0  0  0  0  0  0  0  0
    8.8543  -16.7080   28.2124 O   0  0  0  0  0  0  0  0  0  0  0  0
   10.4993  -17.6191   29.4380 O   0  0  0  0  0  0  0  0  0  0  0  0
  2  1  1  6
  2  7  1  0
  3  2  1  0
  4  3  1  0
  5  4  1  0
  6  5  2  0
  7  8  2  0
  9  5  1  0
 11 10  1  0
 11 12  1  0
 12 13  1  1
 14 12  1  0
 15  7  1  0
 14 15  1  6
 16 14  1  0
 16 17  2  0
 18 16  1  0
 19 18  1  0
 20 19  1  0
 21 22  1  0
 21 20  1  0
 22 18  1  0
 22 23  1  1
 24 23  2  0
 25 23  1  0
M  END
$$$$
