EIP.pdb
     RDKit          3D

 25 25  0  0  1  0  0  0  0  0999 V2000
    9.6561  -15.6048   20.4720 N   0  0  0  0  0  0  0  0  0  0  0  0
    9.2503  -16.2395   21.6674 C   0  0  1  0  0  0  0  0  0  0  0  0
   10.0127  -17.5106   21.9067 C   0  0  0  0  0  0  0  0  0  0  0  0
    9.7608  -18.5890   20.9335 C   0  0  0  0  0  0  0  0  0  0  0  0
   10.4300  -19.8681   21.0964 C   0  0  0  0  0  0  0  0  0  0  0  0
   11.4471  -20.3036   20.5298 O   0  0  0  0  0  0  0  0  0  0  0  0
    9.4521  -15.3952   22.8964 C   0  0  0  0  0  0  0  0  0  0  0  0
   10.3881  -14.5724   22.8924 O   0  0  0  0  0  0  0  0  0  0  0  0
    9.8557  -20.7629   22.0320 O   0  0  0  0  0  0  0  0  0  0  0  0
    5.4000  -12.8037   25.1999 C   0  0  0  0  0  0  0  0  0  0  0  0
    6.7743  -13.1588   24.6619 C   0  0  0  0  0  0  0  0  0  0  0  0
    7.4708  -14.1081   25.5668 C   0  0  2  0  0  0  0  0  0  0  0  0
    7.5223  -13.4151   26.9378 C   0  0  0  0  0  0  0  0  0  0  0  0
    8.8742  -14.5063   25.1773 C   0  0  2  0  0  0  0  0  0  0  0  0
    8.6401  -15.4841   24.0524 N   0  0  0  0  0  0  0  0  0  0  0  0
    9.5261  -15.3125   26.2137 C   0  0  0  0  0  0  0  0  0  0  0  0
    9.3800  -16.6050   26.0630 O   0  0  0  0  0  0  0  0  0  0  0  0
   10.2885  -14.8922   27.3325 N   0  0  0  0  0  0  0  0  0  0  0  0
   10.5948  -13.6071   27.8916 C   0  0  0  0  0  0  0  0  0  0  0  0
   10.6118  -13.9354   29.4014 C   0  0  0  0  0  0  0  0  0  0  0  0
   11.5927  -15.1198   29.3282 C   0  0  0  0  0  0  0  0  0  0  0  0
   11.0143  -15.8750   28.1749 C   0  0  1  0  0  0  0  0  0  0  0  0
   10.0363  -16.8435   28.7043 C   0  0  0  0  0  0  0  0  0  0  0  0
    8.7984  -16.6579   28.4944 O   0  0  0  0  0  0  0  0  0  0  0  0
   10.3792  -17.9538   29.4214 O   0  0  0  0  0  0  0  0  0  0  0  0
  2  1  1  6
  2  7  1  0
  3  2  1  0
  4  3  1  0
  5  4  1  0
  6  5  2  0
  7  8  2  0
  9  5  1  0
 11 10  1  0
 11 12  1  0
 12 13  1  1
 14 12  1  0
 15  7  1  0
 14 15  1  6
 16 14  1  0
 16 17  2  0
 18 16  1  0
 19 18  1  0
 20 19  1  0
 21 22  1  0
 21 20  1  0
 22 18  1  0
 22 23  1  1
 24 23  2  0
 25 23  1  0
M  END
$$$$
