EIP.pdb
     RDKit          3D

 25 25  0  0  1  0  0  0  0  0999 V2000
    5.5269  -20.1931   25.5021 N   0  0  0  0  0  0  0  0  0  0  0  0
    6.6674  -19.3728   25.6527 C   0  0  1  0  0  0  0  0  0  0  0  0
    7.8783  -19.9829   25.0080 C   0  0  0  0  0  0  0  0  0  0  0  0
    9.1505  -19.2854   25.2702 C   0  0  0  0  0  0  0  0  0  0  0  0
   10.0943  -19.8539   26.2170 C   0  0  0  0  0  0  0  0  0  0  0  0
   10.9950  -20.6893   26.0273 O   0  0  0  0  0  0  0  0  0  0  0  0
    6.5128  -18.0073   25.0400 C   0  0  0  0  0  0  0  0  0  0  0  0
    5.9157  -17.9208   23.9496 O   0  0  0  0  0  0  0  0  0  0  0  0
    9.9892  -19.4039   27.5558 O   0  0  0  0  0  0  0  0  0  0  0  0
    7.2358  -12.1282   26.6660 C   0  0  0  0  0  0  0  0  0  0  0  0
    6.5185  -13.1035   25.7504 C   0  0  0  0  0  0  0  0  0  0  0  0
    6.9084  -14.5038   26.0544 C   0  0  2  0  0  0  0  0  0  0  0  0
    8.3904  -14.4453   26.4577 C   0  0  0  0  0  0  0  0  0  0  0  0
    6.7545  -15.5059   24.9356 C   0  0  2  0  0  0  0  0  0  0  0  0
    7.0067  -16.8202   25.6320 N   0  0  0  0  0  0  0  0  0  0  0  0
    7.8426  -15.4118   23.9578 C   0  0  0  0  0  0  0  0  0  0  0  0
    8.9493  -16.0087   24.3233 O   0  0  0  0  0  0  0  0  0  0  0  0
    7.8579  -14.7821   22.6877 N   0  0  0  0  0  0  0  0  0  0  0  0
    6.9345  -13.9276   21.9985 C   0  0  0  0  0  0  0  0  0  0  0  0
    7.9030  -12.9897   21.2436 C   0  0  0  0  0  0  0  0  0  0  0  0
    8.7515  -14.0880   20.5770 C   0  0  0  0  0  0  0  0  0  0  0  0
    8.9848  -14.9914   21.7450 C   0  0  1  0  0  0  0  0  0  0  0  0
   10.2308  -14.5685   22.4109 C   0  0  0  0  0  0  0  0  0  0  0  0
   10.1715  -14.0130   23.5505 O   0  0  0  0  0  0  0  0  0  0  0  0
   11.4744  -14.7386   21.8732 O   0  0  0  0  0  0  0  0  0  0  0  0
  2  1  1  6
  2  7  1  0
  3  2  1  0
  4  3  1  0
  5  4  1  0
  6  5  2  0
  7  8  2  0
  9  5  1  0
 11 10  1  0
 11 12  1  0
 12 13  1  6
 14 12  1  0
 15  7  1  0
 14 15  1  1
 16 14  1  0
 16 17  2  0
 18 16  1  0
 19 18  1  0
 20 19  1  0
 21 22  1  0
 21 20  1  0
 22 18  1  0
 22 23  1  1
 24 23  2  0
 25 23  1  0
M  END
$$$$
