EIP.pdb
     RDKit          3D

 25 25  0  0  1  0  0  0  0  0999 V2000
    9.4866  -15.3412   20.5118 N   0  0  0  0  0  0  0  0  0  0  0  0
    9.3872  -16.1189   21.6872 C   0  0  1  0  0  0  0  0  0  0  0  0
   10.4368  -17.1915   21.7329 C   0  0  0  0  0  0  0  0  0  0  0  0
   10.2896  -18.2602   20.7279 C   0  0  0  0  0  0  0  0  0  0  0  0
   11.1988  -19.3931   20.7523 C   0  0  0  0  0  0  0  0  0  0  0  0
   11.4459  -20.1859   21.6772 O   0  0  0  0  0  0  0  0  0  0  0  0
    9.5509  -15.3219   22.9528 C   0  0  0  0  0  0  0  0  0  0  0  0
   10.4944  -14.5099   23.0136 O   0  0  0  0  0  0  0  0  0  0  0  0
   11.9173  -19.6477   19.5587 O   0  0  0  0  0  0  0  0  0  0  0  0
    5.3961  -12.8852   25.3238 C   0  0  0  0  0  0  0  0  0  0  0  0
    6.8149  -13.1166   24.8366 C   0  0  0  0  0  0  0  0  0  0  0  0
    7.4906  -14.1639   25.6440 C   0  0  2  0  0  0  0  0  0  0  0  0
    7.5072  -13.6321   27.0860 C   0  0  0  0  0  0  0  0  0  0  0  0
    8.9037  -14.5168   25.2461 C   0  0  2  0  0  0  0  0  0  0  0  0
    8.6954  -15.4434   24.0739 N   0  0  0  0  0  0  0  0  0  0  0  0
    9.5640  -15.3597   26.2474 C   0  0  0  0  0  0  0  0  0  0  0  0
    9.4870  -16.6444   26.0062 O   0  0  0  0  0  0  0  0  0  0  0  0
   10.2711  -14.9807   27.4162 N   0  0  0  0  0  0  0  0  0  0  0  0
   10.4228  -13.7394   28.1190 C   0  0  0  0  0  0  0  0  0  0  0  0
   10.4786  -14.2308   29.5829 C   0  0  0  0  0  0  0  0  0  0  0  0
   11.5931  -15.2756   29.3912 C   0  0  0  0  0  0  0  0  0  0  0  0
   11.1084  -15.9594   28.1533 C   0  0  1  0  0  0  0  0  0  0  0  0
   10.2522  -17.0897   28.5584 C   0  0  0  0  0  0  0  0  0  0  0  0
    9.0020  -17.0324   28.3466 O   0  0  0  0  0  0  0  0  0  0  0  0
   10.7233  -18.2218   29.1593 O   0  0  0  0  0  0  0  0  0  0  0  0
  2  1  1  6
  2  7  1  0
  3  2  1  0
  4  3  1  0
  5  4  1  0
  6  5  2  0
  7  8  2  0
  9  5  1  0
 11 10  1  0
 11 12  1  0
 12 13  1  1
 14 12  1  0
 15  7  1  0
 14 15  1  6
 16 14  1  0
 16 17  2  0
 18 16  1  0
 19 18  1  0
 20 19  1  0
 21 22  1  0
 21 20  1  0
 22 18  1  0
 22 23  1  1
 24 23  2  0
 25 23  1  0
M  END
$$$$
