EIP.pdb
     RDKit          3D

 25 25  0  0  1  0  0  0  0  0999 V2000
    9.5489  -15.6733   20.1811 N   0  0  0  0  0  0  0  0  0  0  0  0
    9.2897  -16.3758   21.3793 C   0  0  1  0  0  0  0  0  0  0  0  0
   10.1414  -17.6067   21.4958 C   0  0  0  0  0  0  0  0  0  0  0  0
    9.9732  -18.3734   22.7438 C   0  0  0  0  0  0  0  0  0  0  0  0
   10.4496  -19.7443   22.8091 C   0  0  0  0  0  0  0  0  0  0  0  0
    9.8752  -20.7953   22.4767 O   0  0  0  0  0  0  0  0  0  0  0  0
    9.5536  -15.5677   22.6207 C   0  0  0  0  0  0  0  0  0  0  0  0
   10.5710  -14.8482   22.6439 O   0  0  0  0  0  0  0  0  0  0  0  0
   11.7559  -19.9315   23.3232 O   0  0  0  0  0  0  0  0  0  0  0  0
    5.9292  -12.5845   26.2960 C   0  0  0  0  0  0  0  0  0  0  0  0
    7.3878  -12.9532   26.0944 C   0  0  0  0  0  0  0  0  0  0  0  0
    7.5261  -14.0612   25.1155 C   0  0  2  0  0  0  0  0  0  0  0  0
    6.7201  -15.2338   25.6969 C   0  0  0  0  0  0  0  0  0  0  0  0
    8.9296  -14.5386   24.8294 C   0  0  2  0  0  0  0  0  0  0  0  0
    8.7130  -15.5800   23.7595 N   0  0  0  0  0  0  0  0  0  0  0  0
    9.4928  -15.2978   25.9498 C   0  0  0  0  0  0  0  0  0  0  0  0
    9.3933  -16.5975   25.8248 O   0  0  0  0  0  0  0  0  0  0  0  0
   10.1284  -14.8262   27.1260 N   0  0  0  0  0  0  0  0  0  0  0  0
   10.3035  -13.5225   27.6982 C   0  0  0  0  0  0  0  0  0  0  0  0
   10.2121  -13.8444   29.2067 C   0  0  0  0  0  0  0  0  0  0  0  0
   11.2689  -14.9639   29.2274 C   0  0  0  0  0  0  0  0  0  0  0  0
   10.8404  -15.7580   28.0354 C   0  0  1  0  0  0  0  0  0  0  0  0
    9.8841  -16.7854   28.4878 C   0  0  0  0  0  0  0  0  0  0  0  0
    8.6664  -16.7004   28.1401 O   0  0  0  0  0  0  0  0  0  0  0  0
   10.2271  -17.8486   29.2732 O   0  0  0  0  0  0  0  0  0  0  0  0
  2  1  1  6
  2  7  1  0
  3  2  1  0
  4  3  1  0
  5  4  1  0
  6  5  2  0
  7  8  2  0
  9  5  1  0
 11 10  1  0
 11 12  1  0
 12 13  1  1
 14 12  1  0
 15  7  1  0
 14 15  1  6
 16 14  1  0
 16 17  2  0
 18 16  1  0
 19 18  1  0
 20 19  1  0
 21 22  1  0
 21 20  1  0
 22 18  1  0
 22 23  1  1
 24 23  2  0
 25 23  1  0
M  END
$$$$
