EIP.pdb
     RDKit          3D

 25 25  0  0  1  0  0  0  0  0999 V2000
    9.7432  -15.9516   20.1943 N   0  0  0  0  0  0  0  0  0  0  0  0
    9.5211  -16.5301   21.4641 C   0  0  1  0  0  0  0  0  0  0  0  0
   10.5339  -17.5944   21.7735 C   0  0  0  0  0  0  0  0  0  0  0  0
   10.2387  -18.9265   21.2146 C   0  0  0  0  0  0  0  0  0  0  0  0
   11.1014  -20.0470   21.5470 C   0  0  0  0  0  0  0  0  0  0  0  0
   12.3079  -20.2140   21.2989 O   0  0  0  0  0  0  0  0  0  0  0  0
    9.5949  -15.5430   22.5973 C   0  0  0  0  0  0  0  0  0  0  0  0
   10.4625  -14.6503   22.5385 O   0  0  0  0  0  0  0  0  0  0  0  0
   10.4991  -21.1145   22.2567 O   0  0  0  0  0  0  0  0  0  0  0  0
    5.8107  -12.6738   26.2109 C   0  0  0  0  0  0  0  0  0  0  0  0
    7.2843  -12.9916   26.0328 C   0  0  0  0  0  0  0  0  0  0  0  0
    7.4768  -14.0922   25.0546 C   0  0  2  0  0  0  0  0  0  0  0  0
    6.7088  -15.2954   25.6249 C   0  0  0  0  0  0  0  0  0  0  0  0
    8.9009  -14.5155   24.7857 C   0  0  2  0  0  0  0  0  0  0  0  0
    8.7363  -15.5728   23.7222 N   0  0  0  0  0  0  0  0  0  0  0  0
    9.4828  -15.2430   25.9175 C   0  0  0  0  0  0  0  0  0  0  0  0
    9.4839  -16.5451   25.7785 O   0  0  0  0  0  0  0  0  0  0  0  0
   10.0442  -14.7384   27.1175 N   0  0  0  0  0  0  0  0  0  0  0  0
   10.0691  -13.4394   27.7256 C   0  0  0  0  0  0  0  0  0  0  0  0
    9.9868  -13.8100   29.2234 C   0  0  0  0  0  0  0  0  0  0  0  0
   11.1566  -14.8108   29.2371 C   0  0  0  0  0  0  0  0  0  0  0  0
   10.8360  -15.6135   28.0173 C   0  0  1  0  0  0  0  0  0  0  0  0
    9.9874  -16.7487   28.4246 C   0  0  0  0  0  0  0  0  0  0  0  0
    8.7701  -16.7775   28.0665 O   0  0  0  0  0  0  0  0  0  0  0  0
   10.4322  -17.7972   29.1780 O   0  0  0  0  0  0  0  0  0  0  0  0
  2  1  1  6
  2  7  1  0
  3  2  1  0
  4  3  1  0
  5  4  1  0
  6  5  2  0
  7  8  2  0
  9  5  1  0
 11 10  1  0
 11 12  1  0
 12 13  1  1
 14 12  1  0
 15  7  1  0
 14 15  1  6
 16 14  1  0
 16 17  2  0
 18 16  1  0
 19 18  1  0
 20 19  1  0
 21 22  1  0
 21 20  1  0
 22 18  1  0
 22 23  1  1
 24 23  2  0
 25 23  1  0
M  END
$$$$
