EIP.pdb
     RDKit          3D

 25 25  0  0  1  0  0  0  0  0999 V2000
    9.9193  -15.4710   20.5292 N   0  0  0  0  0  0  0  0  0  0  0  0
    9.5284  -16.1624   21.6977 C   0  0  1  0  0  0  0  0  0  0  0  0
   10.3866  -17.3700   21.9409 C   0  0  0  0  0  0  0  0  0  0  0  0
   10.2981  -18.4231   20.9129 C   0  0  0  0  0  0  0  0  0  0  0  0
   11.0040  -19.6770   21.1129 C   0  0  0  0  0  0  0  0  0  0  0  0
   11.7205  -20.0355   22.0632 O   0  0  0  0  0  0  0  0  0  0  0  0
    9.6165  -15.3302   22.9482 C   0  0  0  0  0  0  0  0  0  0  0  0
   10.4913  -14.4441   22.9995 O   0  0  0  0  0  0  0  0  0  0  0  0
   10.8689  -20.6444   20.0874 O   0  0  0  0  0  0  0  0  0  0  0  0
    5.4016  -12.9482   25.3220 C   0  0  0  0  0  0  0  0  0  0  0  0
    6.8214  -13.1718   24.8337 C   0  0  0  0  0  0  0  0  0  0  0  0
    7.4850  -14.2536   25.6047 C   0  0  2  0  0  0  0  0  0  0  0  0
    7.4419  -13.8045   27.0741 C   0  0  0  0  0  0  0  0  0  0  0  0
    8.9169  -14.5630   25.2391 C   0  0  2  0  0  0  0  0  0  0  0  0
    8.7636  -15.4983   24.0653 N   0  0  0  0  0  0  0  0  0  0  0  0
    9.5809  -15.3826   26.2571 C   0  0  0  0  0  0  0  0  0  0  0  0
    9.4926  -16.6729   26.0525 O   0  0  0  0  0  0  0  0  0  0  0  0
   10.3020  -14.9765   27.4082 N   0  0  0  0  0  0  0  0  0  0  0  0
   10.5261  -13.7059   28.0351 C   0  0  0  0  0  0  0  0  0  0  0  0
   10.5403  -14.1080   29.5270 C   0  0  0  0  0  0  0  0  0  0  0  0
   11.5884  -15.2299   29.4122 C   0  0  0  0  0  0  0  0  0  0  0  0
   11.0708  -15.9578   28.2134 C   0  0  1  0  0  0  0  0  0  0  0  0
   10.1424  -17.0053   28.6776 C   0  0  0  0  0  0  0  0  0  0  0  0
    8.9018  -16.8915   28.4350 O   0  0  0  0  0  0  0  0  0  0  0  0
   10.5354  -18.1170   29.3664 O   0  0  0  0  0  0  0  0  0  0  0  0
  2  1  1  6
  2  7  1  0
  3  2  1  0
  4  3  1  0
  5  4  1  0
  6  5  2  0
  7  8  2  0
  9  5  1  0
 11 10  1  0
 11 12  1  0
 12 13  1  1
 14 12  1  0
 15  7  1  0
 14 15  1  6
 16 14  1  0
 16 17  2  0
 18 16  1  0
 19 18  1  0
 20 19  1  0
 21 22  1  0
 21 20  1  0
 22 18  1  0
 22 23  1  1
 24 23  2  0
 25 23  1  0
M  END
$$$$
