EIP.pdb
     RDKit          3D

 25 25  0  0  1  0  0  0  0  0999 V2000
    8.3180  -16.9357   20.9174 N   0  0  0  0  0  0  0  0  0  0  0  0
    9.5483  -16.9017   21.6113 C   0  0  1  0  0  0  0  0  0  0  0  0
   10.6965  -16.6066   20.6901 C   0  0  0  0  0  0  0  0  0  0  0  0
   11.0163  -17.6707   19.7210 C   0  0  0  0  0  0  0  0  0  0  0  0
   12.1140  -17.4805   18.7886 C   0  0  0  0  0  0  0  0  0  0  0  0
   13.3250  -17.3197   19.0186 O   0  0  0  0  0  0  0  0  0  0  0  0
    9.6020  -15.8562   22.6919 C   0  0  0  0  0  0  0  0  0  0  0  0
   10.5392  -15.0353   22.6642 O   0  0  0  0  0  0  0  0  0  0  0  0
   11.7761  -17.4744   17.4132 O   0  0  0  0  0  0  0  0  0  0  0  0
    5.7668  -12.8207   26.2325 C   0  0  0  0  0  0  0  0  0  0  0  0
    7.2351  -13.1646   26.0594 C   0  0  0  0  0  0  0  0  0  0  0  0
    7.4146  -14.2380   25.0490 C   0  0  2  0  0  0  0  0  0  0  0  0
    6.6190  -15.4431   25.5757 C   0  0  0  0  0  0  0  0  0  0  0  0
    8.8325  -14.6803   24.7780 C   0  0  2  0  0  0  0  0  0  0  0  0
    8.6500  -15.7545   23.7345 N   0  0  0  0  0  0  0  0  0  0  0  0
    9.4149  -15.3936   25.9186 C   0  0  0  0  0  0  0  0  0  0  0  0
    9.3704  -16.6985   25.8184 O   0  0  0  0  0  0  0  0  0  0  0  0
   10.0185  -14.8734   27.0911 N   0  0  0  0  0  0  0  0  0  0  0  0
   10.1602  -13.5491   27.6239 C   0  0  0  0  0  0  0  0  0  0  0  0
   10.0434  -13.8237   29.1399 C   0  0  0  0  0  0  0  0  0  0  0  0
   11.1180  -14.9235   29.2181 C   0  0  0  0  0  0  0  0  0  0  0  0
   10.7272  -15.7630   28.0444 C   0  0  1  0  0  0  0  0  0  0  0  0
    9.7791  -16.7916   28.5110 C   0  0  0  0  0  0  0  0  0  0  0  0
    8.5587  -16.7153   28.1707 O   0  0  0  0  0  0  0  0  0  0  0  0
   10.1326  -17.8469   29.3022 O   0  0  0  0  0  0  0  0  0  0  0  0
  2  1  1  6
  2  7  1  0
  3  2  1  0
  4  3  1  0
  5  4  1  0
  6  5  2  0
  7  8  2  0
  9  5  1  0
 11 10  1  0
 11 12  1  0
 12 13  1  1
 14 12  1  0
 15  7  1  0
 14 15  1  6
 16 14  1  0
 16 17  2  0
 18 16  1  0
 19 18  1  0
 20 19  1  0
 21 22  1  0
 21 20  1  0
 22 18  1  0
 22 23  1  1
 24 23  2  0
 25 23  1  0
M  END
$$$$
