EIP.pdb
     RDKit          3D

 25 25  0  0  1  0  0  0  0  0999 V2000
    9.4987  -15.3683   20.4686 N   0  0  0  0  0  0  0  0  0  0  0  0
    9.1281  -16.0817   21.6305 C   0  0  1  0  0  0  0  0  0  0  0  0
    9.9413  -17.3328   21.7961 C   0  0  0  0  0  0  0  0  0  0  0  0
    9.6811  -18.3896   20.8015 C   0  0  0  0  0  0  0  0  0  0  0  0
   10.2855  -19.6990   20.9766 C   0  0  0  0  0  0  0  0  0  0  0  0
    9.7667  -20.7623   21.3576 O   0  0  0  0  0  0  0  0  0  0  0  0
    9.3071  -15.2973   22.9020 C   0  0  0  0  0  0  0  0  0  0  0  0
   10.2467  -14.4804   22.9568 O   0  0  0  0  0  0  0  0  0  0  0  0
   11.6657  -19.7991   20.6746 O   0  0  0  0  0  0  0  0  0  0  0  0
    5.1195  -13.0047   25.4084 C   0  0  0  0  0  0  0  0  0  0  0  0
    6.5066  -13.2300   24.8346 C   0  0  0  0  0  0  0  0  0  0  0  0
    7.2664  -14.2117   25.6494 C   0  0  2  0  0  0  0  0  0  0  0  0
    7.3126  -13.6269   27.0701 C   0  0  0  0  0  0  0  0  0  0  0  0
    8.6790  -14.5081   25.2061 C   0  0  2  0  0  0  0  0  0  0  0  0
    8.4701  -15.4360   24.0350 N   0  0  0  0  0  0  0  0  0  0  0  0
    9.4016  -15.3302   26.1813 C   0  0  0  0  0  0  0  0  0  0  0  0
    9.3020  -16.6200   25.9785 O   0  0  0  0  0  0  0  0  0  0  0  0
   10.1885  -14.9270   27.2894 N   0  0  0  0  0  0  0  0  0  0  0  0
   10.4653  -13.6554   27.8928 C   0  0  0  0  0  0  0  0  0  0  0  0
   10.5516  -14.0461   29.3852 C   0  0  0  0  0  0  0  0  0  0  0  0
   11.5743  -15.1858   29.2254 C   0  0  0  0  0  0  0  0  0  0  0  0
   10.9829  -15.9144   28.0616 C   0  0  1  0  0  0  0  0  0  0  0  0
   10.0638  -16.9430   28.5829 C   0  0  0  0  0  0  0  0  0  0  0  0
    8.8116  -16.7884   28.4448 O   0  0  0  0  0  0  0  0  0  0  0  0
   10.4772  -18.0788   29.2184 O   0  0  0  0  0  0  0  0  0  0  0  0
  2  1  1  6
  2  7  1  0
  3  2  1  0
  4  3  1  0
  5  4  1  0
  6  5  2  0
  7  8  2  0
  9  5  1  0
 11 10  1  0
 11 12  1  0
 12 13  1  1
 14 12  1  0
 15  7  1  0
 14 15  1  6
 16 14  1  0
 16 17  2  0
 18 16  1  0
 19 18  1  0
 20 19  1  0
 21 22  1  0
 21 20  1  0
 22 18  1  0
 22 23  1  1
 24 23  2  0
 25 23  1  0
M  END
$$$$
