EIP.pdb
     RDKit          3D

 25 25  0  0  1  0  0  0  0  0999 V2000
   12.8136  -17.0562   21.3207 N   0  0  0  0  0  0  0  0  0  0  0  0
   11.6594  -17.2689   22.1074 C   0  0  1  0  0  0  0  0  0  0  0  0
   11.9835  -17.9896   23.3840 C   0  0  0  0  0  0  0  0  0  0  0  0
   12.5040  -19.3591   23.2197 C   0  0  0  0  0  0  0  0  0  0  0  0
   12.7992  -20.1566   24.3975 C   0  0  0  0  0  0  0  0  0  0  0  0
   13.8745  -20.2982   25.0047 O   0  0  0  0  0  0  0  0  0  0  0  0
   10.9631  -15.9979   22.5118 C   0  0  0  0  0  0  0  0  0  0  0  0
   11.6663  -14.9963   22.7472 O   0  0  0  0  0  0  0  0  0  0  0  0
   11.7179  -20.8863   24.9491 O   0  0  0  0  0  0  0  0  0  0  0  0
    7.1683  -14.0008   19.6575 C   0  0  0  0  0  0  0  0  0  0  0  0
    8.3419  -14.0139   20.6201 C   0  0  0  0  0  0  0  0  0  0  0  0
    7.8953  -14.3360   21.9992 C   0  0  2  0  0  0  0  0  0  0  0  0
    7.0189  -13.1528   22.4403 C   0  0  0  0  0  0  0  0  0  0  0  0
    8.9795  -14.5408   23.0299 C   0  0  2  0  0  0  0  0  0  0  0  0
    9.5585  -15.8781   22.6393 N   0  0  0  0  0  0  0  0  0  0  0  0
    8.4302  -14.7734   24.3690 C   0  0  0  0  0  0  0  0  0  0  0  0
    8.2229  -16.0342   24.6554 O   0  0  0  0  0  0  0  0  0  0  0  0
    8.1072  -13.8369   25.3832 N   0  0  0  0  0  0  0  0  0  0  0  0
    8.1679  -12.4058   25.4608 C   0  0  0  0  0  0  0  0  0  0  0  0
    6.9244  -12.1013   26.3259 C   0  0  0  0  0  0  0  0  0  0  0  0
    7.2575  -13.0604   27.4833 C   0  0  0  0  0  0  0  0  0  0  0  0
    7.6312  -14.2871   26.7148 C   0  0  1  0  0  0  0  0  0  0  0  0
    6.4140  -15.0971   26.5225 C   0  0  0  0  0  0  0  0  0  0  0  0
    5.7851  -15.0264   25.4224 O   0  0  0  0  0  0  0  0  0  0  0  0
    5.9052  -15.9394   27.4693 O   0  0  0  0  0  0  0  0  0  0  0  0
  2  1  1  1
  2  7  1  0
  3  2  1  0
  4  3  1  0
  5  4  1  0
  6  5  2  0
  7  8  2  0
  9  5  1  0
 11 10  1  0
 11 12  1  0
 12 13  1  1
 14 12  1  0
 15  7  1  0
 14 15  1  6
 16 14  1  0
 16 17  2  0
 18 16  1  0
 19 18  1  0
 20 19  1  0
 21 22  1  0
 21 20  1  0
 22 18  1  0
 22 23  1  6
 24 23  2  0
 25 23  1  0
M  END
$$$$
