GFD.pdb
     RDKit          3D

 24 24  0  0  1  0  0  0  0  0999 V2000
   31.8684  -22.6519   -9.8487 N   0  0  0  0  0  0  0  0  0  0  0  0
   31.1959  -21.3761   -9.9867 C   0  0  0  0  0  0  0  0  0  0  0  0
   29.7526  -21.4976   -9.6368 C   0  0  0  0  0  0  0  0  0  0  0  0
   29.1957  -22.5988   -9.4341 O   0  0  0  0  0  0  0  0  0  0  0  0
   28.9929  -20.3159   -9.5327 N   0  0  0  0  0  0  0  0  0  0  0  0
   27.6020  -20.3085   -9.1773 C   0  0  1  0  0  0  0  0  0  0  0  0
   27.2482  -19.2895   -8.1579 C   0  0  0  0  0  0  0  0  0  0  0  0
   27.6757  -19.6837   -6.7803 C   0  0  0  0  0  0  0  0  0  0  0  0
   26.8254  -20.4287   -5.9942 C   0  0  0  0  0  0  0  0  0  0  0  0
   27.1804  -20.8192   -4.7084 C   0  0  0  0  0  0  0  0  0  0  0  0
   28.4014  -20.4734   -4.1722 C   0  0  0  0  0  0  0  0  0  0  0  0
   29.2555  -19.7284   -4.9539 C   0  0  0  0  0  0  0  0  0  0  0  0
   28.8985  -19.3347   -6.2490 C   0  0  0  0  0  0  0  0  0  0  0  0
   26.6888  -20.2053  -10.3409 C   0  0  0  0  0  0  0  0  0  0  0  0
   26.8326  -19.4070  -11.3018 O   0  0  0  0  0  0  0  0  0  0  0  0
   25.5652  -21.0723  -10.3795 N   0  0  0  0  0  0  0  0  0  0  0  0
   24.6926  -21.0553  -11.5776 C   0  0  1  0  0  0  0  0  0  0  0  0
   24.6804  -22.4853  -12.0706 C   0  0  0  0  0  0  0  0  0  0  0  0
   23.8825  -22.7209  -13.2635 C   0  0  0  0  0  0  0  0  0  0  0  0
   23.3053  -21.7778  -13.8439 O   0  0  0  0  0  0  0  0  0  0  0  0
   23.3178  -20.6782  -11.1920 C   0  0  0  0  0  0  0  0  0  0  0  0
   22.9430  -20.7861  -10.0069 O   0  0  0  0  0  0  0  0  0  0  0  0
   23.7519  -23.9971  -13.7730 O   0  0  0  0  0  0  0  0  0  0  0  0
   22.4469  -20.2051  -12.1440 O   0  0  0  0  0  0  0  0  0  0  0  0
  2  1  1  0
  3  2  1  0
  3  5  1  0
  4  3  2  0
  6  5  1  0
  6 14  1  0
  6  7  1  1
  8  7  1  0
  8 13  2  0
  9  8  1  0
 10  9  2  0
 10 11  1  0
 11 12  2  0
 12 13  1  0
 14 16  1  0
 15 14  2  0
 16 17  1  0
 17 18  1  1
 17 21  1  0
 19 18  1  0
 20 19  2  0
 21 24  1  0
 22 21  2  0
 23 19  1  0
M  END
$$$$
