GFD.pdb
     RDKit          3D

 24 24  0  0  1  0  0  0  0  0999 V2000
   14.2614  -20.1754    0.8539 N   0  0  0  0  0  0  0  0  0  0  0  0
   14.1171  -19.1949    1.9107 C   0  0  0  0  0  0  0  0  0  0  0  0
   15.3185  -19.1854    2.7920 C   0  0  0  0  0  0  0  0  0  0  0  0
   16.2918  -19.9510    2.6178 O   0  0  0  0  0  0  0  0  0  0  0  0
   15.3486  -18.2715    3.8636 N   0  0  0  0  0  0  0  0  0  0  0  0
   16.4138  -18.2278    4.8252 C   0  0  1  0  0  0  0  0  0  0  0  0
   16.9708  -16.8695    5.0428 C   0  0  0  0  0  0  0  0  0  0  0  0
   17.5269  -16.2701    3.7908 C   0  0  0  0  0  0  0  0  0  0  0  0
   17.0265  -15.0719    3.3328 C   0  0  0  0  0  0  0  0  0  0  0  0
   17.5133  -14.4766    2.1750 C   0  0  0  0  0  0  0  0  0  0  0  0
   18.5189  -15.0668    1.4412 C   0  0  0  0  0  0  0  0  0  0  0  0
   19.0229  -16.2652    1.8946 C   0  0  0  0  0  0  0  0  0  0  0  0
   18.5329  -16.8653    3.0605 C   0  0  0  0  0  0  0  0  0  0  0  0
   16.0710  -18.8534    6.1250 C   0  0  0  0  0  0  0  0  0  0  0  0
   14.9230  -18.8675    6.6380 O   0  0  0  0  0  0  0  0  0  0  0  0
   17.1140  -19.4879    6.8498 N   0  0  0  0  0  0  0  0  0  0  0  0
   16.7903  -20.1399    8.1410 C   0  0  1  0  0  0  0  0  0  0  0  0
   17.9489  -21.0757    8.4056 C   0  0  0  0  0  0  0  0  0  0  0  0
   17.6946  -22.1090    9.3969 C   0  0  0  0  0  0  0  0  0  0  0  0
   18.5791  -22.9369    9.6998 O   0  0  0  0  0  0  0  0  0  0  0  0
   16.7464  -19.1289    9.2167 C   0  0  0  0  0  0  0  0  0  0  0  0
   17.2493  -18.0005    9.0429 O   0  0  0  0  0  0  0  0  0  0  0  0
   16.4653  -22.1890   10.0197 O   0  0  0  0  0  0  0  0  0  0  0  0
   16.1471  -19.4328   10.4154 O   0  0  0  0  0  0  0  0  0  0  0  0
  2  1  1  0
  3  2  1  0
  3  5  1  0
  4  3  2  0
  6  5  1  0
  6 14  1  0
  6  7  1  1
  8  7  1  0
  8 13  2  0
  9  8  1  0
 10  9  2  0
 10 11  1  0
 11 12  2  0
 12 13  1  0
 14 16  1  0
 15 14  2  0
 16 17  1  0
 17 18  1  1
 17 21  1  0
 19 18  1  0
 20 19  2  0
 21 24  1  0
 22 21  2  0
 23 19  1  0
M  END
$$$$
