GFD.pdb
     RDKit          3D

 24 24  0  0  1  0  0  0  0  0999 V2000
   31.4355  -22.1623  -10.0182 N   0  0  0  0  0  0  0  0  0  0  0  0
   30.6981  -20.9364   -9.7894 C   0  0  0  0  0  0  0  0  0  0  0  0
   29.2730  -21.2281   -9.4662 C   0  0  0  0  0  0  0  0  0  0  0  0
   28.8022  -22.3866   -9.4673 O   0  0  0  0  0  0  0  0  0  0  0  0
   28.4296  -20.1458   -9.1475 N   0  0  0  0  0  0  0  0  0  0  0  0
   27.0281  -20.2991   -8.8765 C   0  0  1  0  0  0  0  0  0  0  0  0
   26.5444  -19.4828   -7.7354 C   0  0  0  0  0  0  0  0  0  0  0  0
   27.3315  -19.7196   -6.4862 C   0  0  0  0  0  0  0  0  0  0  0  0
   27.1245  -20.8731   -5.7634 C   0  0  0  0  0  0  0  0  0  0  0  0
   27.8337  -21.1365   -4.5973 C   0  0  0  0  0  0  0  0  0  0  0  0
   28.7735  -20.2488   -4.1213 C   0  0  0  0  0  0  0  0  0  0  0  0
   28.9844  -19.0937   -4.8402 C   0  0  0  0  0  0  0  0  0  0  0  0
   28.2704  -18.8278   -6.0145 C   0  0  0  0  0  0  0  0  0  0  0  0
   26.1636  -20.0832  -10.0616 C   0  0  0  0  0  0  0  0  0  0  0  0
   26.0702  -19.0032  -10.6988 O   0  0  0  0  0  0  0  0  0  0  0  0
   25.3800  -21.1759  -10.5173 N   0  0  0  0  0  0  0  0  0  0  0  0
   24.5313  -20.9923  -11.7186 C   0  0  1  0  0  0  0  0  0  0  0  0
   24.4494  -22.3642  -12.3507 C   0  0  0  0  0  0  0  0  0  0  0  0
   23.5480  -22.4681  -13.4872 C   0  0  0  0  0  0  0  0  0  0  0  0
   23.4635  -21.5446  -14.3236 O   0  0  0  0  0  0  0  0  0  0  0  0
   23.1725  -20.5781  -11.3147 C   0  0  0  0  0  0  0  0  0  0  0  0
   22.4615  -19.9062  -12.0889 O   0  0  0  0  0  0  0  0  0  0  0  0
   22.7694  -23.5951  -13.6576 O   0  0  0  0  0  0  0  0  0  0  0  0
   22.6885  -20.9358  -10.0792 O   0  0  0  0  0  0  0  0  0  0  0  0
  2  1  1  0
  3  2  1  0
  3  5  1  0
  4  3  2  0
  6  5  1  0
  6 14  1  0
  6  7  1  1
  8  7  1  0
  8 13  2  0
  9  8  1  0
 10  9  2  0
 10 11  1  0
 11 12  2  0
 12 13  1  0
 14 16  1  0
 15 14  2  0
 16 17  1  0
 17 18  1  1
 17 21  1  0
 19 18  1  0
 20 19  2  0
 21 24  1  0
 22 21  2  0
 23 19  1  0
M  END
$$$$
