GFD.pdb
     RDKit          3D

 24 24  0  0  1  0  0  0  0  0999 V2000
   35.5002  -30.0594  -17.5887 N   0  0  0  0  0  0  0  0  0  0  0  0
   35.1655  -28.7204  -18.0293 C   0  0  0  0  0  0  0  0  0  0  0  0
   34.1305  -28.1150  -17.1446 C   0  0  0  0  0  0  0  0  0  0  0  0
   33.5433  -28.7612  -16.2493 O   0  0  0  0  0  0  0  0  0  0  0  0
   33.8076  -26.7569  -17.3335 N   0  0  0  0  0  0  0  0  0  0  0  0
   32.8667  -26.0540  -16.5078 C   0  0  1  0  0  0  0  0  0  0  0  0
   33.4655  -24.9426  -15.7276 C   0  0  0  0  0  0  0  0  0  0  0  0
   34.5077  -25.4141  -14.7645 C   0  0  0  0  0  0  0  0  0  0  0  0
   35.8025  -25.5886  -15.1991 C   0  0  0  0  0  0  0  0  0  0  0  0
   36.8045  -26.0236  -14.3397 C   0  0  0  0  0  0  0  0  0  0  0  0
   36.5367  -26.2967  -13.0162 C   0  0  0  0  0  0  0  0  0  0  0  0
   35.2435  -26.1241  -12.5764 C   0  0  0  0  0  0  0  0  0  0  0  0
   34.2338  -25.6860  -13.4415 C   0  0  0  0  0  0  0  0  0  0  0  0
   31.6693  -25.5766  -17.2404 C   0  0  0  0  0  0  0  0  0  0  0  0
   31.6621  -25.1925  -18.4378 O   0  0  0  0  0  0  0  0  0  0  0  0
   30.4332  -25.5500  -16.5426 N   0  0  0  0  0  0  0  0  0  0  0  0
   29.1952  -25.2410  -17.2971 C   0  0  1  0  0  0  0  0  0  0  0  0
   28.0706  -25.7614  -16.4295 C   0  0  0  0  0  0  0  0  0  0  0  0
   27.9943  -27.2096  -16.3198 C   0  0  0  0  0  0  0  0  0  0  0  0
   27.3986  -27.7485  -15.3636 O   0  0  0  0  0  0  0  0  0  0  0  0
   29.0443  -23.7786  -17.4367 C   0  0  0  0  0  0  0  0  0  0  0  0
   29.7776  -23.0041  -16.7896 O   0  0  0  0  0  0  0  0  0  0  0  0
   28.5826  -28.0123  -17.2763 O   0  0  0  0  0  0  0  0  0  0  0  0
   28.0911  -23.2683  -18.2850 O   0  0  0  0  0  0  0  0  0  0  0  0
  2  1  1  0
  3  2  1  0
  3  5  1  0
  4  3  2  0
  6  5  1  0
  6 14  1  0
  6  7  1  6
  8  7  1  0
  8 13  2  0
  9  8  1  0
 10  9  2  0
 10 11  1  0
 11 12  2  0
 12 13  1  0
 14 16  1  0
 15 14  2  0
 16 17  1  0
 17 18  1  1
 17 21  1  0
 19 18  1  0
 20 19  2  0
 21 24  1  0
 22 21  2  0
 23 19  1  0
M  END
$$$$
