GFD.pdb
     RDKit          3D

 24 24  0  0  1  0  0  0  0  0999 V2000
   20.8404  -10.3163  -17.5883 N   0  0  0  0  0  0  0  0  0  0  0  0
   20.2889   -9.0312  -17.9671 C   0  0  0  0  0  0  0  0  0  0  0  0
   20.3633   -8.0678  -16.8328 C   0  0  0  0  0  0  0  0  0  0  0  0
   19.6270   -8.1503  -15.8254 O   0  0  0  0  0  0  0  0  0  0  0  0
   21.3062   -7.0240  -16.9090 N   0  0  0  0  0  0  0  0  0  0  0  0
   21.4606   -6.0324  -15.8824 C   0  0  1  0  0  0  0  0  0  0  0  0
   22.8045   -6.0242  -15.2528 C   0  0  0  0  0  0  0  0  0  0  0  0
   23.2486   -7.3882  -14.8306 C   0  0  0  0  0  0  0  0  0  0  0  0
   22.6477   -7.9917  -13.7486 C   0  0  0  0  0  0  0  0  0  0  0  0
   23.0264   -9.2587  -13.3208 C   0  0  0  0  0  0  0  0  0  0  0  0
   24.0210   -9.9593  -13.9674 C   0  0  0  0  0  0  0  0  0  0  0  0
   24.6253   -9.3605  -15.0498 C   0  0  0  0  0  0  0  0  0  0  0  0
   24.2444   -8.0843  -15.4811 C   0  0  0  0  0  0  0  0  0  0  0  0
   21.0906   -4.6631  -16.3142 C   0  0  0  0  0  0  0  0  0  0  0  0
   21.5901   -4.0570  -17.2963 O   0  0  0  0  0  0  0  0  0  0  0  0
   20.0960   -3.9792  -15.5667 N   0  0  0  0  0  0  0  0  0  0  0  0
   19.6990   -2.6150  -15.9891 C   0  0  1  0  0  0  0  0  0  0  0  0
   18.1869   -2.6197  -15.9489 C   0  0  0  0  0  0  0  0  0  0  0  0
   17.5568   -1.3437  -16.2490 C   0  0  0  0  0  0  0  0  0  0  0  0
   18.2351   -0.3720  -16.6430 O   0  0  0  0  0  0  0  0  0  0  0  0
   20.1931   -1.6234  -15.0126 C   0  0  0  0  0  0  0  0  0  0  0  0
   20.0661   -0.4023  -15.2342 O   0  0  0  0  0  0  0  0  0  0  0  0
   16.1932   -1.1888  -16.1016 O   0  0  0  0  0  0  0  0  0  0  0  0
   20.7952   -2.0486  -13.8527 O   0  0  0  0  0  0  0  0  0  0  0  0
  2  1  1  0
  3  2  1  0
  3  5  1  0
  4  3  2  0
  6  5  1  0
  6 14  1  0
  6  7  1  6
  8  7  1  0
  8 13  2  0
  9  8  1  0
 10  9  2  0
 10 11  1  0
 11 12  2  0
 12 13  1  0
 14 16  1  0
 15 14  2  0
 16 17  1  0
 17 18  1  1
 17 21  1  0
 19 18  1  0
 20 19  2  0
 21 24  1  0
 22 21  2  0
 23 19  1  0
M  END
$$$$
