GFD.pdb
     RDKit          3D

 24 24  0  0  1  0  0  0  0  0999 V2000
   27.3485  -24.2236  -17.0940 N   0  0  0  0  0  0  0  0  0  0  0  0
   27.3508  -22.8583  -16.6092 C   0  0  0  0  0  0  0  0  0  0  0  0
   26.3766  -22.6906  -15.4942 C   0  0  0  0  0  0  0  0  0  0  0  0
   25.5372  -23.5667  -15.1913 O   0  0  0  0  0  0  0  0  0  0  0  0
   26.4113  -21.4907  -14.7571 N   0  0  0  0  0  0  0  0  0  0  0  0
   25.5231  -21.2187  -13.6624 C   0  0  1  0  0  0  0  0  0  0  0  0
   26.0789  -20.2783  -12.6577 C   0  0  0  0  0  0  0  0  0  0  0  0
   25.2812  -20.2526  -11.3932 C   0  0  0  0  0  0  0  0  0  0  0  0
   25.7586  -20.9032  -10.2776 C   0  0  0  0  0  0  0  0  0  0  0  0
   25.0527  -20.9052   -9.0803 C   0  0  0  0  0  0  0  0  0  0  0  0
   23.8445  -20.2530   -8.9666 C   0  0  0  0  0  0  0  0  0  0  0  0
   23.3624  -19.6008  -10.0791 C   0  0  0  0  0  0  0  0  0  0  0  0
   24.0729  -19.5985  -11.2853 C   0  0  0  0  0  0  0  0  0  0  0  0
   24.1729  -20.7752  -14.0850 C   0  0  0  0  0  0  0  0  0  0  0  0
   23.9382  -19.7943  -14.8360 O   0  0  0  0  0  0  0  0  0  0  0  0
   23.0556  -21.5112  -13.6098 N   0  0  0  0  0  0  0  0  0  0  0  0
   21.6946  -21.0718  -13.9998 C   0  0  1  0  0  0  0  0  0  0  0  0
   21.1416  -22.2090  -14.8301 C   0  0  0  0  0  0  0  0  0  0  0  0
   21.3922  -22.1093  -16.2592 C   0  0  0  0  0  0  0  0  0  0  0  0
   20.8695  -21.2013  -16.9388 O   0  0  0  0  0  0  0  0  0  0  0  0
   20.8536  -20.9152  -12.7961 C   0  0  0  0  0  0  0  0  0  0  0  0
   21.0065  -21.6726  -11.8167 O   0  0  0  0  0  0  0  0  0  0  0  0
   22.2156  -23.0221  -16.8871 O   0  0  0  0  0  0  0  0  0  0  0  0
   19.8977  -19.9286  -12.7545 O   0  0  0  0  0  0  0  0  0  0  0  0
  2  1  1  0
  3  2  1  0
  3  5  1  0
  4  3  2  0
  6  5  1  0
  6 14  1  0
  6  7  1  1
  8  7  1  0
  8 13  2  0
  9  8  1  0
 10  9  2  0
 10 11  1  0
 11 12  2  0
 12 13  1  0
 14 16  1  0
 15 14  2  0
 16 17  1  0
 17 18  1  6
 17 21  1  0
 19 18  1  0
 20 19  2  0
 21 24  1  0
 22 21  2  0
 23 19  1  0
M  END
$$$$
