GFD.pdb
     RDKit          3D

 24 24  0  0  1  0  0  0  0  0999 V2000
   27.3736  -23.8013  -17.6079 N   0  0  0  0  0  0  0  0  0  0  0  0
   27.4859  -22.5444  -16.8962 C   0  0  0  0  0  0  0  0  0  0  0  0
   26.6853  -22.5738  -15.6398 C   0  0  0  0  0  0  0  0  0  0  0  0
   26.2729  -23.6361  -15.1248 O   0  0  0  0  0  0  0  0  0  0  0  0
   26.3862  -21.3476  -15.0142 N   0  0  0  0  0  0  0  0  0  0  0  0
   25.5298  -21.2428  -13.8667 C   0  0  1  0  0  0  0  0  0  0  0  0
   25.9928  -20.2553  -12.8602 C   0  0  0  0  0  0  0  0  0  0  0  0
   25.2193  -20.3325  -11.5828 C   0  0  0  0  0  0  0  0  0  0  0  0
   25.7685  -20.9751  -10.4960 C   0  0  0  0  0  0  0  0  0  0  0  0
   25.0873  -21.0704   -9.2881 C   0  0  0  0  0  0  0  0  0  0  0  0
   23.8327  -20.5225   -9.1346 C   0  0  0  0  0  0  0  0  0  0  0  0
   23.2787  -19.8789  -10.2184 C   0  0  0  0  0  0  0  0  0  0  0  0
   23.9642  -19.7826  -11.4351 C   0  0  0  0  0  0  0  0  0  0  0  0
   24.1067  -20.9994  -14.2039 C   0  0  0  0  0  0  0  0  0  0  0  0
   23.6813  -20.0259  -14.8767 O   0  0  0  0  0  0  0  0  0  0  0  0
   23.1461  -21.9341  -13.7355 N   0  0  0  0  0  0  0  0  0  0  0  0
   21.7178  -21.7141  -14.0652 C   0  0  1  0  0  0  0  0  0  0  0  0
   21.2219  -23.0546  -14.5607 C   0  0  0  0  0  0  0  0  0  0  0  0
   20.6601  -23.0481  -15.9022 C   0  0  0  0  0  0  0  0  0  0  0  0
   20.6091  -21.9938  -16.5695 O   0  0  0  0  0  0  0  0  0  0  0  0
   20.9697  -21.3577  -12.8428 C   0  0  0  0  0  0  0  0  0  0  0  0
   21.3614  -21.7521  -11.7259 O   0  0  0  0  0  0  0  0  0  0  0  0
   20.1732  -24.2136  -16.4588 O   0  0  0  0  0  0  0  0  0  0  0  0
   19.8361  -20.5865  -12.9363 O   0  0  0  0  0  0  0  0  0  0  0  0
  2  1  1  0
  3  2  1  0
  3  5  1  0
  4  3  2  0
  6  5  1  0
  6 14  1  0
  6  7  1  1
  8  7  1  0
  8 13  2  0
  9  8  1  0
 10  9  2  0
 10 11  1  0
 11 12  2  0
 12 13  1  0
 14 16  1  0
 15 14  2  0
 16 17  1  0
 17 18  1  1
 17 21  1  0
 19 18  1  0
 20 19  2  0
 21 24  1  0
 22 21  2  0
 23 19  1  0
M  END
$$$$
