GFD.pdb
     RDKit          3D

 24 24  0  0  1  0  0  0  0  0999 V2000
   28.5478  -21.8507  -16.7390 N   0  0  0  0  0  0  0  0  0  0  0  0
   27.6378  -20.7916  -16.3528 C   0  0  0  0  0  0  0  0  0  0  0  0
   26.7731  -21.2236  -15.2188 C   0  0  0  0  0  0  0  0  0  0  0  0
   26.5140  -22.4243  -14.9844 O   0  0  0  0  0  0  0  0  0  0  0  0
   26.2296  -20.2292  -14.3820 N   0  0  0  0  0  0  0  0  0  0  0  0
   25.4291  -20.5287  -13.2285 C   0  0  1  0  0  0  0  0  0  0  0  0
   25.9790  -19.9900  -11.9596 C   0  0  0  0  0  0  0  0  0  0  0  0
   27.3888  -20.4246  -11.7151 C   0  0  0  0  0  0  0  0  0  0  0  0
   28.4085  -19.8610  -12.4489 C   0  0  0  0  0  0  0  0  0  0  0  0
   29.7338  -20.2326  -12.2553 C   0  0  0  0  0  0  0  0  0  0  0  0
   30.0759  -21.1823  -11.3176 C   0  0  0  0  0  0  0  0  0  0  0  0
   29.0600  -21.7492  -10.5812 C   0  0  0  0  0  0  0  0  0  0  0  0
   27.7251  -21.3754  -10.7758 C   0  0  0  0  0  0  0  0  0  0  0  0
   24.0051  -20.1417  -13.3729 C   0  0  0  0  0  0  0  0  0  0  0  0
   23.5971  -18.9866  -13.6569 O   0  0  0  0  0  0  0  0  0  0  0  0
   23.0226  -21.1479  -13.1785 N   0  0  0  0  0  0  0  0  0  0  0  0
   21.5979  -20.8057  -13.4028 C   0  0  1  0  0  0  0  0  0  0  0  0
   21.0935  -21.8541  -14.3696 C   0  0  0  0  0  0  0  0  0  0  0  0
   21.2080  -21.5034  -15.7764 C   0  0  0  0  0  0  0  0  0  0  0  0
   20.9265  -20.3537  -16.1744 O   0  0  0  0  0  0  0  0  0  0  0  0
   20.8463  -20.9312  -12.1378 C   0  0  0  0  0  0  0  0  0  0  0  0
   19.6737  -20.5131  -12.0565 O   0  0  0  0  0  0  0  0  0  0  0  0
   21.6318  -22.4419  -16.6957 O   0  0  0  0  0  0  0  0  0  0  0  0
   21.4419  -21.5128  -11.0443 O   0  0  0  0  0  0  0  0  0  0  0  0
  2  1  1  0
  3  2  1  0
  3  5  1  0
  4  3  2  0
  6  5  1  0
  6 14  1  0
  6  7  1  1
  8  7  1  0
  8 13  2  0
  9  8  1  0
 10  9  2  0
 10 11  1  0
 11 12  2  0
 12 13  1  0
 14 16  1  0
 15 14  2  0
 16 17  1  0
 17 18  1  6
 17 21  1  0
 19 18  1  0
 20 19  2  0
 21 24  1  0
 22 21  2  0
 23 19  1  0
M  END
$$$$
