GFD.pdb
     RDKit          3D

 24 24  0  0  1  0  0  0  0  0999 V2000
   31.1096  -22.1887  -10.9402 N   0  0  0  0  0  0  0  0  0  0  0  0
   30.4634  -20.9748  -10.4843 C   0  0  0  0  0  0  0  0  0  0  0  0
   29.0631  -21.2492  -10.0553 C   0  0  0  0  0  0  0  0  0  0  0  0
   28.5070  -22.3560  -10.2277 O   0  0  0  0  0  0  0  0  0  0  0  0
   28.3446  -20.2111   -9.4303 N   0  0  0  0  0  0  0  0  0  0  0  0
   26.9765  -20.3452   -9.0163 C   0  0  1  0  0  0  0  0  0  0  0  0
   26.6323  -19.5473   -7.8132 C   0  0  0  0  0  0  0  0  0  0  0  0
   27.5001  -19.8745   -6.6402 C   0  0  0  0  0  0  0  0  0  0  0  0
   27.7830  -18.8967   -5.7131 C   0  0  0  0  0  0  0  0  0  0  0  0
   28.5835  -19.1549   -4.6065 C   0  0  0  0  0  0  0  0  0  0  0  0
   29.1247  -20.4044   -4.3969 C   0  0  0  0  0  0  0  0  0  0  0  0
   28.8451  -21.3859   -5.3211 C   0  0  0  0  0  0  0  0  0  0  0  0
   28.0390  -21.1264   -6.4358 C   0  0  0  0  0  0  0  0  0  0  0  0
   25.9969  -20.0858  -10.0986 C   0  0  0  0  0  0  0  0  0  0  0  0
   26.0492  -19.1201  -10.9023 O   0  0  0  0  0  0  0  0  0  0  0  0
   24.9157  -20.9943  -10.2446 N   0  0  0  0  0  0  0  0  0  0  0  0
   23.9798  -20.8120  -11.3796 C   0  0  1  0  0  0  0  0  0  0  0  0
   24.0801  -22.0939  -12.1765 C   0  0  0  0  0  0  0  0  0  0  0  0
   23.9250  -21.9413  -13.6144 C   0  0  0  0  0  0  0  0  0  0  0  0
   23.6707  -20.8262  -14.1159 O   0  0  0  0  0  0  0  0  0  0  0  0
   22.5985  -20.6783  -10.8747 C   0  0  0  0  0  0  0  0  0  0  0  0
   21.7937  -19.9074  -11.4355 O   0  0  0  0  0  0  0  0  0  0  0  0
   24.0575  -23.0329  -14.4488 O   0  0  0  0  0  0  0  0  0  0  0  0
   22.1973  -21.4079   -9.7814 O   0  0  0  0  0  0  0  0  0  0  0  0
  2  1  1  0
  3  2  1  0
  3  5  1  0
  4  3  2  0
  6  5  1  0
  6 14  1  0
  6  7  1  1
  8  7  1  0
  8 13  2  0
  9  8  1  0
 10  9  2  0
 10 11  1  0
 11 12  2  0
 12 13  1  0
 14 16  1  0
 15 14  2  0
 16 17  1  0
 17 18  1  6
 17 21  1  0
 19 18  1  0
 20 19  2  0
 21 24  1  0
 22 21  2  0
 23 19  1  0
M  END
$$$$
