GFD.pdb
     RDKit          3D

 24 24  0  0  1  0  0  0  0  0999 V2000
   19.5418  -12.0762  -19.3499 N   0  0  0  0  0  0  0  0  0  0  0  0
   20.4548  -12.3980  -18.2720 C   0  0  0  0  0  0  0  0  0  0  0  0
   20.1947  -11.5383  -17.0831 C   0  0  0  0  0  0  0  0  0  0  0  0
   19.1197  -11.5729  -16.4450 O   0  0  0  0  0  0  0  0  0  0  0  0
   21.2092  -10.6530  -16.6692 N   0  0  0  0  0  0  0  0  0  0  0  0
   21.0536   -9.7436  -15.5693 C   0  0  1  0  0  0  0  0  0  0  0  0
   22.2851   -9.5622  -14.7613 C   0  0  0  0  0  0  0  0  0  0  0  0
   22.0993   -8.5868  -13.6432 C   0  0  0  0  0  0  0  0  0  0  0  0
   22.3013   -7.2446  -13.8745 C   0  0  0  0  0  0  0  0  0  0  0  0
   22.1391   -6.3014  -12.8665 C   0  0  0  0  0  0  0  0  0  0  0  0
   21.7683   -6.6778  -11.5942 C   0  0  0  0  0  0  0  0  0  0  0  0
   21.5651   -8.0188  -11.3573 C   0  0  0  0  0  0  0  0  0  0  0  0
   21.7285   -8.9691  -12.3721 C   0  0  0  0  0  0  0  0  0  0  0  0
   20.4995   -8.4246  -15.9587 C   0  0  0  0  0  0  0  0  0  0  0  0
   20.9543   -7.6936  -16.8752 O   0  0  0  0  0  0  0  0  0  0  0  0
   19.3681   -7.9456  -15.2472 N   0  0  0  0  0  0  0  0  0  0  0  0
   18.8063   -6.6225  -15.6090 C   0  0  1  0  0  0  0  0  0  0  0  0
   17.5231   -6.9334  -16.3473 C   0  0  0  0  0  0  0  0  0  0  0  0
   16.7425   -5.7726  -16.7454 C   0  0  0  0  0  0  0  0  0  0  0  0
   15.7463   -5.4137  -16.0833 O   0  0  0  0  0  0  0  0  0  0  0  0
   18.4739   -5.8665  -14.3848 C   0  0  0  0  0  0  0  0  0  0  0  0
   18.1960   -6.4680  -13.3277 O   0  0  0  0  0  0  0  0  0  0  0  0
   17.0942   -5.0481  -17.8664 O   0  0  0  0  0  0  0  0  0  0  0  0
   18.4717   -4.4924  -14.4101 O   0  0  0  0  0  0  0  0  0  0  0  0
  2  1  1  0
  3  2  1  0
  3  5  1  0
  4  3  2  0
  6  5  1  0
  6 14  1  0
  6  7  1  6
  8  7  1  0
  8 13  2  0
  9  8  1  0
 10  9  2  0
 10 11  1  0
 11 12  2  0
 12 13  1  0
 14 16  1  0
 15 14  2  0
 16 17  1  0
 17 18  1  6
 17 21  1  0
 19 18  1  0
 20 19  2  0
 21 24  1  0
 22 21  2  0
 23 19  1  0
M  END
$$$$
