GFD.pdb
     RDKit          3D

 24 24  0  0  1  0  0  0  0  0999 V2000
   31.3954  -22.3785  -10.3295 N   0  0  0  0  0  0  0  0  0  0  0  0
   30.8137  -21.1493   -9.8298 C   0  0  0  0  0  0  0  0  0  0  0  0
   29.3852  -21.3524   -9.4578 C   0  0  0  0  0  0  0  0  0  0  0  0
   28.7913  -22.4407   -9.6214 O   0  0  0  0  0  0  0  0  0  0  0  0
   28.6836  -20.2660   -8.8993 N   0  0  0  0  0  0  0  0  0  0  0  0
   27.2852  -20.3188   -8.5791 C   0  0  1  0  0  0  0  0  0  0  0  0
   26.9080  -19.5010   -7.3995 C   0  0  0  0  0  0  0  0  0  0  0  0
   27.7260  -19.8260   -6.1907 C   0  0  0  0  0  0  0  0  0  0  0  0
   28.5233  -18.8531   -5.6305 C   0  0  0  0  0  0  0  0  0  0  0  0
   29.2995  -19.1088   -4.5062 C   0  0  0  0  0  0  0  0  0  0  0  0
   29.2987  -20.3506   -3.9095 C   0  0  0  0  0  0  0  0  0  0  0  0
   28.5034  -21.3271   -4.4657 C   0  0  0  0  0  0  0  0  0  0  0  0
   27.7214  -21.0702   -5.5980 C   0  0  0  0  0  0  0  0  0  0  0  0
   26.3979  -20.0031   -9.7243 C   0  0  0  0  0  0  0  0  0  0  0  0
   26.4008  -18.9188  -10.3611 O   0  0  0  0  0  0  0  0  0  0  0  0
   25.4733  -20.9974  -10.1392 N   0  0  0  0  0  0  0  0  0  0  0  0
   24.7345  -20.7983  -11.4087 C   0  0  1  0  0  0  0  0  0  0  0  0
   25.0842  -22.0021  -12.2554 C   0  0  0  0  0  0  0  0  0  0  0  0
   24.4389  -22.0498  -13.5579 C   0  0  0  0  0  0  0  0  0  0  0  0
   23.6907  -21.1241  -13.9357 O   0  0  0  0  0  0  0  0  0  0  0  0
   23.2805  -20.8105  -11.1504 C   0  0  0  0  0  0  0  0  0  0  0  0
   22.4764  -20.5089  -12.0554 O   0  0  0  0  0  0  0  0  0  0  0  0
   24.6461  -23.1248  -14.3986 O   0  0  0  0  0  0  0  0  0  0  0  0
   22.8107  -21.1571   -9.9063 O   0  0  0  0  0  0  0  0  0  0  0  0
  2  1  1  0
  3  2  1  0
  3  5  1  0
  4  3  2  0
  6  5  1  0
  6 14  1  0
  6  7  1  1
  8  7  1  0
  8 13  2  0
  9  8  1  0
 10  9  2  0
 10 11  1  0
 11 12  2  0
 12 13  1  0
 14 16  1  0
 15 14  2  0
 16 17  1  0
 17 18  1  6
 17 21  1  0
 19 18  1  0
 20 19  2  0
 21 24  1  0
 22 21  2  0
 23 19  1  0
M  END
$$$$
