GFD.pdb
     RDKit          3D

 24 24  0  0  1  0  0  0  0  0999 V2000
   27.5390  -21.1051  -18.2934 N   0  0  0  0  0  0  0  0  0  0  0  0
   28.2469  -21.6516  -17.1535 C   0  0  0  0  0  0  0  0  0  0  0  0
   27.3419  -21.7713  -15.9758 C   0  0  0  0  0  0  0  0  0  0  0  0
   26.4421  -22.6363  -15.8987 O   0  0  0  0  0  0  0  0  0  0  0  0
   27.5159  -20.8666  -14.9101 N   0  0  0  0  0  0  0  0  0  0  0  0
   26.7001  -20.8824  -13.7289 C   0  0  1  0  0  0  0  0  0  0  0  0
   27.3961  -20.3956  -12.5119 C   0  0  0  0  0  0  0  0  0  0  0  0
   26.5155  -20.4092  -11.3033 C   0  0  0  0  0  0  0  0  0  0  0  0
   25.9180  -19.2405  -10.8873 C   0  0  0  0  0  0  0  0  0  0  0  0
   25.0908  -19.2053   -9.7709 C   0  0  0  0  0  0  0  0  0  0  0  0
   24.8379  -20.3439   -9.0376 C   0  0  0  0  0  0  0  0  0  0  0  0
   25.4330  -21.5152   -9.4491 C   0  0  0  0  0  0  0  0  0  0  0  0
   26.2662  -21.5513  -10.5734 C   0  0  0  0  0  0  0  0  0  0  0  0
   25.4029  -20.1825  -13.8897 C   0  0  0  0  0  0  0  0  0  0  0  0
   25.2698  -18.9821  -14.2399 O   0  0  0  0  0  0  0  0  0  0  0  0
   24.2168  -20.9189  -13.6315 N   0  0  0  0  0  0  0  0  0  0  0  0
   22.9141  -20.2138  -13.6852 C   0  0  1  0  0  0  0  0  0  0  0  0
   22.3660  -20.5132  -15.0629 C   0  0  0  0  0  0  0  0  0  0  0  0
   21.0439  -19.9708  -15.3332 C   0  0  0  0  0  0  0  0  0  0  0  0
   20.7560  -18.7980  -15.0152 O   0  0  0  0  0  0  0  0  0  0  0  0
   21.9943  -20.7814  -12.6789 C   0  0  0  0  0  0  0  0  0  0  0  0
   21.0491  -20.1002  -12.2328 O   0  0  0  0  0  0  0  0  0  0  0  0
   20.0843  -20.7495  -15.9482 O   0  0  0  0  0  0  0  0  0  0  0  0
   22.1802  -22.0677  -12.2322 O   0  0  0  0  0  0  0  0  0  0  0  0
  2  1  1  0
  3  2  1  0
  3  5  1  0
  4  3  2  0
  6  5  1  0
  6 14  1  0
  6  7  1  1
  8  7  1  0
  8 13  2  0
  9  8  1  0
 10  9  2  0
 10 11  1  0
 11 12  2  0
 12 13  1  0
 14 16  1  0
 15 14  2  0
 16 17  1  0
 17 18  1  6
 17 21  1  0
 19 18  1  0
 20 19  2  0
 21 24  1  0
 22 21  2  0
 23 19  1  0
M  END
$$$$
