GFD.pdb
     RDKit          3D

 24 24  0  0  1  0  0  0  0  0999 V2000
   28.6545  -18.7000  -15.3260 N   0  0  0  0  0  0  0  0  0  0  0  0
   28.4847  -18.9082  -13.9023 C   0  0  0  0  0  0  0  0  0  0  0  0
   27.4554  -19.9529  -13.6388 C   0  0  0  0  0  0  0  0  0  0  0  0
   26.8406  -20.5433  -14.5538 O   0  0  0  0  0  0  0  0  0  0  0  0
   27.1705  -20.2812  -12.2989 N   0  0  0  0  0  0  0  0  0  0  0  0
   26.1244  -21.1889  -11.9209 C   0  0  1  0  0  0  0  0  0  0  0  0
   26.4331  -21.9903  -10.7105 C   0  0  0  0  0  0  0  0  0  0  0  0
   26.9524  -21.1534   -9.5854 C   0  0  0  0  0  0  0  0  0  0  0  0
   28.3047  -21.1288   -9.3274 C   0  0  0  0  0  0  0  0  0  0  0  0
   28.8330  -20.3647   -8.2935 C   0  0  0  0  0  0  0  0  0  0  0  0
   28.0185  -19.6010   -7.4864 C   0  0  0  0  0  0  0  0  0  0  0  0
   26.6654  -19.6220   -7.7399 C   0  0  0  0  0  0  0  0  0  0  0  0
   26.1328  -20.3914   -8.7810 C   0  0  0  0  0  0  0  0  0  0  0  0
   24.7962  -20.5448  -11.7819 C   0  0  0  0  0  0  0  0  0  0  0  0
   24.6025  -19.3743  -11.3653 O   0  0  0  0  0  0  0  0  0  0  0  0
   23.6519  -21.3019  -12.1468 N   0  0  0  0  0  0  0  0  0  0  0  0
   22.4056  -20.5829  -12.5032 C   0  0  1  0  0  0  0  0  0  0  0  0
   22.7030  -19.9238  -13.8319 C   0  0  0  0  0  0  0  0  0  0  0  0
   21.5749  -19.2473  -14.4523 C   0  0  0  0  0  0  0  0  0  0  0  0
   20.5634  -18.9461  -13.7847 O   0  0  0  0  0  0  0  0  0  0  0  0
   21.3053  -21.5495  -12.6928 C   0  0  0  0  0  0  0  0  0  0  0  0
   21.4895  -22.5944  -13.3489 O   0  0  0  0  0  0  0  0  0  0  0  0
   21.6073  -18.9274  -15.7946 O   0  0  0  0  0  0  0  0  0  0  0  0
   20.0717  -21.2966  -12.1424 O   0  0  0  0  0  0  0  0  0  0  0  0
  2  1  1  0
  3  2  1  0
  3  5  1  0
  4  3  2  0
  6  5  1  0
  6 14  1  0
  6  7  1  1
  8  7  1  0
  8 13  2  0
  9  8  1  0
 10  9  2  0
 10 11  1  0
 11 12  2  0
 12 13  1  0
 14 16  1  0
 15 14  2  0
 16 17  1  0
 17 18  1  6
 17 21  1  0
 19 18  1  0
 20 19  2  0
 21 24  1  0
 22 21  2  0
 23 19  1  0
M  END
$$$$
