GFD.pdb
     RDKit          3D

 24 24  0  0  1  0  0  0  0  0999 V2000
   22.0245  -22.3116   -6.4758 N   0  0  0  0  0  0  0  0  0  0  0  0
   23.3563  -22.4945   -7.0162 C   0  0  0  0  0  0  0  0  0  0  0  0
   23.6437  -21.4816   -8.0705 C   0  0  0  0  0  0  0  0  0  0  0  0
   22.8090  -20.6223   -8.4291 O   0  0  0  0  0  0  0  0  0  0  0  0
   24.9123  -21.5020   -8.6826 N   0  0  0  0  0  0  0  0  0  0  0  0
   25.2841  -20.6087   -9.7431 C   0  0  1  0  0  0  0  0  0  0  0  0
   26.7437  -20.3548   -9.8304 C   0  0  0  0  0  0  0  0  0  0  0  0
   27.3245  -19.8936   -8.5320 C   0  0  0  0  0  0  0  0  0  0  0  0
   26.9395  -18.6786   -8.0111 C   0  0  0  0  0  0  0  0  0  0  0  0
   27.4514  -18.2096   -6.8069 C   0  0  0  0  0  0  0  0  0  0  0  0
   28.3663  -18.9475   -6.0882 C   0  0  0  0  0  0  0  0  0  0  0  0
   28.7548  -20.1632   -6.6046 C   0  0  0  0  0  0  0  0  0  0  0  0
   28.2397  -20.6360   -7.8173 C   0  0  0  0  0  0  0  0  0  0  0  0
   24.7543  -21.0041  -11.0703 C   0  0  0  0  0  0  0  0  0  0  0  0
   24.9670  -22.1091  -11.6316 O   0  0  0  0  0  0  0  0  0  0  0  0
   23.9429  -20.0686  -11.7647 N   0  0  0  0  0  0  0  0  0  0  0  0
   23.3064  -20.4836  -13.0375 C   0  0  1  0  0  0  0  0  0  0  0  0
   22.1416  -19.5355  -13.2173 C   0  0  0  0  0  0  0  0  0  0  0  0
   21.0042  -19.7816  -12.3450 C   0  0  0  0  0  0  0  0  0  0  0  0
   20.7375  -20.9364  -11.9516 O   0  0  0  0  0  0  0  0  0  0  0  0
   24.2494  -20.2888  -14.1572 C   0  0  0  0  0  0  0  0  0  0  0  0
   23.9831  -20.7355  -15.2912 O   0  0  0  0  0  0  0  0  0  0  0  0
   20.1999  -18.7362  -11.9379 O   0  0  0  0  0  0  0  0  0  0  0  0
   25.4265  -19.6108  -13.9487 O   0  0  0  0  0  0  0  0  0  0  0  0
  2  1  1  0
  3  2  1  0
  3  5  1  0
  4  3  2  0
  6  5  1  0
  6 14  1  0
  6  7  1  6
  8  7  1  0
  8 13  2  0
  9  8  1  0
 10  9  2  0
 10 11  1  0
 11 12  2  0
 12 13  1  0
 14 16  1  0
 15 14  2  0
 16 17  1  0
 17 18  1  6
 17 21  1  0
 19 18  1  0
 20 19  2  0
 21 24  1  0
 22 21  2  0
 23 19  1  0
M  END
$$$$
