GFD.pdb
     RDKit          3D

 24 24  0  0  1  0  0  0  0  0999 V2000
   25.1764   -5.8089  -19.9299 N   0  0  0  0  0  0  0  0  0  0  0  0
   24.7032   -7.1460  -20.2256 C   0  0  0  0  0  0  0  0  0  0  0  0
   24.0673   -7.7601  -19.0261 C   0  0  0  0  0  0  0  0  0  0  0  0
   23.4802   -8.8637  -19.0616 O   0  0  0  0  0  0  0  0  0  0  0  0
   24.1362   -7.0593  -17.8061 N   0  0  0  0  0  0  0  0  0  0  0  0
   23.5860   -7.5657  -16.5805 C   0  0  1  0  0  0  0  0  0  0  0  0
   24.5629   -7.6298  -15.4651 C   0  0  0  0  0  0  0  0  0  0  0  0
   25.5551   -8.7358  -15.6343 C   0  0  0  0  0  0  0  0  0  0  0  0
   26.6916   -8.5181  -16.3805 C   0  0  0  0  0  0  0  0  0  0  0  0
   27.6420   -9.5156  -16.5639 C   0  0  0  0  0  0  0  0  0  0  0  0
   27.4800  -10.7634  -16.0027 C   0  0  0  0  0  0  0  0  0  0  0  0
   26.3452  -10.9865  -15.2557 C   0  0  0  0  0  0  0  0  0  0  0  0
   25.3876   -9.9823  -15.0707 C   0  0  0  0  0  0  0  0  0  0  0  0
   22.3563   -6.8626  -16.1426 C   0  0  0  0  0  0  0  0  0  0  0  0
   22.2983   -5.6517  -15.8085 O   0  0  0  0  0  0  0  0  0  0  0  0
   21.1487   -7.6076  -16.0961 N   0  0  0  0  0  0  0  0  0  0  0  0
   19.8908   -6.9052  -15.7476 C   0  0  1  0  0  0  0  0  0  0  0  0
   19.0051   -7.0669  -16.9632 C   0  0  0  0  0  0  0  0  0  0  0  0
   17.7139   -6.4028  -16.8798 C   0  0  0  0  0  0  0  0  0  0  0  0
   16.7284   -6.8379  -17.5115 O   0  0  0  0  0  0  0  0  0  0  0  0
   19.2435   -7.5739  -14.6010 C   0  0  0  0  0  0  0  0  0  0  0  0
   19.3901   -8.7996  -14.4206 O   0  0  0  0  0  0  0  0  0  0  0  0
   17.5596   -5.2764  -16.0970 O   0  0  0  0  0  0  0  0  0  0  0  0
   18.4762   -6.8414  -13.7273 O   0  0  0  0  0  0  0  0  0  0  0  0
  2  1  1  0
  3  2  1  0
  3  5  1  0
  4  3  2  0
  6  5  1  0
  6 14  1  0
  6  7  1  1
  8  7  1  0
  8 13  2  0
  9  8  1  0
 10  9  2  0
 10 11  1  0
 11 12  2  0
 12 13  1  0
 14 16  1  0
 15 14  2  0
 16 17  1  0
 17 18  1  6
 17 21  1  0
 19 18  1  0
 20 19  2  0
 21 24  1  0
 22 21  2  0
 23 19  1  0
M  END
$$$$
