GFD.pdb
     RDKit          3D

 24 24  0  0  1  0  0  0  0  0999 V2000
   11.7226  -18.2707    1.8877 N   0  0  0  0  0  0  0  0  0  0  0  0
   12.5555  -17.7798    2.9667 C   0  0  0  0  0  0  0  0  0  0  0  0
   13.6186  -18.7671    3.3064 C   0  0  0  0  0  0  0  0  0  0  0  0
   13.5815  -19.9586    2.9283 O   0  0  0  0  0  0  0  0  0  0  0  0
   14.7065  -18.3292    4.0869 N   0  0  0  0  0  0  0  0  0  0  0  0
   15.7539  -19.2050    4.5308 C   0  0  1  0  0  0  0  0  0  0  0  0
   17.0911  -18.8680    3.9822 C   0  0  0  0  0  0  0  0  0  0  0  0
   17.1159  -18.8738    2.4871 C   0  0  0  0  0  0  0  0  0  0  0  0
   17.2754  -20.0659    1.8167 C   0  0  0  0  0  0  0  0  0  0  0  0
   17.3031  -20.1202    0.4281 C   0  0  0  0  0  0  0  0  0  0  0  0
   17.1711  -18.9778   -0.3305 C   0  0  0  0  0  0  0  0  0  0  0  0
   17.0115  -17.7829    0.3348 C   0  0  0  0  0  0  0  0  0  0  0  0
   16.9836  -17.7277    1.7333 C   0  0  0  0  0  0  0  0  0  0  0  0
   15.8279  -19.3483    6.0047 C   0  0  0  0  0  0  0  0  0  0  0  0
   15.5436  -18.4452    6.8322 O   0  0  0  0  0  0  0  0  0  0  0  0
   16.2500  -20.5989    6.5278 N   0  0  0  0  0  0  0  0  0  0  0  0
   16.2813  -20.7824    7.9984 C   0  0  1  0  0  0  0  0  0  0  0  0
   16.1951  -22.2783    8.2058 C   0  0  0  0  0  0  0  0  0  0  0  0
   16.2523  -22.7141    9.5922 C   0  0  0  0  0  0  0  0  0  0  0  0
   16.6842  -23.8475    9.8894 O   0  0  0  0  0  0  0  0  0  0  0  0
   17.5714  -20.3059    8.5363 C   0  0  0  0  0  0  0  0  0  0  0  0
   18.5887  -20.2899    7.8143 O   0  0  0  0  0  0  0  0  0  0  0  0
   15.8275  -21.8763   10.6036 O   0  0  0  0  0  0  0  0  0  0  0  0
   17.6513  -19.8767    9.8394 O   0  0  0  0  0  0  0  0  0  0  0  0
  2  1  1  0
  3  2  1  0
  3  5  1  0
  4  3  2  0
  6  5  1  0
  6 14  1  0
  6  7  1  1
  8  7  1  0
  8 13  2  0
  9  8  1  0
 10  9  2  0
 10 11  1  0
 11 12  2  0
 12 13  1  0
 14 16  1  0
 15 14  2  0
 16 17  1  0
 17 18  1  6
 17 21  1  0
 19 18  1  0
 20 19  2  0
 21 24  1  0
 22 21  2  0
 23 19  1  0
M  END
$$$$
