GFD.pdb
     RDKit          3D

 24 24  0  0  1  0  0  0  0  0999 V2000
   24.1486  -10.3106  -20.7647 N   0  0  0  0  0  0  0  0  0  0  0  0
   24.9570  -10.8877  -19.7098 C   0  0  0  0  0  0  0  0  0  0  0  0
   24.3759  -10.5851  -18.3716 C   0  0  0  0  0  0  0  0  0  0  0  0
   23.2929  -11.0713  -17.9782 O   0  0  0  0  0  0  0  0  0  0  0  0
   25.0845   -9.7132  -17.5218 N   0  0  0  0  0  0  0  0  0  0  0  0
   24.5897   -9.2953  -16.2406 C   0  0  1  0  0  0  0  0  0  0  0  0
   25.5644   -9.4687  -15.1349 C   0  0  0  0  0  0  0  0  0  0  0  0
   26.1509  -10.8437  -15.0976 C   0  0  0  0  0  0  0  0  0  0  0  0
   27.4062  -11.0593  -15.6207 C   0  0  0  0  0  0  0  0  0  0  0  0
   27.9921  -12.3196  -15.6069 C   0  0  0  0  0  0  0  0  0  0  0  0
   27.3348  -13.4030  -15.0664 C   0  0  0  0  0  0  0  0  0  0  0  0
   26.0792  -13.1931  -14.5420 C   0  0  0  0  0  0  0  0  0  0  0  0
   25.4886  -11.9240  -14.5557 C   0  0  0  0  0  0  0  0  0  0  0  0
   24.0468   -7.9156  -16.2310 C   0  0  0  0  0  0  0  0  0  0  0  0
   24.5634   -6.9333  -16.8221 O   0  0  0  0  0  0  0  0  0  0  0  0
   22.8517   -7.6795  -15.5018 N   0  0  0  0  0  0  0  0  0  0  0  0
   22.1478   -6.3880  -15.6858 C   0  0  1  0  0  0  0  0  0  0  0  0
   21.6478   -6.4173  -17.1132 C   0  0  0  0  0  0  0  0  0  0  0  0
   20.8401   -5.2743  -17.5085 C   0  0  0  0  0  0  0  0  0  0  0  0
   21.2826   -4.1112  -17.4041 O   0  0  0  0  0  0  0  0  0  0  0  0
   20.9834   -6.3176  -14.7803 C   0  0  0  0  0  0  0  0  0  0  0  0
   20.2447   -7.3108  -14.6240 O   0  0  0  0  0  0  0  0  0  0  0  0
   19.5665   -5.4608  -18.0071 O   0  0  0  0  0  0  0  0  0  0  0  0
   20.7127   -5.1515  -14.1052 O   0  0  0  0  0  0  0  0  0  0  0  0
  2  1  1  0
  3  2  1  0
  3  5  1  0
  4  3  2  0
  6  5  1  0
  6 14  1  0
  6  7  1  1
  8  7  1  0
  8 13  2  0
  9  8  1  0
 10  9  2  0
 10 11  1  0
 11 12  2  0
 12 13  1  0
 14 16  1  0
 15 14  2  0
 16 17  1  0
 17 18  1  6
 17 21  1  0
 19 18  1  0
 20 19  2  0
 21 24  1  0
 22 21  2  0
 23 19  1  0
M  END
$$$$
