ADH.pdb
     RDKit          3D

 24 24  0  0  1  0  0  0  0  0999 V2000
    8.5083  -19.3854   19.0433 C   0  0  0  0  0  0  0  0  0  0  0  0
    8.8030  -17.9879   19.5461 C   0  0  2  0  0  0  0  0  0  0  0  0
    9.4060  -17.2185   18.4775 N   0  0  0  0  0  0  0  0  0  0  0  0
    9.7721  -18.0894   20.6910 C   0  0  0  0  0  0  0  0  0  0  0  0
    9.4452  -18.8250   21.6698 O   0  0  0  0  0  0  0  0  0  0  0  0
   11.0032  -17.3863   20.6704 N   0  0  0  0  0  0  0  0  0  0  0  0
   11.8778  -17.5033   21.8493 C   0  0  1  0  0  0  0  0  0  0  0  0
   13.2179  -16.9707   21.4458 C   0  0  0  0  0  0  0  0  0  0  0  0
   14.2109  -17.1218   22.5068 C   0  0  0  0  0  0  0  0  0  0  0  0
   15.0562  -16.2563   22.7750 O   0  0  0  0  0  0  0  0  0  0  0  0
   11.2465  -16.7010   22.9539 C   0  0  0  0  0  0  0  0  0  0  0  0
   11.3359  -15.4552   23.0327 O   0  0  0  0  0  0  0  0  0  0  0  0
   14.2236  -18.3076   23.2769 O   0  0  0  0  0  0  0  0  0  0  0  0
   10.5083  -17.3742   23.9675 N   0  0  0  0  0  0  0  0  0  0  0  0
    9.7163  -16.6045   24.9761 C   0  0  1  0  0  0  0  0  0  0  0  0
    8.3154  -16.6156   24.4797 C   0  0  0  0  0  0  0  0  0  0  0  0
    7.9833  -15.5721   23.5143 C   0  0  0  0  0  0  0  0  0  0  0  0
    8.7007  -14.4648   23.1486 C   0  0  0  0  0  0  0  0  0  0  0  0
    8.0211  -13.8104   22.1536 N   0  0  0  0  0  0  0  0  0  0  0  0
    6.9066  -14.4984   21.9069 C   0  0  0  0  0  0  0  0  0  0  0  0
    6.8846  -15.5438   22.7142 N   0  0  0  0  0  0  0  0  0  0  0  0
    9.7838  -17.4453   26.2326 C   0  0  0  0  0  0  0  0  0  0  0  0
    9.2420  -16.9813   27.2913 O   0  0  0  0  0  0  0  0  0  0  0  0
   10.3874  -18.6616   26.2989 O   0  0  0  0  0  0  0  0  0  0  0  0
  2  1  1  6
  2  3  1  0
  4  2  1  0
  5  4  2  0
  6  4  1  0
  7 11  1  0
  7  6  1  0
  7  8  1  6
  9  8  1  0
 10  9  2  0
 11 14  1  0
 12 11  2  0
 13  9  1  0
 14 15  1  0
 15 22  1  0
 15 16  1  6
 16 17  1  0
 17 21  1  0
 17 18  2  0
 18 19  1  0
 20 19  1  0
 21 20  2  0
 22 23  2  0
 22 24  1  0
M  END
$$$$
