ADH.pdb
     RDKit          3D

 24 24  0  0  1  0  0  0  0  0999 V2000
    8.2582  -12.6146   19.1224 C   0  0  0  0  0  0  0  0  0  0  0  0
    8.9018  -13.2826   17.9258 C   0  0  2  0  0  0  0  0  0  0  0  0
    7.8816  -13.9735   17.1647 N   0  0  0  0  0  0  0  0  0  0  0  0
    9.9093  -14.2812   18.4238 C   0  0  0  0  0  0  0  0  0  0  0  0
    9.5312  -15.4854   18.5382 O   0  0  0  0  0  0  0  0  0  0  0  0
   11.2305  -13.8846   18.7515 N   0  0  0  0  0  0  0  0  0  0  0  0
   12.1776  -14.9340   19.1641 C   0  0  1  0  0  0  0  0  0  0  0  0
   13.5454  -14.4491   18.7947 C   0  0  0  0  0  0  0  0  0  0  0  0
   14.5021  -15.5463   18.6712 C   0  0  0  0  0  0  0  0  0  0  0  0
   14.4157  -16.5996   19.3180 O   0  0  0  0  0  0  0  0  0  0  0  0
   12.0136  -15.1243   20.6470 C   0  0  0  0  0  0  0  0  0  0  0  0
   12.3215  -14.2500   21.4879 O   0  0  0  0  0  0  0  0  0  0  0  0
   15.5875  -15.4184   17.7739 O   0  0  0  0  0  0  0  0  0  0  0  0
   11.4846  -16.3517   21.1361 N   0  0  0  0  0  0  0  0  0  0  0  0
   11.2880  -16.5697   22.6026 C   0  0  1  0  0  0  0  0  0  0  0  0
    9.8858  -17.0387   22.7542 C   0  0  0  0  0  0  0  0  0  0  0  0
    8.8663  -15.9949   22.7071 C   0  0  0  0  0  0  0  0  0  0  0  0
    9.0136  -14.6337   22.7156 C   0  0  0  0  0  0  0  0  0  0  0  0
    7.7762  -14.0576   22.5856 N   0  0  0  0  0  0  0  0  0  0  0  0
    6.8809  -15.0409   22.4969 C   0  0  0  0  0  0  0  0  0  0  0  0
    7.5281  -16.1903   22.5687 N   0  0  0  0  0  0  0  0  0  0  0  0
   12.2141  -17.7174   22.9425 C   0  0  0  0  0  0  0  0  0  0  0  0
   12.7491  -18.3589   21.9772 O   0  0  0  0  0  0  0  0  0  0  0  0
   12.5071  -18.1040   24.2124 O   0  0  0  0  0  0  0  0  0  0  0  0
  2  1  1  1
  2  3  1  0
  4  2  1  0
  5  4  2  0
  6  4  1  0
  7 11  1  0
  7  6  1  0
  7  8  1  1
  9  8  1  0
 10  9  2  0
 11 14  1  0
 12 11  2  0
 13  9  1  0
 14 15  1  0
 15 22  1  0
 15 16  1  6
 16 17  1  0
 17 21  1  0
 17 18  2  0
 18 19  1  0
 20 19  1  0
 21 20  2  0
 22 23  2  0
 22 24  1  0
M  END
$$$$
