ADH.pdb
     RDKit          3D

 24 24  0  0  1  0  0  0  0  0999 V2000
    9.5972  -17.0344   15.1147 C   0  0  0  0  0  0  0  0  0  0  0  0
    9.8168  -15.7441   15.8758 C   0  0  2  0  0  0  0  0  0  0  0  0
   10.4681  -14.7870   15.0057 N   0  0  0  0  0  0  0  0  0  0  0  0
   10.7090  -16.0318   17.0513 C   0  0  0  0  0  0  0  0  0  0  0  0
   10.3009  -16.8789   17.9010 O   0  0  0  0  0  0  0  0  0  0  0  0
   11.9579  -15.3770   17.1979 N   0  0  0  0  0  0  0  0  0  0  0  0
   12.7424  -15.6631   18.4108 C   0  0  1  0  0  0  0  0  0  0  0  0
   14.1436  -15.2134   18.1336 C   0  0  0  0  0  0  0  0  0  0  0  0
   14.8560  -16.1433   17.2605 C   0  0  0  0  0  0  0  0  0  0  0  0
   14.6546  -17.3659   17.2609 O   0  0  0  0  0  0  0  0  0  0  0  0
   12.1058  -14.9040   19.5425 C   0  0  0  0  0  0  0  0  0  0  0  0
   12.2804  -13.6789   19.7292 O   0  0  0  0  0  0  0  0  0  0  0  0
   15.8274  -15.6419   16.3636 O   0  0  0  0  0  0  0  0  0  0  0  0
   11.2613  -15.5960   20.4556 N   0  0  0  0  0  0  0  0  0  0  0  0
   10.5987  -14.8718   21.5841 C   0  0  1  0  0  0  0  0  0  0  0  0
    9.1391  -14.9696   21.3217 C   0  0  0  0  0  0  0  0  0  0  0  0
    8.6616  -14.2405   20.1506 C   0  0  0  0  0  0  0  0  0  0  0  0
    8.9979  -12.9893   19.7078 C   0  0  0  0  0  0  0  0  0  0  0  0
    8.3473  -12.7531   18.5242 N   0  0  0  0  0  0  0  0  0  0  0  0
    7.6240  -13.8355   18.2387 C   0  0  0  0  0  0  0  0  0  0  0  0
    7.8110  -14.7180   19.2038 N   0  0  0  0  0  0  0  0  0  0  0  0
   10.9201  -15.7023   22.8078 C   0  0  0  0  0  0  0  0  0  0  0  0
   11.4752  -16.8380   22.6296 O   0  0  0  0  0  0  0  0  0  0  0  0
   10.6513  -15.3104   24.0814 O   0  0  0  0  0  0  0  0  0  0  0  0
  2  1  1  6
  2  3  1  0
  4  2  1  0
  5  4  2  0
  6  4  1  0
  7 11  1  0
  7  6  1  0
  7  8  1  6
  9  8  1  0
 10  9  2  0
 11 14  1  0
 12 11  2  0
 13  9  1  0
 14 15  1  0
 15 22  1  0
 15 16  1  6
 16 17  1  0
 17 21  1  0
 17 18  2  0
 18 19  1  0
 20 19  1  0
 21 20  2  0
 22 23  2  0
 22 24  1  0
M  END
$$$$
