ADH.pdb
     RDKit          3D

 24 24  0  0  1  0  0  0  0  0999 V2000
    6.9313  -13.1664   19.3631 C   0  0  0  0  0  0  0  0  0  0  0  0
    8.3546  -13.3614   19.8414 C   0  0  2  0  0  0  0  0  0  0  0  0
    9.1784  -13.7662   18.7212 N   0  0  0  0  0  0  0  0  0  0  0  0
    8.3621  -14.4485   20.8799 C   0  0  0  0  0  0  0  0  0  0  0  0
    7.5949  -14.3077   21.8788 O   0  0  0  0  0  0  0  0  0  0  0  0
    9.1980  -15.5853   20.7414 N   0  0  0  0  0  0  0  0  0  0  0  0
    8.9942  -16.7028   21.6784 C   0  0  1  0  0  0  0  0  0  0  0  0
    9.8007  -17.8528   21.1591 C   0  0  0  0  0  0  0  0  0  0  0  0
    9.2519  -18.3916   19.9169 C   0  0  0  0  0  0  0  0  0  0  0  0
    9.9111  -18.5001   18.8733 O   0  0  0  0  0  0  0  0  0  0  0  0
    9.4560  -16.2388   23.0325 C   0  0  0  0  0  0  0  0  0  0  0  0
   10.4883  -15.5529   23.2061 O   0  0  0  0  0  0  0  0  0  0  0  0
    7.9034  -18.8157   19.8844 O   0  0  0  0  0  0  0  0  0  0  0  0
    8.6951  -16.5874   24.1836 N   0  0  0  0  0  0  0  0  0  0  0  0
    9.0811  -16.0826   25.5375 C   0  0  1  0  0  0  0  0  0  0  0  0
    7.8136  -15.6471   26.1799 C   0  0  0  0  0  0  0  0  0  0  0  0
    7.4212  -14.2651   25.9209 C   0  0  0  0  0  0  0  0  0  0  0  0
    8.0864  -13.2861   25.2327 C   0  0  0  0  0  0  0  0  0  0  0  0
    7.2968  -12.1659   25.1900 N   0  0  0  0  0  0  0  0  0  0  0  0
    6.1655  -12.4451   25.8368 C   0  0  0  0  0  0  0  0  0  0  0  0
    6.2395  -13.6909   26.2701 N   0  0  0  0  0  0  0  0  0  0  0  0
    9.5898  -17.3068   26.2675 C   0  0  0  0  0  0  0  0  0  0  0  0
   10.0610  -17.1481   27.4433 O   0  0  0  0  0  0  0  0  0  0  0  0
    9.5753  -18.5614   25.7443 O   0  0  0  0  0  0  0  0  0  0  0  0
  2  1  1  6
  2  3  1  0
  4  2  1  0
  5  4  2  0
  6  4  1  0
  7 11  1  0
  7  6  1  0
  7  8  1  6
  9  8  1  0
 10  9  2  0
 11 14  1  0
 12 11  2  0
 13  9  1  0
 14 15  1  0
 15 22  1  0
 15 16  1  1
 16 17  1  0
 17 21  1  0
 17 18  2  0
 18 19  1  0
 20 19  1  0
 21 20  2  0
 22 23  2  0
 22 24  1  0
M  END
$$$$
