ADH.pdb
     RDKit          3D

 24 24  0  0  1  0  0  0  0  0999 V2000
   11.3272  -18.2667   15.7191 C   0  0  0  0  0  0  0  0  0  0  0  0
   10.7060  -16.9939   16.2544 C   0  0  2  0  0  0  0  0  0  0  0  0
   10.8842  -15.9356   15.2819 N   0  0  0  0  0  0  0  0  0  0  0  0
   11.4118  -16.6198   17.5281 C   0  0  0  0  0  0  0  0  0  0  0  0
   11.3164  -17.4205   18.5058 O   0  0  0  0  0  0  0  0  0  0  0  0
   12.1541  -15.4157   17.6255 N   0  0  0  0  0  0  0  0  0  0  0  0
   12.8632  -15.1492   18.8882 C   0  0  1  0  0  0  0  0  0  0  0  0
   13.9380  -14.1540   18.5767 C   0  0  0  0  0  0  0  0  0  0  0  0
   15.1120  -14.7835   17.9768 C   0  0  0  0  0  0  0  0  0  0  0  0
   15.4133  -15.9717   18.1578 O   0  0  0  0  0  0  0  0  0  0  0  0
   11.8501  -14.6180   19.8647 C   0  0  0  0  0  0  0  0  0  0  0  0
   11.2397  -13.5381   19.6989 O   0  0  0  0  0  0  0  0  0  0  0  0
   15.9587  -14.0145   17.1453 O   0  0  0  0  0  0  0  0  0  0  0  0
   11.5588  -15.3659   21.0401 N   0  0  0  0  0  0  0  0  0  0  0  0
   10.4666  -14.9381   21.9680 C   0  0  1  0  0  0  0  0  0  0  0  0
    9.1960  -15.2788   21.2763 C   0  0  0  0  0  0  0  0  0  0  0  0
    8.7367  -14.3042   20.2912 C   0  0  0  0  0  0  0  0  0  0  0  0
    9.3340  -13.1472   19.8680 C   0  0  0  0  0  0  0  0  0  0  0  0
    8.5651  -12.5935   18.8769 N   0  0  0  0  0  0  0  0  0  0  0  0
    7.5141  -13.3913   18.6888 C   0  0  0  0  0  0  0  0  0  0  0  0
    7.6164  -14.4064   19.5279 N   0  0  0  0  0  0  0  0  0  0  0  0
   10.6136  -15.8458   23.1700 C   0  0  0  0  0  0  0  0  0  0  0  0
    9.8657  -15.6241   24.1805 O   0  0  0  0  0  0  0  0  0  0  0  0
   11.4944  -16.8791   23.2360 O   0  0  0  0  0  0  0  0  0  0  0  0
  2  1  1  6
  2  3  1  0
  4  2  1  0
  5  4  2  0
  6  4  1  0
  7 11  1  0
  7  6  1  0
  7  8  1  6
  9  8  1  0
 10  9  2  0
 11 14  1  0
 12 11  2  0
 13  9  1  0
 14 15  1  0
 15 22  1  0
 15 16  1  6
 16 17  1  0
 17 21  1  0
 17 18  2  0
 18 19  1  0
 20 19  1  0
 21 20  2  0
 22 23  2  0
 22 24  1  0
M  END
$$$$
