ADH.pdb
     RDKit          3D

 24 24  0  0  1  0  0  0  0  0999 V2000
    8.2587  -12.7965   18.1304 C   0  0  0  0  0  0  0  0  0  0  0  0
    9.0679  -13.7286   17.2536 C   0  0  2  0  0  0  0  0  0  0  0  0
    8.1675  -14.6289   16.5635 N   0  0  0  0  0  0  0  0  0  0  0  0
    9.9894  -14.5275   18.1328 C   0  0  0  0  0  0  0  0  0  0  0  0
    9.6138  -15.6904   18.4688 O   0  0  0  0  0  0  0  0  0  0  0  0
   11.2297  -13.9947   18.5662 N   0  0  0  0  0  0  0  0  0  0  0  0
   12.1766  -14.9119   19.2224 C   0  0  1  0  0  0  0  0  0  0  0  0
   13.5517  -14.4139   18.9005 C   0  0  0  0  0  0  0  0  0  0  0  0
   14.5915  -15.3046   19.4103 C   0  0  0  0  0  0  0  0  0  0  0  0
   14.4046  -16.5086   19.6360 O   0  0  0  0  0  0  0  0  0  0  0  0
   11.8809  -14.8777   20.6967 C   0  0  0  0  0  0  0  0  0  0  0  0
   12.0707  -13.8672   21.4101 O   0  0  0  0  0  0  0  0  0  0  0  0
   15.8818  -14.7852   19.6650 O   0  0  0  0  0  0  0  0  0  0  0  0
   11.3598  -16.0418   21.3283 N   0  0  0  0  0  0  0  0  0  0  0  0
   11.0679  -16.0506   22.7952 C   0  0  1  0  0  0  0  0  0  0  0  0
    9.6778  -16.5604   22.9247 C   0  0  0  0  0  0  0  0  0  0  0  0
    8.6280  -15.6312   22.5177 C   0  0  0  0  0  0  0  0  0  0  0  0
    8.3889  -14.3503   22.9379 C   0  0  0  0  0  0  0  0  0  0  0  0
    7.3331  -13.8442   22.2242 N   0  0  0  0  0  0  0  0  0  0  0  0
    6.9273  -14.7910   21.3785 C   0  0  0  0  0  0  0  0  0  0  0  0
    7.6960  -15.8511   21.5527 N   0  0  0  0  0  0  0  0  0  0  0  0
   12.0115  -17.0887   23.3630 C   0  0  0  0  0  0  0  0  0  0  0  0
   11.9835  -17.2957   24.6224 O   0  0  0  0  0  0  0  0  0  0  0  0
   12.8853  -17.8098   22.6118 O   0  0  0  0  0  0  0  0  0  0  0  0
  2  1  1  1
  2  3  1  0
  4  2  1  0
  5  4  2  0
  6  4  1  0
  7 11  1  0
  7  6  1  0
  7  8  1  1
  9  8  1  0
 10  9  2  0
 11 14  1  0
 12 11  2  0
 13  9  1  0
 14 15  1  0
 15 22  1  0
 15 16  1  6
 16 17  1  0
 17 21  1  0
 17 18  2  0
 18 19  1  0
 20 19  1  0
 21 20  2  0
 22 23  2  0
 22 24  1  0
M  END
$$$$
