ADH.pdb
     RDKit          3D

 24 24  0  0  1  0  0  0  0  0999 V2000
    7.3036  -13.8278   18.1396 C   0  0  0  0  0  0  0  0  0  0  0  0
    8.6175  -13.5458   18.8372 C   0  0  2  0  0  0  0  0  0  0  0  0
    9.6992  -13.6938   17.8857 N   0  0  0  0  0  0  0  0  0  0  0  0
    8.7919  -14.5473   19.9449 C   0  0  0  0  0  0  0  0  0  0  0  0
    7.8912  -14.5966   20.8351 O   0  0  0  0  0  0  0  0  0  0  0  0
    9.9230  -15.4011   19.9864 N   0  0  0  0  0  0  0  0  0  0  0  0
    9.9795  -16.4106   21.0569 C   0  0  1  0  0  0  0  0  0  0  0  0
   11.1299  -17.3141   20.7366 C   0  0  0  0  0  0  0  0  0  0  0  0
   10.8710  -18.1354   19.5564 C   0  0  0  0  0  0  0  0  0  0  0  0
   10.0467  -19.0605   19.5396 O   0  0  0  0  0  0  0  0  0  0  0  0
   10.1681  -15.6739   22.3546 C   0  0  0  0  0  0  0  0  0  0  0  0
   10.9962  -14.7473   22.5020 O   0  0  0  0  0  0  0  0  0  0  0  0
   11.5867  -17.8769   18.3646 O   0  0  0  0  0  0  0  0  0  0  0  0
    9.3755  -16.0347   23.4803 N   0  0  0  0  0  0  0  0  0  0  0  0
    9.2645  -15.1237   24.6613 C   0  0  1  0  0  0  0  0  0  0  0  0
    7.8836  -14.5758   24.6171 C   0  0  0  0  0  0  0  0  0  0  0  0
    7.5254  -13.6871   25.7185 C   0  0  0  0  0  0  0  0  0  0  0  0
    8.2997  -13.2194   26.7463 C   0  0  0  0  0  0  0  0  0  0  0  0
    7.5504  -12.3547   27.5018 N   0  0  0  0  0  0  0  0  0  0  0  0
    6.3377  -12.2867   26.9531 C   0  0  0  0  0  0  0  0  0  0  0  0
    6.3233  -13.0772   25.8948 N   0  0  0  0  0  0  0  0  0  0  0  0
    9.3753  -16.0416   25.8595 C   0  0  0  0  0  0  0  0  0  0  0  0
    9.1453  -17.2848   25.6826 O   0  0  0  0  0  0  0  0  0  0  0  0
    9.7030  -15.6196   27.1095 O   0  0  0  0  0  0  0  0  0  0  0  0
  2  1  1  6
  2  3  1  0
  4  2  1  0
  5  4  2  0
  6  4  1  0
  7 11  1  0
  7  6  1  0
  7  8  1  6
  9  8  1  0
 10  9  2  0
 11 14  1  0
 12 11  2  0
 13  9  1  0
 14 15  1  0
 15 22  1  0
 15 16  1  6
 16 17  1  0
 17 21  1  0
 17 18  2  0
 18 19  1  0
 20 19  1  0
 21 20  2  0
 22 23  2  0
 22 24  1  0
M  END
$$$$
