ADH.pdb
     RDKit          3D

 24 24  0  0  1  0  0  0  0  0999 V2000
    7.7508  -12.8754   19.3065 C   0  0  0  0  0  0  0  0  0  0  0  0
    8.9153  -13.4660   18.5400 C   0  0  2  0  0  0  0  0  0  0  0  0
    8.4411  -13.9531   17.2612 N   0  0  0  0  0  0  0  0  0  0  0  0
    9.4715  -14.6161   19.3326 C   0  0  0  0  0  0  0  0  0  0  0  0
    9.8116  -14.3889   20.5321 O   0  0  0  0  0  0  0  0  0  0  0  0
    9.6080  -15.9035   18.7543 N   0  0  0  0  0  0  0  0  0  0  0  0
   10.0705  -16.9985   19.6235 C   0  0  1  0  0  0  0  0  0  0  0  0
    9.6258  -18.2758   18.9806 C   0  0  0  0  0  0  0  0  0  0  0  0
    8.1729  -18.4272   19.0077 C   0  0  0  0  0  0  0  0  0  0  0  0
    7.4973  -18.3195   20.0408 O   0  0  0  0  0  0  0  0  0  0  0  0
   11.5677  -16.8906   19.7176 C   0  0  0  0  0  0  0  0  0  0  0  0
   12.3320  -17.1040   18.7499 O   0  0  0  0  0  0  0  0  0  0  0  0
    7.4857  -18.7109   17.8049 O   0  0  0  0  0  0  0  0  0  0  0  0
   12.1620  -16.5297   20.9596 N   0  0  0  0  0  0  0  0  0  0  0  0
   13.6469  -16.5615   21.1350 C   0  0  1  0  0  0  0  0  0  0  0  0
   14.1068  -15.1651   20.9169 C   0  0  0  0  0  0  0  0  0  0  0  0
   14.5634  -14.8587   19.5647 C   0  0  0  0  0  0  0  0  0  0  0  0
   14.5796  -15.6542   18.4505 C   0  0  0  0  0  0  0  0  0  0  0  0
   15.0317  -14.9135   17.3889 N   0  0  0  0  0  0  0  0  0  0  0  0
   15.2890  -13.6843   17.8353 C   0  0  0  0  0  0  0  0  0  0  0  0
   15.0108  -13.6521   19.1263 N   0  0  0  0  0  0  0  0  0  0  0  0
   13.8486  -16.9077   22.5944 C   0  0  0  0  0  0  0  0  0  0  0  0
   12.8310  -16.8661   23.3641 O   0  0  0  0  0  0  0  0  0  0  0  0
   15.0474  -17.2578   23.1314 O   0  0  0  0  0  0  0  0  0  0  0  0
  2  1  1  1
  2  3  1  0
  4  2  1  0
  5  4  2  0
  6  4  1  0
  7 11  1  0
  7  6  1  0
  7  8  1  6
  9  8  1  0
 10  9  2  0
 11 14  1  0
 12 11  2  0
 13  9  1  0
 14 15  1  0
 15 22  1  0
 15 16  1  1
 16 17  1  0
 17 21  1  0
 17 18  2  0
 18 19  1  0
 20 19  1  0
 21 20  2  0
 22 23  2  0
 22 24  1  0
M  END
$$$$
