ADH.pdb
     RDKit          3D

 24 24  0  0  1  0  0  0  0  0999 V2000
    6.9262  -13.6303   19.0940 C   0  0  0  0  0  0  0  0  0  0  0  0
    8.2082  -13.4064   19.8679 C   0  0  2  0  0  0  0  0  0  0  0  0
    9.3253  -13.4203   18.9463 N   0  0  0  0  0  0  0  0  0  0  0  0
    8.3681  -14.5275   20.8568 C   0  0  0  0  0  0  0  0  0  0  0  0
    7.4573  -14.6748   21.7256 O   0  0  0  0  0  0  0  0  0  0  0  0
    9.4973  -15.3840   20.8138 N   0  0  0  0  0  0  0  0  0  0  0  0
    9.6229  -16.4042   21.8682 C   0  0  1  0  0  0  0  0  0  0  0  0
   10.7569  -17.2975   21.4702 C   0  0  0  0  0  0  0  0  0  0  0  0
   10.4598  -18.0543   20.2563 C   0  0  0  0  0  0  0  0  0  0  0  0
   11.0747  -17.9003   19.1916 O   0  0  0  0  0  0  0  0  0  0  0  0
    9.8847  -15.6798   23.1601 C   0  0  0  0  0  0  0  0  0  0  0  0
   10.2435  -14.4821   23.2132 O   0  0  0  0  0  0  0  0  0  0  0  0
    9.4221  -19.0147   20.2780 O   0  0  0  0  0  0  0  0  0  0  0  0
    9.7222  -16.3743   24.3917 N   0  0  0  0  0  0  0  0  0  0  0  0
    9.2880  -15.6507   25.6265 C   0  0  1  0  0  0  0  0  0  0  0  0
    7.8834  -15.2351   25.3751 C   0  0  0  0  0  0  0  0  0  0  0  0
    7.4288  -14.0706   26.1291 C   0  0  0  0  0  0  0  0  0  0  0  0
    8.1244  -13.2673   26.9924 C   0  0  0  0  0  0  0  0  0  0  0  0
    7.3005  -12.2535   27.4088 N   0  0  0  0  0  0  0  0  0  0  0  0
    6.1196  -12.4240   26.8150 C   0  0  0  0  0  0  0  0  0  0  0  0
    6.1961  -13.5021   26.0555 N   0  0  0  0  0  0  0  0  0  0  0  0
    9.2857  -16.7113   26.7061 C   0  0  0  0  0  0  0  0  0  0  0  0
    8.9500  -17.8980   26.3765 O   0  0  0  0  0  0  0  0  0  0  0  0
    9.6180  -16.4734   28.0026 O   0  0  0  0  0  0  0  0  0  0  0  0
  2  1  1  6
  2  3  1  0
  4  2  1  0
  5  4  2  0
  6  4  1  0
  7 11  1  0
  7  6  1  0
  7  8  1  6
  9  8  1  0
 10  9  2  0
 11 14  1  0
 12 11  2  0
 13  9  1  0
 14 15  1  0
 15 22  1  0
 15 16  1  6
 16 17  1  0
 17 21  1  0
 17 18  2  0
 18 19  1  0
 20 19  1  0
 21 20  2  0
 22 23  2  0
 22 24  1  0
M  END
$$$$
