ADH.pdb
     RDKit          3D

 24 24  0  0  1  0  0  0  0  0999 V2000
    7.2366  -13.4750   18.5255 C   0  0  0  0  0  0  0  0  0  0  0  0
    8.4990  -13.2964   19.3420 C   0  0  2  0  0  0  0  0  0  0  0  0
    9.6374  -13.2481   18.4480 N   0  0  0  0  0  0  0  0  0  0  0  0
    8.6413  -14.4774   20.2615 C   0  0  0  0  0  0  0  0  0  0  0  0
    7.6819  -14.7205   21.0530 O   0  0  0  0  0  0  0  0  0  0  0  0
    9.8069  -15.2843   20.2390 N   0  0  0  0  0  0  0  0  0  0  0  0
    9.8295  -16.4778   21.1013 C   0  0  1  0  0  0  0  0  0  0  0  0
   10.9965  -17.3060   20.6598 C   0  0  0  0  0  0  0  0  0  0  0  0
   10.7451  -17.9730   19.3845 C   0  0  0  0  0  0  0  0  0  0  0  0
    9.8485  -18.8126   19.2216 O   0  0  0  0  0  0  0  0  0  0  0  0
    9.9655  -15.9994   22.5208 C   0  0  0  0  0  0  0  0  0  0  0  0
   10.6725  -15.0204   22.8489 O   0  0  0  0  0  0  0  0  0  0  0  0
   11.5549  -17.6578   18.2689 O   0  0  0  0  0  0  0  0  0  0  0  0
    9.2636  -16.6813   23.5544 N   0  0  0  0  0  0  0  0  0  0  0  0
    9.2422  -16.1418   24.9491 C   0  0  1  0  0  0  0  0  0  0  0  0
    7.8057  -15.9903   25.2988 C   0  0  0  0  0  0  0  0  0  0  0  0
    7.3676  -14.6255   25.5754 C   0  0  0  0  0  0  0  0  0  0  0  0
    8.0919  -13.4636   25.5823 C   0  0  0  0  0  0  0  0  0  0  0  0
    7.2406  -12.4172   25.8275 N   0  0  0  0  0  0  0  0  0  0  0  0
    6.0142  -12.9196   25.9683 C   0  0  0  0  0  0  0  0  0  0  0  0
    6.0899  -14.2299   25.8183 N   0  0  0  0  0  0  0  0  0  0  0  0
    9.8242  -17.2541   25.7945 C   0  0  0  0  0  0  0  0  0  0  0  0
    9.9234  -18.4135   25.2695 O   0  0  0  0  0  0  0  0  0  0  0  0
   10.2446  -17.0904   27.0768 O   0  0  0  0  0  0  0  0  0  0  0  0
  2  1  1  6
  2  3  1  0
  4  2  1  0
  5  4  2  0
  6  4  1  0
  7 11  1  0
  7  6  1  0
  7  8  1  6
  9  8  1  0
 10  9  2  0
 11 14  1  0
 12 11  2  0
 13  9  1  0
 14 15  1  0
 15 22  1  0
 15 16  1  1
 16 17  1  0
 17 21  1  0
 17 18  2  0
 18 19  1  0
 20 19  1  0
 21 20  2  0
 22 23  2  0
 22 24  1  0
M  END
$$$$
