VWT.pdb
     RDKit          3D

 29 30  0  0  1  0  0  0  0  0999 V2000
   30.0634  -18.3731  -14.4238 C   0  0  0  0  0  0  0  0  0  0  0  0
   29.5871  -19.1428  -13.1789 C   0  0  2  0  0  0  0  0  0  0  0  0
   30.3217  -20.4560  -13.1764 C   0  0  0  0  0  0  0  0  0  0  0  0
   28.0952  -19.3541  -13.3627 C   0  0  2  0  0  0  0  0  0  0  0  0
   27.5412  -18.0002  -13.5098 N   0  0  0  0  0  0  0  0  0  0  0  0
   27.4594  -19.9813  -12.1844 C   0  0  0  0  0  0  0  0  0  0  0  0
   27.6319  -21.2082  -12.0029 O   0  0  0  0  0  0  0  0  0  0  0  0
   26.6590  -19.2707  -11.2322 N   0  0  0  0  0  0  0  0  0  0  0  0
   25.9039  -19.8230  -10.1726 C   0  0  1  0  0  0  0  0  0  0  0  0
   25.7504  -19.0788   -8.9161 C   0  0  0  0  0  0  0  0  0  0  0  0
   26.9062  -19.1552   -7.9866 C   0  0  0  0  0  0  0  0  0  0  0  0
   28.0978  -18.4684   -8.0058 C   0  0  0  0  0  0  0  0  0  0  0  0
   28.8724  -18.8769   -6.9532 N   0  0  0  0  0  0  0  0  0  0  0  0
   28.2180  -19.8045   -6.2581 C   0  0  0  0  0  0  0  0  0  0  0  0
   28.5198  -20.5442   -5.1307 C   0  0  0  0  0  0  0  0  0  0  0  0
   27.6082  -21.4551   -4.6409 C   0  0  0  0  0  0  0  0  0  0  0  0
   26.3792  -21.6372   -5.2761 C   0  0  0  0  0  0  0  0  0  0  0  0
   26.0835  -20.8936   -6.4040 C   0  0  0  0  0  0  0  0  0  0  0  0
   27.0034  -19.9981   -6.8690 C   0  0  0  0  0  0  0  0  0  0  0  0
   24.5500  -20.3094  -10.6360 C   0  0  0  0  0  0  0  0  0  0  0  0
   23.7245  -19.4568  -11.0667 O   0  0  0  0  0  0  0  0  0  0  0  0
   23.9928  -23.1919  -13.0853 C   0  0  0  0  0  0  0  0  0  0  0  0
   23.0568  -23.3755  -11.9078 C   0  0  1  0  0  0  0  0  0  0  0  0
   23.7077  -24.2646  -11.0221 O   0  0  0  0  0  0  0  0  0  0  0  0
   22.8388  -22.0769  -11.1655 C   0  0  2  0  0  0  0  0  0  0  0  0
   24.1397  -21.6491  -10.6224 N   0  0  0  0  0  0  0  0  0  0  0  0
   21.8483  -22.2237  -10.0824 C   0  0  0  0  0  0  0  0  0  0  0  0
   20.5481  -22.6052  -10.3636 O   0  0  0  0  0  0  0  0  0  0  0  0
   22.1793  -22.0015   -8.8862 O   0  0  0  0  0  0  0  0  0  0  0  0
  2  3  1  6
  2  1  1  0
  4  5  1  1
  4  2  1  0
  6  4  1  0
  7  6  2  0
  8  6  1  0
  9  8  1  0
  9 10  1  1
 10 11  1  0
 11 19  1  0
 12 11  2  0
 12 13  1  0
 13 14  1  0
 14 15  1  0
 15 16  2  0
 17 16  1  0
 18 17  2  0
 19 14  2  0
 19 18  1  0
 20  9  1  0
 21 20  2  0
 23 22  1  6
 23 24  1  0
 23 25  1  0
 25 26  1  1
 26 20  1  0
 27 25  1  0
 27 28  1  0
 29 27  2  0
M  END
$$$$
