VWT.pdb
     RDKit          3D

 29 30  0  0  1  0  0  0  0  0999 V2000
   28.2947  -20.4905  -13.3598 C   0  0  0  0  0  0  0  0  0  0  0  0
   28.0316  -20.0114  -11.9209 C   0  0  2  0  0  0  0  0  0  0  0  0
   29.1504  -20.5548  -11.0740 C   0  0  0  0  0  0  0  0  0  0  0  0
   26.6993  -20.6154  -11.5155 C   0  0  2  0  0  0  0  0  0  0  0  0
   26.8135  -22.0396  -11.8621 N   0  0  0  0  0  0  0  0  0  0  0  0
   25.5634  -20.0509  -12.2751 C   0  0  0  0  0  0  0  0  0  0  0  0
   25.2437  -18.8592  -12.0616 O   0  0  0  0  0  0  0  0  0  0  0  0
   24.8055  -20.7828  -13.2457 N   0  0  0  0  0  0  0  0  0  0  0  0
   23.7534  -20.2920  -14.0521 C   0  0  1  0  0  0  0  0  0  0  0  0
   23.8881  -20.2943  -15.5143 C   0  0  0  0  0  0  0  0  0  0  0  0
   25.0338  -19.5147  -16.0485 C   0  0  0  0  0  0  0  0  0  0  0  0
   26.3804  -19.7928  -16.0129 C   0  0  0  0  0  0  0  0  0  0  0  0
   27.0684  -18.7769  -16.6207 N   0  0  0  0  0  0  0  0  0  0  0  0
   26.2082  -17.8543  -17.0456 C   0  0  0  0  0  0  0  0  0  0  0  0
   26.3484  -16.6485  -17.7056 C   0  0  0  0  0  0  0  0  0  0  0  0
   25.2332  -15.8984  -18.0129 C   0  0  0  0  0  0  0  0  0  0  0  0
   23.9598  -16.3479  -17.6617 C   0  0  0  0  0  0  0  0  0  0  0  0
   23.8265  -17.5556  -17.0013 C   0  0  0  0  0  0  0  0  0  0  0  0
   24.9466  -18.2795  -16.7085 C   0  0  0  0  0  0  0  0  0  0  0  0
   22.4201  -20.8928  -13.6704 C   0  0  0  0  0  0  0  0  0  0  0  0
   22.3766  -22.1243  -13.3960 O   0  0  0  0  0  0  0  0  0  0  0  0
   18.1625  -20.5942  -11.4301 C   0  0  0  0  0  0  0  0  0  0  0  0
   19.5351  -20.1306  -11.8742 C   0  0  1  0  0  0  0  0  0  0  0  0
   20.4359  -20.5442  -10.8661 O   0  0  0  0  0  0  0  0  0  0  0  0
   19.9574  -20.8022  -13.1608 C   0  0  2  0  0  0  0  0  0  0  0  0
   21.2176  -20.1770  -13.5982 N   0  0  0  0  0  0  0  0  0  0  0  0
   18.9266  -20.6780  -14.2086 C   0  0  0  0  0  0  0  0  0  0  0  0
   17.8869  -21.5881  -14.2856 O   0  0  0  0  0  0  0  0  0  0  0  0
   18.9845  -19.7377  -15.0467 O   0  0  0  0  0  0  0  0  0  0  0  0
  2  3  1  1
  2  1  1  0
  4  5  1  6
  4  2  1  0
  6  4  1  0
  7  6  2  0
  8  6  1  0
  9  8  1  0
  9 10  1  6
 10 11  1  0
 11 19  1  0
 12 11  2  0
 12 13  1  0
 13 14  1  0
 14 15  1  0
 15 16  2  0
 17 16  1  0
 18 17  2  0
 19 14  2  0
 19 18  1  0
 20  9  1  0
 21 20  2  0
 23 22  1  1
 23 24  1  0
 23 25  1  0
 25 26  1  6
 26 20  1  0
 27 25  1  0
 27 28  1  0
 29 27  2  0
M  END
$$$$
