VWT.pdb
     RDKit          3D

 29 30  0  0  1  0  0  0  0  0999 V2000
   29.5915  -19.5868  -14.6847 C   0  0  0  0  0  0  0  0  0  0  0  0
   28.7979  -20.9049  -14.6402 C   0  0  2  0  0  0  0  0  0  0  0  0
   29.2137  -21.6998  -15.8482 C   0  0  0  0  0  0  0  0  0  0  0  0
   27.3333  -20.5147  -14.7231 C   0  0  2  0  0  0  0  0  0  0  0  0
   27.3286  -19.0502  -14.5933 N   0  0  0  0  0  0  0  0  0  0  0  0
   26.5314  -21.0734  -13.6137 C   0  0  0  0  0  0  0  0  0  0  0  0
   26.1580  -22.2657  -13.6965 O   0  0  0  0  0  0  0  0  0  0  0  0
   26.1568  -20.3352  -12.4445 N   0  0  0  0  0  0  0  0  0  0  0  0
   25.2323  -20.7266  -11.4494 C   0  0  1  0  0  0  0  0  0  0  0  0
   25.4853  -20.3933  -10.0419 C   0  0  0  0  0  0  0  0  0  0  0  0
   26.8395  -20.7396   -9.5400 C   0  0  0  0  0  0  0  0  0  0  0  0
   27.8252  -21.5022  -10.1219 C   0  0  0  0  0  0  0  0  0  0  0  0
   28.9060  -21.5611   -9.2834 N   0  0  0  0  0  0  0  0  0  0  0  0
   28.6472  -20.8617   -8.1808 C   0  0  0  0  0  0  0  0  0  0  0  0
   29.3630  -20.5914   -7.0303 C   0  0  0  0  0  0  0  0  0  0  0  0
   28.8039  -19.8140   -6.0385 C   0  0  0  0  0  0  0  0  0  0  0  0
   27.5167  -19.2961   -6.1870 C   0  0  0  0  0  0  0  0  0  0  0  0
   26.8058  -19.5704   -7.3411 C   0  0  0  0  0  0  0  0  0  0  0  0
   27.3821  -20.3429   -8.3083 C   0  0  0  0  0  0  0  0  0  0  0  0
   23.8160  -20.3405  -11.8094 C   0  0  0  0  0  0  0  0  0  0  0  0
   23.5281  -19.1127  -11.8673 O   0  0  0  0  0  0  0  0  0  0  0  0
   22.2200  -21.0106  -14.9176 C   0  0  0  0  0  0  0  0  0  0  0  0
   21.2038  -21.4615  -13.8879 C   0  0  1  0  0  0  0  0  0  0  0  0
   21.3893  -22.8546  -13.7351 O   0  0  0  0  0  0  0  0  0  0  0  0
   21.4571  -20.8215  -12.5422 C   0  0  2  0  0  0  0  0  0  0  0  0
   22.7896  -21.2535  -12.0859 N   0  0  0  0  0  0  0  0  0  0  0  0
   20.4259  -21.1932  -11.5551 C   0  0  0  0  0  0  0  0  0  0  0  0
   20.7377  -22.0141  -10.4855 O   0  0  0  0  0  0  0  0  0  0  0  0
   19.2465  -20.7646  -11.6785 O   0  0  0  0  0  0  0  0  0  0  0  0
  2  3  1  6
  2  1  1  0
  4  5  1  1
  4  2  1  0
  6  4  1  0
  7  6  2  0
  8  6  1  0
  9  8  1  0
  9 10  1  1
 10 11  1  0
 11 19  1  0
 12 11  2  0
 12 13  1  0
 13 14  1  0
 14 15  1  0
 15 16  2  0
 17 16  1  0
 18 17  2  0
 19 14  2  0
 19 18  1  0
 20  9  1  0
 21 20  2  0
 23 22  1  6
 23 24  1  0
 23 25  1  0
 25 26  1  1
 26 20  1  0
 27 25  1  0
 27 28  1  0
 29 27  2  0
M  END
$$$$
