VWT.pdb
     RDKit          3D

 29 30  0  0  1  0  0  0  0  0999 V2000
   27.7285  -20.3558  -11.3579 C   0  0  0  0  0  0  0  0  0  0  0  0
   27.0516  -21.3507  -12.3175 C   0  0  2  0  0  0  0  0  0  0  0  0
   27.2742  -20.8263  -13.7102 C   0  0  0  0  0  0  0  0  0  0  0  0
   25.5761  -21.3387  -11.9608 C   0  0  2  0  0  0  0  0  0  0  0  0
   25.1436  -19.9550  -12.2053 N   0  0  0  0  0  0  0  0  0  0  0  0
   25.3323  -21.6476  -10.5357 C   0  0  0  0  0  0  0  0  0  0  0  0
   25.6574  -22.7803  -10.1124 O   0  0  0  0  0  0  0  0  0  0  0  0
   24.7490  -20.7282   -9.6046 N   0  0  0  0  0  0  0  0  0  0  0  0
   24.2070  -21.0303   -8.3345 C   0  0  1  0  0  0  0  0  0  0  0  0
   24.5909  -20.2303   -7.1646 C   0  0  0  0  0  0  0  0  0  0  0  0
   26.0240  -19.8461   -7.0995 C   0  0  0  0  0  0  0  0  0  0  0  0
   26.8104  -19.2189   -8.0377 C   0  0  0  0  0  0  0  0  0  0  0  0
   28.0804  -19.0816   -7.5446 N   0  0  0  0  0  0  0  0  0  0  0  0
   28.1365  -19.6006   -6.3202 C   0  0  0  0  0  0  0  0  0  0  0  0
   29.1436  -19.7334   -5.3835 C   0  0  0  0  0  0  0  0  0  0  0  0
   28.8816  -20.3374   -4.1723 C   0  0  0  0  0  0  0  0  0  0  0  0
   27.6038  -20.8177   -3.8832 C   0  0  0  0  0  0  0  0  0  0  0  0
   26.6004  -20.6816   -4.8250 C   0  0  0  0  0  0  0  0  0  0  0  0
   26.8857  -20.0795   -6.0169 C   0  0  0  0  0  0  0  0  0  0  0  0
   22.7022  -21.1641   -8.3787 C   0  0  0  0  0  0  0  0  0  0  0  0
   22.0866  -20.6639   -9.3609 O   0  0  0  0  0  0  0  0  0  0  0  0
   20.8021  -21.7648   -9.9781 C   0  0  0  0  0  0  0  0  0  0  0  0
   20.1485  -22.5339   -8.8479 C   0  0  1  0  0  0  0  0  0  0  0  0
   20.7195  -23.8270   -8.8694 O   0  0  0  0  0  0  0  0  0  0  0  0
   20.4676  -21.9212   -7.5034 C   0  0  2  0  0  0  0  0  0  0  0  0
   21.9328  -21.8082   -7.4006 N   0  0  0  0  0  0  0  0  0  0  0  0
   19.9309  -22.7284   -6.3915 C   0  0  0  0  0  0  0  0  0  0  0  0
   18.5660  -22.8218   -6.1833 O   0  0  0  0  0  0  0  0  0  0  0  0
   20.7148  -23.3422   -5.6177 O   0  0  0  0  0  0  0  0  0  0  0  0
  2  3  1  6
  2  1  1  0
  4  5  1  1
  4  2  1  0
  6  4  1  0
  7  6  2  0
  8  6  1  0
  9  8  1  0
  9 10  1  1
 10 11  1  0
 11 19  1  0
 12 11  2  0
 12 13  1  0
 13 14  1  0
 14 15  1  0
 15 16  2  0
 17 16  1  0
 18 17  2  0
 19 14  2  0
 19 18  1  0
 20  9  1  0
 21 20  2  0
 23 22  1  6
 23 24  1  0
 23 25  1  0
 25 26  1  1
 26 20  1  0
 27 25  1  0
 27 28  1  0
 29 27  2  0
M  END
$$$$
