VWT.pdb
     RDKit          3D

 29 30  0  0  1  0  0  0  0  0999 V2000
   28.8039  -18.6030  -15.7998 C   0  0  0  0  0  0  0  0  0  0  0  0
   27.6042  -19.2319  -15.0690 C   0  0  2  0  0  0  0  0  0  0  0  0
   26.8079  -18.0946  -14.4888 C   0  0  0  0  0  0  0  0  0  0  0  0
   28.1912  -20.1010  -13.9715 C   0  0  2  0  0  0  0  0  0  0  0  0
   28.8601  -21.2002  -14.6826 N   0  0  0  0  0  0  0  0  0  0  0  0
   27.1555  -20.6883  -13.0949 C   0  0  0  0  0  0  0  0  0  0  0  0
   26.5351  -21.6953  -13.5060 O   0  0  0  0  0  0  0  0  0  0  0  0
   26.8187  -20.1784  -11.7992 N   0  0  0  0  0  0  0  0  0  0  0  0
   25.8213  -20.6661  -10.9243 C   0  0  1  0  0  0  0  0  0  0  0  0
   25.9229  -20.4109   -9.4819 C   0  0  0  0  0  0  0  0  0  0  0  0
   27.2262  -20.7646   -8.8638 C   0  0  0  0  0  0  0  0  0  0  0  0
   28.2532  -21.5357   -9.3563 C   0  0  0  0  0  0  0  0  0  0  0  0
   29.2571  -21.5989   -8.4272 N   0  0  0  0  0  0  0  0  0  0  0  0
   28.9087  -20.8942   -7.3531 C   0  0  0  0  0  0  0  0  0  0  0  0
   29.5243  -20.6250   -6.1457 C   0  0  0  0  0  0  0  0  0  0  0  0
   28.8869  -19.8406   -5.2081 C   0  0  0  0  0  0  0  0  0  0  0  0
   27.6210  -19.3147   -5.4687 C   0  0  0  0  0  0  0  0  0  0  0  0
   27.0106  -19.5880   -6.6792 C   0  0  0  0  0  0  0  0  0  0  0  0
   27.6630  -20.3675   -7.5909 C   0  0  0  0  0  0  0  0  0  0  0  0
   24.4304  -20.3136  -11.3993 C   0  0  0  0  0  0  0  0  0  0  0  0
   24.0794  -19.1013  -11.3721 O   0  0  0  0  0  0  0  0  0  0  0  0
   23.1855  -20.8904  -14.7075 C   0  0  0  0  0  0  0  0  0  0  0  0
   22.0728  -21.3959  -13.8117 C   0  0  1  0  0  0  0  0  0  0  0  0
   22.2478  -22.7956  -13.7176 O   0  0  0  0  0  0  0  0  0  0  0  0
   22.1866  -20.8312  -12.4142 C   0  0  2  0  0  0  0  0  0  0  0  0
   23.4931  -21.2420  -11.8716 N   0  0  0  0  0  0  0  0  0  0  0  0
   21.0930  -21.2999  -11.5424 C   0  0  0  0  0  0  0  0  0  0  0  0
   21.3507  -22.1602  -10.4895 O   0  0  0  0  0  0  0  0  0  0  0  0
   19.9090  -20.9193  -11.7503 O   0  0  0  0  0  0  0  0  0  0  0  0
  2  3  1  1
  2  1  1  0
  4  5  1  6
  4  2  1  0
  6  4  1  0
  7  6  2  0
  8  6  1  0
  9  8  1  0
  9 10  1  1
 10 11  1  0
 11 19  1  0
 12 11  2  0
 12 13  1  0
 13 14  1  0
 14 15  1  0
 15 16  2  0
 17 16  1  0
 18 17  2  0
 19 14  2  0
 19 18  1  0
 20  9  1  0
 21 20  2  0
 23 22  1  6
 23 24  1  0
 23 25  1  0
 25 26  1  1
 26 20  1  0
 27 25  1  0
 27 28  1  0
 29 27  2  0
M  END
$$$$
