VWT.pdb
     RDKit          3D

 29 30  0  0  1  0  0  0  0  0999 V2000
   16.7167   -8.3094  -17.1958 C   0  0  0  0  0  0  0  0  0  0  0  0
   17.4887   -8.6095  -18.4931 C   0  0  2  0  0  0  0  0  0  0  0  0
   16.4969   -9.1996  -19.4586 C   0  0  0  0  0  0  0  0  0  0  0  0
   18.5553   -9.6234  -18.1208 C   0  0  2  0  0  0  0  0  0  0  0  0
   17.8102  -10.7635  -17.5671 N   0  0  0  0  0  0  0  0  0  0  0  0
   19.4727   -9.1262  -17.0733 C   0  0  0  0  0  0  0  0  0  0  0  0
   19.2677   -9.4823  -15.8906 O   0  0  0  0  0  0  0  0  0  0  0  0
   20.5872   -8.2629  -17.3279 N   0  0  0  0  0  0  0  0  0  0  0  0
   21.5490   -7.8149  -16.3938 C   0  0  1  0  0  0  0  0  0  0  0  0
   22.9435   -8.2605  -16.5066 C   0  0  0  0  0  0  0  0  0  0  0  0
   23.1477   -9.7305  -16.4521 C   0  0  0  0  0  0  0  0  0  0  0  0
   23.4236  -10.6188  -17.4653 C   0  0  0  0  0  0  0  0  0  0  0  0
   23.5150  -11.8827  -16.9466 N   0  0  0  0  0  0  0  0  0  0  0  0
   23.3062  -11.8362  -15.6328 C   0  0  0  0  0  0  0  0  0  0  0  0
   23.2788  -12.7916  -14.6349 C   0  0  0  0  0  0  0  0  0  0  0  0
   23.0252  -12.4188  -13.3321 C   0  0  0  0  0  0  0  0  0  0  0  0
   22.7950  -11.0805  -13.0114 C   0  0  0  0  0  0  0  0  0  0  0  0
   22.8239  -10.1294  -14.0149 C   0  0  0  0  0  0  0  0  0  0  0  0
   23.0773  -10.5244  -15.2972 C   0  0  0  0  0  0  0  0  0  0  0  0
   21.5145   -6.3137  -16.2220 C   0  0  0  0  0  0  0  0  0  0  0  0
   21.8546   -5.5925  -17.2009 O   0  0  0  0  0  0  0  0  0  0  0  0
   18.7134   -4.1106  -15.6910 C   0  0  0  0  0  0  0  0  0  0  0  0
   19.6884   -3.7839  -14.5779 C   0  0  1  0  0  0  0  0  0  0  0  0
   19.2962   -4.5670  -13.4682 O   0  0  0  0  0  0  0  0  0  0  0  0
   21.0990   -4.1882  -14.9405 C   0  0  2  0  0  0  0  0  0  0  0  0
   21.1296   -5.6573  -15.0454 N   0  0  0  0  0  0  0  0  0  0  0  0
   22.0779   -3.7197  -13.9413 C   0  0  0  0  0  0  0  0  0  0  0  0
   22.3452   -2.3697  -13.7960 O   0  0  0  0  0  0  0  0  0  0  0  0
   22.6822   -4.5490  -13.2085 O   0  0  0  0  0  0  0  0  0  0  0  0
  2  3  1  6
  2  1  1  0
  4  5  1  1
  4  2  1  0
  6  4  1  0
  7  6  2  0
  8  6  1  0
  9  8  1  0
  9 10  1  6
 10 11  1  0
 11 19  1  0
 12 11  2  0
 12 13  1  0
 13 14  1  0
 14 15  1  0
 15 16  2  0
 17 16  1  0
 18 17  2  0
 19 14  2  0
 19 18  1  0
 20  9  1  0
 21 20  2  0
 23 22  1  6
 23 24  1  0
 23 25  1  0
 25 26  1  1
 26 20  1  0
 27 25  1  0
 27 28  1  0
 29 27  2  0
M  END
$$$$
